
     RDKit          3D

 61 63  0  0  0  0  0  0  0  0999 V2000
    1.3275    1.1581   -3.9009 C   0  0  0  0  0  0  0  0  0  0  0  0
    1.9428    0.4497   -2.9720 C   0  0  0  0  0  0  0  0  0  0  0  0
    2.5872   -0.2819   -1.9736 C   0  0  0  0  0  0  0  0  0  0  0  0
    1.8303   -0.5571   -0.7865 N   0  0  0  0  0  0  0  0  0  0  0  0
    2.4519   -1.5431    0.1205 C   0  0  0  0  0  0  0  0  0  0  0  0
    3.8249   -1.0203    0.4192 C   0  0  0  0  0  0  0  0  0  0  0  0
    3.9730    0.0173    1.2782 C   0  0  0  0  0  0  0  0  0  0  0  0
    5.2477    0.5180    1.5569 C   0  0  0  0  0  0  0  0  0  0  0  0
    6.3297   -0.0665    0.9375 C   0  0  0  0  0  0  0  0  0  0  0  0
    7.5586    0.3881    1.1787 N   0  0  0  0  0  0  0  0  0  0  0  0
    8.6817   -0.1549    0.5835 C   0  0  0  0  0  0  0  0  0  0  0  0
    9.9876    0.2948    0.8493 N   0  0  0  0  0  0  0  0  0  0  0  0
    8.4759   -1.1836   -0.2622 N   0  0  0  0  0  0  0  0  0  0  0  0
    7.2867   -1.7118   -0.5674 C   0  0  0  0  0  0  0  0  0  0  0  0
    7.1159   -2.6542   -1.3380 O   0  0  0  0  0  0  0  0  0  0  0  0
    6.1900   -1.1176    0.0628 C   0  0  0  0  0  0  0  0  0  0  0  0
    4.9278   -1.5825   -0.1845 C   0  0  0  0  0  0  0  0  0  0  0  0
    0.6390    0.0880   -0.3962 C   0  0  0  0  0  0  0  0  0  0  0  0
    0.1879    1.2856   -0.9075 C   0  0  0  0  0  0  0  0  0  0  0  0
   -1.0789    1.7375   -0.6351 C   0  0  0  0  0  0  0  0  0  0  0  0
   -1.9471    1.0389    0.1548 C   0  0  0  0  0  0  0  0  0  0  0  0
   -3.3436    1.5358    0.2861 C   0  0  0  0  0  0  0  0  0  0  0  0
   -3.6561    2.6363    0.7174 O   0  0  0  0  0  0  0  0  0  0  0  0
   -4.3641    0.6190   -0.1403 N   0  0  0  0  0  0  0  0  0  0  0  0
   -5.7906    0.9835   -0.1463 C   0  0  0  0  0  0  0  0  0  0  0  0
   -6.3379    0.6887    1.2195 C   0  0  0  0  0  0  0  0  0  0  0  0
   -7.7999    1.0002    1.3683 C   0  0  0  0  0  0  0  0  0  0  0  0
   -8.6669    0.0990    0.5814 C   0  0  0  0  0  0  0  0  0  0  0  0
   -9.7470    0.2952    0.1039 O   0  0  0  0  0  0  0  0  0  0  0  0
   -8.0515   -1.1995    0.4001 O   0  0  0  0  0  0  0  0  0  0  0  0
   -6.3871    0.2432   -1.2469 C   0  0  0  0  0  0  0  0  0  0  0  0
   -7.4255    0.5954   -1.8585 O   0  0  0  0  0  0  0  0  0  0  0  0
   -5.7315   -0.9559   -1.6312 O   0  0  0  0  0  0  0  0  0  0  0  0
   -1.5508   -0.1512    0.7043 C   0  0  0  0  0  0  0  0  0  0  0  0
   -2.4646   -0.9146    1.5923 C   0  0  0  0  0  0  0  0  0  0  0  0
   -0.2675   -0.6131    0.4232 C   0  0  0  0  0  0  0  0  0  0  0  0
    0.8480    1.7303   -4.6536 H   0  0  0  0  0  0  0  0  0  0  0  0
    3.1017   -1.2138   -2.3692 H   0  0  0  0  0  0  0  0  0  0  0  0
    3.5051    0.3651   -1.6165 H   0  0  0  0  0  0  0  0  0  0  0  0
    1.9468   -1.7203    1.0345 H   0  0  0  0  0  0  0  0  0  0  0  0
    2.5921   -2.4769   -0.4501 H   0  0  0  0  0  0  0  0  0  0  0  0
    3.1242    0.4917    1.7698 H   0  0  0  0  0  0  0  0  0  0  0  0
    5.3963    1.3449    2.2211 H   0  0  0  0  0  0  0  0  0  0  0  0
   10.7746    0.0572    0.2235 H   0  0  0  0  0  0  0  0  0  0  0  0
   10.1346    0.8539    1.7102 H   0  0  0  0  0  0  0  0  0  0  0  0
    9.3046   -1.6078   -0.7534 H   0  0  0  0  0  0  0  0  0  0  0  0
    4.7730   -2.4248   -0.8914 H   0  0  0  0  0  0  0  0  0  0  0  0
    0.8398    1.9141   -1.4540 H   0  0  0  0  0  0  0  0  0  0  0  0
   -1.4444    2.6994   -1.0372 H   0  0  0  0  0  0  0  0  0  0  0  0
   -4.0760   -0.3339   -0.4444 H   0  0  0  0  0  0  0  0  0  0  0  0
   -5.8823    2.1191   -0.2399 H   0  0  0  0  0  0  0  0  0  0  0  0
   -6.2539   -0.4257    1.4229 H   0  0  0  0  0  0  0  0  0  0  0  0
   -5.7495    1.2435    1.9754 H   0  0  0  0  0  0  0  0  0  0  0  0
   -8.0001    2.0674    1.0121 H   0  0  0  0  0  0  0  0  0  0  0  0
   -8.0705    0.8737    2.4299 H   0  0  0  0  0  0  0  0  0  0  0  0
   -8.7135   -1.9723    0.5573 H   0  0  0  0  0  0  0  0  0  0  0  0
   -6.1919   -1.5342   -2.3594 H   0  0  0  0  0  0  0  0  0  0  0  0
   -3.2644   -0.2746    2.0437 H   0  0  0  0  0  0  0  0  0  0  0  0
   -1.8051   -1.3901    2.3712 H   0  0  0  0  0  0  0  0  0  0  0  0
   -2.9003   -1.7581    1.0348 H   0  0  0  0  0  0  0  0  0  0  0  0
    0.0556   -1.5363    0.8717 H   0  0  0  0  0  0  0  0  0  0  0  0
  1  2  3  0
  2  3  1  0
  3  4  1  0
  4  5  1  0
  5  6  1  0
  6  7  2  0
  7  8  1  0
  8  9  2  0
  9 10  1  0
 10 11  2  0
 11 12  1  0
 11 13  1  0
 13 14  1  0
 14 15  2  0
 14 16  1  0
 16 17  2  0
  4 18  1  0
 18 19  2  0
 19 20  1  0
 20 21  2  0
 21 22  1  0
 22 23  2  0
 22 24  1  0
 24 25  1  0
 25 26  1  0
 26 27  1  0
 27 28  1  0
 28 29  2  0
 28 30  1  0
 25 31  1  0
 31 32  2  0
 31 33  1  0
 21 34  1  0
 34 35  1  0
 34 36  2  0
 17  6  1  0
 36 18  1  0
 16  9  1  0
  1 37  1  0
  3 38  1  0
  3 39  1  0
  5 40  1  0
  5 41  1  0
  7 42  1  0
  8 43  1  0
 12 44  1  0
 12 45  1  0
 13 46  1  0
 17 47  1  0
 19 48  1  0
 20 49  1  0
 24 50  1  0
 25 51  1  0
 26 52  1  0
 26 53  1  0
 27 54  1  0
 27 55  1  0
 30 56  1  0
 33 57  1  0
 35 58  1  0
 35 59  1  0
 35 60  1  0
 36 61  1  0
M  END
$$$$
