
     RDKit          3D

 42 45  0  0  0  0  0  0  0  0999 V2000
    5.2474    3.1150    0.5637 C   0  0  0  0  0  0  0  0  0  0  0  0
    4.0580    2.2335    0.3906 C   0  0  0  0  0  0  0  0  0  0  0  0
    3.8220    1.4040   -0.6885 C   0  0  0  0  0  0  0  0  0  0  0  0
    2.6281    0.7510   -0.4923 C   0  0  0  0  0  0  0  0  0  0  0  0
    2.0430   -0.1871   -1.3828 N   0  0  0  0  0  0  0  0  0  0  0  0
    0.8016   -0.8151   -1.0974 C   0  0  0  0  0  0  0  0  0  0  0  0
   -0.3376   -0.2426   -1.5070 N   0  0  0  0  0  0  0  0  0  0  0  0
   -1.5190   -0.8144   -1.2505 N   0  0  0  0  0  0  0  0  0  0  0  0
   -2.7216   -0.1840   -1.6969 C   0  0  0  0  0  0  0  0  0  0  0  0
   -3.3024    0.7687   -0.7162 C   0  0  0  0  0  0  0  0  0  0  0  0
   -2.9470    2.1125   -0.6922 C   0  0  0  0  0  0  0  0  0  0  0  0
   -3.4775    2.9987    0.2074 C   0  0  0  0  0  0  0  0  0  0  0  0
   -4.4013    2.5782    1.1390 C   0  0  0  0  0  0  0  0  0  0  0  0
   -4.9397    3.4407    2.0401 F   0  0  0  0  0  0  0  0  0  0  0  0
   -4.7784    1.2307    1.1389 C   0  0  0  0  0  0  0  0  0  0  0  0
   -4.2269    0.3568    0.2189 C   0  0  0  0  0  0  0  0  0  0  0  0
   -1.5648   -1.9648   -0.5811 C   0  0  0  0  0  0  0  0  0  0  0  0
   -2.6506   -2.5372   -0.3182 O   0  0  0  0  0  0  0  0  0  0  0  0
   -0.4144   -2.6066   -0.1304 C   0  0  0  0  0  0  0  0  0  0  0  0
   -0.4451   -3.7927    0.5609 C   0  0  0  0  0  0  0  0  0  0  0  0
    0.7114   -4.4249    1.0064 C   0  0  0  0  0  0  0  0  0  0  0  0
    1.9053   -3.8225    0.7328 C   0  0  0  0  0  0  0  0  0  0  0  0
    1.9441   -2.6234    0.0346 C   0  0  0  0  0  0  0  0  0  0  0  0
    0.7852   -2.0006   -0.4057 C   0  0  0  0  0  0  0  0  0  0  0  0
    2.1545    1.1870    0.6950 N   0  0  0  0  0  0  0  0  0  0  0  0
    3.0127    2.0660    1.2077 N   0  0  0  0  0  0  0  0  0  0  0  0
    5.7102    3.0000    1.5710 H   0  0  0  0  0  0  0  0  0  0  0  0
    5.0281    4.1681    0.3309 H   0  0  0  0  0  0  0  0  0  0  0  0
    6.0372    2.7949   -0.1596 H   0  0  0  0  0  0  0  0  0  0  0  0
    4.4677    1.2767   -1.5617 H   0  0  0  0  0  0  0  0  0  0  0  0
    2.5571   -0.4142   -2.2784 H   0  0  0  0  0  0  0  0  0  0  0  0
   -2.4653    0.4094   -2.6204 H   0  0  0  0  0  0  0  0  0  0  0  0
   -3.4754   -0.9277   -2.0314 H   0  0  0  0  0  0  0  0  0  0  0  0
   -2.2317    2.4323   -1.4154 H   0  0  0  0  0  0  0  0  0  0  0  0
   -3.1995    4.0420    0.2236 H   0  0  0  0  0  0  0  0  0  0  0  0
   -5.5047    0.9224    1.8785 H   0  0  0  0  0  0  0  0  0  0  0  0
   -4.5721   -0.6723    0.2841 H   0  0  0  0  0  0  0  0  0  0  0  0
   -1.3795   -4.2695    0.7781 H   0  0  0  0  0  0  0  0  0  0  0  0
    0.6544   -5.3695    1.5548 H   0  0  0  0  0  0  0  0  0  0  0  0
    2.8283   -4.3003    1.0728 H   0  0  0  0  0  0  0  0  0  0  0  0
    2.9080   -2.1729   -0.1653 H   0  0  0  0  0  0  0  0  0  0  0  0
    1.2500    0.8537    1.1014 H   0  0  0  0  0  0  0  0  0  0  0  0
  1  2  1  0
  2  3  1  0
  3  4  2  0
  4  5  1  0
  5  6  1  0
  6  7  2  0
  7  8  1  0
  8  9  1  0
  9 10  1  0
 10 11  2  0
 11 12  1  0
 12 13  2  0
 13 14  1  0
 13 15  1  0
 15 16  2  0
  8 17  1  0
 17 18  2  0
 17 19  1  0
 19 20  2  0
 20 21  1  0
 21 22  2  0
 22 23  1  0
 23 24  2  0
  4 25  1  0
 25 26  1  0
 26  2  2  0
 24  6  1  0
 16 10  1  0
 24 19  1  0
  1 27  1  0
  1 28  1  0
  1 29  1  0
  3 30  1  0
  5 31  1  0
  9 32  1  0
  9 33  1  0
 11 34  1  0
 12 35  1  0
 15 36  1  0
 16 37  1  0
 20 38  1  0
 21 39  1  0
 22 40  1  0
 23 41  1  0
 25 42  1  0
M  END
$$$$
