
     RDKit          3D

 63 66  0  0  0  0  0  0  0  0999 V2000
   -4.0277    1.7505    2.1621 C   0  0  0  0  0  0  0  0  0  0  0  0
   -3.3273    0.7364    1.9676 C   0  0  0  0  0  0  0  0  0  0  0  0
   -2.4895   -0.4580    1.7334 C   0  0  0  0  0  0  0  0  0  0  0  0
   -1.8472   -0.5056    0.4827 N   0  0  0  0  0  0  0  0  0  0  0  0
   -2.4748   -0.7089   -0.7257 C   0  0  0  0  0  0  0  0  0  0  0  0
   -3.9170   -0.3481   -0.7614 C   0  0  0  0  0  0  0  0  0  0  0  0
   -4.8455   -1.3943   -0.6863 C   0  0  0  0  0  0  0  0  0  0  0  0
   -6.1697   -0.9862   -0.5384 C   0  0  0  0  0  0  0  0  0  0  0  0
   -6.5457    0.3333   -0.4675 C   0  0  0  0  0  0  0  0  0  0  0  0
   -7.8332    0.6449   -0.1248 C   0  0  0  0  0  0  0  0  0  0  0  0
   -8.1744    1.9859    0.0904 C   0  0  0  0  0  0  0  0  0  0  0  0
   -7.2355    2.9588   -0.0331 C   0  0  0  0  0  0  0  0  0  0  0  0
   -5.9083    2.6188   -0.3643 C   0  0  0  0  0  0  0  0  0  0  0  0
   -4.9643    3.6147   -0.4473 O   0  0  0  0  0  0  0  0  0  0  0  0
   -5.5755    1.2743   -0.5881 C   0  0  0  0  0  0  0  0  0  0  0  0
   -4.2574    0.8894   -0.7349 N   0  0  0  0  0  0  0  0  0  0  0  0
   -0.4480   -0.6424    0.5143 C   0  0  0  0  0  0  0  0  0  0  0  0
    0.0622    0.7201    0.1411 C   0  0  0  0  0  0  0  0  0  0  0  0
    0.4814    1.8584   -0.1489 N   0  0  0  0  0  0  0  0  0  0  0  0
   -0.0368   -1.6201   -0.4705 C   0  0  0  0  0  0  0  0  0  0  0  0
    1.4465   -1.9366   -0.6045 C   0  0  0  0  0  0  0  0  0  0  0  0
    2.0529   -2.4973    0.6587 C   0  0  0  0  0  0  0  0  0  0  0  0
    3.3108   -1.9345    1.0706 C   0  0  0  0  0  0  0  0  0  0  0  0
    4.1258   -1.2319    0.0856 N   0  0  0  0  0  0  0  0  0  0  0  0
    5.1245   -0.5396    0.9195 C   0  0  0  0  0  0  0  0  0  0  0  0
    6.1819    0.1573    0.1841 C   0  0  0  0  0  0  0  0  0  0  0  0
    5.9799    1.4755   -0.2661 C   0  0  0  0  0  0  0  0  0  0  0  0
    6.9944    2.2143   -0.9056 C   0  0  0  0  0  0  0  0  0  0  0  0
    8.2595    1.5903   -1.0919 C   0  0  0  0  0  0  0  0  0  0  0  0
    8.4446    0.3230   -0.6692 C   0  0  0  0  0  0  0  0  0  0  0  0
    7.4289   -0.3508   -0.0575 C   0  0  0  0  0  0  0  0  0  0  0  0
    3.2004   -0.1644   -0.3930 C   0  0  0  0  0  0  0  0  0  0  0  0
    2.1795   -0.8485   -1.2679 C   0  0  0  0  0  0  0  0  0  0  0  0
   -4.6149    2.5919    2.3298 H   0  0  0  0  0  0  0  0  0  0  0  0
   -1.8168   -0.6191    2.5588 H   0  0  0  0  0  0  0  0  0  0  0  0
   -3.2634   -1.3478    1.7710 H   0  0  0  0  0  0  0  0  0  0  0  0
   -2.0157   -0.0999   -1.5453 H   0  0  0  0  0  0  0  0  0  0  0  0
   -2.3626   -1.7912   -1.0430 H   0  0  0  0  0  0  0  0  0  0  0  0
   -4.6248   -2.4252   -0.7569 H   0  0  0  0  0  0  0  0  0  0  0  0
   -7.0009   -1.7239   -0.4631 H   0  0  0  0  0  0  0  0  0  0  0  0
   -8.5973   -0.0935   -0.0006 H   0  0  0  0  0  0  0  0  0  0  0  0
   -9.2123    2.2117    0.3497 H   0  0  0  0  0  0  0  0  0  0  0  0
   -7.4790    4.0118    0.1560 H   0  0  0  0  0  0  0  0  0  0  0  0
   -4.0267    3.5140   -0.0455 H   0  0  0  0  0  0  0  0  0  0  0  0
   -0.1373   -0.8321    1.5443 H   0  0  0  0  0  0  0  0  0  0  0  0
   -0.5670   -2.6062   -0.2973 H   0  0  0  0  0  0  0  0  0  0  0  0
   -0.3796   -1.2882   -1.4858 H   0  0  0  0  0  0  0  0  0  0  0  0
    1.4102   -2.7952   -1.3111 H   0  0  0  0  0  0  0  0  0  0  0  0
    1.2928   -2.3720    1.4916 H   0  0  0  0  0  0  0  0  0  0  0  0
    2.1862   -3.6309    0.5894 H   0  0  0  0  0  0  0  0  0  0  0  0
    3.1417   -1.1305    1.8954 H   0  0  0  0  0  0  0  0  0  0  0  0
    4.0138   -2.6802    1.5549 H   0  0  0  0  0  0  0  0  0  0  0  0
    4.5420    0.1914    1.5627 H   0  0  0  0  0  0  0  0  0  0  0  0
    5.5176   -1.2782    1.6305 H   0  0  0  0  0  0  0  0  0  0  0  0
    5.0433    1.9365   -0.0949 H   0  0  0  0  0  0  0  0  0  0  0  0
    6.8884    3.1940   -1.2648 H   0  0  0  0  0  0  0  0  0  0  0  0
    9.0101    2.1864   -1.5324 H   0  0  0  0  0  0  0  0  0  0  0  0
    9.4463   -0.1529   -0.7845 H   0  0  0  0  0  0  0  0  0  0  0  0
    7.5934   -1.3773    0.2683 H   0  0  0  0  0  0  0  0  0  0  0  0
    3.7769    0.4840   -1.0703 H   0  0  0  0  0  0  0  0  0  0  0  0
    2.8540    0.3108    0.5232 H   0  0  0  0  0  0  0  0  0  0  0  0
    1.4268   -0.1704   -1.7151 H   0  0  0  0  0  0  0  0  0  0  0  0
    2.7593   -1.1964   -2.1376 H   0  0  0  0  0  0  0  0  0  0  0  0
  1  2  3  0
  2  3  1  0
  3  4  1  0
  4  5  1  0
  5  6  1  0
  6  7  2  0
  7  8  1  0
  8  9  2  0
  9 10  1  0
 10 11  2  0
 11 12  1  0
 12 13  2  0
 13 14  1  0
 13 15  1  0
 15 16  2  0
  4 17  1  0
 17 18  1  0
 18 19  3  0
 17 20  1  0
 20 21  1  0
 21 22  1  0
 22 23  1  0
 23 24  1  0
 24 25  1  0
 25 26  1  0
 26 27  2  0
 27 28  1  0
 28 29  2  0
 29 30  1  0
 30 31  2  0
 24 32  1  0
 32 33  1  0
 16  6  1  0
 33 21  1  0
 15  9  1  0
 31 26  1  0
  1 34  1  0
  3 35  1  0
  3 36  1  0
  5 37  1  0
  5 38  1  0
  7 39  1  0
  8 40  1  0
 10 41  1  0
 11 42  1  0
 12 43  1  0
 14 44  1  0
 17 45  1  0
 20 46  1  0
 20 47  1  0
 21 48  1  0
 22 49  1  0
 22 50  1  0
 23 51  1  0
 23 52  1  0
 25 53  1  0
 25 54  1  0
 27 55  1  0
 28 56  1  0
 29 57  1  0
 30 58  1  0
 31 59  1  0
 32 60  1  0
 32 61  1  0
 33 62  1  0
 33 63  1  0
M  END
$$$$
