
     RDKit          3D

 44 47  0  0  0  0  0  0  0  0999 V2000
   -1.0339    3.5036    1.8427 C   0  0  0  0  0  0  0  0  0  0  0  0
   -0.2920    2.3203    1.5268 N   0  0  0  0  0  0  0  0  0  0  0  0
   -1.1465    1.4637    0.6791 C   0  0  1  0  0  0  0  0  0  0  0  0
   -1.1832    2.2407   -0.5829 C   0  0  0  0  0  0  0  0  0  0  0  0
    0.1151    3.0529   -0.6699 C   0  0  0  0  0  0  0  0  0  0  0  0
    0.7883    2.6394    0.6136 C   0  0  2  0  0  0  0  0  0  0  0  0
    1.6020    1.4038    0.4092 C   0  0  0  0  0  0  0  0  0  0  0  0
    0.7701    0.3113   -0.2728 C   0  0  1  0  0  0  0  0  0  0  0  0
    1.6593   -0.8684   -0.3459 C   0  0  0  0  0  0  0  0  0  0  0  0
    2.0058   -1.3602   -1.5842 C   0  0  0  0  0  0  0  0  0  0  0  0
    2.8414   -2.4706   -1.7225 C   0  0  0  0  0  0  0  0  0  0  0  0
    3.3507   -3.1158   -0.6202 C   0  0  0  0  0  0  0  0  0  0  0  0
    3.0061   -2.6265    0.6206 C   0  0  0  0  0  0  0  0  0  0  0  0
    2.1767   -1.5246    0.7447 C   0  0  0  0  0  0  0  0  0  0  0  0
   -0.4450    0.1029    0.5618 C   0  0  2  0  0  0  0  0  0  0  0  0
   -1.3523   -0.9554    0.1537 C   0  0  0  0  0  0  0  0  0  0  0  0
   -1.9605   -1.7813    1.1079 C   0  0  0  0  0  0  0  0  0  0  0  0
   -2.8147   -2.7951    0.7369 C   0  0  0  0  0  0  0  0  0  0  0  0
   -3.1075   -3.0408   -0.5821 C   0  0  0  0  0  0  0  0  0  0  0  0
   -2.5060   -2.2245   -1.5228 C   0  0  0  0  0  0  0  0  0  0  0  0
   -1.6468   -1.2036   -1.1646 C   0  0  0  0  0  0  0  0  0  0  0  0
   -1.0516    3.6676    2.9486 H   0  0  0  0  0  0  0  0  0  0  0  0
   -2.0612    3.4844    1.4491 H   0  0  0  0  0  0  0  0  0  0  0  0
   -0.5449    4.4059    1.4118 H   0  0  0  0  0  0  0  0  0  0  0  0
   -2.0939    1.3824    1.2125 H   0  0  0  0  0  0  0  0  0  0  0  0
   -2.0300    2.9639   -0.5342 H   0  0  0  0  0  0  0  0  0  0  0  0
   -1.2252    1.6642   -1.5187 H   0  0  0  0  0  0  0  0  0  0  0  0
   -0.0947    4.1283   -0.7254 H   0  0  0  0  0  0  0  0  0  0  0  0
    0.7512    2.7441   -1.4983 H   0  0  0  0  0  0  0  0  0  0  0  0
    1.4573    3.4248    1.0159 H   0  0  0  0  0  0  0  0  0  0  0  0
    1.9065    1.0177    1.4094 H   0  0  0  0  0  0  0  0  0  0  0  0
    2.5142    1.5646   -0.1948 H   0  0  0  0  0  0  0  0  0  0  0  0
    0.5106    0.6282   -1.2791 H   0  0  0  0  0  0  0  0  0  0  0  0
    1.6527   -0.9171   -2.5071 H   0  0  0  0  0  0  0  0  0  0  0  0
    3.1178   -2.8625   -2.6924 H   0  0  0  0  0  0  0  0  0  0  0  0
    4.0116   -3.9939   -0.7233 H   0  0  0  0  0  0  0  0  0  0  0  0
    3.3967   -3.1200    1.5126 H   0  0  0  0  0  0  0  0  0  0  0  0
    1.9253   -1.1653    1.7370 H   0  0  0  0  0  0  0  0  0  0  0  0
   -0.1539   -0.1101    1.6255 H   0  0  0  0  0  0  0  0  0  0  0  0
   -1.7858   -1.6579    2.1669 H   0  0  0  0  0  0  0  0  0  0  0  0
   -3.2921   -3.4419    1.4690 H   0  0  0  0  0  0  0  0  0  0  0  0
   -3.7740   -3.8300   -0.8902 H   0  0  0  0  0  0  0  0  0  0  0  0
   -2.7304   -2.4110   -2.5534 H   0  0  0  0  0  0  0  0  0  0  0  0
   -1.2334   -0.6379   -1.9870 H   0  0  0  0  0  0  0  0  0  0  0  0
  1  2  1  0
  2  3  1  0
  3  4  1  0
  4  5  1  0
  5  6  1  0
  6  7  1  0
  7  8  1  0
  8  9  1  0
  9 10  2  0
 10 11  1  0
 11 12  2  0
 12 13  1  0
 13 14  2  0
  8 15  1  0
 15 16  1  0
 16 17  2  0
 17 18  1  0
 18 19  2  0
 19 20  1  0
 20 21  2  0
  6  2  1  0
 14  9  1  0
 21 16  1  0
 15  3  1  0
  1 22  1  0
  1 23  1  0
  1 24  1  0
  3 25  1  1
  4 26  1  0
  4 27  1  0
  5 28  1  0
  5 29  1  0
  6 30  1  1
  7 31  1  0
  7 32  1  0
  8 33  1  6
 10 34  1  0
 11 35  1  0
 12 36  1  0
 13 37  1  0
 14 38  1  0
 15 39  1  1
 17 40  1  0
 18 41  1  0
 19 42  1  0
 20 43  1  0
 21 44  1  0
M  END
$$$$
