
     RDKit          3D

 73 76  0  0  0  0  0  0  0  0999 V2000
    0.5775    0.9944   -2.5623 C   0  0  0  0  0  0  0  0  0  0  0  0
    1.0203   -0.2550   -1.7482 C   0  0  1  0  0  0  0  0  0  0  0  0
    2.2694    0.0575   -1.0358 C   0  0  0  0  0  0  0  0  0  0  0  0
    3.4279   -0.6661   -1.3199 C   0  0  0  0  0  0  0  0  0  0  0  0
    4.6339   -0.4120   -0.7080 C   0  0  0  0  0  0  0  0  0  0  0  0
    4.7614    0.5872    0.2326 C   0  0  0  0  0  0  0  0  0  0  0  0
    6.0418    0.8643    0.8942 C   0  0  0  0  0  0  0  0  0  0  0  0
    6.4233    2.1172    1.3210 C   0  0  0  0  0  0  0  0  0  0  0  0
    7.6219    2.3804    1.9443 C   0  0  0  0  0  0  0  0  0  0  0  0
    8.4937    1.3277    2.1543 C   0  0  0  0  0  0  0  0  0  0  0  0
    9.5847    1.5685    2.7217 O   0  0  0  0  0  0  0  0  0  0  0  0
    8.1425    0.0867    1.7444 N   0  0  0  0  0  0  0  0  0  0  0  0
    9.0960   -0.9792    1.9920 C   0  0  0  0  0  0  0  0  0  0  0  0
    6.9572   -0.1487    1.1329 C   0  0  0  0  0  0  0  0  0  0  0  0
    3.6240    1.3125    0.5242 C   0  0  0  0  0  0  0  0  0  0  0  0
    2.3980    1.0546   -0.0978 C   0  0  0  0  0  0  0  0  0  0  0  0
   -0.0786   -0.6952   -0.9250 N   0  0  0  0  0  0  0  0  0  0  0  0
   -0.5632    0.0076    0.2303 C   0  0  0  0  0  0  0  0  0  0  0  0
   -1.7017   -0.7532    0.8493 C   0  0  0  0  0  0  0  0  0  0  0  0
   -2.7503   -1.2404   -0.0676 C   0  0  2  0  0  0  0  0  0  0  0  0
   -3.5364   -0.2841   -0.8409 C   0  0  0  0  0  0  0  0  0  0  0  0
   -4.3815    0.7464   -0.2459 C   0  0  0  0  0  0  0  0  0  0  0  0
   -3.7518    1.7729    0.6295 C   0  0  0  0  0  0  0  0  0  0  0  0
   -5.4989    0.1289    0.6428 C   0  0  0  0  0  0  0  0  0  0  0  0
   -5.1436    1.4101   -1.2685 N   0  0  0  0  0  0  0  0  0  0  0  0
   -4.3757    2.0860   -2.5840 S   0  0  0  0  0  6  0  0  0  0  0  0
   -3.2610    3.3625   -2.0539 C   0  0  0  0  0  0  0  0  0  0  0  0
   -3.5643    1.1321   -3.4328 O   0  0  0  0  0  0  0  0  0  0  0  0
   -5.3691    2.8265   -3.5001 O   0  0  0  0  0  0  0  0  0  0  0  0
   -3.5822   -2.2677    0.6655 C   0  0  0  0  0  0  0  0  0  0  0  0
   -4.5872   -2.9357    0.0183 C   0  0  0  0  0  0  0  0  0  0  0  0
   -5.3686   -3.8707    0.6178 C   0  0  0  0  0  0  0  0  0  0  0  0
   -5.1649   -4.1873    1.9475 C   0  0  0  0  0  0  0  0  0  0  0  0
   -4.1437   -3.5046    2.5954 C   0  0  0  0  0  0  0  0  0  0  0  0
   -3.3619   -2.5617    1.9770 C   0  0  0  0  0  0  0  0  0  0  0  0
   -2.0639   -2.0595   -1.0491 O   0  0  0  0  0  0  0  0  0  0  0  0
   -0.7129   -1.9142   -1.2758 C   0  0  0  0  0  0  0  0  0  0  0  0
   -0.0897   -2.8861   -1.7941 O   0  0  0  0  0  0  0  0  0  0  0  0
   -0.1737    0.7273   -3.3036 H   0  0  0  0  0  0  0  0  0  0  0  0
    0.1621    1.6864   -1.7907 H   0  0  0  0  0  0  0  0  0  0  0  0
    1.4765    1.4983   -2.9727 H   0  0  0  0  0  0  0  0  0  0  0  0
    1.2018   -1.0019   -2.5343 H   0  0  0  0  0  0  0  0  0  0  0  0
    3.3277   -1.4510   -2.0589 H   0  0  0  0  0  0  0  0  0  0  0  0
    5.5334   -0.9865   -0.9398 H   0  0  0  0  0  0  0  0  0  0  0  0
    5.7461    2.9386    1.1580 H   0  0  0  0  0  0  0  0  0  0  0  0
    7.8916    3.3768    2.2678 H   0  0  0  0  0  0  0  0  0  0  0  0
    9.7230   -1.1297    1.0841 H   0  0  0  0  0  0  0  0  0  0  0  0
    9.7595   -0.7212    2.8267 H   0  0  0  0  0  0  0  0  0  0  0  0
    8.5633   -1.9400    2.1704 H   0  0  0  0  0  0  0  0  0  0  0  0
    6.7339   -1.1575    0.8296 H   0  0  0  0  0  0  0  0  0  0  0  0
    3.7247    2.1072    1.2706 H   0  0  0  0  0  0  0  0  0  0  0  0
    1.5512    1.6738    0.1698 H   0  0  0  0  0  0  0  0  0  0  0  0
    0.2714   -0.0699    1.0046 H   0  0  0  0  0  0  0  0  0  0  0  0
   -0.8099    1.0518    0.0281 H   0  0  0  0  0  0  0  0  0  0  0  0
   -2.0246   -0.2259    1.7512 H   0  0  0  0  0  0  0  0  0  0  0  0
   -1.1998   -1.6990    1.2624 H   0  0  0  0  0  0  0  0  0  0  0  0
   -4.1525   -0.8238   -1.6143 H   0  0  0  0  0  0  0  0  0  0  0  0
   -2.7748    0.2692   -1.4856 H   0  0  0  0  0  0  0  0  0  0  0  0
   -3.6942    1.4625    1.6991 H   0  0  0  0  0  0  0  0  0  0  0  0
   -4.4871    2.6373    0.6653 H   0  0  0  0  0  0  0  0  0  0  0  0
   -2.8268    2.2124    0.2576 H   0  0  0  0  0  0  0  0  0  0  0  0
   -5.0643   -0.2995    1.5588 H   0  0  0  0  0  0  0  0  0  0  0  0
   -6.1589   -0.5257    0.0630 H   0  0  0  0  0  0  0  0  0  0  0  0
   -6.1594    0.9704    1.0100 H   0  0  0  0  0  0  0  0  0  0  0  0
   -5.7987    2.0895   -0.8474 H   0  0  0  0  0  0  0  0  0  0  0  0
   -3.6663    3.9020   -1.1836 H   0  0  0  0  0  0  0  0  0  0  0  0
   -2.2278    2.9776   -1.8902 H   0  0  0  0  0  0  0  0  0  0  0  0
   -3.1413    4.1242   -2.8843 H   0  0  0  0  0  0  0  0  0  0  0  0
   -4.7721   -2.7037   -1.0423 H   0  0  0  0  0  0  0  0  0  0  0  0
   -6.1518   -4.3656    0.0471 H   0  0  0  0  0  0  0  0  0  0  0  0
   -5.7796   -4.9285    2.4327 H   0  0  0  0  0  0  0  0  0  0  0  0
   -4.0187   -3.7846    3.6383 H   0  0  0  0  0  0  0  0  0  0  0  0
   -2.6068   -2.0941    2.5816 H   0  0  0  0  0  0  0  0  0  0  0  0
  1  2  1  0
  2  3  1  0
  3  4  2  0
  4  5  1  0
  5  6  2  0
  6  7  1  0
  7  8  1  0
  8  9  2  0
  9 10  1  0
 10 11  2  0
 10 12  1  0
 12 13  1  0
 12 14  1  0
  6 15  1  0
 15 16  2  0
  2 17  1  0
 17 18  1  0
 18 19  1  0
 19 20  1  0
 20 21  1  6
 21 22  1  0
 22 23  1  0
 22 24  1  0
 22 25  1  0
 25 26  1  0
 26 27  1  0
 26 28  2  0
 26 29  2  0
 20 30  1  0
 30 31  2  0
 31 32  1  0
 32 33  2  0
 33 34  1  0
 34 35  2  0
 20 36  1  0
 36 37  1  0
 37 38  2  0
 16  3  1  0
 37 17  1  0
 14  7  2  0
 35 30  1  0
  1 39  1  0
  1 40  1  0
  1 41  1  0
  2 42  1  6
  4 43  1  0
  5 44  1  0
  8 45  1  0
  9 46  1  0
 13 47  1  0
 13 48  1  0
 13 49  1  0
 14 50  1  0
 15 51  1  0
 16 52  1  0
 18 53  1  0
 18 54  1  0
 19 55  1  0
 19 56  1  0
 21 57  1  0
 21 58  1  0
 23 59  1  0
 23 60  1  0
 23 61  1  0
 24 62  1  0
 24 63  1  0
 24 64  1  0
 25 65  1  0
 27 66  1  0
 27 67  1  0
 27 68  1  0
 31 69  1  0
 32 70  1  0
 33 71  1  0
 34 72  1  0
 35 73  1  0
M  END
$$$$
