
     RDKit          3D

 27 27  0  0  0  0  0  0  0  0999 V2000
   -0.8327   -0.5373    0.0653 C   0  0  2  0  0  0  0  0  0  0  0  0
   -0.8582   -1.6412   -0.9978 C   0  0  0  0  0  0  0  0  0  0  0  0
   -1.8036    0.4717   -0.2917 N   0  0  0  0  0  0  0  0  0  0  0  0
   -3.0748   -0.2385   -0.5222 C   0  0  0  0  0  0  0  0  0  0  0  0
   -2.1048    1.3446    0.8502 C   0  0  0  0  0  0  0  0  0  0  0  0
    0.5589   -0.0323    0.1232 C   0  0  0  0  0  0  0  0  0  0  0  0
    1.5957   -0.6921   -0.5503 C   0  0  0  0  0  0  0  0  0  0  0  0
    2.9235   -0.3181   -0.5574 C   0  0  0  0  0  0  0  0  0  0  0  0
    3.9148   -0.9904   -1.2303 O   0  0  0  0  0  0  0  0  0  0  0  0
    3.2975    0.7957    0.1483 C   0  0  0  0  0  0  0  0  0  0  0  0
    2.3330    1.4888    0.8306 C   0  0  0  0  0  0  0  0  0  0  0  0
    1.0443    1.0606    0.7918 C   0  0  0  0  0  0  0  0  0  0  0  0
   -1.1117   -0.9972    1.0381 H   0  0  0  0  0  0  0  0  0  0  0  0
   -1.9008   -2.0141   -1.0772 H   0  0  0  0  0  0  0  0  0  0  0  0
   -0.2375   -2.5021   -0.6063 H   0  0  0  0  0  0  0  0  0  0  0  0
   -0.4007   -1.3255   -1.9399 H   0  0  0  0  0  0  0  0  0  0  0  0
   -3.8776    0.5194   -0.2814 H   0  0  0  0  0  0  0  0  0  0  0  0
   -3.1819   -0.5693   -1.5714 H   0  0  0  0  0  0  0  0  0  0  0  0
   -3.1128   -1.0522    0.2238 H   0  0  0  0  0  0  0  0  0  0  0  0
   -3.2324    1.4638    0.9498 H   0  0  0  0  0  0  0  0  0  0  0  0
   -1.7543    2.3753    0.7079 H   0  0  0  0  0  0  0  0  0  0  0  0
   -1.8047    0.8729    1.7891 H   0  0  0  0  0  0  0  0  0  0  0  0
    1.4380   -1.5865   -1.1481 H   0  0  0  0  0  0  0  0  0  0  0  0
    4.8641   -1.0418   -0.8669 H   0  0  0  0  0  0  0  0  0  0  0  0
    4.3188    1.1223    0.1701 H   0  0  0  0  0  0  0  0  0  0  0  0
    2.6385    2.3664    1.3845 H   0  0  0  0  0  0  0  0  0  0  0  0
    0.3614    1.6571    1.3575 H   0  0  0  0  0  0  0  0  0  0  0  0
  1  2  1  0
  1  3  1  0
  3  4  1  0
  3  5  1  0
  1  6  1  0
  6  7  2  0
  7  8  1  0
  8  9  1  0
  8 10  2  0
 10 11  1  0
 11 12  2  0
 12  6  1  0
  1 13  1  1
  2 14  1  0
  2 15  1  0
  2 16  1  0
  4 17  1  0
  4 18  1  0
  4 19  1  0
  5 20  1  0
  5 21  1  0
  5 22  1  0
  7 23  1  0
  9 24  1  0
 10 25  1  0
 11 26  1  0
 12 27  1  0
M  END
$$$$
