
     RDKit          3D

102102  0  0  0  0  0  0  0  0999 V2000
    5.3763   -0.2981   -4.6859 C   0  0  0  0  0  0  0  0  0  0  0  0
    5.0141   -1.6269   -4.0893 C   0  0  0  0  0  0  0  0  0  0  0  0
    3.8370   -1.5242   -3.1090 C   0  0  2  0  0  0  0  0  0  0  0  0
    2.6610   -0.9762   -3.8758 C   0  0  0  0  0  0  0  0  0  0  0  0
    4.1972   -0.7678   -1.8651 C   0  0  2  0  0  0  0  0  0  0  0  0
    5.3173   -1.4346   -1.1892 N   0  0  0  0  0  0  0  0  0  0  0  0
    6.5595   -0.7548   -1.0279 C   0  0  0  0  0  0  0  0  0  0  0  0
    6.7196    0.3865   -1.4595 O   0  0  0  0  0  0  0  0  0  0  0  0
    7.6188   -1.3962   -0.3622 O   0  0  0  0  0  0  0  0  0  0  0  0
    8.8787   -0.7916   -0.1730 C   0  0  0  0  0  0  0  0  0  0  0  0
    9.6866   -1.7787    0.6211 C   0  0  0  0  0  0  0  0  0  0  0  0
   10.4228   -2.7879    0.0343 C   0  0  0  0  0  0  0  0  0  0  0  0
   11.1707   -3.6902    0.7829 C   0  0  0  0  0  0  0  0  0  0  0  0
   11.1969   -3.5990    2.1552 C   0  0  0  0  0  0  0  0  0  0  0  0
   10.4507   -2.5779    2.7419 C   0  0  0  0  0  0  0  0  0  0  0  0
    9.7154   -1.6912    2.0046 C   0  0  0  0  0  0  0  0  0  0  0  0
    3.0471   -0.7329   -0.9001 C   0  0  0  0  0  0  0  0  0  0  0  0
    3.1549   -1.3745    0.1901 O   0  0  0  0  0  0  0  0  0  0  0  0
    1.8382   -0.0388   -1.0950 N   0  0  0  0  0  0  0  0  0  0  0  0
    0.7705   -0.0870   -0.0805 C   0  0  1  0  0  0  0  0  0  0  0  0
    0.5163    1.2331    0.5592 C   0  0  0  0  0  0  0  0  0  0  0  0
    0.0955    2.3330   -0.3567 C   0  0  0  0  0  0  0  0  0  0  0  0
   -0.1012    3.5586    0.4510 C   0  0  0  0  0  0  0  0  0  0  0  0
    0.0970    3.5417    1.6943 O   0  0  0  0  0  0  0  0  0  0  0  0
   -0.5044    4.7876   -0.0541 O   0  0  0  0  0  0  0  0  0  0  0  0
   -0.6777    5.9261    0.7615 C   0  0  0  0  0  0  0  0  0  0  0  0
   -1.1046    7.0749   -0.1245 C   0  0  0  0  0  0  0  0  0  0  0  0
   -1.7272    5.7360    1.8154 C   0  0  0  0  0  0  0  0  0  0  0  0
    0.6245    6.2919    1.4727 C   0  0  0  0  0  0  0  0  0  0  0  0
   -0.4344   -0.7587   -0.6200 C   0  0  0  0  0  0  0  0  0  0  0  0
   -0.4976   -1.0895   -1.8400 O   0  0  0  0  0  0  0  0  0  0  0  0
   -1.5613   -1.0684    0.1846 N   0  0  0  0  0  0  0  0  0  0  0  0
   -2.7496   -1.7159   -0.2531 C   0  0  1  0  0  0  0  0  0  0  0  0
   -2.6040   -3.2479   -0.1826 C   0  0  0  0  0  0  0  0  0  0  0  0
   -3.9245   -1.2720    0.4918 C   0  0  0  0  0  0  0  0  0  0  0  0
   -3.8154   -0.2882    1.2832 O   0  0  0  0  0  0  0  0  0  0  0  0
   -5.1951   -1.8626    0.4101 N   0  0  0  0  0  0  0  0  0  0  0  0
   -6.3320   -1.3684    1.2198 C   0  0  2  0  0  0  0  0  0  0  0  0
   -6.2384   -2.1107    2.5487 C   0  0  0  0  0  0  0  0  0  0  0  0
   -6.4800   -1.6724    3.7176 C   0  0  0  0  0  0  0  0  0  0  0  0
   -6.9975   -0.0537    4.1009 S   0  0  0  0  0  6  0  0  0  0  0  0
   -8.7292    0.1538    3.7053 C   0  0  0  0  0  0  0  0  0  0  0  0
   -6.7864    0.2062    5.5859 O   0  0  0  0  0  0  0  0  0  0  0  0
   -6.1339    0.9249    3.3871 O   0  0  0  0  0  0  0  0  0  0  0  0
   -7.6285   -1.7674    0.6281 C   0  0  0  0  0  0  0  0  0  0  0  0
   -7.9274   -1.2761   -0.7454 C   0  0  0  0  0  0  0  0  0  0  0  0
   -7.9953    0.2004   -0.9159 C   0  0  0  0  0  0  0  0  0  0  0  0
   -9.2290   -1.9288   -1.2213 C   0  0  0  0  0  0  0  0  0  0  0  0
    4.5584    0.1065   -5.3303 H   0  0  0  0  0  0  0  0  0  0  0  0
    6.2299   -0.5096   -5.3921 H   0  0  0  0  0  0  0  0  0  0  0  0
    5.6266    0.4807   -3.9717 H   0  0  0  0  0  0  0  0  0  0  0  0
    4.6667   -2.2911   -4.9139 H   0  0  0  0  0  0  0  0  0  0  0  0
    5.8328   -2.1058   -3.5524 H   0  0  0  0  0  0  0  0  0  0  0  0
    3.5831   -2.6018   -2.8753 H   0  0  0  0  0  0  0  0  0  0  0  0
    2.7025   -1.3644   -4.9507 H   0  0  0  0  0  0  0  0  0  0  0  0
    2.7027    0.1433   -3.9781 H   0  0  0  0  0  0  0  0  0  0  0  0
    1.6858   -1.2529   -3.5036 H   0  0  0  0  0  0  0  0  0  0  0  0
    4.4852    0.2441   -2.1036 H   0  0  0  0  0  0  0  0  0  0  0  0
    5.2391   -2.4051   -0.8156 H   0  0  0  0  0  0  0  0  0  0  0  0
    8.7395    0.1194    0.4813 H   0  0  0  0  0  0  0  0  0  0  0  0
    9.3824   -0.5376   -1.1265 H   0  0  0  0  0  0  0  0  0  0  0  0
   10.4238   -2.8863   -1.0354 H   0  0  0  0  0  0  0  0  0  0  0  0
   11.7218   -4.4568    0.2766 H   0  0  0  0  0  0  0  0  0  0  0  0
   11.7658   -4.2772    2.7900 H   0  0  0  0  0  0  0  0  0  0  0  0
   10.4802   -2.5202    3.8336 H   0  0  0  0  0  0  0  0  0  0  0  0
    9.1328   -0.8854    2.4800 H   0  0  0  0  0  0  0  0  0  0  0  0
    1.6966    0.5215   -1.9442 H   0  0  0  0  0  0  0  0  0  0  0  0
    1.1308   -0.7655    0.7477 H   0  0  0  0  0  0  0  0  0  0  0  0
    1.4519    1.5473    1.0644 H   0  0  0  0  0  0  0  0  0  0  0  0
   -0.2714    1.0948    1.3234 H   0  0  0  0  0  0  0  0  0  0  0  0
   -0.9057    2.1338   -0.8380 H   0  0  0  0  0  0  0  0  0  0  0  0
    0.8005    2.4726   -1.2069 H   0  0  0  0  0  0  0  0  0  0  0  0
   -1.9657    7.6498    0.3311 H   0  0  0  0  0  0  0  0  0  0  0  0
   -1.5039    6.7366   -1.1078 H   0  0  0  0  0  0  0  0  0  0  0  0
   -0.2723    7.7732   -0.3627 H   0  0  0  0  0  0  0  0  0  0  0  0
   -2.0012    6.7687    2.1793 H   0  0  0  0  0  0  0  0  0  0  0  0
   -1.3872    5.1848    2.7140 H   0  0  0  0  0  0  0  0  0  0  0  0
   -2.6794    5.3338    1.4067 H   0  0  0  0  0  0  0  0  0  0  0  0
    0.5588    7.3707    1.7591 H   0  0  0  0  0  0  0  0  0  0  0  0
    0.7512    5.7186    2.4031 H   0  0  0  0  0  0  0  0  0  0  0  0
    1.4862    6.2173    0.7711 H   0  0  0  0  0  0  0  0  0  0  0  0
   -1.5326   -0.7941    1.2055 H   0  0  0  0  0  0  0  0  0  0  0  0
   -2.8761   -1.5224   -1.3338 H   0  0  0  0  0  0  0  0  0  0  0  0
   -1.6853   -3.5111   -0.7250 H   0  0  0  0  0  0  0  0  0  0  0  0
   -2.7020   -3.6328    0.8302 H   0  0  0  0  0  0  0  0  0  0  0  0
   -3.4480   -3.6450   -0.7828 H   0  0  0  0  0  0  0  0  0  0  0  0
   -5.3554   -2.6682   -0.2335 H   0  0  0  0  0  0  0  0  0  0  0  0
   -6.1953   -0.3206    1.4937 H   0  0  0  0  0  0  0  0  0  0  0  0
   -5.9146   -3.1765    2.4537 H   0  0  0  0  0  0  0  0  0  0  0  0
   -6.3581   -2.3488    4.5844 H   0  0  0  0  0  0  0  0  0  0  0  0
   -9.1890   -0.8653    3.7913 H   0  0  0  0  0  0  0  0  0  0  0  0
   -8.8799    0.5150    2.6698 H   0  0  0  0  0  0  0  0  0  0  0  0
   -9.2408    0.8416    4.3917 H   0  0  0  0  0  0  0  0  0  0  0  0
   -8.4722   -1.4121    1.2927 H   0  0  0  0  0  0  0  0  0  0  0  0
   -7.7187   -2.8834    0.6681 H   0  0  0  0  0  0  0  0  0  0  0  0
   -7.1017   -1.6687   -1.4068 H   0  0  0  0  0  0  0  0  0  0  0  0
   -7.2193    0.7280   -0.3588 H   0  0  0  0  0  0  0  0  0  0  0  0
   -9.0139    0.5887   -0.6853 H   0  0  0  0  0  0  0  0  0  0  0  0
   -7.8416    0.4336   -2.0051 H   0  0  0  0  0  0  0  0  0  0  0  0
   -9.9140   -1.9860   -0.3248 H   0  0  0  0  0  0  0  0  0  0  0  0
   -9.0395   -3.0032   -1.4812 H   0  0  0  0  0  0  0  0  0  0  0  0
   -9.7423   -1.3719   -1.9992 H   0  0  0  0  0  0  0  0  0  0  0  0
  1  2  1  0
  2  3  1  0
  3  4  1  0
  3  5  1  0
  5  6  1  0
  6  7  1  0
  7  8  2  0
  7  9  1  0
  9 10  1  0
 10 11  1  0
 11 12  2  0
 12 13  1  0
 13 14  2  0
 14 15  1  0
 15 16  2  0
  5 17  1  0
 17 18  2  0
 17 19  1  0
 19 20  1  0
 20 21  1  0
 21 22  1  0
 22 23  1  0
 23 24  2  0
 23 25  1  0
 25 26  1  0
 26 27  1  0
 26 28  1  0
 26 29  1  0
 20 30  1  0
 30 31  2  0
 30 32  1  0
 32 33  1  0
 33 34  1  0
 33 35  1  0
 35 36  2  0
 35 37  1  0
 37 38  1  0
 38 39  1  0
 39 40  2  3
 40 41  1  0
 41 42  1  0
 41 43  2  0
 41 44  2  0
 38 45  1  0
 45 46  1  0
 46 47  1  0
 46 48  1  0
 16 11  1  0
  1 49  1  0
  1 50  1  0
  1 51  1  0
  2 52  1  0
  2 53  1  0
  3 54  1  1
  4 55  1  0
  4 56  1  0
  4 57  1  0
  5 58  1  6
  6 59  1  0
 10 60  1  0
 10 61  1  0
 12 62  1  0
 13 63  1  0
 14 64  1  0
 15 65  1  0
 16 66  1  0
 19 67  1  0
 20 68  1  1
 21 69  1  0
 21 70  1  0
 22 71  1  0
 22 72  1  0
 27 73  1  0
 27 74  1  0
 27 75  1  0
 28 76  1  0
 28 77  1  0
 28 78  1  0
 29 79  1  0
 29 80  1  0
 29 81  1  0
 32 82  1  0
 33 83  1  6
 34 84  1  0
 34 85  1  0
 34 86  1  0
 37 87  1  0
 38 88  1  1
 39 89  1  0
 40 90  1  0
 42 91  1  0
 42 92  1  0
 42 93  1  0
 45 94  1  0
 45 95  1  0
 46 96  1  0
 47 97  1  0
 47 98  1  0
 47 99  1  0
 48100  1  0
 48101  1  0
 48102  1  0
M  END
$$$$
