
     RDKit          3D

 40 42  0  0  0  0  0  0  0  0999 V2000
    4.0056    1.5077   -1.4839 C   0  0  0  0  0  0  0  0  0  0  0  0
    3.9305    1.4444   -0.0271 N   0  0  0  0  0  0  0  0  0  0  0  0
    2.5718    1.7620    0.4260 C   0  0  0  0  0  0  0  0  0  0  0  0
    1.5992    0.6637    0.0188 C   0  0  1  0  0  0  0  0  0  0  0  0
    2.0102   -0.6427    0.6276 C   0  0  0  0  0  0  0  0  0  0  0  0
    0.9649   -1.6480    0.2183 C   0  0  0  0  0  0  0  0  0  0  0  0
    1.3822   -2.8963   -0.1923 C   0  0  0  0  0  0  0  0  0  0  0  0
    0.4676   -3.8558   -0.5809 C   0  0  0  0  0  0  0  0  0  0  0  0
   -0.8640   -3.5012   -0.5356 C   0  0  0  0  0  0  0  0  0  0  0  0
   -1.2844   -2.2441   -0.1223 C   0  0  0  0  0  0  0  0  0  0  0  0
   -0.3653   -1.2867    0.2657 C   0  0  0  0  0  0  0  0  0  0  0  0
   -0.7552    0.0512    0.7126 C   0  0  2  0  0  0  0  0  0  0  0  0
   -2.1110    0.4447    0.2846 C   0  0  0  0  0  0  0  0  0  0  0  0
   -3.1420    0.3193    1.1848 C   0  0  0  0  0  0  0  0  0  0  0  0
   -4.4521    0.6597    0.8910 C   0  0  0  0  0  0  0  0  0  0  0  0
   -4.7361    1.1474   -0.3630 C   0  0  0  0  0  0  0  0  0  0  0  0
   -6.3722    1.6065   -0.8231 Cl  0  0  0  0  0  0  0  0  0  0  0  0
   -3.7099    1.2790   -1.2789 C   0  0  0  0  0  0  0  0  0  0  0  0
   -4.0828    1.9025   -2.8824 Cl  0  0  0  0  0  0  0  0  0  0  0  0
   -2.4000    0.9344   -0.9732 C   0  0  0  0  0  0  0  0  0  0  0  0
    0.2268    1.1116    0.3783 C   0  0  0  0  0  0  0  0  0  0  0  0
    4.9676    1.9407   -1.8282 H   0  0  0  0  0  0  0  0  0  0  0  0
    3.9534    0.4776   -1.9370 H   0  0  0  0  0  0  0  0  0  0  0  0
    3.1470    2.1425   -1.8031 H   0  0  0  0  0  0  0  0  0  0  0  0
    4.5731    2.1612    0.3871 H   0  0  0  0  0  0  0  0  0  0  0  0
    2.5866    1.9319    1.5196 H   0  0  0  0  0  0  0  0  0  0  0  0
    2.2971    2.7289   -0.0425 H   0  0  0  0  0  0  0  0  0  0  0  0
    1.6990    0.5560   -1.0898 H   0  0  0  0  0  0  0  0  0  0  0  0
    2.0391   -0.5632    1.7202 H   0  0  0  0  0  0  0  0  0  0  0  0
    2.9629   -0.9633    0.1721 H   0  0  0  0  0  0  0  0  0  0  0  0
    2.4413   -3.1690   -0.2239 H   0  0  0  0  0  0  0  0  0  0  0  0
    0.7912   -4.8353   -0.9044 H   0  0  0  0  0  0  0  0  0  0  0  0
   -1.5767   -4.2778   -0.8499 H   0  0  0  0  0  0  0  0  0  0  0  0
   -2.3361   -2.0036   -0.1018 H   0  0  0  0  0  0  0  0  0  0  0  0
   -0.7748   -0.0043    1.8461 H   0  0  0  0  0  0  0  0  0  0  0  0
   -2.9786   -0.0648    2.2035 H   0  0  0  0  0  0  0  0  0  0  0  0
   -5.2297    0.5439    1.6312 H   0  0  0  0  0  0  0  0  0  0  0  0
   -1.6047    1.0358   -1.6961 H   0  0  0  0  0  0  0  0  0  0  0  0
   -0.1454    1.7194   -0.4995 H   0  0  0  0  0  0  0  0  0  0  0  0
    0.3038    1.8842    1.2011 H   0  0  0  0  0  0  0  0  0  0  0  0
  1  2  1  0
  2  3  1  0
  3  4  1  0
  4  5  1  0
  5  6  1  0
  6  7  2  0
  7  8  1  0
  8  9  2  0
  9 10  1  0
 10 11  2  0
 11 12  1  0
 12 13  1  0
 13 14  2  0
 14 15  1  0
 15 16  2  0
 16 17  1  0
 16 18  1  0
 18 19  1  0
 18 20  2  0
 12 21  1  0
 21  4  1  0
 11  6  1  0
 20 13  1  0
  1 22  1  0
  1 23  1  0
  1 24  1  0
  2 25  1  0
  3 26  1  0
  3 27  1  0
  4 28  1  6
  5 29  1  0
  5 30  1  0
  7 31  1  0
  8 32  1  0
  9 33  1  0
 10 34  1  0
 12 35  1  1
 14 36  1  0
 15 37  1  0
 20 38  1  0
 21 39  1  0
 21 40  1  0
M  END
$$$$
