
     RDKit          3D

 71 75  0  0  0  0  0  0  0  0999 V2000
    3.1264    0.1244    1.6679 C   0  0  1  0  0  0  0  0  0  0  0  0
    2.6414   -1.3032    1.5231 C   0  0  0  0  0  0  0  0  0  0  0  0
    1.3123   -1.4073    1.1687 O   0  0  0  0  0  0  0  0  0  0  0  0
    0.8787   -3.0355    1.0340 P   0  0  0  0  0  0  0  0  0  0  0  0
    0.2348   -3.4852    2.5462 O   0  0  0  0  0  0  0  0  0  0  0  0
    2.0748   -3.8970    0.6925 O   0  0  0  0  0  0  0  0  0  0  0  0
   -0.3810   -3.2075   -0.0799 O   0  0  0  0  0  0  0  0  0  0  0  0
   -0.0007   -2.3413   -1.4590 P   0  0  0  0  0  0  0  0  0  0  0  0
    1.2011   -1.1942   -1.2097 O   0  0  0  0  0  0  0  0  0  0  0  0
    0.5458   -3.3536   -2.4697 O   0  0  0  0  0  0  0  0  0  0  0  0
   -1.3579   -1.6304   -2.1693 O   0  0  0  0  0  0  0  0  0  0  0  0
   -2.4711   -1.6833   -1.3603 C   0  0  0  0  0  0  0  0  0  0  0  0
   -3.6230   -1.0309   -2.0708 C   0  0  1  0  0  0  0  0  0  0  0  0
   -4.8036   -1.0353   -1.3257 O   0  0  0  0  0  0  0  0  0  0  0  0
   -5.5595   -0.0580   -2.0065 C   0  0  1  0  0  0  0  0  0  0  0  0
   -6.8477    0.1929   -1.3340 C   0  0  0  0  0  0  0  0  0  0  0  0
   -6.8975    0.3413    0.0219 C   0  0  0  0  0  0  0  0  0  0  0  0
   -8.1441    0.5728    0.5645 C   0  0  0  0  0  0  0  0  0  0  0  0
   -9.2541    0.6435   -0.2509 C   0  0  0  0  0  0  0  0  0  0  0  0
   -9.1846    0.4935   -1.5951 N   0  0  0  0  0  0  0  0  0  0  0  0
   -7.9882    0.2688   -2.1400 C   0  0  0  0  0  0  0  0  0  0  0  0
   -8.2614    0.7400    2.0091 C   0  0  0  0  0  0  0  0  0  0  0  0
   -9.5227    0.9754    2.5673 O   0  0  0  0  0  0  0  0  0  0  0  0
   -7.1989    0.6665    2.7350 N   0  0  0  0  0  0  0  0  0  0  0  0
   -4.5925    1.1049   -1.9210 C   0  0  2  0  0  0  0  0  0  0  0  0
   -4.9248    2.1596   -2.7419 O   0  0  0  0  0  0  0  0  0  0  0  0
   -3.2942    0.4093   -2.3494 C   0  0  2  0  0  0  0  0  0  0  0  0
   -3.1588    0.5488   -3.7421 O   0  0  0  0  0  0  0  0  0  0  0  0
    4.4717    0.0583    2.0243 O   0  0  0  0  0  0  0  0  0  0  0  0
    4.9938    1.3310    1.8013 C   0  0  1  0  0  0  0  0  0  0  0  0
    6.3877    1.2510    1.4218 N   0  0  0  0  0  0  0  0  0  0  0  0
    7.2422    2.2658    1.6447 C   0  0  0  0  0  0  0  0  0  0  0  0
    8.4714    1.9571    1.2081 N   0  0  0  0  0  0  0  0  0  0  0  0
    8.4044    0.7200    0.6949 C   0  0  0  0  0  0  0  0  0  0  0  0
    9.2696   -0.1714    0.0989 C   0  0  0  0  0  0  0  0  0  0  0  0
   10.6122    0.2416   -0.0568 N   0  0  0  0  0  0  0  0  0  0  0  0
    8.8611   -1.3754   -0.3155 N   0  0  0  0  0  0  0  0  0  0  0  0
    7.5804   -1.7616   -0.1637 C   0  0  0  0  0  0  0  0  0  0  0  0
    6.6860   -0.9248    0.4161 N   0  0  0  0  0  0  0  0  0  0  0  0
    7.0920    0.2823    0.8325 C   0  0  0  0  0  0  0  0  0  0  0  0
    4.2004    1.9584    0.6811 C   0  0  2  0  0  0  0  0  0  0  0  0
    3.5320    3.0858    1.1492 O   0  0  0  0  0  0  0  0  0  0  0  0
    3.1603    0.8817    0.3734 C   0  0  2  0  0  0  0  0  0  0  0  0
    1.9754    1.5231    0.0835 O   0  0  0  0  0  0  0  0  0  0  0  0
    2.5241    0.6836    2.4066 H   0  0  0  0  0  0  0  0  0  0  0  0
    2.7848   -1.7575    2.5467 H   0  0  0  0  0  0  0  0  0  0  0  0
    3.3111   -1.8959    0.8690 H   0  0  0  0  0  0  0  0  0  0  0  0
    0.1128   -2.7327    3.1554 H   0  0  0  0  0  0  0  0  0  0  0  0
    1.0343   -0.3959   -1.7354 H   0  0  0  0  0  0  0  0  0  0  0  0
   -2.7146   -2.6851   -0.9682 H   0  0  0  0  0  0  0  0  0  0  0  0
   -2.2532   -1.0548   -0.4504 H   0  0  0  0  0  0  0  0  0  0  0  0
   -3.8639   -1.5964   -3.0105 H   0  0  0  0  0  0  0  0  0  0  0  0
   -5.6512   -0.3819   -3.0458 H   0  0  0  0  0  0  0  0  0  0  0  0
   -6.0149    0.2833    0.6534 H   0  0  0  0  0  0  0  0  0  0  0  0
  -10.2093    0.8278    0.2314 H   0  0  0  0  0  0  0  0  0  0  0  0
   -7.8890    0.1423   -3.2192 H   0  0  0  0  0  0  0  0  0  0  0  0
   -9.5996    1.2926    3.5448 H   0  0  0  0  0  0  0  0  0  0  0  0
   -7.2725    0.7856    3.7770 H   0  0  0  0  0  0  0  0  0  0  0  0
   -4.4219    1.3969   -0.8606 H   0  0  0  0  0  0  0  0  0  0  0  0
   -5.3667    2.8492   -2.1644 H   0  0  0  0  0  0  0  0  0  0  0  0
   -2.4269    0.7971   -1.8024 H   0  0  0  0  0  0  0  0  0  0  0  0
   -3.9105    1.0594   -4.1352 H   0  0  0  0  0  0  0  0  0  0  0  0
    4.8622    1.9348    2.7402 H   0  0  0  0  0  0  0  0  0  0  0  0
    7.0227    3.2233    2.1091 H   0  0  0  0  0  0  0  0  0  0  0  0
   11.0506    0.9761    0.5467 H   0  0  0  0  0  0  0  0  0  0  0  0
   11.3467   -0.0589   -0.7164 H   0  0  0  0  0  0  0  0  0  0  0  0
    7.3365   -2.7615   -0.5314 H   0  0  0  0  0  0  0  0  0  0  0  0
    4.8130    2.2072   -0.1877 H   0  0  0  0  0  0  0  0  0  0  0  0
    3.2664    2.9825    2.1122 H   0  0  0  0  0  0  0  0  0  0  0  0
    3.4735    0.2530   -0.4848 H   0  0  0  0  0  0  0  0  0  0  0  0
    1.1662    1.0481    0.4213 H   0  0  0  0  0  0  0  0  0  0  0  0
  1  2  1  0
  2  3  1  0
  3  4  1  0
  4  5  1  0
  4  6  2  0
  4  7  1  0
  7  8  1  0
  8  9  1  0
  8 10  2  0
  8 11  1  0
 11 12  1  0
 12 13  1  0
 13 14  1  0
 14 15  1  0
 15 16  1  0
 16 17  2  0
 17 18  1  0
 18 19  2  0
 19 20  1  0
 20 21  2  0
 18 22  1  0
 22 23  1  0
 22 24  2  3
 15 25  1  0
 25 26  1  0
 25 27  1  0
 27 28  1  0
  1 29  1  0
 29 30  1  0
 30 31  1  0
 31 32  1  0
 32 33  2  0
 33 34  1  0
 34 35  2  0
 35 36  1  0
 35 37  1  0
 37 38  2  0
 38 39  1  0
 39 40  2  0
 30 41  1  0
 41 42  1  0
 41 43  1  0
 43 44  1  0
 43  1  1  0
 27 13  1  0
 40 31  1  0
 21 16  1  0
 40 34  1  0
  1 45  1  1
  2 46  1  0
  2 47  1  0
  5 48  1  0
  9 49  1  0
 12 50  1  0
 12 51  1  0
 13 52  1  6
 15 53  1  6
 17 54  1  0
 19 55  1  0
 21 56  1  0
 23 57  1  0
 24 58  1  0
 25 59  1  1
 26 60  1  0
 27 61  1  1
 28 62  1  0
 30 63  1  1
 32 64  1  0
 36 65  1  0
 36 66  1  0
 38 67  1  0
 41 68  1  6
 42 69  1  0
 43 70  1  6
 44 71  1  0
M  END
$$$$
