
     RDKit          3D

 57 60  0  0  0  0  0  0  0  0999 V2000
    4.1553    1.3781   -0.9436 O   0  0  0  0  0  0  0  0  0  0  0  0
    5.0165    0.5439   -0.5462 C   0  0  0  0  0  0  0  0  0  0  0  0
    4.6624   -0.8187   -0.4897 N   0  0  0  0  0  0  0  0  0  0  0  0
    3.4144   -1.4232   -0.8057 C   0  0  0  0  0  0  0  0  0  0  0  0
    2.2383   -1.1429    0.0440 C   0  0  0  0  0  0  0  0  0  0  0  0
    2.4850   -1.5236    1.3969 O   0  0  0  0  0  0  0  0  0  0  0  0
    1.6696    0.2045    0.0702 C   0  0  0  0  0  0  0  0  0  0  0  0
    0.2573    0.3363    0.5995 C   0  0  0  0  0  0  0  0  0  0  0  0
   -0.5107   -0.8626    0.6131 N   0  0  0  0  0  0  0  0  0  0  0  0
   -1.9132   -0.8168    0.4760 C   0  0  0  0  0  0  0  0  0  0  0  0
   -2.5489    0.3620    0.3298 N   0  0  0  0  0  0  0  0  0  0  0  0
   -3.8796    0.4929    0.1933 C   0  0  0  0  0  0  0  0  0  0  0  0
   -4.5023    1.7254    0.0444 O   0  0  0  0  0  0  0  0  0  0  0  0
   -5.8800    1.7475   -0.0887 C   0  0  0  0  0  0  0  0  0  0  0  0
   -6.7570    1.8418    0.9708 C   0  0  0  0  0  0  0  0  0  0  0  0
   -8.1248    1.8600    0.7857 C   0  0  0  0  0  0  0  0  0  0  0  0
   -8.6766    1.7842   -0.4728 C   0  0  0  0  0  0  0  0  0  0  0  0
   -7.8132    1.6894   -1.5434 C   0  0  0  0  0  0  0  0  0  0  0  0
   -8.3558    1.6140   -2.7927 F   0  0  0  0  0  0  0  0  0  0  0  0
   -6.4326    1.6716   -1.3478 C   0  0  0  0  0  0  0  0  0  0  0  0
   -4.6054   -0.7031    0.2109 C   0  0  0  0  0  0  0  0  0  0  0  0
   -3.9893   -1.9180    0.3579 C   0  0  0  0  0  0  0  0  0  0  0  0
   -4.7490   -3.1822    0.3773 C   0  0  0  0  0  0  0  0  0  0  0  0
   -5.2911   -3.3099    1.6635 F   0  0  0  0  0  0  0  0  0  0  0  0
   -3.9628   -4.2778    0.1728 F   0  0  0  0  0  0  0  0  0  0  0  0
   -5.8193   -3.1291   -0.5076 F   0  0  0  0  0  0  0  0  0  0  0  0
   -2.6612   -1.9537    0.4872 N   0  0  0  0  0  0  0  0  0  0  0  0
    0.1378   -2.1373    0.7673 C   0  0  0  0  0  0  0  0  0  0  0  0
    1.1499   -2.1993   -0.3580 C   0  0  0  0  0  0  0  0  0  0  0  0
    6.3445    1.0434   -0.1637 C   0  0  0  0  0  0  0  0  0  0  0  0
    6.5701    2.4208   -0.2774 C   0  0  0  0  0  0  0  0  0  0  0  0
    7.7962    2.9380    0.0689 C   0  0  0  0  0  0  0  0  0  0  0  0
    8.8326    2.1760    0.5275 C   0  0  0  0  0  0  0  0  0  0  0  0
    8.6020    0.8229    0.6361 C   0  0  0  0  0  0  0  0  0  0  0  0
    7.3661    0.2583    0.2931 C   0  0  0  0  0  0  0  0  0  0  0  0
    5.4829   -1.4620   -0.1543 H   0  0  0  0  0  0  0  0  0  0  0  0
    3.5828   -2.5328   -0.9462 H   0  0  0  0  0  0  0  0  0  0  0  0
    3.1706   -1.0534   -1.8623 H   0  0  0  0  0  0  0  0  0  0  0  0
    3.3798   -1.2480    1.6722 H   0  0  0  0  0  0  0  0  0  0  0  0
    1.6222    0.6063   -0.9663 H   0  0  0  0  0  0  0  0  0  0  0  0
    2.2621    0.9227    0.6966 H   0  0  0  0  0  0  0  0  0  0  0  0
   -0.2626    1.1907    0.1079 H   0  0  0  0  0  0  0  0  0  0  0  0
    0.3452    0.6596    1.6793 H   0  0  0  0  0  0  0  0  0  0  0  0
   -6.3029    1.9013    1.9652 H   0  0  0  0  0  0  0  0  0  0  0  0
   -8.7673    1.9351    1.6480 H   0  0  0  0  0  0  0  0  0  0  0  0
   -9.7619    1.7977   -0.6326 H   0  0  0  0  0  0  0  0  0  0  0  0
   -5.8128    1.5960   -2.2241 H   0  0  0  0  0  0  0  0  0  0  0  0
   -5.6791   -0.6156    0.1021 H   0  0  0  0  0  0  0  0  0  0  0  0
    0.7166   -2.2122    1.7191 H   0  0  0  0  0  0  0  0  0  0  0  0
   -0.5930   -2.9861    0.6881 H   0  0  0  0  0  0  0  0  0  0  0  0
    0.6616   -1.8792   -1.2839 H   0  0  0  0  0  0  0  0  0  0  0  0
    1.6311   -3.1732   -0.4606 H   0  0  0  0  0  0  0  0  0  0  0  0
    5.7698    3.0844   -0.6419 H   0  0  0  0  0  0  0  0  0  0  0  0
    7.9486    4.0176   -0.0285 H   0  0  0  0  0  0  0  0  0  0  0  0
    9.7986    2.6041    0.7974 H   0  0  0  0  0  0  0  0  0  0  0  0
    9.3693    0.1393    0.9922 H   0  0  0  0  0  0  0  0  0  0  0  0
    7.2130   -0.8052    0.3886 H   0  0  0  0  0  0  0  0  0  0  0  0
  1  2  2  0
  2  3  1  0
  3  4  1  0
  4  5  1  0
  5  6  1  0
  5  7  1  0
  7  8  1  0
  8  9  1  0
  9 10  1  0
 10 11  2  0
 11 12  1  0
 12 13  1  0
 13 14  1  0
 14 15  2  0
 15 16  1  0
 16 17  2  0
 17 18  1  0
 18 19  1  0
 18 20  2  0
 12 21  2  0
 21 22  1  0
 22 23  1  0
 23 24  1  0
 23 25  1  0
 23 26  1  0
 22 27  2  0
  9 28  1  0
 28 29  1  0
  2 30  1  0
 30 31  2  0
 31 32  1  0
 32 33  2  0
 33 34  1  0
 34 35  2  0
 29  5  1  0
 35 30  1  0
 27 10  1  0
 20 14  1  0
  3 36  1  0
  4 37  1  0
  4 38  1  0
  6 39  1  0
  7 40  1  0
  7 41  1  0
  8 42  1  0
  8 43  1  0
 15 44  1  0
 16 45  1  0
 17 46  1  0
 20 47  1  0
 21 48  1  0
 28 49  1  0
 28 50  1  0
 29 51  1  0
 29 52  1  0
 31 53  1  0
 32 54  1  0
 33 55  1  0
 34 56  1  0
 35 57  1  0
M  END
$$$$
