
     RDKit          3D

 47 49  0  0  0  0  0  0  0  0999 V2000
   -7.4166    2.0575    1.7764 N   0  0  0  0  0  0  0  0  0  0  0  0
   -6.6157    1.2469    0.9482 C   0  0  0  0  0  0  0  0  0  0  0  0
   -7.1830    0.7069   -0.1296 N   0  0  0  0  0  0  0  0  0  0  0  0
   -6.5229   -0.0810   -0.9912 C   0  0  0  0  0  0  0  0  0  0  0  0
   -5.2275   -0.3376   -0.7557 N   0  0  0  0  0  0  0  0  0  0  0  0
   -4.5501    0.1494    0.2955 C   0  0  0  0  0  0  0  0  0  0  0  0
   -5.2770    0.9521    1.1473 C   0  0  0  0  0  0  0  0  0  0  0  0
   -4.4616    1.3558    2.1399 N   0  0  0  0  0  0  0  0  0  0  0  0
   -3.2569    0.8200    1.9150 C   0  0  0  0  0  0  0  0  0  0  0  0
   -3.2843    0.0670    0.7771 N   0  0  0  0  0  0  0  0  0  0  0  0
   -2.3221   -0.7192    0.0622 C   0  0  2  0  0  0  0  0  0  0  0  0
   -1.0066   -0.4591    0.4151 O   0  0  0  0  0  0  0  0  0  0  0  0
   -0.3357   -1.0657   -0.6460 C   0  0  2  0  0  0  0  0  0  0  0  0
    1.1620   -0.9018   -0.5578 C   0  0  0  0  0  0  0  0  0  0  0  0
    1.5597    0.4119   -0.5644 O   0  0  0  0  0  0  0  0  0  0  0  0
    3.2466    0.4812   -0.4614 P   0  0  0  0  0  0  0  0  0  0  0  0
    3.8388    1.6607   -1.5509 O   0  0  0  0  0  0  0  0  0  0  0  0
    3.8038   -0.8388   -0.8784 O   0  0  0  0  0  0  0  0  0  0  0  0
    3.7680    0.9615    1.0692 O   0  0  0  0  0  0  0  0  0  0  0  0
    4.9760   -0.0312    1.6862 P   0  0  0  0  0  0  0  0  0  0  0  0
    5.7211   -0.9811    0.5051 O   0  0  0  0  0  0  0  0  0  0  0  0
    4.4359   -0.9554    2.7580 O   0  0  0  0  0  0  0  0  0  0  0  0
    6.1589    0.9488    2.4067 O   0  0  0  0  0  0  0  0  0  0  0  0
    7.6837    0.7073    1.7568 P   0  0  0  0  0  0  0  0  0  0  0  0
    7.8763   -0.8791    1.1885 O   0  0  0  0  0  0  0  0  0  0  0  0
    7.8793    1.7620    0.4311 O   0  0  0  0  0  0  0  0  0  0  0  0
    8.7801    0.9921    2.7597 O   0  0  0  0  0  0  0  0  0  0  0  0
   -0.9392   -0.3214   -1.8159 C   0  0  1  0  0  0  0  0  0  0  0  0
   -0.7070   -0.9335   -3.0226 O   0  0  0  0  0  0  0  0  0  0  0  0
   -2.4235   -0.3856   -1.4311 C   0  0  1  0  0  0  0  0  0  0  0  0
   -3.0614   -1.4652   -2.0325 O   0  0  0  0  0  0  0  0  0  0  0  0
   -7.3104    2.9192    2.3354 H   0  0  0  0  0  0  0  0  0  0  0  0
   -8.4143    1.8127    1.9423 H   0  0  0  0  0  0  0  0  0  0  0  0
   -6.9361   -0.5479   -1.8862 H   0  0  0  0  0  0  0  0  0  0  0  0
   -2.3372    0.8933    2.4640 H   0  0  0  0  0  0  0  0  0  0  0  0
   -2.4752   -1.8243    0.2306 H   0  0  0  0  0  0  0  0  0  0  0  0
   -0.6417   -2.1122   -0.7231 H   0  0  0  0  0  0  0  0  0  0  0  0
    1.5834   -1.3843   -1.4636 H   0  0  0  0  0  0  0  0  0  0  0  0
    1.5066   -1.5034    0.2930 H   0  0  0  0  0  0  0  0  0  0  0  0
    4.0483    1.2413   -2.4422 H   0  0  0  0  0  0  0  0  0  0  0  0
    6.0345   -0.4728   -0.2636 H   0  0  0  0  0  0  0  0  0  0  0  0
    8.4085   -0.8899    0.3336 H   0  0  0  0  0  0  0  0  0  0  0  0
    7.1167    1.6687   -0.1694 H   0  0  0  0  0  0  0  0  0  0  0  0
   -0.6682    0.7566   -1.7958 H   0  0  0  0  0  0  0  0  0  0  0  0
   -0.7685   -0.2397   -3.7290 H   0  0  0  0  0  0  0  0  0  0  0  0
   -2.9294    0.5745   -1.5972 H   0  0  0  0  0  0  0  0  0  0  0  0
   -2.5161   -1.8984   -2.7296 H   0  0  0  0  0  0  0  0  0  0  0  0
  1  2  1  0
  2  3  2  0
  3  4  1  0
  4  5  2  0
  5  6  1  0
  6  7  2  0
  7  8  1  0
  8  9  2  0
  9 10  1  0
 10 11  1  0
 11 12  1  0
 12 13  1  0
 13 14  1  0
 14 15  1  0
 15 16  1  0
 16 17  1  0
 16 18  2  0
 16 19  1  0
 19 20  1  0
 20 21  1  0
 20 22  2  0
 20 23  1  0
 23 24  1  0
 24 25  1  0
 24 26  1  0
 24 27  2  0
 13 28  1  0
 28 29  1  0
 28 30  1  0
 30 31  1  0
  7  2  1  0
 30 11  1  0
 10  6  1  0
  1 32  1  0
  1 33  1  0
  4 34  1  0
  9 35  1  0
 11 36  1  6
 13 37  1  6
 14 38  1  0
 14 39  1  0
 17 40  1  0
 21 41  1  0
 25 42  1  0
 26 43  1  0
 28 44  1  6
 29 45  1  0
 30 46  1  1
 31 47  1  0
M  END
$$$$
