
     RDKit          3D

 60 62  0  0  0  0  0  0  0  0999 V2000
    0.4585    2.2398   -0.9966 O   0  0  0  0  0  0  0  0  0  0  0  0
   -0.1341    2.8405   -0.0699 C   0  0  0  0  0  0  0  0  0  0  0  0
   -0.8022    2.0634    0.9923 C   0  0  0  0  0  0  0  0  0  0  0  0
   -0.7263    0.5911    0.8727 C   0  0  1  0  0  0  0  0  0  0  0  0
   -1.3213   -0.0060   -0.3609 C   0  0  0  0  0  0  0  0  0  0  0  0
   -2.7719    0.2724   -0.5414 C   0  0  0  0  0  0  0  0  0  0  0  0
   -3.6387   -0.2341    0.5568 C   0  0  0  0  0  0  0  0  0  0  0  0
   -5.1006    0.0514    0.3607 C   0  0  0  0  0  0  0  0  0  0  0  0
   -5.8453   -0.5265    1.5618 C   0  0  0  0  0  0  0  0  0  0  0  0
   -7.2977   -0.7606    1.2458 C   0  0  0  0  0  0  0  0  0  0  0  0
   -7.3654   -1.9326    0.2788 C   0  0  0  0  0  0  0  0  0  0  0  0
   -6.1065   -1.9946   -0.5641 C   0  0  0  0  0  0  0  0  0  0  0  0
   -5.6882   -0.5698   -0.8616 C   0  0  0  0  0  0  0  0  0  0  0  0
    0.6522    0.1019    1.1356 C   0  0  0  0  0  0  0  0  0  0  0  0
    1.7433    0.3439    0.3500 N   0  0  0  0  0  0  0  0  0  0  0  0
    2.8158   -0.2493    0.8901 C   0  0  0  0  0  0  0  0  0  0  0  0
    4.1763   -0.2424    0.3744 C   0  0  0  0  0  0  0  0  0  0  0  0
    5.0800   -0.8623    1.0227 O   0  0  0  0  0  0  0  0  0  0  0  0
    4.5377    0.4274   -0.8225 N   0  0  0  0  0  0  0  0  0  0  0  0
    6.1373    0.4506   -1.4532 S   0  0  0  0  0  6  0  0  0  0  0  0
    6.6222    1.8878   -1.4246 O   0  0  0  0  0  0  0  0  0  0  0  0
    6.2024   -0.0641   -2.8605 O   0  0  0  0  0  0  0  0  0  0  0  0
    7.2127   -0.4589   -0.4170 C   0  0  0  0  0  0  0  0  0  0  0  0
    7.3948   -1.8155   -0.6602 C   0  0  0  0  0  0  0  0  0  0  0  0
    8.2417   -2.5151    0.1600 C   0  0  0  0  0  0  0  0  0  0  0  0
    8.9230   -1.9278    1.2199 C   0  0  0  0  0  0  0  0  0  0  0  0
    8.7416   -0.5861    1.4588 C   0  0  0  0  0  0  0  0  0  0  0  0
    7.8907    0.1163    0.6346 C   0  0  0  0  0  0  0  0  0  0  0  0
    2.3692   -0.8486    2.0015 N   0  0  0  0  0  0  0  0  0  0  0  0
    1.0872   -0.6333    2.1358 O   0  0  0  0  0  0  0  0  0  0  0  0
   -0.1250    4.2544   -0.1010 N   0  0  0  0  0  0  0  0  0  0  0  0
    0.5067    4.8802   -1.1039 O   0  0  0  0  0  0  0  0  0  0  0  0
   -0.2494    2.3347    1.9427 H   0  0  0  0  0  0  0  0  0  0  0  0
   -1.8320    2.4389    1.1794 H   0  0  0  0  0  0  0  0  0  0  0  0
   -1.3439    0.1752    1.7300 H   0  0  0  0  0  0  0  0  0  0  0  0
   -0.7501    0.3051   -1.2538 H   0  0  0  0  0  0  0  0  0  0  0  0
   -1.2219   -1.1344   -0.3594 H   0  0  0  0  0  0  0  0  0  0  0  0
   -2.8986    1.3385   -0.7697 H   0  0  0  0  0  0  0  0  0  0  0  0
   -3.0858   -0.2690   -1.4826 H   0  0  0  0  0  0  0  0  0  0  0  0
   -3.4901   -1.3164    0.6944 H   0  0  0  0  0  0  0  0  0  0  0  0
   -3.3596    0.2669    1.5203 H   0  0  0  0  0  0  0  0  0  0  0  0
   -5.2381    1.1426    0.3167 H   0  0  0  0  0  0  0  0  0  0  0  0
   -5.6941    0.1376    2.4489 H   0  0  0  0  0  0  0  0  0  0  0  0
   -5.3895   -1.5172    1.7771 H   0  0  0  0  0  0  0  0  0  0  0  0
   -7.8116   -1.0523    2.1664 H   0  0  0  0  0  0  0  0  0  0  0  0
   -7.7993    0.1378    0.8382 H   0  0  0  0  0  0  0  0  0  0  0  0
   -7.4466   -2.8594    0.8640 H   0  0  0  0  0  0  0  0  0  0  0  0
   -8.2214   -1.8531   -0.4107 H   0  0  0  0  0  0  0  0  0  0  0  0
   -6.3208   -2.5173   -1.5216 H   0  0  0  0  0  0  0  0  0  0  0  0
   -5.2868   -2.4951   -0.0129 H   0  0  0  0  0  0  0  0  0  0  0  0
   -6.6496   -0.0164   -1.0785 H   0  0  0  0  0  0  0  0  0  0  0  0
   -5.0915   -0.4853   -1.7700 H   0  0  0  0  0  0  0  0  0  0  0  0
    3.7653    0.9234   -1.3232 H   0  0  0  0  0  0  0  0  0  0  0  0
    6.8883   -2.3157   -1.4709 H   0  0  0  0  0  0  0  0  0  0  0  0
    8.4042   -3.5876   -0.0098 H   0  0  0  0  0  0  0  0  0  0  0  0
    9.5900   -2.4767    1.8666 H   0  0  0  0  0  0  0  0  0  0  0  0
    9.2701   -0.1284    2.2813 H   0  0  0  0  0  0  0  0  0  0  0  0
    7.7512    1.1677    0.8253 H   0  0  0  0  0  0  0  0  0  0  0  0
   -0.5935    4.8132    0.6306 H   0  0  0  0  0  0  0  0  0  0  0  0
    0.2350    4.5489   -2.0067 H   0  0  0  0  0  0  0  0  0  0  0  0
  1  2  2  0
  2  3  1  0
  3  4  1  0
  4  5  1  0
  5  6  1  0
  6  7  1  0
  7  8  1  0
  8  9  1  0
  9 10  1  0
 10 11  1  0
 11 12  1  0
 12 13  1  0
  4 14  1  0
 14 15  2  0
 15 16  1  0
 16 17  1  0
 17 18  2  0
 17 19  1  0
 19 20  1  0
 20 21  2  0
 20 22  2  0
 20 23  1  0
 23 24  2  0
 24 25  1  0
 25 26  2  0
 26 27  1  0
 27 28  2  0
 16 29  2  0
 29 30  1  0
  2 31  1  0
 31 32  1  0
 13  8  1  0
 30 14  1  0
 28 23  1  0
  3 33  1  0
  3 34  1  0
  4 35  1  1
  5 36  1  0
  5 37  1  0
  6 38  1  0
  6 39  1  0
  7 40  1  0
  7 41  1  0
  8 42  1  0
  9 43  1  0
  9 44  1  0
 10 45  1  0
 10 46  1  0
 11 47  1  0
 11 48  1  0
 12 49  1  0
 12 50  1  0
 13 51  1  0
 13 52  1  0
 19 53  1  0
 24 54  1  0
 25 55  1  0
 26 56  1  0
 27 57  1  0
 28 58  1  0
 31 59  1  0
 32 60  1  0
M  END
$$$$
