
     RDKit          3D

 41 42  0  0  0  0  0  0  0  0999 V2000
   -1.5736    1.2118   -0.1718 C   0  0  0  0  0  0  0  0  0  0  0  0
   -1.5666   -0.1553    0.3793 C   0  0  0  0  0  0  0  0  0  0  0  0
   -2.7508   -0.6914    0.9437 C   0  0  0  0  0  0  0  0  0  0  0  0
   -4.0292    0.0063    1.1208 C   0  0  0  0  0  0  0  0  0  0  0  0
   -4.9269   -0.0810   -0.0795 C   0  0  0  0  0  0  0  0  0  0  0  0
   -4.7260   -0.5061    2.3781 C   0  0  0  0  0  0  0  0  0  0  0  0
   -2.4073   -1.9807    1.2801 C   0  0  0  0  0  0  0  0  0  0  0  0
   -3.2500   -2.7693    1.8211 O   0  0  0  0  0  0  0  0  0  0  0  0
   -1.1918   -2.1702    0.9586 O   0  0  0  0  0  0  0  0  0  0  0  0
   -0.6196   -1.0835    0.4018 N   0  0  0  0  0  0  0  0  0  0  0  0
    0.6933   -1.1108   -0.0667 C   0  0  0  0  0  0  0  0  0  0  0  0
    1.1954   -2.3858   -0.0949 O   0  0  0  0  0  0  0  0  0  0  0  0
    1.5702   -0.1695   -0.4877 N   0  0  0  0  0  0  0  0  0  0  0  0
    1.4777    1.2405   -0.5575 C   0  0  0  0  0  0  0  0  0  0  0  0
    2.9192    1.8111   -0.6620 C   0  0  0  0  0  0  0  0  0  0  0  0
    3.7128    1.1312    0.4277 C   0  0  0  0  0  0  0  0  0  0  0  0
    3.8838   -0.3418    0.0844 C   0  0  2  0  0  0  0  0  0  0  0  0
    5.2811   -0.5904   -0.3873 C   0  0  0  0  0  0  0  0  0  0  0  0
    2.8969   -0.6911   -0.9920 C   0  0  0  0  0  0  0  0  0  0  0  0
   -1.2450    1.2384   -1.2314 H   0  0  0  0  0  0  0  0  0  0  0  0
   -1.0892    1.9029    0.5161 H   0  0  0  0  0  0  0  0  0  0  0  0
   -2.6457    1.5789   -0.2256 H   0  0  0  0  0  0  0  0  0  0  0  0
   -3.8309    1.0770    1.3228 H   0  0  0  0  0  0  0  0  0  0  0  0
   -4.8528    0.7977   -0.7533 H   0  0  0  0  0  0  0  0  0  0  0  0
   -6.0079   -0.1139    0.2435 H   0  0  0  0  0  0  0  0  0  0  0  0
   -4.7406   -0.9762   -0.7081 H   0  0  0  0  0  0  0  0  0  0  0  0
   -3.9705   -0.9287    3.0744 H   0  0  0  0  0  0  0  0  0  0  0  0
   -5.2283    0.3210    2.9321 H   0  0  0  0  0  0  0  0  0  0  0  0
   -5.5192   -1.2451    2.1352 H   0  0  0  0  0  0  0  0  0  0  0  0
    1.1492    1.6518    0.4416 H   0  0  0  0  0  0  0  0  0  0  0  0
    0.9472    1.6803   -1.3972 H   0  0  0  0  0  0  0  0  0  0  0  0
    3.3359    1.6912   -1.6530 H   0  0  0  0  0  0  0  0  0  0  0  0
    2.8107    2.8908   -0.4093 H   0  0  0  0  0  0  0  0  0  0  0  0
    3.0998    1.1803    1.3488 H   0  0  0  0  0  0  0  0  0  0  0  0
    4.6995    1.6108    0.5417 H   0  0  0  0  0  0  0  0  0  0  0  0
    3.6502   -0.9739    0.9638 H   0  0  0  0  0  0  0  0  0  0  0  0
    5.8624    0.3641   -0.4156 H   0  0  0  0  0  0  0  0  0  0  0  0
    5.7796   -1.2913    0.2957 H   0  0  0  0  0  0  0  0  0  0  0  0
    5.2749   -1.0792   -1.3945 H   0  0  0  0  0  0  0  0  0  0  0  0
    2.8401   -1.7823   -1.0808 H   0  0  0  0  0  0  0  0  0  0  0  0
    3.0920   -0.2687   -1.9763 H   0  0  0  0  0  0  0  0  0  0  0  0
  1  2  1  0
  2  3  2  0
  3  4  1  0
  4  5  1  0
  4  6  1  0
  3  7  1  0
  7  8  2  0
  7  9  1  0
  9 10  1  0
 10 11  1  0
 11 12  2  0
 11 13  1  0
 13 14  1  0
 14 15  1  0
 15 16  1  0
 16 17  1  0
 17 18  1  0
 17 19  1  0
 10  2  1  0
 19 13  1  0
  1 20  1  0
  1 21  1  0
  1 22  1  0
  4 23  1  0
  5 24  1  0
  5 25  1  0
  5 26  1  0
  6 27  1  0
  6 28  1  0
  6 29  1  0
 14 30  1  0
 14 31  1  0
 15 32  1  0
 15 33  1  0
 16 34  1  0
 16 35  1  0
 17 36  1  1
 18 37  1  0
 18 38  1  0
 18 39  1  0
 19 40  1  0
 19 41  1  0
M  END
$$$$
