
     RDKit          3D

 57 61  0  0  0  0  0  0  0  0999 V2000
   -1.0730    0.1702   -1.3374 C   0  0  0  0  0  0  0  0  0  0  0  0
   -1.1645   -1.2789   -0.8410 C   0  0  2  0  0  0  0  0  0  0  0  0
    0.2226   -1.6909   -0.5149 C   0  0  0  0  0  0  0  0  0  0  0  0
    1.3168   -0.8431   -0.5937 C   0  0  0  0  0  0  0  0  0  0  0  0
    2.5865   -1.2742   -0.2588 C   0  0  0  0  0  0  0  0  0  0  0  0
    3.7401   -0.3474   -0.3609 C   0  0  0  0  0  0  0  0  0  0  0  0
    4.6027   -0.3154    0.6477 C   0  0  0  0  0  0  0  0  0  0  0  0
    4.3601   -1.1459    1.7141 F   0  0  0  0  0  0  0  0  0  0  0  0
    5.7720    0.5255    0.6941 C   0  0  0  0  0  0  0  0  0  0  0  0
    6.0792    1.3554   -0.3477 C   0  0  0  0  0  0  0  0  0  0  0  0
    7.2130    2.1527   -0.2584 C   0  0  0  0  0  0  0  0  0  0  0  0
    8.0121    2.1056    0.8620 C   0  0  0  0  0  0  0  0  0  0  0  0
    9.2050    2.9175    0.9957 C   0  0  0  0  0  0  0  0  0  0  0  0
   10.1504    3.5466    1.1169 N   0  0  0  0  0  0  0  0  0  0  0  0
    7.6358    1.2490    1.8606 C   0  0  0  0  0  0  0  0  0  0  0  0
    6.5466    0.4789    1.7820 N   0  0  0  0  0  0  0  0  0  0  0  0
    2.8131   -2.5633    0.1649 C   0  0  0  0  0  0  0  0  0  0  0  0
    1.7388   -3.4151    0.2482 C   0  0  0  0  0  0  0  0  0  0  0  0
    0.4874   -2.9714   -0.0870 C   0  0  0  0  0  0  0  0  0  0  0  0
   -0.5400   -3.8446    0.0073 F   0  0  0  0  0  0  0  0  0  0  0  0
   -1.6561   -2.1296   -1.9004 N   0  0  0  0  0  0  0  0  0  0  0  0
   -2.8771   -2.1601   -2.2926 C   0  0  0  0  0  0  0  0  0  0  0  0
   -3.2610   -3.0206   -3.3313 N   0  0  0  0  0  0  0  0  0  0  0  0
   -4.0197   -1.0617   -1.4288 S   0  0  0  0  0  0  0  0  0  0  0  0
   -3.4127   -1.0166    0.2910 C   0  0  1  0  0  0  0  0  0  0  0  0
   -4.1937   -0.2838    1.3137 C   0  0  0  0  0  0  0  0  0  0  0  0
   -4.3837   -0.8072    2.4714 O   0  0  0  0  0  0  0  0  0  0  0  0
   -4.7507    0.9798    1.0784 N   0  0  0  0  0  0  0  0  0  0  0  0
   -5.5482    1.7373    2.0727 C   0  0  0  0  0  0  0  0  0  0  0  0
   -5.1847    3.1728    1.8287 C   0  0  0  0  0  0  0  0  0  0  0  0
   -4.6242    3.2540    0.4400 C   0  0  0  0  0  0  0  0  0  0  0  0
   -5.3759    4.1428   -0.3262 F   0  0  0  0  0  0  0  0  0  0  0  0
   -3.3340    3.7371    0.4686 F   0  0  0  0  0  0  0  0  0  0  0  0
   -4.7307    1.8539   -0.0774 C   0  0  0  0  0  0  0  0  0  0  0  0
   -2.8857   -2.3973    0.7461 C   0  0  0  0  0  0  0  0  0  0  0  0
   -1.9862   -1.2903    0.4057 C   0  0  1  0  0  0  0  0  0  0  0  0
   -2.0474    0.5139   -1.6902 H   0  0  0  0  0  0  0  0  0  0  0  0
   -0.3644    0.2398   -2.1956 H   0  0  0  0  0  0  0  0  0  0  0  0
   -0.7757    0.7947   -0.4740 H   0  0  0  0  0  0  0  0  0  0  0  0
    1.1871    0.1742   -0.9189 H   0  0  0  0  0  0  0  0  0  0  0  0
    3.8679    0.2777   -1.2271 H   0  0  0  0  0  0  0  0  0  0  0  0
    5.4690    1.4250   -1.2593 H   0  0  0  0  0  0  0  0  0  0  0  0
    7.4715    2.8142   -1.0719 H   0  0  0  0  0  0  0  0  0  0  0  0
    8.2603    1.2022    2.7551 H   0  0  0  0  0  0  0  0  0  0  0  0
    3.8230   -2.9040    0.4221 H   0  0  0  0  0  0  0  0  0  0  0  0
    1.9028   -4.4201    0.5773 H   0  0  0  0  0  0  0  0  0  0  0  0
   -3.9937   -3.7458   -3.2027 H   0  0  0  0  0  0  0  0  0  0  0  0
   -2.8063   -2.9399   -4.2604 H   0  0  0  0  0  0  0  0  0  0  0  0
   -6.6137    1.5373    1.9490 H   0  0  0  0  0  0  0  0  0  0  0  0
   -5.1855    1.4700    3.0996 H   0  0  0  0  0  0  0  0  0  0  0  0
   -4.3917    3.5085    2.5581 H   0  0  0  0  0  0  0  0  0  0  0  0
   -6.0730    3.8130    1.8952 H   0  0  0  0  0  0  0  0  0  0  0  0
   -5.6802    1.7573   -0.6702 H   0  0  0  0  0  0  0  0  0  0  0  0
   -3.9005    1.6363   -0.7629 H   0  0  0  0  0  0  0  0  0  0  0  0
   -3.0653   -2.6065    1.8255 H   0  0  0  0  0  0  0  0  0  0  0  0
   -3.1271   -3.2554    0.1168 H   0  0  0  0  0  0  0  0  0  0  0  0
   -1.4376   -0.8142    1.2722 H   0  0  0  0  0  0  0  0  0  0  0  0
  2  1  1  6
  2  3  1  0
  3  4  2  0
  4  5  1  0
  5  6  1  0
  6  7  2  0
  7  8  1  0
  7  9  1  0
  9 10  2  0
 10 11  1  0
 11 12  2  0
 12 13  1  0
 13 14  3  0
 12 15  1  0
 15 16  2  0
  5 17  2  0
 17 18  1  0
 18 19  2  0
 19 20  1  0
  2 21  1  0
 21 22  2  0
 22 23  1  0
 22 24  1  0
 24 25  1  0
 25 26  1  1
 26 27  2  0
 26 28  1  0
 28 29  1  0
 29 30  1  0
 30 31  1  0
 31 32  1  0
 31 33  1  0
 31 34  1  0
 25 35  1  0
 35 36  1  0
 36  2  1  0
 19  3  1  0
 36 25  1  0
 16  9  1  0
 34 28  1  0
  1 37  1  0
  1 38  1  0
  1 39  1  0
  4 40  1  0
  6 41  1  0
 10 42  1  0
 11 43  1  0
 15 44  1  0
 17 45  1  0
 18 46  1  0
 23 47  1  0
 23 48  1  0
 29 49  1  0
 29 50  1  0
 30 51  1  0
 30 52  1  0
 34 53  1  0
 34 54  1  0
 35 55  1  0
 35 56  1  0
 36 57  1  1
M  END
$$$$
