
     RDKit          3D

 44 45  0  0  0  0  0  0  0  0999 V2000
   -3.4117    0.0608    0.7310 C   0  0  2  0  0  0  0  0  0  0  0  0
   -4.0940   -1.2120    0.6632 N   0  0  0  0  0  0  0  0  0  0  0  0
   -4.3350    1.0684    0.0776 C   0  0  0  0  0  0  0  0  0  0  0  0
   -5.6080    1.0364    0.8945 C   0  0  0  0  0  0  0  0  0  0  0  0
   -2.0761   -0.0117    0.1667 C   0  0  0  0  0  0  0  0  0  0  0  0
   -1.7690    1.2167    0.3528 O   0  0  0  0  0  0  0  0  0  0  0  0
   -1.1633   -0.9201   -0.4370 N   0  0  0  0  0  0  0  0  0  0  0  0
   -1.5795   -2.3215   -0.6457 C   0  0  0  0  0  0  0  0  0  0  0  0
   -1.3779   -2.4271   -2.1662 C   0  0  0  0  0  0  0  0  0  0  0  0
   -0.2651   -1.4240   -2.4571 C   0  0  0  0  0  0  0  0  0  0  0  0
    0.1399   -1.0951   -1.0095 C   0  0  1  0  0  0  0  0  0  0  0  0
    1.1126   -0.0467   -0.9424 C   0  0  0  0  0  0  0  0  0  0  0  0
    2.0416   -0.5181   -1.7123 O   0  0  0  0  0  0  0  0  0  0  0  0
    1.5533    1.1922   -0.4783 N   0  0  0  0  0  0  0  0  0  0  0  0
    2.7948    1.8710   -0.7695 C   0  0  0  0  0  0  0  0  0  0  0  0
    3.9306    1.3280   -0.0253 C   0  0  0  0  0  0  0  0  0  0  0  0
    4.8366    0.3530   -0.3622 C   0  0  0  0  0  0  0  0  0  0  0  0
    5.8661   -0.0823    0.4285 C   0  0  0  0  0  0  0  0  0  0  0  0
    6.0274    0.4929    1.6741 C   0  0  0  0  0  0  0  0  0  0  0  0
    5.1371    1.4861    2.0650 C   0  0  0  0  0  0  0  0  0  0  0  0
    5.4395    2.1401    3.6589 Cl  0  0  0  0  0  0  0  0  0  0  0  0
    4.1041    1.8984    1.2295 C   0  0  0  0  0  0  0  0  0  0  0  0
   -3.4124    0.3433    1.8300 H   0  0  0  0  0  0  0  0  0  0  0  0
   -4.4398   -1.5728    1.5609 H   0  0  0  0  0  0  0  0  0  0  0  0
   -4.8401   -1.2261   -0.0369 H   0  0  0  0  0  0  0  0  0  0  0  0
   -3.9282    2.0983    0.1242 H   0  0  0  0  0  0  0  0  0  0  0  0
   -4.5657    0.7110   -0.9288 H   0  0  0  0  0  0  0  0  0  0  0  0
   -6.2043    0.1555    0.5852 H   0  0  0  0  0  0  0  0  0  0  0  0
   -5.4160    0.9424    1.9884 H   0  0  0  0  0  0  0  0  0  0  0  0
   -6.2376    1.9349    0.7229 H   0  0  0  0  0  0  0  0  0  0  0  0
   -2.5905   -2.5442   -0.3706 H   0  0  0  0  0  0  0  0  0  0  0  0
   -0.8373   -2.9387   -0.1012 H   0  0  0  0  0  0  0  0  0  0  0  0
   -1.0477   -3.4396   -2.3924 H   0  0  0  0  0  0  0  0  0  0  0  0
   -2.3067   -2.2124   -2.7088 H   0  0  0  0  0  0  0  0  0  0  0  0
   -0.6254   -0.5335   -2.9915 H   0  0  0  0  0  0  0  0  0  0  0  0
    0.5490   -1.8735   -3.0315 H   0  0  0  0  0  0  0  0  0  0  0  0
    0.5419   -2.0875   -0.6322 H   0  0  0  0  0  0  0  0  0  0  0  0
    0.8000    1.5413    0.1439 H   0  0  0  0  0  0  0  0  0  0  0  0
    2.6581    2.9526   -0.5775 H   0  0  0  0  0  0  0  0  0  0  0  0
    3.0251    1.8085   -1.8776 H   0  0  0  0  0  0  0  0  0  0  0  0
    4.6926   -0.0770   -1.3421 H   0  0  0  0  0  0  0  0  0  0  0  0
    6.5171   -0.8685    0.0383 H   0  0  0  0  0  0  0  0  0  0  0  0
    6.8444    0.1288    2.2693 H   0  0  0  0  0  0  0  0  0  0  0  0
    3.5195    2.6720    1.6976 H   0  0  0  0  0  0  0  0  0  0  0  0
  1  2  1  0
  1  3  1  0
  3  4  1  0
  1  5  1  0
  5  6  2  0
  5  7  1  0
  7  8  1  0
  8  9  1  0
  9 10  1  0
 10 11  1  0
 11 12  1  0
 12 13  2  0
 12 14  1  0
 14 15  1  0
 15 16  1  0
 16 17  2  0
 17 18  1  0
 18 19  2  0
 19 20  1  0
 20 21  1  0
 20 22  2  0
 11  7  1  0
 22 16  1  0
  1 23  1  1
  2 24  1  0
  2 25  1  0
  3 26  1  0
  3 27  1  0
  4 28  1  0
  4 29  1  0
  4 30  1  0
  8 31  1  0
  8 32  1  0
  9 33  1  0
  9 34  1  0
 10 35  1  0
 10 36  1  0
 11 37  1  1
 14 38  1  0
 15 39  1  0
 15 40  1  0
 17 41  1  0
 18 42  1  0
 19 43  1  0
 22 44  1  0
M  END
$$$$
