
     RDKit          3D

 53 56  0  0  0  0  0  0  0  0999 V2000
    4.7416    0.5815    2.9586 C   0  0  0  0  0  0  0  0  0  0  0  0
    4.9645    0.0604    1.5807 C   0  0  0  0  0  0  0  0  0  0  0  0
    3.9028   -0.4142    0.8538 C   0  0  0  0  0  0  0  0  0  0  0  0
    4.0723   -0.9078   -0.4343 C   0  0  0  0  0  0  0  0  0  0  0  0
    2.9953   -1.3748   -1.1360 C   0  0  0  0  0  0  0  0  0  0  0  0
    1.7009   -1.3566   -0.5500 N   0  0  0  0  0  0  0  0  0  0  0  0
    0.8217   -0.2704   -0.6707 C   0  0  0  0  0  0  0  0  0  0  0  0
    1.1990    0.7387   -1.3314 O   0  0  0  0  0  0  0  0  0  0  0  0
   -0.4848   -0.2300   -0.0899 N   0  0  0  0  0  0  0  0  0  0  0  0
   -1.3178    0.9445   -0.2743 C   0  0  2  0  0  0  0  0  0  0  0  0
   -1.5041    1.5639    1.1160 C   0  0  0  0  0  0  0  0  0  0  0  0
   -2.3442    0.7265    2.0206 C   0  0  0  0  0  0  0  0  0  0  0  0
   -1.5252   -0.0158    3.0553 C   0  0  0  0  0  0  0  0  0  0  0  0
   -3.2700    1.6602    2.8134 C   0  0  0  0  0  0  0  0  0  0  0  0
   -3.2064   -0.1445    1.3130 O   0  0  0  0  0  0  0  0  0  0  0  0
   -3.5779    0.0747    0.0086 C   0  0  0  0  0  0  0  0  0  0  0  0
   -2.6359    0.6302   -0.8319 C   0  0  0  0  0  0  0  0  0  0  0  0
   -2.9532    0.8719   -2.1502 C   0  0  0  0  0  0  0  0  0  0  0  0
   -4.2191    0.5635   -2.6562 C   0  0  0  0  0  0  0  0  0  0  0  0
   -5.1482    0.0116   -1.8120 C   0  0  0  0  0  0  0  0  0  0  0  0
   -6.4998   -0.3265   -2.3194 C   0  0  0  0  0  0  0  0  0  0  0  0
   -6.7394   -1.6733   -2.1699 F   0  0  0  0  0  0  0  0  0  0  0  0
   -6.6582    0.0506   -3.6301 F   0  0  0  0  0  0  0  0  0  0  0  0
   -7.4907    0.3283   -1.5827 F   0  0  0  0  0  0  0  0  0  0  0  0
   -4.8426   -0.2347   -0.4921 C   0  0  0  0  0  0  0  0  0  0  0  0
   -5.7514   -0.7724    0.3255 F   0  0  0  0  0  0  0  0  0  0  0  0
    3.2444   -1.8539   -2.4215 C   0  0  0  0  0  0  0  0  0  0  0  0
    4.5172   -1.8490   -2.9413 C   0  0  0  0  0  0  0  0  0  0  0  0
    5.5925   -1.3780   -2.2292 C   0  0  0  0  0  0  0  0  0  0  0  0
    5.3598   -0.8969   -0.9455 C   0  0  0  0  0  0  0  0  0  0  0  0
    6.4321   -0.4160   -0.2076 C   0  0  0  0  0  0  0  0  0  0  0  0
    6.1898    0.0462    1.0334 N   0  0  0  0  0  0  0  0  0  0  0  0
    4.7410    1.6988    2.8678 H   0  0  0  0  0  0  0  0  0  0  0  0
    5.6019    0.3249    3.6091 H   0  0  0  0  0  0  0  0  0  0  0  0
    3.8329    0.1946    3.4193 H   0  0  0  0  0  0  0  0  0  0  0  0
    2.8952   -0.4269    1.2437 H   0  0  0  0  0  0  0  0  0  0  0  0
    1.4110   -2.2005   -0.0092 H   0  0  0  0  0  0  0  0  0  0  0  0
   -0.8027   -1.0488    0.4516 H   0  0  0  0  0  0  0  0  0  0  0  0
   -0.7757    1.6900   -0.8832 H   0  0  0  0  0  0  0  0  0  0  0  0
   -2.0120    2.5268    0.9431 H   0  0  0  0  0  0  0  0  0  0  0  0
   -0.5081    1.6886    1.5903 H   0  0  0  0  0  0  0  0  0  0  0  0
   -0.4287    0.1587    2.8464 H   0  0  0  0  0  0  0  0  0  0  0  0
   -1.7747   -1.0918    3.0628 H   0  0  0  0  0  0  0  0  0  0  0  0
   -1.6779    0.3626    4.0862 H   0  0  0  0  0  0  0  0  0  0  0  0
   -4.0009    1.0242    3.3538 H   0  0  0  0  0  0  0  0  0  0  0  0
   -3.8073    2.2946    2.0562 H   0  0  0  0  0  0  0  0  0  0  0  0
   -2.6549    2.2488    3.4999 H   0  0  0  0  0  0  0  0  0  0  0  0
   -2.2019    1.3101   -2.8029 H   0  0  0  0  0  0  0  0  0  0  0  0
   -4.4787    0.7473   -3.6826 H   0  0  0  0  0  0  0  0  0  0  0  0
    2.3751   -2.2289   -2.9829 H   0  0  0  0  0  0  0  0  0  0  0  0
    4.6666   -2.2272   -3.9364 H   0  0  0  0  0  0  0  0  0  0  0  0
    6.6038   -1.3689   -2.6293 H   0  0  0  0  0  0  0  0  0  0  0  0
    7.4312   -0.4147   -0.6219 H   0  0  0  0  0  0  0  0  0  0  0  0
  1  2  1  0
  2  3  2  0
  3  4  1  0
  4  5  2  0
  5  6  1  0
  6  7  1  0
  7  8  2  0
  7  9  1  0
  9 10  1  0
 10 11  1  0
 11 12  1  0
 12 13  1  0
 12 14  1  0
 12 15  1  0
 15 16  1  0
 16 17  2  0
 17 18  1  0
 18 19  2  0
 19 20  1  0
 20 21  1  0
 21 22  1  0
 21 23  1  0
 21 24  1  0
 20 25  2  0
 25 26  1  0
  5 27  1  0
 27 28  2  0
 28 29  1  0
 29 30  2  0
 30 31  1  0
 31 32  2  0
 32  2  1  0
 30  4  1  0
 17 10  1  0
 25 16  1  0
  1 33  1  0
  1 34  1  0
  1 35  1  0
  3 36  1  0
  6 37  1  0
  9 38  1  0
 10 39  1  6
 11 40  1  0
 11 41  1  0
 13 42  1  0
 13 43  1  0
 13 44  1  0
 14 45  1  0
 14 46  1  0
 14 47  1  0
 18 48  1  0
 19 49  1  0
 27 50  1  0
 28 51  1  0
 29 52  1  0
 31 53  1  0
M  END
$$$$
