
     RDKit          3D

 55 59  0  0  0  0  0  0  0  0999 V2000
    1.0096    2.2575    2.7801 C   0  0  0  0  0  0  0  0  0  0  0  0
    2.0230    1.7490    1.8263 C   0  0  0  0  0  0  0  0  0  0  0  0
    3.3109    2.2836    1.7763 C   0  0  0  0  0  0  0  0  0  0  0  0
    4.2606    1.7779    0.8848 C   0  0  0  0  0  0  0  0  0  0  0  0
    3.9640    0.7439    0.0315 C   0  0  0  0  0  0  0  0  0  0  0  0
    4.9262    0.1878   -0.9122 C   0  0  0  0  0  0  0  0  0  0  0  0
    4.5843   -0.7642   -1.6562 O   0  0  0  0  0  0  0  0  0  0  0  0
    6.2564    0.6561   -1.0554 N   0  0  0  0  0  0  0  0  0  0  0  0
    7.1838    0.0778   -2.0040 C   0  0  0  0  0  0  0  0  0  0  0  0
    8.6311   -0.0837   -1.6442 C   0  0  0  0  0  0  0  0  0  0  0  0
    8.1954    0.8912   -2.7044 C   0  0  0  0  0  0  0  0  0  0  0  0
    2.6863    0.2297    0.0959 C   0  0  0  0  0  0  0  0  0  0  0  0
    1.7379    0.7365    0.9872 C   0  0  0  0  0  0  0  0  0  0  0  0
    0.4269    0.1264    0.9924 N   0  0  0  0  0  0  0  0  0  0  0  0
   -0.6929    0.9173    0.6396 C   0  0  0  0  0  0  0  0  0  0  0  0
   -0.4772    2.1783    0.2482 N   0  0  0  0  0  0  0  0  0  0  0  0
   -1.4668    2.9980   -0.0998 C   0  0  0  0  0  0  0  0  0  0  0  0
   -2.7122    2.5137   -0.0456 N   0  0  0  0  0  0  0  0  0  0  0  0
   -3.0228    1.2867    0.3270 N   0  0  0  0  0  0  0  0  0  0  0  0
   -4.1976    0.6230    0.4455 C   0  0  0  0  0  0  0  0  0  0  0  0
   -3.9128   -0.6458    0.8809 C   0  0  0  0  0  0  0  0  0  0  0  0
   -4.8319   -1.7358    1.1626 C   0  0  0  0  0  0  0  0  0  0  0  0
   -4.7669   -2.4602    2.1943 O   0  0  0  0  0  0  0  0  0  0  0  0
   -5.9133   -2.0525    0.2262 C   0  0  0  0  0  0  0  0  0  0  0  0
   -7.0470   -2.6791    0.6479 C   0  0  0  0  0  0  0  0  0  0  0  0
   -8.0425   -2.9533   -0.2888 C   0  0  0  0  0  0  0  0  0  0  0  0
   -7.8864   -2.6004   -1.6091 C   0  0  0  0  0  0  0  0  0  0  0  0
   -6.7339   -1.9626   -2.0419 C   0  0  0  0  0  0  0  0  0  0  0  0
   -5.7633   -1.7030   -1.0922 C   0  0  0  0  0  0  0  0  0  0  0  0
   -2.5293   -0.7526    1.0295 C   0  0  0  0  0  0  0  0  0  0  0  0
   -1.7693   -1.9352    1.4710 C   0  0  0  0  0  0  0  0  0  0  0  0
   -1.9860    0.4629    0.6800 C   0  0  0  0  0  0  0  0  0  0  0  0
    0.6609    3.2781    2.5151 H   0  0  0  0  0  0  0  0  0  0  0  0
    0.1700    1.5330    2.8623 H   0  0  0  0  0  0  0  0  0  0  0  0
    1.4817    2.3995    3.8026 H   0  0  0  0  0  0  0  0  0  0  0  0
    3.5288    3.0964    2.4540 H   0  0  0  0  0  0  0  0  0  0  0  0
    5.2241    2.2206    0.8877 H   0  0  0  0  0  0  0  0  0  0  0  0
    6.5501    1.4484   -0.4410 H   0  0  0  0  0  0  0  0  0  0  0  0
    6.7574   -0.7592   -2.5898 H   0  0  0  0  0  0  0  0  0  0  0  0
    9.1899   -0.9939   -1.9074 H   0  0  0  0  0  0  0  0  0  0  0  0
    8.8990    0.3155   -0.6314 H   0  0  0  0  0  0  0  0  0  0  0  0
    8.3452    1.9596   -2.5265 H   0  0  0  0  0  0  0  0  0  0  0  0
    8.5060    0.5821   -3.7383 H   0  0  0  0  0  0  0  0  0  0  0  0
    2.4469   -0.5869   -0.5761 H   0  0  0  0  0  0  0  0  0  0  0  0
    0.4549   -0.8527    1.2617 H   0  0  0  0  0  0  0  0  0  0  0  0
   -1.2803    4.0384   -0.4221 H   0  0  0  0  0  0  0  0  0  0  0  0
   -5.1501    1.0649    0.2236 H   0  0  0  0  0  0  0  0  0  0  0  0
   -7.1840   -2.9629    1.6833 H   0  0  0  0  0  0  0  0  0  0  0  0
   -8.9582   -3.4470   -0.0070 H   0  0  0  0  0  0  0  0  0  0  0  0
   -8.6455   -2.8002   -2.3671 H   0  0  0  0  0  0  0  0  0  0  0  0
   -6.6219   -1.6899   -3.0822 H   0  0  0  0  0  0  0  0  0  0  0  0
   -4.8489   -1.2058   -1.3920 H   0  0  0  0  0  0  0  0  0  0  0  0
   -1.2775   -1.8464    2.4461 H   0  0  0  0  0  0  0  0  0  0  0  0
   -2.5424   -2.7549    1.6583 H   0  0  0  0  0  0  0  0  0  0  0  0
   -1.1501   -2.4060    0.6669 H   0  0  0  0  0  0  0  0  0  0  0  0
  1  2  1  0
  2  3  2  0
  3  4  1  0
  4  5  2  0
  5  6  1  0
  6  7  2  0
  6  8  1  0
  8  9  1  0
  9 10  1  0
 10 11  1  0
  5 12  1  0
 12 13  2  0
 13 14  1  0
 14 15  1  0
 15 16  2  0
 16 17  1  0
 17 18  2  0
 18 19  1  0
 19 20  1  0
 20 21  2  0
 21 22  1  0
 22 23  2  0
 22 24  1  0
 24 25  2  0
 25 26  1  0
 26 27  2  0
 27 28  1  0
 28 29  2  0
 21 30  1  0
 30 31  1  0
 30 32  2  0
 13  2  1  0
 32 15  1  0
 11  9  1  0
 32 19  1  0
 29 24  1  0
  1 33  1  0
  1 34  1  0
  1 35  1  0
  3 36  1  0
  4 37  1  0
  8 38  1  0
  9 39  1  0
 10 40  1  0
 10 41  1  0
 11 42  1  0
 11 43  1  0
 12 44  1  0
 14 45  1  0
 17 46  1  0
 20 47  1  0
 25 48  1  0
 26 49  1  0
 27 50  1  0
 28 51  1  0
 29 52  1  0
 31 53  1  0
 31 54  1  0
 31 55  1  0
M  END
$$$$
