
     RDKit          3D

 53 57  0  0  0  0  0  0  0  0999 V2000
   -1.8034   -4.2690    1.3595 C   0  0  0  0  0  0  0  0  0  0  0  0
   -1.7742   -2.9433    0.6451 C   0  0  0  0  0  0  0  0  0  0  0  0
   -1.8020   -1.7642    1.3447 C   0  0  0  0  0  0  0  0  0  0  0  0
   -1.7755   -0.5494    0.6932 C   0  0  0  0  0  0  0  0  0  0  0  0
   -1.7201   -0.4389   -0.6798 C   0  0  0  0  0  0  0  0  0  0  0  0
   -1.6873    0.8715   -1.3941 C   0  0  1  0  0  0  0  0  0  0  0  0
   -2.7624    1.7996   -0.9598 C   0  0  0  0  0  0  0  0  0  0  0  0
   -2.2739    3.1180   -0.3976 C   0  0  2  0  0  0  0  0  0  0  0  0
   -1.7556    3.9569   -1.5699 C   0  0  0  0  0  0  0  0  0  0  0  0
   -0.2411    4.0006   -1.3147 C   0  0  0  0  0  0  0  0  0  0  0  0
   -0.1005    2.6660   -0.5600 C   0  0  2  0  0  0  0  0  0  0  0  0
   -0.3172    1.4975   -1.4558 C   0  0  1  0  0  0  0  0  0  0  0  0
    0.7643    0.4852   -1.3883 C   0  0  0  0  0  0  0  0  0  0  0  0
    1.2700   -0.0687   -0.2355 C   0  0  0  0  0  0  0  0  0  0  0  0
    2.2604   -0.9668   -0.5986 C   0  0  0  0  0  0  0  0  0  0  0  0
    3.0783   -1.7946    0.3034 C   0  0  0  0  0  0  0  0  0  0  0  0
    4.0360   -2.6540   -0.1765 C   0  0  0  0  0  0  0  0  0  0  0  0
    4.8041   -3.4314    0.6696 C   0  0  0  0  0  0  0  0  0  0  0  0
    4.6150   -3.3527    2.0352 C   0  0  0  0  0  0  0  0  0  0  0  0
    5.5741   -4.3271    3.1428 Cl  0  0  0  0  0  0  0  0  0  0  0  0
    3.6658   -2.5019    2.5251 C   0  0  0  0  0  0  0  0  0  0  0  0
    2.8959   -1.7220    1.6662 C   0  0  0  0  0  0  0  0  0  0  0  0
    2.3157   -0.9226   -1.9376 N   0  0  0  0  0  0  0  0  0  0  0  0
    1.4484   -0.0839   -2.3513 O   0  0  0  0  0  0  0  0  0  0  0  0
   -1.1123    2.8460    0.4335 N   0  0  0  0  0  0  0  0  0  0  0  0
   -0.7888    3.9045    1.3323 C   0  0  0  0  0  0  0  0  0  0  0  0
   -1.6926   -1.6563   -1.3722 C   0  0  0  0  0  0  0  0  0  0  0  0
   -1.7188   -2.8731   -0.7288 C   0  0  0  0  0  0  0  0  0  0  0  0
   -2.8575   -4.6292    1.3107 H   0  0  0  0  0  0  0  0  0  0  0  0
   -1.0889   -4.9739    0.8874 H   0  0  0  0  0  0  0  0  0  0  0  0
   -1.5628   -4.0617    2.4161 H   0  0  0  0  0  0  0  0  0  0  0  0
   -1.8454   -1.8295    2.4228 H   0  0  0  0  0  0  0  0  0  0  0  0
   -1.8016    0.3122    1.3098 H   0  0  0  0  0  0  0  0  0  0  0  0
   -1.9252    0.5811   -2.4707 H   0  0  0  0  0  0  0  0  0  0  0  0
   -3.4902    1.3098   -0.2448 H   0  0  0  0  0  0  0  0  0  0  0  0
   -3.4331    2.0935   -1.8225 H   0  0  0  0  0  0  0  0  0  0  0  0
   -3.0533    3.6410    0.1526 H   0  0  0  0  0  0  0  0  0  0  0  0
   -1.8767    3.4177   -2.5327 H   0  0  0  0  0  0  0  0  0  0  0  0
   -2.1896    4.9543   -1.5864 H   0  0  0  0  0  0  0  0  0  0  0  0
   -0.0546    4.8234   -0.6295 H   0  0  0  0  0  0  0  0  0  0  0  0
    0.3218    4.0027   -2.2467 H   0  0  0  0  0  0  0  0  0  0  0  0
    0.9082    2.6314   -0.0600 H   0  0  0  0  0  0  0  0  0  0  0  0
   -0.2420    1.9216   -2.5127 H   0  0  0  0  0  0  0  0  0  0  0  0
    1.0034    0.1126    0.8145 H   0  0  0  0  0  0  0  0  0  0  0  0
    4.1716   -2.7039   -1.2472 H   0  0  0  0  0  0  0  0  0  0  0  0
    5.5695   -4.1180    0.2807 H   0  0  0  0  0  0  0  0  0  0  0  0
    3.4991   -2.4220    3.5814 H   0  0  0  0  0  0  0  0  0  0  0  0
    2.1388   -1.0428    2.0486 H   0  0  0  0  0  0  0  0  0  0  0  0
   -1.3277    4.8394    1.0415 H   0  0  0  0  0  0  0  0  0  0  0  0
   -1.2074    3.6341    2.3394 H   0  0  0  0  0  0  0  0  0  0  0  0
    0.2867    4.0744    1.4658 H   0  0  0  0  0  0  0  0  0  0  0  0
   -1.6485   -1.6021   -2.4662 H   0  0  0  0  0  0  0  0  0  0  0  0
   -1.6968   -3.7916   -1.2819 H   0  0  0  0  0  0  0  0  0  0  0  0
  1  2  1  0
  2  3  2  0
  3  4  1  0
  4  5  2  0
  5  6  1  0
  6  7  1  0
  7  8  1  0
  8  9  1  0
  9 10  1  0
 10 11  1  0
 11 12  1  0
 12 13  1  0
 13 14  2  0
 14 15  1  0
 15 16  1  0
 16 17  2  0
 17 18  1  0
 18 19  2  0
 19 20  1  0
 19 21  1  0
 21 22  2  0
 15 23  2  0
 23 24  1  0
 11 25  1  0
 25 26  1  0
  5 27  1  0
 27 28  2  0
 28  2  1  0
 12  6  1  0
 24 13  1  0
 25  8  1  0
 22 16  1  0
  1 29  1  0
  1 30  1  0
  1 31  1  0
  3 32  1  0
  4 33  1  0
  6 34  1  6
  7 35  1  0
  7 36  1  0
  8 37  1  1
  9 38  1  0
  9 39  1  0
 10 40  1  0
 10 41  1  0
 11 42  1  1
 12 43  1  6
 14 44  1  0
 17 45  1  0
 18 46  1  0
 21 47  1  0
 22 48  1  0
 26 49  1  0
 26 50  1  0
 26 51  1  0
 27 52  1  0
 28 53  1  0
M  END
$$$$
