
     RDKit          3D

 58 62  0  0  0  0  0  0  0  0999 V2000
    2.8290   -4.2372   -0.0403 O   0  0  0  0  0  0  0  0  0  0  0  0
    3.0933   -3.0465   -0.3003 C   0  0  0  0  0  0  0  0  0  0  0  0
    4.2446   -2.5899   -1.0523 C   0  0  0  0  0  0  0  0  0  0  0  0
    5.1418   -3.3377   -1.5497 O   0  0  0  0  0  0  0  0  0  0  0  0
    4.1780   -1.1854   -1.1237 N   0  0  0  0  0  0  0  0  0  0  0  0
    5.1172   -0.2990   -1.7822 C   0  0  0  0  0  0  0  0  0  0  0  0
    6.1838    0.0471   -0.7944 C   0  0  0  0  0  0  0  0  0  0  0  0
    6.1168    1.1267    0.0382 C   0  0  0  0  0  0  0  0  0  0  0  0
    7.1192    1.4213    0.9435 C   0  0  0  0  0  0  0  0  0  0  0  0
    8.2410    0.6333    1.0485 C   0  0  0  0  0  0  0  0  0  0  0  0
    8.3193   -0.4643    0.2087 C   0  0  0  0  0  0  0  0  0  0  0  0
    7.3283   -0.7512   -0.6828 C   0  0  0  0  0  0  0  0  0  0  0  0
    2.9950   -0.7455   -0.4243 C   0  0  0  0  0  0  0  0  0  0  0  0
    2.4691    0.5150   -0.2007 C   0  0  0  0  0  0  0  0  0  0  0  0
    1.3031    0.6988    0.5075 C   0  0  0  0  0  0  0  0  0  0  0  0
    0.6383   -0.4005    1.0092 C   0  0  0  0  0  0  0  0  0  0  0  0
   -0.8352   -0.2466    1.9174 S   0  0  0  0  0  6  0  0  0  0  0  0
   -0.9007   -1.3305    2.9515 O   0  0  0  0  0  0  0  0  0  0  0  0
   -0.7336    1.0610    2.6916 O   0  0  0  0  0  0  0  0  0  0  0  0
   -2.2494   -0.2127    0.9841 N   0  0  0  0  0  0  0  0  0  0  0  0
   -2.3768   -1.4496    0.2540 C   0  0  0  0  0  0  0  0  0  0  0  0
   -2.7437   -1.0860   -1.1720 C   0  0  0  0  0  0  0  0  0  0  0  0
   -2.3141    0.3575   -1.3387 C   0  0  0  0  0  0  0  0  0  0  0  0
   -2.3451    0.8616    0.0647 C   0  0  1  0  0  0  0  0  0  0  0  0
   -3.7203    1.5135    0.2691 C   0  0  0  0  0  0  0  0  0  0  0  0
   -4.7441    0.5786    0.0316 O   0  0  0  0  0  0  0  0  0  0  0  0
   -6.0903    0.8826    0.1400 C   0  0  0  0  0  0  0  0  0  0  0  0
   -6.5357    2.1480    0.4956 C   0  0  0  0  0  0  0  0  0  0  0  0
   -7.8836    2.4216    0.5958 C   0  0  0  0  0  0  0  0  0  0  0  0
   -8.8424    1.4612    0.3501 C   0  0  0  0  0  0  0  0  0  0  0  0
   -8.4030    0.2027   -0.0035 C   0  0  0  0  0  0  0  0  0  0  0  0
   -7.0553   -0.0713   -0.1038 C   0  0  0  0  0  0  0  0  0  0  0  0
    1.1566   -1.6575    0.7899 C   0  0  0  0  0  0  0  0  0  0  0  0
    2.3411   -1.8603    0.0716 C   0  0  0  0  0  0  0  0  0  0  0  0
    4.6533    0.6215   -2.1518 H   0  0  0  0  0  0  0  0  0  0  0  0
    5.6027   -0.8905   -2.6041 H   0  0  0  0  0  0  0  0  0  0  0  0
    5.2552    1.7875    0.0011 H   0  0  0  0  0  0  0  0  0  0  0  0
    7.0612    2.2761    1.5997 H   0  0  0  0  0  0  0  0  0  0  0  0
    9.0417    0.8392    1.7477 H   0  0  0  0  0  0  0  0  0  0  0  0
    9.2071   -1.0959    0.2852 H   0  0  0  0  0  0  0  0  0  0  0  0
    7.4352   -1.6136   -1.3126 H   0  0  0  0  0  0  0  0  0  0  0  0
    2.9795    1.3872   -0.5909 H   0  0  0  0  0  0  0  0  0  0  0  0
    0.8948    1.7095    0.6786 H   0  0  0  0  0  0  0  0  0  0  0  0
   -3.1680   -2.1061    0.6717 H   0  0  0  0  0  0  0  0  0  0  0  0
   -1.4267   -2.0164    0.1893 H   0  0  0  0  0  0  0  0  0  0  0  0
   -3.8384   -1.2129   -1.3009 H   0  0  0  0  0  0  0  0  0  0  0  0
   -2.1851   -1.6796   -1.9207 H   0  0  0  0  0  0  0  0  0  0  0  0
   -2.9994    0.8887   -2.0177 H   0  0  0  0  0  0  0  0  0  0  0  0
   -1.2890    0.4378   -1.7677 H   0  0  0  0  0  0  0  0  0  0  0  0
   -1.5442    1.6219    0.1627 H   0  0  0  0  0  0  0  0  0  0  0  0
   -3.8218    2.4059   -0.3686 H   0  0  0  0  0  0  0  0  0  0  0  0
   -3.7975    1.8379    1.3259 H   0  0  0  0  0  0  0  0  0  0  0  0
   -5.7783    2.9081    0.6902 H   0  0  0  0  0  0  0  0  0  0  0  0
   -8.2339    3.4148    0.8749 H   0  0  0  0  0  0  0  0  0  0  0  0
   -9.9045    1.6869    0.4318 H   0  0  0  0  0  0  0  0  0  0  0  0
   -9.1580   -0.5432   -0.1942 H   0  0  0  0  0  0  0  0  0  0  0  0
   -6.7107   -1.0677   -0.3838 H   0  0  0  0  0  0  0  0  0  0  0  0
    0.6824   -2.5559    1.1603 H   0  0  0  0  0  0  0  0  0  0  0  0
  1  2  2  0
  2  3  1  0
  3  4  2  0
  3  5  1  0
  5  6  1  0
  6  7  1  0
  7  8  2  0
  8  9  1  0
  9 10  2  0
 10 11  1  0
 11 12  2  0
  5 13  1  0
 13 14  2  0
 14 15  1  0
 15 16  2  0
 16 17  1  0
 17 18  2  0
 17 19  2  0
 17 20  1  0
 20 21  1  0
 21 22  1  0
 22 23  1  0
 23 24  1  0
 24 25  1  0
 25 26  1  0
 26 27  1  0
 27 28  2  0
 28 29  1  0
 29 30  2  0
 30 31  1  0
 31 32  2  0
 16 33  1  0
 33 34  2  0
 34  2  1  0
 12  7  1  0
 34 13  1  0
 24 20  1  0
 32 27  1  0
  6 35  1  0
  6 36  1  0
  8 37  1  0
  9 38  1  0
 10 39  1  0
 11 40  1  0
 12 41  1  0
 14 42  1  0
 15 43  1  0
 21 44  1  0
 21 45  1  0
 22 46  1  0
 22 47  1  0
 23 48  1  0
 23 49  1  0
 24 50  1  6
 25 51  1  0
 25 52  1  0
 28 53  1  0
 29 54  1  0
 30 55  1  0
 31 56  1  0
 32 57  1  0
 33 58  1  0
M  END
$$$$
