
     RDKit          3D

 38 39  0  0  0  0  0  0  0  0999 V2000
   -5.3675    2.1883    0.3936 C   0  0  0  0  0  0  0  0  0  0  0  0
   -3.9742    1.6783    0.6910 C   0  0  0  0  0  0  0  0  0  0  0  0
   -3.3505    1.0520   -0.5278 C   0  0  0  0  0  0  0  0  0  0  0  0
   -1.9846    0.5552   -0.2292 C   0  0  0  0  0  0  0  0  0  0  0  0
   -0.8705    1.3350   -0.4202 C   0  0  0  0  0  0  0  0  0  0  0  0
    0.3841    0.7972   -0.1107 C   0  0  0  0  0  0  0  0  0  0  0  0
    0.5507   -0.4833    0.3782 C   0  0  0  0  0  0  0  0  0  0  0  0
    1.8805   -0.6936    0.5735 N   0  0  0  0  0  0  0  0  0  0  0  0
    2.5950    0.3873    0.2356 C   0  0  0  0  0  0  0  0  0  0  0  0
    4.0483    0.6870    0.2537 C   0  0  0  0  0  0  0  0  0  0  0  0
    4.7438    0.3142   -0.9957 C   0  0  0  0  0  0  0  0  0  0  0  0
    6.1415    0.6485   -0.8601 N   0  0  0  0  0  0  0  0  0  0  0  0
    5.0096   -0.1034   -2.1452 O   0  0  0  0  0  0  0  0  0  0  0  0
    1.6729    1.3317   -0.1955 C   0  0  0  0  0  0  0  0  0  0  0  0
   -0.5554   -1.2883    0.5796 C   0  0  0  0  0  0  0  0  0  0  0  0
   -0.4015   -2.6566    1.0990 C   0  0  0  0  0  0  0  0  0  0  0  0
    0.0699   -3.6054    0.0775 C   0  0  0  0  0  0  0  0  0  0  0  0
    0.3685   -4.9520    0.0292 O   0  0  0  0  0  0  0  0  0  0  0  0
    0.3037   -3.2162   -1.1182 O   0  0  0  0  0  0  0  0  0  0  0  0
   -1.7902   -0.7334    0.2655 C   0  0  0  0  0  0  0  0  0  0  0  0
   -5.9970    1.3753   -0.0367 H   0  0  0  0  0  0  0  0  0  0  0  0
   -5.7781    2.6180    1.3050 H   0  0  0  0  0  0  0  0  0  0  0  0
   -5.3179    3.0012   -0.3551 H   0  0  0  0  0  0  0  0  0  0  0  0
   -4.0206    0.9350    1.5349 H   0  0  0  0  0  0  0  0  0  0  0  0
   -3.3421    2.5117    1.0529 H   0  0  0  0  0  0  0  0  0  0  0  0
   -3.3047    1.8702   -1.3038 H   0  0  0  0  0  0  0  0  0  0  0  0
   -4.0049    0.2800   -0.9454 H   0  0  0  0  0  0  0  0  0  0  0  0
   -0.9704    2.3456   -0.8033 H   0  0  0  0  0  0  0  0  0  0  0  0
    2.3261   -1.5556    0.9315 H   0  0  0  0  0  0  0  0  0  0  0  0
    4.2268    1.7732    0.4327 H   0  0  0  0  0  0  0  0  0  0  0  0
    4.5480    0.1570    1.1174 H   0  0  0  0  0  0  0  0  0  0  0  0
    7.0849    0.3747   -0.4532 H   0  0  0  0  0  0  0  0  0  0  0  0
    6.8843    1.3366   -1.1105 H   0  0  0  0  0  0  0  0  0  0  0  0
    1.8355    2.3407   -0.5549 H   0  0  0  0  0  0  0  0  0  0  0  0
   -1.2865   -3.0519    1.6190 H   0  0  0  0  0  0  0  0  0  0  0  0
    0.4337   -2.5898    1.8600 H   0  0  0  0  0  0  0  0  0  0  0  0
   -0.1114   -5.6453   -0.5011 H   0  0  0  0  0  0  0  0  0  0  0  0
   -2.6800   -1.3189    0.4042 H   0  0  0  0  0  0  0  0  0  0  0  0
  1  2  1  0
  2  3  1  0
  3  4  1  0
  4  5  2  0
  5  6  1  0
  6  7  2  0
  7  8  1  0
  8  9  1  0
  9 10  1  0
 10 11  1  0
 11 12  1  0
 11 13  2  0
  9 14  2  0
  7 15  1  0
 15 16  1  0
 16 17  1  0
 17 18  1  0
 17 19  2  0
 15 20  2  0
 20  4  1  0
 14  6  1  0
  1 21  1  0
  1 22  1  0
  1 23  1  0
  2 24  1  0
  2 25  1  0
  3 26  1  0
  3 27  1  0
  5 28  1  0
  8 29  1  0
 10 30  1  0
 10 31  1  0
 12 32  1  0
 12 33  1  0
 14 34  1  0
 16 35  1  0
 16 36  1  0
 18 37  1  0
 20 38  1  0
M  END
$$$$
