
     RDKit          3D

 35 37  0  0  0  0  0  0  0  0999 V2000
   -4.9866   -1.7232    1.6311 C   0  0  0  0  0  0  0  0  0  0  0  0
   -4.3805   -0.7061    0.7111 C   0  0  0  0  0  0  0  0  0  0  0  0
   -5.2245    0.1055   -0.0173 C   0  0  0  0  0  0  0  0  0  0  0  0
   -4.6503    1.0471   -0.8690 C   0  0  0  0  0  0  0  0  0  0  0  0
   -5.7910    2.1689   -1.8760 Br  0  0  0  0  0  0  0  0  0  0  0  0
   -3.2765    1.1205   -0.9410 C   0  0  0  0  0  0  0  0  0  0  0  0
   -2.7753    2.0752   -1.8042 O   0  0  0  0  0  1  0  0  0  0  0  0
   -2.4123    0.3245   -0.2268 C   0  0  0  0  0  0  0  0  0  0  0  0
   -3.0254   -0.5812    0.5927 C   0  0  0  0  0  0  0  0  0  0  0  0
   -0.9638    0.4047   -0.3052 C   0  0  0  0  0  0  0  0  0  0  0  0
   -0.0938   -0.3846    0.4028 C   0  0  0  0  0  0  0  0  0  0  0  0
    1.2058   -0.0556    0.1005 C   0  0  0  0  0  0  0  0  0  0  0  0
    2.4071   -0.5568    0.5473 C   0  0  0  0  0  0  0  0  0  0  0  0
    3.5814   -0.0196    0.0578 C   0  0  0  0  0  0  0  0  0  0  0  0
    3.5079    0.9996   -0.8609 C   0  0  0  0  0  0  0  0  0  0  0  0
    2.3072    1.5065   -1.3128 C   0  0  0  0  0  0  0  0  0  0  0  0
    1.1376    0.9539   -0.8095 C   0  0  0  0  0  0  0  0  0  0  0  0
   -0.1637    1.2021   -1.0277 N   0  0  0  0  0  0  0  0  0  0  0  0
    4.9048   -0.4803    0.4675 C   0  0  0  0  0  0  0  0  0  0  0  0
    5.2999   -1.7814    0.8882 N   0  0  0  0  0  0  0  0  0  0  0  0
    5.8867    0.3582    0.4687 N   0  0  0  0  0  4  0  0  0  0  0  0
   -4.2763   -2.5881    1.7592 H   0  0  0  0  0  0  0  0  0  0  0  0
   -5.8569   -2.1642    1.1065 H   0  0  0  0  0  0  0  0  0  0  0  0
   -5.2934   -1.2917    2.5819 H   0  0  0  0  0  0  0  0  0  0  0  0
   -6.2992    0.0209    0.0636 H   0  0  0  0  0  0  0  0  0  0  0  0
   -2.4385   -1.2580    1.2006 H   0  0  0  0  0  0  0  0  0  0  0  0
   -0.3534   -1.1663    1.1089 H   0  0  0  0  0  0  0  0  0  0  0  0
    2.4927   -1.3571    1.2687 H   0  0  0  0  0  0  0  0  0  0  0  0
    4.3749    1.4826   -1.3002 H   0  0  0  0  0  0  0  0  0  0  0  0
    2.2249    2.3159   -2.0424 H   0  0  0  0  0  0  0  0  0  0  0  0
   -0.4644    1.9342   -1.6866 H   0  0  0  0  0  0  0  0  0  0  0  0
    5.9313   -2.3084    0.2662 H   0  0  0  0  0  0  0  0  0  0  0  0
    4.9983   -2.2387    1.7762 H   0  0  0  0  0  0  0  0  0  0  0  0
    6.0891    1.3654    0.2549 H   0  0  0  0  0  0  0  0  0  0  0  0
    6.3763    1.2754    0.3413 H   0  0  0  0  0  0  0  0  0  0  0  0
  1  2  1  0
  2  3  2  0
  3  4  1  0
  4  5  1  0
  4  6  2  0
  6  7  1  0
  6  8  1  0
  8  9  2  0
  8 10  1  0
 10 11  2  0
 11 12  1  0
 12 13  2  0
 13 14  1  0
 14 15  2  0
 15 16  1  0
 16 17  2  0
 17 18  1  0
 14 19  1  0
 19 20  1  0
 19 21  2  0
  9  2  1  0
 18 10  1  0
 17 12  1  0
  1 22  1  0
  1 23  1  0
  1 24  1  0
  3 25  1  0
  9 26  1  0
 11 27  1  0
 13 28  1  0
 15 29  1  0
 16 30  1  0
 18 31  1  0
 20 32  1  0
 20 33  1  0
 21 34  1  0
 21 35  1  0
M  CHG  2   7  -1  21   1
M  END
$$$$
