
     RDKit          3D

 77 81  0  0  0  0  0  0  0  0999 V2000
  -11.4761   -1.1375   -1.3364 C   0  0  0  0  0  0  0  0  0  0  0  0
  -10.3696   -0.2573   -1.8747 C   0  0  0  0  0  0  0  0  0  0  0  0
   -9.3497    0.0155   -0.8911 N   0  0  0  0  0  0  0  0  0  0  0  0
   -9.8333    0.8494    0.1803 C   0  0  0  0  0  0  0  0  0  0  0  0
   -9.1905    0.3561    1.4789 C   0  0  0  0  0  0  0  0  0  0  0  0
   -7.7593    0.2129    1.2654 N   0  0  0  0  0  0  0  0  0  0  0  0
   -7.0401    0.0978    2.5221 C   0  0  0  0  0  0  0  0  0  0  0  0
   -5.6020   -0.0415    2.2293 C   0  0  0  0  0  0  0  0  0  0  0  0
   -5.0329   -1.3102    2.3650 C   0  0  0  0  0  0  0  0  0  0  0  0
   -3.7113   -1.4930    2.1087 C   0  0  0  0  0  0  0  0  0  0  0  0
   -2.9005   -0.4233    1.7071 C   0  0  0  0  0  0  0  0  0  0  0  0
   -1.5422   -0.7212    1.4680 N   0  0  0  0  0  0  0  0  0  0  0  0
   -0.5357    0.1828    1.0513 C   0  0  0  0  0  0  0  0  0  0  0  0
   -0.8157    1.3748    0.8586 O   0  0  0  0  0  0  0  0  0  0  0  0
    0.8574   -0.2765    0.8398 C   0  0  0  0  0  0  0  0  0  0  0  0
    1.6554    0.8372    0.4220 N   0  0  0  0  0  0  0  0  0  0  0  0
    3.0628    0.7100    0.1443 C   0  0  0  0  0  0  0  0  0  0  0  0
    3.7137   -0.4980    0.2715 C   0  0  0  0  0  0  0  0  0  0  0  0
    5.0693   -0.5949   -0.0018 C   0  0  0  0  0  0  0  0  0  0  0  0
    5.8209    0.4889   -0.4066 C   0  0  0  0  0  0  0  0  0  0  0  0
    7.2448    0.3806   -0.6919 C   0  0  0  0  0  0  0  0  0  0  0  0
    7.7546   -0.7874   -1.1988 C   0  0  0  0  0  0  0  0  0  0  0  0
    9.1075   -0.9538   -1.4941 C   0  0  0  0  0  0  0  0  0  0  0  0
    9.9656    0.0733   -1.2759 C   0  0  0  0  0  0  0  0  0  0  0  0
   11.3529    0.0437   -1.5286 N   0  0  0  0  0  0  0  0  0  0  0  0
   12.0705   -1.0546   -2.0439 C   0  0  0  0  0  0  0  0  0  0  0  0
   11.5390   -2.1281   -2.3316 O   0  0  0  0  0  0  0  0  0  0  0  0
   13.5442   -0.9043   -2.2487 C   0  0  0  0  0  0  0  0  0  0  0  0
   14.0280    0.3903   -2.8706 C   0  0  0  0  0  0  0  0  0  0  0  0
   14.3244    0.0400   -1.4243 C   0  0  0  0  0  0  0  0  0  0  0  0
    9.4540    1.2290   -0.7730 N   0  0  0  0  0  0  0  0  0  0  0  0
    8.1548    1.3959   -0.4869 C   0  0  0  0  0  0  0  0  0  0  0  0
    5.1586    1.6969   -0.5313 C   0  0  0  0  0  0  0  0  0  0  0  0
    3.8105    1.7935   -0.2594 C   0  0  0  0  0  0  0  0  0  0  0  0
   -3.4886    0.8065    1.5837 C   0  0  0  0  0  0  0  0  0  0  0  0
   -4.8485    1.0224    1.8418 C   0  0  0  0  0  0  0  0  0  0  0  0
   -5.4639    2.3585    1.7039 C   0  0  0  0  0  0  0  0  0  0  0  0
   -6.0134    2.8328    2.8769 F   0  0  0  0  0  0  0  0  0  0  0  0
   -6.3910    2.3862    0.6585 F   0  0  0  0  0  0  0  0  0  0  0  0
   -4.4750    3.2835    1.3501 F   0  0  0  0  0  0  0  0  0  0  0  0
   -7.4415   -0.8216    0.3316 C   0  0  0  0  0  0  0  0  0  0  0  0
   -8.7028   -1.1797   -0.4380 C   0  0  0  0  0  0  0  0  0  0  0  0
  -12.1718   -1.3356   -2.1731 H   0  0  0  0  0  0  0  0  0  0  0  0
  -12.0752   -0.5766   -0.5707 H   0  0  0  0  0  0  0  0  0  0  0  0
  -11.0612   -2.0684   -0.9417 H   0  0  0  0  0  0  0  0  0  0  0  0
   -9.8760   -0.8394   -2.6942 H   0  0  0  0  0  0  0  0  0  0  0  0
  -10.7641    0.6840   -2.2595 H   0  0  0  0  0  0  0  0  0  0  0  0
  -10.9183    0.8771    0.2834 H   0  0  0  0  0  0  0  0  0  0  0  0
   -9.4599    1.8939    0.0419 H   0  0  0  0  0  0  0  0  0  0  0  0
   -9.6487   -0.5913    1.7645 H   0  0  0  0  0  0  0  0  0  0  0  0
   -9.3305    1.1257    2.2636 H   0  0  0  0  0  0  0  0  0  0  0  0
   -7.4016   -0.8280    2.9993 H   0  0  0  0  0  0  0  0  0  0  0  0
   -7.2556    0.9436    3.1988 H   0  0  0  0  0  0  0  0  0  0  0  0
   -5.6264   -2.1668    2.6752 H   0  0  0  0  0  0  0  0  0  0  0  0
   -3.2950   -2.4977    2.2243 H   0  0  0  0  0  0  0  0  0  0  0  0
   -1.1979   -1.7132    1.6028 H   0  0  0  0  0  0  0  0  0  0  0  0
    1.2359   -0.6976    1.8167 H   0  0  0  0  0  0  0  0  0  0  0  0
    0.8963   -1.1315    0.1335 H   0  0  0  0  0  0  0  0  0  0  0  0
    1.2261    1.7702    0.3105 H   0  0  0  0  0  0  0  0  0  0  0  0
    3.1562   -1.3720    0.5870 H   0  0  0  0  0  0  0  0  0  0  0  0
    5.5870   -1.5468    0.0975 H   0  0  0  0  0  0  0  0  0  0  0  0
    7.0499   -1.6060   -1.3691 H   0  0  0  0  0  0  0  0  0  0  0  0
    9.4277   -1.9241   -1.8972 H   0  0  0  0  0  0  0  0  0  0  0  0
   11.9445    0.9044   -1.3257 H   0  0  0  0  0  0  0  0  0  0  0  0
   14.0761   -1.7880   -2.6521 H   0  0  0  0  0  0  0  0  0  0  0  0
   14.9027    0.3735   -3.5543 H   0  0  0  0  0  0  0  0  0  0  0  0
   13.2163    1.1144   -3.0913 H   0  0  0  0  0  0  0  0  0  0  0  0
   13.8839    0.7315   -0.7069 H   0  0  0  0  0  0  0  0  0  0  0  0
   15.3924   -0.2215   -1.1906 H   0  0  0  0  0  0  0  0  0  0  0  0
    7.8227    2.3310   -0.0942 H   0  0  0  0  0  0  0  0  0  0  0  0
    5.7537    2.5534   -0.8520 H   0  0  0  0  0  0  0  0  0  0  0  0
    3.2969    2.7392   -0.3575 H   0  0  0  0  0  0  0  0  0  0  0  0
   -2.9265    1.6722    1.2798 H   0  0  0  0  0  0  0  0  0  0  0  0
   -7.1540   -1.7387    0.8828 H   0  0  0  0  0  0  0  0  0  0  0  0
   -6.6763   -0.5228   -0.4172 H   0  0  0  0  0  0  0  0  0  0  0  0
   -8.3706   -1.7450   -1.3306 H   0  0  0  0  0  0  0  0  0  0  0  0
   -9.3639   -1.8263    0.1648 H   0  0  0  0  0  0  0  0  0  0  0  0
  1  2  1  0
  2  3  1  0
  3  4  1  0
  4  5  1  0
  5  6  1  0
  6  7  1  0
  7  8  1  0
  8  9  2  0
  9 10  1  0
 10 11  2  0
 11 12  1  0
 12 13  1  0
 13 14  2  0
 13 15  1  0
 15 16  1  0
 16 17  1  0
 17 18  2  0
 18 19  1  0
 19 20  2  0
 20 21  1  0
 21 22  2  0
 22 23  1  0
 23 24  2  0
 24 25  1  0
 25 26  1  0
 26 27  2  0
 26 28  1  0
 28 29  1  0
 29 30  1  0
 24 31  1  0
 31 32  2  0
 20 33  1  0
 33 34  2  0
 11 35  1  0
 35 36  2  0
 36 37  1  0
 37 38  1  0
 37 39  1  0
 37 40  1  0
  6 41  1  0
 41 42  1  0
 42  3  1  0
 36  8  1  0
 34 17  1  0
 32 21  1  0
 30 28  1  0
  1 43  1  0
  1 44  1  0
  1 45  1  0
  2 46  1  0
  2 47  1  0
  4 48  1  0
  4 49  1  0
  5 50  1  0
  5 51  1  0
  7 52  1  0
  7 53  1  0
  9 54  1  0
 10 55  1  0
 12 56  1  0
 15 57  1  0
 15 58  1  0
 16 59  1  0
 18 60  1  0
 19 61  1  0
 22 62  1  0
 23 63  1  0
 25 64  1  0
 28 65  1  0
 29 66  1  0
 29 67  1  0
 30 68  1  0
 30 69  1  0
 32 70  1  0
 33 71  1  0
 34 72  1  0
 35 73  1  0
 41 74  1  0
 41 75  1  0
 42 76  1  0
 42 77  1  0
M  END
$$$$
