
     RDKit          3D

 47 49  0  0  0  0  0  0  0  0999 V2000
   -2.1242   -1.9407   -0.5041 C   0  0  2  0  0  0  0  0  0  0  0  0
   -1.8427   -2.6820    0.7962 C   0  0  0  0  0  0  0  0  0  0  0  0
   -1.5420   -4.1112    0.4403 C   0  0  0  0  0  0  0  0  0  0  0  0
   -0.9675   -1.9803   -1.4342 C   0  0  0  0  0  0  0  0  0  0  0  0
    0.2717   -1.4317   -1.0164 N   0  0  0  0  0  0  0  0  0  0  0  0
    0.7655   -0.1658   -0.6476 C   0  0  0  0  0  0  0  0  0  0  0  0
   -0.0586    0.7817   -0.6836 O   0  0  0  0  0  0  0  0  0  0  0  0
    2.1128    0.1813   -0.2296 C   0  0  0  0  0  0  0  0  0  0  0  0
    2.3640    1.4993    0.0856 C   0  0  0  0  0  0  0  0  0  0  0  0
    3.6515    1.8769    0.4938 C   0  0  0  0  0  0  0  0  0  0  0  0
    4.6951    0.9808    0.5971 C   0  0  0  0  0  0  0  0  0  0  0  0
    4.4402   -0.3228    0.2838 C   0  0  0  0  0  0  0  0  0  0  0  0
    3.1769   -0.6879   -0.1157 C   0  0  0  0  0  0  0  0  0  0  0  0
    6.2921    1.4763    1.1086 S   0  0  0  0  0  0  0  0  0  0  0  0
    7.2876    1.9497   -0.2230 N   0  0  0  0  0  0  0  0  0  0  0  0
    6.9446    0.3883    1.9090 O   0  0  0  0  0  0  0  0  0  0  0  0
    6.1483    2.6759    2.0025 O   0  0  0  0  0  0  0  0  0  0  0  0
   -2.8274   -0.6782   -0.3301 C   0  0  0  0  0  0  0  0  0  0  0  0
   -2.7872    0.2308    0.7348 C   0  0  0  0  0  0  0  0  0  0  0  0
   -3.5178    1.3980    0.7527 C   0  0  0  0  0  0  0  0  0  0  0  0
   -4.3471    1.7520   -0.2900 C   0  0  0  0  0  0  0  0  0  0  0  0
   -4.8944    2.9253    0.0508 N   0  0  0  0  0  0  0  0  0  0  0  0
   -4.4500    3.3125    1.2414 C   0  0  0  0  0  0  0  0  0  0  0  0
   -3.5638    2.3756    1.7440 C   0  0  0  0  0  0  0  0  0  0  0  0
   -4.4287    0.8974   -1.3667 C   0  0  0  0  0  0  0  0  0  0  0  0
   -3.6863   -0.2629   -1.3567 C   0  0  0  0  0  0  0  0  0  0  0  0
   -2.8920   -2.6362   -1.0207 H   0  0  0  0  0  0  0  0  0  0  0  0
   -1.0146   -2.1911    1.3511 H   0  0  0  0  0  0  0  0  0  0  0  0
   -2.8038   -2.6653    1.3795 H   0  0  0  0  0  0  0  0  0  0  0  0
   -1.9678   -4.4007   -0.5458 H   0  0  0  0  0  0  0  0  0  0  0  0
   -1.9672   -4.8283    1.1843 H   0  0  0  0  0  0  0  0  0  0  0  0
   -0.4329   -4.2264    0.3263 H   0  0  0  0  0  0  0  0  0  0  0  0
   -1.3093   -1.5722   -2.4247 H   0  0  0  0  0  0  0  0  0  0  0  0
   -0.7855   -3.0659   -1.6637 H   0  0  0  0  0  0  0  0  0  0  0  0
    1.1033   -2.1007   -0.9355 H   0  0  0  0  0  0  0  0  0  0  0  0
    1.6295    2.3030    0.0456 H   0  0  0  0  0  0  0  0  0  0  0  0
    3.8455    2.9123    0.7404 H   0  0  0  0  0  0  0  0  0  0  0  0
    5.2152   -1.0943    0.3405 H   0  0  0  0  0  0  0  0  0  0  0  0
    3.0056   -1.7269   -0.3571 H   0  0  0  0  0  0  0  0  0  0  0  0
    7.2988    3.0059   -0.3222 H   0  0  0  0  0  0  0  0  0  0  0  0
    8.2778    1.6869    0.0514 H   0  0  0  0  0  0  0  0  0  0  0  0
   -2.1205   -0.0897    1.5338 H   0  0  0  0  0  0  0  0  0  0  0  0
   -5.5797    3.4077   -0.6028 H   0  0  0  0  0  0  0  0  0  0  0  0
   -4.7308    4.2250    1.7564 H   0  0  0  0  0  0  0  0  0  0  0  0
   -3.0223    2.3751    2.6776 H   0  0  0  0  0  0  0  0  0  0  0  0
   -5.0672    1.1380   -2.2045 H   0  0  0  0  0  0  0  0  0  0  0  0
   -3.7948   -0.8948   -2.2358 H   0  0  0  0  0  0  0  0  0  0  0  0
  1  2  1  0
  2  3  1  0
  1  4  1  0
  4  5  1  0
  5  6  1  0
  6  7  2  0
  6  8  1  0
  8  9  2  0
  9 10  1  0
 10 11  2  0
 11 12  1  0
 12 13  2  0
 11 14  1  0
 14 15  1  0
 14 16  2  0
 14 17  2  0
  1 18  1  0
 18 19  2  0
 19 20  1  0
 20 21  2  0
 21 22  1  0
 22 23  1  0
 23 24  2  0
 21 25  1  0
 25 26  2  0
 13  8  1  0
 26 18  1  0
 24 20  1  0
  1 27  1  6
  2 28  1  0
  2 29  1  0
  3 30  1  0
  3 31  1  0
  3 32  1  0
  4 33  1  0
  4 34  1  0
  5 35  1  0
  9 36  1  0
 10 37  1  0
 12 38  1  0
 13 39  1  0
 15 40  1  0
 15 41  1  0
 19 42  1  0
 22 43  1  0
 23 44  1  0
 24 45  1  0
 25 46  1  0
 26 47  1  0
M  END
$$$$
