
     RDKit          3D

 57 60  0  0  0  0  0  0  0  0999 V2000
    3.8389   -1.7970    2.4708 C   0  0  0  0  0  0  0  0  0  0  0  0
    3.2763   -1.1221    1.3681 O   0  0  0  0  0  0  0  0  0  0  0  0
    3.8922   -0.9737    0.1643 C   0  0  0  0  0  0  0  0  0  0  0  0
    5.1664   -1.5363    0.0365 C   0  0  0  0  0  0  0  0  0  0  0  0
    5.8318   -1.4185   -1.1488 C   0  0  0  0  0  0  0  0  0  0  0  0
    5.2492   -0.7562   -2.1907 C   0  0  0  0  0  0  0  0  0  0  0  0
    3.9981   -0.2135   -2.0386 C   0  0  0  0  0  0  0  0  0  0  0  0
    3.2624   -0.2984   -0.8514 C   0  0  0  0  0  0  0  0  0  0  0  0
    1.9606    0.3025   -0.7915 C   0  0  0  0  0  0  0  0  0  0  0  0
    1.5427    0.8938   -1.8552 O   0  0  0  0  0  0  0  0  0  0  0  0
    1.0835    0.3107    0.3274 N   0  0  0  0  0  0  0  0  0  0  0  0
   -0.1773    0.9518    0.2140 C   0  0  0  0  0  0  0  0  0  0  0  0
   -0.2997    2.3251    0.4570 C   0  0  0  0  0  0  0  0  0  0  0  0
   -1.5622    2.9068    0.3456 C   0  0  0  0  0  0  0  0  0  0  0  0
   -2.6625    2.1496    0.0048 C   0  0  0  0  0  0  0  0  0  0  0  0
   -2.5462    0.7929   -0.2358 C   0  0  0  0  0  0  0  0  0  0  0  0
   -1.2743    0.2124   -0.1224 C   0  0  0  0  0  0  0  0  0  0  0  0
   -1.1840   -1.1608   -0.3599 N   0  0  0  0  0  0  0  0  0  0  0  0
   -0.4432   -1.8127   -1.3981 C   0  0  0  0  0  0  0  0  0  0  0  0
   -1.2952   -2.9191   -1.9937 C   0  0  0  0  0  0  0  0  0  0  0  0
   -1.6390   -3.9166   -1.0014 N   0  0  0  0  0  0  0  0  0  0  0  0
   -1.3970   -3.4287    0.3464 C   0  0  0  0  0  0  0  0  0  0  0  0
   -1.9311   -2.0460    0.5546 C   0  0  1  0  0  0  0  0  0  0  0  0
   -1.7061   -1.6530    1.9909 C   0  0  0  0  0  0  0  0  0  0  0  0
   -3.7270    2.9701   -0.0256 N   0  0  0  0  0  0  0  0  0  0  0  0
   -5.1137    2.5975   -0.3429 C   0  0  0  0  0  0  0  0  0  0  0  0
   -3.2667    4.1895    0.2908 C   0  0  0  0  0  0  0  0  0  0  0  0
   -4.0094    5.2175    0.3574 O   0  0  0  0  0  0  0  0  0  0  0  0
   -1.9587    4.1718    0.5191 N   0  0  0  0  0  0  0  0  0  0  0  0
   -1.0714    5.2626    0.8863 C   0  0  0  0  0  0  0  0  0  0  0  0
    3.9817   -2.8747    2.2618 H   0  0  0  0  0  0  0  0  0  0  0  0
    4.8697   -1.3554    2.6029 H   0  0  0  0  0  0  0  0  0  0  0  0
    3.2699   -1.6418    3.3959 H   0  0  0  0  0  0  0  0  0  0  0  0
    5.6400   -2.0634    0.8525 H   0  0  0  0  0  0  0  0  0  0  0  0
    6.8267   -1.8302   -1.3235 H   0  0  0  0  0  0  0  0  0  0  0  0
    5.7431   -0.6417   -3.1439 H   0  0  0  0  0  0  0  0  0  0  0  0
    3.5572    0.3087   -2.8843 H   0  0  0  0  0  0  0  0  0  0  0  0
    1.3501   -0.1361    1.2033 H   0  0  0  0  0  0  0  0  0  0  0  0
    0.5444    2.9138    0.7199 H   0  0  0  0  0  0  0  0  0  0  0  0
   -3.4111    0.2187   -0.4996 H   0  0  0  0  0  0  0  0  0  0  0  0
    0.5490   -2.1829   -1.0971 H   0  0  0  0  0  0  0  0  0  0  0  0
   -0.2921   -1.0864   -2.2222 H   0  0  0  0  0  0  0  0  0  0  0  0
   -0.6761   -3.4207   -2.7638 H   0  0  0  0  0  0  0  0  0  0  0  0
   -2.1817   -2.5028   -2.5060 H   0  0  0  0  0  0  0  0  0  0  0  0
   -2.6898   -4.0497   -1.0673 H   0  0  0  0  0  0  0  0  0  0  0  0
   -1.7821   -4.0987    1.1130 H   0  0  0  0  0  0  0  0  0  0  0  0
   -0.2915   -3.3798    0.4719 H   0  0  0  0  0  0  0  0  0  0  0  0
   -3.0186   -1.9625    0.3609 H   0  0  0  0  0  0  0  0  0  0  0  0
   -2.3454   -0.7936    2.2744 H   0  0  0  0  0  0  0  0  0  0  0  0
   -2.0036   -2.5096    2.6266 H   0  0  0  0  0  0  0  0  0  0  0  0
   -0.6662   -1.3663    2.2098 H   0  0  0  0  0  0  0  0  0  0  0  0
   -5.8271    3.1271    0.2923 H   0  0  0  0  0  0  0  0  0  0  0  0
   -5.1744    1.5097   -0.3120 H   0  0  0  0  0  0  0  0  0  0  0  0
   -5.2482    2.8995   -1.4172 H   0  0  0  0  0  0  0  0  0  0  0  0
   -1.6458    6.0122    1.4895 H   0  0  0  0  0  0  0  0  0  0  0  0
   -0.7322    5.8216   -0.0176 H   0  0  0  0  0  0  0  0  0  0  0  0
   -0.1833    4.8826    1.4020 H   0  0  0  0  0  0  0  0  0  0  0  0
  1  2  1  0
  2  3  1  0
  3  4  2  0
  4  5  1  0
  5  6  2  0
  6  7  1  0
  7  8  2  0
  8  9  1  0
  9 10  2  0
  9 11  1  0
 11 12  1  0
 12 13  2  0
 13 14  1  0
 14 15  2  0
 15 16  1  0
 16 17  2  0
 17 18  1  0
 18 19  1  0
 19 20  1  0
 20 21  1  0
 21 22  1  0
 22 23  1  0
 23 24  1  0
 15 25  1  0
 25 26  1  0
 25 27  1  0
 27 28  2  0
 27 29  1  0
 29 30  1  0
  8  3  1  0
 17 12  1  0
 23 18  1  0
 29 14  1  0
  1 31  1  0
  1 32  1  0
  1 33  1  0
  4 34  1  0
  5 35  1  0
  6 36  1  0
  7 37  1  0
 11 38  1  0
 13 39  1  0
 16 40  1  0
 19 41  1  0
 19 42  1  0
 20 43  1  0
 20 44  1  0
 21 45  1  0
 22 46  1  0
 22 47  1  0
 23 48  1  6
 24 49  1  0
 24 50  1  0
 24 51  1  0
 26 52  1  0
 26 53  1  0
 26 54  1  0
 30 55  1  0
 30 56  1  0
 30 57  1  0
M  END
$$$$
