
     RDKit          3D

 51 54  0  0  0  0  0  0  0  0999 V2000
   -0.2830    3.3709    0.2535 O   0  0  0  0  0  0  0  0  0  0  0  0
   -1.1404    2.4496    0.1495 C   0  0  0  0  0  0  0  0  0  0  0  0
   -1.6685    2.0006   -1.0718 N   0  0  0  0  0  0  0  0  0  0  0  0
   -2.5941    0.9733   -0.7634 C   0  0  0  0  0  0  0  0  0  0  0  0
   -3.3372    0.4195   -1.6517 O   0  0  0  0  0  0  0  0  0  0  0  0
   -2.5584    0.6758    0.6670 C   0  0  2  0  0  0  0  0  0  0  0  0
   -2.1470   -0.6682    1.1024 C   0  0  0  0  0  0  0  0  0  0  0  0
   -0.8667   -1.1957    0.8401 N   0  0  0  0  0  0  0  0  0  0  0  0
   -0.2096   -1.4307   -0.3951 C   0  0  0  0  0  0  0  0  0  0  0  0
   -0.8384   -1.0995   -1.4294 O   0  0  0  0  0  0  0  0  0  0  0  0
    1.1154   -2.0276   -0.5167 C   0  0  1  0  0  0  0  0  0  0  0  0
    2.2726   -1.4270    0.1265 C   0  0  0  0  0  0  0  0  0  0  0  0
    2.7232   -0.0934   -0.1906 C   0  0  0  0  0  0  0  0  0  0  0  0
    2.2881    0.9724    0.5604 C   0  0  0  0  0  0  0  0  0  0  0  0
    2.7113    2.2783    0.3025 C   0  0  0  0  0  0  0  0  0  0  0  0
    3.5845    2.5324   -0.7234 C   0  0  0  0  0  0  0  0  0  0  0  0
    4.0046    3.9518   -0.9546 C   0  0  0  0  0  0  0  0  0  0  0  0
    4.2406    4.2134   -2.2685 F   0  0  0  0  0  0  0  0  0  0  0  0
    5.1599    4.1237   -0.1858 F   0  0  0  0  0  0  0  0  0  0  0  0
    3.0529    4.8052   -0.4090 F   0  0  0  0  0  0  0  0  0  0  0  0
    4.0276    1.4937   -1.4799 C   0  0  0  0  0  0  0  0  0  0  0  0
    3.6100    0.2077   -1.2241 C   0  0  0  0  0  0  0  0  0  0  0  0
    1.0291   -3.4801    0.0110 C   0  0  0  0  0  0  0  0  0  0  0  0
    0.1255   -4.4416   -0.6188 C   0  0  0  0  0  0  0  0  0  0  0  0
    1.6039   -4.5812   -0.8737 C   0  0  0  0  0  0  0  0  0  0  0  0
   -3.9959    0.9189    1.1986 C   0  0  0  0  0  0  0  0  0  0  0  0
   -5.1090    0.1273    0.6124 C   0  0  0  0  0  0  0  0  0  0  0  0
   -4.9956    1.5863    0.3388 C   0  0  0  0  0  0  0  0  0  0  0  0
   -1.7053    1.7286    1.2278 N   0  0  0  0  0  0  0  0  0  0  0  0
   -1.4333    2.3494   -2.0448 H   0  0  0  0  0  0  0  0  0  0  0  0
   -2.9595   -1.4147    0.7488 H   0  0  0  0  0  0  0  0  0  0  0  0
   -2.3069   -0.7222    2.2373 H   0  0  0  0  0  0  0  0  0  0  0  0
   -0.2549   -1.4783    1.6775 H   0  0  0  0  0  0  0  0  0  0  0  0
    1.3192   -2.1773   -1.6070 H   0  0  0  0  0  0  0  0  0  0  0  0
    2.2158   -1.5066    1.2587 H   0  0  0  0  0  0  0  0  0  0  0  0
    3.1560   -2.1174   -0.0881 H   0  0  0  0  0  0  0  0  0  0  0  0
    1.5971    0.8647    1.3900 H   0  0  0  0  0  0  0  0  0  0  0  0
    2.3619    3.1066    0.9048 H   0  0  0  0  0  0  0  0  0  0  0  0
    4.7266    1.6988   -2.3012 H   0  0  0  0  0  0  0  0  0  0  0  0
    3.9407   -0.6447   -1.8043 H   0  0  0  0  0  0  0  0  0  0  0  0
    1.2490   -3.6314    1.0882 H   0  0  0  0  0  0  0  0  0  0  0  0
   -0.5289   -4.1725   -1.4916 H   0  0  0  0  0  0  0  0  0  0  0  0
   -0.3490   -5.2270    0.0084 H   0  0  0  0  0  0  0  0  0  0  0  0
    2.1727   -5.3986   -0.4116 H   0  0  0  0  0  0  0  0  0  0  0  0
    1.9554   -4.2879   -1.8785 H   0  0  0  0  0  0  0  0  0  0  0  0
   -4.0214    1.1246    2.2864 H   0  0  0  0  0  0  0  0  0  0  0  0
   -4.8745   -0.5738   -0.2074 H   0  0  0  0  0  0  0  0  0  0  0  0
   -5.9278   -0.2116    1.2983 H   0  0  0  0  0  0  0  0  0  0  0  0
   -4.8048    1.9250   -0.6788 H   0  0  0  0  0  0  0  0  0  0  0  0
   -5.7648    2.2279    0.8619 H   0  0  0  0  0  0  0  0  0  0  0  0
   -1.5685    1.8822    2.2321 H   0  0  0  0  0  0  0  0  0  0  0  0
  1  2  2  0
  2  3  1  0
  3  4  1  0
  4  5  2  0
  4  6  1  0
  6  7  1  6
  7  8  1  0
  8  9  1  0
  9 10  2  0
  9 11  1  0
 11 12  1  0
 12 13  1  0
 13 14  2  0
 14 15  1  0
 15 16  2  0
 16 17  1  0
 17 18  1  0
 17 19  1  0
 17 20  1  0
 16 21  1  0
 21 22  2  0
 11 23  1  0
 23 24  1  0
 24 25  1  0
  6 26  1  0
 26 27  1  0
 27 28  1  0
  6 29  1  0
 29  2  1  0
 22 13  1  0
 25 23  1  0
 28 26  1  0
  3 30  1  0
  7 31  1  0
  7 32  1  0
  8 33  1  0
 11 34  1  6
 12 35  1  0
 12 36  1  0
 14 37  1  0
 15 38  1  0
 21 39  1  0
 22 40  1  0
 23 41  1  0
 24 42  1  0
 24 43  1  0
 25 44  1  0
 25 45  1  0
 26 46  1  0
 27 47  1  0
 27 48  1  0
 28 49  1  0
 28 50  1  0
 29 51  1  0
M  END
$$$$
