
     RDKit          3D

 35 37  0  0  0  0  0  0  0  0999 V2000
   -5.1512    0.8594    0.8826 C   0  0  0  0  0  0  0  0  0  0  0  0
   -3.7865    0.8560    0.7893 O   0  0  0  0  0  0  0  0  0  0  0  0
   -3.2676    0.3033   -0.3570 C   0  0  0  0  0  0  0  0  0  0  0  0
   -2.4044    1.1972   -1.1610 C   0  0  0  0  0  0  0  0  0  0  0  0
   -1.2533    1.6482   -0.2632 C   0  0  0  0  0  0  0  0  0  0  0  0
   -0.3955    0.4547   -0.1244 C   0  0  0  0  0  0  0  0  0  0  0  0
    0.9753    0.5156   -0.1300 C   0  0  0  0  0  0  0  0  0  0  0  0
    1.7699   -0.6055   -0.0031 C   0  0  0  0  0  0  0  0  0  0  0  0
    3.2230   -0.5233   -0.0117 C   0  0  0  0  0  0  0  0  0  0  0  0
    3.8516    0.4686   -0.7714 C   0  0  0  0  0  0  0  0  0  0  0  0
    5.2253    0.5889   -0.8126 C   0  0  0  0  0  0  0  0  0  0  0  0
    5.9712   -0.3049   -0.0764 C   0  0  0  0  0  0  0  0  0  0  0  0
    5.3582   -1.2669    0.6603 N   0  0  0  0  0  0  0  0  0  0  0  0
    4.0143   -1.3753    0.6931 C   0  0  0  0  0  0  0  0  0  0  0  0
    1.1434   -1.8228    0.1335 C   0  0  0  0  0  0  0  0  0  0  0  0
   -0.2284   -1.9015    0.1412 C   0  0  0  0  0  0  0  0  0  0  0  0
   -1.0228   -0.7582    0.0116 C   0  0  0  0  0  0  0  0  0  0  0  0
   -2.4968   -0.9310    0.0296 C   0  0  0  0  0  0  0  0  0  0  0  0
   -5.6035   -0.1535    0.8496 H   0  0  0  0  0  0  0  0  0  0  0  0
   -5.4112    1.2714    1.8889 H   0  0  0  0  0  0  0  0  0  0  0  0
   -5.6733    1.4763    0.1451 H   0  0  0  0  0  0  0  0  0  0  0  0
   -4.1025   -0.0525   -1.0180 H   0  0  0  0  0  0  0  0  0  0  0  0
   -1.9394    0.5944   -1.9744 H   0  0  0  0  0  0  0  0  0  0  0  0
   -2.9074    2.0441   -1.6456 H   0  0  0  0  0  0  0  0  0  0  0  0
   -1.6382    1.9542    0.7289 H   0  0  0  0  0  0  0  0  0  0  0  0
   -0.7435    2.4808   -0.7947 H   0  0  0  0  0  0  0  0  0  0  0  0
    1.4263    1.4857   -0.2391 H   0  0  0  0  0  0  0  0  0  0  0  0
    3.2432    1.1475   -1.3323 H   0  0  0  0  0  0  0  0  0  0  0  0
    5.7137    1.3707   -1.4127 H   0  0  0  0  0  0  0  0  0  0  0  0
    7.0436   -0.1979   -0.1200 H   0  0  0  0  0  0  0  0  0  0  0  0
    3.5379   -2.1628    1.2964 H   0  0  0  0  0  0  0  0  0  0  0  0
    1.7404   -2.7401    0.2374 H   0  0  0  0  0  0  0  0  0  0  0  0
   -0.7148   -2.8521    0.2486 H   0  0  0  0  0  0  0  0  0  0  0  0
   -2.7430   -1.2625    1.0794 H   0  0  0  0  0  0  0  0  0  0  0  0
   -2.7539   -1.8064   -0.6026 H   0  0  0  0  0  0  0  0  0  0  0  0
  1  2  1  0
  2  3  1  0
  3  4  1  0
  4  5  1  0
  5  6  1  0
  6  7  2  0
  7  8  1  0
  8  9  1  0
  9 10  2  0
 10 11  1  0
 11 12  2  0
 12 13  1  0
 13 14  2  0
  8 15  2  0
 15 16  1  0
 16 17  2  0
 17 18  1  0
 18  3  1  0
 17  6  1  0
 14  9  1  0
  1 19  1  0
  1 20  1  0
  1 21  1  0
  3 22  1  0
  4 23  1  0
  4 24  1  0
  5 25  1  0
  5 26  1  0
  7 27  1  0
 10 28  1  0
 11 29  1  0
 12 30  1  0
 14 31  1  0
 15 32  1  0
 16 33  1  0
 18 34  1  0
 18 35  1  0
M  END
$$$$
