
     RDKit          3D

 30 31  0  0  0  0  0  0  0  0999 V2000
   -3.6688   -1.0338    0.0023 C   0  0  0  0  0  0  0  0  0  0  0  0
   -2.8969    0.1331   -0.0054 N   0  0  0  0  0  0  0  0  0  0  0  0
   -3.4827    1.3648   -0.3482 C   0  0  0  0  0  0  0  0  0  0  0  0
   -1.5584    0.0965    0.4326 C   0  0  0  0  0  0  0  0  0  0  0  0
   -0.7376   -0.7141   -0.5704 C   0  0  0  0  0  0  0  0  0  0  0  0
    0.6773   -0.8161   -0.1945 C   0  0  0  0  0  0  0  0  0  0  0  0
    1.1794   -1.9964    0.3658 C   0  0  0  0  0  0  0  0  0  0  0  0
    2.4956   -1.8202    0.6212 N   0  0  0  0  0  0  0  0  0  0  0  0
    2.8477   -0.5876    0.2496 C   0  0  0  0  0  0  0  0  0  0  0  0
    4.0795    0.0699    0.3056 C   0  0  0  0  0  0  0  0  0  0  0  0
    4.0996    1.3599   -0.1689 C   0  0  0  0  0  0  0  0  0  0  0  0
    2.9937    2.0058   -0.6783 C   0  0  0  0  0  0  0  0  0  0  0  0
    1.7601    1.3468   -0.7341 C   0  0  0  0  0  0  0  0  0  0  0  0
    1.7381    0.0601   -0.2612 C   0  0  0  0  0  0  0  0  0  0  0  0
   -2.9753   -1.8984    0.2038 H   0  0  0  0  0  0  0  0  0  0  0  0
   -4.4268   -1.1138    0.8050 H   0  0  0  0  0  0  0  0  0  0  0  0
   -4.1838   -1.2305   -0.9620 H   0  0  0  0  0  0  0  0  0  0  0  0
   -4.5202    1.5141    0.0577 H   0  0  0  0  0  0  0  0  0  0  0  0
   -3.5658    1.3910   -1.4734 H   0  0  0  0  0  0  0  0  0  0  0  0
   -2.8942    2.2602   -0.0704 H   0  0  0  0  0  0  0  0  0  0  0  0
   -1.4771   -0.3841    1.4328 H   0  0  0  0  0  0  0  0  0  0  0  0
   -1.1197    1.1185    0.5212 H   0  0  0  0  0  0  0  0  0  0  0  0
   -1.2028   -1.6862   -0.7622 H   0  0  0  0  0  0  0  0  0  0  0  0
   -0.8427   -0.1543   -1.5485 H   0  0  0  0  0  0  0  0  0  0  0  0
    0.6372   -2.9305    0.5807 H   0  0  0  0  0  0  0  0  0  0  0  0
    3.1196   -2.5495    1.0433 H   0  0  0  0  0  0  0  0  0  0  0  0
    4.9067   -0.4817    0.7115 H   0  0  0  0  0  0  0  0  0  0  0  0
    5.0697    1.8385   -0.1101 H   0  0  0  0  0  0  0  0  0  0  0  0
    3.0677    3.0312   -1.0415 H   0  0  0  0  0  0  0  0  0  0  0  0
    0.8807    1.8067   -1.1184 H   0  0  0  0  0  0  0  0  0  0  0  0
  1  2  1  0
  2  3  1  0
  2  4  1  0
  4  5  1  0
  5  6  1  0
  6  7  2  0
  7  8  1  0
  8  9  1  0
  9 10  2  0
 10 11  1  0
 11 12  2  0
 12 13  1  0
 13 14  2  0
 14  6  1  0
 14  9  1  0
  1 15  1  0
  1 16  1  0
  1 17  1  0
  3 18  1  0
  3 19  1  0
  3 20  1  0
  4 21  1  0
  4 22  1  0
  5 23  1  0
  5 24  1  0
  7 25  1  0
  8 26  1  0
 10 27  1  0
 11 28  1  0
 12 29  1  0
 13 30  1  0
M  END
$$$$
