
     RDKit          3D

 59 63  0  0  0  0  0  0  0  0999 V2000
   -7.8597   -0.5675    0.1487 N   0  0  0  0  0  0  0  0  0  0  0  0
   -6.9014   -0.4782   -0.8899 C   0  0  0  0  0  0  0  0  0  0  0  0
   -7.2576   -0.7042   -2.0637 O   0  0  0  0  0  0  0  0  0  0  0  0
   -5.5126   -0.1268   -0.5989 C   0  0  2  0  0  0  0  0  0  0  0  0
   -5.3869    1.2340    0.0505 C   0  0  0  0  0  0  0  0  0  0  0  0
   -3.9365    1.5473    0.2687 C   0  0  0  0  0  0  0  0  0  0  0  0
   -3.1783    1.5582   -1.0274 C   0  0  0  0  0  0  0  0  0  0  0  0
   -3.2452    0.1780   -1.6195 C   0  0  0  0  0  0  0  0  0  0  0  0
   -4.7054   -0.1494   -1.8502 C   0  0  0  0  0  0  0  0  0  0  0  0
   -2.6749   -0.8684   -0.6982 C   0  0  1  0  0  0  0  0  0  0  0  0
   -1.3452   -0.5990   -0.3182 O   0  0  0  0  0  0  0  0  0  0  0  0
   -0.2935   -1.4486   -0.4726 C   0  0  0  0  0  0  0  0  0  0  0  0
   -0.4741   -2.5574   -0.9833 O   0  0  0  0  0  0  0  0  0  0  0  0
    0.9957   -1.0597   -0.0495 N   0  0  0  0  0  0  0  0  0  0  0  0
    1.3512    0.2040    0.5623 C   0  0  0  0  0  0  0  0  0  0  0  0
    2.7851    0.3759    0.0703 C   0  0  0  0  0  0  0  0  0  0  0  0
    3.3295   -1.0348    0.3285 C   0  0  2  0  0  0  0  0  0  0  0  0
    4.5445   -1.2603   -0.3804 N   0  0  0  0  0  0  0  0  0  0  0  0
    5.6858   -0.4550   -0.1533 C   0  0  0  0  0  0  0  0  0  0  0  0
    6.8717   -0.6700   -0.8407 C   0  0  0  0  0  0  0  0  0  0  0  0
    8.0002    0.0940   -0.6446 C   0  0  0  0  0  0  0  0  0  0  0  0
    7.9599    1.1290    0.2810 C   0  0  0  0  0  0  0  0  0  0  0  0
    9.1645    1.9682    0.5113 C   0  0  0  0  0  0  0  0  0  0  0  0
    8.7511    3.1845    0.9902 F   0  0  0  0  0  0  0  0  0  0  0  0
    9.9083    1.3339    1.4993 F   0  0  0  0  0  0  0  0  0  0  0  0
    9.9060    2.1352   -0.6428 F   0  0  0  0  0  0  0  0  0  0  0  0
    6.7703    1.3214    0.9501 C   0  0  0  0  0  0  0  0  0  0  0  0
    5.6861    0.5555    0.7336 N   0  0  0  0  0  0  0  0  0  0  0  0
    2.1847   -1.8792   -0.1637 C   0  0  0  0  0  0  0  0  0  0  0  0
   -3.4804   -0.8228    0.5851 C   0  0  0  0  0  0  0  0  0  0  0  0
   -3.2742    0.5485    1.1887 C   0  0  0  0  0  0  0  0  0  0  0  0
   -4.9313   -1.1389    0.3618 C   0  0  0  0  0  0  0  0  0  0  0  0
   -8.7677   -0.0671    0.0589 H   0  0  0  0  0  0  0  0  0  0  0  0
   -7.6853   -1.1238    1.0108 H   0  0  0  0  0  0  0  0  0  0  0  0
   -5.8561    1.1500    1.0665 H   0  0  0  0  0  0  0  0  0  0  0  0
   -5.8279    2.0353   -0.5500 H   0  0  0  0  0  0  0  0  0  0  0  0
   -3.8510    2.5682    0.7232 H   0  0  0  0  0  0  0  0  0  0  0  0
   -3.7250    2.2433   -1.7181 H   0  0  0  0  0  0  0  0  0  0  0  0
   -2.1630    1.9438   -0.8918 H   0  0  0  0  0  0  0  0  0  0  0  0
   -2.7736    0.1487   -2.6307 H   0  0  0  0  0  0  0  0  0  0  0  0
   -4.8350   -1.0709   -2.4419 H   0  0  0  0  0  0  0  0  0  0  0  0
   -5.0971    0.6803   -2.5091 H   0  0  0  0  0  0  0  0  0  0  0  0
   -2.8113   -1.8588   -1.1494 H   0  0  0  0  0  0  0  0  0  0  0  0
    1.4059    0.1096    1.6632 H   0  0  0  0  0  0  0  0  0  0  0  0
    0.7003    1.0330    0.2250 H   0  0  0  0  0  0  0  0  0  0  0  0
    2.7414    0.5682   -1.0058 H   0  0  0  0  0  0  0  0  0  0  0  0
    3.3362    1.1344    0.6535 H   0  0  0  0  0  0  0  0  0  0  0  0
    3.5045   -1.1485    1.4140 H   0  0  0  0  0  0  0  0  0  0  0  0
    4.6073   -2.0249   -1.0782 H   0  0  0  0  0  0  0  0  0  0  0  0
    6.9046   -1.4790   -1.5648 H   0  0  0  0  0  0  0  0  0  0  0  0
    8.9258   -0.0694   -1.1772 H   0  0  0  0  0  0  0  0  0  0  0  0
    6.7118    2.1128    1.6695 H   0  0  0  0  0  0  0  0  0  0  0  0
    2.3374   -2.2674   -1.1855 H   0  0  0  0  0  0  0  0  0  0  0  0
    2.0452   -2.7317    0.5406 H   0  0  0  0  0  0  0  0  0  0  0  0
   -3.0515   -1.6131    1.2541 H   0  0  0  0  0  0  0  0  0  0  0  0
   -3.6003    0.6242    2.2304 H   0  0  0  0  0  0  0  0  0  0  0  0
   -2.1665    0.7465    1.1269 H   0  0  0  0  0  0  0  0  0  0  0  0
   -4.9969   -2.1756   -0.0047 H   0  0  0  0  0  0  0  0  0  0  0  0
   -5.4494   -1.0152    1.3268 H   0  0  0  0  0  0  0  0  0  0  0  0
  1  2  1  0
  2  3  2  0
  4  2  1  6
  4  5  1  0
  5  6  1  0
  6  7  1  0
  7  8  1  0
  8  9  1  0
  8 10  1  0
 10 11  1  0
 11 12  1  0
 12 13  2  0
 12 14  1  0
 14 15  1  0
 15 16  1  0
 16 17  1  0
 17 18  1  0
 18 19  1  0
 19 20  2  0
 20 21  1  0
 21 22  2  0
 22 23  1  0
 23 24  1  0
 23 25  1  0
 23 26  1  0
 22 27  1  0
 27 28  2  0
 17 29  1  0
 10 30  1  0
 30 31  1  0
 30 32  1  0
  9  4  1  0
 29 14  1  0
 32  4  1  0
 31  6  1  0
 28 19  1  0
  1 33  1  0
  1 34  1  0
  5 35  1  0
  5 36  1  0
  6 37  1  0
  7 38  1  0
  7 39  1  0
  8 40  1  0
  9 41  1  0
  9 42  1  0
 10 43  1  6
 15 44  1  0
 15 45  1  0
 16 46  1  0
 16 47  1  0
 17 48  1  1
 18 49  1  0
 20 50  1  0
 21 51  1  0
 27 52  1  0
 29 53  1  0
 29 54  1  0
 30 55  1  0
 31 56  1  0
 31 57  1  0
 32 58  1  0
 32 59  1  0
M  END
$$$$
