
     RDKit          3D

 83 86  0  0  0  0  0  0  0  0999 V2000
    3.1144   -1.3368    3.1566 C   0  0  0  0  0  0  0  0  0  0  0  0
    4.1034   -0.2583    2.9882 C   0  0  0  0  0  0  0  0  0  0  0  0
    5.5014   -0.9087    2.9863 C   0  0  0  0  0  0  0  0  0  0  0  0
    3.9496    0.6969    1.8664 C   0  0  0  0  0  0  0  0  0  0  0  0
    3.9587    0.1855    0.4828 C   0  0  2  0  0  0  0  0  0  0  0  0
    3.8257    1.2969   -0.4481 N   0  0  0  0  0  0  0  0  0  0  0  0
    4.0945    0.9113   -1.7977 C   0  0  0  0  0  0  0  0  0  0  0  0
    5.5161    0.5465   -2.0951 C   0  0  0  0  0  0  0  0  0  0  0  0
    6.4488    1.7031   -1.8079 C   0  0  0  0  0  0  0  0  0  0  0  0
    7.8061    1.3249   -2.1113 N   0  0  0  0  0  0  0  0  0  0  0  0
    3.0628   -0.9357    0.1611 C   0  0  0  0  0  0  0  0  0  0  0  0
    3.6080   -2.2025    0.1395 C   0  0  0  0  0  0  0  0  0  0  0  0
    2.9017   -3.3458   -0.1346 C   0  0  0  0  0  0  0  0  0  0  0  0
    1.5522   -3.2538   -0.4117 C   0  0  0  0  0  0  0  0  0  0  0  0
    1.0051   -2.0005   -0.3919 C   0  0  0  0  0  0  0  0  0  0  0  0
   -0.3272   -1.9283   -0.6718 F   0  0  0  0  0  0  0  0  0  0  0  0
    1.7204   -0.8259   -0.1130 C   0  0  0  0  0  0  0  0  0  0  0  0
    1.0322    0.3819   -0.1613 N   0  0  0  0  0  0  0  0  0  0  0  0
    0.7970    1.1770   -1.3606 C   0  0  0  0  0  0  0  0  0  0  0  0
   -0.6977    1.2330   -1.6501 C   0  0  0  0  0  0  0  0  0  0  0  0
   -1.4836    0.9811   -0.4617 N   0  0  0  0  0  0  0  0  0  0  0  0
   -2.7453    0.3010   -0.6304 C   0  0  0  0  0  0  0  0  0  0  0  0
   -3.0707   -0.0663   -1.7979 O   0  0  0  0  0  0  0  0  0  0  0  0
   -3.6520    0.0132    0.4709 C   0  0  1  0  0  0  0  0  0  0  0  0
   -4.6270    1.1168    0.8284 C   0  0  0  0  0  0  0  0  0  0  0  0
   -5.5726    1.5134   -0.2012 C   0  0  0  0  0  0  0  0  0  0  0  0
   -6.8469    0.9713   -0.1952 C   0  0  0  0  0  0  0  0  0  0  0  0
   -7.7300    1.3160   -1.1839 C   0  0  0  0  0  0  0  0  0  0  0  0
   -7.4018    2.1886   -2.1951 C   0  0  0  0  0  0  0  0  0  0  0  0
   -8.5739    2.6060   -3.4561 Cl  0  0  0  0  0  0  0  0  0  0  0  0
   -6.1360    2.7335   -2.2087 C   0  0  0  0  0  0  0  0  0  0  0  0
   -5.2325    2.3787   -1.1931 C   0  0  0  0  0  0  0  0  0  0  0  0
   -3.6793    3.1993   -1.3096 Cl  0  0  0  0  0  0  0  0  0  0  0  0
   -4.4202   -1.2283    0.2325 N   0  0  0  0  0  0  0  0  0  0  0  0
   -4.3930   -2.3881    1.1321 C   0  0  0  0  0  0  0  0  0  0  0  0
   -5.8842   -2.7227    1.1862 C   0  0  0  0  0  0  0  0  0  0  0  0
   -6.3010   -2.5346   -0.2729 C   0  0  0  0  0  0  0  0  0  0  0  0
   -5.2945   -1.5730   -0.8117 C   0  0  0  0  0  0  0  0  0  0  0  0
   -5.3040   -1.1977   -1.9898 O   0  0  0  0  0  0  0  0  0  0  0  0
   -0.9794    1.3981    0.8064 C   0  0  0  0  0  0  0  0  0  0  0  0
    0.4585    0.9618    1.0355 C   0  0  0  0  0  0  0  0  0  0  0  0
    2.1543   -1.2477    2.6562 H   0  0  0  0  0  0  0  0  0  0  0  0
    2.8438   -1.3759    4.2649 H   0  0  0  0  0  0  0  0  0  0  0  0
    3.6001   -2.3300    3.0031 H   0  0  0  0  0  0  0  0  0  0  0  0
    4.1408    0.3754    3.9397 H   0  0  0  0  0  0  0  0  0  0  0  0
    5.8592   -1.0241    4.0199 H   0  0  0  0  0  0  0  0  0  0  0  0
    5.4121   -1.9472    2.5896 H   0  0  0  0  0  0  0  0  0  0  0  0
    6.1865   -0.3721    2.3242 H   0  0  0  0  0  0  0  0  0  0  0  0
    3.1517    1.4754    2.0749 H   0  0  0  0  0  0  0  0  0  0  0  0
    4.8850    1.3590    1.9318 H   0  0  0  0  0  0  0  0  0  0  0  0
    5.0151   -0.1651    0.2865 H   0  0  0  0  0  0  0  0  0  0  0  0
    4.4234    2.0854   -0.1767 H   0  0  0  0  0  0  0  0  0  0  0  0
    3.4802    0.0488   -2.1376 H   0  0  0  0  0  0  0  0  0  0  0  0
    3.8174    1.7624   -2.4510 H   0  0  0  0  0  0  0  0  0  0  0  0
    5.5513    0.3562   -3.2103 H   0  0  0  0  0  0  0  0  0  0  0  0
    5.7928   -0.3824   -1.5833 H   0  0  0  0  0  0  0  0  0  0  0  0
    6.3599    1.9872   -0.7200 H   0  0  0  0  0  0  0  0  0  0  0  0
    6.1714    2.5797   -2.3972 H   0  0  0  0  0  0  0  0  0  0  0  0
    8.3812    1.1832   -1.2665 H   0  0  0  0  0  0  0  0  0  0  0  0
    8.2098    2.0157   -2.7615 H   0  0  0  0  0  0  0  0  0  0  0  0
    4.6633   -2.3267    0.3490 H   0  0  0  0  0  0  0  0  0  0  0  0
    3.3458   -4.3422   -0.1489 H   0  0  0  0  0  0  0  0  0  0  0  0
    0.9595   -4.1467   -0.6370 H   0  0  0  0  0  0  0  0  0  0  0  0
    1.2610    0.7963   -2.2632 H   0  0  0  0  0  0  0  0  0  0  0  0
    1.1453    2.2115   -1.0993 H   0  0  0  0  0  0  0  0  0  0  0  0
   -0.9183    0.4212   -2.3702 H   0  0  0  0  0  0  0  0  0  0  0  0
   -0.9613    2.1793   -2.1282 H   0  0  0  0  0  0  0  0  0  0  0  0
   -3.1044   -0.1788    1.4215 H   0  0  0  0  0  0  0  0  0  0  0  0
   -4.0277    2.0049    1.1658 H   0  0  0  0  0  0  0  0  0  0  0  0
   -5.1840    0.7817    1.7261 H   0  0  0  0  0  0  0  0  0  0  0  0
   -7.1644    0.2746    0.5787 H   0  0  0  0  0  0  0  0  0  0  0  0
   -8.7546    0.8822   -1.1813 H   0  0  0  0  0  0  0  0  0  0  0  0
   -5.8760    3.4223   -3.0016 H   0  0  0  0  0  0  0  0  0  0  0  0
   -4.0092   -2.1233    2.1327 H   0  0  0  0  0  0  0  0  0  0  0  0
   -3.8728   -3.1940    0.6233 H   0  0  0  0  0  0  0  0  0  0  0  0
   -6.0866   -3.7230    1.5645 H   0  0  0  0  0  0  0  0  0  0  0  0
   -6.3665   -1.9288    1.8225 H   0  0  0  0  0  0  0  0  0  0  0  0
   -7.3240   -2.0913   -0.2692 H   0  0  0  0  0  0  0  0  0  0  0  0
   -6.2426   -3.5143   -0.7568 H   0  0  0  0  0  0  0  0  0  0  0  0
   -1.0891    2.5024    0.8602 H   0  0  0  0  0  0  0  0  0  0  0  0
   -1.5443    1.0102    1.6716 H   0  0  0  0  0  0  0  0  0  0  0  0
    0.5887    0.3596    1.9470 H   0  0  0  0  0  0  0  0  0  0  0  0
    1.0224    1.9105    1.1955 H   0  0  0  0  0  0  0  0  0  0  0  0
  1  2  1  0
  2  3  1  0
  2  4  1  0
  4  5  1  0
  5  6  1  0
  6  7  1  0
  7  8  1  0
  8  9  1  0
  9 10  1  0
  5 11  1  0
 11 12  2  0
 12 13  1  0
 13 14  2  0
 14 15  1  0
 15 16  1  0
 15 17  2  0
 17 18  1  0
 18 19  1  0
 19 20  1  0
 20 21  1  0
 21 22  1  0
 22 23  2  0
 22 24  1  0
 24 25  1  0
 25 26  1  0
 26 27  2  0
 27 28  1  0
 28 29  2  0
 29 30  1  0
 29 31  1  0
 31 32  2  0
 32 33  1  0
 24 34  1  0
 34 35  1  0
 35 36  1  0
 36 37  1  0
 37 38  1  0
 38 39  2  0
 21 40  1  0
 40 41  1  0
 17 11  1  0
 41 18  1  0
 32 26  1  0
 38 34  1  0
  1 42  1  0
  1 43  1  0
  1 44  1  0
  2 45  1  0
  3 46  1  0
  3 47  1  0
  3 48  1  0
  4 49  1  0
  4 50  1  0
  5 51  1  6
  6 52  1  0
  7 53  1  0
  7 54  1  0
  8 55  1  0
  8 56  1  0
  9 57  1  0
  9 58  1  0
 10 59  1  0
 10 60  1  0
 12 61  1  0
 13 62  1  0
 14 63  1  0
 19 64  1  0
 19 65  1  0
 20 66  1  0
 20 67  1  0
 24 68  1  1
 25 69  1  0
 25 70  1  0
 27 71  1  0
 28 72  1  0
 31 73  1  0
 35 74  1  0
 35 75  1  0
 36 76  1  0
 36 77  1  0
 37 78  1  0
 37 79  1  0
 40 80  1  0
 40 81  1  0
 41 82  1  0
 41 83  1  0
M  END
$$$$
