
     RDKit          3D

 32 34  0  0  0  0  0  0  0  0999 V2000
   -1.8727   -2.4918   -1.8089 O   0  0  0  0  0  0  0  0  0  0  0  0
   -1.4635   -1.5194   -1.1418 C   0  0  0  0  0  0  0  0  0  0  0  0
   -0.1141   -1.2442   -1.0067 C   0  0  0  0  0  0  0  0  0  0  0  0
    0.7484   -2.1039   -1.6499 O   0  0  0  0  0  0  0  0  0  0  0  0
    0.3022   -0.1753   -0.2719 C   0  0  0  0  0  0  0  0  0  0  0  0
    1.7246    0.1835   -0.0811 C   0  0  0  0  0  0  0  0  0  0  0  0
    1.9656    1.3129    0.7037 C   0  0  0  0  0  0  0  0  0  0  0  0
    3.2510    1.7323    0.9431 C   0  0  0  0  0  0  0  0  0  0  0  0
    4.3267    1.0249    0.3980 C   0  0  0  0  0  0  0  0  0  0  0  0
    5.6355    1.4246    0.6226 O   0  0  0  0  0  0  0  0  0  0  0  0
    4.0793   -0.0853   -0.3730 C   0  0  0  0  0  0  0  0  0  0  0  0
    5.1365   -0.7896   -0.9150 O   0  0  0  0  0  0  0  0  0  0  0  0
    2.7728   -0.5096   -0.6149 C   0  0  0  0  0  0  0  0  0  0  0  0
   -0.6031    0.5770    0.2974 O   0  0  0  0  0  0  0  0  0  0  0  0
   -1.8805    0.3839    0.2171 C   0  0  0  0  0  0  0  0  0  0  0  0
   -2.7930    1.2152    0.8424 C   0  0  0  0  0  0  0  0  0  0  0  0
   -4.1268    0.9628    0.7227 C   0  0  0  0  0  0  0  0  0  0  0  0
   -5.0074    1.8263    1.3693 O   0  0  0  0  0  0  0  0  0  0  0  0
   -4.5891   -0.1086   -0.0118 C   0  0  0  0  0  0  0  0  0  0  0  0
   -3.7004   -0.9458   -0.6403 C   0  0  0  0  0  0  0  0  0  0  0  0
   -4.1102   -2.0307   -1.3867 O   0  0  0  0  0  0  0  0  0  0  0  0
   -2.3592   -0.6922   -0.5201 C   0  0  0  0  0  0  0  0  0  0  0  0
    0.9188   -3.0527   -1.3808 H   0  0  0  0  0  0  0  0  0  0  0  0
    1.1267    1.8810    1.1403 H   0  0  0  0  0  0  0  0  0  0  0  0
    3.4706    2.6009    1.5452 H   0  0  0  0  0  0  0  0  0  0  0  0
    6.3824    0.7318    0.6243 H   0  0  0  0  0  0  0  0  0  0  0  0
    5.7655   -0.3475   -1.5859 H   0  0  0  0  0  0  0  0  0  0  0  0
    2.6364   -1.3725   -1.2166 H   0  0  0  0  0  0  0  0  0  0  0  0
   -2.4170    2.0622    1.4227 H   0  0  0  0  0  0  0  0  0  0  0  0
   -5.2544    2.7375    1.0095 H   0  0  0  0  0  0  0  0  0  0  0  0
   -5.6626   -0.2519   -0.0661 H   0  0  0  0  0  0  0  0  0  0  0  0
   -4.2892   -2.9359   -0.9497 H   0  0  0  0  0  0  0  0  0  0  0  0
  1  2  2  0
  2  3  1  0
  3  4  1  0
  3  5  2  0
  5  6  1  0
  6  7  2  0
  7  8  1  0
  8  9  2  0
  9 10  1  0
  9 11  1  0
 11 12  1  0
 11 13  2  0
  5 14  1  0
 14 15  1  0
 15 16  2  0
 16 17  1  0
 17 18  1  0
 17 19  2  0
 19 20  1  0
 20 21  1  0
 20 22  2  0
 22  2  1  0
 13  6  1  0
 22 15  1  0
  4 23  1  0
  7 24  1  0
  8 25  1  0
 10 26  1  0
 12 27  1  0
 13 28  1  0
 16 29  1  0
 18 30  1  0
 19 31  1  0
 21 32  1  0
M  END
$$$$
