
     RDKit          3D

 46 47  0  0  0  0  0  0  0  0999 V2000
   -5.1346    0.8810   -1.2701 C   0  0  0  0  0  0  0  0  0  0  0  0
   -4.1081    0.0009   -0.7271 N   0  0  0  0  0  0  0  0  0  0  0  0
   -4.7735   -1.0497   -0.0388 C   0  0  0  0  0  0  0  0  0  0  0  0
   -3.1043    0.7214   -0.0071 C   0  0  0  0  0  0  0  0  0  0  0  0
   -2.4736    1.7374   -0.9952 C   0  0  0  0  0  0  0  0  0  0  0  0
   -3.6553    1.5120    1.1297 C   0  0  0  0  0  0  0  0  0  0  0  0
   -2.0189   -0.2051    0.4604 C   0  0  0  0  0  0  0  0  0  0  0  0
   -0.8226   -0.1899   -0.1173 N   0  0  0  0  0  0  0  0  0  0  0  0
    0.2399   -0.9747    0.2335 C   0  0  0  0  0  0  0  0  0  0  0  0
    1.4950   -0.8365   -0.5015 C   0  0  0  0  0  0  0  0  0  0  0  0
    1.5080    0.0630   -1.4011 O   0  0  0  0  0  0  0  0  0  0  0  0
    2.6640   -1.5795   -0.3216 N   0  0  0  0  0  0  0  0  0  0  0  0
    3.8992   -1.4058   -1.0770 C   0  0  0  0  0  0  0  0  0  0  0  0
    4.6890   -0.2375   -0.6175 C   0  0  0  0  0  0  0  0  0  0  0  0
    4.5463    0.9693   -1.2546 C   0  0  0  0  0  0  0  0  0  0  0  0
    5.2548    2.0831   -0.8514 C   0  0  0  0  0  0  0  0  0  0  0  0
    6.1205    1.9978    0.2022 C   0  0  0  0  0  0  0  0  0  0  0  0
    6.8302    3.0825    0.6175 F   0  0  0  0  0  0  0  0  0  0  0  0
    6.2694    0.7862    0.8478 C   0  0  0  0  0  0  0  0  0  0  0  0
    5.5627   -0.3155    0.4425 C   0  0  0  0  0  0  0  0  0  0  0  0
    0.0381   -1.8469    1.2724 C   0  0  0  0  0  0  0  0  0  0  0  0
    1.0482   -2.6924    1.7140 O   0  0  0  0  0  0  0  0  0  0  0  0
   -1.2021   -1.8790    1.8897 C   0  0  0  0  0  0  0  0  0  0  0  0
   -1.3946   -2.6795    2.8469 O   0  0  0  0  0  0  0  0  0  0  0  0
   -2.1950   -1.0647    1.4744 N   0  0  0  0  0  0  0  0  0  0  0  0
   -5.8252    1.2372   -0.4802 H   0  0  0  0  0  0  0  0  0  0  0  0
   -5.7614    0.2331   -1.9493 H   0  0  0  0  0  0  0  0  0  0  0  0
   -4.7230    1.6755   -1.9047 H   0  0  0  0  0  0  0  0  0  0  0  0
   -5.2113   -0.7018    0.9115 H   0  0  0  0  0  0  0  0  0  0  0  0
   -4.1885   -1.9937    0.0548 H   0  0  0  0  0  0  0  0  0  0  0  0
   -5.6568   -1.3555   -0.6721 H   0  0  0  0  0  0  0  0  0  0  0  0
   -2.2937    1.2651   -1.9636 H   0  0  0  0  0  0  0  0  0  0  0  0
   -1.5028    2.0535   -0.5681 H   0  0  0  0  0  0  0  0  0  0  0  0
   -3.1431    2.6010   -1.0020 H   0  0  0  0  0  0  0  0  0  0  0  0
   -4.4087    0.9800    1.7312 H   0  0  0  0  0  0  0  0  0  0  0  0
   -4.0740    2.4662    0.6959 H   0  0  0  0  0  0  0  0  0  0  0  0
   -2.8102    1.7612    1.8277 H   0  0  0  0  0  0  0  0  0  0  0  0
    2.6793   -2.3160    0.3963 H   0  0  0  0  0  0  0  0  0  0  0  0
    3.6603   -1.3105   -2.1564 H   0  0  0  0  0  0  0  0  0  0  0  0
    4.5201   -2.3070   -0.9560 H   0  0  0  0  0  0  0  0  0  0  0  0
    3.8830    1.0975   -2.1023 H   0  0  0  0  0  0  0  0  0  0  0  0
    5.1169    3.0195   -1.3769 H   0  0  0  0  0  0  0  0  0  0  0  0
    6.9719    0.7501    1.6896 H   0  0  0  0  0  0  0  0  0  0  0  0
    5.6929   -1.2509    0.9585 H   0  0  0  0  0  0  0  0  0  0  0  0
    0.9226   -3.6951    1.7639 H   0  0  0  0  0  0  0  0  0  0  0  0
   -3.1311   -1.0874    1.9562 H   0  0  0  0  0  0  0  0  0  0  0  0
  1  2  1  0
  2  3  1  0
  2  4  1  0
  4  5  1  0
  4  6  1  0
  4  7  1  0
  7  8  2  0
  8  9  1  0
  9 10  1  0
 10 11  2  0
 10 12  1  0
 12 13  1  0
 13 14  1  0
 14 15  2  0
 15 16  1  0
 16 17  2  0
 17 18  1  0
 17 19  1  0
 19 20  2  0
  9 21  2  0
 21 22  1  0
 21 23  1  0
 23 24  2  0
 23 25  1  0
 25  7  1  0
 20 14  1  0
  1 26  1  0
  1 27  1  0
  1 28  1  0
  3 29  1  0
  3 30  1  0
  3 31  1  0
  5 32  1  0
  5 33  1  0
  5 34  1  0
  6 35  1  0
  6 36  1  0
  6 37  1  0
 12 38  1  0
 13 39  1  0
 13 40  1  0
 15 41  1  0
 16 42  1  0
 19 43  1  0
 20 44  1  0
 22 45  1  0
 25 46  1  0
M  END
$$$$
