
     RDKit          3D

 52 55  0  0  0  0  0  0  0  0999 V2000
    1.5568    3.0471   -3.1244 N   0  0  0  0  0  0  0  0  0  0  0  0
    1.5554    1.7458   -2.5693 C   0  0  0  0  0  0  0  0  0  0  0  0
    2.5172    0.9832   -2.8098 O   0  0  0  0  0  0  0  0  0  0  0  0
    0.4413    1.2828   -1.7171 C   0  0  0  0  0  0  0  0  0  0  0  0
   -0.6613    2.0668   -1.5923 N   0  0  0  0  0  0  0  0  0  0  0  0
   -1.7229    1.7181   -0.9032 N   0  0  0  0  0  0  0  0  0  0  0  0
   -1.8235    0.5322   -0.2439 C   0  0  0  0  0  0  0  0  0  0  0  0
   -3.0026    0.2337    0.4937 N   0  0  0  0  0  0  0  0  0  0  0  0
   -3.2853   -0.9703    1.1951 C   0  0  2  0  0  0  0  0  0  0  0  0
   -3.5067   -2.0934    0.2064 C   0  0  0  0  0  0  0  0  0  0  0  0
   -4.4556   -1.5117   -0.8498 C   0  0  0  0  0  0  0  0  0  0  0  0
   -5.8035   -1.2704   -0.2107 C   0  0  0  0  0  0  0  0  0  0  0  0
   -5.7382   -0.4792    1.0538 C   0  0  0  0  0  0  0  0  0  0  0  0
   -4.5994   -0.8537    1.9618 C   0  0  2  0  0  0  0  0  0  0  0  0
   -4.4113    0.1483    2.9718 N   0  0  0  0  0  0  0  0  0  0  0  0
   -0.7280   -0.2807   -0.3483 C   0  0  0  0  0  0  0  0  0  0  0  0
    0.4190    0.0731   -1.0799 C   0  0  0  0  0  0  0  0  0  0  0  0
    1.5164   -0.8219   -1.1484 N   0  0  0  0  0  0  0  0  0  0  0  0
    2.8052   -0.5946   -0.6164 C   0  0  0  0  0  0  0  0  0  0  0  0
    3.8023   -1.5195   -0.8437 C   0  0  0  0  0  0  0  0  0  0  0  0
    5.0755   -1.3794   -0.3411 C   0  0  0  0  0  0  0  0  0  0  0  0
    5.3522   -0.2653    0.4187 C   0  0  0  0  0  0  0  0  0  0  0  0
    4.3704    0.6699    0.6572 C   0  0  0  0  0  0  0  0  0  0  0  0
    3.1467    0.4671    0.1332 N   0  0  0  0  0  0  0  0  0  0  0  0
    4.9412    1.7768    1.5081 C   0  0  0  0  0  0  0  0  0  0  0  0
    6.4257    1.6049    1.3242 C   0  0  0  0  0  0  0  0  0  0  0  0
    6.6170    0.1393    1.0787 C   0  0  0  0  0  0  0  0  0  0  0  0
    0.6622    3.5473   -3.2707 H   0  0  0  0  0  0  0  0  0  0  0  0
    2.4477    3.5076   -3.3872 H   0  0  0  0  0  0  0  0  0  0  0  0
   -3.7677    0.9826    0.5348 H   0  0  0  0  0  0  0  0  0  0  0  0
   -2.5117   -1.2360    1.9507 H   0  0  0  0  0  0  0  0  0  0  0  0
   -4.1377   -2.9011    0.6949 H   0  0  0  0  0  0  0  0  0  0  0  0
   -2.6194   -2.5146   -0.2422 H   0  0  0  0  0  0  0  0  0  0  0  0
   -4.0410   -0.6283   -1.3332 H   0  0  0  0  0  0  0  0  0  0  0  0
   -4.5898   -2.2991   -1.6183 H   0  0  0  0  0  0  0  0  0  0  0  0
   -6.3819   -0.6470   -0.9522 H   0  0  0  0  0  0  0  0  0  0  0  0
   -6.3338   -2.2186   -0.0451 H   0  0  0  0  0  0  0  0  0  0  0  0
   -6.6821   -0.6962    1.6271 H   0  0  0  0  0  0  0  0  0  0  0  0
   -5.7882    0.6317    0.8682 H   0  0  0  0  0  0  0  0  0  0  0  0
   -4.8554   -1.8005    2.4556 H   0  0  0  0  0  0  0  0  0  0  0  0
   -5.1596    0.0772    3.6717 H   0  0  0  0  0  0  0  0  0  0  0  0
   -4.4287    1.1182    2.5805 H   0  0  0  0  0  0  0  0  0  0  0  0
   -0.7340   -1.2223    0.1553 H   0  0  0  0  0  0  0  0  0  0  0  0
    1.3337   -1.7211   -1.6393 H   0  0  0  0  0  0  0  0  0  0  0  0
    3.5934   -2.3892   -1.4341 H   0  0  0  0  0  0  0  0  0  0  0  0
    5.8497   -2.1305   -0.5374 H   0  0  0  0  0  0  0  0  0  0  0  0
    4.6036    1.7263    2.5450 H   0  0  0  0  0  0  0  0  0  0  0  0
    4.6805    2.7659    1.0509 H   0  0  0  0  0  0  0  0  0  0  0  0
    6.7895    2.1817    0.4268 H   0  0  0  0  0  0  0  0  0  0  0  0
    6.9963    1.9351    2.2223 H   0  0  0  0  0  0  0  0  0  0  0  0
    7.5052   -0.0717    0.4209 H   0  0  0  0  0  0  0  0  0  0  0  0
    6.7655   -0.4466    2.0151 H   0  0  0  0  0  0  0  0  0  0  0  0
  1  2  1  0
  2  3  2  0
  2  4  1  0
  4  5  2  0
  5  6  1  0
  6  7  2  0
  7  8  1  0
  8  9  1  0
  9 10  1  0
 10 11  1  0
 11 12  1  0
 12 13  1  0
 13 14  1  0
 14 15  1  0
  7 16  1  0
 16 17  2  0
 17 18  1  0
 18 19  1  0
 19 20  2  0
 20 21  1  0
 21 22  2  0
 22 23  1  0
 23 24  2  0
 23 25  1  0
 25 26  1  0
 26 27  1  0
 17  4  1  0
 24 19  1  0
 14  9  1  0
 27 22  1  0
  1 28  1  0
  1 29  1  0
  8 30  1  0
  9 31  1  1
 10 32  1  0
 10 33  1  0
 11 34  1  0
 11 35  1  0
 12 36  1  0
 12 37  1  0
 13 38  1  0
 13 39  1  0
 14 40  1  1
 15 41  1  0
 15 42  1  0
 16 43  1  0
 18 44  1  0
 20 45  1  0
 21 46  1  0
 25 47  1  0
 25 48  1  0
 26 49  1  0
 26 50  1  0
 27 51  1  0
 27 52  1  0
M  END
$$$$
