
     RDKit          3D

 56 58  0  0  0  0  0  0  0  0999 V2000
    5.6841    2.7782   -1.3785 C   0  0  0  0  0  0  0  0  0  0  0  0
    4.5591    1.9281   -1.2710 O   0  0  0  0  0  0  0  0  0  0  0  0
    3.6054    2.1520   -0.2789 C   0  0  0  0  0  0  0  0  0  0  0  0
    3.7104    3.1869    0.6228 C   0  0  0  0  0  0  0  0  0  0  0  0
    2.7628    3.4017    1.6016 C   0  0  0  0  0  0  0  0  0  0  0  0
    1.6795    2.5751    1.6977 C   0  0  0  0  0  0  0  0  0  0  0  0
    1.5340    1.5188    0.8088 C   0  0  0  0  0  0  0  0  0  0  0  0
    0.3562    0.6694    0.9475 C   0  0  0  0  0  0  0  0  0  0  0  0
   -0.9282    1.2056    1.1085 C   0  0  0  0  0  0  0  0  0  0  0  0
   -1.8052    0.1784    1.2324 C   0  0  0  0  0  0  0  0  0  0  0  0
   -3.2704    0.3654    1.4222 C   0  0  0  0  0  0  0  0  0  0  0  0
   -3.8748    0.4202    0.1898 O   0  0  0  0  0  0  0  0  0  0  0  0
   -5.2289    0.5943    0.2730 C   0  0  0  0  0  0  0  0  0  0  0  0
   -5.8821   -0.4912    1.0916 C   0  0  0  0  0  0  0  0  0  0  0  0
   -5.8701    0.4494   -1.1320 C   0  0  0  0  0  0  0  0  0  0  0  0
   -5.5610    1.9548    0.6957 C   0  0  0  0  0  0  0  0  0  0  0  0
   -4.6603    2.7957    0.8774 O   0  0  0  0  0  0  0  0  0  0  0  0
   -6.8761    2.3742    0.9135 O   0  0  0  0  0  0  0  0  0  0  0  0
   -1.0909   -0.9490    1.1511 N   0  0  0  0  0  0  0  0  0  0  0  0
    0.2116   -0.6579    0.9793 N   0  0  0  0  0  0  0  0  0  0  0  0
    1.2472   -1.6596    0.8479 C   0  0  0  0  0  0  0  0  0  0  0  0
    1.4667   -2.1315   -0.5223 C   0  0  0  0  0  0  0  0  0  0  0  0
    0.6942   -1.6755   -1.5972 C   0  0  0  0  0  0  0  0  0  0  0  0
    0.9047   -2.1276   -2.8831 C   0  0  0  0  0  0  0  0  0  0  0  0
    1.9124   -3.0532   -3.0739 C   0  0  0  0  0  0  0  0  0  0  0  0
    2.6971   -3.5297   -2.0464 C   0  0  0  0  0  0  0  0  0  0  0  0
    2.4614   -3.0569   -0.7683 C   0  0  0  0  0  0  0  0  0  0  0  0
    3.2285   -3.5042    0.3248 O   0  0  0  0  0  0  0  0  0  0  0  0
    4.2435   -4.4467    0.0814 C   0  0  0  0  0  0  0  0  0  0  0  0
    2.4911    1.3280   -0.1553 C   0  0  0  0  0  0  0  0  0  0  0  0
    6.2763    2.8199   -0.4423 H   0  0  0  0  0  0  0  0  0  0  0  0
    5.2727    3.8160   -1.5304 H   0  0  0  0  0  0  0  0  0  0  0  0
    6.3005    2.5331   -2.2486 H   0  0  0  0  0  0  0  0  0  0  0  0
    4.5726    3.8290    0.5314 H   0  0  0  0  0  0  0  0  0  0  0  0
    2.8745    4.2292    2.2996 H   0  0  0  0  0  0  0  0  0  0  0  0
    0.9246    2.7516    2.4825 H   0  0  0  0  0  0  0  0  0  0  0  0
   -1.1774    2.2734    1.1302 H   0  0  0  0  0  0  0  0  0  0  0  0
   -3.4329    1.2780    2.0139 H   0  0  0  0  0  0  0  0  0  0  0  0
   -3.6805   -0.4646    2.0597 H   0  0  0  0  0  0  0  0  0  0  0  0
   -5.7246   -0.3919    2.1665 H   0  0  0  0  0  0  0  0  0  0  0  0
   -5.4478   -1.4560    0.7503 H   0  0  0  0  0  0  0  0  0  0  0  0
   -6.9780   -0.5103    0.8907 H   0  0  0  0  0  0  0  0  0  0  0  0
   -5.7102    1.3740   -1.7134 H   0  0  0  0  0  0  0  0  0  0  0  0
   -5.4145   -0.4377   -1.5688 H   0  0  0  0  0  0  0  0  0  0  0  0
   -6.9584    0.3667   -0.9334 H   0  0  0  0  0  0  0  0  0  0  0  0
   -7.0050    3.0890    1.6445 H   0  0  0  0  0  0  0  0  0  0  0  0
    2.1651   -1.2319    1.3161 H   0  0  0  0  0  0  0  0  0  0  0  0
    0.9577   -2.5079    1.5228 H   0  0  0  0  0  0  0  0  0  0  0  0
   -0.0773   -0.9497   -1.3664 H   0  0  0  0  0  0  0  0  0  0  0  0
    0.2871   -1.7524   -3.6927 H   0  0  0  0  0  0  0  0  0  0  0  0
    2.0851   -3.4154   -4.0879 H   0  0  0  0  0  0  0  0  0  0  0  0
    3.4821   -4.2528   -2.2044 H   0  0  0  0  0  0  0  0  0  0  0  0
    4.8373   -4.5317    1.0329 H   0  0  0  0  0  0  0  0  0  0  0  0
    3.8328   -5.4423   -0.1775 H   0  0  0  0  0  0  0  0  0  0  0  0
    4.9141   -4.1321   -0.7596 H   0  0  0  0  0  0  0  0  0  0  0  0
    2.4224    0.5237   -0.8757 H   0  0  0  0  0  0  0  0  0  0  0  0
  1  2  1  0
  2  3  1  0
  3  4  2  0
  4  5  1  0
  5  6  2  0
  6  7  1  0
  7  8  1  0
  8  9  2  0
  9 10  1  0
 10 11  1  0
 11 12  1  0
 12 13  1  0
 13 14  1  0
 13 15  1  0
 13 16  1  0
 16 17  2  0
 16 18  1  0
 10 19  2  0
 19 20  1  0
 20 21  1  0
 21 22  1  0
 22 23  2  0
 23 24  1  0
 24 25  2  0
 25 26  1  0
 26 27  2  0
 27 28  1  0
 28 29  1  0
  7 30  2  0
 30  3  1  0
 20  8  1  0
 27 22  1  0
  1 31  1  0
  1 32  1  0
  1 33  1  0
  4 34  1  0
  5 35  1  0
  6 36  1  0
  9 37  1  0
 11 38  1  0
 11 39  1  0
 14 40  1  0
 14 41  1  0
 14 42  1  0
 15 43  1  0
 15 44  1  0
 15 45  1  0
 18 46  1  0
 21 47  1  0
 21 48  1  0
 23 49  1  0
 24 50  1  0
 25 51  1  0
 26 52  1  0
 29 53  1  0
 29 54  1  0
 29 55  1  0
 30 56  1  0
M  END
$$$$
