
     RDKit          3D

 42 43  0  0  0  0  0  0  0  0999 V2000
    1.3475   -0.5905    1.9978 C   0  0  0  0  0  0  0  0  0  0  0  0
    1.1245   -0.6668    0.5008 C   0  0  2  0  0  0  0  0  0  0  0  0
    1.8030   -1.7650    0.0145 O   0  0  0  0  0  0  0  0  0  0  0  0
    1.5892    0.6002   -0.1203 C   0  0  0  0  0  0  0  0  0  0  0  0
    2.8871    0.9118    0.0682 O   0  0  0  0  0  0  0  0  0  0  0  0
    4.1152    0.4915   -0.1789 C   0  0  0  0  0  0  0  0  0  0  0  0
    4.7291   -0.5436   -0.8078 C   0  0  0  0  0  0  0  0  0  0  0  0
    6.0828   -0.7610   -0.9262 C   0  0  0  0  0  0  0  0  0  0  0  0
    6.8908    0.1863   -0.3362 C   0  0  0  0  0  0  0  0  0  0  0  0
    8.2270   -0.0246   -0.4511 F   0  0  0  0  0  0  0  0  0  0  0  0
    6.3841    1.2884    0.3343 C   0  0  0  0  0  0  0  0  0  0  0  0
    4.9900    1.4283    0.4052 C   0  0  0  0  0  0  0  0  0  0  0  0
   -0.3300   -0.9371    0.2036 C   0  0  0  0  0  0  0  0  0  0  0  0
   -0.7432   -1.9835   -0.3783 O   0  0  0  0  0  0  0  0  0  0  0  0
   -1.2189    0.0952    0.6362 N   0  0  0  0  0  0  0  0  0  0  0  0
   -2.6241    0.0066    0.4373 C   0  0  0  0  0  0  0  0  0  0  0  0
   -3.1654    0.5250   -0.7403 C   0  0  0  0  0  0  0  0  0  0  0  0
   -4.5426    0.4455   -0.9505 C   0  0  0  0  0  0  0  0  0  0  0  0
   -5.3056   -0.1503    0.0319 C   0  0  0  0  0  0  0  0  0  0  0  0
   -4.8148   -0.6658    1.1901 C   0  0  0  0  0  0  0  0  0  0  0  0
   -3.4539   -0.5748    1.3733 C   0  0  0  0  0  0  0  0  0  0  0  0
   -6.7290   -0.2593   -0.1349 N   0  0  0  0  0  4  0  0  0  0  0  0
   -7.7487    0.3950   -0.7809 O   0  0  0  0  0  1  0  0  0  0  0  0
   -7.3962   -1.1822    0.4136 O   0  0  0  0  0  0  0  0  0  0  0  0
   -5.1292    0.9954   -2.2019 C   0  0  0  0  0  0  0  0  0  0  0  0
   -4.1144    1.5243   -2.9888 F   0  0  0  0  0  0  0  0  0  0  0  0
   -6.0533    1.9923   -1.9095 F   0  0  0  0  0  0  0  0  0  0  0  0
   -5.7646    0.0149   -2.9102 F   0  0  0  0  0  0  0  0  0  0  0  0
    1.4188    0.4947    2.2907 H   0  0  0  0  0  0  0  0  0  0  0  0
    0.5451   -1.1147    2.5213 H   0  0  0  0  0  0  0  0  0  0  0  0
    2.3178   -1.0811    2.2082 H   0  0  0  0  0  0  0  0  0  0  0  0
    1.9857   -2.4574    0.7019 H   0  0  0  0  0  0  0  0  0  0  0  0
    1.2410    0.6608   -1.1959 H   0  0  0  0  0  0  0  0  0  0  0  0
    0.9650    1.4269    0.3620 H   0  0  0  0  0  0  0  0  0  0  0  0
    4.0590   -1.2341   -1.2535 H   0  0  0  0  0  0  0  0  0  0  0  0
    6.4214   -1.6229   -1.4511 H   0  0  0  0  0  0  0  0  0  0  0  0
    7.1371    1.9408    0.7425 H   0  0  0  0  0  0  0  0  0  0  0  0
    4.7865    2.3500    0.9684 H   0  0  0  0  0  0  0  0  0  0  0  0
   -0.8985    0.9637    1.1169 H   0  0  0  0  0  0  0  0  0  0  0  0
   -2.5564    0.9907   -1.5051 H   0  0  0  0  0  0  0  0  0  0  0  0
   -5.4392   -1.1317    1.9510 H   0  0  0  0  0  0  0  0  0  0  0  0
   -3.0200   -0.9816    2.2997 H   0  0  0  0  0  0  0  0  0  0  0  0
  1  2  1  0
  2  3  1  6
  2  4  1  0
  4  5  1  0
  5  6  1  0
  6  7  2  0
  7  8  1  0
  8  9  2  0
  9 10  1  0
  9 11  1  0
 11 12  2  0
  2 13  1  0
 13 14  2  0
 13 15  1  0
 15 16  1  0
 16 17  2  0
 17 18  1  0
 18 19  2  0
 19 20  1  0
 20 21  2  0
 19 22  1  0
 22 23  1  0
 22 24  2  0
 18 25  1  0
 25 26  1  0
 25 27  1  0
 25 28  1  0
 12  6  1  0
 21 16  1  0
  1 29  1  0
  1 30  1  0
  1 31  1  0
  3 32  1  0
  4 33  1  0
  4 34  1  0
  7 35  1  0
  8 36  1  0
 11 37  1  0
 12 38  1  0
 15 39  1  0
 17 40  1  0
 20 41  1  0
 21 42  1  0
M  CHG  2  22   1  23  -1
M  END
$$$$
