
     RDKit          3D

 45 48  0  0  0  0  0  0  0  0999 V2000
   -1.0124   -3.2432    0.1700 C   0  0  0  0  0  0  0  0  0  0  0  0
   -0.2495   -1.9958   -0.1089 C   0  0  2  0  0  0  0  0  0  0  0  0
    0.7979   -1.8459    1.0082 C   0  0  0  0  0  0  0  0  0  0  0  0
    1.6463   -0.7004    0.6435 C   0  0  0  0  0  0  0  0  0  0  0  0
    0.9528    0.4585    0.3507 C   0  0  0  0  0  0  0  0  0  0  0  0
    1.8350    1.4053    0.0458 N   0  0  0  0  0  0  0  0  0  0  0  0
    3.0837    0.8847    0.1351 C   0  0  0  0  0  0  0  0  0  0  0  0
    4.3478    1.3905   -0.0654 C   0  0  0  0  0  0  0  0  0  0  0  0
    5.4868    0.6225    0.0956 C   0  0  0  0  0  0  0  0  0  0  0  0
    5.3595   -0.7074    0.4724 C   0  0  0  0  0  0  0  0  0  0  0  0
    4.1244   -1.2349    0.6785 C   0  0  0  0  0  0  0  0  0  0  0  0
    2.9860   -0.4441    0.5113 C   0  0  0  0  0  0  0  0  0  0  0  0
   -0.5219    0.3117    0.4552 C   0  0  1  0  0  0  0  0  0  0  0  0
   -1.2251    1.5451    0.0397 C   0  0  0  0  0  0  0  0  0  0  0  0
   -1.8974    2.3085    0.9618 C   0  0  0  0  0  0  0  0  0  0  0  0
   -2.5676    3.4758    0.5935 C   0  0  0  0  0  0  0  0  0  0  0  0
   -2.5509    3.8677   -0.7269 C   0  0  0  0  0  0  0  0  0  0  0  0
   -3.3944    5.3407   -1.2208 Cl  0  0  0  0  0  0  0  0  0  0  0  0
   -1.8768    3.1072   -1.6723 C   0  0  0  0  0  0  0  0  0  0  0  0
   -1.2252    1.9587   -1.2719 C   0  0  0  0  0  0  0  0  0  0  0  0
   -0.9608   -0.8181   -0.4179 N   0  0  0  0  0  0  0  0  0  0  0  0
   -2.3803   -0.8343   -0.3501 C   0  0  0  0  0  0  0  0  0  0  0  0
   -3.1164   -1.6750   -1.3453 C   0  0  0  0  0  0  0  0  0  0  0  0
   -4.5051   -1.5328   -1.0694 O   0  0  0  0  0  0  0  0  0  0  0  0
   -1.0346   -3.9378   -0.7203 H   0  0  0  0  0  0  0  0  0  0  0  0
   -0.4055   -3.8720    0.9109 H   0  0  0  0  0  0  0  0  0  0  0  0
   -1.9773   -3.1441    0.6490 H   0  0  0  0  0  0  0  0  0  0  0  0
    0.3898   -2.2248   -1.0166 H   0  0  0  0  0  0  0  0  0  0  0  0
    1.3970   -2.7780    1.0125 H   0  0  0  0  0  0  0  0  0  0  0  0
    0.3021   -1.7217    1.9869 H   0  0  0  0  0  0  0  0  0  0  0  0
    1.5983    2.3736   -0.2131 H   0  0  0  0  0  0  0  0  0  0  0  0
    4.4341    2.4290   -0.3596 H   0  0  0  0  0  0  0  0  0  0  0  0
    6.4892    1.0026   -0.0613 H   0  0  0  0  0  0  0  0  0  0  0  0
    6.2199   -1.3500    0.6079 H   0  0  0  0  0  0  0  0  0  0  0  0
    3.9376   -2.2740    0.9788 H   0  0  0  0  0  0  0  0  0  0  0  0
   -0.7630    0.0046    1.4762 H   0  0  0  0  0  0  0  0  0  0  0  0
   -1.8965    1.9767    2.0016 H   0  0  0  0  0  0  0  0  0  0  0  0
   -3.0877    4.0497    1.3549 H   0  0  0  0  0  0  0  0  0  0  0  0
   -1.8684    3.4268   -2.7259 H   0  0  0  0  0  0  0  0  0  0  0  0
   -0.6910    1.3435   -1.9736 H   0  0  0  0  0  0  0  0  0  0  0  0
   -2.7601   -1.0039    0.6999 H   0  0  0  0  0  0  0  0  0  0  0  0
   -2.7327    0.2217   -0.5488 H   0  0  0  0  0  0  0  0  0  0  0  0
   -2.8291   -2.6984   -1.4734 H   0  0  0  0  0  0  0  0  0  0  0  0
   -3.0430   -1.2139   -2.3867 H   0  0  0  0  0  0  0  0  0  0  0  0
   -4.8156   -2.2545   -0.4863 H   0  0  0  0  0  0  0  0  0  0  0  0
  1  2  1  0
  2  3  1  0
  3  4  1  0
  4  5  2  0
  5  6  1  0
  6  7  1  0
  7  8  2  0
  8  9  1  0
  9 10  2  0
 10 11  1  0
 11 12  2  0
  5 13  1  0
 13 14  1  0
 14 15  2  0
 15 16  1  0
 16 17  2  0
 17 18  1  0
 17 19  1  0
 19 20  2  0
 13 21  1  0
 21 22  1  0
 22 23  1  0
 23 24  1  0
 21  2  1  0
 12  4  1  0
 20 14  1  0
 12  7  1  0
  1 25  1  0
  1 26  1  0
  1 27  1  0
  2 28  1  6
  3 29  1  0
  3 30  1  0
  6 31  1  0
  8 32  1  0
  9 33  1  0
 10 34  1  0
 11 35  1  0
 13 36  1  1
 15 37  1  0
 16 38  1  0
 19 39  1  0
 20 40  1  0
 22 41  1  0
 22 42  1  0
 23 43  1  0
 23 44  1  0
 24 45  1  0
M  END
$$$$
