
     RDKit          3D

 57 61  0  0  0  0  0  0  0  0999 V2000
    4.3994    1.7270    0.8836 C   0  0  0  0  0  0  0  0  0  0  0  0
    3.2523    0.8688    0.6429 N   0  0  0  0  0  0  0  0  0  0  0  0
    2.0124    1.2715    0.9923 C   0  0  0  0  0  0  0  0  0  0  0  0
    1.9013    2.3981    1.5244 O   0  0  0  0  0  0  0  0  0  0  0  0
    0.8961    0.4782    0.7763 C   0  0  0  0  0  0  0  0  0  0  0  0
    1.0342   -0.7551    0.1912 C   0  0  0  0  0  0  0  0  0  0  0  0
   -0.1744   -1.3052    0.1028 N   0  0  0  0  0  0  0  0  0  0  0  0
   -1.1073   -0.4515    0.6228 C   0  0  0  0  0  0  0  0  0  0  0  0
   -2.5016   -0.6760    0.7290 N   0  0  0  0  0  0  0  0  0  0  0  0
   -3.5506    0.0494    0.0973 C   0  0  0  0  0  0  0  0  0  0  0  0
   -4.2145   -0.8801   -0.9011 C   0  0  0  0  0  0  0  0  0  0  0  0
   -4.5234   -2.2245   -0.3483 C   0  0  0  0  0  0  0  0  0  0  0  0
   -3.4656   -2.8179    0.5296 C   0  0  1  0  0  0  0  0  0  0  0  0
   -2.3194   -3.2893   -0.2251 N   0  0  0  0  0  0  0  0  0  0  0  0
   -2.9801   -1.8031    1.5714 C   0  0  0  0  0  0  0  0  0  0  0  0
   -0.4325    0.6208    1.0223 N   0  0  0  0  0  0  0  0  0  0  0  0
   -0.9790    1.8085    1.6212 C   0  0  0  0  0  0  0  0  0  0  0  0
   -1.2622    2.7892    0.5600 C   0  0  0  0  0  0  0  0  0  0  0  0
   -0.9936    2.5918   -0.7665 C   0  0  0  0  0  0  0  0  0  0  0  0
   -1.2655    3.5295   -1.7270 C   0  0  0  0  0  0  0  0  0  0  0  0
   -1.0085    3.3569   -3.0402 F   0  0  0  0  0  0  0  0  0  0  0  0
   -1.8428    4.7396   -1.3305 C   0  0  0  0  0  0  0  0  0  0  0  0
   -2.1190    4.9557   -0.0031 C   0  0  0  0  0  0  0  0  0  0  0  0
   -1.8353    3.9966    0.9379 C   0  0  0  0  0  0  0  0  0  0  0  0
   -2.2027    4.3124    2.6194 Cl  0  0  0  0  0  0  0  0  0  0  0  0
    2.2976   -1.1722   -0.1679 C   0  0  0  0  0  0  0  0  0  0  0  0
    2.5170   -2.3952   -0.7551 C   0  0  0  0  0  0  0  0  0  0  0  0
    3.7736   -2.8261   -1.1153 C   0  0  0  0  0  0  0  0  0  0  0  0
    4.8759   -2.0120   -0.8869 C   0  0  0  0  0  0  0  0  0  0  0  0
    6.2099   -2.4681   -1.2591 C   0  0  0  0  0  0  0  0  0  0  0  0
    7.1873   -1.7184   -1.0596 O   0  0  0  0  0  0  0  0  0  0  0  0
    6.4142   -3.7136   -1.8287 O   0  0  0  0  0  0  0  0  0  0  0  0
    4.6475   -0.7913   -0.2995 C   0  0  0  0  0  0  0  0  0  0  0  0
    3.3930   -0.3366    0.0706 C   0  0  0  0  0  0  0  0  0  0  0  0
    4.9003    1.9385   -0.0864 H   0  0  0  0  0  0  0  0  0  0  0  0
    5.1079    1.2677    1.5910 H   0  0  0  0  0  0  0  0  0  0  0  0
    4.0370    2.7233    1.2579 H   0  0  0  0  0  0  0  0  0  0  0  0
   -3.3123    0.9869   -0.3786 H   0  0  0  0  0  0  0  0  0  0  0  0
   -4.3481    0.2324    0.8812 H   0  0  0  0  0  0  0  0  0  0  0  0
   -3.6500   -0.8777   -1.8559 H   0  0  0  0  0  0  0  0  0  0  0  0
   -5.1958   -0.3717   -1.1451 H   0  0  0  0  0  0  0  0  0  0  0  0
   -5.4957   -2.2096    0.1851 H   0  0  0  0  0  0  0  0  0  0  0  0
   -4.6269   -2.9255   -1.2265 H   0  0  0  0  0  0  0  0  0  0  0  0
   -3.8989   -3.6661    1.0896 H   0  0  0  0  0  0  0  0  0  0  0  0
   -2.2747   -2.7892   -1.1558 H   0  0  0  0  0  0  0  0  0  0  0  0
   -2.4325   -4.3099   -0.4254 H   0  0  0  0  0  0  0  0  0  0  0  0
   -3.8070   -1.4256    2.1623 H   0  0  0  0  0  0  0  0  0  0  0  0
   -2.1312   -2.2285    2.1322 H   0  0  0  0  0  0  0  0  0  0  0  0
   -0.2676    2.2195    2.3455 H   0  0  0  0  0  0  0  0  0  0  0  0
   -1.9295    1.5870    2.1617 H   0  0  0  0  0  0  0  0  0  0  0  0
   -0.5459    1.6570   -1.0817 H   0  0  0  0  0  0  0  0  0  0  0  0
   -2.0706    5.5008   -2.0621 H   0  0  0  0  0  0  0  0  0  0  0  0
   -2.5639    5.8901    0.2980 H   0  0  0  0  0  0  0  0  0  0  0  0
    1.6618   -3.0515   -0.9416 H   0  0  0  0  0  0  0  0  0  0  0  0
    3.9556   -3.8024   -1.5857 H   0  0  0  0  0  0  0  0  0  0  0  0
    7.3782   -4.0844   -1.8412 H   0  0  0  0  0  0  0  0  0  0  0  0
    5.4761   -0.1195   -0.0992 H   0  0  0  0  0  0  0  0  0  0  0  0
  1  2  1  0
  2  3  1  0
  3  4  2  0
  3  5  1  0
  5  6  2  0
  6  7  1  0
  7  8  2  0
  8  9  1  0
  9 10  1  0
 10 11  1  0
 11 12  1  0
 12 13  1  0
 13 14  1  0
 13 15  1  0
  8 16  1  0
 16 17  1  0
 17 18  1  0
 18 19  2  0
 19 20  1  0
 20 21  1  0
 20 22  2  0
 22 23  1  0
 23 24  2  0
 24 25  1  0
  6 26  1  0
 26 27  2  0
 27 28  1  0
 28 29  2  0
 29 30  1  0
 30 31  2  0
 30 32  1  0
 29 33  1  0
 33 34  2  0
 34  2  1  0
 16  5  1  0
 24 18  1  0
 34 26  1  0
 15  9  1  0
  1 35  1  0
  1 36  1  0
  1 37  1  0
 10 38  1  0
 10 39  1  0
 11 40  1  0
 11 41  1  0
 12 42  1  0
 12 43  1  0
 13 44  1  1
 14 45  1  0
 14 46  1  0
 15 47  1  0
 15 48  1  0
 17 49  1  0
 17 50  1  0
 19 51  1  0
 22 52  1  0
 23 53  1  0
 27 54  1  0
 28 55  1  0
 32 56  1  0
 33 57  1  0
M  END
$$$$
