
     RDKit          3D

 49 53  0  0  0  0  0  0  0  0999 V2000
   -4.1519    2.9518    3.0019 N   0  0  0  0  0  0  0  0  0  0  0  0
   -3.6881    3.0522    1.9459 C   0  0  0  0  0  0  0  0  0  0  0  0
   -3.1225    3.1993    0.6286 C   0  0  0  0  0  0  0  0  0  0  0  0
   -3.4187    4.2385   -0.2232 C   0  0  0  0  0  0  0  0  0  0  0  0
   -2.7076    4.0265   -1.3309 N   0  0  0  0  0  0  0  0  0  0  0  0
   -1.9687    2.8907   -1.2181 C   0  0  0  0  0  0  0  0  0  0  0  0
   -1.0870    2.2400   -2.0563 C   0  0  0  0  0  0  0  0  0  0  0  0
   -0.5073    1.0781   -1.5936 C   0  0  0  0  0  0  0  0  0  0  0  0
   -0.7957    0.5796   -0.3371 C   0  0  0  0  0  0  0  0  0  0  0  0
   -0.1637   -0.6677    0.1413 C   0  0  0  0  0  0  0  0  0  0  0  0
   -0.8293   -1.8109    0.4811 C   0  0  0  0  0  0  0  0  0  0  0  0
   -2.2628   -2.0345    0.4440 C   0  0  0  0  0  0  0  0  0  0  0  0
   -2.9069   -1.9663   -0.7704 C   0  0  0  0  0  0  0  0  0  0  0  0
   -4.2714   -2.1777   -0.8158 C   0  0  0  0  0  0  0  0  0  0  0  0
   -5.0016   -2.4521    0.3058 C   0  0  0  0  0  0  0  0  0  0  0  0
   -6.3569   -2.6590    0.2377 F   0  0  0  0  0  0  0  0  0  0  0  0
   -4.3636   -2.5224    1.5279 C   0  0  0  0  0  0  0  0  0  0  0  0
   -2.9897   -2.3106    1.5807 C   0  0  0  0  0  0  0  0  0  0  0  0
    0.1108   -2.7221    0.8689 N   0  0  0  0  0  0  0  0  0  0  0  0
    1.3161   -2.1326    0.7621 C   0  0  0  0  0  0  0  0  0  0  0  0
    1.1558   -0.8687    0.3151 N   0  0  0  0  0  0  0  0  0  0  0  0
    2.2269    0.0768    0.0758 C   0  0  0  0  0  0  0  0  0  0  0  0
    3.1061    0.2602    1.2821 C   0  0  0  0  0  0  0  0  0  0  0  0
    4.4374   -0.4491    1.1529 C   0  0  0  0  0  0  0  0  0  0  0  0
    5.1937    0.2320    0.0347 C   0  0  0  0  0  0  0  0  0  0  0  0
    4.3239    0.5222   -1.1534 C   0  0  0  0  0  0  0  0  0  0  0  0
    3.0463   -0.2980   -1.1386 C   0  0  0  0  0  0  0  0  0  0  0  0
    3.3996   -1.6268   -1.1697 O   0  0  0  0  0  0  0  0  0  0  0  0
   -1.6639    1.2635    0.4286 N   0  0  0  0  0  0  0  0  0  0  0  0
   -2.2372    2.3824    0.0126 N   0  0  0  0  0  0  0  0  0  0  0  0
   -4.0962    5.0872   -0.0606 H   0  0  0  0  0  0  0  0  0  0  0  0
   -0.8647    2.6344   -3.0385 H   0  0  0  0  0  0  0  0  0  0  0  0
    0.1980    0.5375   -2.2358 H   0  0  0  0  0  0  0  0  0  0  0  0
   -2.3461   -1.7490   -1.6786 H   0  0  0  0  0  0  0  0  0  0  0  0
   -4.7484   -2.1174   -1.7838 H   0  0  0  0  0  0  0  0  0  0  0  0
   -4.9727   -2.7413    2.3923 H   0  0  0  0  0  0  0  0  0  0  0  0
   -2.5105   -2.3703    2.5481 H   0  0  0  0  0  0  0  0  0  0  0  0
    2.2280   -2.6629    1.0167 H   0  0  0  0  0  0  0  0  0  0  0  0
    1.7683    1.0640   -0.1431 H   0  0  0  0  0  0  0  0  0  0  0  0
    2.5636   -0.0801    2.1843 H   0  0  0  0  0  0  0  0  0  0  0  0
    3.3370    1.3320    1.4425 H   0  0  0  0  0  0  0  0  0  0  0  0
    4.9741   -0.2887    2.1136 H   0  0  0  0  0  0  0  0  0  0  0  0
    4.3440   -1.5329    1.0202 H   0  0  0  0  0  0  0  0  0  0  0  0
    5.5646    1.2025    0.4240 H   0  0  0  0  0  0  0  0  0  0  0  0
    6.0938   -0.3505   -0.2462 H   0  0  0  0  0  0  0  0  0  0  0  0
    4.8904    0.2772   -2.0644 H   0  0  0  0  0  0  0  0  0  0  0  0
    4.0328    1.6051   -1.1803 H   0  0  0  0  0  0  0  0  0  0  0  0
    2.5160   -0.0672   -2.0857 H   0  0  0  0  0  0  0  0  0  0  0  0
    3.2057   -2.0752   -2.0453 H   0  0  0  0  0  0  0  0  0  0  0  0
  1  2  3  0
  2  3  1  0
  3  4  2  0
  4  5  1  0
  5  6  2  0
  6  7  1  0
  7  8  2  0
  8  9  1  0
  9 10  1  0
 10 11  2  0
 11 12  1  0
 12 13  2  0
 13 14  1  0
 14 15  2  0
 15 16  1  0
 15 17  1  0
 17 18  2  0
 11 19  1  0
 19 20  2  0
 20 21  1  0
 21 22  1  0
 22 23  1  0
 23 24  1  0
 24 25  1  0
 25 26  1  0
 26 27  1  0
 27 28  1  0
  9 29  2  0
 29 30  1  0
 30  3  1  0
 30  6  1  0
 21 10  1  0
 27 22  1  0
 18 12  1  0
  4 31  1  0
  7 32  1  0
  8 33  1  0
 13 34  1  0
 14 35  1  0
 17 36  1  0
 18 37  1  0
 20 38  1  0
 22 39  1  0
 23 40  1  0
 23 41  1  0
 24 42  1  0
 24 43  1  0
 25 44  1  0
 25 45  1  0
 26 46  1  0
 26 47  1  0
 27 48  1  0
 28 49  1  0
M  END
$$$$
