
     RDKit          3D

 47 49  0  0  0  0  0  0  0  0999 V2000
   -4.8058    1.9938    1.3826 C   0  0  0  0  0  0  0  0  0  0  0  0
   -4.1767    2.2411    0.2189 O   0  0  0  0  0  0  0  0  0  0  0  0
   -4.3765    1.3887   -0.7949 C   0  0  0  0  0  0  0  0  0  0  0  0
   -3.9980   -0.0373   -0.6605 C   0  0  2  0  0  0  0  0  0  0  0  0
   -4.7366   -0.8996    0.2673 C   0  0  0  0  0  0  0  0  0  0  0  0
   -3.7602   -1.5626    1.1767 C   0  0  0  0  0  0  0  0  0  0  0  0
   -2.4250   -1.1436    0.6641 C   0  0  0  0  0  0  0  0  0  0  0  0
   -2.6120   -0.1512   -0.3380 N   0  0  0  0  0  0  0  0  0  0  0  0
   -1.7153   -0.4261   -1.7641 S   0  0  0  0  0  6  0  0  0  0  0  0
   -2.1085   -1.7170   -2.4249 O   0  0  0  0  0  0  0  0  0  0  0  0
   -1.9924    0.6918   -2.7265 O   0  0  0  0  0  0  0  0  0  0  0  0
   -0.0154   -0.4104   -1.3646 C   0  0  0  0  0  0  0  0  0  0  0  0
    0.6681    0.7707   -1.4008 C   0  0  0  0  0  0  0  0  0  0  0  0
    2.0281    0.7827   -1.0823 C   0  0  0  0  0  0  0  0  0  0  0  0
    2.7988    2.3576   -1.1579 Cl  0  0  0  0  0  0  0  0  0  0  0  0
    2.7049   -0.3648   -0.7312 C   0  0  0  0  0  0  0  0  0  0  0  0
    2.0121   -1.5676   -0.6934 C   0  0  0  0  0  0  0  0  0  0  0  0
    0.6748   -1.5497   -1.0115 C   0  0  0  0  0  0  0  0  0  0  0  0
    2.9456   -2.6106   -0.2973 C   0  0  0  0  0  0  0  0  0  0  0  0
    2.6772   -3.8224   -0.1574 O   0  0  0  0  0  0  0  0  0  0  0  0
    4.2389   -1.9995   -0.0938 C   0  0  0  0  0  0  0  0  0  0  0  0
    5.2951   -2.5790    0.2535 O   0  0  0  0  0  0  0  0  0  0  0  0
    4.0503   -0.5934   -0.3746 N   0  0  0  0  0  0  0  0  0  0  0  0
    5.1283    0.3764   -0.2805 C   0  0  0  0  0  0  0  0  0  0  0  0
    5.1367    0.9263    1.1418 C   0  0  0  0  0  0  0  0  0  0  0  0
    6.2288    1.9364    1.3085 C   0  0  0  0  0  0  0  0  0  0  0  0
    7.4603    1.3936    1.0631 F   0  0  0  0  0  0  0  0  0  0  0  0
   -4.5465    2.8463    2.0846 H   0  0  0  0  0  0  0  0  0  0  0  0
   -4.3345    1.1101    1.8874 H   0  0  0  0  0  0  0  0  0  0  0  0
   -5.8855    1.8197    1.3662 H   0  0  0  0  0  0  0  0  0  0  0  0
   -3.7555    1.7810   -1.6732 H   0  0  0  0  0  0  0  0  0  0  0  0
   -5.4280    1.4927   -1.2265 H   0  0  0  0  0  0  0  0  0  0  0  0
   -4.1512   -0.4646   -1.7243 H   0  0  0  0  0  0  0  0  0  0  0  0
   -5.2027   -1.7547   -0.3397 H   0  0  0  0  0  0  0  0  0  0  0  0
   -5.6265   -0.4626    0.7692 H   0  0  0  0  0  0  0  0  0  0  0  0
   -3.9147   -1.2971    2.2494 H   0  0  0  0  0  0  0  0  0  0  0  0
   -3.8615   -2.6717    1.1475 H   0  0  0  0  0  0  0  0  0  0  0  0
   -1.8818   -0.6500    1.5218 H   0  0  0  0  0  0  0  0  0  0  0  0
   -1.7914   -1.9960    0.3745 H   0  0  0  0  0  0  0  0  0  0  0  0
    0.1394    1.6712   -1.6759 H   0  0  0  0  0  0  0  0  0  0  0  0
    0.1173   -2.4864   -0.9872 H   0  0  0  0  0  0  0  0  0  0  0  0
    6.1033   -0.1472   -0.4536 H   0  0  0  0  0  0  0  0  0  0  0  0
    5.0181    1.2360   -0.9632 H   0  0  0  0  0  0  0  0  0  0  0  0
    4.1516    1.3761    1.3318 H   0  0  0  0  0  0  0  0  0  0  0  0
    5.3155    0.0706    1.8472 H   0  0  0  0  0  0  0  0  0  0  0  0
    6.0086    2.8324    0.6920 H   0  0  0  0  0  0  0  0  0  0  0  0
    6.2003    2.2702    2.3819 H   0  0  0  0  0  0  0  0  0  0  0  0
  1  2  1  0
  2  3  1  0
  3  4  1  0
  4  5  1  0
  5  6  1  0
  6  7  1  0
  7  8  1  0
  8  9  1  0
  9 10  2  0
  9 11  2  0
  9 12  1  0
 12 13  2  0
 13 14  1  0
 14 15  1  0
 14 16  2  0
 16 17  1  0
 17 18  2  0
 17 19  1  0
 19 20  2  0
 19 21  1  0
 21 22  2  0
 21 23  1  0
 23 24  1  0
 24 25  1  0
 25 26  1  0
 26 27  1  0
  8  4  1  0
 18 12  1  0
 23 16  1  0
  1 28  1  0
  1 29  1  0
  1 30  1  0
  3 31  1  0
  3 32  1  0
  4 33  1  6
  5 34  1  0
  5 35  1  0
  6 36  1  0
  6 37  1  0
  7 38  1  0
  7 39  1  0
 13 40  1  0
 18 41  1  0
 24 42  1  0
 24 43  1  0
 25 44  1  0
 25 45  1  0
 26 46  1  0
 26 47  1  0
M  END
$$$$
