
     RDKit          3D

 58 62  0  0  0  0  0  0  0  0999 V2000
    9.1907    0.6441   -0.3809 C   0  0  0  0  0  0  0  0  0  0  0  0
    7.9746    0.8592    0.4494 C   0  0  0  0  0  0  0  0  0  0  0  0
    8.1706    1.6373    1.5618 O   0  0  0  0  0  0  0  0  0  0  0  0
    6.8835    1.5385   -0.3922 C   0  0  0  0  0  0  0  0  0  0  0  0
    5.7778    0.4992   -0.4900 C   0  0  0  0  0  0  0  0  0  0  0  0
    5.9578   -0.3159    0.7313 N   0  0  0  0  0  0  0  0  0  0  0  0
    5.2599   -1.5638    0.4895 C   0  0  0  0  0  0  0  0  0  0  0  0
    3.8300   -1.2534    0.1313 C   0  0  0  0  0  0  0  0  0  0  0  0
    2.8903   -1.0273    1.0992 C   0  0  0  0  0  0  0  0  0  0  0  0
    1.5736   -0.7034    0.7481 C   0  0  0  0  0  0  0  0  0  0  0  0
    1.1697   -0.5992   -0.5578 C   0  0  0  0  0  0  0  0  0  0  0  0
   -0.1088   -0.2784   -0.9556 O   0  0  0  0  0  0  0  0  0  0  0  0
   -1.1291   -0.0677   -0.0427 C   0  0  0  0  0  0  0  0  0  0  0  0
   -1.5390    1.4321    0.0505 C   0  0  0  0  0  0  0  0  0  0  0  0
   -2.8935    0.9663    0.1891 N   0  0  0  0  0  0  0  0  0  0  0  0
   -4.0798    1.3966    0.8210 C   0  0  0  0  0  0  0  0  0  0  0  0
   -4.2199    2.4369    1.5005 O   0  0  0  0  0  0  0  0  0  0  0  0
   -5.2630    0.5196    0.6549 C   0  0  0  0  0  0  0  0  0  0  0  0
   -5.2931   -0.8074    0.8139 N   0  0  0  0  0  0  0  0  0  0  0  0
   -6.5229   -1.2154    0.5803 N   0  0  0  0  0  0  0  0  0  0  0  0
   -7.2941   -0.1590    0.2696 C   0  0  0  0  0  0  0  0  0  0  0  0
   -8.7128   -0.1795   -0.0520 C   0  0  0  0  0  0  0  0  0  0  0  0
   -9.4188   -1.3803   -0.0992 C   0  0  0  0  0  0  0  0  0  0  0  0
  -10.7753   -1.3973   -0.3710 C   0  0  0  0  0  0  0  0  0  0  0  0
  -11.4824   -0.2372   -0.6053 C   0  0  0  0  0  0  0  0  0  0  0  0
  -10.7782    0.9494   -0.5573 C   0  0  0  0  0  0  0  0  0  0  0  0
   -9.4306    0.9688   -0.2873 C   0  0  0  0  0  0  0  0  0  0  0  0
   -6.4826    0.8864    0.3266 O   0  0  0  0  0  0  0  0  0  0  0  0
   -2.5251   -0.1684   -0.6225 C   0  0  0  0  0  0  0  0  0  0  0  0
    2.1393   -0.8350   -1.5404 C   0  0  0  0  0  0  0  0  0  0  0  0
    3.4172   -1.1498   -1.1753 C   0  0  0  0  0  0  0  0  0  0  0  0
    7.3714   -0.5143    0.7858 C   0  0  0  0  0  0  0  0  0  0  0  0
    8.8435    0.5833   -1.4514 H   0  0  0  0  0  0  0  0  0  0  0  0
    9.7262   -0.2660   -0.1129 H   0  0  0  0  0  0  0  0  0  0  0  0
    9.9107    1.4992   -0.2831 H   0  0  0  0  0  0  0  0  0  0  0  0
    8.5901    1.0899    2.2658 H   0  0  0  0  0  0  0  0  0  0  0  0
    7.2694    1.7715   -1.4046 H   0  0  0  0  0  0  0  0  0  0  0  0
    6.4455    2.4007    0.1329 H   0  0  0  0  0  0  0  0  0  0  0  0
    6.0230   -0.1012   -1.3892 H   0  0  0  0  0  0  0  0  0  0  0  0
    4.7776    0.9131   -0.5657 H   0  0  0  0  0  0  0  0  0  0  0  0
    5.3380   -2.2977    1.2892 H   0  0  0  0  0  0  0  0  0  0  0  0
    5.7306   -2.0021   -0.4295 H   0  0  0  0  0  0  0  0  0  0  0  0
    3.1905   -1.1012    2.1320 H   0  0  0  0  0  0  0  0  0  0  0  0
    0.8794   -0.5378    1.5573 H   0  0  0  0  0  0  0  0  0  0  0  0
   -1.0165   -0.4169    0.9901 H   0  0  0  0  0  0  0  0  0  0  0  0
   -1.2753    1.9155   -0.9154 H   0  0  0  0  0  0  0  0  0  0  0  0
   -1.0898    1.9526    0.9135 H   0  0  0  0  0  0  0  0  0  0  0  0
   -8.8529   -2.2812    0.0861 H   0  0  0  0  0  0  0  0  0  0  0  0
  -11.3295   -2.3435   -0.4054 H   0  0  0  0  0  0  0  0  0  0  0  0
  -12.5458   -0.2844   -0.8136 H   0  0  0  0  0  0  0  0  0  0  0  0
  -11.3294    1.8562   -0.7429 H   0  0  0  0  0  0  0  0  0  0  0  0
   -8.8777    1.9233   -0.2524 H   0  0  0  0  0  0  0  0  0  0  0  0
   -3.0531   -1.1112   -0.4371 H   0  0  0  0  0  0  0  0  0  0  0  0
   -2.4804    0.1072   -1.7206 H   0  0  0  0  0  0  0  0  0  0  0  0
    1.8414   -0.7595   -2.5709 H   0  0  0  0  0  0  0  0  0  0  0  0
    4.1583   -1.3412   -1.9708 H   0  0  0  0  0  0  0  0  0  0  0  0
    7.7095   -1.2549    0.0429 H   0  0  0  0  0  0  0  0  0  0  0  0
    7.7593   -0.7954    1.7715 H   0  0  0  0  0  0  0  0  0  0  0  0
  1  2  1  0
  2  3  1  0
  2  4  1  0
  4  5  1  0
  5  6  1  0
  6  7  1  0
  7  8  1  0
  8  9  2  0
  9 10  1  0
 10 11  2  0
 11 12  1  0
 12 13  1  0
 13 14  1  0
 14 15  1  0
 15 16  1  0
 16 17  2  0
 16 18  1  0
 18 19  2  0
 19 20  1  0
 20 21  2  0
 21 22  1  0
 22 23  2  0
 23 24  1  0
 24 25  2  0
 25 26  1  0
 26 27  2  0
 21 28  1  0
 15 29  1  0
 11 30  1  0
 30 31  2  0
  6 32  1  0
 32  2  1  0
 31  8  1  0
 29 13  1  0
 28 18  1  0
 27 22  1  0
  1 33  1  0
  1 34  1  0
  1 35  1  0
  3 36  1  0
  4 37  1  0
  4 38  1  0
  5 39  1  0
  5 40  1  0
  7 41  1  0
  7 42  1  0
  9 43  1  0
 10 44  1  0
 13 45  1  0
 14 46  1  0
 14 47  1  0
 23 48  1  0
 24 49  1  0
 25 50  1  0
 26 51  1  0
 27 52  1  0
 29 53  1  0
 29 54  1  0
 30 55  1  0
 31 56  1  0
 32 57  1  0
 32 58  1  0
M  END
$$$$
