
     RDKit          3D

 51 55  0  0  0  0  0  0  0  0999 V2000
   -2.4421   -1.5431    2.7959 C   0  0  0  0  0  0  0  0  0  0  0  0
   -1.6206   -1.5190    1.6422 O   0  0  0  0  0  0  0  0  0  0  0  0
   -1.9480   -0.7184    0.5659 C   0  0  0  0  0  0  0  0  0  0  0  0
   -3.0720    0.0680    0.5905 C   0  0  0  0  0  0  0  0  0  0  0  0
   -3.4419    0.8809   -0.4518 C   0  0  0  0  0  0  0  0  0  0  0  0
   -4.6502    1.6776   -0.3235 C   0  0  0  0  0  0  0  0  0  0  0  0
   -5.8001    1.0594    0.1672 C   0  0  0  0  0  0  0  0  0  0  0  0
   -6.9784    1.7575    0.3152 C   0  0  0  0  0  0  0  0  0  0  0  0
   -7.0516    3.0873   -0.0181 C   0  0  0  0  0  0  0  0  0  0  0  0
   -5.9034    3.6919   -0.5046 C   0  0  0  0  0  0  0  0  0  0  0  0
   -5.9567    5.0102   -0.8400 F   0  0  0  0  0  0  0  0  0  0  0  0
   -4.7223    2.9994   -0.6550 C   0  0  0  0  0  0  0  0  0  0  0  0
   -2.6358    0.8927   -1.5616 C   0  0  0  0  0  0  0  0  0  0  0  0
   -3.0818    1.9142   -2.9013 Cl  0  0  0  0  0  0  0  0  0  0  0  0
   -1.4805    0.1099   -1.6355 C   0  0  0  0  0  0  0  0  0  0  0  0
   -1.1533   -0.6910   -0.5577 C   0  0  0  0  0  0  0  0  0  0  0  0
    0.0494   -1.5523   -0.5892 C   0  0  0  0  0  0  0  0  0  0  0  0
   -0.1167   -2.8856   -0.4133 N   0  0  0  0  0  0  0  0  0  0  0  0
    0.9241   -3.7361   -0.4269 C   0  0  0  0  0  0  0  0  0  0  0  0
    2.1770   -3.1965   -0.6281 C   0  0  0  0  0  0  0  0  0  0  0  0
    2.3829   -1.8447   -0.8101 C   0  0  0  0  0  0  0  0  0  0  0  0
    3.6640   -1.3238   -1.0061 C   0  0  0  0  0  0  0  0  0  0  0  0
    3.8899    0.0226   -1.1829 C   0  0  0  0  0  0  0  0  0  0  0  0
    5.5162    0.6647   -1.4245 S   0  0  0  0  0  6  0  0  0  0  0  0
    6.3274   -0.4314   -2.0880 O   0  0  0  0  0  0  0  0  0  0  0  0
    5.4606    1.8282   -2.3754 O   0  0  0  0  0  0  0  0  0  0  0  0
    6.2077    1.1063    0.0827 N   0  0  0  0  0  0  0  0  0  0  0  0
    6.4279    0.1531    1.1046 C   0  0  0  0  0  0  0  0  0  0  0  0
    6.1481   -1.1548    1.0538 N   0  0  0  0  0  0  0  0  0  0  0  0
    6.5000   -1.7089    2.2093 C   0  0  0  0  0  0  0  0  0  0  0  0
    6.9852   -0.7636    2.9538 O   0  0  0  0  0  0  0  0  0  0  0  0
    6.9573    0.3623    2.3249 N   0  0  0  0  0  0  0  0  0  0  0  0
    2.7861    0.8489   -1.1586 C   0  0  0  0  0  0  0  0  0  0  0  0
    1.5014    0.3465   -0.9646 C   0  0  0  0  0  0  0  0  0  0  0  0
    1.2940   -0.9998   -0.7904 C   0  0  0  0  0  0  0  0  0  0  0  0
   -3.3718   -2.0974    2.6248 H   0  0  0  0  0  0  0  0  0  0  0  0
   -2.6258   -0.4869    3.1220 H   0  0  0  0  0  0  0  0  0  0  0  0
   -1.9345   -2.0207    3.6567 H   0  0  0  0  0  0  0  0  0  0  0  0
   -3.7028    0.0494    1.4761 H   0  0  0  0  0  0  0  0  0  0  0  0
   -5.7413    0.0028    0.4324 H   0  0  0  0  0  0  0  0  0  0  0  0
   -7.8812    1.2737    0.7001 H   0  0  0  0  0  0  0  0  0  0  0  0
   -7.9625    3.6606    0.0874 H   0  0  0  0  0  0  0  0  0  0  0  0
   -3.8195    3.4795   -1.0376 H   0  0  0  0  0  0  0  0  0  0  0  0
   -0.8714    0.1413   -2.5286 H   0  0  0  0  0  0  0  0  0  0  0  0
    0.7775   -4.8114   -0.2838 H   0  0  0  0  0  0  0  0  0  0  0  0
    3.0373   -3.8472   -0.6459 H   0  0  0  0  0  0  0  0  0  0  0  0
    4.4903   -2.0158   -1.0178 H   0  0  0  0  0  0  0  0  0  0  0  0
    6.4751    2.0929    0.2612 H   0  0  0  0  0  0  0  0  0  0  0  0
    6.3905   -2.7588    2.4570 H   0  0  0  0  0  0  0  0  0  0  0  0
    2.9376    1.9047   -1.2942 H   0  0  0  0  0  0  0  0  0  0  0  0
    0.6589    1.0208   -0.9432 H   0  0  0  0  0  0  0  0  0  0  0  0
  1  2  1  0
  2  3  1  0
  3  4  2  0
  4  5  1  0
  5  6  1  0
  6  7  2  0
  7  8  1  0
  8  9  2  0
  9 10  1  0
 10 11  1  0
 10 12  2  0
  5 13  2  0
 13 14  1  0
 13 15  1  0
 15 16  2  0
 16 17  1  0
 17 18  2  0
 18 19  1  0
 19 20  2  0
 20 21  1  0
 21 22  2  0
 22 23  1  0
 23 24  1  0
 24 25  2  0
 24 26  2  0
 24 27  1  0
 27 28  1  0
 28 29  1  0
 29 30  2  0
 30 31  1  0
 31 32  1  0
 23 33  2  0
 33 34  1  0
 34 35  2  0
 16  3  1  0
 35 17  1  0
 12  6  1  0
 35 21  1  0
 32 28  2  0
  1 36  1  0
  1 37  1  0
  1 38  1  0
  4 39  1  0
  7 40  1  0
  8 41  1  0
  9 42  1  0
 12 43  1  0
 15 44  1  0
 19 45  1  0
 20 46  1  0
 22 47  1  0
 27 48  1  0
 30 49  1  0
 33 50  1  0
 34 51  1  0
M  END
$$$$
