
     RDKit          3D

 49 51  0  0  0  0  0  0  0  0999 V2000
   -3.5038   -0.9638   -1.4424 O   0  0  0  0  0  0  0  0  0  0  0  0
   -3.8598   -0.6024   -0.3025 C   0  0  0  0  0  0  0  0  0  0  0  0
   -2.9695   -0.7931    0.8499 C   0  0  0  0  0  0  0  0  0  0  0  0
   -1.5997   -1.3264    0.5219 C   0  0  0  0  0  0  0  0  0  0  0  0
   -0.8666   -0.3744   -0.3339 C   0  0  0  0  0  0  0  0  0  0  0  0
    0.4463   -0.7319   -0.7533 N   0  0  0  0  0  0  0  0  0  0  0  0
    1.0572    0.2790   -1.5970 C   0  0  0  0  0  0  0  0  0  0  0  0
    2.5661    0.2258   -1.5657 C   0  0  0  0  0  0  0  0  0  0  0  0
    3.0032    0.5344   -0.1500 C   0  0  0  0  0  0  0  0  0  0  0  0
    2.7863    1.9196    0.0233 O   0  0  0  0  0  0  0  0  0  0  0  0
    4.4561    0.2834    0.0406 C   0  0  0  0  0  0  0  0  0  0  0  0
    5.3675    1.3021   -0.1766 C   0  0  0  0  0  0  0  0  0  0  0  0
    6.7265    1.1161   -0.0155 C   0  0  0  0  0  0  0  0  0  0  0  0
    7.2318   -0.1069    0.3727 C   0  0  0  0  0  0  0  0  0  0  0  0
    8.9655   -0.3300    0.5749 Cl  0  0  0  0  0  0  0  0  0  0  0  0
    6.3367   -1.1291    0.5923 C   0  0  0  0  0  0  0  0  0  0  0  0
    4.9621   -0.9366    0.4279 C   0  0  0  0  0  0  0  0  0  0  0  0
    2.1568   -0.2025    0.8382 C   0  0  0  0  0  0  0  0  0  0  0  0
    1.3281   -1.2948    0.1921 C   0  0  0  0  0  0  0  0  0  0  0  0
   -5.1864    0.0096   -0.1818 C   0  0  0  0  0  0  0  0  0  0  0  0
   -6.0108    0.1791   -1.2725 C   0  0  0  0  0  0  0  0  0  0  0  0
   -7.2549    0.7587   -1.1467 C   0  0  0  0  0  0  0  0  0  0  0  0
   -7.7355    1.1970    0.0762 C   0  0  0  0  0  0  0  0  0  0  0  0
   -8.9596    1.7698    0.2050 F   0  0  0  0  0  0  0  0  0  0  0  0
   -6.8974    1.0196    1.1567 C   0  0  0  0  0  0  0  0  0  0  0  0
   -5.6621    0.4455    1.0390 C   0  0  0  0  0  0  0  0  0  0  0  0
   -2.9055    0.1161    1.4941 H   0  0  0  0  0  0  0  0  0  0  0  0
   -3.4279   -1.5701    1.5365 H   0  0  0  0  0  0  0  0  0  0  0  0
   -1.1234   -1.5635    1.4966 H   0  0  0  0  0  0  0  0  0  0  0  0
   -1.7601   -2.3314    0.0392 H   0  0  0  0  0  0  0  0  0  0  0  0
   -1.4459   -0.1376   -1.2380 H   0  0  0  0  0  0  0  0  0  0  0  0
   -0.7460    0.5759    0.2591 H   0  0  0  0  0  0  0  0  0  0  0  0
    0.7811    1.2674   -1.1237 H   0  0  0  0  0  0  0  0  0  0  0  0
    0.6356    0.2965   -2.6056 H   0  0  0  0  0  0  0  0  0  0  0  0
    2.9599   -0.7449   -1.9259 H   0  0  0  0  0  0  0  0  0  0  0  0
    2.9167    1.0417   -2.2457 H   0  0  0  0  0  0  0  0  0  0  0  0
    2.5448    2.0690    0.9667 H   0  0  0  0  0  0  0  0  0  0  0  0
    4.9742    2.2664   -0.4809 H   0  0  0  0  0  0  0  0  0  0  0  0
    7.4497    1.9172   -0.1858 H   0  0  0  0  0  0  0  0  0  0  0  0
    6.7359   -2.0840    0.8959 H   0  0  0  0  0  0  0  0  0  0  0  0
    4.2631   -1.7476    0.6019 H   0  0  0  0  0  0  0  0  0  0  0  0
    1.5182    0.4929    1.4223 H   0  0  0  0  0  0  0  0  0  0  0  0
    2.8229   -0.6939    1.5739 H   0  0  0  0  0  0  0  0  0  0  0  0
    2.0282   -2.0522   -0.2355 H   0  0  0  0  0  0  0  0  0  0  0  0
    0.7708   -1.7934    0.9999 H   0  0  0  0  0  0  0  0  0  0  0  0
   -5.6451   -0.1609   -2.2358 H   0  0  0  0  0  0  0  0  0  0  0  0
   -7.9122    0.8950   -2.0091 H   0  0  0  0  0  0  0  0  0  0  0  0
   -7.2805    1.3664    2.1194 H   0  0  0  0  0  0  0  0  0  0  0  0
   -5.0386    0.3272    1.9211 H   0  0  0  0  0  0  0  0  0  0  0  0
  1  2  2  0
  2  3  1  0
  3  4  1  0
  4  5  1  0
  5  6  1  0
  6  7  1  0
  7  8  1  0
  8  9  1  0
  9 10  1  0
  9 11  1  0
 11 12  2  0
 12 13  1  0
 13 14  2  0
 14 15  1  0
 14 16  1  0
 16 17  2  0
  9 18  1  0
 18 19  1  0
  2 20  1  0
 20 21  2  0
 21 22  1  0
 22 23  2  0
 23 24  1  0
 23 25  1  0
 25 26  2  0
 19  6  1  0
 26 20  1  0
 17 11  1  0
  3 27  1  0
  3 28  1  0
  4 29  1  0
  4 30  1  0
  5 31  1  0
  5 32  1  0
  7 33  1  0
  7 34  1  0
  8 35  1  0
  8 36  1  0
 10 37  1  0
 12 38  1  0
 13 39  1  0
 16 40  1  0
 17 41  1  0
 18 42  1  0
 18 43  1  0
 19 44  1  0
 19 45  1  0
 21 46  1  0
 22 47  1  0
 25 48  1  0
 26 49  1  0
M  END
$$$$
