
     RDKit          3D

 44 47  0  0  0  0  0  0  0  0999 V2000
    6.5194    1.0428    1.6912 C   0  0  0  0  0  0  0  0  0  0  0  0
    5.1265    1.2560    1.5656 O   0  0  0  0  0  0  0  0  0  0  0  0
    4.4031    0.4140    0.7611 C   0  0  0  0  0  0  0  0  0  0  0  0
    4.9902   -0.6222    0.0796 C   0  0  0  0  0  0  0  0  0  0  0  0
    4.2582   -1.4717   -0.7321 C   0  0  0  0  0  0  0  0  0  0  0  0
    2.9053   -1.2870   -0.8710 C   0  0  0  0  0  0  0  0  0  0  0  0
    2.2807   -0.2580   -0.2039 C   0  0  0  0  0  0  0  0  0  0  0  0
    0.8496   -0.0124   -0.3386 C   0  0  0  0  0  0  0  0  0  0  0  0
   -0.0623    0.0233    0.6953 C   0  0  0  0  0  0  0  0  0  0  0  0
   -1.2812    0.2408    0.1805 N   0  0  0  0  0  0  0  0  0  0  0  0
   -2.5328    0.3535    0.8824 C   0  0  0  0  0  0  0  0  0  0  0  0
   -2.6496    1.2879    1.8857 C   0  0  0  0  0  0  0  0  0  0  0  0
   -3.8512    1.3928    2.5562 C   0  0  0  0  0  0  0  0  0  0  0  0
   -4.9076    0.5677    2.2144 C   0  0  0  0  0  0  0  0  0  0  0  0
   -4.8155   -0.3755    1.2137 C   0  0  0  0  0  0  0  0  0  0  0  0
   -5.9660   -1.2469    0.8690 C   0  0  0  0  0  0  0  0  0  0  0  0
   -6.7110   -0.5824   -0.1248 O   0  0  0  0  0  0  0  0  0  0  0  0
   -3.5939   -0.4564    0.5582 C   0  0  0  0  0  0  0  0  0  0  0  0
   -1.2185    0.3529   -1.1649 C   0  0  0  0  0  0  0  0  0  0  0  0
   -2.1483    0.5745   -2.1122 N   0  0  0  0  0  0  0  0  0  0  0  0
   -1.7641    0.6431   -3.3941 C   0  0  0  0  0  0  0  0  0  0  0  0
   -0.4789    0.4956   -3.7413 N   0  0  0  0  0  0  0  0  0  0  0  0
    0.4896    0.2704   -2.8146 C   0  0  0  0  0  0  0  0  0  0  0  0
    1.8427    0.1341   -3.1835 N   0  0  0  0  0  0  0  0  0  0  0  0
    0.1304    0.1927   -1.4868 C   0  0  0  0  0  0  0  0  0  0  0  0
    3.0572    0.5806    0.6091 C   0  0  0  0  0  0  0  0  0  0  0  0
    7.0130    1.2766    0.7299 H   0  0  0  0  0  0  0  0  0  0  0  0
    6.7619   -0.0089    1.9536 H   0  0  0  0  0  0  0  0  0  0  0  0
    6.9043    1.6753    2.5278 H   0  0  0  0  0  0  0  0  0  0  0  0
    6.0543   -0.7607    0.1941 H   0  0  0  0  0  0  0  0  0  0  0  0
    4.7459   -2.2922   -1.2670 H   0  0  0  0  0  0  0  0  0  0  0  0
    2.2928   -1.9430   -1.4882 H   0  0  0  0  0  0  0  0  0  0  0  0
    0.1396   -0.1002    1.7590 H   0  0  0  0  0  0  0  0  0  0  0  0
   -1.8534    1.9505    2.1847 H   0  0  0  0  0  0  0  0  0  0  0  0
   -3.9677    2.1184    3.3473 H   0  0  0  0  0  0  0  0  0  0  0  0
   -5.8406    0.6617    2.7477 H   0  0  0  0  0  0  0  0  0  0  0  0
   -5.5928   -2.1950    0.4482 H   0  0  0  0  0  0  0  0  0  0  0  0
   -6.6145   -1.4577    1.7288 H   0  0  0  0  0  0  0  0  0  0  0  0
   -6.2027    0.1472   -0.5348 H   0  0  0  0  0  0  0  0  0  0  0  0
   -3.4906   -1.1751   -0.2197 H   0  0  0  0  0  0  0  0  0  0  0  0
   -2.4815    0.8215   -4.2051 H   0  0  0  0  0  0  0  0  0  0  0  0
    2.5114    0.8975   -3.0038 H   0  0  0  0  0  0  0  0  0  0  0  0
    2.1643   -0.7351   -3.6358 H   0  0  0  0  0  0  0  0  0  0  0  0
    2.5844    1.3908    1.1390 H   0  0  0  0  0  0  0  0  0  0  0  0
  1  2  1  0
  2  3  1  0
  3  4  2  0
  4  5  1  0
  5  6  2  0
  6  7  1  0
  7  8  1  0
  8  9  2  0
  9 10  1  0
 10 11  1  0
 11 12  2  0
 12 13  1  0
 13 14  2  0
 14 15  1  0
 15 16  1  0
 16 17  1  0
 15 18  2  0
 10 19  1  0
 19 20  2  0
 20 21  1  0
 21 22  2  0
 22 23  1  0
 23 24  1  0
 23 25  2  0
  7 26  2  0
 26  3  1  0
 25  8  1  0
 18 11  1  0
 25 19  1  0
  1 27  1  0
  1 28  1  0
  1 29  1  0
  4 30  1  0
  5 31  1  0
  6 32  1  0
  9 33  1  0
 12 34  1  0
 13 35  1  0
 14 36  1  0
 16 37  1  0
 16 38  1  0
 17 39  1  0
 18 40  1  0
 21 41  1  0
 24 42  1  0
 24 43  1  0
 26 44  1  0
M  END
$$$$
