
     RDKit          3D

 72 75  0  0  0  0  0  0  0  0999 V2000
    3.8587   -1.1771    6.5409 C   0  0  0  0  0  0  0  0  0  0  0  0
    3.6855   -0.6875    5.1372 C   0  0  0  0  0  0  0  0  0  0  0  0
    2.5294   -0.0503    4.7398 C   0  0  0  0  0  0  0  0  0  0  0  0
    2.3653    0.4057    3.4377 C   0  0  0  0  0  0  0  0  0  0  0  0
    1.1241    1.0929    3.0004 C   0  0  0  0  0  0  0  0  0  0  0  0
    3.3541    0.2386    2.4896 C   0  0  0  0  0  0  0  0  0  0  0  0
    3.1679    0.7122    1.1619 N   0  0  0  0  0  0  0  0  0  0  0  0
    2.5994   -0.0526    0.1104 C   0  0  0  0  0  0  0  0  0  0  0  0
    2.2325   -1.2291    0.3595 O   0  0  0  0  0  0  0  0  0  0  0  0
    2.4226    0.4396   -1.2081 N   0  0  0  0  0  0  0  0  0  0  0  0
    1.8538   -0.3312   -2.2532 C   0  0  0  0  0  0  0  0  0  0  0  0
    2.6234   -1.1160   -3.0757 C   0  0  0  0  0  0  0  0  0  0  0  0
    2.0427   -1.8700   -4.1023 C   0  0  0  0  0  0  0  0  0  0  0  0
    2.8166   -2.6647   -4.9361 C   0  0  0  0  0  0  0  0  0  0  0  0
    2.2552   -3.4121   -5.9513 C   0  0  0  0  0  0  0  0  0  0  0  0
    0.8918   -3.3885   -6.1665 C   0  0  0  0  0  0  0  0  0  0  0  0
    0.1119   -2.5960   -5.3364 C   0  0  0  0  0  0  0  0  0  0  0  0
    0.6868   -1.8474   -4.3174 C   0  0  0  0  0  0  0  0  0  0  0  0
   -0.0997   -1.0498   -3.4823 C   0  0  0  0  0  0  0  0  0  0  0  0
    0.4778   -0.3107   -2.4745 C   0  0  0  0  0  0  0  0  0  0  0  0
   -0.3685    0.5110   -1.6207 C   0  0  0  0  0  0  0  0  0  0  0  0
    0.1347    1.2080   -0.6781 O   0  0  0  0  0  0  0  0  0  0  0  0
   -1.7710    0.6082   -1.7525 N   0  0  0  0  0  0  0  0  0  0  0  0
   -2.5823    1.4369   -0.8870 C   0  0  0  0  0  0  0  0  0  0  0  0
   -2.0897    2.8443   -1.0863 C   0  0  0  0  0  0  0  0  0  0  0  0
   -1.1701    3.1341   -1.8745 O   0  0  0  0  0  0  0  0  0  0  0  0
   -2.6744    3.8665   -0.3706 O   0  0  0  0  0  0  0  0  0  0  0  0
   -2.4459    1.1010    0.5486 C   0  0  0  0  0  0  0  0  0  0  0  0
   -3.5827    1.7026    1.3352 C   0  0  0  0  0  0  0  0  0  0  0  0
   -4.5882    0.5827    1.6300 C   0  0  0  0  0  0  0  0  0  0  0  0
   -5.8994    0.8933    0.9066 C   0  0  0  0  0  0  0  0  0  0  0  0
   -5.9936    0.2376   -0.4278 C   0  0  0  0  0  0  0  0  0  0  0  0
   -4.6997    0.1292   -1.1699 C   0  0  0  0  0  0  0  0  0  0  0  0
   -4.0038    1.4229   -1.4163 C   0  0  0  0  0  0  0  0  0  0  0  0
    4.5098   -0.3998    2.8914 C   0  0  0  0  0  0  0  0  0  0  0  0
    5.5867   -0.5916    1.8920 C   0  0  0  0  0  0  0  0  0  0  0  0
    4.6714   -0.8526    4.1866 C   0  0  0  0  0  0  0  0  0  0  0  0
    3.2621   -2.0846    6.7345 H   0  0  0  0  0  0  0  0  0  0  0  0
    4.9149   -1.4127    6.7509 H   0  0  0  0  0  0  0  0  0  0  0  0
    3.5652   -0.3946    7.2805 H   0  0  0  0  0  0  0  0  0  0  0  0
    1.7351    0.0901    5.4805 H   0  0  0  0  0  0  0  0  0  0  0  0
    1.3517    2.1718    2.8602 H   0  0  0  0  0  0  0  0  0  0  0  0
    0.7197    0.6899    2.0580 H   0  0  0  0  0  0  0  0  0  0  0  0
    0.3999    1.0334    3.8425 H   0  0  0  0  0  0  0  0  0  0  0  0
    3.4698    1.6839    0.9517 H   0  0  0  0  0  0  0  0  0  0  0  0
    2.7476    1.4381   -1.3689 H   0  0  0  0  0  0  0  0  0  0  0  0
    3.6986   -1.1784   -2.9596 H   0  0  0  0  0  0  0  0  0  0  0  0
    3.8852   -2.6768   -4.7598 H   0  0  0  0  0  0  0  0  0  0  0  0
    2.8628   -4.0257   -6.5937 H   0  0  0  0  0  0  0  0  0  0  0  0
    0.4026   -3.9598   -6.9530 H   0  0  0  0  0  0  0  0  0  0  0  0
   -0.9557   -2.5655   -5.4904 H   0  0  0  0  0  0  0  0  0  0  0  0
   -1.1520   -1.0758   -3.7028 H   0  0  0  0  0  0  0  0  0  0  0  0
   -2.2471    0.0690   -2.4935 H   0  0  0  0  0  0  0  0  0  0  0  0
   -2.3653    4.8240   -0.3747 H   0  0  0  0  0  0  0  0  0  0  0  0
   -1.5124    1.6134    0.9275 H   0  0  0  0  0  0  0  0  0  0  0  0
   -2.3897    0.0137    0.7610 H   0  0  0  0  0  0  0  0  0  0  0  0
   -4.1123    2.5184    0.8477 H   0  0  0  0  0  0  0  0  0  0  0  0
   -3.2117    2.1323    2.3139 H   0  0  0  0  0  0  0  0  0  0  0  0
   -4.7804    0.5863    2.7187 H   0  0  0  0  0  0  0  0  0  0  0  0
   -4.2155   -0.4029    1.3266 H   0  0  0  0  0  0  0  0  0  0  0  0
   -6.7077    0.4852    1.5511 H   0  0  0  0  0  0  0  0  0  0  0  0
   -6.0740    1.9930    0.8727 H   0  0  0  0  0  0  0  0  0  0  0  0
   -6.7369    0.7640   -1.0310 H   0  0  0  0  0  0  0  0  0  0  0  0
   -6.3516   -0.8180   -0.2509 H   0  0  0  0  0  0  0  0  0  0  0  0
   -4.9513   -0.3648   -2.1551 H   0  0  0  0  0  0  0  0  0  0  0  0
   -4.0034   -0.6117   -0.6864 H   0  0  0  0  0  0  0  0  0  0  0  0
   -4.5591    2.3248   -1.1072 H   0  0  0  0  0  0  0  0  0  0  0  0
   -3.8748    1.5661   -2.5345 H   0  0  0  0  0  0  0  0  0  0  0  0
    5.4737   -1.6298    1.5004 H   0  0  0  0  0  0  0  0  0  0  0  0
    6.6036   -0.4740    2.3647 H   0  0  0  0  0  0  0  0  0  0  0  0
    5.4961    0.0918    1.0354 H   0  0  0  0  0  0  0  0  0  0  0  0
    5.5793   -1.3545    4.5029 H   0  0  0  0  0  0  0  0  0  0  0  0
  1  2  1  0
  2  3  2  0
  3  4  1  0
  4  5  1  0
  4  6  2  0
  6  7  1  0
  7  8  1  0
  8  9  2  0
  8 10  1  0
 10 11  1  0
 11 12  2  0
 12 13  1  0
 13 14  2  0
 14 15  1  0
 15 16  2  0
 16 17  1  0
 17 18  2  0
 18 19  1  0
 19 20  2  0
 20 21  1  0
 21 22  2  0
 21 23  1  0
 23 24  1  0
 24 25  1  0
 25 26  2  0
 25 27  1  0
 24 28  1  0
 28 29  1  0
 29 30  1  0
 30 31  1  0
 31 32  1  0
 32 33  1  0
 33 34  1  0
  6 35  1  0
 35 36  1  0
 35 37  2  0
 37  2  1  0
 20 11  1  0
 34 24  1  0
 18 13  1  0
  1 38  1  0
  1 39  1  0
  1 40  1  0
  3 41  1  0
  5 42  1  0
  5 43  1  0
  5 44  1  0
  7 45  1  0
 10 46  1  0
 12 47  1  0
 14 48  1  0
 15 49  1  0
 16 50  1  0
 17 51  1  0
 19 52  1  0
 23 53  1  0
 27 54  1  0
 28 55  1  0
 28 56  1  0
 29 57  1  0
 29 58  1  0
 30 59  1  0
 30 60  1  0
 31 61  1  0
 31 62  1  0
 32 63  1  0
 32 64  1  0
 33 65  1  0
 33 66  1  0
 34 67  1  0
 34 68  1  0
 36 69  1  0
 36 70  1  0
 36 71  1  0
 37 72  1  0
M  END
$$$$
