
     RDKit          3D

 49 50  0  0  0  0  0  0  0  0999 V2000
   -4.0271    0.0303    1.4996 C   0  0  2  0  0  0  0  0  0  0  0  0
   -4.8298   -1.1876    1.5504 N   0  0  0  0  0  0  0  0  0  0  0  0
   -4.9663    1.1067    1.0110 C   0  0  0  0  0  0  0  0  0  0  0  0
   -4.3648    2.4595    0.8823 C   0  0  0  0  0  0  0  0  0  0  0  0
   -2.8152   -0.0870    0.6851 C   0  0  0  0  0  0  0  0  0  0  0  0
   -2.3339    1.0913    0.7828 O   0  0  0  0  0  0  0  0  0  0  0  0
   -2.2986   -1.2203   -0.0349 N   0  0  0  0  0  0  0  0  0  0  0  0
   -2.7711   -2.6074   -0.2066 C   0  0  0  0  0  0  0  0  0  0  0  0
   -2.8983   -2.6218   -1.7396 C   0  0  0  0  0  0  0  0  0  0  0  0
   -1.6672   -1.8009   -2.1634 C   0  0  0  0  0  0  0  0  0  0  0  0
   -1.1144   -1.3344   -0.8417 C   0  0  1  0  0  0  0  0  0  0  0  0
   -0.2493   -0.1713   -0.9147 C   0  0  0  0  0  0  0  0  0  0  0  0
   -0.0837    0.9967   -0.4745 O   0  0  0  0  0  0  0  0  0  0  0  0
    0.8651   -0.3553   -1.8196 N   0  0  0  0  0  0  0  0  0  0  0  0
    1.8702    0.6490   -2.0683 C   0  0  0  0  0  0  0  0  0  0  0  0
    2.9091    0.7607   -1.0387 C   0  0  0  0  0  0  0  0  0  0  0  0
    3.9973   -0.1066   -1.2092 C   0  0  0  0  0  0  0  0  0  0  0  0
    5.0875   -0.1495   -0.3524 C   0  0  0  0  0  0  0  0  0  0  0  0
    5.0956    0.7041    0.7165 C   0  0  0  0  0  0  0  0  0  0  0  0
    4.0542    1.5807    0.9376 C   0  0  0  0  0  0  0  0  0  0  0  0
    3.0071    1.5773    0.0585 C   0  0  0  0  0  0  0  0  0  0  0  0
    6.2620    0.6381    1.6052 C   0  0  0  0  0  0  0  0  0  0  0  0
    6.5921    1.8555    2.2829 N   0  0  0  0  0  0  0  0  0  0  0  0
    6.9596   -0.4126    1.7893 N   0  0  0  0  0  0  0  0  0  0  0  0
   -3.7605    0.2612    2.5533 H   0  0  0  0  0  0  0  0  0  0  0  0
   -5.4728   -1.2545    0.7307 H   0  0  0  0  0  0  0  0  0  0  0  0
   -5.3880   -1.1428    2.4525 H   0  0  0  0  0  0  0  0  0  0  0  0
   -5.4045    0.8248    0.0301 H   0  0  0  0  0  0  0  0  0  0  0  0
   -5.8115    1.1535    1.7421 H   0  0  0  0  0  0  0  0  0  0  0  0
   -3.7683    2.7723    1.7614 H   0  0  0  0  0  0  0  0  0  0  0  0
   -5.2241    3.1961    0.8659 H   0  0  0  0  0  0  0  0  0  0  0  0
   -3.8684    2.6002   -0.0860 H   0  0  0  0  0  0  0  0  0  0  0  0
   -1.9172   -3.2537    0.1144 H   0  0  0  0  0  0  0  0  0  0  0  0
   -3.7004   -2.8219    0.3054 H   0  0  0  0  0  0  0  0  0  0  0  0
   -3.8177   -2.0517   -1.9853 H   0  0  0  0  0  0  0  0  0  0  0  0
   -2.8731   -3.6282   -2.1554 H   0  0  0  0  0  0  0  0  0  0  0  0
   -2.0019   -1.0198   -2.8398 H   0  0  0  0  0  0  0  0  0  0  0  0
   -0.9724   -2.4931   -2.6335 H   0  0  0  0  0  0  0  0  0  0  0  0
   -0.5449   -2.2213   -0.4220 H   0  0  0  0  0  0  0  0  0  0  0  0
    0.9988   -1.2726   -2.3596 H   0  0  0  0  0  0  0  0  0  0  0  0
    2.3518    0.4266   -3.0398 H   0  0  0  0  0  0  0  0  0  0  0  0
    1.3892    1.6672   -2.1936 H   0  0  0  0  0  0  0  0  0  0  0  0
    4.0496   -0.8140   -2.0456 H   0  0  0  0  0  0  0  0  0  0  0  0
    5.9061   -0.8349   -0.5217 H   0  0  0  0  0  0  0  0  0  0  0  0
    4.0696    2.2408    1.7706 H   0  0  0  0  0  0  0  0  0  0  0  0
    2.2006    2.2493    0.2083 H   0  0  0  0  0  0  0  0  0  0  0  0
    7.3345    2.3109    1.6888 H   0  0  0  0  0  0  0  0  0  0  0  0
    6.1462    2.1456    3.1634 H   0  0  0  0  0  0  0  0  0  0  0  0
    7.7990   -0.4350    2.4375 H   0  0  0  0  0  0  0  0  0  0  0  0
  1  2  1  0
  1  3  1  0
  3  4  1  0
  1  5  1  0
  5  6  2  0
  5  7  1  0
  7  8  1  0
  8  9  1  0
  9 10  1  0
 10 11  1  0
 11 12  1  0
 12 13  2  0
 12 14  1  0
 14 15  1  0
 15 16  1  0
 16 17  2  0
 17 18  1  0
 18 19  2  0
 19 20  1  0
 20 21  2  0
 19 22  1  0
 22 23  1  0
 22 24  2  3
 11  7  1  0
 21 16  1  0
  1 25  1  1
  2 26  1  0
  2 27  1  0
  3 28  1  0
  3 29  1  0
  4 30  1  0
  4 31  1  0
  4 32  1  0
  8 33  1  0
  8 34  1  0
  9 35  1  0
  9 36  1  0
 10 37  1  0
 10 38  1  0
 11 39  1  1
 14 40  1  0
 15 41  1  0
 15 42  1  0
 17 43  1  0
 18 44  1  0
 20 45  1  0
 21 46  1  0
 23 47  1  0
 23 48  1  0
 24 49  1  0
M  END
$$$$
