
     RDKit          3D

 61 64  0  0  0  0  0  0  0  0999 V2000
   -3.2477   -1.9812    2.4408 C   0  0  0  0  0  0  0  0  0  0  0  0
   -1.7567   -1.8425    2.5023 C   0  0  0  0  0  0  0  0  0  0  0  0
   -1.1402   -1.7794    1.1103 C   0  0  0  0  0  0  0  0  0  0  0  0
   -1.7198   -0.6013    0.4303 C   0  0  0  0  0  0  0  0  0  0  0  0
   -2.6804   -0.6782   -0.5288 C   0  0  0  0  0  0  0  0  0  0  0  0
   -3.2239    0.4166   -1.1664 C   0  0  0  0  0  0  0  0  0  0  0  0
   -4.2035    0.3385   -2.1450 O   0  0  0  0  0  0  0  0  0  0  0  0
   -5.5374    0.3715   -1.7465 C   0  0  0  0  0  0  0  0  0  0  0  0
   -5.9128    0.4813   -0.4185 C   0  0  0  0  0  0  0  0  0  0  0  0
   -7.2392    0.5123   -0.0452 C   0  0  0  0  0  0  0  0  0  0  0  0
   -8.2193    0.4312   -1.0261 C   0  0  0  0  0  0  0  0  0  0  0  0
   -9.8740    0.4732   -0.5197 Cl  0  0  0  0  0  0  0  0  0  0  0  0
   -7.8770    0.3214   -2.3545 C   0  0  0  0  0  0  0  0  0  0  0  0
   -9.1523    0.2223   -3.5551 Cl  0  0  0  0  0  0  0  0  0  0  0  0
   -6.5396    0.2919   -2.7100 C   0  0  0  0  0  0  0  0  0  0  0  0
   -2.7655    1.6621   -0.8087 C   0  0  0  0  0  0  0  0  0  0  0  0
   -1.7723    1.7771    0.1807 C   0  0  0  0  0  0  0  0  0  0  0  0
   -1.2404    0.6756    0.8057 C   0  0  0  0  0  0  0  0  0  0  0  0
   -0.2868    0.7907    1.7590 O   0  0  0  0  0  0  0  0  0  0  0  0
    0.3325    1.9003    2.2546 C   0  0  0  0  0  0  0  0  0  0  0  0
    1.1900    2.6954    1.3223 C   0  0  0  0  0  0  0  0  0  0  0  0
    2.3229    1.8620    0.7519 C   0  0  0  0  0  0  0  0  0  0  0  0
    1.8668    0.7581    0.0299 O   0  0  0  0  0  0  0  0  0  0  0  0
    2.8237   -0.0763   -0.5385 C   0  0  0  0  0  0  0  0  0  0  0  0
    2.4631   -1.1986   -1.2749 C   0  0  0  0  0  0  0  0  0  0  0  0
    3.3958   -2.0391   -1.8468 C   0  0  0  0  0  0  0  0  0  0  0  0
    4.7600   -1.7697   -1.6917 C   0  0  0  0  0  0  0  0  0  0  0  0
    5.1398   -0.6740   -0.9730 C   0  0  0  0  0  0  0  0  0  0  0  0
    6.5286   -0.3632   -0.7900 C   0  0  0  0  0  0  0  0  0  0  0  0
    7.1047    1.0447    0.1365 S   0  0  0  0  0  0  0  0  0  0  0  0
    8.8489    0.7330   -0.0997 C   0  0  0  0  0  0  0  0  0  0  0  0
    9.8255    1.4217    0.3419 O   0  0  0  0  0  0  0  0  0  0  0  0
    8.8357   -0.3966   -0.8506 N   0  0  0  0  0  0  0  0  0  0  0  0
    7.6876   -0.9188   -1.1787 C   0  0  0  0  0  0  0  0  0  0  0  0
    7.6518   -2.1188   -1.9762 O   0  0  0  0  0  0  0  0  0  0  0  0
    4.1824    0.1508   -0.4111 C   0  0  0  0  0  0  0  0  0  0  0  0
   -3.5449   -2.6339    3.3097 H   0  0  0  0  0  0  0  0  0  0  0  0
   -3.7976   -1.0425    2.5246 H   0  0  0  0  0  0  0  0  0  0  0  0
   -3.5795   -2.5332    1.5383 H   0  0  0  0  0  0  0  0  0  0  0  0
   -1.2896   -2.6864    3.0558 H   0  0  0  0  0  0  0  0  0  0  0  0
   -1.5333   -0.9154    3.0671 H   0  0  0  0  0  0  0  0  0  0  0  0
   -0.0527   -1.7740    1.1501 H   0  0  0  0  0  0  0  0  0  0  0  0
   -1.4431   -2.6671    0.5187 H   0  0  0  0  0  0  0  0  0  0  0  0
   -3.0697   -1.6495   -0.8392 H   0  0  0  0  0  0  0  0  0  0  0  0
   -5.1331    0.5432    0.3285 H   0  0  0  0  0  0  0  0  0  0  0  0
   -7.4850    0.5993    1.0058 H   0  0  0  0  0  0  0  0  0  0  0  0
   -6.3308    0.2046   -3.7648 H   0  0  0  0  0  0  0  0  0  0  0  0
   -3.1571    2.5659   -1.2774 H   0  0  0  0  0  0  0  0  0  0  0  0
   -1.4536    2.7813    0.4518 H   0  0  0  0  0  0  0  0  0  0  0  0
   -0.4379    2.5586    2.7431 H   0  0  0  0  0  0  0  0  0  0  0  0
    0.9805    1.5649    3.1156 H   0  0  0  0  0  0  0  0  0  0  0  0
    1.7320    3.4435    1.9953 H   0  0  0  0  0  0  0  0  0  0  0  0
    0.7052    3.3039    0.5763 H   0  0  0  0  0  0  0  0  0  0  0  0
    2.9992    1.6105    1.5910 H   0  0  0  0  0  0  0  0  0  0  0  0
    2.9086    2.5575    0.0959 H   0  0  0  0  0  0  0  0  0  0  0  0
    1.3993   -1.4002   -1.3902 H   0  0  0  0  0  0  0  0  0  0  0  0
    3.0925   -2.9213   -2.4253 H   0  0  0  0  0  0  0  0  0  0  0  0
    5.4282   -2.4636   -2.1621 H   0  0  0  0  0  0  0  0  0  0  0  0
    9.8051   -0.8180   -1.1471 H   0  0  0  0  0  0  0  0  0  0  0  0
    8.2241   -2.1638   -2.8080 H   0  0  0  0  0  0  0  0  0  0  0  0
    4.4622    1.0413    0.1736 H   0  0  0  0  0  0  0  0  0  0  0  0
  1  2  1  0
  2  3  1  0
  3  4  1  0
  4  5  2  0
  5  6  1  0
  6  7  1  0
  7  8  1  0
  8  9  2  0
  9 10  1  0
 10 11  2  0
 11 12  1  0
 11 13  1  0
 13 14  1  0
 13 15  2  0
  6 16  2  0
 16 17  1  0
 17 18  2  0
 18 19  1  0
 19 20  1  0
 20 21  1  0
 21 22  1  0
 22 23  1  0
 23 24  1  0
 24 25  2  0
 25 26  1  0
 26 27  2  0
 27 28  1  0
 28 29  1  0
 29 30  1  0
 30 31  1  0
 31 32  2  0
 31 33  1  0
 33 34  1  0
 34 35  1  0
 28 36  2  0
 18  4  1  0
 36 24  1  0
 15  8  1  0
 34 29  2  0
  1 37  1  0
  1 38  1  0
  1 39  1  0
  2 40  1  0
  2 41  1  0
  3 42  1  0
  3 43  1  0
  5 44  1  0
  9 45  1  0
 10 46  1  0
 15 47  1  0
 16 48  1  0
 17 49  1  0
 20 50  1  0
 20 51  1  0
 21 52  1  0
 21 53  1  0
 22 54  1  0
 22 55  1  0
 25 56  1  0
 26 57  1  0
 27 58  1  0
 33 59  1  0
 35 60  1  0
 36 61  1  0
M  END
$$$$
