
     RDKit          3D

 30 31  0  0  0  0  0  0  0  0999 V2000
   -4.3417   -2.3338   -1.0797 O   0  0  0  0  0  0  0  0  0  0  0  0
   -3.8523   -1.1256   -0.5983 C   0  0  0  0  0  0  0  0  0  0  0  0
   -4.7101   -0.1161   -0.2151 C   0  0  0  0  0  0  0  0  0  0  0  0
   -4.2492    1.0913    0.2656 C   0  0  0  0  0  0  0  0  0  0  0  0
   -5.1680    2.0553    0.6301 O   0  0  0  0  0  0  0  0  0  0  0  0
   -2.8926    1.2753    0.3580 C   0  0  0  0  0  0  0  0  0  0  0  0
   -1.9632    0.2950   -0.0128 C   0  0  0  0  0  0  0  0  0  0  0  0
   -0.5353    0.5653    0.1146 C   0  0  0  0  0  0  0  0  0  0  0  0
    0.3857   -0.3018   -0.2119 C   0  0  0  0  0  0  0  0  0  0  0  0
    1.7814   -0.0465   -0.0909 C   0  0  0  0  0  0  0  0  0  0  0  0
    2.2699    1.1379    0.3811 C   0  0  0  0  0  0  0  0  0  0  0  0
    3.6419    1.3571    0.4875 C   0  0  0  0  0  0  0  0  0  0  0  0
    4.5350    0.3896    0.1212 C   0  0  0  0  0  0  0  0  0  0  0  0
    5.9035    0.6521    0.2446 O   0  0  0  0  0  0  0  0  0  0  0  0
    4.0600   -0.8122   -0.3574 C   0  0  0  0  0  0  0  0  0  0  0  0
    4.9912   -1.7952   -0.7292 O   0  0  0  0  0  0  0  0  0  0  0  0
    2.7103   -1.0190   -0.4586 C   0  0  0  0  0  0  0  0  0  0  0  0
   -2.4714   -0.8899   -0.4852 C   0  0  0  0  0  0  0  0  0  0  0  0
   -3.9217   -3.2015   -0.7731 H   0  0  0  0  0  0  0  0  0  0  0  0
   -5.7739   -0.3132   -0.3083 H   0  0  0  0  0  0  0  0  0  0  0  0
   -5.2254    2.9461    0.1585 H   0  0  0  0  0  0  0  0  0  0  0  0
   -2.4965    2.2090    0.7302 H   0  0  0  0  0  0  0  0  0  0  0  0
   -0.2496    1.5298    0.4972 H   0  0  0  0  0  0  0  0  0  0  0  0
    0.0953   -1.2907   -0.6042 H   0  0  0  0  0  0  0  0  0  0  0  0
    1.6284    1.9653    0.6961 H   0  0  0  0  0  0  0  0  0  0  0  0
    3.9650    2.3155    0.8683 H   0  0  0  0  0  0  0  0  0  0  0  0
    6.6039   -0.0846    0.2043 H   0  0  0  0  0  0  0  0  0  0  0  0
    4.7300   -2.7853   -0.7143 H   0  0  0  0  0  0  0  0  0  0  0  0
    2.3525   -1.9783   -0.8403 H   0  0  0  0  0  0  0  0  0  0  0  0
   -1.8032   -1.6911   -0.7896 H   0  0  0  0  0  0  0  0  0  0  0  0
  1  2  1  0
  2  3  2  0
  3  4  1  0
  4  5  1  0
  4  6  2  0
  6  7  1  0
  7  8  1  0
  8  9  2  0
  9 10  1  0
 10 11  2  0
 11 12  1  0
 12 13  2  0
 13 14  1  0
 13 15  1  0
 15 16  1  0
 15 17  2  0
  7 18  2  0
 18  2  1  0
 17 10  1  0
  1 19  1  0
  3 20  1  0
  5 21  1  0
  6 22  1  0
  8 23  1  0
  9 24  1  0
 11 25  1  0
 12 26  1  0
 14 27  1  0
 16 28  1  0
 17 29  1  0
 18 30  1  0
M  END
$$$$
