
     RDKit          3D

 40 41  0  0  0  0  0  0  0  0999 V2000
   -6.7289    0.8655   -0.7867 C   0  0  0  0  0  0  0  0  0  0  0  0
   -5.3431    1.9402   -0.3465 S   0  0  0  0  0  0  0  0  0  0  0  0
   -4.0908    1.0177    0.5265 C   0  0  0  0  0  0  0  0  0  0  0  0
   -3.0999    0.4281   -0.2055 C   0  0  0  0  0  0  0  0  0  0  0  0
   -2.0904   -0.2836    0.3533 C   0  0  0  0  0  0  0  0  0  0  0  0
   -0.9547   -0.9720   -0.1284 N   0  0  0  0  0  0  0  0  0  0  0  0
   -0.0751   -0.3245   -0.8007 C   0  0  0  0  0  0  0  0  0  0  0  0
   -0.4007    1.0532   -0.9677 N   0  0  0  0  0  0  0  0  0  0  0  0
    0.9439   -1.3019   -1.1107 N   0  0  0  0  0  0  0  0  0  0  0  0
    0.6973   -2.4636   -1.9417 C   0  0  0  0  0  0  0  0  0  0  0  0
    2.2101   -1.0373   -0.5184 C   0  0  0  0  0  0  0  0  0  0  0  0
    2.4816    0.0710    0.2609 C   0  0  0  0  0  0  0  0  0  0  0  0
    3.6630    0.3671    0.8539 C   0  0  0  0  0  0  0  0  0  0  0  0
    3.7489    1.8694    1.8143 S   0  0  0  0  0  0  0  0  0  0  0  0
    5.3490    2.1503    2.5565 C   0  0  0  0  0  0  0  0  0  0  0  0
    4.7201   -0.5274    0.6676 C   0  0  0  0  0  0  0  0  0  0  0  0
    4.5208   -1.6719   -0.1087 C   0  0  0  0  0  0  0  0  0  0  0  0
    3.2654   -1.9046   -0.6875 C   0  0  0  0  0  0  0  0  0  0  0  0
   -2.1219   -0.3841    1.7542 C   0  0  0  0  0  0  0  0  0  0  0  0
   -0.9360   -1.2435    2.7488 Cl  0  0  0  0  0  0  0  0  0  0  0  0
   -3.1171    0.2051    2.5086 C   0  0  0  0  0  0  0  0  0  0  0  0
   -4.1400    0.9302    1.9056 C   0  0  0  0  0  0  0  0  0  0  0  0
   -7.4399    1.4287   -1.4339 H   0  0  0  0  0  0  0  0  0  0  0  0
   -6.3238   -0.0086   -1.3189 H   0  0  0  0  0  0  0  0  0  0  0  0
   -7.2513    0.5929    0.1632 H   0  0  0  0  0  0  0  0  0  0  0  0
   -2.9892    0.4451   -1.2883 H   0  0  0  0  0  0  0  0  0  0  0  0
   -0.5539    1.6635   -1.8159 H   0  0  0  0  0  0  0  0  0  0  0  0
   -0.5237    1.6133   -0.0915 H   0  0  0  0  0  0  0  0  0  0  0  0
    0.9108   -3.3596   -1.3317 H   0  0  0  0  0  0  0  0  0  0  0  0
    1.3394   -2.4050   -2.8388 H   0  0  0  0  0  0  0  0  0  0  0  0
   -0.3627   -2.5112   -2.2652 H   0  0  0  0  0  0  0  0  0  0  0  0
    1.6432    0.7432    0.3877 H   0  0  0  0  0  0  0  0  0  0  0  0
    5.2932    3.1594    3.0598 H   0  0  0  0  0  0  0  0  0  0  0  0
    5.6541    1.3970    3.3076 H   0  0  0  0  0  0  0  0  0  0  0  0
    6.0949    2.3011    1.7428 H   0  0  0  0  0  0  0  0  0  0  0  0
    5.6664   -0.2729    1.1513 H   0  0  0  0  0  0  0  0  0  0  0  0
    5.3678   -2.3610   -0.2388 H   0  0  0  0  0  0  0  0  0  0  0  0
    3.1120   -2.7924   -1.2888 H   0  0  0  0  0  0  0  0  0  0  0  0
   -3.1871    0.1628    3.5817 H   0  0  0  0  0  0  0  0  0  0  0  0
   -4.9516    1.4204    2.4208 H   0  0  0  0  0  0  0  0  0  0  0  0
  1  2  1  0
  2  3  1  0
  3  4  2  0
  4  5  1  0
  5  6  1  0
  6  7  2  0
  7  8  1  0
  7  9  1  0
  9 10  1  0
  9 11  1  0
 11 12  2  0
 12 13  1  0
 13 14  1  0
 14 15  1  0
 13 16  2  0
 16 17  1  0
 17 18  2  0
  5 19  2  0
 19 20  1  0
 19 21  1  0
 21 22  2  0
 22  3  1  0
 18 11  1  0
  1 23  1  0
  1 24  1  0
  1 25  1  0
  4 26  1  0
  8 27  1  0
  8 28  1  0
 10 29  1  0
 10 30  1  0
 10 31  1  0
 12 32  1  0
 15 33  1  0
 15 34  1  0
 15 35  1  0
 16 36  1  0
 17 37  1  0
 18 38  1  0
 21 39  1  0
 22 40  1  0
M  END
$$$$
