
     RDKit          3D

 61 68  0  0  0  0  0  0  0  0999 V2000
   -4.5062    2.2766   -0.9681 C   0  0  0  0  0  0  0  0  0  0  0  0
   -4.0793    0.8903   -0.9130 N   0  0  0  0  0  0  0  0  0  0  0  0
   -3.0882    0.7781    0.1156 C   0  0  2  0  0  0  0  0  0  0  0  0
   -1.9317    1.6843   -0.2403 C   0  0  0  0  0  0  0  0  0  0  0  0
   -1.0096    1.6907    0.9570 C   0  0  1  0  0  0  0  0  0  0  0  0
   -1.1605    0.6391    1.7857 O   0  0  0  0  0  0  0  0  0  0  0  0
   -1.4169   -0.6142    1.2268 C   0  0  1  0  0  0  0  0  0  0  0  0
   -1.8594   -1.4426    2.4477 C   0  0  0  0  0  0  0  0  0  0  0  0
   -2.5375   -0.6266    0.2433 C   0  0  2  0  0  0  0  0  0  0  0  0
   -2.1783   -1.1460   -0.9996 O   0  0  0  0  0  0  0  0  0  0  0  0
   -2.9983   -2.1978   -1.3949 C   0  0  0  0  0  0  0  0  0  0  0  0
   -0.1864   -1.1941    0.7068 N   0  0  0  0  0  0  0  0  0  0  0  0
    0.1044   -2.5260    0.5856 C   0  0  0  0  0  0  0  0  0  0  0  0
   -0.6290   -3.6446    0.8384 C   0  0  0  0  0  0  0  0  0  0  0  0
   -0.1404   -4.9273    0.6325 C   0  0  0  0  0  0  0  0  0  0  0  0
    1.1373   -5.0755    0.1523 C   0  0  0  0  0  0  0  0  0  0  0  0
    1.8986   -3.9437   -0.1122 C   0  0  0  0  0  0  0  0  0  0  0  0
    1.3808   -2.6884    0.1042 C   0  0  0  0  0  0  0  0  0  0  0  0
    1.9173   -1.4342   -0.0917 C   0  0  0  0  0  0  0  0  0  0  0  0
    3.1378   -0.9696   -0.5583 C   0  0  0  0  0  0  0  0  0  0  0  0
    3.4159    0.3894   -0.6678 C   0  0  0  0  0  0  0  0  0  0  0  0
    2.4081    1.2457   -0.2871 C   0  0  0  0  0  0  0  0  0  0  0  0
    2.3262    2.6259   -0.2832 C   0  0  0  0  0  0  0  0  0  0  0  0
    3.1440    3.6558   -0.6088 C   0  0  0  0  0  0  0  0  0  0  0  0
    2.6907    4.9659   -0.4655 C   0  0  0  0  0  0  0  0  0  0  0  0
    1.4252    5.2423    0.0016 C   0  0  0  0  0  0  0  0  0  0  0  0
    0.5841    4.2246    0.3357 C   0  0  0  0  0  0  0  0  0  0  0  0
    1.0501    2.9136    0.1876 C   0  0  0  0  0  0  0  0  0  0  0  0
    0.3758    1.8086    0.4614 N   0  0  0  0  0  0  0  0  0  0  0  0
    1.1851    0.7772    0.1813 C   0  0  0  0  0  0  0  0  0  0  0  0
    0.9405   -0.5635    0.2813 C   0  0  0  0  0  0  0  0  0  0  0  0
    4.7632    0.5636   -1.1801 C   0  0  0  0  0  0  0  0  0  0  0  0
    5.4157    1.5908   -1.4309 O   0  0  0  0  0  0  0  0  0  0  0  0
    5.2989   -0.7435   -1.3800 N   0  0  0  0  0  0  0  0  0  0  0  0
    4.3366   -1.7318   -1.0135 C   0  0  0  0  0  0  0  0  0  0  0  0
   -4.0071    2.8380   -1.7746 H   0  0  0  0  0  0  0  0  0  0  0  0
   -4.3438    2.7549    0.0357 H   0  0  0  0  0  0  0  0  0  0  0  0
   -5.6022    2.3708   -1.1512 H   0  0  0  0  0  0  0  0  0  0  0  0
   -4.9153    0.3341   -0.6022 H   0  0  0  0  0  0  0  0  0  0  0  0
   -3.4708    1.0853    1.0911 H   0  0  0  0  0  0  0  0  0  0  0  0
   -2.3596    2.6869   -0.4521 H   0  0  0  0  0  0  0  0  0  0  0  0
   -1.3968    1.3637   -1.1514 H   0  0  0  0  0  0  0  0  0  0  0  0
   -1.2210    2.6234    1.5197 H   0  0  0  0  0  0  0  0  0  0  0  0
   -1.0514   -2.0673    2.8492 H   0  0  0  0  0  0  0  0  0  0  0  0
   -2.0930   -0.7450    3.3277 H   0  0  0  0  0  0  0  0  0  0  0  0
   -2.8332   -1.9367    2.2897 H   0  0  0  0  0  0  0  0  0  0  0  0
   -3.4231   -1.2414    0.5838 H   0  0  0  0  0  0  0  0  0  0  0  0
   -2.9990   -3.0539   -0.7198 H   0  0  0  0  0  0  0  0  0  0  0  0
   -4.0482   -1.8280   -1.4442 H   0  0  0  0  0  0  0  0  0  0  0  0
   -2.7350   -2.5284   -2.4002 H   0  0  0  0  0  0  0  0  0  0  0  0
   -1.6408   -3.5431    1.1931 H   0  0  0  0  0  0  0  0  0  0  0  0
   -0.7501   -5.8093    0.8445 H   0  0  0  0  0  0  0  0  0  0  0  0
    1.5912   -6.0505   -0.0348 H   0  0  0  0  0  0  0  0  0  0  0  0
    2.9016   -4.0521   -0.4895 H   0  0  0  0  0  0  0  0  0  0  0  0
    4.1143    3.5168   -0.9682 H   0  0  0  0  0  0  0  0  0  0  0  0
    3.3501    5.7801   -0.7277 H   0  0  0  0  0  0  0  0  0  0  0  0
    1.0987    6.2746    0.1030 H   0  0  0  0  0  0  0  0  0  0  0  0
   -0.4218    4.4112    0.7075 H   0  0  0  0  0  0  0  0  0  0  0  0
    6.2449   -0.9562   -1.7377 H   0  0  0  0  0  0  0  0  0  0  0  0
    4.7407   -2.2967   -0.1282 H   0  0  0  0  0  0  0  0  0  0  0  0
    4.0560   -2.4244   -1.8261 H   0  0  0  0  0  0  0  0  0  0  0  0
  1  2  1  0
  2  3  1  0
  3  4  1  0
  4  5  1  0
  5  6  1  0
  6  7  1  0
  7  8  1  1
  7  9  1  0
  9 10  1  0
 10 11  1  0
  7 12  1  0
 12 13  1  0
 13 14  2  0
 14 15  1  0
 15 16  2  0
 16 17  1  0
 17 18  2  0
 18 19  1  0
 19 20  2  0
 20 21  1  0
 21 22  2  0
 22 23  1  0
 23 24  2  0
 24 25  1  0
 25 26  2  0
 26 27  1  0
 27 28  2  0
 28 29  1  0
 29 30  1  0
 30 31  2  0
 21 32  1  0
 32 33  2  0
 32 34  1  0
 34 35  1  0
  9  3  1  0
 31 12  1  0
 29  5  1  0
 18 13  1  0
 31 19  1  0
 35 20  1  0
 30 22  1  0
 28 23  1  0
  1 36  1  0
  1 37  1  0
  1 38  1  0
  2 39  1  0
  3 40  1  1
  4 41  1  0
  4 42  1  0
  5 43  1  1
  8 44  1  0
  8 45  1  0
  8 46  1  0
  9 47  1  1
 11 48  1  0
 11 49  1  0
 11 50  1  0
 14 51  1  0
 15 52  1  0
 16 53  1  0
 17 54  1  0
 24 55  1  0
 25 56  1  0
 26 57  1  0
 27 58  1  0
 34 59  1  0
 35 60  1  0
 35 61  1  0
M  END
$$$$
