
     RDKit          3D

 72 74  0  0  0  0  0  0  0  0999 V2000
   -0.9437   -4.9185   -1.3553 C   0  0  0  0  0  0  0  0  0  0  0  0
   -1.6166   -4.2801   -0.1603 C   0  0  0  0  0  0  0  0  0  0  0  0
   -1.4588   -2.4777   -0.2602 S   0  0  0  0  0  6  0  0  0  0  0  0
   -2.0613   -2.1067   -1.5788 O   0  0  0  0  0  0  0  0  0  0  0  0
    0.0156   -2.2495   -0.3726 O   0  0  0  0  0  0  0  0  0  0  0  0
   -2.2397   -1.8065    1.1223 C   0  0  0  0  0  0  0  0  0  0  0  0
   -2.3125   -0.3653    1.3411 C   0  0  2  0  0  0  0  0  0  0  0  0
   -2.9839    0.4698    0.2778 C   0  0  0  0  0  0  0  0  0  0  0  0
   -3.4826    1.7401    0.9643 C   0  0  2  0  0  0  0  0  0  0  0  0
   -4.0591    2.6277    0.0121 N   0  0  0  0  0  0  0  0  0  0  0  0
   -4.5618    3.8244    0.5935 C   0  0  0  0  0  0  0  0  0  0  0  0
   -4.8494    2.0416   -1.0168 C   0  0  0  0  0  0  0  0  0  0  0  0
   -6.0508    1.3297   -0.4391 C   0  0  0  0  0  0  0  0  0  0  0  0
   -5.3474    3.0782   -2.0191 C   0  0  0  0  0  0  0  0  0  0  0  0
   -2.4492    2.4536    1.7659 C   0  0  0  0  0  0  0  0  0  0  0  0
   -1.5405    1.6409    2.5942 C   0  0  0  0  0  0  0  0  0  0  0  0
   -1.1513    0.2894    1.9908 C   0  0  2  0  0  0  0  0  0  0  0  0
    0.0405    0.4411    1.1774 N   0  0  0  0  0  0  0  0  0  0  0  0
    0.2082    1.1247   -0.0801 C   0  0  0  0  0  0  0  0  0  0  0  0
    1.6266    1.6460   -0.1448 C   0  0  0  0  0  0  0  0  0  0  0  0
    2.3572    0.7193    0.7664 C   0  0  2  0  0  0  0  0  0  0  0  0
    3.2963   -0.0714    0.0023 N   0  0  0  0  0  0  0  0  0  0  0  0
    4.6942   -0.0238    0.1849 C   0  0  0  0  0  0  0  0  0  0  0  0
    5.1043    0.7791    1.0881 O   0  0  0  0  0  0  0  0  0  0  0  0
    5.6676   -0.8007   -0.5606 C   0  0  0  0  0  0  0  0  0  0  0  0
    5.3193   -1.6932   -1.5476 C   0  0  0  0  0  0  0  0  0  0  0  0
    6.2731   -2.4250   -2.2460 C   0  0  0  0  0  0  0  0  0  0  0  0
    7.6111   -2.2788   -1.9696 C   0  0  0  0  0  0  0  0  0  0  0  0
    7.9782   -1.3881   -0.9827 C   0  0  0  0  0  0  0  0  0  0  0  0
    9.4251   -1.2290   -0.6841 C   0  0  0  0  0  0  0  0  0  0  0  0
    9.8535   -2.0625    0.3291 F   0  0  0  0  0  0  0  0  0  0  0  0
   10.1658   -1.5264   -1.8100 F   0  0  0  0  0  0  0  0  0  0  0  0
    9.7206    0.0997   -0.3603 F   0  0  0  0  0  0  0  0  0  0  0  0
    7.0108   -0.6597   -0.2892 C   0  0  0  0  0  0  0  0  0  0  0  0
    1.3498   -0.0814    1.4867 C   0  0  0  0  0  0  0  0  0  0  0  0
    1.5945   -1.0456    2.2352 O   0  0  0  0  0  0  0  0  0  0  0  0
   -1.6479   -4.9489   -2.1962 H   0  0  0  0  0  0  0  0  0  0  0  0
   -0.5769   -5.9153   -1.0489 H   0  0  0  0  0  0  0  0  0  0  0  0
   -0.0814   -4.2459   -1.6369 H   0  0  0  0  0  0  0  0  0  0  0  0
   -2.7003   -4.5445   -0.1153 H   0  0  0  0  0  0  0  0  0  0  0  0
   -1.1441   -4.6671    0.7435 H   0  0  0  0  0  0  0  0  0  0  0  0
   -3.2699   -2.2925    1.1909 H   0  0  0  0  0  0  0  0  0  0  0  0
   -1.7358   -2.2774    2.0305 H   0  0  0  0  0  0  0  0  0  0  0  0
   -3.1239   -0.2688    2.1973 H   0  0  0  0  0  0  0  0  0  0  0  0
   -2.3757    0.6596   -0.6038 H   0  0  0  0  0  0  0  0  0  0  0  0
   -3.9432   -0.0741    0.0274 H   0  0  0  0  0  0  0  0  0  0  0  0
   -4.2761    1.4120    1.6727 H   0  0  0  0  0  0  0  0  0  0  0  0
   -5.4188    4.2268    0.0223 H   0  0  0  0  0  0  0  0  0  0  0  0
   -4.9380    3.6215    1.6216 H   0  0  0  0  0  0  0  0  0  0  0  0
   -3.7860    4.6163    0.6860 H   0  0  0  0  0  0  0  0  0  0  0  0
   -4.2822    1.2966   -1.6176 H   0  0  0  0  0  0  0  0  0  0  0  0
   -6.9947    1.8389   -0.7607 H   0  0  0  0  0  0  0  0  0  0  0  0
   -6.1438    0.2842   -0.8501 H   0  0  0  0  0  0  0  0  0  0  0  0
   -6.0062    1.2085    0.6577 H   0  0  0  0  0  0  0  0  0  0  0  0
   -5.5509    2.5706   -2.9677 H   0  0  0  0  0  0  0  0  0  0  0  0
   -4.6136    3.8859   -2.1588 H   0  0  0  0  0  0  0  0  0  0  0  0
   -6.3313    3.4416   -1.6201 H   0  0  0  0  0  0  0  0  0  0  0  0
   -1.9450    3.2485    1.1385 H   0  0  0  0  0  0  0  0  0  0  0  0
   -3.0408    3.1018    2.4921 H   0  0  0  0  0  0  0  0  0  0  0  0
   -1.9524    1.4958    3.6147 H   0  0  0  0  0  0  0  0  0  0  0  0
   -0.5817    2.1901    2.7326 H   0  0  0  0  0  0  0  0  0  0  0  0
   -0.8870   -0.3230    2.8839 H   0  0  0  0  0  0  0  0  0  0  0  0
   -0.4437    2.0074   -0.2103 H   0  0  0  0  0  0  0  0  0  0  0  0
    0.0925    0.4122   -0.9196 H   0  0  0  0  0  0  0  0  0  0  0  0
    1.7101    2.7210    0.1351 H   0  0  0  0  0  0  0  0  0  0  0  0
    2.0358    1.5896   -1.1949 H   0  0  0  0  0  0  0  0  0  0  0  0
    2.8733    1.3589    1.5240 H   0  0  0  0  0  0  0  0  0  0  0  0
    2.9262   -0.7162   -0.7276 H   0  0  0  0  0  0  0  0  0  0  0  0
    4.2698   -1.8132   -1.7712 H   0  0  0  0  0  0  0  0  0  0  0  0
    5.9742   -3.1180   -3.0148 H   0  0  0  0  0  0  0  0  0  0  0  0
    8.3831   -2.8431   -2.5048 H   0  0  0  0  0  0  0  0  0  0  0  0
    7.3224    0.0452    0.4941 H   0  0  0  0  0  0  0  0  0  0  0  0
  1  2  1  0
  2  3  1  0
  3  4  2  0
  3  5  2  0
  3  6  1  0
  6  7  1  0
  7  8  1  0
  8  9  1  0
  9 10  1  0
 10 11  1  0
 10 12  1  0
 12 13  1  0
 12 14  1  0
  9 15  1  0
 15 16  1  0
 16 17  1  0
 17 18  1  0
 18 19  1  0
 19 20  1  0
 20 21  1  0
 21 22  1  0
 22 23  1  0
 23 24  2  0
 23 25  1  0
 25 26  2  0
 26 27  1  0
 27 28  2  0
 28 29  1  0
 29 30  1  0
 30 31  1  0
 30 32  1  0
 30 33  1  0
 29 34  2  0
 21 35  1  0
 35 36  2  0
 17  7  1  0
 35 18  1  0
 34 25  1  0
  1 37  1  0
  1 38  1  0
  1 39  1  0
  2 40  1  0
  2 41  1  0
  6 42  1  0
  6 43  1  0
  7 44  1  1
  8 45  1  0
  8 46  1  0
  9 47  1  1
 11 48  1  0
 11 49  1  0
 11 50  1  0
 12 51  1  0
 13 52  1  0
 13 53  1  0
 13 54  1  0
 14 55  1  0
 14 56  1  0
 14 57  1  0
 15 58  1  0
 15 59  1  0
 16 60  1  0
 16 61  1  0
 17 62  1  1
 19 63  1  0
 19 64  1  0
 20 65  1  0
 20 66  1  0
 21 67  1  1
 22 68  1  0
 26 69  1  0
 27 70  1  0
 28 71  1  0
 34 72  1  0
M  END
$$$$
