
     RDKit          3D

 50 50  0  0  0  0  0  0  0  0999 V2000
    5.7547   -1.4042    0.3000 C   0  0  0  0  0  0  0  0  0  0  0  0
    5.0129   -0.5013   -0.7173 C   0  0  0  0  0  0  0  0  0  0  0  0
    5.8142    0.8070   -0.6784 C   0  0  0  0  0  0  0  0  0  0  0  0
    3.6263   -0.2700   -0.2423 C   0  0  0  0  0  0  0  0  0  0  0  0
    2.7272    0.5537   -1.0989 C   0  0  2  0  0  0  0  0  0  0  0  0
    3.1153    1.9193   -1.3851 C   0  0  0  0  0  0  0  0  0  0  0  0
    2.3586    2.8223   -0.9998 O   0  0  0  0  0  0  0  0  0  0  0  0
    1.3992    0.4892   -0.4454 N   0  0  0  0  0  0  0  0  0  0  0  0
    0.3035   -0.1626   -1.0469 C   0  0  0  0  0  0  0  0  0  0  0  0
    0.4861   -0.6917   -2.1628 O   0  0  0  0  0  0  0  0  0  0  0  0
   -1.0538   -0.2569   -0.4329 C   0  0  1  0  0  0  0  0  0  0  0  0
   -2.0020   -0.9434   -1.1988 N   0  0  0  0  0  0  0  0  0  0  0  0
   -3.3062   -0.1564   -1.8636 S   0  0  0  0  0  6  0  0  0  0  0  0
   -2.9708    0.9620   -2.8030 O   0  0  0  0  0  0  0  0  0  0  0  0
   -4.2153   -1.1187   -2.6049 O   0  0  0  0  0  0  0  0  0  0  0  0
   -4.2903    0.5318   -0.5945 C   0  0  0  0  0  0  0  0  0  0  0  0
   -5.2916   -0.2402   -0.0468 C   0  0  0  0  0  0  0  0  0  0  0  0
   -6.1221    0.2142    0.9526 C   0  0  0  0  0  0  0  0  0  0  0  0
   -5.9388    1.4961    1.4202 C   0  0  0  0  0  0  0  0  0  0  0  0
   -6.7179    2.0050    2.3989 F   0  0  0  0  0  0  0  0  0  0  0  0
   -4.9362    2.2704    0.8725 C   0  0  0  0  0  0  0  0  0  0  0  0
   -4.1069    1.8158   -0.1258 C   0  0  0  0  0  0  0  0  0  0  0  0
   -0.8674   -0.6821    0.9887 C   0  0  0  0  0  0  0  0  0  0  0  0
   -0.1787   -2.0047    1.1496 C   0  0  0  0  0  0  0  0  0  0  0  0
   -2.2227   -0.7433    1.6587 C   0  0  0  0  0  0  0  0  0  0  0  0
    5.4038   -2.4375    0.2250 H   0  0  0  0  0  0  0  0  0  0  0  0
    5.5224   -0.9908    1.2876 H   0  0  0  0  0  0  0  0  0  0  0  0
    6.8295   -1.3026    0.0900 H   0  0  0  0  0  0  0  0  0  0  0  0
    5.0864   -0.9997   -1.6839 H   0  0  0  0  0  0  0  0  0  0  0  0
    6.8110    0.6542   -0.1728 H   0  0  0  0  0  0  0  0  0  0  0  0
    6.0192    1.1440   -1.7074 H   0  0  0  0  0  0  0  0  0  0  0  0
    5.2787    1.5594   -0.0829 H   0  0  0  0  0  0  0  0  0  0  0  0
    3.1547   -1.2946   -0.1116 H   0  0  0  0  0  0  0  0  0  0  0  0
    3.6538    0.1656    0.7956 H   0  0  0  0  0  0  0  0  0  0  0  0
    2.6602    0.0129   -2.0905 H   0  0  0  0  0  0  0  0  0  0  0  0
    3.9902    2.2736   -1.9006 H   0  0  0  0  0  0  0  0  0  0  0  0
    1.2484    0.9319    0.4854 H   0  0  0  0  0  0  0  0  0  0  0  0
   -1.4211    0.8165   -0.3725 H   0  0  0  0  0  0  0  0  0  0  0  0
   -2.0875   -1.9692   -1.0550 H   0  0  0  0  0  0  0  0  0  0  0  0
   -5.4794   -1.2680   -0.3838 H   0  0  0  0  0  0  0  0  0  0  0  0
   -6.9150   -0.3879    1.3909 H   0  0  0  0  0  0  0  0  0  0  0  0
   -4.7666    3.2953    1.2250 H   0  0  0  0  0  0  0  0  0  0  0  0
   -3.3232    2.4022   -0.5634 H   0  0  0  0  0  0  0  0  0  0  0  0
   -0.2902    0.0963    1.5199 H   0  0  0  0  0  0  0  0  0  0  0  0
   -0.9357   -2.8185    1.2879 H   0  0  0  0  0  0  0  0  0  0  0  0
    0.5027   -2.2638    0.3449 H   0  0  0  0  0  0  0  0  0  0  0  0
    0.4044   -1.9705    2.0938 H   0  0  0  0  0  0  0  0  0  0  0  0
   -2.6810    0.2484    1.8264 H   0  0  0  0  0  0  0  0  0  0  0  0
   -2.1294   -1.2179    2.6810 H   0  0  0  0  0  0  0  0  0  0  0  0
   -2.9138   -1.3906    1.1033 H   0  0  0  0  0  0  0  0  0  0  0  0
  1  2  1  0
  2  3  1  0
  2  4  1  0
  4  5  1  0
  5  6  1  0
  6  7  2  0
  5  8  1  0
  8  9  1  0
  9 10  2  0
  9 11  1  0
 11 12  1  0
 12 13  1  0
 13 14  2  0
 13 15  2  0
 13 16  1  0
 16 17  2  0
 17 18  1  0
 18 19  2  0
 19 20  1  0
 19 21  1  0
 21 22  2  0
 11 23  1  0
 23 24  1  0
 23 25  1  0
 22 16  1  0
  1 26  1  0
  1 27  1  0
  1 28  1  0
  2 29  1  0
  3 30  1  0
  3 31  1  0
  3 32  1  0
  4 33  1  0
  4 34  1  0
  5 35  1  6
  6 36  1  0
  8 37  1  0
 11 38  1  1
 12 39  1  0
 17 40  1  0
 18 41  1  0
 21 42  1  0
 22 43  1  0
 23 44  1  0
 24 45  1  0
 24 46  1  0
 24 47  1  0
 25 48  1  0
 25 49  1  0
 25 50  1  0
M  END
$$$$
