
     RDKit          3D

 70 75  0  0  0  0  0  0  0  0999 V2000
   -1.7903   -7.6915   -0.4105 C   0  0  0  0  0  0  0  0  0  0  0  0
   -1.1618   -6.4893   -0.7324 O   0  0  0  0  0  0  0  0  0  0  0  0
   -1.4167   -5.3274   -0.0180 C   0  0  0  0  0  0  0  0  0  0  0  0
   -0.7951   -4.1418   -0.3377 C   0  0  0  0  0  0  0  0  0  0  0  0
   -1.0129   -2.9636    0.3382 C   0  0  0  0  0  0  0  0  0  0  0  0
   -0.3786   -1.7404    0.0156 N   0  0  0  0  0  0  0  0  0  0  0  0
    0.8743   -1.2768    0.5588 C   0  0  0  0  0  0  0  0  0  0  0  0
    1.3000   -1.6553    1.6728 O   0  0  0  0  0  0  0  0  0  0  0  0
    1.4691   -0.3716   -0.3716 N   0  0  0  0  0  0  0  0  0  0  0  0
    2.7022    0.3306   -0.2663 C   0  0  0  0  0  0  0  0  0  0  0  0
    3.1395    1.1827   -1.2632 C   0  0  0  0  0  0  0  0  0  0  0  0
    4.3424    1.8617   -1.1556 C   0  0  0  0  0  0  0  0  0  0  0  0
    5.1395    1.7166   -0.0655 C   0  0  0  0  0  0  0  0  0  0  0  0
    6.4057    2.4489    0.0116 C   0  0  0  0  0  0  0  0  0  0  0  0
    7.3866    2.5191    0.9401 C   0  0  0  0  0  0  0  0  0  0  0  0
    8.4538    3.3065    0.7083 C   0  0  0  0  0  0  0  0  0  0  0  0
    8.5446    4.0082   -0.4200 C   0  0  0  0  0  0  0  0  0  0  0  0
    9.5359    4.9181   -0.9471 C   0  0  0  0  0  0  0  0  0  0  0  0
    9.4169    5.4719   -2.0417 O   0  0  0  0  0  0  0  0  0  0  0  0
   10.6537    5.1603   -0.1724 O   0  0  0  0  0  0  0  0  0  0  0  0
    7.0125    3.5749   -1.3047 S   0  0  0  0  0  0  0  0  0  0  0  0
    4.7397    0.8821    0.9415 C   0  0  0  0  0  0  0  0  0  0  0  0
    3.5233    0.1985    0.8273 C   0  0  0  0  0  0  0  0  0  0  0  0
    0.5532   -0.3175   -1.4506 C   0  0  0  0  0  0  0  0  0  0  0  0
    0.7638   -0.0364   -2.6418 O   0  0  0  0  0  0  0  0  0  0  0  0
   -0.7715   -0.6716   -0.8937 C   0  0  0  0  0  0  0  0  0  0  0  0
   -1.2801    0.5427   -0.1471 C   0  0  0  0  0  0  0  0  0  0  0  0
   -2.4343    1.0885   -0.9519 C   0  0  0  0  0  0  0  0  0  0  0  0
   -3.5454    0.1785   -0.9264 N   0  0  0  0  0  0  0  0  0  0  0  0
   -4.0627   -0.0925    0.3766 C   0  0  0  0  0  0  0  0  0  0  0  0
   -4.5648    1.0861    1.0972 C   0  0  0  0  0  0  0  0  0  0  0  0
   -3.9146    1.6996    2.0962 N   0  0  0  0  0  0  0  0  0  0  0  0
   -4.3682    2.7778    2.7584 C   0  0  0  0  0  0  0  0  0  0  0  0
   -5.5889    3.3260    2.4170 C   0  0  0  0  0  0  0  0  0  0  0  0
   -6.2947    2.7278    1.3938 C   0  0  0  0  0  0  0  0  0  0  0  0
   -5.7869    1.6062    0.7295 C   0  0  0  0  0  0  0  0  0  0  0  0
   -6.6137    1.0424   -0.3449 C   0  0  0  0  0  0  0  0  0  0  0  0
   -3.1678   -1.0509   -1.5465 C   0  0  0  0  0  0  0  0  0  0  0  0
   -1.7236   -1.1254   -1.9484 C   0  0  0  0  0  0  0  0  0  0  0  0
   -1.8942   -3.0331    1.3619 N   0  0  0  0  0  0  0  0  0  0  0  0
   -2.5131   -4.1880    1.6892 C   0  0  0  0  0  0  0  0  0  0  0  0
   -2.3005   -5.3489    1.0254 N   0  0  0  0  0  0  0  0  0  0  0  0
   -1.5015   -8.4486   -1.1891 H   0  0  0  0  0  0  0  0  0  0  0  0
   -2.8993   -7.5144   -0.4349 H   0  0  0  0  0  0  0  0  0  0  0  0
   -1.4745   -8.0653    0.5782 H   0  0  0  0  0  0  0  0  0  0  0  0
   -0.1040   -4.1416   -1.1593 H   0  0  0  0  0  0  0  0  0  0  0  0
    2.5392    1.3461   -2.1738 H   0  0  0  0  0  0  0  0  0  0  0  0
    4.6272    2.5138   -1.9714 H   0  0  0  0  0  0  0  0  0  0  0  0
    7.2647    1.9019    1.8883 H   0  0  0  0  0  0  0  0  0  0  0  0
    9.2799    3.3763    1.4711 H   0  0  0  0  0  0  0  0  0  0  0  0
   11.1897    6.0171   -0.2250 H   0  0  0  0  0  0  0  0  0  0  0  0
    5.3643    0.7642    1.8035 H   0  0  0  0  0  0  0  0  0  0  0  0
    3.2186   -0.4630    1.6382 H   0  0  0  0  0  0  0  0  0  0  0  0
   -1.5353    0.3217    0.8994 H   0  0  0  0  0  0  0  0  0  0  0  0
   -0.5156    1.3650   -0.1066 H   0  0  0  0  0  0  0  0  0  0  0  0
   -2.0903    1.1503   -2.0066 H   0  0  0  0  0  0  0  0  0  0  0  0
   -2.7011    2.1221   -0.6586 H   0  0  0  0  0  0  0  0  0  0  0  0
   -4.9128   -0.7970    0.2611 H   0  0  0  0  0  0  0  0  0  0  0  0
   -3.3232   -0.6511    1.0241 H   0  0  0  0  0  0  0  0  0  0  0  0
   -3.7900    3.2394    3.5709 H   0  0  0  0  0  0  0  0  0  0  0  0
   -5.9599    4.1918    2.9440 H   0  0  0  0  0  0  0  0  0  0  0  0
   -7.2434    3.1441    1.1199 H   0  0  0  0  0  0  0  0  0  0  0  0
   -6.1544    1.2457   -1.3271 H   0  0  0  0  0  0  0  0  0  0  0  0
   -6.7432   -0.0694   -0.2338 H   0  0  0  0  0  0  0  0  0  0  0  0
   -7.6490    1.4417   -0.3323 H   0  0  0  0  0  0  0  0  0  0  0  0
   -3.4172   -1.9484   -0.9343 H   0  0  0  0  0  0  0  0  0  0  0  0
   -3.7714   -1.1520   -2.4877 H   0  0  0  0  0  0  0  0  0  0  0  0
   -1.5535   -0.5964   -2.9129 H   0  0  0  0  0  0  0  0  0  0  0  0
   -1.4993   -2.1998   -2.1628 H   0  0  0  0  0  0  0  0  0  0  0  0
   -3.2205   -4.2278    2.5161 H   0  0  0  0  0  0  0  0  0  0  0  0
  1  2  1  0
  2  3  1  0
  3  4  2  0
  4  5  1  0
  5  6  1  0
  6  7  1  0
  7  8  2  0
  7  9  1  0
  9 10  1  0
 10 11  2  0
 11 12  1  0
 12 13  2  0
 13 14  1  0
 14 15  2  0
 15 16  1  0
 16 17  2  0
 17 18  1  0
 18 19  2  0
 18 20  1  0
 17 21  1  0
 13 22  1  0
 22 23  2  0
  9 24  1  0
 24 25  2  0
 24 26  1  0
 26 27  1  0
 27 28  1  0
 28 29  1  0
 29 30  1  0
 30 31  1  0
 31 32  2  0
 32 33  1  0
 33 34  2  0
 34 35  1  0
 35 36  2  0
 36 37  1  0
 29 38  1  0
 38 39  1  0
  5 40  2  0
 40 41  1  0
 41 42  2  0
 42  3  1  0
 26  6  1  0
 36 31  1  0
 23 10  1  0
 39 26  1  0
 21 14  1  0
  1 43  1  0
  1 44  1  0
  1 45  1  0
  4 46  1  0
 11 47  1  0
 12 48  1  0
 15 49  1  0
 16 50  1  0
 20 51  1  0
 22 52  1  0
 23 53  1  0
 27 54  1  0
 27 55  1  0
 28 56  1  0
 28 57  1  0
 30 58  1  0
 30 59  1  0
 33 60  1  0
 34 61  1  0
 35 62  1  0
 37 63  1  0
 37 64  1  0
 37 65  1  0
 38 66  1  0
 38 67  1  0
 39 68  1  0
 39 69  1  0
 41 70  1  0
M  END
$$$$
