
     RDKit          3D

 39 41  0  0  0  0  0  0  0  0999 V2000
   -0.4587   -0.6572    0.0897 C   0  0  1  0  0  0  0  0  0  0  0  0
   -1.0851   -1.5246   -0.9475 C   0  0  0  0  0  0  0  0  0  0  0  0
   -2.3489   -2.1022   -0.5388 N   0  0  0  0  0  0  0  0  0  0  0  0
   -3.5382   -1.4707   -0.7584 C   0  0  0  0  0  0  0  0  0  0  0  0
   -4.5227   -2.2781   -0.2624 C   0  0  0  0  0  0  0  0  0  0  0  0
   -3.9785   -3.3794    0.2520 N   0  0  0  0  0  0  0  0  0  0  0  0
   -2.6651   -3.2747    0.0858 C   0  0  0  0  0  0  0  0  0  0  0  0
    0.7546   -0.1057   -0.3030 O   0  0  0  0  0  0  0  0  0  0  0  0
    1.8338   -0.5055    0.4660 C   0  0  0  0  0  0  0  0  0  0  0  0
    3.1017    0.1172   -0.0026 C   0  0  0  0  0  0  0  0  0  0  0  0
    3.8931   -0.5038   -0.9609 C   0  0  0  0  0  0  0  0  0  0  0  0
    5.0595    0.0162   -1.4269 C   0  0  0  0  0  0  0  0  0  0  0  0
    5.4734    1.2419   -0.9058 C   0  0  0  0  0  0  0  0  0  0  0  0
    6.9695    1.9404   -1.4827 Cl  0  0  0  0  0  0  0  0  0  0  0  0
    4.7325    1.9187    0.0544 C   0  0  0  0  0  0  0  0  0  0  0  0
    3.5674    1.3304    0.4745 C   0  0  0  0  0  0  0  0  0  0  0  0
   -1.3102    0.4398    0.5559 C   0  0  0  0  0  0  0  0  0  0  0  0
   -2.1405    0.4745    1.6580 C   0  0  0  0  0  0  0  0  0  0  0  0
   -2.1785   -0.9558    2.6356 Cl  0  0  0  0  0  0  0  0  0  0  0  0
   -2.8977    1.5822    1.9766 C   0  0  0  0  0  0  0  0  0  0  0  0
   -2.8137    2.6857    1.1592 C   0  0  0  0  0  0  0  0  0  0  0  0
   -3.7931    4.0697    1.6022 Cl  0  0  0  0  0  0  0  0  0  0  0  0
   -2.0087    2.7336    0.0391 C   0  0  0  0  0  0  0  0  0  0  0  0
   -1.2722    1.5803   -0.2226 C   0  0  0  0  0  0  0  0  0  0  0  0
   -0.2273   -1.3056    0.9613 H   0  0  0  0  0  0  0  0  0  0  0  0
   -1.2349   -0.9773   -1.9258 H   0  0  0  0  0  0  0  0  0  0  0  0
   -0.4511   -2.3881   -1.2365 H   0  0  0  0  0  0  0  0  0  0  0  0
   -3.6960   -0.5054   -1.2367 H   0  0  0  0  0  0  0  0  0  0  0  0
   -5.5873   -2.0777   -0.2731 H   0  0  0  0  0  0  0  0  0  0  0  0
   -1.8128   -3.9213    0.3421 H   0  0  0  0  0  0  0  0  0  0  0  0
    1.7006   -0.1241    1.5015 H   0  0  0  0  0  0  0  0  0  0  0  0
    1.9334   -1.5873    0.3893 H   0  0  0  0  0  0  0  0  0  0  0  0
    3.5352   -1.4686   -1.3489 H   0  0  0  0  0  0  0  0  0  0  0  0
    5.6294   -0.5207   -2.1762 H   0  0  0  0  0  0  0  0  0  0  0  0
    5.0494    2.8737    0.4643 H   0  0  0  0  0  0  0  0  0  0  0  0
    2.9195    1.7959    1.2307 H   0  0  0  0  0  0  0  0  0  0  0  0
   -3.5344    1.5634    2.8503 H   0  0  0  0  0  0  0  0  0  0  0  0
   -1.9522    3.6063   -0.5937 H   0  0  0  0  0  0  0  0  0  0  0  0
   -0.6453    1.6638   -1.1243 H   0  0  0  0  0  0  0  0  0  0  0  0
  1  2  1  0
  2  3  1  0
  3  4  1  0
  4  5  2  0
  5  6  1  0
  6  7  2  0
  1  8  1  0
  8  9  1  0
  9 10  1  0
 10 11  2  0
 11 12  1  0
 12 13  2  0
 13 14  1  0
 13 15  1  0
 15 16  2  0
  1 17  1  0
 17 18  2  0
 18 19  1  0
 18 20  1  0
 20 21  2  0
 21 22  1  0
 21 23  1  0
 23 24  2  0
  7  3  1  0
 16 10  1  0
 24 17  1  0
  1 25  1  1
  2 26  1  0
  2 27  1  0
  4 28  1  0
  5 29  1  0
  7 30  1  0
  9 31  1  0
  9 32  1  0
 11 33  1  0
 12 34  1  0
 15 35  1  0
 16 36  1  0
 20 37  1  0
 23 38  1  0
 24 39  1  0
M  END
$$$$
