
     RDKit          3D

 58 61  0  0  0  0  0  0  0  0999 V2000
    6.5822    1.2062   -3.0275 C   0  0  0  0  0  0  0  0  0  0  0  0
    5.5855    0.6559   -2.2285 O   0  0  0  0  0  0  0  0  0  0  0  0
    5.9969    0.6368   -0.9178 C   0  0  0  0  0  0  0  0  0  0  0  0
    4.8916    0.0331   -0.0747 C   0  0  2  0  0  0  0  0  0  0  0  0
    5.4518   -0.0839    1.3407 C   0  0  0  0  0  0  0  0  0  0  0  0
    5.8799   -1.5569    1.3777 C   0  0  0  0  0  0  0  0  0  0  0  0
    4.7286   -2.1809    0.5780 C   0  0  0  0  0  0  0  0  0  0  0  0
    4.6410   -1.2950   -0.5366 N   0  0  0  0  0  0  0  0  0  0  0  0
    3.1948   -1.4488   -1.4373 S   0  0  0  0  0  6  0  0  0  0  0  0
    3.0812   -2.8463   -1.9767 O   0  0  0  0  0  0  0  0  0  0  0  0
    3.2543   -0.5275   -2.6227 O   0  0  0  0  0  0  0  0  0  0  0  0
    1.7721   -1.0980   -0.5279 C   0  0  0  0  0  0  0  0  0  0  0  0
    1.2928    0.1948   -0.4935 C   0  0  0  0  0  0  0  0  0  0  0  0
    0.1601    0.5532    0.2124 C   0  0  0  0  0  0  0  0  0  0  0  0
   -0.5083   -0.4348    0.9066 C   0  0  0  0  0  0  0  0  0  0  0  0
   -0.0345   -1.7514    0.8816 C   0  0  0  0  0  0  0  0  0  0  0  0
    1.0938   -2.0732    0.1704 C   0  0  0  0  0  0  0  0  0  0  0  0
   -0.9126   -2.6068    1.6927 C   0  0  0  0  0  0  0  0  0  0  0  0
   -0.7786   -3.8341    1.8841 O   0  0  0  0  0  0  0  0  0  0  0  0
   -1.9395   -1.7105    2.2009 C   0  0  0  0  0  0  0  0  0  0  0  0
   -2.8922   -2.0426    2.9426 O   0  0  0  0  0  0  0  0  0  0  0  0
   -1.6740   -0.4044    1.7125 N   0  0  0  0  0  0  0  0  0  0  0  0
   -2.4994    0.7438    2.0241 C   0  0  0  0  0  0  0  0  0  0  0  0
   -3.6132    0.9319    1.0603 C   0  0  0  0  0  0  0  0  0  0  0  0
   -4.8395    0.3417    1.2521 C   0  0  0  0  0  0  0  0  0  0  0  0
   -5.8702    0.5389    0.3256 C   0  0  0  0  0  0  0  0  0  0  0  0
   -5.7253    1.3130   -0.8003 C   0  0  0  0  0  0  0  0  0  0  0  0
   -6.6915    1.5427   -1.7317 O   0  0  0  0  0  0  0  0  0  0  0  0
   -7.9926    1.1684   -1.8686 C   0  0  0  0  0  0  0  0  0  0  0  0
   -8.9002    1.7028   -0.8003 C   0  0  0  0  0  0  0  0  0  0  0  0
  -10.6910    1.0588   -1.1738 Br  0  0  0  0  0  0  0  0  0  0  0  0
   -4.4584    1.9090   -0.9775 C   0  0  0  0  0  0  0  0  0  0  0  0
   -3.4528    1.7098   -0.0638 C   0  0  0  0  0  0  0  0  0  0  0  0
    6.7529    2.2371   -2.6532 H   0  0  0  0  0  0  0  0  0  0  0  0
    6.2141    1.1792   -4.0712 H   0  0  0  0  0  0  0  0  0  0  0  0
    7.4936    0.5700   -2.8820 H   0  0  0  0  0  0  0  0  0  0  0  0
    6.2925    1.6414   -0.5290 H   0  0  0  0  0  0  0  0  0  0  0  0
    6.8569   -0.0903   -0.8533 H   0  0  0  0  0  0  0  0  0  0  0  0
    3.9827    0.6787   -0.0755 H   0  0  0  0  0  0  0  0  0  0  0  0
    6.3381    0.5292    1.5005 H   0  0  0  0  0  0  0  0  0  0  0  0
    4.6703    0.0477    2.1070 H   0  0  0  0  0  0  0  0  0  0  0  0
    5.9356   -1.9469    2.3952 H   0  0  0  0  0  0  0  0  0  0  0  0
    6.8291   -1.6600    0.8002 H   0  0  0  0  0  0  0  0  0  0  0  0
    3.8479   -2.1417    1.2538 H   0  0  0  0  0  0  0  0  0  0  0  0
    5.0422   -3.2039    0.3360 H   0  0  0  0  0  0  0  0  0  0  0  0
    1.7885    1.0189   -1.0296 H   0  0  0  0  0  0  0  0  0  0  0  0
   -0.2003    1.5737    0.2287 H   0  0  0  0  0  0  0  0  0  0  0  0
    1.4365   -3.1207    0.1744 H   0  0  0  0  0  0  0  0  0  0  0  0
   -2.9682    0.5891    3.0331 H   0  0  0  0  0  0  0  0  0  0  0  0
   -1.8772    1.6833    2.0685 H   0  0  0  0  0  0  0  0  0  0  0  0
   -4.9927   -0.2777    2.1320 H   0  0  0  0  0  0  0  0  0  0  0  0
   -6.8166    0.0296    0.5181 H   0  0  0  0  0  0  0  0  0  0  0  0
   -8.3944    1.3933   -2.8910 H   0  0  0  0  0  0  0  0  0  0  0  0
   -8.0204    0.0307   -1.8047 H   0  0  0  0  0  0  0  0  0  0  0  0
   -8.9490    2.8141   -0.9102 H   0  0  0  0  0  0  0  0  0  0  0  0
   -8.5876    1.3879    0.1840 H   0  0  0  0  0  0  0  0  0  0  0  0
   -4.3351    2.5181   -1.8591 H   0  0  0  0  0  0  0  0  0  0  0  0
   -2.4723    2.1734   -0.2027 H   0  0  0  0  0  0  0  0  0  0  0  0
  1  2  1  0
  2  3  1  0
  3  4  1  0
  4  5  1  0
  5  6  1  0
  6  7  1  0
  7  8  1  0
  8  9  1  0
  9 10  2  0
  9 11  2  0
  9 12  1  0
 12 13  2  0
 13 14  1  0
 14 15  2  0
 15 16  1  0
 16 17  2  0
 16 18  1  0
 18 19  2  0
 18 20  1  0
 20 21  2  0
 20 22  1  0
 22 23  1  0
 23 24  1  0
 24 25  2  0
 25 26  1  0
 26 27  2  0
 27 28  1  0
 28 29  1  0
 29 30  1  0
 30 31  1  0
 27 32  1  0
 32 33  2  0
  8  4  1  0
 17 12  1  0
 33 24  1  0
 22 15  1  0
  1 34  1  0
  1 35  1  0
  1 36  1  0
  3 37  1  0
  3 38  1  0
  4 39  1  1
  5 40  1  0
  5 41  1  0
  6 42  1  0
  6 43  1  0
  7 44  1  0
  7 45  1  0
 13 46  1  0
 14 47  1  0
 17 48  1  0
 23 49  1  0
 23 50  1  0
 25 51  1  0
 26 52  1  0
 29 53  1  0
 29 54  1  0
 30 55  1  0
 30 56  1  0
 32 57  1  0
 33 58  1  0
M  END
$$$$
