
     RDKit          3D

 40 43  0  0  0  0  0  0  0  0999 V2000
    7.5183    0.0621   -1.1312 Cl  0  0  0  0  0  0  0  0  0  0  0  0
    5.9005    0.4482   -0.5017 C   0  0  0  0  0  0  0  0  0  0  0  0
    4.8296    0.2016   -1.3308 C   0  0  0  0  0  0  0  0  0  0  0  0
    3.5367    0.4927   -0.9120 C   0  0  0  0  0  0  0  0  0  0  0  0
    3.3731    1.0365    0.3641 C   0  0  0  0  0  0  0  0  0  0  0  0
    2.0981    1.3588    0.9081 N   0  0  0  0  0  0  0  0  0  0  0  0
    0.8776    1.0303    0.2376 C   0  0  0  0  0  0  0  0  0  0  0  0
    0.0602    1.9005   -0.3961 N   0  0  0  0  0  0  0  0  0  0  0  0
   -1.0544    1.5830   -1.0035 N   0  0  0  0  0  0  0  0  0  0  0  0
   -1.5431    0.3093   -1.0767 C   0  0  0  0  0  0  0  0  0  0  0  0
   -2.8019    0.1057   -1.7643 C   0  0  0  0  0  0  0  0  0  0  0  0
   -3.9093    0.0522   -0.7871 C   0  0  0  0  0  0  0  0  0  0  0  0
   -4.7375   -0.9305   -0.2508 C   0  0  0  0  0  0  0  0  0  0  0  0
   -5.6721   -0.5715    0.6938 C   0  0  0  0  0  0  0  0  0  0  0  0
   -5.8710    0.6681    1.1628 N   0  0  0  0  0  0  0  0  0  0  0  0
   -5.1072    1.6757    0.6888 C   0  0  0  0  0  0  0  0  0  0  0  0
   -4.1425    1.3508   -0.2752 C   0  0  0  0  0  0  0  0  0  0  0  0
   -0.7295   -0.5918   -0.4419 C   0  0  0  0  0  0  0  0  0  0  0  0
   -1.1554   -1.9185   -0.4667 C   0  0  0  0  0  0  0  0  0  0  0  0
   -0.3566   -2.8638    0.1669 C   0  0  0  0  0  0  0  0  0  0  0  0
    0.8251   -2.5504    0.8105 C   0  0  0  0  0  0  0  0  0  0  0  0
    1.2368   -1.2111    0.8274 C   0  0  0  0  0  0  0  0  0  0  0  0
    0.4407   -0.2892    0.2015 C   0  0  0  0  0  0  0  0  0  0  0  0
    4.4993    1.2614    1.1532 C   0  0  0  0  0  0  0  0  0  0  0  0
    5.7675    0.9764    0.7438 C   0  0  0  0  0  0  0  0  0  0  0  0
    4.9319   -0.2269   -2.3144 H   0  0  0  0  0  0  0  0  0  0  0  0
    2.6457    0.3315   -1.4997 H   0  0  0  0  0  0  0  0  0  0  0  0
    2.0472    1.8662    1.8404 H   0  0  0  0  0  0  0  0  0  0  0  0
   -2.9946    0.9894   -2.4208 H   0  0  0  0  0  0  0  0  0  0  0  0
   -2.8195   -0.7420   -2.4802 H   0  0  0  0  0  0  0  0  0  0  0  0
   -4.4903   -1.8751   -0.7035 H   0  0  0  0  0  0  0  0  0  0  0  0
   -6.2598   -1.4101    1.0521 H   0  0  0  0  0  0  0  0  0  0  0  0
   -5.2276    2.6860    1.0447 H   0  0  0  0  0  0  0  0  0  0  0  0
   -3.5879    2.2512   -0.6004 H   0  0  0  0  0  0  0  0  0  0  0  0
   -2.0775   -2.1750   -0.9662 H   0  0  0  0  0  0  0  0  0  0  0  0
   -0.6473   -3.9216    0.1754 H   0  0  0  0  0  0  0  0  0  0  0  0
    1.4762   -3.2796    1.3118 H   0  0  0  0  0  0  0  0  0  0  0  0
    2.1532   -0.9319    1.3189 H   0  0  0  0  0  0  0  0  0  0  0  0
    4.3581    1.6814    2.1447 H   0  0  0  0  0  0  0  0  0  0  0  0
    6.6089    1.1702    1.4133 H   0  0  0  0  0  0  0  0  0  0  0  0
  1  2  1  0
  2  3  2  0
  3  4  1  0
  4  5  2  0
  5  6  1  0
  6  7  1  0
  7  8  2  0
  8  9  1  0
  9 10  2  0
 10 11  1  0
 11 12  1  0
 12 13  2  0
 13 14  1  0
 14 15  2  0
 15 16  1  0
 16 17  2  0
 10 18  1  0
 18 19  2  0
 19 20  1  0
 20 21  2  0
 21 22  1  0
 22 23  2  0
  5 24  1  0
 24 25  2  0
 25  2  1  0
 23  7  1  0
 17 12  1  0
 23 18  1  0
  3 26  1  0
  4 27  1  0
  6 28  1  0
 11 29  1  0
 11 30  1  0
 13 31  1  0
 14 32  1  0
 16 33  1  0
 17 34  1  0
 19 35  1  0
 20 36  1  0
 21 37  1  0
 22 38  1  0
 24 39  1  0
 25 40  1  0
M  END
$$$$
