
     RDKit          3D

 54 57  0  0  0  0  0  0  0  0999 V2000
   -1.7508   -1.1570    2.1701 C   0  0  0  0  0  0  0  0  0  0  0  0
   -1.1601   -0.6097    0.9207 C   0  0  1  0  0  0  0  0  0  0  0  0
    0.1171   -1.2784    0.5741 C   0  0  0  0  0  0  0  0  0  0  0  0
    1.2713   -0.5267    0.5003 C   0  0  0  0  0  0  0  0  0  0  0  0
    2.5208   -1.0865    0.1731 C   0  0  0  0  0  0  0  0  0  0  0  0
    3.6426   -0.2333    0.1239 N   0  0  0  0  0  0  0  0  0  0  0  0
    4.9529   -0.6339   -0.1865 C   0  0  0  0  0  0  0  0  0  0  0  0
    5.2027   -1.8304   -0.4487 O   0  0  0  0  0  0  0  0  0  0  0  0
    6.0663    0.3356   -0.2129 C   0  0  0  0  0  0  0  0  0  0  0  0
    7.3342   -0.0785   -0.5181 C   0  0  0  0  0  0  0  0  0  0  0  0
    8.3973    0.8348   -0.5453 C   0  0  0  0  0  0  0  0  0  0  0  0
    8.1410    2.1593   -0.2584 C   0  0  0  0  0  0  0  0  0  0  0  0
    9.4506    3.3557   -0.2790 Cl  0  0  0  0  0  0  0  0  0  0  0  0
    6.8541    2.5430    0.0447 C   0  0  0  0  0  0  0  0  0  0  0  0
    5.8489    1.6222    0.0600 N   0  0  0  0  0  0  0  0  0  0  0  0
    2.4962   -2.4291   -0.0643 C   0  0  0  0  0  0  0  0  0  0  0  0
    1.3418   -3.2190    0.0027 C   0  0  0  0  0  0  0  0  0  0  0  0
    0.1427   -2.6285    0.3265 C   0  0  0  0  0  0  0  0  0  0  0  0
   -1.0132   -3.3151    0.4172 F   0  0  0  0  0  0  0  0  0  0  0  0
   -2.0592   -0.6917   -0.2734 C   0  0  0  0  0  0  0  0  0  0  0  0
   -3.3447    0.0788   -0.1301 C   0  0  0  0  0  0  0  0  0  0  0  0
   -3.7815    0.7093   -1.4536 C   0  0  0  0  0  0  0  0  0  0  0  0
   -5.2604    0.6209   -1.6481 C   0  0  0  0  0  0  0  0  0  0  0  0
   -6.0569    0.7932   -0.3879 C   0  0  0  0  0  0  0  0  0  0  0  0
   -7.3722    0.4175   -0.6944 F   0  0  0  0  0  0  0  0  0  0  0  0
   -6.1308    2.1276   -0.0082 F   0  0  0  0  0  0  0  0  0  0  0  0
   -5.6107   -0.0932    0.7362 C   0  0  0  0  0  0  0  0  0  0  0  0
   -4.4322   -0.9029    0.2466 C   0  0  0  0  0  0  0  0  0  0  0  0
   -3.2257    1.1517    0.7875 O   0  0  0  0  0  0  0  0  0  0  0  0
   -1.9502    1.6105    1.0687 C   0  0  0  0  0  0  0  0  0  0  0  0
   -1.7299    3.0193    1.2887 N   0  0  0  0  0  0  0  0  0  0  0  0
   -0.9296    0.8281    1.1456 N   0  0  0  0  0  0  0  0  0  0  0  0
   -2.0989   -2.1887    2.1248 H   0  0  0  0  0  0  0  0  0  0  0  0
   -2.6508   -0.5265    2.4250 H   0  0  0  0  0  0  0  0  0  0  0  0
   -1.0416   -0.9679    3.0142 H   0  0  0  0  0  0  0  0  0  0  0  0
    1.2531    0.5448    0.6967 H   0  0  0  0  0  0  0  0  0  0  0  0
    3.5196    0.8192    0.3369 H   0  0  0  0  0  0  0  0  0  0  0  0
    7.5693   -1.1196   -0.7497 H   0  0  0  0  0  0  0  0  0  0  0  0
    9.4020    0.5115   -0.7863 H   0  0  0  0  0  0  0  0  0  0  0  0
    6.6798    3.5792    0.2644 H   0  0  0  0  0  0  0  0  0  0  0  0
    3.3763   -2.9516   -0.3179 H   0  0  0  0  0  0  0  0  0  0  0  0
    1.3710   -4.2728   -0.1925 H   0  0  0  0  0  0  0  0  0  0  0  0
   -2.2480   -1.7163   -0.6226 H   0  0  0  0  0  0  0  0  0  0  0  0
   -1.5006   -0.1900   -1.1189 H   0  0  0  0  0  0  0  0  0  0  0  0
   -3.2781    0.2023   -2.3065 H   0  0  0  0  0  0  0  0  0  0  0  0
   -3.4188    1.7765   -1.5060 H   0  0  0  0  0  0  0  0  0  0  0  0
   -5.5630   -0.2954   -2.2040 H   0  0  0  0  0  0  0  0  0  0  0  0
   -5.5520    1.4738   -2.3253 H   0  0  0  0  0  0  0  0  0  0  0  0
   -5.2185    0.5757    1.5515 H   0  0  0  0  0  0  0  0  0  0  0  0
   -6.4060   -0.6930    1.1829 H   0  0  0  0  0  0  0  0  0  0  0  0
   -4.1153   -1.6914    0.9259 H   0  0  0  0  0  0  0  0  0  0  0  0
   -4.7717   -1.4235   -0.6967 H   0  0  0  0  0  0  0  0  0  0  0  0
   -2.0693    3.5150    2.1385 H   0  0  0  0  0  0  0  0  0  0  0  0
   -1.2111    3.5452    0.5619 H   0  0  0  0  0  0  0  0  0  0  0  0
  2  1  1  1
  2  3  1  0
  3  4  2  0
  4  5  1  0
  5  6  1  0
  6  7  1  0
  7  8  2  0
  7  9  1  0
  9 10  2  0
 10 11  1  0
 11 12  2  0
 12 13  1  0
 12 14  1  0
 14 15  2  0
  5 16  2  0
 16 17  1  0
 17 18  2  0
 18 19  1  0
  2 20  1  0
 20 21  1  0
 21 22  1  0
 22 23  1  0
 23 24  1  0
 24 25  1  0
 24 26  1  0
 24 27  1  0
 27 28  1  0
 21 29  1  0
 29 30  1  0
 30 31  1  0
 30 32  2  0
 32  2  1  0
 18  3  1  0
 28 21  1  0
 15  9  1  0
  1 33  1  0
  1 34  1  0
  1 35  1  0
  4 36  1  0
  6 37  1  0
 10 38  1  0
 11 39  1  0
 14 40  1  0
 16 41  1  0
 17 42  1  0
 20 43  1  0
 20 44  1  0
 22 45  1  0
 22 46  1  0
 23 47  1  0
 23 48  1  0
 27 49  1  0
 27 50  1  0
 28 51  1  0
 28 52  1  0
 31 53  1  0
 31 54  1  0
M  END
$$$$
