
     RDKit          3D

 31 33  0  0  0  0  0  0  0  0999 V2000
   -0.4743   -0.1218   -0.6564 C   0  0  0  0  0  0  0  0  0  0  0  0
   -1.1106    0.9212    0.1581 C   0  0  0  0  0  0  0  0  0  0  0  0
   -2.5579    0.5222    0.3708 C   0  0  0  0  0  0  0  0  0  0  0  0
   -2.9680   -0.2281    1.4615 C   0  0  0  0  0  0  0  0  0  0  0  0
   -4.3071   -0.5848    1.6161 C   0  0  0  0  0  0  0  0  0  0  0  0
   -5.2121   -0.2016    0.7056 N   0  0  0  0  0  0  0  0  0  0  0  0
   -4.8737    0.5221   -0.3639 C   0  0  0  0  0  0  0  0  0  0  0  0
   -3.5408    0.8881   -0.5361 C   0  0  0  0  0  0  0  0  0  0  0  0
    0.9346   -0.0037   -1.0074 C   0  0  0  0  0  0  0  0  0  0  0  0
    1.4681    0.4067   -2.2398 C   0  0  0  0  0  0  0  0  0  0  0  0
    2.7892    0.3839   -2.1746 N   0  0  0  0  0  0  0  0  0  0  0  0
    3.1639   -0.0241   -0.9524 C   0  0  0  0  0  0  0  0  0  0  0  0
    4.3737   -0.2341   -0.3396 C   0  0  0  0  0  0  0  0  0  0  0  0
    4.4671   -0.6777    0.9758 C   0  0  0  0  0  0  0  0  0  0  0  0
    3.3176   -0.9231    1.7147 C   0  0  0  0  0  0  0  0  0  0  0  0
    2.0762   -0.7207    1.1230 C   0  0  0  0  0  0  0  0  0  0  0  0
    2.0328   -0.2797   -0.1847 C   0  0  0  0  0  0  0  0  0  0  0  0
   -0.7042   -1.1145   -0.1526 H   0  0  0  0  0  0  0  0  0  0  0  0
   -1.0508   -0.1905   -1.6289 H   0  0  0  0  0  0  0  0  0  0  0  0
   -1.2114    1.9083   -0.3337 H   0  0  0  0  0  0  0  0  0  0  0  0
   -0.6953    0.9297    1.1668 H   0  0  0  0  0  0  0  0  0  0  0  0
   -2.1560   -0.4936    2.1530 H   0  0  0  0  0  0  0  0  0  0  0  0
   -4.4446   -1.1586    2.5039 H   0  0  0  0  0  0  0  0  0  0  0  0
   -5.6542    0.7912   -1.0508 H   0  0  0  0  0  0  0  0  0  0  0  0
   -3.3171    1.4638   -1.3976 H   0  0  0  0  0  0  0  0  0  0  0  0
    0.8510    0.6832   -3.0661 H   0  0  0  0  0  0  0  0  0  0  0  0
    3.4878    0.6348   -2.9275 H   0  0  0  0  0  0  0  0  0  0  0  0
    5.3197   -0.0612   -0.8665 H   0  0  0  0  0  0  0  0  0  0  0  0
    5.4210   -0.8537    1.4859 H   0  0  0  0  0  0  0  0  0  0  0  0
    3.3786   -1.2699    2.7402 H   0  0  0  0  0  0  0  0  0  0  0  0
    1.1968   -0.9139    1.7033 H   0  0  0  0  0  0  0  0  0  0  0  0
  1  2  1  0
  2  3  1  0
  3  4  2  0
  4  5  1  0
  5  6  2  0
  6  7  1  0
  7  8  2  0
  1  9  1  0
  9 10  2  0
 10 11  1  0
 11 12  1  0
 12 13  2  0
 13 14  1  0
 14 15  2  0
 15 16  1  0
 16 17  2  0
  8  3  1  0
 17  9  1  0
 17 12  1  0
  1 18  1  0
  1 19  1  0
  2 20  1  0
  2 21  1  0
  4 22  1  0
  5 23  1  0
  7 24  1  0
  8 25  1  0
 10 26  1  0
 11 27  1  0
 13 28  1  0
 14 29  1  0
 15 30  1  0
 16 31  1  0
M  END
$$$$
