
     RDKit          3D

 49 52  0  0  0  0  0  0  0  0999 V2000
   -1.9688   -1.9022   -0.0718 O   0  0  0  0  0  0  0  0  0  0  0  0
   -1.6729   -0.7202    0.1651 C   0  0  0  0  0  0  0  0  0  0  0  0
   -0.2966   -0.4548    0.6321 C   0  0  0  0  0  0  0  0  0  0  0  0
    0.5339   -1.6982    0.7562 C   0  0  0  0  0  0  0  0  0  0  0  0
    1.9114   -1.4007    1.2275 C   0  0  0  0  0  0  0  0  0  0  0  0
    2.4481   -1.5934    2.4876 C   0  0  0  0  0  0  0  0  0  0  0  0
    3.7108   -1.1775    2.4315 N   0  0  0  0  0  0  0  0  0  0  0  0
    3.9974   -0.7381    1.2199 N   0  0  0  0  0  0  0  0  0  0  0  0
    2.9100   -0.8605    0.4489 C   0  0  0  0  0  0  0  0  0  0  0  0
    2.9100   -0.4760   -0.8866 C   0  0  0  0  0  0  0  0  0  0  0  0
    4.0850    0.0400   -1.3857 C   0  0  0  0  0  0  0  0  0  0  0  0
    5.2029    0.1664   -0.5947 C   0  0  0  0  0  0  0  0  0  0  0  0
    6.3978    0.6905   -1.0947 C   0  0  0  0  0  0  0  0  0  0  0  0
    7.5205    0.8206   -0.3060 C   0  0  0  0  0  0  0  0  0  0  0  0
    8.7181    1.3421   -0.7938 O   0  0  0  0  0  0  0  0  0  0  0  0
    7.4616    0.4231    1.0100 C   0  0  0  0  0  0  0  0  0  0  0  0
    6.2797   -0.0982    1.5143 C   0  0  0  0  0  0  0  0  0  0  0  0
    5.1534   -0.2293    0.7248 C   0  0  0  0  0  0  0  0  0  0  0  0
   -2.6210    0.3162   -0.0085 N   0  0  0  0  0  0  0  0  0  0  0  0
   -3.9447    0.1810   -0.4424 C   0  0  0  0  0  0  0  0  0  0  0  0
   -4.7483    1.2240   -0.5703 C   0  0  0  0  0  0  0  0  0  0  0  0
   -4.3718    2.5699   -0.2889 C   0  0  0  0  0  0  0  0  0  0  0  0
   -3.2828    2.9705    0.1034 O   0  0  0  0  0  0  0  0  0  0  0  0
   -5.3474    3.5794   -0.4754 O   0  0  0  0  0  0  0  0  0  0  0  0
   -6.1794    0.9448   -1.0582 C   0  0  0  0  0  0  0  0  0  0  0  0
   -6.8189   -0.1339   -0.2425 C   0  0  0  0  0  0  0  0  0  0  0  0
   -5.8399   -1.2477    0.0805 C   0  0  0  0  0  0  0  0  0  0  0  0
   -4.5967   -1.1172   -0.8024 C   0  0  0  0  0  0  0  0  0  0  0  0
   -0.3702    0.0039    1.6398 H   0  0  0  0  0  0  0  0  0  0  0  0
    0.1914    0.2962   -0.0205 H   0  0  0  0  0  0  0  0  0  0  0  0
    0.6306   -2.1530   -0.2537 H   0  0  0  0  0  0  0  0  0  0  0  0
    0.1203   -2.4514    1.4200 H   0  0  0  0  0  0  0  0  0  0  0  0
    1.8850   -2.0099    3.3158 H   0  0  0  0  0  0  0  0  0  0  0  0
    2.0040   -0.5887   -1.4920 H   0  0  0  0  0  0  0  0  0  0  0  0
    4.1174    0.3458   -2.4128 H   0  0  0  0  0  0  0  0  0  0  0  0
    6.4582    1.0018   -2.1092 H   0  0  0  0  0  0  0  0  0  0  0  0
    8.7582    2.2482   -1.2572 H   0  0  0  0  0  0  0  0  0  0  0  0
    8.3259    0.5127    1.6549 H   0  0  0  0  0  0  0  0  0  0  0  0
    6.2681   -0.3966    2.5387 H   0  0  0  0  0  0  0  0  0  0  0  0
   -2.2100    1.2620    0.2359 H   0  0  0  0  0  0  0  0  0  0  0  0
   -5.0947    4.5453   -0.4141 H   0  0  0  0  0  0  0  0  0  0  0  0
   -6.1201    0.6576   -2.1183 H   0  0  0  0  0  0  0  0  0  0  0  0
   -6.7354    1.8815   -0.9857 H   0  0  0  0  0  0  0  0  0  0  0  0
   -7.6872   -0.5121   -0.8217 H   0  0  0  0  0  0  0  0  0  0  0  0
   -7.2153    0.3248    0.6867 H   0  0  0  0  0  0  0  0  0  0  0  0
   -5.5591   -1.1614    1.1479 H   0  0  0  0  0  0  0  0  0  0  0  0
   -6.3049   -2.2318   -0.1171 H   0  0  0  0  0  0  0  0  0  0  0  0
   -4.9945   -0.9887   -1.8427 H   0  0  0  0  0  0  0  0  0  0  0  0
   -4.0192   -2.0069   -0.6695 H   0  0  0  0  0  0  0  0  0  0  0  0
  1  2  2  0
  2  3  1  0
  3  4  1  0
  4  5  1  0
  5  6  1  0
  6  7  2  0
  7  8  1  0
  8  9  1  0
  9 10  1  0
 10 11  2  0
 11 12  1  0
 12 13  2  0
 13 14  1  0
 14 15  1  0
 14 16  2  0
 16 17  1  0
 17 18  2  0
  2 19  1  0
 19 20  1  0
 20 21  2  0
 21 22  1  0
 22 23  2  0
 22 24  1  0
 21 25  1  0
 25 26  1  0
 26 27  1  0
 27 28  1  0
  9  5  2  0
 18 12  1  0
 28 20  1  0
 18  8  1  0
  3 29  1  0
  3 30  1  0
  4 31  1  0
  4 32  1  0
  6 33  1  0
 10 34  1  0
 11 35  1  0
 13 36  1  0
 15 37  1  0
 16 38  1  0
 17 39  1  0
 19 40  1  0
 24 41  1  0
 25 42  1  0
 25 43  1  0
 26 44  1  0
 26 45  1  0
 27 46  1  0
 27 47  1  0
 28 48  1  0
 28 49  1  0
M  END
$$$$
