
     RDKit          3D

 64 68  0  0  0  0  0  0  0  0999 V2000
   10.0388    1.9291    0.8918 C   0  0  0  0  0  0  0  0  0  0  0  0
    9.4838    1.1382   -0.6237 S   0  0  0  0  0  6  0  0  0  0  0  0
    9.3632    2.2339   -1.6417 O   0  0  0  0  0  0  0  0  0  0  0  0
   10.5012    0.1099   -1.0364 O   0  0  0  0  0  0  0  0  0  0  0  0
    7.9196    0.4823   -0.2966 C   0  0  0  0  0  0  0  0  0  0  0  0
    7.7863   -0.7072    0.3706 C   0  0  0  0  0  0  0  0  0  0  0  0
    6.5943   -1.2847    0.6576 C   0  0  0  0  0  0  0  0  0  0  0  0
    5.3919   -0.6701    0.2734 C   0  0  0  0  0  0  0  0  0  0  0  0
    4.1650   -1.0793    0.4686 N   0  0  0  0  0  0  0  0  0  0  0  0
    3.1481   -0.5817    0.1574 C   0  0  0  0  0  0  0  0  0  0  0  0
    1.7225   -0.7308    0.2365 N   0  0  0  0  0  0  0  0  0  0  0  0
    0.9631   -0.5041   -0.9573 C   0  0  0  0  0  0  0  0  0  0  0  0
   -0.5341   -0.4402   -0.7463 C   0  0  0  0  0  0  0  0  0  0  0  0
   -0.9977   -0.7244    0.5495 N   0  0  0  0  0  0  0  0  0  0  0  0
   -2.2099   -1.3058    0.9298 C   0  0  0  0  0  0  0  0  0  0  0  0
   -2.3943   -1.5675    2.2110 O   0  0  0  0  0  0  0  0  0  0  0  0
   -3.3521   -1.6747    0.0909 C   0  0  2  0  0  0  0  0  0  0  0  0
   -3.0544   -2.6706   -0.9859 C   0  0  0  0  0  0  0  0  0  0  0  0
   -4.4014   -3.3770   -1.3322 C   0  0  0  0  0  0  0  0  0  0  0  0
   -5.4845   -2.3172   -1.2663 C   0  0  0  0  0  0  0  0  0  0  0  0
   -4.9608   -0.9361   -1.6072 C   0  0  0  0  0  0  0  0  0  0  0  0
   -3.9407   -0.4487   -0.5841 C   0  0  1  0  0  0  0  0  0  0  0  0
   -4.6049    0.4417    0.3909 C   0  0  0  0  0  0  0  0  0  0  0  0
   -4.8441    0.0873    1.5610 O   0  0  0  0  0  0  0  0  0  0  0  0
   -4.9721    1.7545   -0.0568 N   0  0  0  0  0  0  0  0  0  0  0  0
   -5.6267    2.7010    0.8014 C   0  0  0  0  0  0  0  0  0  0  0  0
   -4.8879    2.9939    2.0462 C   0  0  0  0  0  0  0  0  0  0  0  0
   -4.2972    3.2241    3.0168 N   0  0  0  0  0  0  0  0  0  0  0  0
   -7.0729    2.9794    0.7447 C   0  0  0  0  0  0  0  0  0  0  0  0
   -6.1352    3.9564    0.0611 C   0  0  0  0  0  0  0  0  0  0  0  0
   -0.1200   -0.2985    1.6635 C   0  0  0  0  0  0  0  0  0  0  0  0
    1.1656   -1.0777    1.5233 C   0  0  0  0  0  0  0  0  0  0  0  0
    3.8288    0.9892   -0.7108 S   0  0  0  0  0  0  0  0  0  0  0  0
    5.5245    0.5258   -0.3991 C   0  0  0  0  0  0  0  0  0  0  0  0
    6.7522    1.1077   -0.6888 C   0  0  0  0  0  0  0  0  0  0  0  0
    9.3304    2.6899    1.1954 H   0  0  0  0  0  0  0  0  0  0  0  0
   11.0839    2.2682    0.7952 H   0  0  0  0  0  0  0  0  0  0  0  0
    9.9583    1.1005    1.6560 H   0  0  0  0  0  0  0  0  0  0  0  0
    8.7021   -1.2321    0.6956 H   0  0  0  0  0  0  0  0  0  0  0  0
    6.6081   -2.2308    1.1942 H   0  0  0  0  0  0  0  0  0  0  0  0
    1.2425   -1.3589   -1.6486 H   0  0  0  0  0  0  0  0  0  0  0  0
    1.2802    0.4169   -1.4846 H   0  0  0  0  0  0  0  0  0  0  0  0
   -0.8567    0.6256   -0.9860 H   0  0  0  0  0  0  0  0  0  0  0  0
   -0.9621   -1.0806   -1.5411 H   0  0  0  0  0  0  0  0  0  0  0  0
   -4.1871   -2.1170    0.7281 H   0  0  0  0  0  0  0  0  0  0  0  0
   -2.2763   -3.3965   -0.7677 H   0  0  0  0  0  0  0  0  0  0  0  0
   -2.8871   -2.0849   -1.9473 H   0  0  0  0  0  0  0  0  0  0  0  0
   -4.3230   -3.7438   -2.3761 H   0  0  0  0  0  0  0  0  0  0  0  0
   -4.5687   -4.1911   -0.6187 H   0  0  0  0  0  0  0  0  0  0  0  0
   -5.9633   -2.3189   -0.2663 H   0  0  0  0  0  0  0  0  0  0  0  0
   -6.2512   -2.5733   -2.0117 H   0  0  0  0  0  0  0  0  0  0  0  0
   -4.5060   -0.9445   -2.5959 H   0  0  0  0  0  0  0  0  0  0  0  0
   -5.8328   -0.2566   -1.5766 H   0  0  0  0  0  0  0  0  0  0  0  0
   -3.1316    0.0905   -1.0714 H   0  0  0  0  0  0  0  0  0  0  0  0
   -4.7516    2.0203   -1.0476 H   0  0  0  0  0  0  0  0  0  0  0  0
   -7.5403    3.4007    1.6602 H   0  0  0  0  0  0  0  0  0  0  0  0
   -7.7646    2.3721    0.1089 H   0  0  0  0  0  0  0  0  0  0  0  0
   -6.1275    3.9423   -1.0369 H   0  0  0  0  0  0  0  0  0  0  0  0
   -5.9039    4.9302    0.5684 H   0  0  0  0  0  0  0  0  0  0  0  0
    0.1451    0.7774    1.4084 H   0  0  0  0  0  0  0  0  0  0  0  0
   -0.5722   -0.4111    2.6398 H   0  0  0  0  0  0  0  0  0  0  0  0
    0.9478   -2.1669    1.5078 H   0  0  0  0  0  0  0  0  0  0  0  0
    1.8898   -0.8300    2.3222 H   0  0  0  0  0  0  0  0  0  0  0  0
    6.7599    2.0443   -1.2168 H   0  0  0  0  0  0  0  0  0  0  0  0
  1  2  1  0
  2  3  2  0
  2  4  2  0
  2  5  1  0
  5  6  2  0
  6  7  1  0
  7  8  2  0
  8  9  1  0
  9 10  2  0
 10 11  1  0
 11 12  1  0
 12 13  1  0
 13 14  1  0
 14 15  1  0
 15 16  2  0
 15 17  1  0
 17 18  1  0
 18 19  1  0
 19 20  1  0
 20 21  1  0
 21 22  1  0
 22 23  1  0
 23 24  2  0
 23 25  1  0
 25 26  1  0
 26 27  1  0
 27 28  3  0
 26 29  1  0
 29 30  1  0
 14 31  1  0
 31 32  1  0
 10 33  1  0
 33 34  1  0
 34 35  2  0
 35  5  1  0
 34  8  1  0
 32 11  1  0
 22 17  1  0
 30 26  1  0
  1 36  1  0
  1 37  1  0
  1 38  1  0
  6 39  1  0
  7 40  1  0
 12 41  1  0
 12 42  1  0
 13 43  1  0
 13 44  1  0
 17 45  1  1
 18 46  1  0
 18 47  1  0
 19 48  1  0
 19 49  1  0
 20 50  1  0
 20 51  1  0
 21 52  1  0
 21 53  1  0
 22 54  1  6
 25 55  1  0
 29 56  1  0
 29 57  1  0
 30 58  1  0
 30 59  1  0
 31 60  1  0
 31 61  1  0
 32 62  1  0
 32 63  1  0
 35 64  1  0
M  END
$$$$
