
     RDKit          3D

 62 64  0  0  0  0  0  0  0  0999 V2000
    6.0249    0.7930   -1.8104 C   0  0  1  0  0  0  0  0  0  0  0  0
    7.0744    0.0616   -1.1261 N   0  0  0  0  0  0  0  0  0  0  0  0
    4.9937    1.3086   -0.8638 C   0  0  0  0  0  0  0  0  0  0  0  0
    4.2809    0.2599   -0.0642 C   0  0  0  0  0  0  0  0  0  0  0  0
    3.5462   -0.7294   -0.8947 C   0  0  0  0  0  0  0  0  0  0  0  0
    4.2221   -1.5238   -1.8095 O   0  0  0  0  0  0  0  0  0  0  0  0
    2.3283   -1.0736   -0.9953 N   0  0  0  0  0  0  0  0  0  0  0  0
    1.2242   -0.5058   -0.2203 C   0  0  1  0  0  0  0  0  0  0  0  0
    0.3688    0.3786   -1.0927 C   0  0  0  0  0  0  0  0  0  0  0  0
   -0.9911    1.1185   -0.2482 S   0  0  0  0  0  0  0  0  0  0  0  0
   -2.3291    0.0766    0.2733 C   0  0  1  0  0  0  0  0  0  0  0  0
   -3.3254    0.9508    0.9874 C   0  0  0  0  0  0  0  0  0  0  0  0
   -2.7282    1.6061    2.0350 C   0  0  0  0  0  0  0  0  0  0  0  0
   -3.4605    2.4894    2.8377 C   0  0  0  0  0  0  0  0  0  0  0  0
   -4.7974    2.6953    2.5624 C   0  0  0  0  0  0  0  0  0  0  0  0
   -5.3898    2.0225    1.4954 C   0  0  0  0  0  0  0  0  0  0  0  0
   -4.6574    1.1590    0.7177 C   0  0  0  0  0  0  0  0  0  0  0  0
   -5.2399    0.4284   -0.3928 C   0  0  0  0  0  0  0  0  0  0  0  0
   -6.5634    0.6047   -0.7208 C   0  0  0  0  0  0  0  0  0  0  0  0
   -7.0674   -0.1055   -1.7970 C   0  0  0  0  0  0  0  0  0  0  0  0
   -6.2411   -0.9729   -2.5190 C   0  0  0  0  0  0  0  0  0  0  0  0
   -4.9207   -1.1089   -2.1426 C   0  0  0  0  0  0  0  0  0  0  0  0
   -4.3915   -0.4133   -1.0736 C   0  0  0  0  0  0  0  0  0  0  0  0
   -2.9676   -0.7116   -0.8300 C   0  0  2  0  0  0  0  0  0  0  0  0
   -2.9327   -2.0948   -0.5280 O   0  0  0  0  0  0  0  0  0  0  0  0
    0.5177   -1.6413    0.4023 C   0  0  0  0  0  0  0  0  0  0  0  0
   -0.2136   -2.8014    0.7131 O   0  0  0  0  0  0  0  0  0  0  0  0
    0.3732   -1.9303    1.6477 N   0  0  0  0  0  0  0  0  0  0  0  0
    0.8544   -1.2364    2.7843 C   0  0  0  0  0  0  0  0  0  0  0  0
    1.6276   -2.1357    3.7153 C   0  0  0  0  0  0  0  0  0  0  0  0
    1.8554   -3.4887    3.4954 O   0  0  0  0  0  0  0  0  0  0  0  0
    2.2072   -1.9276    4.8135 O   0  0  0  0  0  0  0  0  0  0  0  0
    6.7091    2.0052   -2.3871 C   0  0  0  0  0  0  0  0  0  0  0  0
    8.0518    2.3189   -2.2738 O   0  0  0  0  0  0  0  0  0  0  0  0
    5.9470    2.7786   -3.0252 O   0  0  0  0  0  0  0  0  0  0  0  0
    5.5479    0.2144   -2.6236 H   0  0  0  0  0  0  0  0  0  0  0  0
    7.2592   -0.8835   -1.5348 H   0  0  0  0  0  0  0  0  0  0  0  0
    6.8816    0.0196   -0.1114 H   0  0  0  0  0  0  0  0  0  0  0  0
    5.4562    2.0006   -0.1209 H   0  0  0  0  0  0  0  0  0  0  0  0
    4.2288    1.8641   -1.4405 H   0  0  0  0  0  0  0  0  0  0  0  0
    4.9414   -0.2838    0.6281 H   0  0  0  0  0  0  0  0  0  0  0  0
    3.5544    0.8070    0.5777 H   0  0  0  0  0  0  0  0  0  0  0  0
    4.1182   -2.5242   -1.9081 H   0  0  0  0  0  0  0  0  0  0  0  0
    1.6535    0.0832    0.6144 H   0  0  0  0  0  0  0  0  0  0  0  0
    1.0550    1.2189   -1.4213 H   0  0  0  0  0  0  0  0  0  0  0  0
    0.1131   -0.1150   -2.0574 H   0  0  0  0  0  0  0  0  0  0  0  0
   -1.9771   -0.6221    1.0510 H   0  0  0  0  0  0  0  0  0  0  0  0
   -1.6902    1.5484    2.3755 H   0  0  0  0  0  0  0  0  0  0  0  0
   -3.0411    3.0393    3.6843 H   0  0  0  0  0  0  0  0  0  0  0  0
   -5.4142    3.3804    3.1654 H   0  0  0  0  0  0  0  0  0  0  0  0
   -6.4101    2.2090    1.3221 H   0  0  0  0  0  0  0  0  0  0  0  0
   -7.2159    1.2483   -0.2012 H   0  0  0  0  0  0  0  0  0  0  0  0
   -8.1029   -0.0373   -2.1394 H   0  0  0  0  0  0  0  0  0  0  0  0
   -6.6586   -1.5173   -3.3572 H   0  0  0  0  0  0  0  0  0  0  0  0
   -4.3511   -1.8128   -2.7696 H   0  0  0  0  0  0  0  0  0  0  0  0
   -2.4439   -0.6287   -1.8117 H   0  0  0  0  0  0  0  0  0  0  0  0
   -3.6668   -2.5598   -0.9912 H   0  0  0  0  0  0  0  0  0  0  0  0
   -0.5839   -3.4251   -0.0044 H   0  0  0  0  0  0  0  0  0  0  0  0
    0.0089   -0.8119    3.3925 H   0  0  0  0  0  0  0  0  0  0  0  0
    1.5406   -0.4017    2.5531 H   0  0  0  0  0  0  0  0  0  0  0  0
    2.7883   -3.9001    3.4455 H   0  0  0  0  0  0  0  0  0  0  0  0
    8.4182    3.2356   -2.4093 H   0  0  0  0  0  0  0  0  0  0  0  0
  1  2  1  0
  1  3  1  0
  3  4  1  0
  4  5  1  0
  5  6  1  0
  5  7  2  3
  7  8  1  0
  8  9  1  0
  9 10  1  0
 10 11  1  0
 11 12  1  0
 12 13  2  0
 13 14  1  0
 14 15  2  0
 15 16  1  0
 16 17  2  0
 17 18  1  0
 18 19  2  0
 19 20  1  0
 20 21  2  0
 21 22  1  0
 22 23  2  0
 23 24  1  0
 24 25  1  0
  8 26  1  0
 26 27  1  0
 26 28  2  3
 28 29  1  0
 29 30  1  0
 30 31  1  0
 30 32  2  0
  1 33  1  0
 33 34  1  0
 33 35  2  0
 24 11  1  0
 17 12  1  0
 23 18  1  0
  1 36  1  6
  2 37  1  0
  2 38  1  0
  3 39  1  0
  3 40  1  0
  4 41  1  0
  4 42  1  0
  6 43  1  0
  8 44  1  1
  9 45  1  0
  9 46  1  0
 11 47  1  1
 13 48  1  0
 14 49  1  0
 15 50  1  0
 16 51  1  0
 19 52  1  0
 20 53  1  0
 21 54  1  0
 22 55  1  0
 24 56  1  6
 25 57  1  0
 27 58  1  0
 29 59  1  0
 29 60  1  0
 31 61  1  0
 34 62  1  0
M  END
$$$$
