
     RDKit          3D

 51 54  0  0  0  0  0  0  0  0999 V2000
   -5.1115   -1.2705   -1.3114 C   0  0  0  0  0  0  0  0  0  0  0  0
   -3.8468   -1.7285   -0.6303 C   0  0  0  0  0  0  0  0  0  0  0  0
   -3.1069   -2.6330   -1.5742 C   0  0  0  0  0  0  0  0  0  0  0  0
   -4.2325   -2.5154    0.4643 O   0  0  0  0  0  0  0  0  0  0  0  0
   -3.0149   -0.6006   -0.1147 C   0  0  0  0  0  0  0  0  0  0  0  0
   -2.5778    0.3444   -1.2222 C   0  0  0  0  0  0  0  0  0  0  0  0
   -1.7695    1.4022   -0.6029 N   0  0  0  0  0  0  0  0  0  0  0  0
   -2.2261    2.5632   -0.1082 C   0  0  0  0  0  0  0  0  0  0  0  0
   -1.2000    3.2515    0.3686 N   0  0  0  0  0  0  0  0  0  0  0  0
   -0.0554    2.5643    0.1992 C   0  0  0  0  0  0  0  0  0  0  0  0
    1.2846    2.9953    0.5952 C   0  0  0  0  0  0  0  0  0  0  0  0
    1.6317    3.2301    1.9087 C   0  0  0  0  0  0  0  0  0  0  0  0
    2.9153    3.6413    2.2638 C   0  0  0  0  0  0  0  0  0  0  0  0
    3.8754    3.8250    1.3069 C   0  0  0  0  0  0  0  0  0  0  0  0
    5.1234    4.2254    1.6489 F   0  0  0  0  0  0  0  0  0  0  0  0
    3.5456    3.5940   -0.0209 C   0  0  0  0  0  0  0  0  0  0  0  0
    4.7884    3.8349   -1.2334 Cl  0  0  0  0  0  0  0  0  0  0  0  0
    2.2704    3.1879   -0.3484 C   0  0  0  0  0  0  0  0  0  0  0  0
   -0.4443    1.4003   -0.4167 C   0  0  0  0  0  0  0  0  0  0  0  0
    0.4944    0.3213   -0.8026 C   0  0  0  0  0  0  0  0  0  0  0  0
    0.6907   -0.0038   -2.1234 C   0  0  0  0  0  0  0  0  0  0  0  0
    1.5510   -1.0005   -2.4875 C   0  0  0  0  0  0  0  0  0  0  0  0
    2.2217   -1.6748   -1.4648 C   0  0  0  0  0  0  0  0  0  0  0  0
    3.1159   -2.6830   -1.4716 N   0  0  0  0  0  0  0  0  0  0  0  0
    3.4627   -2.9747   -0.2084 C   0  0  0  0  0  0  0  0  0  0  0  0
    2.7703   -2.1289    0.6271 C   0  0  0  0  0  0  0  0  0  0  0  0
    2.8073   -2.0568    2.0963 C   0  0  0  0  0  0  0  0  0  0  0  0
    3.6629   -2.9768    2.7581 N   0  0  0  0  0  0  0  0  0  0  0  0
    2.1129   -1.2226    2.6910 O   0  0  0  0  0  0  0  0  0  0  0  0
    2.0081   -1.3339   -0.1876 N   0  0  0  0  0  0  0  0  0  0  0  0
    1.1681   -0.3634    0.1293 N   0  0  0  0  0  0  0  0  0  0  0  0
   -4.9842   -1.2819   -2.4179 H   0  0  0  0  0  0  0  0  0  0  0  0
   -5.9248   -2.0221   -1.1085 H   0  0  0  0  0  0  0  0  0  0  0  0
   -5.4959   -0.3117   -0.9233 H   0  0  0  0  0  0  0  0  0  0  0  0
   -2.7467   -2.1115   -2.4768 H   0  0  0  0  0  0  0  0  0  0  0  0
   -2.2842   -3.1039   -0.9957 H   0  0  0  0  0  0  0  0  0  0  0  0
   -3.8313   -3.4207   -1.8986 H   0  0  0  0  0  0  0  0  0  0  0  0
   -4.4192   -1.9704    1.2472 H   0  0  0  0  0  0  0  0  0  0  0  0
   -3.5699   -0.0394    0.6475 H   0  0  0  0  0  0  0  0  0  0  0  0
   -2.1317   -1.0397    0.3922 H   0  0  0  0  0  0  0  0  0  0  0  0
   -1.8921   -0.1861   -1.9127 H   0  0  0  0  0  0  0  0  0  0  0  0
   -3.4714    0.7383   -1.7087 H   0  0  0  0  0  0  0  0  0  0  0  0
   -3.2904    2.8511   -0.1196 H   0  0  0  0  0  0  0  0  0  0  0  0
    0.8693    3.0832    2.6594 H   0  0  0  0  0  0  0  0  0  0  0  0
    3.1603    3.8185    3.2985 H   0  0  0  0  0  0  0  0  0  0  0  0
    2.0327    3.0133   -1.3785 H   0  0  0  0  0  0  0  0  0  0  0  0
    0.1656    0.5277   -2.9080 H   0  0  0  0  0  0  0  0  0  0  0  0
    1.7569   -1.3119   -3.4935 H   0  0  0  0  0  0  0  0  0  0  0  0
    4.1717   -3.7478    0.1263 H   0  0  0  0  0  0  0  0  0  0  0  0
    3.7008   -3.9731    2.4365 H   0  0  0  0  0  0  0  0  0  0  0  0
    4.2693   -2.7257    3.5592 H   0  0  0  0  0  0  0  0  0  0  0  0
  1  2  1  0
  2  3  1  0
  2  4  1  0
  2  5  1  0
  5  6  1  0
  6  7  1  0
  7  8  1  0
  8  9  2  0
  9 10  1  0
 10 11  1  0
 11 12  2  0
 12 13  1  0
 13 14  2  0
 14 15  1  0
 14 16  1  0
 16 17  1  0
 16 18  2  0
 10 19  2  0
 19 20  1  0
 20 21  1  0
 21 22  2  0
 22 23  1  0
 23 24  2  0
 24 25  1  0
 25 26  2  0
 26 27  1  0
 27 28  1  0
 27 29  2  0
 26 30  1  0
 30 31  1  0
 19  7  1  0
 31 20  2  0
 18 11  1  0
 30 23  1  0
  1 32  1  0
  1 33  1  0
  1 34  1  0
  3 35  1  0
  3 36  1  0
  3 37  1  0
  4 38  1  0
  5 39  1  0
  5 40  1  0
  6 41  1  0
  6 42  1  0
  8 43  1  0
 12 44  1  0
 13 45  1  0
 18 46  1  0
 21 47  1  0
 22 48  1  0
 25 49  1  0
 28 50  1  0
 28 51  1  0
M  END
$$$$
