
     RDKit          3D

 76 79  0  0  0  0  0  0  0  0999 V2000
   -0.3525    3.0475   -1.4417 C   0  0  0  0  0  0  0  0  0  0  0  0
   -0.2539    2.3476   -0.1098 C   0  0  0  0  0  0  0  0  0  0  0  0
   -0.8417    3.0896    1.0439 C   0  0  0  0  0  0  0  0  0  0  0  0
   -0.6196    0.9036   -0.1693 C   0  0  0  0  0  0  0  0  0  0  0  0
   -1.8439    0.3617   -0.0124 C   0  0  0  0  0  0  0  0  0  0  0  0
   -3.1684    0.9142    0.1628 C   0  0  0  0  0  0  0  0  0  0  0  0
   -4.0744    0.1566    0.6958 O   0  0  0  0  0  0  0  0  0  0  0  0
   -3.6334    2.1911   -0.1748 N   0  0  0  0  0  0  0  0  0  0  0  0
   -4.9396    2.7206    0.0120 C   0  0  0  0  0  0  0  0  0  0  0  0
   -6.0320    2.0458    0.4788 C   0  0  0  0  0  0  0  0  0  0  0  0
   -7.2844    2.6571    0.6510 C   0  0  0  0  0  0  0  0  0  0  0  0
   -7.4568    3.9868    0.3480 C   0  0  0  0  0  0  0  0  0  0  0  0
   -6.3781    4.6813   -0.1208 C   0  0  0  0  0  0  0  0  0  0  0  0
   -5.1718    4.0792   -0.2832 C   0  0  0  0  0  0  0  0  0  0  0  0
   -1.6336   -1.0240   -0.1156 C   0  0  0  0  0  0  0  0  0  0  0  0
   -2.6639   -2.0388   -0.0110 C   0  0  0  0  0  0  0  0  0  0  0  0
   -3.7374   -2.0829   -0.8686 C   0  0  0  0  0  0  0  0  0  0  0  0
   -4.7172   -3.0748   -0.7523 C   0  0  0  0  0  0  0  0  0  0  0  0
   -4.6219   -4.0310    0.2306 C   0  0  0  0  0  0  0  0  0  0  0  0
   -3.5521   -3.9884    1.0862 C   0  0  0  0  0  0  0  0  0  0  0  0
   -2.6006   -3.0212    0.9698 C   0  0  0  0  0  0  0  0  0  0  0  0
   -0.2966   -1.2623   -0.3316 C   0  0  0  0  0  0  0  0  0  0  0  0
    0.2749   -2.6158   -0.4990 C   0  0  0  0  0  0  0  0  0  0  0  0
    0.0490   -3.2562   -1.7036 C   0  0  0  0  0  0  0  0  0  0  0  0
    0.5555   -4.5394   -1.9040 C   0  0  0  0  0  0  0  0  0  0  0  0
    1.2804   -5.1997   -0.9360 C   0  0  0  0  0  0  0  0  0  0  0  0
    1.7671   -6.4579   -1.1525 F   0  0  0  0  0  0  0  0  0  0  0  0
    1.4927   -4.5398    0.2579 C   0  0  0  0  0  0  0  0  0  0  0  0
    0.9897   -3.2663    0.4564 C   0  0  0  0  0  0  0  0  0  0  0  0
    0.3261   -0.0939   -0.3658 N   0  0  0  0  0  0  0  0  0  0  0  0
    1.7366    0.0996   -0.5856 C   0  0  0  0  0  0  0  0  0  0  0  0
    2.5698    0.0914    0.6729 C   0  0  0  0  0  0  0  0  0  0  0  0
    4.0077    0.3297    0.2137 C   0  0  1  0  0  0  0  0  0  0  0  0
    3.9970    1.5692   -0.4317 O   0  0  0  0  0  0  0  0  0  0  0  0
    4.9704    0.3115    1.3641 C   0  0  0  0  0  0  0  0  0  0  0  0
    6.3673    0.5601    0.8429 C   0  0  1  0  0  0  0  0  0  0  0  0
    7.2934    0.5528    1.9016 O   0  0  0  0  0  0  0  0  0  0  0  0
    6.8090   -0.4764   -0.1686 C   0  0  0  0  0  0  0  0  0  0  0  0
    8.1810   -0.1601   -0.6276 C   0  0  0  0  0  0  0  0  0  0  0  0
    8.7628   -0.9074   -1.4519 O   0  0  0  0  0  0  0  0  0  0  0  0
    8.8278    0.9566   -0.1532 O   0  0  0  0  0  0  0  0  0  0  0  0
   -0.8860    4.0193   -1.2588 H   0  0  0  0  0  0  0  0  0  0  0  0
   -1.0192    2.4463   -2.1191 H   0  0  0  0  0  0  0  0  0  0  0  0
    0.6035    3.2456   -1.9322 H   0  0  0  0  0  0  0  0  0  0  0  0
    0.8847    2.3771    0.0952 H   0  0  0  0  0  0  0  0  0  0  0  0
   -1.5314    2.4435    1.6512 H   0  0  0  0  0  0  0  0  0  0  0  0
   -1.3902    4.0258    0.7259 H   0  0  0  0  0  0  0  0  0  0  0  0
   -0.0951    3.4580    1.7783 H   0  0  0  0  0  0  0  0  0  0  0  0
   -2.9507    2.8354   -0.6547 H   0  0  0  0  0  0  0  0  0  0  0  0
   -5.9970    1.0122    0.7343 H   0  0  0  0  0  0  0  0  0  0  0  0
   -8.1248    2.0611    1.0303 H   0  0  0  0  0  0  0  0  0  0  0  0
   -8.4395    4.4567    0.4863 H   0  0  0  0  0  0  0  0  0  0  0  0
   -6.5097    5.7441   -0.3644 H   0  0  0  0  0  0  0  0  0  0  0  0
   -4.3429    4.6828   -0.6607 H   0  0  0  0  0  0  0  0  0  0  0  0
   -3.8336   -1.3439   -1.6464 H   0  0  0  0  0  0  0  0  0  0  0  0
   -5.5549   -3.1135   -1.4172 H   0  0  0  0  0  0  0  0  0  0  0  0
   -5.3637   -4.8134    0.3486 H   0  0  0  0  0  0  0  0  0  0  0  0
   -3.4508   -4.7351    1.8756 H   0  0  0  0  0  0  0  0  0  0  0  0
   -1.7539   -2.9839    1.6434 H   0  0  0  0  0  0  0  0  0  0  0  0
   -0.5111   -2.7525   -2.4591 H   0  0  0  0  0  0  0  0  0  0  0  0
    0.3853   -5.0470   -2.8369 H   0  0  0  0  0  0  0  0  0  0  0  0
    2.0602   -5.0568    1.0155 H   0  0  0  0  0  0  0  0  0  0  0  0
    1.1709   -2.7836    1.4060 H   0  0  0  0  0  0  0  0  0  0  0  0
    2.1126   -0.7014   -1.2940 H   0  0  0  0  0  0  0  0  0  0  0  0
    1.9323    1.0895   -1.0776 H   0  0  0  0  0  0  0  0  0  0  0  0
    2.5843   -0.9007    1.1784 H   0  0  0  0  0  0  0  0  0  0  0  0
    2.2159    0.8948    1.3320 H   0  0  0  0  0  0  0  0  0  0  0  0
    4.2107   -0.4542   -0.5354 H   0  0  0  0  0  0  0  0  0  0  0  0
    3.3573    2.1595    0.0638 H   0  0  0  0  0  0  0  0  0  0  0  0
    4.9647   -0.7466    1.7586 H   0  0  0  0  0  0  0  0  0  0  0  0
    4.7140    1.0002    2.1663 H   0  0  0  0  0  0  0  0  0  0  0  0
    6.4499    1.5401    0.3388 H   0  0  0  0  0  0  0  0  0  0  0  0
    7.0145    1.1811    2.6181 H   0  0  0  0  0  0  0  0  0  0  0  0
    6.1561   -0.4514   -1.0812 H   0  0  0  0  0  0  0  0  0  0  0  0
    6.7410   -1.4979    0.2447 H   0  0  0  0  0  0  0  0  0  0  0  0
    9.8124    1.0915   -0.1709 H   0  0  0  0  0  0  0  0  0  0  0  0
  1  2  1  0
  2  3  1  0
  2  4  1  0
  4  5  2  0
  5  6  1  0
  6  7  2  0
  6  8  1  0
  8  9  1  0
  9 10  2  0
 10 11  1  0
 11 12  2  0
 12 13  1  0
 13 14  2  0
  5 15  1  0
 15 16  1  0
 16 17  2  0
 17 18  1  0
 18 19  2  0
 19 20  1  0
 20 21  2  0
 15 22  2  0
 22 23  1  0
 23 24  2  0
 24 25  1  0
 25 26  2  0
 26 27  1  0
 26 28  1  0
 28 29  2  0
 22 30  1  0
 30 31  1  0
 31 32  1  0
 32 33  1  0
 33 34  1  0
 33 35  1  0
 35 36  1  0
 36 37  1  0
 36 38  1  0
 38 39  1  0
 39 40  2  0
 39 41  1  0
 30  4  1  0
 14  9  1  0
 21 16  1  0
 29 23  1  0
  1 42  1  0
  1 43  1  0
  1 44  1  0
  2 45  1  0
  3 46  1  0
  3 47  1  0
  3 48  1  0
  8 49  1  0
 10 50  1  0
 11 51  1  0
 12 52  1  0
 13 53  1  0
 14 54  1  0
 17 55  1  0
 18 56  1  0
 19 57  1  0
 20 58  1  0
 21 59  1  0
 24 60  1  0
 25 61  1  0
 28 62  1  0
 29 63  1  0
 31 64  1  0
 31 65  1  0
 32 66  1  0
 32 67  1  0
 33 68  1  6
 34 69  1  0
 35 70  1  0
 35 71  1  0
 36 72  1  6
 37 73  1  0
 38 74  1  0
 38 75  1  0
 41 76  1  0
M  END
$$$$
