
     RDKit          3D

 64 67  0  0  0  0  0  0  0  0999 V2000
   -8.8163    2.8509   -0.3321 C   0  0  0  0  0  0  0  0  0  0  0  0
   -7.5025    2.5080   -0.0326 O   0  0  0  0  0  0  0  0  0  0  0  0
   -6.9189    1.2706   -0.0826 C   0  0  0  0  0  0  0  0  0  0  0  0
   -7.6640    0.1777   -0.4645 C   0  0  0  0  0  0  0  0  0  0  0  0
   -7.0420   -1.0753   -0.5104 C   0  0  0  0  0  0  0  0  0  0  0  0
   -7.7389   -2.2227   -0.8873 O   0  0  0  0  0  0  0  0  0  0  0  0
   -9.0863   -2.2172   -1.2477 C   0  0  0  0  0  0  0  0  0  0  0  0
   -5.7240   -1.1604   -0.1763 C   0  0  0  0  0  0  0  0  0  0  0  0
   -4.9587   -0.0821    0.2079 C   0  0  0  0  0  0  0  0  0  0  0  0
   -3.5538   -0.1734    0.5399 C   0  0  0  0  0  0  0  0  0  0  0  0
   -2.6845   -0.7657   -0.3345 C   0  0  0  0  0  0  0  0  0  0  0  0
   -1.3215   -0.8232   -0.0191 C   0  0  0  0  0  0  0  0  0  0  0  0
   -0.4064   -1.3981   -0.8710 C   0  0  0  0  0  0  0  0  0  0  0  0
    0.8832   -1.4024   -0.4946 N   0  0  0  0  0  0  0  0  0  0  0  0
    1.3340   -0.8838    0.6536 C   0  0  0  0  0  0  0  0  0  0  0  0
    2.6870   -0.8608    1.0652 N   0  0  0  0  0  0  0  0  0  0  0  0
    3.4543    0.3627    1.0814 C   0  0  0  0  0  0  0  0  0  0  0  0
    3.5833    1.0199   -0.2514 C   0  0  0  0  0  0  0  0  0  0  0  0
    4.2186    0.2671   -1.3464 C   0  0  0  0  0  0  0  0  0  0  0  0
    5.5320   -0.1858   -1.2509 N   0  0  0  0  0  0  0  0  0  0  0  0
    5.9083   -1.2337   -0.4175 C   0  0  0  0  0  0  0  0  0  0  0  0
    7.3920   -1.2530   -0.1242 C   0  0  0  0  0  0  0  0  0  0  0  0
    7.8403    0.0146    0.3354 N   0  0  0  0  0  0  0  0  0  0  0  0
    9.2760   -0.0196    0.5655 C   0  0  0  0  0  0  0  0  0  0  0  0
    7.4996    1.1092   -0.5360 C   0  0  0  0  0  0  0  0  0  0  0  0
    6.5529    0.7419   -1.6364 C   0  0  0  0  0  0  0  0  0  0  0  0
    0.4210   -0.3066    1.5091 C   0  0  0  0  0  0  0  0  0  0  0  0
   -0.9150   -0.2687    1.1849 C   0  0  0  0  0  0  0  0  0  0  0  0
   -1.8144    0.2927    1.9917 N   0  0  0  0  0  0  0  0  0  0  0  0
   -3.1168    0.3660    1.7241 C   0  0  0  0  0  0  0  0  0  0  0  0
   -4.0388    0.9877    2.6406 N   0  0  0  0  0  0  0  0  0  0  0  0
   -5.5883    1.1596    0.2515 C   0  0  0  0  0  0  0  0  0  0  0  0
   -8.9240    3.2288   -1.3944 H   0  0  0  0  0  0  0  0  0  0  0  0
   -9.0565    3.7614    0.2935 H   0  0  0  0  0  0  0  0  0  0  0  0
   -9.5405    2.0426   -0.2140 H   0  0  0  0  0  0  0  0  0  0  0  0
   -8.7107    0.2535   -0.7288 H   0  0  0  0  0  0  0  0  0  0  0  0
   -9.3571   -1.4104   -1.9422 H   0  0  0  0  0  0  0  0  0  0  0  0
   -9.2747   -3.1714   -1.7920 H   0  0  0  0  0  0  0  0  0  0  0  0
   -9.7791   -2.2308   -0.3796 H   0  0  0  0  0  0  0  0  0  0  0  0
   -5.1933   -2.1222   -0.1967 H   0  0  0  0  0  0  0  0  0  0  0  0
   -2.9858   -1.2050   -1.2800 H   0  0  0  0  0  0  0  0  0  0  0  0
   -0.7250   -1.8301   -1.8052 H   0  0  0  0  0  0  0  0  0  0  0  0
    3.1301   -1.7501    1.3592 H   0  0  0  0  0  0  0  0  0  0  0  0
    4.3828    0.3209    1.6710 H   0  0  0  0  0  0  0  0  0  0  0  0
    2.8179    1.1012    1.7155 H   0  0  0  0  0  0  0  0  0  0  0  0
    4.1829    1.9642   -0.0742 H   0  0  0  0  0  0  0  0  0  0  0  0
    2.5715    1.4265   -0.5853 H   0  0  0  0  0  0  0  0  0  0  0  0
    4.1274    0.9022   -2.2890 H   0  0  0  0  0  0  0  0  0  0  0  0
    3.5718   -0.6405   -1.6125 H   0  0  0  0  0  0  0  0  0  0  0  0
    5.3234   -1.3946    0.4908 H   0  0  0  0  0  0  0  0  0  0  0  0
    5.7435   -2.2006   -1.0092 H   0  0  0  0  0  0  0  0  0  0  0  0
    7.9308   -1.6365   -1.0060 H   0  0  0  0  0  0  0  0  0  0  0  0
    7.5383   -1.9910    0.7048 H   0  0  0  0  0  0  0  0  0  0  0  0
    9.7374   -0.1457   -0.4581 H   0  0  0  0  0  0  0  0  0  0  0  0
    9.5985    0.9120    1.0254 H   0  0  0  0  0  0  0  0  0  0  0  0
    9.5045   -0.9302    1.1281 H   0  0  0  0  0  0  0  0  0  0  0  0
    7.1397    1.9568    0.0700 H   0  0  0  0  0  0  0  0  0  0  0  0
    8.4391    1.4660   -1.0190 H   0  0  0  0  0  0  0  0  0  0  0  0
    7.0820    0.3179   -2.5209 H   0  0  0  0  0  0  0  0  0  0  0  0
    6.0539    1.6719   -1.9744 H   0  0  0  0  0  0  0  0  0  0  0  0
    0.7654    0.1204    2.4419 H   0  0  0  0  0  0  0  0  0  0  0  0
   -4.9943    0.5832    2.7570 H   0  0  0  0  0  0  0  0  0  0  0  0
   -3.8040    1.8278    3.2014 H   0  0  0  0  0  0  0  0  0  0  0  0
   -4.9869    2.0059    0.5541 H   0  0  0  0  0  0  0  0  0  0  0  0
  1  2  1  0
  2  3  1  0
  3  4  2  0
  4  5  1  0
  5  6  1  0
  6  7  1  0
  5  8  2  0
  8  9  1  0
  9 10  1  0
 10 11  2  0
 11 12  1  0
 12 13  2  0
 13 14  1  0
 14 15  2  0
 15 16  1  0
 16 17  1  0
 17 18  1  0
 18 19  1  0
 19 20  1  0
 20 21  1  0
 21 22  1  0
 22 23  1  0
 23 24  1  0
 23 25  1  0
 25 26  1  0
 15 27  1  0
 27 28  2  0
 28 29  1  0
 29 30  2  0
 30 31  1  0
  9 32  2  0
 32  3  1  0
 30 10  1  0
 28 12  1  0
 26 20  1  0
  1 33  1  0
  1 34  1  0
  1 35  1  0
  4 36  1  0
  7 37  1  0
  7 38  1  0
  7 39  1  0
  8 40  1  0
 11 41  1  0
 13 42  1  0
 16 43  1  0
 17 44  1  0
 17 45  1  0
 18 46  1  0
 18 47  1  0
 19 48  1  0
 19 49  1  0
 21 50  1  0
 21 51  1  0
 22 52  1  0
 22 53  1  0
 24 54  1  0
 24 55  1  0
 24 56  1  0
 25 57  1  0
 25 58  1  0
 26 59  1  0
 26 60  1  0
 27 61  1  0
 31 62  1  0
 31 63  1  0
 32 64  1  0
M  END
$$$$
