
     RDKit          3D

 76 82  0  0  0  0  0  0  0  0999 V2000
    8.4591    2.9891   -0.8147 C   0  0  0  0  0  0  0  0  0  0  0  0
    8.0778    1.5868   -0.4301 C   0  0  0  0  0  0  0  0  0  0  0  0
    6.7619    1.2286   -0.8900 N   0  0  0  0  0  0  0  0  0  0  0  0
    5.7808    1.9853   -0.1633 C   0  0  0  0  0  0  0  0  0  0  0  0
    4.5262    1.1746    0.1647 C   0  0  0  0  0  0  0  0  0  0  0  0
    4.1794    0.2982   -0.8931 N   0  0  0  0  0  0  0  0  0  0  0  0
    3.1143    0.6114   -1.7454 C   0  0  0  0  0  0  0  0  0  0  0  0
    1.7646    0.5009   -1.1445 C   0  0  0  0  0  0  0  0  0  0  0  0
    0.7144    0.7489   -1.7525 O   0  0  0  0  0  0  0  0  0  0  0  0
    1.6502    0.0786    0.2054 N   0  0  0  0  0  0  0  0  0  0  0  0
    0.4094   -0.0851    0.8650 C   0  0  0  0  0  0  0  0  0  0  0  0
   -0.1497    1.0230    1.4113 C   0  0  0  0  0  0  0  0  0  0  0  0
   -1.3492    1.0534    2.0835 C   0  0  0  0  0  0  0  0  0  0  0  0
   -2.0053   -0.1594    2.1888 C   0  0  0  0  0  0  0  0  0  0  0  0
   -3.2843   -0.3359    2.8816 C   0  0  0  0  0  0  0  0  0  0  0  0
   -3.3602   -0.6257    4.2248 C   0  0  0  0  0  0  0  0  0  0  0  0
   -4.5961   -0.8212    4.8481 C   0  0  0  0  0  0  0  0  0  0  0  0
   -5.7627   -0.7265    4.1214 C   0  0  0  0  0  0  0  0  0  0  0  0
   -5.6906   -0.4356    2.7758 C   0  0  0  0  0  0  0  0  0  0  0  0
   -6.8292   -0.3337    2.0134 C   0  0  0  0  0  0  0  0  0  0  0  0
   -7.9574   -0.5049    2.5343 O   0  0  0  0  0  0  0  0  0  0  0  0
   -6.6570   -0.0374    0.6677 C   0  0  0  0  0  0  0  0  0  0  0  0
   -5.4244    0.1530    0.0837 C   0  0  0  0  0  0  0  0  0  0  0  0
   -5.2517    0.4563   -1.2828 N   0  0  0  0  0  0  0  0  0  0  0  0
   -6.3036    0.4759   -2.2473 C   0  0  0  0  0  0  0  0  0  0  0  0
   -6.3277    1.8815   -2.8427 C   0  0  0  0  0  0  0  0  0  0  0  0
   -5.3647    2.6845   -2.2805 O   0  0  0  0  0  0  0  0  0  0  0  0
   -4.0635    2.2333   -2.4144 C   0  0  0  0  0  0  0  0  0  0  0  0
   -3.9233    0.8212   -1.8103 C   0  0  0  0  0  0  0  0  0  0  0  0
   -4.3612    0.0365    0.8869 O   0  0  0  0  0  0  0  0  0  0  0  0
   -4.4481   -0.2400    2.1580 C   0  0  0  0  0  0  0  0  0  0  0  0
   -1.4278   -1.2900    1.6277 C   0  0  0  0  0  0  0  0  0  0  0  0
   -2.0017   -3.0151    1.5819 S   0  0  0  0  0  0  0  0  0  0  0  0
   -0.6248   -3.6377    0.6911 C   0  0  0  0  0  0  0  0  0  0  0  0
   -0.3385   -4.9318    0.2691 C   0  0  0  0  0  0  0  0  0  0  0  0
    0.8179   -5.1823   -0.4110 C   0  0  0  0  0  0  0  0  0  0  0  0
    1.6493   -4.1237   -0.6463 C   0  0  0  0  0  0  0  0  0  0  0  0
    1.3474   -2.8612   -0.2236 C   0  0  0  0  0  0  0  0  0  0  0  0
    0.1685   -2.5444    0.4825 C   0  0  0  0  0  0  0  0  0  0  0  0
   -0.2456   -1.3477    0.9607 C   0  0  0  0  0  0  0  0  0  0  0  0
    5.2406   -0.5140   -1.3818 C   0  0  0  0  0  0  0  0  0  0  0  0
    6.5504   -0.1822   -0.6487 C   0  0  0  0  0  0  0  0  0  0  0  0
    7.7240    3.3766   -1.5464 H   0  0  0  0  0  0  0  0  0  0  0  0
    8.4694    3.6437    0.0744 H   0  0  0  0  0  0  0  0  0  0  0  0
    9.4845    2.9982   -1.2537 H   0  0  0  0  0  0  0  0  0  0  0  0
    8.7768    0.8430   -0.8259 H   0  0  0  0  0  0  0  0  0  0  0  0
    8.0569    1.4774    0.6875 H   0  0  0  0  0  0  0  0  0  0  0  0
    5.4920    2.9116   -0.7265 H   0  0  0  0  0  0  0  0  0  0  0  0
    6.2217    2.3163    0.7916 H   0  0  0  0  0  0  0  0  0  0  0  0
    3.7108    1.8979    0.3376 H   0  0  0  0  0  0  0  0  0  0  0  0
    4.6957    0.6251    1.1373 H   0  0  0  0  0  0  0  0  0  0  0  0
    3.1677   -0.0848   -2.6418 H   0  0  0  0  0  0  0  0  0  0  0  0
    3.1807    1.6249   -2.2221 H   0  0  0  0  0  0  0  0  0  0  0  0
    2.4958   -0.1314    0.7843 H   0  0  0  0  0  0  0  0  0  0  0  0
    0.3554    1.9918    1.3377 H   0  0  0  0  0  0  0  0  0  0  0  0
   -1.7862    1.9178    2.5115 H   0  0  0  0  0  0  0  0  0  0  0  0
   -2.4519   -0.7001    4.7846 H   0  0  0  0  0  0  0  0  0  0  0  0
   -4.6536   -1.0462    5.8887 H   0  0  0  0  0  0  0  0  0  0  0  0
   -6.7503   -0.8713    4.5589 H   0  0  0  0  0  0  0  0  0  0  0  0
   -7.5577    0.0406    0.0843 H   0  0  0  0  0  0  0  0  0  0  0  0
   -7.3107    0.2675   -1.8581 H   0  0  0  0  0  0  0  0  0  0  0  0
   -6.1095   -0.2221   -3.1033 H   0  0  0  0  0  0  0  0  0  0  0  0
   -7.3096    2.3387   -2.6502 H   0  0  0  0  0  0  0  0  0  0  0  0
   -6.1979    1.8669   -3.9485 H   0  0  0  0  0  0  0  0  0  0  0  0
   -3.6860    2.2177   -3.4400 H   0  0  0  0  0  0  0  0  0  0  0  0
   -3.4205    2.9516   -1.8361 H   0  0  0  0  0  0  0  0  0  0  0  0
   -3.1696    0.8682   -1.0200 H   0  0  0  0  0  0  0  0  0  0  0  0
   -3.6538    0.1464   -2.6305 H   0  0  0  0  0  0  0  0  0  0  0  0
   -1.0735   -5.6815    0.5156 H   0  0  0  0  0  0  0  0  0  0  0  0
    1.0278   -6.1859   -0.7349 H   0  0  0  0  0  0  0  0  0  0  0  0
    2.5934   -4.3169   -1.2003 H   0  0  0  0  0  0  0  0  0  0  0  0
    2.0990   -2.1098   -0.4622 H   0  0  0  0  0  0  0  0  0  0  0  0
    5.0203   -1.5830   -1.1707 H   0  0  0  0  0  0  0  0  0  0  0  0
    5.3920   -0.3253   -2.4410 H   0  0  0  0  0  0  0  0  0  0  0  0
    7.3437   -0.8345   -1.0215 H   0  0  0  0  0  0  0  0  0  0  0  0
    6.3593   -0.3146    0.4263 H   0  0  0  0  0  0  0  0  0  0  0  0
  1  2  1  0
  2  3  1  0
  3  4  1  0
  4  5  1  0
  5  6  1  0
  6  7  1  0
  7  8  1  0
  8  9  2  0
  8 10  1  0
 10 11  1  0
 11 12  2  0
 12 13  1  0
 13 14  2  0
 14 15  1  0
 15 16  2  0
 16 17  1  0
 17 18  2  0
 18 19  1  0
 19 20  1  0
 20 21  2  0
 20 22  1  0
 22 23  2  0
 23 24  1  0
 24 25  1  0
 25 26  1  0
 26 27  1  0
 27 28  1  0
 28 29  1  0
 23 30  1  0
 30 31  1  0
 14 32  1  0
 32 33  1  0
 33 34  1  0
 34 35  2  0
 35 36  1  0
 36 37  2  0
 37 38  1  0
 38 39  2  0
 39 40  1  0
  6 41  1  0
 41 42  1  0
 42  3  1  0
 40 11  1  0
 31 15  1  0
 40 32  2  0
 31 19  2  0
 39 34  1  0
 29 24  1  0
  1 43  1  0
  1 44  1  0
  1 45  1  0
  2 46  1  0
  2 47  1  0
  4 48  1  0
  4 49  1  0
  5 50  1  0
  5 51  1  0
  7 52  1  0
  7 53  1  0
 10 54  1  0
 12 55  1  0
 13 56  1  0
 16 57  1  0
 17 58  1  0
 18 59  1  0
 22 60  1  0
 25 61  1  0
 25 62  1  0
 26 63  1  0
 26 64  1  0
 28 65  1  0
 28 66  1  0
 29 67  1  0
 29 68  1  0
 35 69  1  0
 36 70  1  0
 37 71  1  0
 38 72  1  0
 41 73  1  0
 41 74  1  0
 42 75  1  0
 42 76  1  0
M  END
$$$$
