
     RDKit          3D

 42 41  0  0  0  0  0  0  0  0999 V2000
    4.8400   -0.8273    0.2915 C   0  0  0  0  0  0  0  0  0  0  0  0
    5.0749    0.5604   -0.2209 C   0  0  0  0  0  0  0  0  0  0  0  0
    3.9520    1.0393   -1.0406 C   0  0  0  0  0  0  0  0  0  0  0  0
    2.6094    1.1739   -0.5059 C   0  0  0  0  0  0  0  0  0  0  0  0
    1.8630    0.0354    0.0450 C   0  0  0  0  0  0  0  0  0  0  0  0
    0.5436    0.3975    0.4926 N   0  0  0  0  0  0  0  0  0  0  0  0
    0.4238    1.2242    1.6099 C   0  0  0  0  0  0  0  0  0  0  0  0
   -0.5576   -0.1312   -0.1606 C   0  0  0  0  0  0  0  0  0  0  0  0
   -1.8431    0.3857    0.4404 C   0  0  0  0  0  0  0  0  0  0  0  0
   -2.9809   -0.2294   -0.3211 C   0  0  0  0  0  0  0  0  0  0  0  0
   -2.8420    0.1574   -1.6500 O   0  0  0  0  0  0  0  0  0  0  0  0
   -2.9524   -2.0295   -0.1685 P   0  0  0  0  0  0  0  0  0  0  0  0
   -2.2599   -2.7619   -1.5216 O   0  0  0  0  0  0  0  0  0  0  0  0
   -2.0874   -2.3977    1.2420 O   0  0  0  0  0  0  0  0  0  0  0  0
   -4.3534   -2.5691    0.0261 O   0  0  0  0  0  0  0  0  0  0  0  0
   -4.5865    0.3900    0.2433 P   0  0  0  0  0  0  0  0  0  0  0  0
   -4.6514    0.6682    1.8863 O   0  0  0  0  0  0  0  0  0  0  0  0
   -5.7823   -0.7456   -0.2004 O   0  0  0  0  0  0  0  0  0  0  0  0
   -4.9017    1.6539   -0.5136 O   0  0  0  0  0  0  0  0  0  0  0  0
    4.0998   -1.3995   -0.2912 H   0  0  0  0  0  0  0  0  0  0  0  0
    5.8261   -1.3791    0.2362 H   0  0  0  0  0  0  0  0  0  0  0  0
    4.6201   -0.8264    1.3851 H   0  0  0  0  0  0  0  0  0  0  0  0
    5.9750    0.4904   -0.9049 H   0  0  0  0  0  0  0  0  0  0  0  0
    5.4257    1.2613    0.5621 H   0  0  0  0  0  0  0  0  0  0  0  0
    4.2751    2.0278   -1.4904 H   0  0  0  0  0  0  0  0  0  0  0  0
    3.9474    0.3781   -1.9631 H   0  0  0  0  0  0  0  0  0  0  0  0
    1.9560    1.6520   -1.2935 H   0  0  0  0  0  0  0  0  0  0  0  0
    2.6097    1.9682    0.3025 H   0  0  0  0  0  0  0  0  0  0  0  0
    1.7376   -0.8031   -0.6744 H   0  0  0  0  0  0  0  0  0  0  0  0
    2.3225   -0.4338    0.9533 H   0  0  0  0  0  0  0  0  0  0  0  0
    1.3534    1.6171    2.0327 H   0  0  0  0  0  0  0  0  0  0  0  0
   -0.0246    0.6097    2.4466 H   0  0  0  0  0  0  0  0  0  0  0  0
   -0.2872    2.0888    1.5218 H   0  0  0  0  0  0  0  0  0  0  0  0
   -0.6405    0.0599   -1.2494 H   0  0  0  0  0  0  0  0  0  0  0  0
   -0.5350   -1.2469   -0.0730 H   0  0  0  0  0  0  0  0  0  0  0  0
   -1.9195    0.2073    1.5218 H   0  0  0  0  0  0  0  0  0  0  0  0
   -1.9074    1.4841    0.3022 H   0  0  0  0  0  0  0  0  0  0  0  0
   -2.9663    1.1389   -1.6799 H   0  0  0  0  0  0  0  0  0  0  0  0
   -2.5047   -2.2920   -2.3533 H   0  0  0  0  0  0  0  0  0  0  0  0
   -2.1514   -3.3566    1.4231 H   0  0  0  0  0  0  0  0  0  0  0  0
   -4.9139    1.6078    2.0524 H   0  0  0  0  0  0  0  0  0  0  0  0
   -5.8061   -0.8481   -1.1925 H   0  0  0  0  0  0  0  0  0  0  0  0
  1  2  1  0
  2  3  1  0
  3  4  1  0
  4  5  1  0
  5  6  1  0
  6  7  1  0
  6  8  1  0
  8  9  1  0
  9 10  1  0
 10 11  1  0
 10 12  1  0
 12 13  1  0
 12 14  1  0
 12 15  2  0
 10 16  1  0
 16 17  1  0
 16 18  1  0
 16 19  2  0
  1 20  1  0
  1 21  1  0
  1 22  1  0
  2 23  1  0
  2 24  1  0
  3 25  1  0
  3 26  1  0
  4 27  1  0
  4 28  1  0
  5 29  1  0
  5 30  1  0
  7 31  1  0
  7 32  1  0
  7 33  1  0
  8 34  1  0
  8 35  1  0
  9 36  1  0
  9 37  1  0
 11 38  1  0
 13 39  1  0
 14 40  1  0
 17 41  1  0
 18 42  1  0
M  END
$$$$
