
     RDKit          3D

 56 59  0  0  0  0  0  0  0  0999 V2000
   -4.6188   -2.3387   -2.6273 C   0  0  0  0  0  0  0  0  0  0  0  0
   -3.8570   -2.4720   -1.4077 N   0  0  0  0  0  0  0  0  0  0  0  0
   -4.7330   -2.5765   -0.2702 C   0  0  0  0  0  0  0  0  0  0  0  0
   -2.8858   -1.4029   -1.2545 C   0  0  0  0  0  0  0  0  0  0  0  0
   -2.1273   -1.5962    0.0261 C   0  0  0  0  0  0  0  0  0  0  0  0
   -1.1685   -0.6676    0.3259 O   0  0  0  0  0  0  0  0  0  0  0  0
   -1.2074    0.6683    0.5741 C   0  0  0  0  0  0  0  0  0  0  0  0
   -2.3373    1.4531    0.5942 C   0  0  0  0  0  0  0  0  0  0  0  0
   -2.3092    2.8290    0.8592 C   0  0  0  0  0  0  0  0  0  0  0  0
   -3.5348    3.6008    0.8651 C   0  0  0  0  0  0  0  0  0  0  0  0
   -3.8109    4.7090    1.6225 C   0  0  0  0  0  0  0  0  0  0  0  0
   -5.0699    5.0995    1.3030 N   0  0  0  0  0  0  0  0  0  0  0  0
   -5.5964    4.3062    0.3953 N   0  0  0  0  0  0  0  0  0  0  0  0
   -4.6526    3.3606    0.1066 C   0  0  0  0  0  0  0  0  0  0  0  0
   -1.0764    3.3919    1.1080 C   0  0  0  0  0  0  0  0  0  0  0  0
    0.0867    2.6504    1.1006 C   0  0  0  0  0  0  0  0  0  0  0  0
    0.0120    1.2989    0.8345 C   0  0  0  0  0  0  0  0  0  0  0  0
    1.1778    0.4927    0.8143 N   0  0  0  0  0  0  0  0  0  0  0  0
    1.9040    0.3158   -0.4002 C   0  0  0  0  0  0  0  0  0  0  0  0
    1.4611    0.8986   -1.4131 O   0  0  0  0  0  0  0  0  0  0  0  0
    3.1197   -0.5016   -0.5080 C   0  0  0  0  0  0  0  0  0  0  0  0
    2.8906   -1.9451   -0.1368 C   0  0  0  0  0  0  0  0  0  0  0  0
    3.9851   -2.5123    0.5584 O   0  0  0  0  0  0  0  0  0  0  0  0
    5.2831   -2.0482    0.4125 C   0  0  0  0  0  0  0  0  0  0  0  0
    6.3923   -2.8546    0.3756 C   0  0  0  0  0  0  0  0  0  0  0  0
    7.6631   -2.3171    0.2267 C   0  0  0  0  0  0  0  0  0  0  0  0
    7.7788   -0.9455    0.1167 C   0  0  0  0  0  0  0  0  0  0  0  0
    6.6923   -0.1017    0.1490 C   0  0  0  0  0  0  0  0  0  0  0  0
    5.4515   -0.6829    0.2984 C   0  0  0  0  0  0  0  0  0  0  0  0
    4.1914    0.1410    0.3468 C   0  0  0  0  0  0  0  0  0  0  0  0
   -5.0159   -1.2952   -2.7581 H   0  0  0  0  0  0  0  0  0  0  0  0
   -4.0446   -2.6398   -3.5279 H   0  0  0  0  0  0  0  0  0  0  0  0
   -5.4935   -3.0181   -2.5629 H   0  0  0  0  0  0  0  0  0  0  0  0
   -5.1637   -1.5962    0.0292 H   0  0  0  0  0  0  0  0  0  0  0  0
   -4.2743   -3.1011    0.5810 H   0  0  0  0  0  0  0  0  0  0  0  0
   -5.6035   -3.1969   -0.5877 H   0  0  0  0  0  0  0  0  0  0  0  0
   -2.1160   -1.5388   -2.0760 H   0  0  0  0  0  0  0  0  0  0  0  0
   -3.2939   -0.4074   -1.3972 H   0  0  0  0  0  0  0  0  0  0  0  0
   -2.9172   -1.5272    0.8412 H   0  0  0  0  0  0  0  0  0  0  0  0
   -1.7720   -2.6602    0.1341 H   0  0  0  0  0  0  0  0  0  0  0  0
   -3.2945    1.0198    0.4148 H   0  0  0  0  0  0  0  0  0  0  0  0
   -3.1516    5.1825    2.3384 H   0  0  0  0  0  0  0  0  0  0  0  0
   -6.5530    4.3803   -0.0273 H   0  0  0  0  0  0  0  0  0  0  0  0
   -4.8288    2.5771   -0.6163 H   0  0  0  0  0  0  0  0  0  0  0  0
   -1.0455    4.4526    1.3133 H   0  0  0  0  0  0  0  0  0  0  0  0
    1.0543    3.1118    1.2997 H   0  0  0  0  0  0  0  0  0  0  0  0
    1.5323    0.0176    1.6571 H   0  0  0  0  0  0  0  0  0  0  0  0
    3.4841   -0.4576   -1.5522 H   0  0  0  0  0  0  0  0  0  0  0  0
    2.0066   -2.0639    0.5371 H   0  0  0  0  0  0  0  0  0  0  0  0
    2.6979   -2.5453   -1.0366 H   0  0  0  0  0  0  0  0  0  0  0  0
    6.2659   -3.9170    0.4639 H   0  0  0  0  0  0  0  0  0  0  0  0
    8.5436   -2.9330    0.1956 H   0  0  0  0  0  0  0  0  0  0  0  0
    8.7649   -0.5157    0.0003 H   0  0  0  0  0  0  0  0  0  0  0  0
    6.7735    0.9778    0.0634 H   0  0  0  0  0  0  0  0  0  0  0  0
    4.4669    1.1182   -0.1003 H   0  0  0  0  0  0  0  0  0  0  0  0
    3.8738    0.3227    1.3777 H   0  0  0  0  0  0  0  0  0  0  0  0
  1  2  1  0
  2  3  1  0
  2  4  1  0
  4  5  1  0
  5  6  1  0
  6  7  1  0
  7  8  2  0
  8  9  1  0
  9 10  1  0
 10 11  1  0
 11 12  2  0
 12 13  1  0
 13 14  1  0
  9 15  2  0
 15 16  1  0
 16 17  2  0
 17 18  1  0
 18 19  1  0
 19 20  2  0
 19 21  1  0
 21 22  1  0
 22 23  1  0
 23 24  1  0
 24 25  2  0
 25 26  1  0
 26 27  2  0
 27 28  1  0
 28 29  2  0
 29 30  1  0
 17  7  1  0
 30 21  1  0
 14 10  2  0
 29 24  1  0
  1 31  1  0
  1 32  1  0
  1 33  1  0
  3 34  1  0
  3 35  1  0
  3 36  1  0
  4 37  1  0
  4 38  1  0
  5 39  1  0
  5 40  1  0
  8 41  1  0
 11 42  1  0
 13 43  1  0
 14 44  1  0
 15 45  1  0
 16 46  1  0
 18 47  1  0
 21 48  1  0
 22 49  1  0
 22 50  1  0
 25 51  1  0
 26 52  1  0
 27 53  1  0
 28 54  1  0
 30 55  1  0
 30 56  1  0
M  END
$$$$
