
     RDKit          3D

 80 80  0  0  0  0  0  0  0  0999 V2000
    8.3983   -1.0462   -1.5575 C   0  0  0  0  0  0  0  0  0  0  0  0
    8.4599   -1.5606   -0.1291 C   0  0  0  0  0  0  0  0  0  0  0  0
    7.4001   -2.5395    0.1383 C   0  0  0  0  0  0  0  0  0  0  0  0
    5.9671   -2.2336    0.0422 C   0  0  0  0  0  0  0  0  0  0  0  0
    5.4658   -1.2580    0.9414 N   0  0  0  0  0  0  0  0  0  0  0  0
    5.7230    0.1156    0.9915 C   0  0  0  0  0  0  0  0  0  0  0  0
    6.4700    0.6558    0.1545 O   0  0  0  0  0  0  0  0  0  0  0  0
    5.1253    1.0053    2.0370 C   0  0  2  0  0  0  0  0  0  0  0  0
    5.6289    0.4930    3.3908 C   0  0  0  0  0  0  0  0  0  0  0  0
    3.6297    1.0041    1.9838 C   0  0  0  0  0  0  0  0  0  0  0  0
    3.1506    1.4793    0.6533 C   0  0  2  0  0  0  0  0  0  0  0  0
    3.5816    2.7701    0.3776 O   0  0  0  0  0  0  0  0  0  0  0  0
    1.6727    1.3024    0.4500 C   0  0  1  0  0  0  0  0  0  0  0  0
    0.8745    2.1558    1.2689 N   0  0  0  0  0  0  0  0  0  0  0  0
    1.3519    1.5117   -1.0122 C   0  0  0  0  0  0  0  0  0  0  0  0
   -0.0903    1.3473   -1.2577 N   0  0  0  0  0  0  0  0  0  0  0  0
   -0.5404    0.0518   -1.5742 C   0  0  0  0  0  0  0  0  0  0  0  0
    0.2415   -0.9289   -1.6526 O   0  0  0  0  0  0  0  0  0  0  0  0
   -1.9553   -0.2613   -1.8371 C   0  0  0  0  0  0  0  0  0  0  0  0
   -2.4999   -0.1257   -3.0837 C   0  0  0  0  0  0  0  0  0  0  0  0
   -3.8196   -0.4307   -3.2870 C   0  0  0  0  0  0  0  0  0  0  0  0
   -4.6062   -0.8806   -2.2165 C   0  0  0  0  0  0  0  0  0  0  0  0
   -5.9195   -1.1672   -2.4942 O   0  0  0  0  0  0  0  0  0  0  0  0
   -6.4468   -1.0183   -3.7783 C   0  0  0  0  0  0  0  0  0  0  0  0
   -4.0632   -1.0179   -0.9653 C   0  0  0  0  0  0  0  0  0  0  0  0
   -4.8320   -1.4768    0.1785 C   0  0  0  0  0  0  0  0  0  0  0  0
   -6.0969   -1.8072    0.2278 C   0  0  0  0  0  0  0  0  0  0  0  0
   -6.7209   -2.2671    1.5312 C   0  0  0  0  0  0  0  0  0  0  0  0
   -7.8250   -1.3034    1.8695 C   0  0  0  0  0  0  0  0  0  0  0  0
   -8.4755   -1.6135    3.0405 O   0  0  0  0  0  0  0  0  0  0  0  0
   -9.4655   -0.6494    3.2412 C   0  0  0  0  0  0  0  0  0  0  0  0
   -2.7218   -0.6984   -0.8007 C   0  0  0  0  0  0  0  0  0  0  0  0
   -0.9333    2.5151   -1.1681 C   0  0  0  0  0  0  0  0  0  0  0  0
   -2.0038    2.3491   -0.1461 C   0  0  0  0  0  0  0  0  0  0  0  0
   -1.5693    2.8769   -2.4954 C   0  0  0  0  0  0  0  0  0  0  0  0
    7.3433   -1.0941   -1.8839 H   0  0  0  0  0  0  0  0  0  0  0  0
    8.7320    0.0246   -1.5527 H   0  0  0  0  0  0  0  0  0  0  0  0
    9.0678   -1.6720   -2.1895 H   0  0  0  0  0  0  0  0  0  0  0  0
    8.5833   -0.7166    0.5503 H   0  0  0  0  0  0  0  0  0  0  0  0
    9.4982   -2.0914   -0.0135 H   0  0  0  0  0  0  0  0  0  0  0  0
    7.6256   -2.9707    1.1943 H   0  0  0  0  0  0  0  0  0  0  0  0
    7.6313   -3.4923   -0.4819 H   0  0  0  0  0  0  0  0  0  0  0  0
    5.7099   -1.8952   -1.0112 H   0  0  0  0  0  0  0  0  0  0  0  0
    5.4261   -3.2279    0.1856 H   0  0  0  0  0  0  0  0  0  0  0  0
    4.7718   -1.5723    1.7308 H   0  0  0  0  0  0  0  0  0  0  0  0
    5.5375    2.0108    1.9081 H   0  0  0  0  0  0  0  0  0  0  0  0
    6.6074    0.9717    3.5987 H   0  0  0  0  0  0  0  0  0  0  0  0
    5.6575   -0.6075    3.4262 H   0  0  0  0  0  0  0  0  0  0  0  0
    4.9332    0.8177    4.2031 H   0  0  0  0  0  0  0  0  0  0  0  0
    3.2407    0.0032    2.2587 H   0  0  0  0  0  0  0  0  0  0  0  0
    3.2808    1.6802    2.8171 H   0  0  0  0  0  0  0  0  0  0  0  0
    3.6532    0.8244   -0.1186 H   0  0  0  0  0  0  0  0  0  0  0  0
    3.2146    3.4558    0.9589 H   0  0  0  0  0  0  0  0  0  0  0  0
    1.4389    0.2440    0.7514 H   0  0  0  0  0  0  0  0  0  0  0  0
    0.4116    1.6599    2.0678 H   0  0  0  0  0  0  0  0  0  0  0  0
    1.2930    3.0584    1.5161 H   0  0  0  0  0  0  0  0  0  0  0  0
    1.7065    2.4760   -1.3905 H   0  0  0  0  0  0  0  0  0  0  0  0
    1.8866    0.7357   -1.5972 H   0  0  0  0  0  0  0  0  0  0  0  0
   -1.9243    0.2142   -3.9232 H   0  0  0  0  0  0  0  0  0  0  0  0
   -4.2931   -0.3368   -4.2651 H   0  0  0  0  0  0  0  0  0  0  0  0
   -5.8926   -1.6892   -4.4905 H   0  0  0  0  0  0  0  0  0  0  0  0
   -7.5051   -1.3646   -3.8312 H   0  0  0  0  0  0  0  0  0  0  0  0
   -6.3959    0.0143   -4.1769 H   0  0  0  0  0  0  0  0  0  0  0  0
   -4.2926   -1.5682    1.1566 H   0  0  0  0  0  0  0  0  0  0  0  0
   -6.6923   -1.7512   -0.6583 H   0  0  0  0  0  0  0  0  0  0  0  0
   -5.9407   -2.3522    2.2876 H   0  0  0  0  0  0  0  0  0  0  0  0
   -7.1107   -3.2846    1.3091 H   0  0  0  0  0  0  0  0  0  0  0  0
   -7.3534   -0.2997    2.0138 H   0  0  0  0  0  0  0  0  0  0  0  0
   -8.4966   -1.2198    0.9959 H   0  0  0  0  0  0  0  0  0  0  0  0
  -10.1507   -0.7091    2.3554 H   0  0  0  0  0  0  0  0  0  0  0  0
   -9.9946   -0.7745    4.1995 H   0  0  0  0  0  0  0  0  0  0  0  0
   -8.9624    0.3545    3.1631 H   0  0  0  0  0  0  0  0  0  0  0  0
   -2.2918   -0.8098    0.1979 H   0  0  0  0  0  0  0  0  0  0  0  0
   -0.3271    3.4225   -0.8868 H   0  0  0  0  0  0  0  0  0  0  0  0
   -1.7956    1.6226    0.6494 H   0  0  0  0  0  0  0  0  0  0  0  0
   -2.9753    2.1762   -0.6664 H   0  0  0  0  0  0  0  0  0  0  0  0
   -2.1645    3.3342    0.3846 H   0  0  0  0  0  0  0  0  0  0  0  0
   -1.0809    2.3777   -3.3392 H   0  0  0  0  0  0  0  0  0  0  0  0
   -1.5006    3.9919   -2.6645 H   0  0  0  0  0  0  0  0  0  0  0  0
   -2.6655    2.6806   -2.4447 H   0  0  0  0  0  0  0  0  0  0  0  0
  1  2  1  0
  2  3  1  0
  3  4  1  0
  4  5  1  0
  5  6  1  0
  6  7  2  0
  6  8  1  0
  8  9  1  0
  8 10  1  0
 10 11  1  0
 11 12  1  0
 11 13  1  0
 13 14  1  0
 13 15  1  0
 15 16  1  0
 16 17  1  0
 17 18  2  0
 17 19  1  0
 19 20  2  0
 20 21  1  0
 21 22  2  0
 22 23  1  0
 23 24  1  0
 22 25  1  0
 25 26  1  0
 26 27  2  0
 27 28  1  0
 28 29  1  0
 29 30  1  0
 30 31  1  0
 25 32  2  0
 16 33  1  0
 33 34  1  0
 33 35  1  0
 32 19  1  0
  1 36  1  0
  1 37  1  0
  1 38  1  0
  2 39  1  0
  2 40  1  0
  3 41  1  0
  3 42  1  0
  4 43  1  0
  4 44  1  0
  5 45  1  0
  8 46  1  6
  9 47  1  0
  9 48  1  0
  9 49  1  0
 10 50  1  0
 10 51  1  0
 11 52  1  6
 12 53  1  0
 13 54  1  1
 14 55  1  0
 14 56  1  0
 15 57  1  0
 15 58  1  0
 20 59  1  0
 21 60  1  0
 24 61  1  0
 24 62  1  0
 24 63  1  0
 26 64  1  0
 27 65  1  0
 28 66  1  0
 28 67  1  0
 29 68  1  0
 29 69  1  0
 31 70  1  0
 31 71  1  0
 31 72  1  0
 32 73  1  0
 33 74  1  0
 34 75  1  0
 34 76  1  0
 34 77  1  0
 35 78  1  0
 35 79  1  0
 35 80  1  0
M  END
$$$$
