
     RDKit          3D

 60 62  0  0  0  0  0  0  0  0999 V2000
    9.6747   -1.1156   -0.2610 C   0  0  0  0  0  0  0  0  0  0  0  0
    8.2596   -0.8628    0.1925 C   0  0  0  0  0  0  0  0  0  0  0  0
    7.5740    0.5839   -0.5952 S   0  0  0  0  0  6  0  0  0  0  0  0
    7.5890    0.3925   -2.0731 O   0  0  0  0  0  0  0  0  0  0  0  0
    8.4459    1.7449   -0.2047 O   0  0  0  0  0  0  0  0  0  0  0  0
    5.9410    0.7817   -0.0004 C   0  0  0  0  0  0  0  0  0  0  0  0
    4.8684    0.7578   -0.8849 C   0  0  0  0  0  0  0  0  0  0  0  0
    3.5629    0.9077   -0.4769 C   0  0  0  0  0  0  0  0  0  0  0  0
    2.3334    0.9273   -1.1024 C   0  0  0  0  0  0  0  0  0  0  0  0
    1.3758    1.1180   -0.1317 C   0  0  0  0  0  0  0  0  0  0  0  0
   -0.0658    1.2564   -0.2958 C   0  0  0  0  0  0  0  0  0  0  0  0
   -0.8497   -0.0719   -0.1153 C   0  0  0  0  0  0  0  0  0  0  0  0
   -0.4781   -0.4064    1.2255 O   0  0  0  0  0  0  0  0  0  0  0  0
   -2.2359    0.3967   -0.1992 C   0  0  0  0  0  0  0  0  0  0  0  0
   -3.3800   -0.5632   -0.0678 C   0  0  0  0  0  0  0  0  0  0  0  0
   -3.3535   -1.2914    1.2229 C   0  0  0  0  0  0  0  0  0  0  0  0
   -3.4432   -1.3243   -1.3521 C   0  0  0  0  0  0  0  0  0  0  0  0
   -4.6298    0.3009   -0.0378 C   0  0  0  0  0  0  0  0  0  0  0  0
   -4.5427    1.6928   -0.1633 C   0  0  0  0  0  0  0  0  0  0  0  0
   -5.6779    2.4751   -0.1342 C   0  0  0  0  0  0  0  0  0  0  0  0
   -6.8904    1.8889    0.0171 C   0  0  0  0  0  0  0  0  0  0  0  0
   -8.0580    2.6001    0.0551 F   0  0  0  0  0  0  0  0  0  0  0  0
   -6.9670    0.5348    0.1379 C   0  0  0  0  0  0  0  0  0  0  0  0
   -5.8429   -0.3194    0.1159 C   0  0  0  0  0  0  0  0  0  0  0  0
   -6.1061   -1.7088    0.2338 C   0  0  0  0  0  0  0  0  0  0  0  0
   -7.4179   -2.1336    0.7023 N   0  0  0  0  0  0  0  0  0  0  0  0
   -5.3836   -2.6552    0.0006 O   0  0  0  0  0  0  0  0  0  0  0  0
   -0.2605   -1.0326   -1.0238 C   0  0  0  0  0  0  0  0  0  0  0  0
   -0.7663   -2.3115   -1.0625 F   0  0  0  0  0  0  0  0  0  0  0  0
   -0.0854   -0.5217   -2.3032 F   0  0  0  0  0  0  0  0  0  0  0  0
    1.0600   -1.2643   -0.5541 F   0  0  0  0  0  0  0  0  0  0  0  0
    2.0411    1.2088    1.0461 N   0  0  0  0  0  0  0  0  0  0  0  0
    3.3618    1.0882    0.8908 C   0  0  0  0  0  0  0  0  0  0  0  0
    4.4222    1.1126    1.7717 C   0  0  0  0  0  0  0  0  0  0  0  0
    5.6692    0.9599    1.3038 N   0  0  0  0  0  0  0  0  0  0  0  0
    9.8974   -0.5732   -1.1882 H   0  0  0  0  0  0  0  0  0  0  0  0
   10.4128   -0.9173    0.5439 H   0  0  0  0  0  0  0  0  0  0  0  0
    9.7515   -2.2106   -0.4877 H   0  0  0  0  0  0  0  0  0  0  0  0
    7.5774   -1.6948   -0.0129 H   0  0  0  0  0  0  0  0  0  0  0  0
    8.2371   -0.6579    1.2920 H   0  0  0  0  0  0  0  0  0  0  0  0
    5.0226    0.6169   -1.9543 H   0  0  0  0  0  0  0  0  0  0  0  0
    2.1965    0.8141   -2.1675 H   0  0  0  0  0  0  0  0  0  0  0  0
   -0.3538    1.6319   -1.3193 H   0  0  0  0  0  0  0  0  0  0  0  0
   -0.5089    2.0254    0.4009 H   0  0  0  0  0  0  0  0  0  0  0  0
    0.0126   -1.2707    1.2348 H   0  0  0  0  0  0  0  0  0  0  0  0
   -2.3609    0.9500   -1.1415 H   0  0  0  0  0  0  0  0  0  0  0  0
   -2.3541    1.1204    0.6469 H   0  0  0  0  0  0  0  0  0  0  0  0
   -4.2733   -1.2522    1.8371 H   0  0  0  0  0  0  0  0  0  0  0  0
   -3.0545   -2.3497    1.1255 H   0  0  0  0  0  0  0  0  0  0  0  0
   -2.6152   -0.7983    1.9548 H   0  0  0  0  0  0  0  0  0  0  0  0
   -3.2870   -2.3949   -1.3226 H   0  0  0  0  0  0  0  0  0  0  0  0
   -4.4188   -1.1613   -1.9235 H   0  0  0  0  0  0  0  0  0  0  0  0
   -2.7314   -0.8494   -2.1309 H   0  0  0  0  0  0  0  0  0  0  0  0
   -3.5743    2.1567   -0.2915 H   0  0  0  0  0  0  0  0  0  0  0  0
   -5.5653    3.5387   -0.2337 H   0  0  0  0  0  0  0  0  0  0  0  0
   -7.9630    0.0698    0.2580 H   0  0  0  0  0  0  0  0  0  0  0  0
   -7.4474   -2.5976    1.6177 H   0  0  0  0  0  0  0  0  0  0  0  0
   -8.2206   -1.9478    0.1014 H   0  0  0  0  0  0  0  0  0  0  0  0
    1.5872    1.3553    1.9701 H   0  0  0  0  0  0  0  0  0  0  0  0
    4.2892    1.2504    2.8287 H   0  0  0  0  0  0  0  0  0  0  0  0
  1  2  1  0
  2  3  1  0
  3  4  2  0
  3  5  2  0
  3  6  1  0
  6  7  2  0
  7  8  1  0
  8  9  1  0
  9 10  2  0
 10 11  1  0
 11 12  1  0
 12 13  1  0
 12 14  1  0
 14 15  1  0
 15 16  1  0
 15 17  1  0
 15 18  1  0
 18 19  2  0
 19 20  1  0
 20 21  2  0
 21 22  1  0
 21 23  1  0
 23 24  2  0
 24 25  1  0
 25 26  1  0
 25 27  2  0
 12 28  1  0
 28 29  1  0
 28 30  1  0
 28 31  1  0
 10 32  1  0
 32 33  1  0
 33 34  1  0
 34 35  2  0
 35  6  1  0
 33  8  2  0
 24 18  1  0
  1 36  1  0
  1 37  1  0
  1 38  1  0
  2 39  1  0
  2 40  1  0
  7 41  1  0
  9 42  1  0
 11 43  1  0
 11 44  1  0
 13 45  1  0
 14 46  1  0
 14 47  1  0
 16 48  1  0
 16 49  1  0
 16 50  1  0
 17 51  1  0
 17 52  1  0
 17 53  1  0
 19 54  1  0
 20 55  1  0
 23 56  1  0
 26 57  1  0
 26 58  1  0
 32 59  1  0
 34 60  1  0
M  END
$$$$
