
     RDKit          3D

 48 50  0  0  0  0  0  0  0  0999 V2000
    5.3417   -2.1424    1.3289 O   0  0  0  0  0  0  0  0  0  0  0  0
    5.2349   -0.9245    1.0394 C   0  0  0  0  0  0  0  0  0  0  0  0
    6.0310    0.0811    1.7805 C   0  0  0  0  0  0  0  0  0  0  0  0
    6.8127   -0.5619    2.7374 O   0  0  0  0  0  0  0  0  0  0  0  0
    4.3473   -0.5584    0.0042 N   0  0  0  0  0  0  0  0  0  0  0  0
    3.5855   -1.5678   -0.6984 C   0  0  0  0  0  0  0  0  0  0  0  0
    2.1428   -1.1029   -0.9185 C   0  0  0  0  0  0  0  0  0  0  0  0
    2.0594    0.2715   -1.2223 N   0  0  0  0  0  0  0  0  0  0  0  0
    0.8561    0.9990   -1.2572 C   0  0  0  0  0  0  0  0  0  0  0  0
    0.9224    2.2664   -1.5547 O   0  0  0  0  0  0  0  0  0  0  0  0
   -0.4437    0.5392   -1.0103 N   0  0  0  0  0  0  0  0  0  0  0  0
   -0.9081   -0.7549   -0.6543 C   0  0  0  0  0  0  0  0  0  0  0  0
   -2.4269   -0.8758   -0.7400 C   0  0  0  0  0  0  0  0  0  0  0  0
   -3.0721    0.1932   -0.0106 N   0  0  0  0  0  0  0  0  0  0  0  0
   -4.3735    0.1083    0.5374 C   0  0  0  0  0  0  0  0  0  0  0  0
   -5.1676   -1.0014    0.2257 C   0  0  0  0  0  0  0  0  0  0  0  0
   -6.4325   -1.1302    0.7392 C   0  0  0  0  0  0  0  0  0  0  0  0
   -6.9758   -0.1814    1.5786 C   0  0  0  0  0  0  0  0  0  0  0  0
   -8.6034   -0.3728    2.2234 Cl  0  0  0  0  0  0  0  0  0  0  0  0
   -6.2261    0.9107    1.9002 C   0  0  0  0  0  0  0  0  0  0  0  0
   -4.9373    1.0322    1.3712 C   0  0  0  0  0  0  0  0  0  0  0  0
   -2.3174    1.4300    0.1544 C   0  0  0  0  0  0  0  0  0  0  0  0
   -1.5209    1.5625   -1.1497 C   0  0  0  0  0  0  0  0  0  0  0  0
    3.3123    0.9963   -1.5272 C   0  0  0  0  0  0  0  0  0  0  0  0
    4.2282    0.8533   -0.3262 C   0  0  0  0  0  0  0  0  0  0  0  0
    6.6888    0.6761    1.1253 H   0  0  0  0  0  0  0  0  0  0  0  0
    5.3480    0.7749    2.3338 H   0  0  0  0  0  0  0  0  0  0  0  0
    7.0358   -1.4915    2.4781 H   0  0  0  0  0  0  0  0  0  0  0  0
    3.5206   -2.4882   -0.0843 H   0  0  0  0  0  0  0  0  0  0  0  0
    4.0674   -1.8289   -1.6604 H   0  0  0  0  0  0  0  0  0  0  0  0
    1.5361   -1.3487   -0.0323 H   0  0  0  0  0  0  0  0  0  0  0  0
    1.7919   -1.6809   -1.8146 H   0  0  0  0  0  0  0  0  0  0  0  0
   -0.4550   -1.5174   -1.3016 H   0  0  0  0  0  0  0  0  0  0  0  0
   -0.6823   -1.0317    0.4061 H   0  0  0  0  0  0  0  0  0  0  0  0
   -2.7677   -1.8595   -0.3821 H   0  0  0  0  0  0  0  0  0  0  0  0
   -2.7004   -0.7763   -1.8027 H   0  0  0  0  0  0  0  0  0  0  0  0
   -4.7903   -1.7866   -0.4368 H   0  0  0  0  0  0  0  0  0  0  0  0
   -7.0590   -1.9971    0.4986 H   0  0  0  0  0  0  0  0  0  0  0  0
   -6.6197    1.6713    2.5535 H   0  0  0  0  0  0  0  0  0  0  0  0
   -4.3722    1.9123    1.6534 H   0  0  0  0  0  0  0  0  0  0  0  0
   -1.5801    1.2857    0.9559 H   0  0  0  0  0  0  0  0  0  0  0  0
   -2.9698    2.3168    0.2933 H   0  0  0  0  0  0  0  0  0  0  0  0
   -2.2099    1.2505   -1.9592 H   0  0  0  0  0  0  0  0  0  0  0  0
   -1.1181    2.5655   -1.2754 H   0  0  0  0  0  0  0  0  0  0  0  0
    3.7538    0.5268   -2.4049 H   0  0  0  0  0  0  0  0  0  0  0  0
    3.1125    2.0659   -1.6688 H   0  0  0  0  0  0  0  0  0  0  0  0
    5.2060    1.3314   -0.5289 H   0  0  0  0  0  0  0  0  0  0  0  0
    3.7947    1.3602    0.5579 H   0  0  0  0  0  0  0  0  0  0  0  0
  1  2  2  0
  2  3  1  0
  3  4  1  0
  2  5  1  0
  5  6  1  0
  6  7  1  0
  7  8  1  0
  8  9  1  0
  9 10  2  0
  9 11  1  0
 11 12  1  0
 12 13  1  0
 13 14  1  0
 14 15  1  0
 15 16  2  0
 16 17  1  0
 17 18  2  0
 18 19  1  0
 18 20  1  0
 20 21  2  0
 14 22  1  0
 22 23  1  0
  8 24  1  0
 24 25  1  0
 25  5  1  0
 23 11  1  0
 21 15  1  0
  3 26  1  0
  3 27  1  0
  4 28  1  0
  6 29  1  0
  6 30  1  0
  7 31  1  0
  7 32  1  0
 12 33  1  0
 12 34  1  0
 13 35  1  0
 13 36  1  0
 16 37  1  0
 17 38  1  0
 20 39  1  0
 21 40  1  0
 22 41  1  0
 22 42  1  0
 23 43  1  0
 23 44  1  0
 24 45  1  0
 24 46  1  0
 25 47  1  0
 25 48  1  0
M  END
$$$$
