
     RDKit          3D

 51 54  0  0  0  0  0  0  0  0999 V2000
  -10.0520    0.6418    0.7215 C   0  0  0  0  0  0  0  0  0  0  0  0
   -8.8455    0.4656   -0.1496 C   0  0  0  0  0  0  0  0  0  0  0  0
   -9.0156    0.4445   -1.5143 C   0  0  0  0  0  0  0  0  0  0  0  0
   -7.9216    0.2859   -2.2673 N   0  0  0  0  0  0  0  0  0  0  0  0
   -6.6912    0.1516   -1.6804 C   0  0  0  0  0  0  0  0  0  0  0  0
   -6.4779    0.1667   -0.3359 C   0  0  0  0  0  0  0  0  0  0  0  0
   -5.2445    0.0341    0.3114 N   0  0  0  0  0  0  0  0  0  0  0  0
   -3.9647   -0.1405   -0.2373 C   0  0  0  0  0  0  0  0  0  0  0  0
   -3.8570   -0.1913   -1.4757 O   0  0  0  0  0  0  0  0  0  0  0  0
   -2.7265   -0.2695    0.5480 C   0  0  0  0  0  0  0  0  0  0  0  0
   -2.6880   -0.2328    1.9225 C   0  0  0  0  0  0  0  0  0  0  0  0
   -1.4762   -0.3615    2.6047 C   0  0  0  0  0  0  0  0  0  0  0  0
   -0.2820   -0.5282    1.9566 C   0  0  0  0  0  0  0  0  0  0  0  0
   -0.3135   -0.5658    0.5787 C   0  0  0  0  0  0  0  0  0  0  0  0
    0.8973   -0.7376   -0.1758 N   0  0  0  0  0  0  0  0  0  0  0  0
    2.0641   -1.1633    0.3434 C   0  0  0  0  0  0  0  0  0  0  0  0
    2.9450   -1.1815   -0.7165 C   0  0  0  0  0  0  0  0  0  0  0  0
    4.3086   -1.5689   -0.6369 N   0  0  0  0  0  0  0  0  0  0  0  0
    5.3362   -0.6357   -0.3578 C   0  0  0  0  0  0  0  0  0  0  0  0
    5.0186    0.5831   -0.1746 O   0  0  0  0  0  0  0  0  0  0  0  0
    6.7062   -0.9524   -0.2648 N   0  0  0  0  0  0  0  0  0  0  0  0
    7.7167    0.0280    0.0207 C   0  0  0  0  0  0  0  0  0  0  0  0
    8.3456    0.7221   -0.9925 C   0  0  0  0  0  0  0  0  0  0  0  0
    9.3087    1.6562   -0.7163 C   0  0  0  0  0  0  0  0  0  0  0  0
    9.6847    1.9382    0.5668 C   0  0  0  0  0  0  0  0  0  0  0  0
    9.0663    1.2540    1.5893 C   0  0  0  0  0  0  0  0  0  0  0  0
    8.0897    0.3069    1.3064 C   0  0  0  0  0  0  0  0  0  0  0  0
    7.3043   -0.5624    2.6100 Cl  0  0  0  0  0  0  0  0  0  0  0  0
    2.2819   -0.7623   -1.8610 C   0  0  0  0  0  0  0  0  0  0  0  0
    1.0336   -0.5042   -1.4712 N   0  0  0  0  0  0  0  0  0  0  0  0
   -1.5106   -0.4386   -0.0939 C   0  0  0  0  0  0  0  0  0  0  0  0
   -7.6248    0.3334    0.4627 C   0  0  0  0  0  0  0  0  0  0  0  0
  -10.8622    1.1697    0.1802 H   0  0  0  0  0  0  0  0  0  0  0  0
  -10.4557   -0.3080    1.0740 H   0  0  0  0  0  0  0  0  0  0  0  0
   -9.7260    1.2522    1.5802 H   0  0  0  0  0  0  0  0  0  0  0  0
  -10.0164    0.5549   -1.9541 H   0  0  0  0  0  0  0  0  0  0  0  0
   -5.8214    0.0237   -2.3345 H   0  0  0  0  0  0  0  0  0  0  0  0
   -5.2463    0.0669    1.3831 H   0  0  0  0  0  0  0  0  0  0  0  0
   -3.6153   -0.1021    2.4714 H   0  0  0  0  0  0  0  0  0  0  0  0
   -1.4770   -0.3290    3.6811 H   0  0  0  0  0  0  0  0  0  0  0  0
    0.6694   -0.6297    2.4781 H   0  0  0  0  0  0  0  0  0  0  0  0
    2.3102   -1.4422    1.3591 H   0  0  0  0  0  0  0  0  0  0  0  0
    4.5919   -2.5642   -0.7839 H   0  0  0  0  0  0  0  0  0  0  0  0
    6.9834   -1.9596   -0.4145 H   0  0  0  0  0  0  0  0  0  0  0  0
    8.0477    0.4987   -2.0098 H   0  0  0  0  0  0  0  0  0  0  0  0
    9.7966    2.1970   -1.5372 H   0  0  0  0  0  0  0  0  0  0  0  0
   10.4561    2.6889    0.7532 H   0  0  0  0  0  0  0  0  0  0  0  0
    9.3269    1.4394    2.6243 H   0  0  0  0  0  0  0  0  0  0  0  0
    2.6692   -0.6569   -2.8697 H   0  0  0  0  0  0  0  0  0  0  0  0
   -1.5349   -0.4685   -1.1870 H   0  0  0  0  0  0  0  0  0  0  0  0
   -7.5124    0.3530    1.5499 H   0  0  0  0  0  0  0  0  0  0  0  0
  1  2  1  0
  2  3  2  0
  3  4  1  0
  4  5  2  0
  5  6  1  0
  6  7  1  0
  7  8  1  0
  8  9  2  0
  8 10  1  0
 10 11  2  0
 11 12  1  0
 12 13  2  0
 13 14  1  0
 14 15  1  0
 15 16  1  0
 16 17  2  0
 17 18  1  0
 18 19  1  0
 19 20  2  0
 19 21  1  0
 21 22  1  0
 22 23  2  0
 23 24  1  0
 24 25  2  0
 25 26  1  0
 26 27  2  0
 27 28  1  0
 17 29  1  0
 29 30  2  0
 14 31  2  0
  6 32  2  0
 32  2  1  0
 31 10  1  0
 30 15  1  0
 27 22  1  0
  1 33  1  0
  1 34  1  0
  1 35  1  0
  3 36  1  0
  5 37  1  0
  7 38  1  0
 11 39  1  0
 12 40  1  0
 13 41  1  0
 16 42  1  0
 18 43  1  0
 21 44  1  0
 23 45  1  0
 24 46  1  0
 25 47  1  0
 26 48  1  0
 29 49  1  0
 31 50  1  0
 32 51  1  0
M  END
$$$$
