
     RDKit          3D

 60 64  0  0  0  0  0  0  0  0999 V2000
  -10.1782    2.2541   -0.5055 N   0  0  0  0  0  0  0  0  0  0  0  0
   -9.2818    1.7169    0.4859 C   0  0  0  0  0  0  0  0  0  0  0  0
   -9.6381    1.5528    1.6806 O   0  0  0  0  0  0  0  0  0  0  0  0
   -7.9221    1.3448    0.1262 C   0  0  0  0  0  0  0  0  0  0  0  0
   -7.0059    0.8234    1.0087 C   0  0  0  0  0  0  0  0  0  0  0  0
   -5.8496    0.6071    0.2877 C   0  0  0  0  0  0  0  0  0  0  0  0
   -4.5971    0.1117    0.5904 C   0  0  0  0  0  0  0  0  0  0  0  0
   -3.5661   -0.0222   -0.2986 C   0  0  0  0  0  0  0  0  0  0  0  0
   -3.8770    0.3902   -1.5754 C   0  0  0  0  0  0  0  0  0  0  0  0
   -5.1030    0.8950   -1.9539 C   0  0  0  0  0  0  0  0  0  0  0  0
   -6.1065    1.0045   -1.0028 C   0  0  0  0  0  0  0  0  0  0  0  0
   -7.3419    1.4332   -1.0534 O   0  0  0  0  0  0  0  0  0  0  0  0
   -2.2905   -0.5411    0.0463 N   0  0  0  0  0  0  0  0  0  0  0  0
   -1.9773   -1.0314    1.3721 C   0  0  0  0  0  0  0  0  0  0  0  0
   -0.9730   -2.1214    1.1749 C   0  0  0  0  0  0  0  0  0  0  0  0
    0.2988   -1.5253    0.7358 N   0  0  0  0  0  0  0  0  0  0  0  0
    0.6891   -0.4808    1.6054 C   0  0  0  0  0  0  0  0  0  0  0  0
    2.1217   -0.2470    1.8300 C   0  0  0  0  0  0  0  0  0  0  0  0
    3.0739   -0.0011    0.7683 C   0  0  0  0  0  0  0  0  0  0  0  0
    3.4608   -1.0693   -0.1912 C   0  0  0  0  0  0  0  0  0  0  0  0
    4.4712   -0.4235   -1.1286 C   0  0  0  0  0  0  0  0  0  0  0  0
    4.3695    0.0376   -2.4142 C   0  0  0  0  0  0  0  0  0  0  0  0
    5.5635    0.5254   -2.7957 N   0  0  0  0  0  0  0  0  0  0  0  0
    6.4851    0.4187   -1.8228 C   0  0  0  0  0  0  0  0  0  0  0  0
    5.8041   -0.1741   -0.7806 C   0  0  0  0  0  0  0  0  0  0  0  0
    6.5149   -0.4174    0.3887 C   0  0  0  0  0  0  0  0  0  0  0  0
    7.8427   -0.1064    0.5684 C   0  0  0  0  0  0  0  0  0  0  0  0
    8.4883    0.4801   -0.4840 C   0  0  0  0  0  0  0  0  0  0  0  0
    7.8181    0.7435   -1.6753 C   0  0  0  0  0  0  0  0  0  0  0  0
    8.5167   -0.3857    1.8039 C   0  0  0  0  0  0  0  0  0  0  0  0
    9.0489   -0.5891    2.7920 N   0  0  0  0  0  0  0  0  0  0  0  0
    0.0608   -1.0123   -0.6316 C   0  0  0  0  0  0  0  0  0  0  0  0
   -1.2957   -0.5741   -0.9559 C   0  0  0  0  0  0  0  0  0  0  0  0
  -10.6114    1.7519   -1.2957 H   0  0  0  0  0  0  0  0  0  0  0  0
  -10.2406    3.2590   -0.1793 H   0  0  0  0  0  0  0  0  0  0  0  0
   -7.1368    0.6153    2.0570 H   0  0  0  0  0  0  0  0  0  0  0  0
   -4.4821   -0.1748    1.6258 H   0  0  0  0  0  0  0  0  0  0  0  0
   -3.1406    0.3336   -2.3709 H   0  0  0  0  0  0  0  0  0  0  0  0
   -5.2940    1.2049   -2.9722 H   0  0  0  0  0  0  0  0  0  0  0  0
   -2.9141   -1.4279    1.8595 H   0  0  0  0  0  0  0  0  0  0  0  0
   -1.5940   -0.1725    1.9342 H   0  0  0  0  0  0  0  0  0  0  0  0
   -1.3201   -2.8631    0.4552 H   0  0  0  0  0  0  0  0  0  0  0  0
   -0.7455   -2.5992    2.1472 H   0  0  0  0  0  0  0  0  0  0  0  0
    0.1801   -0.6561    2.6282 H   0  0  0  0  0  0  0  0  0  0  0  0
    0.1564    0.4604    1.2670 H   0  0  0  0  0  0  0  0  0  0  0  0
    2.5635   -1.1198    2.4638 H   0  0  0  0  0  0  0  0  0  0  0  0
    2.1847    0.6255    2.6046 H   0  0  0  0  0  0  0  0  0  0  0  0
    4.0327    0.4141    1.2562 H   0  0  0  0  0  0  0  0  0  0  0  0
    2.7228    0.8715    0.1181 H   0  0  0  0  0  0  0  0  0  0  0  0
    2.6636   -1.4982   -0.7432 H   0  0  0  0  0  0  0  0  0  0  0  0
    4.0820   -1.8698    0.3128 H   0  0  0  0  0  0  0  0  0  0  0  0
    3.4403   -0.0201   -2.9630 H   0  0  0  0  0  0  0  0  0  0  0  0
    5.7543    0.9452   -3.7529 H   0  0  0  0  0  0  0  0  0  0  0  0
    6.0357   -0.8889    1.2585 H   0  0  0  0  0  0  0  0  0  0  0  0
    9.5457    0.7289   -0.3444 H   0  0  0  0  0  0  0  0  0  0  0  0
    8.3476    1.2091   -2.4981 H   0  0  0  0  0  0  0  0  0  0  0  0
    0.7478   -0.1492   -0.7380 H   0  0  0  0  0  0  0  0  0  0  0  0
    0.4207   -1.7988   -1.3284 H   0  0  0  0  0  0  0  0  0  0  0  0
   -1.3221    0.4462   -1.4583 H   0  0  0  0  0  0  0  0  0  0  0  0
   -1.7010   -1.2441   -1.7767 H   0  0  0  0  0  0  0  0  0  0  0  0
  1  2  1  0
  2  3  2  0
  2  4  1  0
  4  5  2  0
  5  6  1  0
  6  7  2  0
  7  8  1  0
  8  9  2  0
  9 10  1  0
 10 11  2  0
 11 12  1  0
  8 13  1  0
 13 14  1  0
 14 15  1  0
 15 16  1  0
 16 17  1  0
 17 18  1  0
 18 19  1  0
 19 20  1  0
 20 21  1  0
 21 22  2  0
 22 23  1  0
 23 24  1  0
 24 25  2  0
 25 26  1  0
 26 27  2  0
 27 28  1  0
 28 29  2  0
 27 30  1  0
 30 31  3  0
 16 32  1  0
 32 33  1  0
 12  4  1  0
 33 13  1  0
 11  6  1  0
 25 21  1  0
 29 24  1  0
  1 34  1  0
  1 35  1  0
  5 36  1  0
  7 37  1  0
  9 38  1  0
 10 39  1  0
 14 40  1  0
 14 41  1  0
 15 42  1  0
 15 43  1  0
 17 44  1  0
 17 45  1  0
 18 46  1  0
 18 47  1  0
 19 48  1  0
 19 49  1  0
 20 50  1  0
 20 51  1  0
 22 52  1  0
 23 53  1  0
 26 54  1  0
 28 55  1  0
 29 56  1  0
 32 57  1  0
 32 58  1  0
 33 59  1  0
 33 60  1  0
M  END
$$$$
