
     RDKit          3D

 55 59  0  0  0  0  0  0  0  0999 V2000
   -3.1842   -3.3478    2.9287 C   0  0  0  0  0  0  0  0  0  0  0  0
   -2.9967   -2.4711    1.7525 C   0  0  0  0  0  0  0  0  0  0  0  0
   -1.7870   -1.8546    1.5404 C   0  0  0  0  0  0  0  0  0  0  0  0
   -1.5597   -1.0226    0.4524 C   0  0  0  0  0  0  0  0  0  0  0  0
   -0.2889   -0.4044    0.2726 N   0  0  0  0  0  0  0  0  0  0  0  0
    0.8040   -0.9506   -0.4510 C   0  0  0  0  0  0  0  0  0  0  0  0
    0.8347   -2.0573   -1.0475 O   0  0  0  0  0  0  0  0  0  0  0  0
    1.9418   -0.0164   -0.4110 C   0  0  0  0  0  0  0  0  0  0  0  0
    3.2468    0.2079   -0.8123 C   0  0  0  0  0  0  0  0  0  0  0  0
    4.0633   -0.6932   -1.6132 C   0  0  0  0  0  0  0  0  0  0  0  0
    4.0189   -0.5620   -2.8610 O   0  0  0  0  0  0  0  0  0  0  0  0
    4.8837   -1.6872   -1.0220 N   0  0  0  0  0  0  0  0  0  0  0  0
    5.6779   -2.5601   -1.8542 C   0  0  0  0  0  0  0  0  0  0  0  0
    4.9519   -1.8577    0.4105 C   0  0  0  0  0  0  0  0  0  0  0  0
    3.5907    1.4464   -0.2954 C   0  0  0  0  0  0  0  0  0  0  0  0
    2.5277    1.9139    0.3747 N   0  0  0  0  0  0  0  0  0  0  0  0
    2.5199    3.1912    1.0521 C   0  0  0  0  0  0  0  0  0  0  0  0
    1.5125    1.0534    0.3247 C   0  0  0  0  0  0  0  0  0  0  0  0
    0.1196    0.8663    0.7807 C   0  0  0  0  0  0  0  0  0  0  0  0
   -0.6798    1.9959    0.2719 C   0  0  0  0  0  0  0  0  0  0  0  0
   -1.1198    2.9710    1.1431 C   0  0  0  0  0  0  0  0  0  0  0  0
   -1.8722    4.0581    0.7428 C   0  0  0  0  0  0  0  0  0  0  0  0
   -2.2139    4.2007   -0.5829 C   0  0  0  0  0  0  0  0  0  0  0  0
   -3.1711    5.5741   -1.1240 Cl  0  0  0  0  0  0  0  0  0  0  0  0
   -1.7804    3.2302   -1.4733 C   0  0  0  0  0  0  0  0  0  0  0  0
   -1.0272    2.1474   -1.0543 C   0  0  0  0  0  0  0  0  0  0  0  0
   -2.5891   -0.8451   -0.3949 N   0  0  0  0  0  0  0  0  0  0  0  0
   -3.7989   -1.4162   -0.2493 C   0  0  0  0  0  0  0  0  0  0  0  0
   -4.0002   -2.2389    0.8399 C   0  0  0  0  0  0  0  0  0  0  0  0
   -5.2829   -2.6653    0.7321 N   0  0  0  0  0  0  0  0  0  0  0  0
   -5.8082   -2.1280   -0.3541 N   0  0  0  0  0  0  0  0  0  0  0  0
   -4.9331   -1.3593   -0.9799 N   0  0  0  0  0  0  0  0  0  0  0  0
   -5.1417   -0.6016   -2.2081 C   0  0  0  0  0  0  0  0  0  0  0  0
   -2.7982   -4.3781    2.7503 H   0  0  0  0  0  0  0  0  0  0  0  0
   -4.2497   -3.4587    3.2131 H   0  0  0  0  0  0  0  0  0  0  0  0
   -2.6387   -2.9488    3.8150 H   0  0  0  0  0  0  0  0  0  0  0  0
   -0.9363   -1.9887    2.2222 H   0  0  0  0  0  0  0  0  0  0  0  0
    5.9764   -3.4739   -1.3268 H   0  0  0  0  0  0  0  0  0  0  0  0
    6.5609   -1.9679   -2.2090 H   0  0  0  0  0  0  0  0  0  0  0  0
    5.0777   -2.7717   -2.7759 H   0  0  0  0  0  0  0  0  0  0  0  0
    4.0076   -1.5416    0.8969 H   0  0  0  0  0  0  0  0  0  0  0  0
    5.0817   -2.9342    0.6516 H   0  0  0  0  0  0  0  0  0  0  0  0
    5.7791   -1.2997    0.8801 H   0  0  0  0  0  0  0  0  0  0  0  0
    4.5678    1.8853   -0.4529 H   0  0  0  0  0  0  0  0  0  0  0  0
    1.8409    3.1439    1.9374 H   0  0  0  0  0  0  0  0  0  0  0  0
    2.2166    4.0015    0.3686 H   0  0  0  0  0  0  0  0  0  0  0  0
    3.5156    3.4634    1.4533 H   0  0  0  0  0  0  0  0  0  0  0  0
    0.0676    0.8404    1.8797 H   0  0  0  0  0  0  0  0  0  0  0  0
   -0.8888    2.9280    2.2134 H   0  0  0  0  0  0  0  0  0  0  0  0
   -2.2170    4.8205    1.4196 H   0  0  0  0  0  0  0  0  0  0  0  0
   -2.0656    3.3710   -2.5086 H   0  0  0  0  0  0  0  0  0  0  0  0
   -0.6991    1.4022   -1.7630 H   0  0  0  0  0  0  0  0  0  0  0  0
   -5.6270   -1.2703   -2.9312 H   0  0  0  0  0  0  0  0  0  0  0  0
   -4.1883   -0.1791   -2.5374 H   0  0  0  0  0  0  0  0  0  0  0  0
   -5.8417    0.2397   -2.0274 H   0  0  0  0  0  0  0  0  0  0  0  0
  1  2  1  0
  2  3  2  0
  3  4  1  0
  4  5  1  0
  5  6  1  0
  6  7  2  0
  6  8  1  0
  8  9  1  0
  9 10  1  0
 10 11  2  0
 10 12  1  0
 12 13  1  0
 12 14  1  0
  9 15  2  0
 15 16  1  0
 16 17  1  0
 16 18  1  0
 18 19  1  0
 19 20  1  0
 20 21  2  0
 21 22  1  0
 22 23  2  0
 23 24  1  0
 23 25  1  0
 25 26  2  0
  4 27  2  0
 27 28  1  0
 28 29  2  0
 29 30  1  0
 30 31  2  0
 31 32  1  0
 32 33  1  0
 29  2  1  0
 19  5  1  0
 26 20  1  0
 32 28  1  0
 18  8  2  0
  1 34  1  0
  1 35  1  0
  1 36  1  0
  3 37  1  0
 13 38  1  0
 13 39  1  0
 13 40  1  0
 14 41  1  0
 14 42  1  0
 14 43  1  0
 15 44  1  0
 17 45  1  0
 17 46  1  0
 17 47  1  0
 19 48  1  0
 21 49  1  0
 22 50  1  0
 25 51  1  0
 26 52  1  0
 33 53  1  0
 33 54  1  0
 33 55  1  0
M  END
$$$$
