
     RDKit          3D

 36 37  0  0  0  0  0  0  0  0999 V2000
    5.2755   -0.3024    1.6408 O   0  0  0  0  0  0  0  0  0  0  0  0
    5.0321    0.4546    0.6646 C   0  0  0  0  0  0  0  0  0  0  0  0
    4.1430    0.0585   -0.4595 C   0  0  0  0  0  0  0  0  0  0  0  0
    3.6469   -1.3220   -0.1908 C   0  0  0  0  0  0  0  0  0  0  0  0
    2.7279   -1.8491   -1.2617 C   0  0  0  0  0  0  0  0  0  0  0  0
    1.5135   -0.9984   -1.4223 C   0  0  0  0  0  0  0  0  0  0  0  0
    1.5428    0.0785   -2.3379 C   0  0  0  0  0  0  0  0  0  0  0  0
   -0.1415    0.7423   -2.1270 S   0  0  0  0  0  0  0  0  0  0  0  0
   -0.6104   -0.4971   -0.8750 C   0  0  0  0  0  0  0  0  0  0  0  0
   -1.9393   -0.5260   -0.2455 C   0  0  0  0  0  0  0  0  0  0  0  0
   -2.8832    0.3223   -0.5263 C   0  0  0  0  0  0  0  0  0  0  0  0
   -4.2030    0.3436    0.0570 C   0  0  0  0  0  0  0  0  0  0  0  0
   -5.1173    1.3196   -0.3442 C   0  0  0  0  0  0  0  0  0  0  0  0
   -6.3830    1.3660    0.1934 C   0  0  0  0  0  0  0  0  0  0  0  0
   -6.7473    0.4320    1.1418 C   0  0  0  0  0  0  0  0  0  0  0  0
   -5.8538   -0.5368    1.5465 C   0  0  0  0  0  0  0  0  0  0  0  0
   -4.5679   -0.5894    1.0048 C   0  0  0  0  0  0  0  0  0  0  0  0
    0.4057   -1.1549   -0.7866 N   0  0  0  0  0  0  0  0  0  0  0  0
    5.6464    1.7393    0.6600 N   0  0  0  0  0  0  0  0  0  0  0  0
    6.4666    2.1558    1.6575 O   0  0  0  0  0  0  0  0  0  0  0  0
    3.3212    0.7930   -0.5730 H   0  0  0  0  0  0  0  0  0  0  0  0
    4.7920    0.0245   -1.3714 H   0  0  0  0  0  0  0  0  0  0  0  0
    3.2201   -1.3776    0.8075 H   0  0  0  0  0  0  0  0  0  0  0  0
    4.5420   -2.0005   -0.1932 H   0  0  0  0  0  0  0  0  0  0  0  0
    2.4492   -2.8938   -0.9452 H   0  0  0  0  0  0  0  0  0  0  0  0
    3.2508   -1.9566   -2.2311 H   0  0  0  0  0  0  0  0  0  0  0  0
    2.2682    0.4287   -2.9617 H   0  0  0  0  0  0  0  0  0  0  0  0
   -2.0925   -1.2894    0.4639 H   0  0  0  0  0  0  0  0  0  0  0  0
   -2.6403    1.0828   -1.2741 H   0  0  0  0  0  0  0  0  0  0  0  0
   -4.7912    2.0439   -1.0995 H   0  0  0  0  0  0  0  0  0  0  0  0
   -7.0990    2.1322   -0.1223 H   0  0  0  0  0  0  0  0  0  0  0  0
   -7.7622    0.4956    1.5507 H   0  0  0  0  0  0  0  0  0  0  0  0
   -6.1751   -1.2573    2.2963 H   0  0  0  0  0  0  0  0  0  0  0  0
   -3.8895   -1.3601    1.3415 H   0  0  0  0  0  0  0  0  0  0  0  0
    5.4894    2.4242   -0.1215 H   0  0  0  0  0  0  0  0  0  0  0  0
    7.1632    1.4736    1.8415 H   0  0  0  0  0  0  0  0  0  0  0  0
  1  2  2  0
  2  3  1  0
  3  4  1  0
  4  5  1  0
  5  6  1  0
  6  7  2  0
  7  8  1  0
  8  9  1  0
  9 10  1  0
 10 11  2  0
 11 12  1  0
 12 13  2  0
 13 14  1  0
 14 15  2  0
 15 16  1  0
 16 17  2  0
  9 18  2  0
  2 19  1  0
 19 20  1  0
 18  6  1  0
 17 12  1  0
  3 21  1  0
  3 22  1  0
  4 23  1  0
  4 24  1  0
  5 25  1  0
  5 26  1  0
  7 27  1  0
 10 28  1  0
 11 29  1  0
 13 30  1  0
 14 31  1  0
 15 32  1  0
 16 33  1  0
 17 34  1  0
 19 35  1  0
 20 36  1  0
M  END
$$$$
