
     RDKit          3D

 55 59  0  0  0  0  0  0  0  0999 V2000
    6.5823    2.6706   -0.3036 N   0  0  0  0  0  0  0  0  0  0  0  0
    7.0476    1.2752   -0.2532 C   0  0  0  0  0  0  0  0  0  0  0  0
    5.8376    0.4741    0.1808 C   0  0  0  0  0  0  0  0  0  0  0  0
    4.7182    0.6494   -0.8225 C   0  0  0  0  0  0  0  0  0  0  0  0
    3.4953    0.0082   -0.1966 C   0  0  0  0  0  0  0  0  0  0  0  0
    3.6717   -1.3721    0.0843 N   0  0  0  0  0  0  0  0  0  0  0  0
    2.8809   -1.8820    1.1550 C   0  0  0  0  0  0  0  0  0  0  0  0
    1.4392   -1.6903    0.8022 C   0  0  0  0  0  0  0  0  0  0  0  0
    0.6562   -0.5974    1.0968 C   0  0  0  0  0  0  0  0  0  0  0  0
   -0.6593   -0.5463    0.7123 C   0  0  0  0  0  0  0  0  0  0  0  0
   -1.2700   -1.5687    0.0184 C   0  0  0  0  0  0  0  0  0  0  0  0
   -2.5603   -1.2558   -0.2293 N   0  0  0  0  0  0  0  0  0  0  0  0
   -2.8184   -0.0480    0.2854 C   0  0  0  0  0  0  0  0  0  0  0  0
   -1.6498    0.3937    0.8669 C   0  0  0  0  0  0  0  0  0  0  0  0
   -4.1262    0.5872    0.1910 C   0  0  0  0  0  0  0  0  0  0  0  0
   -5.1374   -0.0895   -0.4579 C   0  0  0  0  0  0  0  0  0  0  0  0
   -6.4110    0.4763   -0.5758 C   0  0  0  0  0  0  0  0  0  0  0  0
   -7.4318   -0.1949   -1.2250 C   0  0  0  0  0  0  0  0  0  0  0  0
   -8.6905    0.3516   -1.3479 C   0  0  0  0  0  0  0  0  0  0  0  0
   -8.9694    1.6118   -0.8135 C   0  0  0  0  0  0  0  0  0  0  0  0
   -7.9540    2.2577   -0.1784 C   0  0  0  0  0  0  0  0  0  0  0  0
   -6.6916    1.7184   -0.0508 C   0  0  0  0  0  0  0  0  0  0  0  0
   -5.6812    2.3511    0.5761 N   0  0  0  0  0  0  0  0  0  0  0  0
   -4.4529    1.8170    0.6956 C   0  0  0  0  0  0  0  0  0  0  0  0
   -3.5645    2.4655    1.2923 O   0  0  0  0  0  0  0  0  0  0  0  0
   -0.5126   -2.6799   -0.2932 C   0  0  0  0  0  0  0  0  0  0  0  0
    0.8088   -2.7186    0.0993 C   0  0  0  0  0  0  0  0  0  0  0  0
    4.9848   -1.8941   -0.0504 C   0  0  0  0  0  0  0  0  0  0  0  0
    6.1079   -0.9941    0.3223 C   0  0  0  0  0  0  0  0  0  0  0  0
    7.3958    3.3013   -0.2238 H   0  0  0  0  0  0  0  0  0  0  0  0
    5.9598    2.8364    0.5200 H   0  0  0  0  0  0  0  0  0  0  0  0
    7.4318    0.9592   -1.2264 H   0  0  0  0  0  0  0  0  0  0  0  0
    7.7935    1.2073    0.5617 H   0  0  0  0  0  0  0  0  0  0  0  0
    5.5343    0.8401    1.1847 H   0  0  0  0  0  0  0  0  0  0  0  0
    4.9736    0.0371   -1.7307 H   0  0  0  0  0  0  0  0  0  0  0  0
    4.4994    1.6864   -1.0832 H   0  0  0  0  0  0  0  0  0  0  0  0
    3.3334    0.5689    0.7696 H   0  0  0  0  0  0  0  0  0  0  0  0
    2.6058    0.1850   -0.8071 H   0  0  0  0  0  0  0  0  0  0  0  0
    3.0496   -1.3058    2.0917 H   0  0  0  0  0  0  0  0  0  0  0  0
    3.0205   -2.9585    1.3413 H   0  0  0  0  0  0  0  0  0  0  0  0
    1.1336    0.1899    1.6343 H   0  0  0  0  0  0  0  0  0  0  0  0
   -3.1943   -1.9139   -0.7510 H   0  0  0  0  0  0  0  0  0  0  0  0
   -1.5247    1.3375    1.3709 H   0  0  0  0  0  0  0  0  0  0  0  0
   -5.0421   -1.0642   -0.9088 H   0  0  0  0  0  0  0  0  0  0  0  0
   -7.2475   -1.1770   -1.6519 H   0  0  0  0  0  0  0  0  0  0  0  0
   -9.4680   -0.1935   -1.8591 H   0  0  0  0  0  0  0  0  0  0  0  0
   -9.9620    2.0481   -0.9077 H   0  0  0  0  0  0  0  0  0  0  0  0
   -8.1476    3.2248    0.2381 H   0  0  0  0  0  0  0  0  0  0  0  0
   -5.8614    3.2917    0.9837 H   0  0  0  0  0  0  0  0  0  0  0  0
   -0.9438   -3.5096   -0.8362 H   0  0  0  0  0  0  0  0  0  0  0  0
    1.3719   -3.6141   -0.1666 H   0  0  0  0  0  0  0  0  0  0  0  0
    5.0947   -2.3138   -1.0779 H   0  0  0  0  0  0  0  0  0  0  0  0
    5.0350   -2.8068    0.6127 H   0  0  0  0  0  0  0  0  0  0  0  0
    6.5622   -1.2201    1.3151 H   0  0  0  0  0  0  0  0  0  0  0  0
    6.9466   -1.2125   -0.4025 H   0  0  0  0  0  0  0  0  0  0  0  0
  1  2  1  0
  2  3  1  0
  3  4  1  0
  4  5  1  0
  5  6  1  0
  6  7  1  0
  7  8  1  0
  8  9  2  0
  9 10  1  0
 10 11  2  0
 11 12  1  0
 12 13  1  0
 13 14  2  0
 13 15  1  0
 15 16  2  0
 16 17  1  0
 17 18  2  0
 18 19  1  0
 19 20  2  0
 20 21  1  0
 21 22  2  0
 22 23  1  0
 23 24  1  0
 24 25  2  0
 11 26  1  0
 26 27  2  0
  6 28  1  0
 28 29  1  0
 29  3  1  0
 27  8  1  0
 14 10  1  0
 24 15  1  0
 22 17  1  0
  1 30  1  0
  1 31  1  0
  2 32  1  0
  2 33  1  0
  3 34  1  0
  4 35  1  0
  4 36  1  0
  5 37  1  0
  5 38  1  0
  7 39  1  0
  7 40  1  0
  9 41  1  0
 12 42  1  0
 14 43  1  0
 16 44  1  0
 18 45  1  0
 19 46  1  0
 20 47  1  0
 21 48  1  0
 23 49  1  0
 26 50  1  0
 27 51  1  0
 28 52  1  0
 28 53  1  0
 29 54  1  0
 29 55  1  0
M  END
$$$$
