
     RDKit          3D

 37 37  0  0  0  0  0  0  0  0999 V2000
   -4.4666   -0.4213    1.5223 C   0  0  0  0  0  0  0  0  0  0  0  0
   -3.9558   -1.2012    0.3166 C   0  0  0  0  0  0  0  0  0  0  0  0
   -2.9062   -0.4635   -0.3984 N   0  0  0  0  0  0  0  0  0  0  0  0
   -3.3195    0.4284   -1.4732 C   0  0  0  0  0  0  0  0  0  0  0  0
   -3.5982    1.8233   -0.9077 C   0  0  0  0  0  0  0  0  0  0  0  0
   -1.6481   -0.7680    0.1220 C   0  0  0  0  0  0  0  0  0  0  0  0
   -1.9303   -1.5579    1.0566 O   0  0  0  0  0  0  0  0  0  0  0  0
   -0.2688   -0.4340   -0.1257 C   0  0  0  0  0  0  0  0  0  0  0  0
    0.6416   -0.9684    0.6656 C   0  0  0  0  0  0  0  0  0  0  0  0
    1.9852   -0.5318    0.2828 C   0  0  0  0  0  0  0  0  0  0  0  0
    2.8593   -0.0305    1.2401 C   0  0  0  0  0  0  0  0  0  0  0  0
    4.1344    0.3767    0.9211 C   0  0  0  0  0  0  0  0  0  0  0  0
    4.5949    0.2968   -0.3978 C   0  0  0  0  0  0  0  0  0  0  0  0
    5.8641    0.6997   -0.7320 O   0  0  0  0  0  0  0  0  0  0  0  0
    3.7308   -0.1982   -1.3389 C   0  0  0  0  0  0  0  0  0  0  0  0
    4.1851   -0.2826   -2.6708 O   0  0  0  0  0  0  0  0  0  0  0  0
    2.4733   -0.5971   -1.0066 C   0  0  0  0  0  0  0  0  0  0  0  0
    4.9637    0.8800    1.9689 N   0  0  0  0  0  4  0  0  0  0  0  0
    6.3315    0.8742    2.0616 O   0  0  0  0  0  1  0  0  0  0  0  0
    4.4177    1.4128    2.9762 O   0  0  0  0  0  0  0  0  0  0  0  0
   -0.0272    0.4673   -1.2156 C   0  0  0  0  0  0  0  0  0  0  0  0
    0.1816    1.1828   -2.0958 N   0  0  0  0  0  0  0  0  0  0  0  0
   -5.1155    0.3976    1.1853 H   0  0  0  0  0  0  0  0  0  0  0  0
   -5.0523   -1.1320    2.1432 H   0  0  0  0  0  0  0  0  0  0  0  0
   -3.5768   -0.0503    2.0802 H   0  0  0  0  0  0  0  0  0  0  0  0
   -3.6707   -2.2183    0.5904 H   0  0  0  0  0  0  0  0  0  0  0  0
   -4.8556   -1.2693   -0.3671 H   0  0  0  0  0  0  0  0  0  0  0  0
   -2.5332    0.4273   -2.2406 H   0  0  0  0  0  0  0  0  0  0  0  0
   -4.2540    0.0771   -1.9476 H   0  0  0  0  0  0  0  0  0  0  0  0
   -3.4522    1.8568    0.1912 H   0  0  0  0  0  0  0  0  0  0  0  0
   -4.6501    2.1289   -1.0710 H   0  0  0  0  0  0  0  0  0  0  0  0
   -2.9315    2.5500   -1.3874 H   0  0  0  0  0  0  0  0  0  0  0  0
    0.3953   -1.6441    1.4947 H   0  0  0  0  0  0  0  0  0  0  0  0
    2.4829    0.0286    2.2771 H   0  0  0  0  0  0  0  0  0  0  0  0
    6.6294    0.0734   -1.0115 H   0  0  0  0  0  0  0  0  0  0  0  0
    4.4765   -1.2290   -2.9574 H   0  0  0  0  0  0  0  0  0  0  0  0
    1.8652   -0.9842   -1.7911 H   0  0  0  0  0  0  0  0  0  0  0  0
  1  2  1  0
  2  3  1  0
  3  4  1  0
  4  5  1  0
  3  6  1  0
  6  7  2  0
  6  8  1  0
  8  9  2  0
  9 10  1  0
 10 11  2  0
 11 12  1  0
 12 13  2  0
 13 14  1  0
 13 15  1  0
 15 16  1  0
 15 17  2  0
 12 18  1  0
 18 19  1  0
 18 20  2  0
  8 21  1  0
 21 22  3  0
 17 10  1  0
  1 23  1  0
  1 24  1  0
  1 25  1  0
  2 26  1  0
  2 27  1  0
  4 28  1  0
  4 29  1  0
  5 30  1  0
  5 31  1  0
  5 32  1  0
  9 33  1  0
 11 34  1  0
 14 35  1  0
 16 36  1  0
 17 37  1  0
M  CHG  2  18   1  19  -1
M  END
$$$$
