
     RDKit          3D

 60 64  0  0  0  0  0  0  0  0999 V2000
   -7.3256   -0.5276    0.8020 C   0  0  0  0  0  0  0  0  0  0  0  0
   -5.8339   -0.4200    0.9571 C   0  0  0  0  0  0  0  0  0  0  0  0
   -5.1943   -0.9511    2.0665 C   0  0  0  0  0  0  0  0  0  0  0  0
   -3.8170   -0.8417    2.1900 C   0  0  0  0  0  0  0  0  0  0  0  0
   -3.0653   -0.2147    1.2317 C   0  0  0  0  0  0  0  0  0  0  0  0
   -1.6098   -0.0852    1.3263 C   0  0  0  0  0  0  0  0  0  0  0  0
   -1.1346    0.9258    1.8903 O   0  0  0  0  0  0  0  0  0  0  0  0
   -0.7819   -1.0999    0.7814 N   0  0  0  0  0  0  0  0  0  0  0  0
   -1.3956   -2.2498    0.1385 C   0  0  0  0  0  0  0  0  0  0  0  0
   -0.3101   -2.9172   -0.6909 C   0  0  0  0  0  0  0  0  0  0  0  0
    0.4288   -1.9810   -1.4046 O   0  0  0  0  0  0  0  0  0  0  0  0
    1.1663   -1.1389   -0.6156 C   0  0  0  0  0  0  0  0  0  0  0  0
    0.6494   -1.0741    0.8232 C   0  0  1  0  0  0  0  0  0  0  0  0
    1.2459    0.1329    1.4845 C   0  0  0  0  0  0  0  0  0  0  0  0
    2.7357   -0.0568    1.4161 C   0  0  0  0  0  0  0  0  0  0  0  0
    3.5152    0.6252    0.5111 C   0  0  0  0  0  0  0  0  0  0  0  0
    4.8685    0.4374    0.4584 C   0  0  0  0  0  0  0  0  0  0  0  0
    5.7070    1.1645   -0.5135 C   0  0  0  0  0  0  0  0  0  0  0  0
    7.0343    0.9719   -0.5693 N   0  0  0  0  0  0  0  0  0  0  0  0
    7.8392    1.5989   -1.4249 C   0  0  0  0  0  0  0  0  0  0  0  0
    7.2896    2.4992   -2.3083 C   0  0  0  0  0  0  0  0  0  0  0  0
    5.9225    2.7077   -2.2619 C   0  0  0  0  0  0  0  0  0  0  0  0
    5.1579    2.0411   -1.3708 N   0  0  0  0  0  0  0  0  0  0  0  0
    5.4613   -0.4545    1.3317 C   0  0  0  0  0  0  0  0  0  0  0  0
    4.7173   -1.1578    2.2535 C   0  0  0  0  0  0  0  0  0  0  0  0
    3.3543   -0.9443    2.2796 C   0  0  0  0  0  0  0  0  0  0  0  0
    2.5747   -1.6054    3.1614 F   0  0  0  0  0  0  0  0  0  0  0  0
   -3.7115    0.3115    0.1299 C   0  0  0  0  0  0  0  0  0  0  0  0
   -2.9159    0.9714   -0.8729 N   0  0  0  0  0  0  0  0  0  0  0  0
   -2.4243    2.1919   -0.7624 N   0  0  0  0  0  0  0  0  0  0  0  0
   -1.7268    2.5100   -1.8736 C   0  0  0  0  0  0  0  0  0  0  0  0
   -1.8050    1.4123   -2.7020 C   0  0  0  0  0  0  0  0  0  0  0  0
   -2.5470    0.5040   -2.0310 N   0  0  0  0  0  0  0  0  0  0  0  0
   -5.0780    0.2065    0.0008 C   0  0  0  0  0  0  0  0  0  0  0  0
   -5.7274    0.7981   -1.2207 C   0  0  0  0  0  0  0  0  0  0  0  0
   -7.7278    0.4999    0.6947 H   0  0  0  0  0  0  0  0  0  0  0  0
   -7.6073   -1.0759   -0.1085 H   0  0  0  0  0  0  0  0  0  0  0  0
   -7.7633   -0.9522    1.7260 H   0  0  0  0  0  0  0  0  0  0  0  0
   -5.7986   -1.4448    2.8188 H   0  0  0  0  0  0  0  0  0  0  0  0
   -3.3039   -1.2522    3.0518 H   0  0  0  0  0  0  0  0  0  0  0  0
   -2.2016   -1.9617   -0.5465 H   0  0  0  0  0  0  0  0  0  0  0  0
   -1.7232   -3.0075    0.8788 H   0  0  0  0  0  0  0  0  0  0  0  0
   -0.7766   -3.6001   -1.4332 H   0  0  0  0  0  0  0  0  0  0  0  0
    0.3638   -3.5296   -0.0507 H   0  0  0  0  0  0  0  0  0  0  0  0
    1.1644   -0.0723   -0.9708 H   0  0  0  0  0  0  0  0  0  0  0  0
    2.2248   -1.4614   -0.6462 H   0  0  0  0  0  0  0  0  0  0  0  0
    0.9814   -1.9771    1.3840 H   0  0  0  0  0  0  0  0  0  0  0  0
    0.9693    0.1546    2.5505 H   0  0  0  0  0  0  0  0  0  0  0  0
    0.9815    1.0649    0.9340 H   0  0  0  0  0  0  0  0  0  0  0  0
    3.0621    1.3312   -0.1830 H   0  0  0  0  0  0  0  0  0  0  0  0
    8.9193    1.4500   -1.4800 H   0  0  0  0  0  0  0  0  0  0  0  0
    7.9021    3.0470   -3.0378 H   0  0  0  0  0  0  0  0  0  0  0  0
    5.4855    3.4197   -2.9600 H   0  0  0  0  0  0  0  0  0  0  0  0
    6.5408   -0.5779    1.2606 H   0  0  0  0  0  0  0  0  0  0  0  0
    5.1832   -1.8524    2.9330 H   0  0  0  0  0  0  0  0  0  0  0  0
   -1.1954    3.4190   -2.1221 H   0  0  0  0  0  0  0  0  0  0  0  0
   -1.3524    1.3350   -3.6781 H   0  0  0  0  0  0  0  0  0  0  0  0
   -5.6902    1.9010   -1.1150 H   0  0  0  0  0  0  0  0  0  0  0  0
   -6.7369    0.3928   -1.2998 H   0  0  0  0  0  0  0  0  0  0  0  0
   -5.1647    0.4599   -2.1193 H   0  0  0  0  0  0  0  0  0  0  0  0
  1  2  1  0
  2  3  2  0
  3  4  1  0
  4  5  2  0
  5  6  1  0
  6  7  2  0
  6  8  1  0
  8  9  1  0
  9 10  1  0
 10 11  1  0
 11 12  1  0
 12 13  1  0
 13 14  1  0
 14 15  1  0
 15 16  2  0
 16 17  1  0
 17 18  1  0
 18 19  2  0
 19 20  1  0
 20 21  2  0
 21 22  1  0
 22 23  2  0
 17 24  2  0
 24 25  1  0
 25 26  2  0
 26 27  1  0
  5 28  1  0
 28 29  1  0
 29 30  1  0
 30 31  2  0
 31 32  1  0
 32 33  2  0
 28 34  2  0
 34 35  1  0
 34  2  1  0
 13  8  1  0
 26 15  1  0
 33 29  1  0
 23 18  1  0
  1 36  1  0
  1 37  1  0
  1 38  1  0
  3 39  1  0
  4 40  1  0
  9 41  1  0
  9 42  1  0
 10 43  1  0
 10 44  1  0
 12 45  1  0
 12 46  1  0
 13 47  1  1
 14 48  1  0
 14 49  1  0
 16 50  1  0
 20 51  1  0
 21 52  1  0
 22 53  1  0
 24 54  1  0
 25 55  1  0
 31 56  1  0
 32 57  1  0
 35 58  1  0
 35 59  1  0
 35 60  1  0
M  END
$$$$
