
     RDKit          3D

 66 69  0  0  0  0  0  0  0  0999 V2000
    0.1745   -3.0278   -1.8240 C   0  0  0  0  0  0  0  0  0  0  0  0
    0.5299   -2.5038   -0.4259 C   0  0  1  0  0  0  0  0  0  0  0  0
    1.7997   -1.7460   -0.4948 C   0  0  0  0  0  0  0  0  0  0  0  0
    2.6415   -1.9266   -1.5951 C   0  0  0  0  0  0  0  0  0  0  0  0
    3.8146   -1.2157   -1.6416 C   0  0  0  0  0  0  0  0  0  0  0  0
    4.2105   -0.3310   -0.6610 C   0  0  0  0  0  0  0  0  0  0  0  0
    5.4535    0.4294   -0.6989 C   0  0  0  0  0  0  0  0  0  0  0  0
    5.9848    0.8319   -1.9086 C   0  0  0  0  0  0  0  0  0  0  0  0
    7.1628    1.5511   -1.9263 C   0  0  0  0  0  0  0  0  0  0  0  0
    7.8320    1.8839   -0.7682 C   0  0  0  0  0  0  0  0  0  0  0  0
    8.9167    2.5463   -0.7882 O   0  0  0  0  0  0  0  0  0  0  0  0
    7.2955    1.4807    0.4055 N   0  0  0  0  0  0  0  0  0  0  0  0
    8.0254    1.8485    1.6096 C   0  0  0  0  0  0  0  0  0  0  0  0
    6.1515    0.7813    0.4375 C   0  0  0  0  0  0  0  0  0  0  0  0
    3.3658   -0.1669    0.4165 C   0  0  0  0  0  0  0  0  0  0  0  0
    2.1736   -0.8671    0.4980 C   0  0  0  0  0  0  0  0  0  0  0  0
   -0.5172   -1.6236   -0.0297 N   0  0  0  0  0  0  0  0  0  0  0  0
   -0.8794   -0.3978   -0.7471 C   0  0  0  0  0  0  0  0  0  0  0  0
   -2.4254   -0.3249   -0.7803 C   0  0  0  0  0  0  0  0  0  0  0  0
   -2.9794   -0.1873    0.5953 C   0  0  2  0  0  0  0  0  0  0  0  0
   -4.2767   -0.8567    0.8194 C   0  0  0  0  0  0  0  0  0  0  0  0
   -5.4838   -0.5030    0.0851 C   0  0  0  0  0  0  0  0  0  0  0  0
   -5.4077   -0.7133   -1.3957 C   0  0  0  0  0  0  0  0  0  0  0  0
   -6.6363   -1.4268    0.5573 C   0  0  0  0  0  0  0  0  0  0  0  0
   -5.9792    0.7785    0.3930 O   0  0  0  0  0  0  0  0  0  0  0  0
   -2.9909    1.2455    1.0404 C   0  0  0  0  0  0  0  0  0  0  0  0
   -3.4961    1.5737    2.3033 C   0  0  0  0  0  0  0  0  0  0  0  0
   -3.5445    2.8396    2.7921 C   0  0  0  0  0  0  0  0  0  0  0  0
   -3.0838    3.8781    2.0394 C   0  0  0  0  0  0  0  0  0  0  0  0
   -2.5725    3.5978    0.7772 C   0  0  0  0  0  0  0  0  0  0  0  0
   -2.5336    2.2945    0.2991 C   0  0  0  0  0  0  0  0  0  0  0  0
   -2.0807   -0.8094    1.5647 O   0  0  0  0  0  0  0  0  0  0  0  0
   -1.3160   -1.8684    1.1223 C   0  0  0  0  0  0  0  0  0  0  0  0
   -1.2697   -3.0112    1.6475 O   0  0  0  0  0  0  0  0  0  0  0  0
   -0.8780   -3.3759   -1.7895 H   0  0  0  0  0  0  0  0  0  0  0  0
    0.3532   -2.2112   -2.5228 H   0  0  0  0  0  0  0  0  0  0  0  0
    0.7860   -3.9038   -2.0888 H   0  0  0  0  0  0  0  0  0  0  0  0
    0.5782   -3.3400    0.2951 H   0  0  0  0  0  0  0  0  0  0  0  0
    2.3463   -2.6249   -2.3856 H   0  0  0  0  0  0  0  0  0  0  0  0
    4.4827   -1.3379   -2.4817 H   0  0  0  0  0  0  0  0  0  0  0  0
    5.4515    0.5660   -2.8188 H   0  0  0  0  0  0  0  0  0  0  0  0
    7.6024    1.8797   -2.8605 H   0  0  0  0  0  0  0  0  0  0  0  0
    8.6288    2.7670    1.4561 H   0  0  0  0  0  0  0  0  0  0  0  0
    8.6660    0.9814    1.8712 H   0  0  0  0  0  0  0  0  0  0  0  0
    7.2637    1.9655    2.4139 H   0  0  0  0  0  0  0  0  0  0  0  0
    5.7479    0.4736    1.3855 H   0  0  0  0  0  0  0  0  0  0  0  0
    3.6397    0.5181    1.2073 H   0  0  0  0  0  0  0  0  0  0  0  0
    1.5085   -0.7442    1.3372 H   0  0  0  0  0  0  0  0  0  0  0  0
   -0.5620    0.4434   -0.1043 H   0  0  0  0  0  0  0  0  0  0  0  0
   -0.5404   -0.3734   -1.7774 H   0  0  0  0  0  0  0  0  0  0  0  0
   -2.7448   -1.3071   -1.2232 H   0  0  0  0  0  0  0  0  0  0  0  0
   -2.6359    0.4607   -1.4931 H   0  0  0  0  0  0  0  0  0  0  0  0
   -4.1024   -1.9833    0.6598 H   0  0  0  0  0  0  0  0  0  0  0  0
   -4.5561   -0.8636    1.9300 H   0  0  0  0  0  0  0  0  0  0  0  0
   -4.8140    0.0274   -1.9364 H   0  0  0  0  0  0  0  0  0  0  0  0
   -6.4594   -0.7428   -1.8427 H   0  0  0  0  0  0  0  0  0  0  0  0
   -4.9832   -1.7222   -1.5926 H   0  0  0  0  0  0  0  0  0  0  0  0
   -7.4875   -1.3345   -0.1223 H   0  0  0  0  0  0  0  0  0  0  0  0
   -6.2545   -2.4603    0.6590 H   0  0  0  0  0  0  0  0  0  0  0  0
   -6.9809   -1.1089    1.5649 H   0  0  0  0  0  0  0  0  0  0  0  0
   -6.8385    0.8520   -0.1022 H   0  0  0  0  0  0  0  0  0  0  0  0
   -3.8594    0.7549    2.9030 H   0  0  0  0  0  0  0  0  0  0  0  0
   -3.9454    3.0319    3.7741 H   0  0  0  0  0  0  0  0  0  0  0  0
   -3.1346    4.8695    2.4521 H   0  0  0  0  0  0  0  0  0  0  0  0
   -2.2126    4.4202    0.1927 H   0  0  0  0  0  0  0  0  0  0  0  0
   -2.1250    2.1500   -0.6776 H   0  0  0  0  0  0  0  0  0  0  0  0
  1  2  1  0
  2  3  1  0
  3  4  2  0
  4  5  1  0
  5  6  2  0
  6  7  1  0
  7  8  1  0
  8  9  2  0
  9 10  1  0
 10 11  2  0
 10 12  1  0
 12 13  1  0
 12 14  1  0
  6 15  1  0
 15 16  2  0
  2 17  1  0
 17 18  1  0
 18 19  1  0
 19 20  1  0
 20 21  1  6
 21 22  1  0
 22 23  1  0
 22 24  1  0
 22 25  1  0
 20 26  1  0
 26 27  2  0
 27 28  1  0
 28 29  2  0
 29 30  1  0
 30 31  2  0
 20 32  1  0
 32 33  1  0
 33 34  2  0
 16  3  1  0
 33 17  1  0
 14  7  2  0
 31 26  1  0
  1 35  1  0
  1 36  1  0
  1 37  1  0
  2 38  1  1
  4 39  1  0
  5 40  1  0
  8 41  1  0
  9 42  1  0
 13 43  1  0
 13 44  1  0
 13 45  1  0
 14 46  1  0
 15 47  1  0
 16 48  1  0
 18 49  1  0
 18 50  1  0
 19 51  1  0
 19 52  1  0
 21 53  1  0
 21 54  1  0
 23 55  1  0
 23 56  1  0
 23 57  1  0
 24 58  1  0
 24 59  1  0
 24 60  1  0
 25 61  1  0
 27 62  1  0
 28 63  1  0
 29 64  1  0
 30 65  1  0
 31 66  1  0
M  END
$$$$
