
     RDKit          3D

 39 42  0  0  0  0  0  0  0  0999 V2000
   -7.3567   -1.0357   -0.9634 N   0  0  0  0  0  0  0  0  0  0  0  0
   -6.2742   -1.0918   -0.5915 C   0  0  0  0  0  0  0  0  0  0  0  0
   -4.9098   -1.1376   -0.1267 C   0  0  0  0  0  0  0  0  0  0  0  0
   -3.8725   -1.3483   -0.9936 C   0  0  0  0  0  0  0  0  0  0  0  0
   -2.5373   -1.3995   -0.5814 C   0  0  0  0  0  0  0  0  0  0  0  0
   -2.2358   -1.2333    0.7455 C   0  0  0  0  0  0  0  0  0  0  0  0
   -3.2756   -1.0166    1.6513 C   0  0  0  0  0  0  0  0  0  0  0  0
   -3.0261   -0.8426    2.9897 C   0  0  0  0  0  0  0  0  0  0  0  0
   -1.7182   -0.8881    3.4144 C   0  0  0  0  0  0  0  0  0  0  0  0
   -0.7327   -1.1044    2.4815 C   0  0  0  0  0  0  0  0  0  0  0  0
    0.4678   -1.1476    2.8613 O   0  0  0  0  0  0  0  0  0  0  0  0
   -0.9696   -1.2750    1.1736 N   0  0  0  0  0  0  0  0  0  0  0  0
    0.1043   -1.4938    0.2669 C   0  0  0  0  0  0  0  0  0  0  0  0
    0.6392   -0.2175   -0.3062 C   0  0  0  0  0  0  0  0  0  0  0  0
    0.1572    0.9008    0.0106 O   0  0  0  0  0  0  0  0  0  0  0  0
    1.7149   -0.2029   -1.2340 N   0  0  0  0  0  0  0  0  0  0  0  0
    2.1967    1.0098   -1.7556 C   0  0  0  0  0  0  0  0  0  0  0  0
    1.4006    1.7432   -3.2688 S   0  0  0  0  0  0  0  0  0  0  0  0
    2.4820    3.1756   -3.3139 C   0  0  0  0  0  0  0  0  0  0  0  0
    3.3116    2.9882   -2.2367 C   0  0  0  0  0  0  0  0  0  0  0  0
    4.6720    4.3672   -1.9259 Br  0  0  0  0  0  0  0  0  0  0  0  0
    3.1504    1.8956   -1.4704 C   0  0  0  0  0  0  0  0  0  0  0  0
    4.0488    1.6293   -0.2939 C   0  0  0  0  0  0  0  0  0  0  0  0
    5.0502    2.3963    0.1508 N   0  0  0  0  0  0  0  0  0  0  0  0
    5.6315    1.8419    1.2000 N   0  0  0  0  0  0  0  0  0  0  0  0
    5.0070    0.6973    1.4495 C   0  0  0  0  0  0  0  0  0  0  0  0
    4.0259    0.5764    0.5147 N   0  0  0  0  0  0  0  0  0  0  0  0
   -4.5753   -0.9733    1.2052 C   0  0  0  0  0  0  0  0  0  0  0  0
   -4.0784   -1.4837   -2.0513 H   0  0  0  0  0  0  0  0  0  0  0  0
   -1.7768   -1.5634   -1.2968 H   0  0  0  0  0  0  0  0  0  0  0  0
   -3.8702   -0.6765    3.6568 H   0  0  0  0  0  0  0  0  0  0  0  0
   -1.4995   -0.7542    4.4598 H   0  0  0  0  0  0  0  0  0  0  0  0
    0.9722   -1.9001    0.8759 H   0  0  0  0  0  0  0  0  0  0  0  0
   -0.0514   -2.2297   -0.5213 H   0  0  0  0  0  0  0  0  0  0  0  0
    2.1565   -1.0937   -1.5360 H   0  0  0  0  0  0  0  0  0  0  0  0
    2.4216    3.9640   -4.0624 H   0  0  0  0  0  0  0  0  0  0  0  0
    5.1851   -0.0267    2.2096 H   0  0  0  0  0  0  0  0  0  0  0  0
    3.3640   -0.2438    0.4600 H   0  0  0  0  0  0  0  0  0  0  0  0
   -5.3995   -0.8058    1.8938 H   0  0  0  0  0  0  0  0  0  0  0  0
  1  2  3  0
  2  3  1  0
  3  4  2  0
  4  5  1  0
  5  6  2  0
  6  7  1  0
  7  8  1  0
  8  9  2  0
  9 10  1  0
 10 11  2  0
 10 12  1  0
 12 13  1  0
 13 14  1  0
 14 15  2  0
 14 16  1  0
 16 17  1  0
 17 18  1  0
 18 19  1  0
 19 20  2  0
 20 21  1  0
 20 22  1  0
 22 23  1  0
 23 24  2  0
 24 25  1  0
 25 26  2  0
 26 27  1  0
  7 28  2  0
 28  3  1  0
 12  6  1  0
 22 17  2  0
 27 23  1  0
  4 29  1  0
  5 30  1  0
  8 31  1  0
  9 32  1  0
 13 33  1  0
 13 34  1  0
 16 35  1  0
 19 36  1  0
 26 37  1  0
 27 38  1  0
 28 39  1  0
M  END
$$$$
