
     RDKit          3D

 40 42  0  0  0  0  0  0  0  0999 V2000
   -0.6523    4.9943    0.0416 N   0  0  0  0  0  0  0  0  0  0  0  0
   -0.8078    3.8992    0.3882 C   0  0  0  0  0  0  0  0  0  0  0  0
   -1.0303    2.4941    0.8209 C   0  0  1  0  0  0  0  0  0  0  0  0
    0.0676    1.6168    0.5771 N   0  0  0  0  0  0  0  0  0  0  0  0
    0.5708    1.3563   -0.7201 C   0  0  0  0  0  0  0  0  0  0  0  0
   -0.0174    1.9562   -1.6827 O   0  0  0  0  0  0  0  0  0  0  0  0
    1.6889    0.4710   -1.0277 C   0  0  0  0  0  0  0  0  0  0  0  0
    1.9979    0.3705   -2.4186 N   0  0  0  0  0  4  0  0  0  0  0  0
    1.5321   -0.9081   -0.4024 C   0  0  0  0  0  0  0  0  0  0  0  0
    2.7220   -1.7656   -0.7687 C   0  0  0  0  0  0  0  0  0  0  0  0
    2.8278   -3.0406   -1.9366 S   0  0  0  0  0  0  0  0  0  0  0  0
    4.6244   -3.4677   -1.6710 C   0  0  0  0  0  0  0  0  0  0  0  0
    4.9172   -2.5711   -0.7124 C   0  0  0  0  0  0  0  0  0  0  0  0
    4.0123   -1.7154   -0.2396 C   0  0  0  0  0  0  0  0  0  0  0  0
    4.3002   -0.7751    0.7587 F   0  0  0  0  0  0  0  0  0  0  0  0
   -1.6923    2.3966    2.1787 C   0  0  0  0  0  0  0  0  0  0  0  0
   -2.4370    2.0642    0.8905 C   0  0  2  0  0  0  0  0  0  0  0  0
   -2.9023    0.6812    0.8147 C   0  0  0  0  0  0  0  0  0  0  0  0
   -2.2497   -0.3943    1.3700 C   0  0  0  0  0  0  0  0  0  0  0  0
   -2.7842   -1.6673    1.2305 C   0  0  0  0  0  0  0  0  0  0  0  0
   -3.9591   -1.8966    0.5478 C   0  0  0  0  0  0  0  0  0  0  0  0
   -4.6283   -0.8326   -0.0160 C   0  0  0  0  0  0  0  0  0  0  0  0
   -4.0830    0.4155    0.1340 C   0  0  0  0  0  0  0  0  0  0  0  0
    0.5293    1.1459    1.3783 H   0  0  0  0  0  0  0  0  0  0  0  0
    2.5992    0.9005   -0.5203 H   0  0  0  0  0  0  0  0  0  0  0  0
    2.7232   -0.3984   -2.5225 H   0  0  0  0  0  0  0  0  0  0  0  0
    2.4560    1.2261   -2.8013 H   0  0  0  0  0  0  0  0  0  0  0  0
    1.1648    0.1795   -3.0178 H   0  0  0  0  0  0  0  0  0  0  0  0
    1.5686   -0.8390    0.7061 H   0  0  0  0  0  0  0  0  0  0  0  0
    0.6417   -1.4472   -0.7776 H   0  0  0  0  0  0  0  0  0  0  0  0
    5.0960   -4.2122   -2.2000 H   0  0  0  0  0  0  0  0  0  0  0  0
    5.9901   -2.5788   -0.3195 H   0  0  0  0  0  0  0  0  0  0  0  0
   -2.0376    3.3227    2.6818 H   0  0  0  0  0  0  0  0  0  0  0  0
   -1.4198    1.5912    2.8633 H   0  0  0  0  0  0  0  0  0  0  0  0
   -3.1806    2.8233    0.5076 H   0  0  0  0  0  0  0  0  0  0  0  0
   -1.3237   -0.2303    1.9135 H   0  0  0  0  0  0  0  0  0  0  0  0
   -2.2514   -2.4993    1.6775 H   0  0  0  0  0  0  0  0  0  0  0  0
   -4.3611   -2.9074    0.4504 H   0  0  0  0  0  0  0  0  0  0  0  0
   -5.5580   -0.9906   -0.5591 H   0  0  0  0  0  0  0  0  0  0  0  0
   -4.6542    1.2325   -0.3334 H   0  0  0  0  0  0  0  0  0  0  0  0
  1  2  3  0
  3  2  1  6
  3  4  1  0
  4  5  1  0
  5  6  2  0
  5  7  1  0
  7  8  1  0
  7  9  1  0
  9 10  1  0
 10 11  1  0
 11 12  1  0
 12 13  2  0
 13 14  1  0
 14 15  1  0
  3 16  1  0
 16 17  1  0
 17 18  1  0
 18 19  2  0
 19 20  1  0
 20 21  2  0
 21 22  1  0
 22 23  2  0
 17  3  1  0
 23 18  1  0
 14 10  2  0
  4 24  1  0
  7 25  1  0
  8 26  1  0
  8 27  1  0
  8 28  1  0
  9 29  1  0
  9 30  1  0
 12 31  1  0
 13 32  1  0
 16 33  1  0
 16 34  1  0
 17 35  1  6
 19 36  1  0
 20 37  1  0
 21 38  1  0
 22 39  1  0
 23 40  1  0
M  CHG  1   8   1
M  END
$$$$
