
     RDKit          3D

 41 43  0  0  0  0  0  0  0  0999 V2000
    0.5367    4.2547   -0.9330 C   0  0  0  0  0  0  0  0  0  0  0  0
    0.5597    2.7569   -0.7557 C   0  0  0  0  0  0  0  0  0  0  0  0
    0.5910    2.4860   -1.9697 O   0  0  0  0  0  0  0  0  0  0  0  0
    0.5352    2.4028    0.6539 C   0  0  0  0  0  0  0  0  0  0  0  0
    0.5646    0.9946    1.0817 C   0  0  0  0  0  0  0  0  0  0  0  0
    1.7054    0.1682    0.7083 C   0  0  0  0  0  0  0  0  0  0  0  0
    2.7043    0.3333   -0.2225 C   0  0  0  0  0  0  0  0  0  0  0  0
    3.7263   -0.5463   -0.4892 C   0  0  0  0  0  0  0  0  0  0  0  0
    3.7428   -1.6992    0.2517 C   0  0  0  0  0  0  0  0  0  0  0  0
    2.8012   -1.9621    1.1999 C   0  0  0  0  0  0  0  0  0  0  0  0
    1.8100   -1.0412    1.4140 C   0  0  0  0  0  0  0  0  0  0  0  0
    4.7810   -2.6342    0.0076 N   0  0  0  0  0  4  0  0  0  0  0  0
    4.9083   -3.8252    0.6822 O   0  0  0  0  0  1  0  0  0  0  0  0
    5.6692   -2.4573   -0.8402 O   0  0  0  0  0  0  0  0  0  0  0  0
   -0.7302    0.3137    0.8759 C   0  0  0  0  0  0  0  0  0  0  0  0
   -1.2519   -0.2508   -0.2649 C   0  0  0  0  0  0  0  0  0  0  0  0
   -0.4753   -0.2303   -1.3935 O   0  0  0  0  0  0  0  0  0  0  0  0
   -2.4946   -0.8350   -0.3464 C   0  0  0  0  0  0  0  0  0  0  0  0
   -2.9174   -1.3691   -1.5412 C   0  0  0  0  0  0  0  0  0  0  0  0
   -4.1629   -1.9588   -1.6383 C   0  0  0  0  0  0  0  0  0  0  0  0
   -4.9571   -1.9967   -0.5232 C   0  0  0  0  0  0  0  0  0  0  0  0
   -4.5653   -1.4659    0.7087 C   0  0  0  0  0  0  0  0  0  0  0  0
   -3.3174   -0.8898    0.7545 C   0  0  0  0  0  0  0  0  0  0  0  0
   -2.8477   -0.3591    1.8638 O   0  0  0  0  0  0  0  0  0  0  0  0
   -1.6600    0.1935    1.9201 C   0  0  0  0  0  0  0  0  0  0  0  0
   -1.3634    0.6572    3.0683 O   0  0  0  0  0  0  0  0  0  0  0  0
    0.5000    4.7996    0.0536 H   0  0  0  0  0  0  0  0  0  0  0  0
   -0.3791    4.5991   -1.4714 H   0  0  0  0  0  0  0  0  0  0  0  0
    1.4095    4.6540   -1.4501 H   0  0  0  0  0  0  0  0  0  0  0  0
    1.4062    2.9423    1.1636 H   0  0  0  0  0  0  0  0  0  0  0  0
   -0.3473    2.9394    1.1400 H   0  0  0  0  0  0  0  0  0  0  0  0
    0.6453    1.0201    2.2539 H   0  0  0  0  0  0  0  0  0  0  0  0
    2.6400    1.2627   -0.7639 H   0  0  0  0  0  0  0  0  0  0  0  0
    4.4372   -0.2653   -1.2591 H   0  0  0  0  0  0  0  0  0  0  0  0
    2.8604   -2.8858    1.7559 H   0  0  0  0  0  0  0  0  0  0  0  0
    1.0900   -1.3245    2.1926 H   0  0  0  0  0  0  0  0  0  0  0  0
   -0.2019   -1.1138   -1.8299 H   0  0  0  0  0  0  0  0  0  0  0  0
   -2.2797   -1.3385   -2.4355 H   0  0  0  0  0  0  0  0  0  0  0  0
   -4.5232   -2.3862   -2.5596 H   0  0  0  0  0  0  0  0  0  0  0  0
   -5.9576   -2.4499   -0.5296 H   0  0  0  0  0  0  0  0  0  0  0  0
   -5.1924   -1.4934    1.5978 H   0  0  0  0  0  0  0  0  0  0  0  0
  1  2  1  0
  2  3  2  0
  2  4  1  0
  4  5  1  0
  5  6  1  0
  6  7  2  0
  7  8  1  0
  8  9  2  0
  9 10  1  0
 10 11  2  0
  9 12  1  0
 12 13  1  0
 12 14  2  0
  5 15  1  0
 15 16  2  0
 16 17  1  0
 16 18  1  0
 18 19  2  0
 19 20  1  0
 20 21  2  0
 21 22  1  0
 22 23  2  0
 23 24  1  0
 24 25  1  0
 25 26  2  0
 11  6  1  0
 25 15  1  0
 23 18  1  0
  1 27  1  0
  1 28  1  0
  1 29  1  0
  4 30  1  0
  4 31  1  0
  5 32  1  0
  7 33  1  0
  8 34  1  0
 10 35  1  0
 11 36  1  0
 17 37  1  0
 19 38  1  0
 20 39  1  0
 21 40  1  0
 22 41  1  0
M  CHG  2  12   1  13  -1
M  END
$$$$
