
     RDKit          3D

 45 47  0  0  0  0  0  0  0  0999 V2000
    3.6242    3.3680    0.5738 O   0  0  0  0  0  0  0  0  0  0  0  0
    2.6538    4.0660    0.1937 C   0  0  0  0  0  0  0  0  0  0  0  0
    2.8565    5.4231   -0.0346 O   0  0  0  0  0  0  0  0  0  0  0  0
    1.3440    3.4821   -0.0068 C   0  0  0  0  0  0  0  0  0  0  0  0
    1.1765    2.1703    0.2209 C   0  0  0  0  0  0  0  0  0  0  0  0
   -0.1427    1.5590    0.0234 C   0  0  0  0  0  0  0  0  0  0  0  0
   -0.3272    0.2659    0.1769 C   0  0  0  0  0  0  0  0  0  0  0  0
    0.7812   -0.6299    0.5393 C   0  0  0  0  0  0  0  0  0  0  0  0
    0.6572   -1.4834    1.6241 C   0  0  0  0  0  0  0  0  0  0  0  0
    1.6693   -2.3575    1.9560 C   0  0  0  0  0  0  0  0  0  0  0  0
    2.8048   -2.3509    1.1730 C   0  0  0  0  0  0  0  0  0  0  0  0
    3.8591   -3.2191    1.4697 O   0  0  0  0  0  0  0  0  0  0  0  0
    2.9547   -1.5183    0.0946 C   0  0  0  0  0  0  0  0  0  0  0  0
    4.1592   -1.5075   -0.7293 C   0  0  0  0  0  0  0  0  0  0  0  0
    4.2416   -0.7249   -1.7093 O   0  0  0  0  0  0  0  0  0  0  0  0
    5.2276   -2.3467   -0.4569 O   0  0  0  0  0  0  0  0  0  0  0  0
    1.9129   -0.6523   -0.2091 C   0  0  0  0  0  0  0  0  0  0  0  0
   -1.6663   -0.3083    0.0657 C   0  0  0  0  0  0  0  0  0  0  0  0
   -2.7216    0.1634    0.8149 C   0  0  0  0  0  0  0  0  0  0  0  0
   -3.9898   -0.3422    0.7169 C   0  0  0  0  0  0  0  0  0  0  0  0
   -4.2008   -1.3688   -0.1767 C   0  0  0  0  0  0  0  0  0  0  0  0
   -5.4458   -1.9246   -0.3286 O   0  0  0  0  0  0  0  0  0  0  0  0
   -3.1835   -1.8960   -0.9659 C   0  0  0  0  0  0  0  0  0  0  0  0
   -3.4342   -2.9805   -1.9059 C   0  0  0  0  0  0  0  0  0  0  0  0
   -2.5114   -3.4480   -2.6122 O   0  0  0  0  0  0  0  0  0  0  0  0
   -4.6994   -3.5242   -2.0440 O   0  0  0  0  0  0  0  0  0  0  0  0
   -1.9278   -1.3515   -0.8280 C   0  0  0  0  0  0  0  0  0  0  0  0
   -1.2617    2.3888   -0.4182 C   0  0  0  0  0  0  0  0  0  0  0  0
   -1.0837    3.7047   -0.6423 C   0  0  0  0  0  0  0  0  0  0  0  0
    0.2209    4.3024   -0.4466 C   0  0  0  0  0  0  0  0  0  0  0  0
    0.4292    5.5282   -0.6447 O   0  0  0  0  0  0  0  0  0  0  0  0
    3.7118    5.8710    0.2895 H   0  0  0  0  0  0  0  0  0  0  0  0
    2.0243    1.5943    0.5687 H   0  0  0  0  0  0  0  0  0  0  0  0
   -0.2398   -1.4742    2.2258 H   0  0  0  0  0  0  0  0  0  0  0  0
    1.5774   -3.0387    2.8170 H   0  0  0  0  0  0  0  0  0  0  0  0
    4.3636   -2.9941    2.3402 H   0  0  0  0  0  0  0  0  0  0  0  0
    6.1804   -1.9627   -0.5288 H   0  0  0  0  0  0  0  0  0  0  0  0
    2.0574   -0.0113   -1.0891 H   0  0  0  0  0  0  0  0  0  0  0  0
   -2.5655    0.9736    1.5362 H   0  0  0  0  0  0  0  0  0  0  0  0
   -4.7793    0.0731    1.3339 H   0  0  0  0  0  0  0  0  0  0  0  0
   -6.2141   -1.5983    0.2384 H   0  0  0  0  0  0  0  0  0  0  0  0
   -4.8629   -4.4243   -2.4756 H   0  0  0  0  0  0  0  0  0  0  0  0
   -1.0853   -1.7226   -1.4208 H   0  0  0  0  0  0  0  0  0  0  0  0
   -2.2184    1.9451   -0.5822 H   0  0  0  0  0  0  0  0  0  0  0  0
   -1.9262    4.2817   -0.9640 H   0  0  0  0  0  0  0  0  0  0  0  0
  1  2  2  0
  2  3  1  0
  2  4  1  0
  4  5  2  0
  5  6  1  0
  6  7  2  3
  7  8  1  0
  8  9  2  0
  9 10  1  0
 10 11  2  0
 11 12  1  0
 11 13  1  0
 13 14  1  0
 14 15  2  0
 14 16  1  0
 13 17  2  0
  7 18  1  0
 18 19  2  0
 19 20  1  0
 20 21  2  0
 21 22  1  0
 21 23  1  0
 23 24  1  0
 24 25  2  0
 24 26  1  0
 23 27  2  0
  6 28  1  0
 28 29  2  0
 29 30  1  0
 30 31  2  0
 30  4  1  0
 17  8  1  0
 27 18  1  0
  3 32  1  0
  5 33  1  0
  9 34  1  0
 10 35  1  0
 12 36  1  0
 16 37  1  0
 17 38  1  0
 19 39  1  0
 20 40  1  0
 22 41  1  0
 26 42  1  0
 27 43  1  0
 28 44  1  0
 29 45  1  0
M  END
$$$$
