
     RDKit          3D

 54 58  0  0  0  0  0  0  0  0999 V2000
    8.1633    3.8472    0.3993 C   0  0  0  0  0  0  0  0  0  0  0  0
    7.4318    2.5370    0.3455 C   0  0  0  0  0  0  0  0  0  0  0  0
    8.0248    1.3269    0.2573 N   0  0  0  0  0  0  0  0  0  0  0  0
    7.0429    0.4060    0.2333 C   0  0  0  0  0  0  0  0  0  0  0  0
    5.8557    1.0307    0.3055 N   0  0  0  0  0  0  0  0  0  0  0  0
    4.5766    0.4045    0.3078 C   0  0  0  0  0  0  0  0  0  0  0  0
    3.9879    0.1302   -0.8995 C   0  0  0  0  0  0  0  0  0  0  0  0
    2.7707   -0.4645   -0.9993 C   0  0  0  0  0  0  0  0  0  0  0  0
    2.0626   -0.7911   -2.5565 Cl  0  0  0  0  0  0  0  0  0  0  0  0
    2.0577   -0.8265    0.1504 C   0  0  0  0  0  0  0  0  0  0  0  0
    0.7711   -1.4873   -0.0059 C   0  0  0  0  0  0  0  0  0  0  0  0
    0.4802   -1.9796   -1.1733 O   0  0  0  0  0  0  0  0  0  0  0  0
   -0.2423   -1.6787    0.9424 N   0  0  0  0  0  0  0  0  0  0  0  0
   -1.4941   -2.3690    0.6486 C   0  0  0  0  0  0  0  0  0  0  0  0
   -2.3073   -1.6921   -0.4238 C   0  0  1  0  0  0  0  0  0  0  0  0
   -3.5806   -2.3955   -0.7266 C   0  0  0  0  0  0  0  0  0  0  0  0
   -4.3161   -2.9914    0.2686 C   0  0  0  0  0  0  0  0  0  0  0  0
   -5.5110   -3.6647    0.0273 C   0  0  0  0  0  0  0  0  0  0  0  0
   -5.9984   -3.7518   -1.2521 C   0  0  0  0  0  0  0  0  0  0  0  0
   -5.2649   -3.1565   -2.2495 C   0  0  0  0  0  0  0  0  0  0  0  0
   -5.7416   -3.2395   -3.5098 F   0  0  0  0  0  0  0  0  0  0  0  0
   -4.0822   -2.4900   -2.0112 C   0  0  0  0  0  0  0  0  0  0  0  0
   -2.6029   -0.2748    0.0099 C   0  0  0  0  0  0  0  0  0  0  0  0
   -2.6685    0.8307   -0.7390 N   0  0  0  0  0  0  0  0  0  0  0  0
   -2.9599    1.8779    0.0668 C   0  0  0  0  0  0  0  0  0  0  0  0
   -3.1486    3.2431   -0.1408 C   0  0  0  0  0  0  0  0  0  0  0  0
   -3.4432    4.0949    0.9003 C   0  0  0  0  0  0  0  0  0  0  0  0
   -3.5661    3.6406    2.1981 C   0  0  0  0  0  0  0  0  0  0  0  0
   -3.9387    4.7267    3.5115 Cl  0  0  0  0  0  0  0  0  0  0  0  0
   -3.3758    2.2790    2.3920 C   0  0  0  0  0  0  0  0  0  0  0  0
   -3.0801    1.4110    1.3608 C   0  0  0  0  0  0  0  0  0  0  0  0
   -2.8517    0.0857    1.2685 N   0  0  0  0  0  0  0  0  0  0  0  0
    2.6425   -0.5553    1.3473 C   0  0  0  0  0  0  0  0  0  0  0  0
    1.9126   -0.9797    2.8790 Cl  0  0  0  0  0  0  0  0  0  0  0  0
    3.9000    0.0597    1.4441 C   0  0  0  0  0  0  0  0  0  0  0  0
    6.1154    2.3281    0.3731 N   0  0  0  0  0  0  0  0  0  0  0  0
    7.7750    4.5060    1.1887 H   0  0  0  0  0  0  0  0  0  0  0  0
    9.2458    3.6548    0.5619 H   0  0  0  0  0  0  0  0  0  0  0  0
    7.9846    4.3549   -0.5827 H   0  0  0  0  0  0  0  0  0  0  0  0
    7.2160   -0.6587    0.1660 H   0  0  0  0  0  0  0  0  0  0  0  0
    4.5140    0.3986   -1.8276 H   0  0  0  0  0  0  0  0  0  0  0  0
   -0.1162   -1.2996    1.8962 H   0  0  0  0  0  0  0  0  0  0  0  0
   -1.3090   -3.4227    0.3543 H   0  0  0  0  0  0  0  0  0  0  0  0
   -2.0803   -2.4139    1.5827 H   0  0  0  0  0  0  0  0  0  0  0  0
   -1.7531   -1.6202   -1.4055 H   0  0  0  0  0  0  0  0  0  0  0  0
   -3.9830   -2.9556    1.3135 H   0  0  0  0  0  0  0  0  0  0  0  0
   -6.0639   -4.1227    0.8342 H   0  0  0  0  0  0  0  0  0  0  0  0
   -6.9287   -4.2677   -1.4926 H   0  0  0  0  0  0  0  0  0  0  0  0
   -3.4958   -2.0178   -2.7864 H   0  0  0  0  0  0  0  0  0  0  0  0
   -3.0543    3.6073   -1.1534 H   0  0  0  0  0  0  0  0  0  0  0  0
   -3.5859    5.1689    0.6981 H   0  0  0  0  0  0  0  0  0  0  0  0
   -3.4700    1.9146    3.4028 H   0  0  0  0  0  0  0  0  0  0  0  0
   -2.8692   -0.5675    2.0809 H   0  0  0  0  0  0  0  0  0  0  0  0
    4.3521    0.2692    2.4261 H   0  0  0  0  0  0  0  0  0  0  0  0
  1  2  1  0
  2  3  1  0
  3  4  2  0
  4  5  1  0
  5  6  1  0
  6  7  2  0
  7  8  1  0
  8  9  1  0
  8 10  2  0
 10 11  1  0
 11 12  2  0
 11 13  1  0
 13 14  1  0
 14 15  1  0
 15 16  1  0
 16 17  2  0
 17 18  1  0
 18 19  2  0
 19 20  1  0
 20 21  1  0
 20 22  2  0
 15 23  1  0
 23 24  2  0
 24 25  1  0
 25 26  2  0
 26 27  1  0
 27 28  2  0
 28 29  1  0
 28 30  1  0
 30 31  2  0
 31 32  1  0
 10 33  1  0
 33 34  1  0
 33 35  2  0
  5 36  1  0
 36  2  2  0
 35  6  1  0
 22 16  1  0
 32 23  1  0
 31 25  1  0
  1 37  1  0
  1 38  1  0
  1 39  1  0
  4 40  1  0
  7 41  1  0
 13 42  1  0
 14 43  1  0
 14 44  1  0
 15 45  1  6
 17 46  1  0
 18 47  1  0
 19 48  1  0
 22 49  1  0
 26 50  1  0
 27 51  1  0
 30 52  1  0
 32 53  1  0
 35 54  1  0
M  END
$$$$
