
     RDKit          3D

 60 64  0  0  0  0  0  0  0  0999 V2000
   -6.0198   -2.7540   -3.8108 C   0  0  0  0  0  0  0  0  0  0  0  0
   -5.1648   -2.4331   -2.7470 O   0  0  0  0  0  0  0  0  0  0  0  0
   -5.6187   -2.3962   -1.4318 C   0  0  0  0  0  0  0  0  0  0  0  0
   -6.9381   -2.6661   -1.1443 C   0  0  0  0  0  0  0  0  0  0  0  0
   -7.3834   -2.6297    0.1708 C   0  0  0  0  0  0  0  0  0  0  0  0
   -6.5248   -2.3243    1.2281 C   0  0  0  0  0  0  0  0  0  0  0  0
   -6.6894   -2.2300    2.5517 N   0  0  0  0  0  0  0  0  0  0  0  0
   -5.4966   -1.9005    3.1493 C   0  0  0  0  0  0  0  0  0  0  0  0
   -5.3931   -1.6742    4.5697 C   0  0  0  0  0  0  0  0  0  0  0  0
   -6.4426   -1.8892    5.2822 O   0  0  0  0  0  0  0  0  0  0  0  0
   -4.3158   -1.2464    5.2912 O   0  0  0  0  0  0  0  0  0  0  0  0
   -4.5649   -1.7929    2.1697 C   0  0  0  0  0  0  0  0  0  0  0  0
   -3.1357   -1.6383    2.2016 C   0  0  0  0  0  0  0  0  0  0  0  0
   -2.2988   -1.9214    3.1389 C   0  0  0  0  0  0  0  0  0  0  0  0
   -0.8504   -1.7416    3.1330 C   0  0  0  0  0  0  0  0  0  0  0  0
   -0.2366   -2.1080    4.1664 O   0  0  0  0  0  0  0  0  0  0  0  0
   -0.1333   -1.1991    2.0633 N   0  0  0  0  0  0  0  0  0  0  0  0
    1.2875   -1.0186    1.9888 C   0  0  0  0  0  0  0  0  0  0  0  0
    2.1309   -1.6536    2.8539 C   0  0  0  0  0  0  0  0  0  0  0  0
    3.4885   -1.4067    2.7533 C   0  0  0  0  0  0  0  0  0  0  0  0
    3.9822   -0.5303    1.7909 C   0  0  0  0  0  0  0  0  0  0  0  0
    3.1538    0.1185    0.9123 C   0  0  0  0  0  0  0  0  0  0  0  0
    3.6618    1.0471   -0.0818 C   0  0  0  0  0  0  0  0  0  0  0  0
    4.9285    1.3382   -0.2367 C   0  0  0  0  0  0  0  0  0  0  0  0
    5.4864    2.2690   -1.2207 C   0  0  0  0  0  0  0  0  0  0  0  0
    6.8600    2.4242   -1.2231 C   0  0  0  0  0  0  0  0  0  0  0  0
    7.4672    3.2783   -2.0958 C   0  0  0  0  0  0  0  0  0  0  0  0
    6.6611    3.9824   -2.9764 C   0  0  0  0  0  0  0  0  0  0  0  0
    7.2297    4.8676   -3.8775 C   0  0  0  0  0  0  0  0  0  0  0  0
    6.4757    5.5996   -4.7704 C   0  0  0  0  0  0  0  0  0  0  0  0
    5.1046    5.4350   -4.7567 C   0  0  0  0  0  0  0  0  0  0  0  0
    4.1295    6.3706   -5.8984 Cl  0  0  0  0  0  0  0  0  0  0  0  0
    4.5284    4.5557   -3.8641 C   0  0  0  0  0  0  0  0  0  0  0  0
    5.2896    3.8284   -2.9756 C   0  0  0  0  0  0  0  0  0  0  0  0
    4.7359    2.9698   -2.0922 N   0  0  0  0  0  0  0  0  0  0  0  0
    1.8128   -0.1415    1.0288 C   0  0  0  0  0  0  0  0  0  0  0  0
   -5.2272   -2.0601    0.9358 C   0  0  0  0  0  0  0  0  0  0  0  0
   -4.7853   -2.0962   -0.3756 C   0  0  0  0  0  0  0  0  0  0  0  0
   -6.6940   -3.6022   -3.5302 H   0  0  0  0  0  0  0  0  0  0  0  0
   -6.6334   -1.9117   -4.1334 H   0  0  0  0  0  0  0  0  0  0  0  0
   -5.4495   -3.1243   -4.6900 H   0  0  0  0  0  0  0  0  0  0  0  0
   -7.6656   -2.9082   -1.8921 H   0  0  0  0  0  0  0  0  0  0  0  0
   -8.4154   -2.8378    0.4240 H   0  0  0  0  0  0  0  0  0  0  0  0
   -7.5852   -2.3858    3.0265 H   0  0  0  0  0  0  0  0  0  0  0  0
   -4.3729   -0.4831    5.9607 H   0  0  0  0  0  0  0  0  0  0  0  0
   -2.6620   -1.1964    1.2909 H   0  0  0  0  0  0  0  0  0  0  0  0
   -2.6922   -2.4052    4.0220 H   0  0  0  0  0  0  0  0  0  0  0  0
   -0.7271   -0.8974    1.2256 H   0  0  0  0  0  0  0  0  0  0  0  0
    1.7942   -2.3687    3.6252 H   0  0  0  0  0  0  0  0  0  0  0  0
    4.1457   -1.9194    3.4466 H   0  0  0  0  0  0  0  0  0  0  0  0
    5.0466   -0.3803    1.7659 H   0  0  0  0  0  0  0  0  0  0  0  0
    2.9530    1.5288   -0.7358 H   0  0  0  0  0  0  0  0  0  0  0  0
    5.6152    0.8378    0.4269 H   0  0  0  0  0  0  0  0  0  0  0  0
    7.4900    1.8692   -0.5296 H   0  0  0  0  0  0  0  0  0  0  0  0
    8.5513    3.4113   -2.1092 H   0  0  0  0  0  0  0  0  0  0  0  0
    8.3222    4.9479   -3.8372 H   0  0  0  0  0  0  0  0  0  0  0  0
    6.9987    6.2686   -5.4323 H   0  0  0  0  0  0  0  0  0  0  0  0
    3.4319    4.4572   -3.8845 H   0  0  0  0  0  0  0  0  0  0  0  0
    1.1085    0.3508    0.3501 H   0  0  0  0  0  0  0  0  0  0  0  0
   -3.7547   -1.8838   -0.5911 H   0  0  0  0  0  0  0  0  0  0  0  0
  1  2  1  0
  2  3  1  0
  3  4  2  0
  4  5  1  0
  5  6  2  0
  6  7  1  0
  7  8  1  0
  8  9  1  0
  9 10  2  0
  9 11  1  0
  8 12  2  0
 12 13  1  0
 13 14  2  0
 14 15  1  0
 15 16  2  0
 15 17  1  0
 17 18  1  0
 18 19  2  0
 19 20  1  0
 20 21  2  0
 21 22  1  0
 22 23  1  0
 23 24  2  0
 24 25  1  0
 25 26  2  0
 26 27  1  0
 27 28  2  0
 28 29  1  0
 29 30  2  0
 30 31  1  0
 31 32  1  0
 31 33  2  0
 33 34  1  0
 34 35  2  0
 22 36  2  0
 12 37  1  0
 37 38  2  0
 38  3  1  0
 37  6  1  0
 36 18  1  0
 35 25  1  0
 34 28  1  0
  1 39  1  0
  1 40  1  0
  1 41  1  0
  4 42  1  0
  5 43  1  0
  7 44  1  0
 11 45  1  0
 13 46  1  0
 14 47  1  0
 17 48  1  0
 19 49  1  0
 20 50  1  0
 21 51  1  0
 23 52  1  0
 24 53  1  0
 26 54  1  0
 27 55  1  0
 29 56  1  0
 30 57  1  0
 33 58  1  0
 36 59  1  0
 38 60  1  0
M  END
$$$$
