
     RDKit          3D

 40 42  0  0  0  0  0  0  0  0999 V2000
    1.9410   -0.8423    0.7118 O   0  0  0  0  0  0  0  0  0  0  0  0
    1.9023   -0.0634   -0.2744 C   0  0  0  0  0  0  0  0  0  0  0  0
    0.6646    0.0730   -0.9856 N   0  0  0  0  0  0  0  0  0  0  0  0
   -0.4741   -0.5552   -0.7024 N   0  0  0  0  0  0  0  0  0  0  0  0
   -1.6641   -0.3697   -0.3663 C   0  0  0  0  0  0  0  0  0  0  0  0
   -2.1533    0.9934   -0.1650 C   0  0  0  0  0  0  0  0  0  0  0  0
   -1.2609    2.0514   -0.0310 C   0  0  0  0  0  0  0  0  0  0  0  0
   -1.6802    3.3844    0.0301 C   0  0  0  0  0  0  0  0  0  0  0  0
   -3.0086    3.7137   -0.0392 C   0  0  0  0  0  0  0  0  0  0  0  0
   -3.8962    2.6796   -0.1718 C   0  0  0  0  0  0  0  0  0  0  0  0
   -3.4789    1.3392   -0.2357 C   0  0  0  0  0  0  0  0  0  0  0  0
   -2.4531   -1.5824   -0.1886 C   0  0  0  0  0  0  0  0  0  0  0  0
   -1.9336   -2.7825   -0.6391 C   0  0  0  0  0  0  0  0  0  0  0  0
   -2.5456   -3.9983   -0.4329 C   0  0  0  0  0  0  0  0  0  0  0  0
   -3.7179   -4.0421    0.2442 C   0  0  0  0  0  0  0  0  0  0  0  0
   -4.2861   -2.8923    0.7186 C   0  0  0  0  0  0  0  0  0  0  0  0
   -3.6294   -1.6637    0.4898 C   0  0  0  0  0  0  0  0  0  0  0  0
    3.0806    0.6317   -0.6236 N   0  0  0  0  0  0  0  0  0  0  0  0
    4.3105    0.4992    0.0794 C   0  0  0  0  0  0  0  0  0  0  0  0
    4.6006    1.3277    1.1429 C   0  0  0  0  0  0  0  0  0  0  0  0
    5.7796    1.2373    1.8551 C   0  0  0  0  0  0  0  0  0  0  0  0
    6.6775    0.3013    1.4921 N   0  0  0  0  0  0  0  0  0  0  0  0
    6.4035   -0.5151    0.4523 C   0  0  0  0  0  0  0  0  0  0  0  0
    5.2436   -0.4444   -0.2674 C   0  0  0  0  0  0  0  0  0  0  0  0
    0.7282    0.7513   -1.8174 H   0  0  0  0  0  0  0  0  0  0  0  0
   -0.2060    1.8329    0.0513 H   0  0  0  0  0  0  0  0  0  0  0  0
   -0.9161    4.1660    0.1356 H   0  0  0  0  0  0  0  0  0  0  0  0
   -3.3022    4.7518    0.0119 H   0  0  0  0  0  0  0  0  0  0  0  0
   -4.9545    2.8954   -0.2299 H   0  0  0  0  0  0  0  0  0  0  0  0
   -4.2377    0.5935   -0.4103 H   0  0  0  0  0  0  0  0  0  0  0  0
   -1.0056   -2.7686   -1.1805 H   0  0  0  0  0  0  0  0  0  0  0  0
   -2.1004   -4.9163   -0.8053 H   0  0  0  0  0  0  0  0  0  0  0  0
   -4.2288   -4.9931    0.4228 H   0  0  0  0  0  0  0  0  0  0  0  0
   -5.2302   -2.9084    1.2663 H   0  0  0  0  0  0  0  0  0  0  0  0
   -4.0703   -0.8036    0.9365 H   0  0  0  0  0  0  0  0  0  0  0  0
    3.0359    1.2774   -1.4466 H   0  0  0  0  0  0  0  0  0  0  0  0
    3.9018    2.0916    1.4624 H   0  0  0  0  0  0  0  0  0  0  0  0
    6.0080    1.8945    2.6975 H   0  0  0  0  0  0  0  0  0  0  0  0
    7.1452   -1.2506    0.1917 H   0  0  0  0  0  0  0  0  0  0  0  0
    5.0107   -1.0944   -1.1055 H   0  0  0  0  0  0  0  0  0  0  0  0
  1  2  2  0
  2  3  1  0
  3  4  1  0
  4  5  2  3
  5  6  1  0
  6  7  2  0
  7  8  1  0
  8  9  2  0
  9 10  1  0
 10 11  2  0
  5 12  1  0
 12 13  2  0
 13 14  1  0
 14 15  2  0
 15 16  1  0
 16 17  2  0
  2 18  1  0
 18 19  1  0
 19 20  2  0
 20 21  1  0
 21 22  2  0
 22 23  1  0
 23 24  2  0
 11  6  1  0
 17 12  1  0
 24 19  1  0
  3 25  1  0
  7 26  1  0
  8 27  1  0
  9 28  1  0
 10 29  1  0
 11 30  1  0
 13 31  1  0
 14 32  1  0
 15 33  1  0
 16 34  1  0
 17 35  1  0
 18 36  1  0
 20 37  1  0
 21 38  1  0
 23 39  1  0
 24 40  1  0
M  END
$$$$
