
     RDKit          3D

 27 27  0  0  0  0  0  0  0  0999 V2000
    4.6825    0.3859    0.2367 C   0  0  0  0  0  0  0  0  0  0  0  0
    4.3687   -1.0654   -0.0627 C   0  0  0  0  0  0  0  0  0  0  0  0
    3.0541   -1.2212   -1.3030 S   0  0  0  0  0  0  0  0  0  0  0  0
    1.5142   -0.6101   -0.6601 C   0  0  0  0  0  0  0  0  0  0  0  0
    1.5201   -0.1095    0.6706 N   0  0  0  0  0  0  0  0  0  0  0  0
    0.4308   -0.6102   -1.3474 N   0  0  0  0  0  0  0  0  0  0  0  0
   -0.7885   -0.1236   -0.8318 C   0  0  0  0  0  0  0  0  0  0  0  0
   -1.8465   -0.9273   -1.2744 C   0  0  0  0  0  0  0  0  0  0  0  0
   -3.1653   -0.6503   -0.8980 C   0  0  0  0  0  0  0  0  0  0  0  0
   -3.4394    0.4356   -0.0734 C   0  0  0  0  0  0  0  0  0  0  0  0
   -2.3754    1.2015    0.3409 C   0  0  0  0  0  0  0  0  0  0  0  0
   -1.0660    0.9526   -0.0139 C   0  0  0  0  0  0  0  0  0  0  0  0
   -4.8374    0.7576    0.3464 C   0  0  0  0  0  0  0  0  0  0  0  0
   -5.0277    0.6478    1.7051 F   0  0  0  0  0  0  0  0  0  0  0  0
   -5.6785   -0.1147   -0.3150 F   0  0  0  0  0  0  0  0  0  0  0  0
   -5.1674    2.0345   -0.1104 F   0  0  0  0  0  0  0  0  0  0  0  0
    3.8117    0.9804   -0.1339 H   0  0  0  0  0  0  0  0  0  0  0  0
    5.6027    0.6558   -0.3341 H   0  0  0  0  0  0  0  0  0  0  0  0
    4.8429    0.5413    1.3072 H   0  0  0  0  0  0  0  0  0  0  0  0
    3.9884   -1.5028    0.9022 H   0  0  0  0  0  0  0  0  0  0  0  0
    5.2800   -1.6180   -0.3619 H   0  0  0  0  0  0  0  0  0  0  0  0
    1.2803   -0.9043    1.3087 H   0  0  0  0  0  0  0  0  0  0  0  0
    1.5567    0.3748    1.5883 H   0  0  0  0  0  0  0  0  0  0  0  0
   -1.7909   -1.8059   -1.9191 H   0  0  0  0  0  0  0  0  0  0  0  0
   -4.0138   -1.2412   -1.2141 H   0  0  0  0  0  0  0  0  0  0  0  0
   -2.5428    2.0492    0.9785 H   0  0  0  0  0  0  0  0  0  0  0  0
   -0.1934    1.4873    0.2581 H   0  0  0  0  0  0  0  0  0  0  0  0
  1  2  1  0
  2  3  1  0
  3  4  1  0
  4  5  1  0
  4  6  2  0
  6  7  1  0
  7  8  2  0
  8  9  1  0
  9 10  2  0
 10 11  1  0
 11 12  2  0
 10 13  1  0
 13 14  1  0
 13 15  1  0
 13 16  1  0
 12  7  1  0
  1 17  1  0
  1 18  1  0
  1 19  1  0
  2 20  1  0
  2 21  1  0
  5 22  1  0
  5 23  1  0
  8 24  1  0
  9 25  1  0
 11 26  1  0
 12 27  1  0
M  END
$$$$
