
     RDKit          3D

 76 80  0  0  0  0  0  0  0  0999 V2000
   -5.0554    5.1938   -0.2759 C   0  0  0  0  0  0  0  0  0  0  0  0
   -4.9722    3.7013   -0.1037 C   0  0  0  0  0  0  0  0  0  0  0  0
   -4.7243    3.1258    1.1301 C   0  0  0  0  0  0  0  0  0  0  0  0
   -4.6488    1.7502    1.2855 C   0  0  0  0  0  0  0  0  0  0  0  0
   -4.8258    0.9463    0.1816 C   0  0  0  0  0  0  0  0  0  0  0  0
   -4.7612   -0.4687    0.2861 N   0  0  0  0  0  0  0  0  0  0  0  0
   -5.6022   -1.3108   -0.3323 N   0  0  0  0  0  0  0  0  0  0  0  0
   -5.2700   -2.5723   -0.0286 C   0  0  0  0  0  0  0  0  0  0  0  0
   -5.9738   -3.7713   -0.5274 C   0  0  0  0  0  0  0  0  0  0  0  0
   -5.3065   -5.0108    0.0392 C   0  0  0  0  0  0  0  0  0  0  0  0
   -7.4209   -3.6909   -0.1422 C   0  0  0  0  0  0  0  0  0  0  0  0
   -5.8957   -3.7545   -2.0396 C   0  0  0  0  0  0  0  0  0  0  0  0
   -4.1868   -2.5359    0.8071 C   0  0  0  0  0  0  0  0  0  0  0  0
   -3.8756   -1.1810    0.9970 C   0  0  0  0  0  0  0  0  0  0  0  0
   -2.8170   -0.6588    1.7932 N   0  0  0  0  0  0  0  0  0  0  0  0
   -1.5381   -0.4232    1.1954 C   0  0  0  0  0  0  0  0  0  0  0  0
   -1.3624   -0.6694   -0.0134 O   0  0  0  0  0  0  0  0  0  0  0  0
   -0.4323    0.0907    1.9333 N   0  0  0  0  0  0  0  0  0  0  0  0
    0.8355    0.3272    1.3371 C   0  0  0  0  0  0  0  0  0  0  0  0
    1.8390   -0.5866    1.2524 C   0  0  0  0  0  0  0  0  0  0  0  0
    3.0481   -0.2653    0.6524 C   0  0  0  0  0  0  0  0  0  0  0  0
    3.2898    0.9700    0.1236 C   0  0  0  0  0  0  0  0  0  0  0  0
    4.4329    1.3863   -0.4852 O   0  0  0  0  0  0  0  0  0  0  0  0
    5.6145    0.7177   -0.7051 C   0  0  0  0  0  0  0  0  0  0  0  0
    6.4066    0.2972    0.4808 C   0  0  0  0  0  0  0  0  0  0  0  0
    7.6238   -0.4000    0.1427 N   0  0  0  0  0  0  0  0  0  0  0  0
    8.6023    0.4259   -0.4911 C   0  0  0  0  0  0  0  0  0  0  0  0
    9.9268   -0.3089   -0.4727 C   0  0  0  0  0  0  0  0  0  0  0  0
    9.7792   -1.6533   -0.7354 O   0  0  0  0  0  0  0  0  0  0  0  0
    8.6029   -1.9689   -1.3759 C   0  0  0  0  0  0  0  0  0  0  0  0
    7.4256   -1.6736   -0.4665 C   0  0  0  0  0  0  0  0  0  0  0  0
    2.2499    1.9186    0.2104 C   0  0  0  0  0  0  0  0  0  0  0  0
    2.4436    3.1811   -0.3088 C   0  0  0  0  0  0  0  0  0  0  0  0
    1.4480    4.1428   -0.2437 C   0  0  0  0  0  0  0  0  0  0  0  0
    0.2499    3.8301    0.3483 C   0  0  0  0  0  0  0  0  0  0  0  0
    0.0731    2.5652    0.8615 C   0  0  0  0  0  0  0  0  0  0  0  0
    1.0656    1.5785    0.8064 C   0  0  0  0  0  0  0  0  0  0  0  0
   -5.0733    1.5191   -1.0509 C   0  0  0  0  0  0  0  0  0  0  0  0
   -5.1432    2.8657   -1.1816 C   0  0  0  0  0  0  0  0  0  0  0  0
   -4.0514    5.6613   -0.1838 H   0  0  0  0  0  0  0  0  0  0  0  0
   -5.4647    5.3920   -1.2863 H   0  0  0  0  0  0  0  0  0  0  0  0
   -5.7883    5.5745    0.4456 H   0  0  0  0  0  0  0  0  0  0  0  0
   -4.5893    3.7731    1.9785 H   0  0  0  0  0  0  0  0  0  0  0  0
   -4.4502    1.3376    2.2836 H   0  0  0  0  0  0  0  0  0  0  0  0
   -5.2569   -4.8602    1.1440 H   0  0  0  0  0  0  0  0  0  0  0  0
   -6.0059   -5.8646   -0.1721 H   0  0  0  0  0  0  0  0  0  0  0  0
   -4.3297   -5.2046   -0.4101 H   0  0  0  0  0  0  0  0  0  0  0  0
   -7.7631   -2.6425   -0.3274 H   0  0  0  0  0  0  0  0  0  0  0  0
   -7.6251   -4.0025    0.8927 H   0  0  0  0  0  0  0  0  0  0  0  0
   -7.9913   -4.3249   -0.8696 H   0  0  0  0  0  0  0  0  0  0  0  0
   -6.1751   -2.7557   -2.4082 H   0  0  0  0  0  0  0  0  0  0  0  0
   -4.8411   -3.9209   -2.3702 H   0  0  0  0  0  0  0  0  0  0  0  0
   -6.5811   -4.5396   -2.4095 H   0  0  0  0  0  0  0  0  0  0  0  0
   -3.6393   -3.3625    1.2611 H   0  0  0  0  0  0  0  0  0  0  0  0
   -2.9333   -0.4417    2.8069 H   0  0  0  0  0  0  0  0  0  0  0  0
   -0.5686    0.2964    2.9421 H   0  0  0  0  0  0  0  0  0  0  0  0
    1.6821   -1.5899    1.6668 H   0  0  0  0  0  0  0  0  0  0  0  0
    3.8150   -1.0469    0.5935 H   0  0  0  0  0  0  0  0  0  0  0  0
    5.3972   -0.1277   -1.4032 H   0  0  0  0  0  0  0  0  0  0  0  0
    6.2740    1.4000   -1.3382 H   0  0  0  0  0  0  0  0  0  0  0  0
    6.7461    1.2243    1.0428 H   0  0  0  0  0  0  0  0  0  0  0  0
    5.8506   -0.2830    1.2024 H   0  0  0  0  0  0  0  0  0  0  0  0
    8.3855    0.6624   -1.5532 H   0  0  0  0  0  0  0  0  0  0  0  0
    8.7158    1.3460    0.1255 H   0  0  0  0  0  0  0  0  0  0  0  0
   10.4590   -0.1444    0.4867 H   0  0  0  0  0  0  0  0  0  0  0  0
   10.6000    0.1073   -1.2696 H   0  0  0  0  0  0  0  0  0  0  0  0
    8.6171   -3.0734   -1.5607 H   0  0  0  0  0  0  0  0  0  0  0  0
    8.4747   -1.4870   -2.3484 H   0  0  0  0  0  0  0  0  0  0  0  0
    6.4674   -1.8079   -0.9841 H   0  0  0  0  0  0  0  0  0  0  0  0
    7.4813   -2.4451    0.3565 H   0  0  0  0  0  0  0  0  0  0  0  0
    3.3888    3.4069   -0.7685 H   0  0  0  0  0  0  0  0  0  0  0  0
    1.6282    5.1180   -0.6569 H   0  0  0  0  0  0  0  0  0  0  0  0
   -0.5676    4.5319    0.4326 H   0  0  0  0  0  0  0  0  0  0  0  0
   -0.8748    2.2896    1.3395 H   0  0  0  0  0  0  0  0  0  0  0  0
   -5.2178    0.8893   -1.9476 H   0  0  0  0  0  0  0  0  0  0  0  0
   -5.3399    3.2851   -2.1671 H   0  0  0  0  0  0  0  0  0  0  0  0
  1  2  1  0
  2  3  2  0
  3  4  1  0
  4  5  2  0
  5  6  1  0
  6  7  1  0
  7  8  2  0
  8  9  1  0
  9 10  1  0
  9 11  1  0
  9 12  1  0
  8 13  1  0
 13 14  2  0
 14 15  1  0
 15 16  1  0
 16 17  2  0
 16 18  1  0
 18 19  1  0
 19 20  2  0
 20 21  1  0
 21 22  2  0
 22 23  1  0
 23 24  1  0
 24 25  1  0
 25 26  1  0
 26 27  1  0
 27 28  1  0
 28 29  1  0
 29 30  1  0
 30 31  1  0
 22 32  1  0
 32 33  2  0
 33 34  1  0
 34 35  2  0
 35 36  1  0
 36 37  2  0
  5 38  1  0
 38 39  2  0
 39  2  1  0
 14  6  1  0
 37 19  1  0
 31 26  1  0
 37 32  1  0
  1 40  1  0
  1 41  1  0
  1 42  1  0
  3 43  1  0
  4 44  1  0
 10 45  1  0
 10 46  1  0
 10 47  1  0
 11 48  1  0
 11 49  1  0
 11 50  1  0
 12 51  1  0
 12 52  1  0
 12 53  1  0
 13 54  1  0
 15 55  1  0
 18 56  1  0
 20 57  1  0
 21 58  1  0
 24 59  1  0
 24 60  1  0
 25 61  1  0
 25 62  1  0
 27 63  1  0
 27 64  1  0
 28 65  1  0
 28 66  1  0
 30 67  1  0
 30 68  1  0
 31 69  1  0
 31 70  1  0
 33 71  1  0
 34 72  1  0
 35 73  1  0
 36 74  1  0
 38 75  1  0
 39 76  1  0
M  END
$$$$
