
     RDKit          3D

 12 11  0  0  0  0  0  0  0  0999 V2000
   -2.4827    1.4996    0.6409 F   0  0  0  0  0  0  0  0  0  0  0  0
   -1.7445    0.4429    0.1686 C   0  0  0  0  0  0  0  0  0  0  0  0
   -2.4045   -0.7637    0.3574 F   0  0  0  0  0  0  0  0  0  0  0  0
   -0.5061    0.3343    0.7554 O   0  0  0  0  0  0  0  0  0  0  0  0
    0.5676    0.3981   -0.0915 C   0  0  0  0  0  0  0  0  0  0  0  0
    1.7057    1.6839    0.3683 Cl  0  0  0  0  0  0  0  0  0  0  0  0
    1.3688   -0.9075   -0.0635 C   0  0  0  0  0  0  0  0  0  0  0  0
    1.7888   -1.0591    1.2466 F   0  0  0  0  0  0  0  0  0  0  0  0
    0.6037   -1.9646   -0.4506 F   0  0  0  0  0  0  0  0  0  0  0  0
    2.5079   -0.7669   -0.8244 F   0  0  0  0  0  0  0  0  0  0  0  0
   -1.6932    0.5713   -0.9473 H   0  0  0  0  0  0  0  0  0  0  0  0
    0.2885    0.5317   -1.1598 H   0  0  0  0  0  0  0  0  0  0  0  0
  1  2  1  0
  2  3  1  0
  2  4  1  0
  4  5  1  0
  5  6  1  0
  5  7  1  0
  7  8  1  0
  7  9  1  0
  7 10  1  0
  2 11  1  0
  5 12  1  0
M  END
$$$$
