
     RDKit          3D

 69 73  0  0  0  0  0  0  0  0999 V2000
    3.2395    1.7681    0.6090 N   0  0  0  0  0  0  0  0  0  0  0  0
    2.1599    0.8681    0.3342 C   0  0  0  0  0  0  0  0  0  0  0  0
    0.8786    1.5683    0.6757 C   0  0  0  0  0  0  0  0  0  0  0  0
    0.8709    2.7516    1.1048 O   0  0  0  0  0  0  0  0  0  0  0  0
   -0.3952    0.9560    0.5416 N   0  0  0  0  0  0  0  0  0  0  0  0
   -1.6158    1.5995    0.8590 C   0  0  1  0  0  0  0  0  0  0  0  0
   -2.5664    1.8180   -0.2795 C   0  0  0  0  0  0  0  0  0  0  0  0
   -2.9681    0.4833   -0.9165 C   0  0  0  0  0  0  0  0  0  0  0  0
   -3.8843    0.7046   -2.0177 N   0  0  0  0  0  0  0  0  0  0  0  0
   -5.1697    1.1877   -1.6220 C   0  0  0  0  0  0  0  0  0  0  0  0
   -5.9750    0.1416   -0.8533 C   0  0  0  0  0  0  0  0  0  0  0  0
   -6.2225   -1.0290   -1.7700 C   0  0  0  0  0  0  0  0  0  0  0  0
   -5.4531   -0.9002   -3.0425 C   0  0  0  0  0  0  0  0  0  0  0  0
   -4.0246   -0.5198   -2.7509 C   0  0  0  0  0  0  0  0  0  0  0  0
   -2.2998    1.0315    2.0649 C   0  0  0  0  0  0  0  0  0  0  0  0
   -2.8705    1.8522    3.0323 C   0  0  0  0  0  0  0  0  0  0  0  0
   -3.4999    1.3421    4.1465 C   0  0  0  0  0  0  0  0  0  0  0  0
   -3.5677   -0.0191    4.3103 C   0  0  0  0  0  0  0  0  0  0  0  0
   -4.3867   -0.6120    5.7581 Cl  0  0  0  0  0  0  0  0  0  0  0  0
   -3.0159   -0.8673    3.3771 C   0  0  0  0  0  0  0  0  0  0  0  0
   -2.3998   -0.3155    2.2848 C   0  0  0  0  0  0  0  0  0  0  0  0
    2.2791   -0.3692    1.1868 C   0  0  0  0  0  0  0  0  0  0  0  0
    3.6598   -0.9899    1.0058 C   0  0  0  0  0  0  0  0  0  0  0  0
    3.8419   -1.2256   -0.4061 N   0  0  0  0  0  0  0  0  0  0  0  0
    5.0689   -1.7620   -0.8696 C   0  0  0  0  0  0  0  0  0  0  0  0
    5.1285   -3.0202   -1.3912 N   0  0  0  0  0  0  0  0  0  0  0  0
    6.2912   -3.5415   -1.8178 C   0  0  0  0  0  0  0  0  0  0  0  0
    7.4245   -2.8490   -1.7462 N   0  0  0  0  0  0  0  0  0  0  0  0
    7.4382   -1.6038   -1.2436 C   0  0  0  0  0  0  0  0  0  0  0  0
    8.4227   -0.6995   -1.0648 N   0  0  0  0  0  0  0  0  0  0  0  0
    7.8934    0.4016   -0.5251 C   0  0  0  0  0  0  0  0  0  0  0  0
    6.5277    0.2017   -0.3506 C   0  0  0  0  0  0  0  0  0  0  0  0
    6.2394   -1.0551   -0.7997 C   0  0  0  0  0  0  0  0  0  0  0  0
    2.7525   -0.9063   -1.3126 C   0  0  0  0  0  0  0  0  0  0  0  0
    2.2217    0.4983   -1.1261 C   0  0  0  0  0  0  0  0  0  0  0  0
    2.9178    2.5714    1.1723 H   0  0  0  0  0  0  0  0  0  0  0  0
    3.7549    2.0594   -0.2352 H   0  0  0  0  0  0  0  0  0  0  0  0
   -0.3694   -0.0410    0.1781 H   0  0  0  0  0  0  0  0  0  0  0  0
   -1.3336    2.6511    1.1848 H   0  0  0  0  0  0  0  0  0  0  0  0
   -2.1876    2.4396   -1.0824 H   0  0  0  0  0  0  0  0  0  0  0  0
   -3.5279    2.2705    0.0503 H   0  0  0  0  0  0  0  0  0  0  0  0
   -2.0521    0.0263   -1.3633 H   0  0  0  0  0  0  0  0  0  0  0  0
   -3.4278   -0.1821   -0.1420 H   0  0  0  0  0  0  0  0  0  0  0  0
   -5.7492    1.3376   -2.5803 H   0  0  0  0  0  0  0  0  0  0  0  0
   -5.1781    2.1640   -1.1297 H   0  0  0  0  0  0  0  0  0  0  0  0
   -6.9726    0.6162   -0.6535 H   0  0  0  0  0  0  0  0  0  0  0  0
   -5.4544   -0.1324    0.0732 H   0  0  0  0  0  0  0  0  0  0  0  0
   -5.8559   -1.9533   -1.2409 H   0  0  0  0  0  0  0  0  0  0  0  0
   -7.3061   -1.1868   -1.9637 H   0  0  0  0  0  0  0  0  0  0  0  0
   -5.9326   -0.2736   -3.8116 H   0  0  0  0  0  0  0  0  0  0  0  0
   -5.4040   -1.9322   -3.4955 H   0  0  0  0  0  0  0  0  0  0  0  0
   -3.5928   -1.3796   -2.1631 H   0  0  0  0  0  0  0  0  0  0  0  0
   -3.4107   -0.4869   -3.6824 H   0  0  0  0  0  0  0  0  0  0  0  0
   -2.8016    2.9346    2.8748 H   0  0  0  0  0  0  0  0  0  0  0  0
   -3.9375    2.0310    4.8868 H   0  0  0  0  0  0  0  0  0  0  0  0
   -3.0929   -1.9335    3.5464 H   0  0  0  0  0  0  0  0  0  0  0  0
   -1.9724   -0.9969    1.5686 H   0  0  0  0  0  0  0  0  0  0  0  0
    2.0763   -0.0930    2.2378 H   0  0  0  0  0  0  0  0  0  0  0  0
    1.5065   -1.1028    0.8336 H   0  0  0  0  0  0  0  0  0  0  0  0
    4.3872   -0.2928    1.4312 H   0  0  0  0  0  0  0  0  0  0  0  0
    3.6139   -1.9446    1.5838 H   0  0  0  0  0  0  0  0  0  0  0  0
    6.3527   -4.5534   -2.2397 H   0  0  0  0  0  0  0  0  0  0  0  0
    9.4267   -0.8122   -1.2968 H   0  0  0  0  0  0  0  0  0  0  0  0
    8.4192    1.3060   -0.2609 H   0  0  0  0  0  0  0  0  0  0  0  0
    5.8465    0.9263    0.0611 H   0  0  0  0  0  0  0  0  0  0  0  0
    3.1660   -0.9949   -2.3565 H   0  0  0  0  0  0  0  0  0  0  0  0
    1.9374   -1.6601   -1.2176 H   0  0  0  0  0  0  0  0  0  0  0  0
    2.8974    1.1783   -1.6848 H   0  0  0  0  0  0  0  0  0  0  0  0
    1.2332    0.5508   -1.6218 H   0  0  0  0  0  0  0  0  0  0  0  0
  1  2  1  0
  2  3  1  0
  3  4  2  0
  3  5  1  0
  5  6  1  0
  6  7  1  0
  7  8  1  0
  8  9  1  0
  9 10  1  0
 10 11  1  0
 11 12  1  0
 12 13  1  0
 13 14  1  0
  6 15  1  0
 15 16  2  0
 16 17  1  0
 17 18  2  0
 18 19  1  0
 18 20  1  0
 20 21  2  0
  2 22  1  0
 22 23  1  0
 23 24  1  0
 24 25  1  0
 25 26  2  0
 26 27  1  0
 27 28  2  0
 28 29  1  0
 29 30  1  0
 30 31  1  0
 31 32  2  0
 32 33  1  0
 24 34  1  0
 34 35  1  0
 35  2  1  0
 14  9  1  0
 21 15  1  0
 33 25  1  0
 33 29  2  0
  1 36  1  0
  1 37  1  0
  5 38  1  0
  6 39  1  1
  7 40  1  0
  7 41  1  0
  8 42  1  0
  8 43  1  0
 10 44  1  0
 10 45  1  0
 11 46  1  0
 11 47  1  0
 12 48  1  0
 12 49  1  0
 13 50  1  0
 13 51  1  0
 14 52  1  0
 14 53  1  0
 16 54  1  0
 17 55  1  0
 20 56  1  0
 21 57  1  0
 22 58  1  0
 22 59  1  0
 23 60  1  0
 23 61  1  0
 27 62  1  0
 30 63  1  0
 31 64  1  0
 32 65  1  0
 34 66  1  0
 34 67  1  0
 35 68  1  0
 35 69  1  0
M  END
$$$$
