
     RDKit          3D

 59 61  0  0  0  0  0  0  0  0999 V2000
   -6.3805    1.7602   -1.3649 C   0  0  0  0  0  0  0  0  0  0  0  0
   -5.4665    1.6276   -0.1202 C   0  0  0  0  0  0  0  0  0  0  0  0
   -6.3368    1.0657    0.9502 C   0  0  0  0  0  0  0  0  0  0  0  0
   -4.3287    0.7812   -0.5570 C   0  0  0  0  0  0  0  0  0  0  0  0
   -3.2462    0.4801    0.3934 C   0  0  1  0  0  0  0  0  0  0  0  0
   -3.6137   -0.2425    1.6302 C   0  0  0  0  0  0  0  0  0  0  0  0
   -3.4912   -1.5207    1.6593 O   0  0  0  0  0  0  0  0  0  0  0  0
   -4.0905    0.3564    2.8219 N   0  0  0  0  0  0  0  0  0  0  0  0
   -4.3880   -0.5178    3.9325 C   0  0  0  0  0  0  0  0  0  0  0  0
   -4.8393    0.1782    5.1326 C   0  0  0  0  0  0  0  0  0  0  0  0
   -5.2062    0.7089    6.0692 N   0  0  0  0  0  0  0  0  0  0  0  0
   -2.2956   -0.4529   -0.3258 C   0  0  0  0  0  0  0  0  0  0  0  0
   -2.7435   -1.5933   -0.9268 C   0  0  0  0  0  0  0  0  0  0  0  0
   -1.8338   -2.4585   -1.5325 C   0  0  0  0  0  0  0  0  0  0  0  0
   -0.5073   -2.1249   -1.4983 C   0  0  0  0  0  0  0  0  0  0  0  0
    0.0080   -0.9892   -0.9099 C   0  0  0  0  0  0  0  0  0  0  0  0
    1.4332   -0.7051   -0.8417 C   0  0  0  0  0  0  0  0  0  0  0  0
    2.3278   -1.7641   -0.7024 C   0  0  0  0  0  0  0  0  0  0  0  0
    3.6862   -1.5562   -0.6327 C   0  0  0  0  0  0  0  0  0  0  0  0
    4.2518   -0.3074   -0.6970 C   0  0  0  0  0  0  0  0  0  0  0  0
    5.6494   -0.0904   -0.5905 N   0  0  0  0  0  0  0  0  0  0  0  0
    6.2981    0.9372   -1.3444 C   0  0  0  0  0  0  0  0  0  0  0  0
    7.6639    0.5363   -1.8334 C   0  0  0  0  0  0  0  0  0  0  0  0
    8.3138   -0.4093   -0.9494 N   0  0  0  0  0  0  0  0  0  0  0  0
    7.7762   -0.3349    0.3954 C   0  0  0  0  0  0  0  0  0  0  0  0
    6.3887   -0.9623    0.3390 C   0  0  0  0  0  0  0  0  0  0  0  0
    3.3552    0.7599   -0.8398 C   0  0  0  0  0  0  0  0  0  0  0  0
    1.9904    0.5484   -0.9075 C   0  0  0  0  0  0  0  0  0  0  0  0
   -0.9476   -0.1561   -0.3180 C   0  0  0  0  0  0  0  0  0  0  0  0
   -5.7942    1.7321   -2.2985 H   0  0  0  0  0  0  0  0  0  0  0  0
   -6.9141    2.7194   -1.3619 H   0  0  0  0  0  0  0  0  0  0  0  0
   -7.1238    0.9343   -1.3961 H   0  0  0  0  0  0  0  0  0  0  0  0
   -5.2021    2.6707    0.1321 H   0  0  0  0  0  0  0  0  0  0  0  0
   -6.1830   -0.0119    1.0728 H   0  0  0  0  0  0  0  0  0  0  0  0
   -6.3333    1.6571    1.8958 H   0  0  0  0  0  0  0  0  0  0  0  0
   -7.4188    1.1784    0.6015 H   0  0  0  0  0  0  0  0  0  0  0  0
   -4.7589   -0.1774   -0.9450 H   0  0  0  0  0  0  0  0  0  0  0  0
   -3.8527    1.3317   -1.4318 H   0  0  0  0  0  0  0  0  0  0  0  0
   -2.6823    1.4067    0.6952 H   0  0  0  0  0  0  0  0  0  0  0  0
   -4.1994    1.3862    2.8588 H   0  0  0  0  0  0  0  0  0  0  0  0
   -5.2011   -1.2498    3.6664 H   0  0  0  0  0  0  0  0  0  0  0  0
   -3.4773   -1.1448    4.1596 H   0  0  0  0  0  0  0  0  0  0  0  0
   -3.7686   -1.8788   -0.9642 H   0  0  0  0  0  0  0  0  0  0  0  0
   -2.2182   -3.3599   -2.0078 H   0  0  0  0  0  0  0  0  0  0  0  0
    0.2197   -2.7863   -1.9640 H   0  0  0  0  0  0  0  0  0  0  0  0
    1.8941   -2.7762   -0.6498 H   0  0  0  0  0  0  0  0  0  0  0  0
    4.3402   -2.4193   -0.5212 H   0  0  0  0  0  0  0  0  0  0  0  0
    6.3087    1.8601   -0.7446 H   0  0  0  0  0  0  0  0  0  0  0  0
    5.6939    1.1591   -2.2428 H   0  0  0  0  0  0  0  0  0  0  0  0
    8.2969    1.4467   -1.8504 H   0  0  0  0  0  0  0  0  0  0  0  0
    7.6614    0.1312   -2.8672 H   0  0  0  0  0  0  0  0  0  0  0  0
    8.2359   -1.3511   -1.3650 H   0  0  0  0  0  0  0  0  0  0  0  0
    8.4677   -0.8312    1.0779 H   0  0  0  0  0  0  0  0  0  0  0  0
    7.6525    0.7604    0.6117 H   0  0  0  0  0  0  0  0  0  0  0  0
    5.8812   -1.0016    1.3230 H   0  0  0  0  0  0  0  0  0  0  0  0
    6.4975   -1.9476   -0.1569 H   0  0  0  0  0  0  0  0  0  0  0  0
    3.8036    1.7423   -0.8916 H   0  0  0  0  0  0  0  0  0  0  0  0
    1.3465    1.4053   -1.0206 H   0  0  0  0  0  0  0  0  0  0  0  0
   -0.5994    0.7403    0.1531 H   0  0  0  0  0  0  0  0  0  0  0  0
  1  2  1  0
  2  3  1  0
  2  4  1  0
  4  5  1  0
  5  6  1  0
  6  7  2  0
  6  8  1  0
  8  9  1  0
  9 10  1  0
 10 11  3  0
  5 12  1  0
 12 13  2  0
 13 14  1  0
 14 15  2  0
 15 16  1  0
 16 17  1  0
 17 18  2  0
 18 19  1  0
 19 20  2  0
 20 21  1  0
 21 22  1  0
 22 23  1  0
 23 24  1  0
 24 25  1  0
 25 26  1  0
 20 27  1  0
 27 28  2  0
 16 29  2  0
 29 12  1  0
 28 17  1  0
 26 21  1  0
  1 30  1  0
  1 31  1  0
  1 32  1  0
  2 33  1  0
  3 34  1  0
  3 35  1  0
  3 36  1  0
  4 37  1  0
  4 38  1  0
  5 39  1  1
  8 40  1  0
  9 41  1  0
  9 42  1  0
 13 43  1  0
 14 44  1  0
 15 45  1  0
 18 46  1  0
 19 47  1  0
 22 48  1  0
 22 49  1  0
 23 50  1  0
 23 51  1  0
 24 52  1  0
 25 53  1  0
 25 54  1  0
 26 55  1  0
 26 56  1  0
 27 57  1  0
 28 58  1  0
 29 59  1  0
M  END
$$$$
