
     RDKit          3D

 44 46  0  0  0  0  0  0  0  0999 V2000
    4.3485    2.7022   -0.8136 C   0  0  0  0  0  0  0  0  0  0  0  0
    4.7830    1.2868   -0.4873 C   0  0  0  0  0  0  0  0  0  0  0  0
    5.2481    1.1811    0.9417 C   0  0  0  0  0  0  0  0  0  0  0  0
    3.6507    0.3282   -0.6687 C   0  0  0  0  0  0  0  0  0  0  0  0
    2.5124    0.4068    0.0133 N   0  0  0  0  0  0  0  0  0  0  0  0
    1.6898   -0.5895   -0.3672 C   0  0  0  0  0  0  0  0  0  0  0  0
    0.4076   -1.0311   -0.0386 C   0  0  0  0  0  0  0  0  0  0  0  0
   -0.1809   -0.2448    0.9324 O   0  0  0  0  0  0  0  0  0  0  0  0
   -1.4757   -0.5385    1.3899 C   0  0  0  0  0  0  0  0  0  0  0  0
   -2.5208   -0.4930    0.2935 C   0  0  0  0  0  0  0  0  0  0  0  0
   -3.8258   -0.8243    0.9404 C   0  0  0  0  0  0  0  0  0  0  0  0
   -5.0350   -0.2092    0.3190 C   0  0  0  0  0  0  0  0  0  0  0  0
   -4.8014    1.3068    0.3570 C   0  0  0  0  0  0  0  0  0  0  0  0
   -3.7182    1.5284   -0.6640 C   0  0  0  0  0  0  0  0  0  0  0  0
   -2.4454    0.8332   -0.3730 C   0  0  0  0  0  0  0  0  0  0  0  0
   -0.0508   -2.1138   -0.6881 N   0  0  0  0  0  0  0  0  0  0  0  0
    0.6657   -2.7632   -1.6148 C   0  0  0  0  0  0  0  0  0  0  0  0
    0.0407   -3.8998   -2.2186 N   0  0  0  0  0  0  0  0  0  0  0  0
    1.9100   -2.3523   -1.9483 N   0  0  0  0  0  0  0  0  0  0  0  0
    2.4294   -1.2607   -1.3245 C   0  0  0  0  0  0  0  0  0  0  0  0
    3.6299   -0.7193   -1.5260 N   0  0  0  0  0  0  0  0  0  0  0  0
    4.2675    2.8303   -1.9050 H   0  0  0  0  0  0  0  0  0  0  0  0
    5.1804    3.3738   -0.4992 H   0  0  0  0  0  0  0  0  0  0  0  0
    3.4214    2.9626   -0.2516 H   0  0  0  0  0  0  0  0  0  0  0  0
    5.6258    1.0293   -1.1576 H   0  0  0  0  0  0  0  0  0  0  0  0
    4.5762    0.5402    1.5664 H   0  0  0  0  0  0  0  0  0  0  0  0
    6.2571    0.7117    1.0000 H   0  0  0  0  0  0  0  0  0  0  0  0
    5.2582    2.1791    1.4500 H   0  0  0  0  0  0  0  0  0  0  0  0
   -1.6990    0.2100    2.1877 H   0  0  0  0  0  0  0  0  0  0  0  0
   -1.4844   -1.5189    1.9216 H   0  0  0  0  0  0  0  0  0  0  0  0
   -2.2627   -1.2923   -0.4309 H   0  0  0  0  0  0  0  0  0  0  0  0
   -3.8337   -0.5805    2.0241 H   0  0  0  0  0  0  0  0  0  0  0  0
   -3.9634   -1.9350    0.9026 H   0  0  0  0  0  0  0  0  0  0  0  0
   -5.8863   -0.3806    0.9932 H   0  0  0  0  0  0  0  0  0  0  0  0
   -5.2377   -0.5195   -0.7113 H   0  0  0  0  0  0  0  0  0  0  0  0
   -4.4745    1.5706    1.3889 H   0  0  0  0  0  0  0  0  0  0  0  0
   -5.7074    1.8222    0.0445 H   0  0  0  0  0  0  0  0  0  0  0  0
   -4.1729    1.2471   -1.6510 H   0  0  0  0  0  0  0  0  0  0  0  0
   -3.5378    2.6220   -0.7495 H   0  0  0  0  0  0  0  0  0  0  0  0
   -1.9013    0.7315   -1.3562 H   0  0  0  0  0  0  0  0  0  0  0  0
   -1.8011    1.5449    0.2026 H   0  0  0  0  0  0  0  0  0  0  0  0
   -0.4419   -4.0326   -3.1406 H   0  0  0  0  0  0  0  0  0  0  0  0
    0.1680   -4.6424   -1.4994 H   0  0  0  0  0  0  0  0  0  0  0  0
    4.3877   -1.0073   -2.1754 H   0  0  0  0  0  0  0  0  0  0  0  0
  1  2  1  0
  2  3  1  0
  2  4  1  0
  4  5  2  0
  5  6  1  0
  6  7  2  0
  7  8  1  0
  8  9  1  0
  9 10  1  0
 10 11  1  0
 11 12  1  0
 12 13  1  0
 13 14  1  0
 14 15  1  0
  7 16  1  0
 16 17  2  0
 17 18  1  0
 17 19  1  0
 19 20  2  0
 20 21  1  0
 21  4  1  0
 20  6  1  0
 15 10  1  0
  1 22  1  0
  1 23  1  0
  1 24  1  0
  2 25  1  0
  3 26  1  0
  3 27  1  0
  3 28  1  0
  9 29  1  0
  9 30  1  0
 10 31  1  0
 11 32  1  0
 11 33  1  0
 12 34  1  0
 12 35  1  0
 13 36  1  0
 13 37  1  0
 14 38  1  0
 14 39  1  0
 15 40  1  0
 15 41  1  0
 18 42  1  0
 18 43  1  0
 21 44  1  0
M  END
$$$$
