
     RDKit          3D

 69 72  0  0  0  0  0  0  0  0999 V2000
    1.4161    4.0162    2.2035 C   0  0  0  0  0  0  0  0  0  0  0  0
    0.3499    2.9672    2.0040 C   0  0  0  0  0  0  0  0  0  0  0  0
    0.5153    2.2303    0.7194 C   0  0  1  0  0  0  0  0  0  0  0  0
    1.7802    1.4929    0.5662 C   0  0  0  0  0  0  0  0  0  0  0  0
    2.7809    1.3845    1.4761 C   0  0  0  0  0  0  0  0  0  0  0  0
    3.9351    0.6488    1.1788 C   0  0  0  0  0  0  0  0  0  0  0  0
    4.1076    0.0110   -0.0291 C   0  0  0  0  0  0  0  0  0  0  0  0
    5.3325   -0.7391   -0.2804 C   0  0  0  0  0  0  0  0  0  0  0  0
    6.5437   -0.3626    0.2717 C   0  0  0  0  0  0  0  0  0  0  0  0
    7.6940   -1.0788    0.0274 C   0  0  0  0  0  0  0  0  0  0  0  0
    7.6939   -2.1760   -0.7580 N   0  0  0  0  0  0  0  0  0  0  0  0
    8.9045   -2.9328   -1.0184 C   0  0  0  0  0  0  0  0  0  0  0  0
    6.5159   -2.5521   -1.3019 C   0  0  0  0  0  0  0  0  0  0  0  0
    6.5011   -3.5874   -2.0463 O   0  0  0  0  0  0  0  0  0  0  0  0
    5.3446   -1.8614   -1.0808 C   0  0  0  0  0  0  0  0  0  0  0  0
    3.0894    0.1247   -0.9469 C   0  0  0  0  0  0  0  0  0  0  0  0
    1.9503    0.8466   -0.6630 C   0  0  0  0  0  0  0  0  0  0  0  0
   -0.5910    1.4090    0.3415 N   0  0  0  0  0  0  0  0  0  0  0  0
   -1.4041    1.6639   -0.8326 C   0  0  0  0  0  0  0  0  0  0  0  0
   -2.8408    1.5728   -0.3572 C   0  0  0  0  0  0  0  0  0  0  0  0
   -3.2071    0.1095   -0.0236 C   0  0  2  0  0  0  0  0  0  0  0  0
   -3.5460   -0.5370   -1.3104 C   0  0  0  0  0  0  0  0  0  0  0  0
   -3.9182   -1.9567   -1.3244 C   0  0  0  0  0  0  0  0  0  0  0  0
   -5.0943   -2.4081   -0.5516 C   0  0  0  0  0  0  0  0  0  0  0  0
   -4.1884   -2.3356   -2.7914 C   0  0  0  0  0  0  0  0  0  0  0  0
   -2.8241   -2.7706   -0.9405 O   0  0  0  0  0  0  0  0  0  0  0  0
   -4.3489    0.2586    0.9265 C   0  0  0  0  0  0  0  0  0  0  0  0
   -5.6427    0.4129    0.5317 C   0  0  0  0  0  0  0  0  0  0  0  0
   -6.6492    0.5460    1.4537 C   0  0  0  0  0  0  0  0  0  0  0  0
   -6.3371    0.5220    2.7966 C   0  0  0  0  0  0  0  0  0  0  0  0
   -5.0399    0.3677    3.2366 C   0  0  0  0  0  0  0  0  0  0  0  0
   -4.0578    0.2371    2.2669 C   0  0  0  0  0  0  0  0  0  0  0  0
   -2.1021   -0.4422    0.6293 O   0  0  0  0  0  0  0  0  0  0  0  0
   -0.9985    0.2509    1.0997 C   0  0  0  0  0  0  0  0  0  0  0  0
   -0.3510   -0.0611    2.1178 O   0  0  0  0  0  0  0  0  0  0  0  0
    2.1358    3.9213    1.3552 H   0  0  0  0  0  0  0  0  0  0  0  0
    1.9064    3.9756    3.1973 H   0  0  0  0  0  0  0  0  0  0  0  0
    0.9698    5.0451    2.0459 H   0  0  0  0  0  0  0  0  0  0  0  0
    0.2497    2.3005    2.8875 H   0  0  0  0  0  0  0  0  0  0  0  0
   -0.6280    3.4996    1.9455 H   0  0  0  0  0  0  0  0  0  0  0  0
    0.5676    3.0458   -0.0769 H   0  0  0  0  0  0  0  0  0  0  0  0
    2.6713    1.8619    2.4170 H   0  0  0  0  0  0  0  0  0  0  0  0
    4.7123    0.5810    1.9213 H   0  0  0  0  0  0  0  0  0  0  0  0
    6.5537    0.5156    0.9026 H   0  0  0  0  0  0  0  0  0  0  0  0
    8.6267   -0.7390    0.4881 H   0  0  0  0  0  0  0  0  0  0  0  0
    8.5969   -3.9184   -1.4190 H   0  0  0  0  0  0  0  0  0  0  0  0
    9.5295   -3.0557   -0.1202 H   0  0  0  0  0  0  0  0  0  0  0  0
    9.5498   -2.3759   -1.7560 H   0  0  0  0  0  0  0  0  0  0  0  0
    4.4200   -2.1840   -1.5275 H   0  0  0  0  0  0  0  0  0  0  0  0
    3.2012   -0.3711   -1.9107 H   0  0  0  0  0  0  0  0  0  0  0  0
    1.2008    0.8841   -1.4402 H   0  0  0  0  0  0  0  0  0  0  0  0
   -1.1845    0.9791   -1.6630 H   0  0  0  0  0  0  0  0  0  0  0  0
   -1.2432    2.6878   -1.1759 H   0  0  0  0  0  0  0  0  0  0  0  0
   -2.9070    2.1352    0.5739 H   0  0  0  0  0  0  0  0  0  0  0  0
   -3.5699    1.9063   -1.0977 H   0  0  0  0  0  0  0  0  0  0  0  0
   -4.2826    0.1323   -1.8357 H   0  0  0  0  0  0  0  0  0  0  0  0
   -2.6228   -0.4346   -1.9576 H   0  0  0  0  0  0  0  0  0  0  0  0
   -4.9865   -2.3772    0.5542 H   0  0  0  0  0  0  0  0  0  0  0  0
   -5.1834   -3.5254   -0.7574 H   0  0  0  0  0  0  0  0  0  0  0  0
   -6.0747   -2.0239   -0.9148 H   0  0  0  0  0  0  0  0  0  0  0  0
   -4.6916   -1.4495   -3.2700 H   0  0  0  0  0  0  0  0  0  0  0  0
   -4.8182   -3.2320   -2.8470 H   0  0  0  0  0  0  0  0  0  0  0  0
   -3.1973   -2.4487   -3.2620 H   0  0  0  0  0  0  0  0  0  0  0  0
   -2.2246   -2.8073   -1.7207 H   0  0  0  0  0  0  0  0  0  0  0  0
   -5.8957    0.4329   -0.5079 H   0  0  0  0  0  0  0  0  0  0  0  0
   -7.7035    0.6718    1.1329 H   0  0  0  0  0  0  0  0  0  0  0  0
   -7.1618    0.6307    3.5199 H   0  0  0  0  0  0  0  0  0  0  0  0
   -4.7883    0.3483    4.3087 H   0  0  0  0  0  0  0  0  0  0  0  0
   -3.0416    0.1169    2.6545 H   0  0  0  0  0  0  0  0  0  0  0  0
  1  2  1  0
  2  3  1  0
  3  4  1  0
  4  5  2  0
  5  6  1  0
  6  7  2  0
  7  8  1  0
  8  9  1  0
  9 10  2  0
 10 11  1  0
 11 12  1  0
 11 13  1  0
 13 14  2  0
 13 15  1  0
  7 16  1  0
 16 17  2  0
  3 18  1  0
 18 19  1  0
 19 20  1  0
 20 21  1  0
 21 22  1  6
 22 23  1  0
 23 24  1  0
 23 25  1  0
 23 26  1  0
 21 27  1  0
 27 28  2  0
 28 29  1  0
 29 30  2  0
 30 31  1  0
 31 32  2  0
 21 33  1  0
 33 34  1  0
 34 35  2  0
 17  4  1  0
 34 18  1  0
 15  8  2  0
 32 27  1  0
  1 36  1  0
  1 37  1  0
  1 38  1  0
  2 39  1  0
  2 40  1  0
  3 41  1  6
  5 42  1  0
  6 43  1  0
  9 44  1  0
 10 45  1  0
 12 46  1  0
 12 47  1  0
 12 48  1  0
 15 49  1  0
 16 50  1  0
 17 51  1  0
 19 52  1  0
 19 53  1  0
 20 54  1  0
 20 55  1  0
 22 56  1  0
 22 57  1  0
 24 58  1  0
 24 59  1  0
 24 60  1  0
 25 61  1  0
 25 62  1  0
 25 63  1  0
 26 64  1  0
 28 65  1  0
 29 66  1  0
 30 67  1  0
 31 68  1  0
 32 69  1  0
M  END
$$$$
