
     RDKit          3D

 61 60  0  0  0  0  0  0  0  0999 V2000
    8.8114   -0.1732   -0.8063 C   0  0  1  0  0  0  0  0  0  0  0  0
   10.2216   -0.5184   -0.5674 N   0  0  0  0  0  0  0  0  0  0  0  0
    8.0846   -1.4791   -0.8903 C   0  0  0  0  0  0  0  0  0  0  0  0
    6.3376   -1.2503   -1.1751 S   0  0  0  0  0  0  0  0  0  0  0  0
    5.4716   -0.6434    0.2489 C   0  0  0  0  0  0  0  0  0  0  0  0
    4.9533   -0.2235    1.2873 O   0  0  0  0  0  0  0  0  0  0  0  0
    4.0153   -0.4799   -0.1682 C   0  0  0  0  0  0  0  0  0  0  0  0
    3.2284    0.1020    0.9510 C   0  0  0  0  0  0  0  0  0  0  0  0
    1.7598    0.2891    0.5197 C   0  0  0  0  0  0  0  0  0  0  0  0
    1.1828   -1.0344    0.2033 C   0  0  0  0  0  0  0  0  0  0  0  0
   -0.2221   -1.1672   -0.2176 C   0  0  0  0  0  0  0  0  0  0  0  0
   -1.2896   -0.9168    0.7563 C   0  0  0  0  0  0  0  0  0  0  0  0
   -1.3383    0.4081    1.3789 C   0  0  0  0  0  0  0  0  0  0  0  0
   -2.6028    0.5076    2.2589 C   0  0  0  0  0  0  0  0  0  0  0  0
   -3.8063    0.3312    1.3881 C   0  0  0  0  0  0  0  0  0  0  0  0
   -3.8766    1.3556    0.2855 C   0  0  0  0  0  0  0  0  0  0  0  0
   -5.0805    1.1108   -0.5590 C   0  0  0  0  0  0  0  0  0  0  0  0
   -6.3304    1.2069    0.2336 C   0  0  0  0  0  0  0  0  0  0  0  0
   -7.5286    0.9968   -0.6402 C   0  0  0  0  0  0  0  0  0  0  0  0
   -7.5038   -0.3628   -1.2879 C   0  0  0  0  0  0  0  0  0  0  0  0
   -8.7984   -0.4290   -2.1222 C   0  0  0  0  0  0  0  0  0  0  0  0
    8.3389    0.7188    0.2436 C   0  0  0  0  0  0  0  0  0  0  0  0
    9.0298    0.9923    1.4082 O   0  0  0  0  0  0  0  0  0  0  0  0
    7.2882    1.3932    0.3377 O   0  0  0  0  0  0  0  0  0  0  0  0
    8.7426    0.2949   -1.8164 H   0  0  0  0  0  0  0  0  0  0  0  0
   10.3125   -1.3104    0.0897 H   0  0  0  0  0  0  0  0  0  0  0  0
   10.6649   -0.6940   -1.4970 H   0  0  0  0  0  0  0  0  0  0  0  0
    8.5197   -2.1361   -1.6915 H   0  0  0  0  0  0  0  0  0  0  0  0
    8.2213   -1.9969    0.1137 H   0  0  0  0  0  0  0  0  0  0  0  0
    3.6543   -1.4335   -0.5785 H   0  0  0  0  0  0  0  0  0  0  0  0
    3.9863    0.2464   -1.0297 H   0  0  0  0  0  0  0  0  0  0  0  0
    3.1541   -0.6534    1.7810 H   0  0  0  0  0  0  0  0  0  0  0  0
    3.6290    1.0793    1.3037 H   0  0  0  0  0  0  0  0  0  0  0  0
    1.8164    0.8438   -0.4841 H   0  0  0  0  0  0  0  0  0  0  0  0
    1.2694    0.9131    1.2454 H   0  0  0  0  0  0  0  0  0  0  0  0
    1.8060   -1.5774   -0.5824 H   0  0  0  0  0  0  0  0  0  0  0  0
    1.4078   -1.6813    1.1201 H   0  0  0  0  0  0  0  0  0  0  0  0
   -0.4075   -0.4455   -1.1136 H   0  0  0  0  0  0  0  0  0  0  0  0
   -0.3881   -2.1679   -0.7523 H   0  0  0  0  0  0  0  0  0  0  0  0
   -1.0899   -1.6609    1.6152 H   0  0  0  0  0  0  0  0  0  0  0  0
   -2.2971   -1.2545    0.3523 H   0  0  0  0  0  0  0  0  0  0  0  0
   -0.4801    0.5235    2.1307 H   0  0  0  0  0  0  0  0  0  0  0  0
   -1.2659    1.2762    0.7154 H   0  0  0  0  0  0  0  0  0  0  0  0
   -2.4802   -0.3122    2.9933 H   0  0  0  0  0  0  0  0  0  0  0  0
   -2.5827    1.4601    2.7926 H   0  0  0  0  0  0  0  0  0  0  0  0
   -4.6876    0.4932    2.1055 H   0  0  0  0  0  0  0  0  0  0  0  0
   -3.9872   -0.6553    0.9811 H   0  0  0  0  0  0  0  0  0  0  0  0
   -3.8737    2.3696    0.7269 H   0  0  0  0  0  0  0  0  0  0  0  0
   -2.9693    1.3044   -0.3689 H   0  0  0  0  0  0  0  0  0  0  0  0
   -5.1010    1.8262   -1.4249 H   0  0  0  0  0  0  0  0  0  0  0  0
   -5.0381    0.0908   -1.0450 H   0  0  0  0  0  0  0  0  0  0  0  0
   -6.3216    0.4163    1.0306 H   0  0  0  0  0  0  0  0  0  0  0  0
   -6.4228    2.1982    0.7536 H   0  0  0  0  0  0  0  0  0  0  0  0
   -8.4788    1.1784   -0.0883 H   0  0  0  0  0  0  0  0  0  0  0  0
   -7.5206    1.7317   -1.4902 H   0  0  0  0  0  0  0  0  0  0  0  0
   -6.6737   -0.3721   -2.0460 H   0  0  0  0  0  0  0  0  0  0  0  0
   -7.4297   -1.2015   -0.5853 H   0  0  0  0  0  0  0  0  0  0  0  0
   -8.9459    0.5693   -2.5494 H   0  0  0  0  0  0  0  0  0  0  0  0
   -8.5869   -1.1430   -2.9413 H   0  0  0  0  0  0  0  0  0  0  0  0
   -9.6397   -0.7449   -1.4831 H   0  0  0  0  0  0  0  0  0  0  0  0
    9.1380    1.8909    1.8371 H   0  0  0  0  0  0  0  0  0  0  0  0
  1  2  1  0
  1  3  1  0
  3  4  1  0
  4  5  1  0
  5  6  2  0
  5  7  1  0
  7  8  1  0
  8  9  1  0
  9 10  1  0
 10 11  1  0
 11 12  1  0
 12 13  1  0
 13 14  1  0
 14 15  1  0
 15 16  1  0
 16 17  1  0
 17 18  1  0
 18 19  1  0
 19 20  1  0
 20 21  1  0
  1 22  1  0
 22 23  1  0
 22 24  2  0
  1 25  1  6
  2 26  1  0
  2 27  1  0
  3 28  1  0
  3 29  1  0
  7 30  1  0
  7 31  1  0
  8 32  1  0
  8 33  1  0
  9 34  1  0
  9 35  1  0
 10 36  1  0
 10 37  1  0
 11 38  1  0
 11 39  1  0
 12 40  1  0
 12 41  1  0
 13 42  1  0
 13 43  1  0
 14 44  1  0
 14 45  1  0
 15 46  1  0
 15 47  1  0
 16 48  1  0
 16 49  1  0
 17 50  1  0
 17 51  1  0
 18 52  1  0
 18 53  1  0
 19 54  1  0
 19 55  1  0
 20 56  1  0
 20 57  1  0
 21 58  1  0
 21 59  1  0
 21 60  1  0
 23 61  1  0
M  END
$$$$
