
     RDKit          3D

 56 58  0  0  0  0  0  0  0  0999 V2000
   -1.5546   -1.9638   -1.9263 C   0  0  0  0  0  0  0  0  0  0  0  0
   -0.9838   -1.6202   -0.5941 C   0  0  2  0  0  0  0  0  0  0  0  0
   -2.1136   -1.7324    0.4566 C   0  0  0  0  0  0  0  0  0  0  0  0
   -2.9299   -0.4961    0.2479 N   0  0  0  0  0  0  0  0  0  0  0  0
   -4.1098   -0.7092    1.0636 C   0  0  0  0  0  0  0  0  0  0  0  0
   -5.2407    0.1611    0.6557 C   0  0  0  0  0  0  0  0  0  0  0  0
   -6.4544   -0.0412    1.5417 C   0  0  0  0  0  0  0  0  0  0  0  0
   -7.7269    0.2583    1.0744 N   0  0  0  0  0  0  0  0  0  0  0  0
   -6.2533   -0.4933    2.7203 O   0  0  0  0  0  0  0  0  0  0  0  0
   -5.1791    1.4616   -0.0337 C   0  0  0  0  0  0  0  0  0  0  0  0
   -5.6097    0.2150   -0.8056 C   0  0  0  0  0  0  0  0  0  0  0  0
   -2.2042    0.5984    0.9174 C   0  0  0  0  0  0  0  0  0  0  0  0
   -0.7158    0.3015    0.8054 C   0  0  0  0  0  0  0  0  0  0  0  0
   -0.4876   -0.3056   -0.4443 N   0  0  0  0  0  0  0  0  0  0  0  0
    0.5477    0.3637   -1.5458 S   0  0  0  0  0  6  0  0  0  0  0  0
    0.6398   -0.3776   -2.8551 O   0  0  0  0  0  0  0  0  0  0  0  0
    0.1648    1.7972   -1.8991 O   0  0  0  0  0  0  0  0  0  0  0  0
    2.1863    0.4320   -0.8894 C   0  0  0  0  0  0  0  0  0  0  0  0
    2.6303    1.3718   -0.0275 C   0  0  0  0  0  0  0  0  0  0  0  0
    3.9306    1.3705    0.4170 C   0  0  0  0  0  0  0  0  0  0  0  0
    4.8593    0.4212    0.0180 C   0  0  0  0  0  0  0  0  0  0  0  0
    6.2707    0.3978    0.4700 C   0  0  0  0  0  0  0  0  0  0  0  0
    7.0134   -0.7773   -0.1202 C   0  0  0  0  0  0  0  0  0  0  0  0
    6.3602    0.4033    1.8651 O   0  0  0  0  0  0  0  0  0  0  0  0
    6.9514    1.6503   -0.0868 C   0  0  0  0  0  0  0  0  0  0  0  0
    6.8886    1.6616   -1.4613 F   0  0  0  0  0  0  0  0  0  0  0  0
    8.3074    1.6246    0.2245 F   0  0  0  0  0  0  0  0  0  0  0  0
    6.3394    2.7731    0.3899 F   0  0  0  0  0  0  0  0  0  0  0  0
    4.3779   -0.5233   -0.8592 C   0  0  0  0  0  0  0  0  0  0  0  0
    3.0818   -0.5531   -1.3258 C   0  0  0  0  0  0  0  0  0  0  0  0
   -1.0533   -2.8501   -2.4051 H   0  0  0  0  0  0  0  0  0  0  0  0
   -2.6160   -2.2684   -1.8246 H   0  0  0  0  0  0  0  0  0  0  0  0
   -1.5679   -1.0958   -2.6322 H   0  0  0  0  0  0  0  0  0  0  0  0
   -0.1836   -2.3536   -0.3319 H   0  0  0  0  0  0  0  0  0  0  0  0
   -1.6692   -1.7695    1.4431 H   0  0  0  0  0  0  0  0  0  0  0  0
   -2.7601   -2.5670    0.1638 H   0  0  0  0  0  0  0  0  0  0  0  0
   -4.3768   -1.8010    1.0215 H   0  0  0  0  0  0  0  0  0  0  0  0
   -3.8566   -0.5591    2.1569 H   0  0  0  0  0  0  0  0  0  0  0  0
   -8.2821    1.1134    1.2822 H   0  0  0  0  0  0  0  0  0  0  0  0
   -8.2135   -0.4345    0.4353 H   0  0  0  0  0  0  0  0  0  0  0  0
   -4.3135    1.9667   -0.4450 H   0  0  0  0  0  0  0  0  0  0  0  0
   -6.0192    2.2102    0.1758 H   0  0  0  0  0  0  0  0  0  0  0  0
   -6.6840    0.1585   -1.0552 H   0  0  0  0  0  0  0  0  0  0  0  0
   -4.9435   -0.1945   -1.5805 H   0  0  0  0  0  0  0  0  0  0  0  0
   -2.4496    0.6318    1.9963 H   0  0  0  0  0  0  0  0  0  0  0  0
   -2.3580    1.5749    0.4799 H   0  0  0  0  0  0  0  0  0  0  0  0
   -0.1983    1.2835    0.8535 H   0  0  0  0  0  0  0  0  0  0  0  0
   -0.3395   -0.2720    1.6793 H   0  0  0  0  0  0  0  0  0  0  0  0
    1.9426    2.1477    0.3213 H   0  0  0  0  0  0  0  0  0  0  0  0
    4.2908    2.1332    1.1246 H   0  0  0  0  0  0  0  0  0  0  0  0
    8.0710   -0.7653    0.2662 H   0  0  0  0  0  0  0  0  0  0  0  0
    7.1223   -0.6276   -1.2116 H   0  0  0  0  0  0  0  0  0  0  0  0
    6.5377   -1.7558    0.0757 H   0  0  0  0  0  0  0  0  0  0  0  0
    7.1175    1.0135    2.0908 H   0  0  0  0  0  0  0  0  0  0  0  0
    5.0772   -1.2893   -1.2002 H   0  0  0  0  0  0  0  0  0  0  0  0
    2.7395   -1.3000   -2.0031 H   0  0  0  0  0  0  0  0  0  0  0  0
  1  2  1  0
  2  3  1  0
  3  4  1  0
  4  5  1  0
  5  6  1  0
  6  7  1  0
  7  8  1  0
  7  9  2  0
  6 10  1  0
 10 11  1  0
  4 12  1  0
 12 13  1  0
 13 14  1  0
 14 15  1  0
 15 16  2  0
 15 17  2  0
 15 18  1  0
 18 19  2  0
 19 20  1  0
 20 21  2  0
 21 22  1  0
 22 23  1  0
 22 24  1  0
 22 25  1  0
 25 26  1  0
 25 27  1  0
 25 28  1  0
 21 29  1  0
 29 30  2  0
 14  2  1  0
 30 18  1  0
 11  6  1  0
  1 31  1  0
  1 32  1  0
  1 33  1  0
  2 34  1  1
  3 35  1  0
  3 36  1  0
  5 37  1  0
  5 38  1  0
  8 39  1  0
  8 40  1  0
 10 41  1  0
 10 42  1  0
 11 43  1  0
 11 44  1  0
 12 45  1  0
 12 46  1  0
 13 47  1  0
 13 48  1  0
 19 49  1  0
 20 50  1  0
 23 51  1  0
 23 52  1  0
 23 53  1  0
 24 54  1  0
 29 55  1  0
 30 56  1  0
M  END
$$$$
