
     RDKit          3D

 73 76  0  0  0  0  0  0  0  0999 V2000
    1.3445   -3.1376    0.6701 C   0  0  0  0  0  0  0  0  0  0  0  0
    1.2915   -1.6833    1.0894 C   0  0  1  0  0  0  0  0  0  0  0  0
    2.5518   -0.9889    0.7058 C   0  0  0  0  0  0  0  0  0  0  0  0
    2.5684    0.3843    0.8031 C   0  0  0  0  0  0  0  0  0  0  0  0
    3.7248    1.0728    0.4584 C   0  0  0  0  0  0  0  0  0  0  0  0
    4.8566    0.4266    0.0220 C   0  0  0  0  0  0  0  0  0  0  0  0
    6.0277    1.2148   -0.3196 C   0  0  0  0  0  0  0  0  0  0  0  0
    5.9808    2.4731   -0.8392 C   0  0  0  0  0  0  0  0  0  0  0  0
    7.1869    3.1053   -1.1153 C   0  0  0  0  0  0  0  0  0  0  0  0
    8.3756    2.4724   -0.8683 C   0  0  0  0  0  0  0  0  0  0  0  0
    9.4661    3.0396   -1.1162 O   0  0  0  0  0  0  0  0  0  0  0  0
    8.4208    1.2287   -0.3549 N   0  0  0  0  0  0  0  0  0  0  0  0
    9.6995    0.5643   -0.0954 C   0  0  0  0  0  0  0  0  0  0  0  0
    7.2709    0.6239   -0.0907 C   0  0  0  0  0  0  0  0  0  0  0  0
    4.8031   -0.9467   -0.0628 C   0  0  0  0  0  0  0  0  0  0  0  0
    3.6626   -1.6534    0.2751 C   0  0  0  0  0  0  0  0  0  0  0  0
    0.1910   -0.9840    0.5172 N   0  0  0  0  0  0  0  0  0  0  0  0
    0.0097   -0.8275   -0.9372 C   0  0  0  0  0  0  0  0  0  0  0  0
   -1.3470   -1.4124   -1.2257 C   0  0  0  0  0  0  0  0  0  0  0  0
   -2.4833   -0.5894   -0.5724 C   0  0  2  0  0  0  0  0  0  0  0  0
   -3.5076   -1.4812   -0.0411 C   0  0  0  0  0  0  0  0  0  0  0  0
   -4.6856   -0.9212    0.6855 C   0  0  0  0  0  0  0  0  0  0  0  0
   -5.5840   -2.1091    1.1376 C   0  0  0  0  0  0  0  0  0  0  0  0
   -5.5828   -0.1596   -0.2526 C   0  0  0  0  0  0  0  0  0  0  0  0
   -4.3344   -0.2661    1.8914 N   0  0  0  0  0  0  0  0  0  0  0  0
   -5.5145    0.2934    2.9235 S   0  0  0  0  0  6  0  0  0  0  0  0
   -6.5232    1.5272    2.1611 C   0  0  0  0  0  0  0  0  0  0  0  0
   -4.8214    0.9602    4.1116 O   0  0  0  0  0  0  0  0  0  0  0  0
   -6.4568   -0.7731    3.4275 O   0  0  0  0  0  0  0  0  0  0  0  0
   -2.8301    0.3929   -1.5946 C   0  0  0  0  0  0  0  0  0  0  0  0
   -2.4415    1.7324   -1.5171 C   0  0  0  0  0  0  0  0  0  0  0  0
   -2.7123    2.6594   -2.4731 C   0  0  0  0  0  0  0  0  0  0  0  0
   -3.4100    2.2879   -3.5977 C   0  0  0  0  0  0  0  0  0  0  0  0
   -3.8154    0.9616   -3.7130 C   0  0  0  0  0  0  0  0  0  0  0  0
   -3.5276    0.0418   -2.7287 C   0  0  0  0  0  0  0  0  0  0  0  0
   -1.8991    0.1346    0.5243 O   0  0  0  0  0  0  0  0  0  0  0  0
   -0.8556   -0.3627    1.2765 C   0  0  0  0  0  0  0  0  0  0  0  0
   -0.7495   -0.3186    2.5196 O   0  0  0  0  0  0  0  0  0  0  0  0
    2.1457   -3.6129    1.2723 H   0  0  0  0  0  0  0  0  0  0  0  0
    0.3873   -3.5955    0.9363 H   0  0  0  0  0  0  0  0  0  0  0  0
    1.5188   -3.2302   -0.4273 H   0  0  0  0  0  0  0  0  0  0  0  0
    1.1984   -1.6628    2.1835 H   0  0  0  0  0  0  0  0  0  0  0  0
    1.6936    0.9313    1.1440 H   0  0  0  0  0  0  0  0  0  0  0  0
    3.6985    2.1561    0.5486 H   0  0  0  0  0  0  0  0  0  0  0  0
    5.0204    2.9376   -1.0194 H   0  0  0  0  0  0  0  0  0  0  0  0
    7.1489    4.1032   -1.5274 H   0  0  0  0  0  0  0  0  0  0  0  0
    9.6402   -0.4669   -0.5033 H   0  0  0  0  0  0  0  0  0  0  0  0
   10.5361    1.1295   -0.5211 H   0  0  0  0  0  0  0  0  0  0  0  0
    9.7879    0.4627    1.0031 H   0  0  0  0  0  0  0  0  0  0  0  0
    7.3182   -0.3788    0.3231 H   0  0  0  0  0  0  0  0  0  0  0  0
    5.6995   -1.4441   -0.4075 H   0  0  0  0  0  0  0  0  0  0  0  0
    3.6644   -2.7278    0.1938 H   0  0  0  0  0  0  0  0  0  0  0  0
    0.0830    0.2386   -1.2236 H   0  0  0  0  0  0  0  0  0  0  0  0
    0.7507   -1.4500   -1.4330 H   0  0  0  0  0  0  0  0  0  0  0  0
   -1.3831   -2.4063   -0.7426 H   0  0  0  0  0  0  0  0  0  0  0  0
   -1.4768   -1.4597   -2.3179 H   0  0  0  0  0  0  0  0  0  0  0  0
   -3.8848   -2.1327   -0.8888 H   0  0  0  0  0  0  0  0  0  0  0  0
   -3.0514   -2.2475    0.6543 H   0  0  0  0  0  0  0  0  0  0  0  0
   -5.5976   -2.8519    0.3257 H   0  0  0  0  0  0  0  0  0  0  0  0
   -5.1437   -2.5534    2.0443 H   0  0  0  0  0  0  0  0  0  0  0  0
   -6.6076   -1.7137    1.2930 H   0  0  0  0  0  0  0  0  0  0  0  0
   -5.2099    0.7889   -0.6105 H   0  0  0  0  0  0  0  0  0  0  0  0
   -6.6349   -0.1059    0.1379 H   0  0  0  0  0  0  0  0  0  0  0  0
   -5.7037   -0.8415   -1.1505 H   0  0  0  0  0  0  0  0  0  0  0  0
   -3.6403   -0.8650    2.3899 H   0  0  0  0  0  0  0  0  0  0  0  0
   -6.0419    1.9266    1.2529 H   0  0  0  0  0  0  0  0  0  0  0  0
   -6.6089    2.4352    2.8383 H   0  0  0  0  0  0  0  0  0  0  0  0
   -7.5382    1.1702    1.8870 H   0  0  0  0  0  0  0  0  0  0  0  0
   -1.8833    2.0553   -0.6296 H   0  0  0  0  0  0  0  0  0  0  0  0
   -2.3697    3.6820   -2.3282 H   0  0  0  0  0  0  0  0  0  0  0  0
   -3.6320    3.0167   -4.3661 H   0  0  0  0  0  0  0  0  0  0  0  0
   -4.3641    0.7009   -4.6125 H   0  0  0  0  0  0  0  0  0  0  0  0
   -3.8699   -0.9708   -2.8780 H   0  0  0  0  0  0  0  0  0  0  0  0
  1  2  1  0
  2  3  1  0
  3  4  2  0
  4  5  1  0
  5  6  2  0
  6  7  1  0
  7  8  1  0
  8  9  2  0
  9 10  1  0
 10 11  2  0
 10 12  1  0
 12 13  1  0
 12 14  1  0
  6 15  1  0
 15 16  2  0
  2 17  1  0
 17 18  1  0
 18 19  1  0
 19 20  1  0
 20 21  1  1
 21 22  1  0
 22 23  1  0
 22 24  1  0
 22 25  1  0
 25 26  1  0
 26 27  1  0
 26 28  2  0
 26 29  2  0
 20 30  1  0
 30 31  2  0
 31 32  1  0
 32 33  2  0
 33 34  1  0
 34 35  2  0
 20 36  1  0
 36 37  1  0
 37 38  2  0
 16  3  1  0
 37 17  1  0
 14  7  2  0
 35 30  1  0
  1 39  1  0
  1 40  1  0
  1 41  1  0
  2 42  1  1
  4 43  1  0
  5 44  1  0
  8 45  1  0
  9 46  1  0
 13 47  1  0
 13 48  1  0
 13 49  1  0
 14 50  1  0
 15 51  1  0
 16 52  1  0
 18 53  1  0
 18 54  1  0
 19 55  1  0
 19 56  1  0
 21 57  1  0
 21 58  1  0
 23 59  1  0
 23 60  1  0
 23 61  1  0
 24 62  1  0
 24 63  1  0
 24 64  1  0
 25 65  1  0
 27 66  1  0
 27 67  1  0
 27 68  1  0
 31 69  1  0
 32 70  1  0
 33 71  1  0
 34 72  1  0
 35 73  1  0
M  END
$$$$
