
     RDKit          3D

 36 36  0  0  0  0  0  0  0  0999 V2000
   -2.5471    0.6478   -1.0598 C   0  0  1  0  0  0  0  0  0  0  0  0
   -3.6723   -0.1140   -1.4515 O   0  0  0  0  0  0  0  0  0  0  0  0
   -2.5490    0.7672    0.4151 C   0  0  2  0  0  0  0  0  0  0  0  0
   -2.5503    2.1377    0.7353 O   0  0  0  0  0  0  0  0  0  0  0  0
   -1.4458    0.1017    1.1556 C   0  0  1  0  0  0  0  0  0  0  0  0
   -1.8325   -1.3121    1.6120 C   0  0  0  0  0  0  0  0  0  0  0  0
   -0.9403   -1.7976    2.5497 O   0  0  0  0  0  0  0  0  0  0  0  0
   -0.2057    0.1311    0.5888 O   0  0  0  0  0  0  0  0  0  0  0  0
   -0.1441    0.3446   -0.7506 C   0  0  1  0  0  0  0  0  0  0  0  0
    1.0772   -0.3109   -1.2337 N   0  0  0  0  0  0  0  0  0  0  0  0
    2.4406    0.3849   -0.4349 P   0  0  0  0  0  0  0  0  0  0  0  0
    2.9898    1.5169   -1.2516 O   0  0  0  0  0  0  0  0  0  0  0  0
    3.6638   -0.6912   -0.0878 O   0  0  0  0  0  0  0  0  0  0  0  0
    3.6677   -1.8489   -0.8409 C   0  0  0  0  0  0  0  0  0  0  0  0
    1.9257    1.0463    1.0552 O   0  0  0  0  0  0  0  0  0  0  0  0
    2.9910    1.8095    1.5721 C   0  0  0  0  0  0  0  0  0  0  0  0
   -1.3420   -0.0865   -1.5374 C   0  0  2  0  0  0  0  0  0  0  0  0
   -1.0964    0.1484   -2.8884 O   0  0  0  0  0  0  0  0  0  0  0  0
   -2.6955    1.6324   -1.5703 H   0  0  0  0  0  0  0  0  0  0  0  0
   -3.4454   -1.0802   -1.4267 H   0  0  0  0  0  0  0  0  0  0  0  0
   -3.5110    0.3799    0.8576 H   0  0  0  0  0  0  0  0  0  0  0  0
   -2.5587    2.1603    1.7431 H   0  0  0  0  0  0  0  0  0  0  0  0
   -1.3331    0.6636    2.1260 H   0  0  0  0  0  0  0  0  0  0  0  0
   -1.8119   -2.0393    0.7689 H   0  0  0  0  0  0  0  0  0  0  0  0
   -2.8236   -1.3075    2.0985 H   0  0  0  0  0  0  0  0  0  0  0  0
   -1.3576   -2.3633    3.2443 H   0  0  0  0  0  0  0  0  0  0  0  0
   -0.0404    1.4511   -0.9125 H   0  0  0  0  0  0  0  0  0  0  0  0
    1.0877   -0.2102   -2.2588 H   0  0  0  0  0  0  0  0  0  0  0  0
    4.1716   -2.6310   -0.2273 H   0  0  0  0  0  0  0  0  0  0  0  0
    4.3722   -1.6676   -1.6954 H   0  0  0  0  0  0  0  0  0  0  0  0
    2.6827   -2.2012   -1.1399 H   0  0  0  0  0  0  0  0  0  0  0  0
    3.5995    2.2225    0.7524 H   0  0  0  0  0  0  0  0  0  0  0  0
    3.6287    1.2111    2.2581 H   0  0  0  0  0  0  0  0  0  0  0  0
    2.5766    2.6569    2.1495 H   0  0  0  0  0  0  0  0  0  0  0  0
   -1.5399   -1.1767   -1.4538 H   0  0  0  0  0  0  0  0  0  0  0  0
   -1.4322   -0.5759   -3.4609 H   0  0  0  0  0  0  0  0  0  0  0  0
  1  2  1  0
  1  3  1  0
  3  4  1  0
  3  5  1  0
  5  6  1  0
  6  7  1  0
  5  8  1  0
  8  9  1  0
  9 10  1  0
 10 11  1  0
 11 12  2  0
 11 13  1  0
 13 14  1  0
 11 15  1  0
 15 16  1  0
  9 17  1  0
 17 18  1  0
 17  1  1  0
  1 19  1  6
  2 20  1  0
  3 21  1  1
  4 22  1  0
  5 23  1  1
  6 24  1  0
  6 25  1  0
  7 26  1  0
  9 27  1  1
 10 28  1  0
 14 29  1  0
 14 30  1  0
 14 31  1  0
 16 32  1  0
 16 33  1  0
 16 34  1  0
 17 35  1  6
 18 36  1  0
M  END
$$$$
