
     RDKit          3D

 32 35  0  0  0  0  0  0  0  0999 V2000
   -0.6053    4.3507   -1.0814 Cl  0  0  0  0  0  0  0  0  0  0  0  0
   -1.1703    2.7548   -0.6469 C   0  0  0  0  0  0  0  0  0  0  0  0
   -0.2367    1.7625   -0.7471 C   0  0  0  0  0  0  0  0  0  0  0  0
   -0.6689    0.4805   -0.3996 C   0  0  0  0  0  0  0  0  0  0  0  0
   -1.9646    0.2314    0.0136 C   0  0  0  0  0  0  0  0  0  0  0  0
   -2.9183    1.2387    0.1165 C   0  0  0  0  0  0  0  0  0  0  0  0
   -2.4830    2.5165   -0.2266 C   0  0  0  0  0  0  0  0  0  0  0  0
   -2.5469   -1.0562    0.3262 N   0  0  0  0  0  0  0  0  0  0  0  0
   -3.5385   -1.2384    1.2001 C   0  0  0  0  0  0  0  0  0  0  0  0
   -3.7141   -2.5622    1.1130 N   0  0  0  0  0  0  0  0  0  0  0  0
   -2.9005   -3.1301    0.2620 N   0  0  0  0  0  0  0  0  0  0  0  0
   -2.1084   -2.2021   -0.2895 C   0  0  0  0  0  0  0  0  0  0  0  0
   -1.0123   -2.3723   -1.3285 C   0  0  0  0  0  0  0  0  0  0  0  0
    0.2050   -1.7199   -0.9107 N   0  0  0  0  0  0  0  0  0  0  0  0
    0.4213   -0.4911   -0.4953 C   0  0  0  0  0  0  0  0  0  0  0  0
    1.7533   -0.0704   -0.1262 C   0  0  0  0  0  0  0  0  0  0  0  0
    2.3659    0.9998    0.4520 C   0  0  0  0  0  0  0  0  0  0  0  0
    3.7103    1.1980    0.6210 C   0  0  0  0  0  0  0  0  0  0  0  0
    4.5993    0.2432    0.1804 C   0  0  0  0  0  0  0  0  0  0  0  0
    4.0778   -0.8812   -0.4178 C   0  0  0  0  0  0  0  0  0  0  0  0
    2.7133   -1.0113   -0.5545 C   0  0  0  0  0  0  0  0  0  0  0  0
    0.7739    1.8515   -1.1031 H   0  0  0  0  0  0  0  0  0  0  0  0
   -3.9129    0.9948    0.4395 H   0  0  0  0  0  0  0  0  0  0  0  0
   -3.1833    3.3358   -0.1632 H   0  0  0  0  0  0  0  0  0  0  0  0
   -3.9910   -0.4454    1.7674 H   0  0  0  0  0  0  0  0  0  0  0  0
   -1.3734   -2.0509   -2.3017 H   0  0  0  0  0  0  0  0  0  0  0  0
   -0.7869   -3.4770   -1.3384 H   0  0  0  0  0  0  0  0  0  0  0  0
    1.6198    1.6848    0.8290 H   0  0  0  0  0  0  0  0  0  0  0  0
    3.9592    2.1223    1.1037 H   0  0  0  0  0  0  0  0  0  0  0  0
    5.6279    0.5081    0.3672 H   0  0  0  0  0  0  0  0  0  0  0  0
    4.8111   -1.6015   -0.7458 H   0  0  0  0  0  0  0  0  0  0  0  0
    2.4771   -1.9632   -1.0502 H   0  0  0  0  0  0  0  0  0  0  0  0
  1  2  1  0
  2  3  2  0
  3  4  1  0
  4  5  2  0
  5  6  1  0
  6  7  2  0
  5  8  1  0
  8  9  1  0
  9 10  2  0
 10 11  1  0
 11 12  2  0
 12 13  1  0
 13 14  1  0
 14 15  2  0
 15 16  1  0
 16 17  2  0
 17 18  1  0
 18 19  2  0
 19 20  1  0
 20 21  2  0
  7  2  1  0
 12  8  1  0
 21 16  1  0
 15  4  1  0
  3 22  1  0
  6 23  1  0
  7 24  1  0
  9 25  1  0
 13 26  1  0
 13 27  1  0
 17 28  1  0
 18 29  1  0
 19 30  1  0
 20 31  1  0
 21 32  1  0
M  END
$$$$
