
     RDKit          3D

 68 72  0  0  0  0  0  0  0  0999 V2000
    9.9763    1.1620   -0.3535 C   0  0  0  0  0  0  0  0  0  0  0  0
    9.0048    0.1583   -0.0533 N   0  0  0  0  0  0  0  0  0  0  0  0
    8.1190   -0.1468   -1.1327 C   0  0  0  0  0  0  0  0  0  0  0  0
    6.7298    0.3767   -0.9998 C   0  0  0  0  0  0  0  0  0  0  0  0
    6.6530    1.5200   -0.1711 N   0  0  0  0  0  0  0  0  0  0  0  0
    5.4472    2.2502   -0.1924 C   0  0  0  0  0  0  0  0  0  0  0  0
    4.2360    1.5126    0.2120 C   0  0  0  0  0  0  0  0  0  0  0  0
    3.5336    0.8544   -0.8047 C   0  0  0  0  0  0  0  0  0  0  0  0
    2.3931    0.1309   -0.5815 C   0  0  0  0  0  0  0  0  0  0  0  0
    1.8804    0.0188    0.6764 C   0  0  0  0  0  0  0  0  0  0  0  0
    2.5553    0.6572    1.6854 C   0  0  0  0  0  0  0  0  0  0  0  0
    3.6989    1.3888    1.4945 C   0  0  0  0  0  0  0  0  0  0  0  0
    0.6776   -0.7204    1.0417 C   0  0  0  0  0  0  0  0  0  0  0  0
    0.2266   -0.8054    2.2212 O   0  0  0  0  0  0  0  0  0  0  0  0
   -0.0653   -1.3997    0.0586 N   0  0  0  0  0  0  0  0  0  0  0  0
   -1.2514   -2.1703    0.1934 C   0  0  0  0  0  0  0  0  0  0  0  0
   -2.5025   -1.6471    0.0931 C   0  0  0  0  0  0  0  0  0  0  0  0
   -3.6898   -2.3317    0.2123 C   0  0  0  0  0  0  0  0  0  0  0  0
   -4.9861   -1.7759    0.1058 N   0  0  0  0  0  0  0  0  0  0  0  0
   -5.3454   -0.4385   -0.1383 C   0  0  0  0  0  0  0  0  0  0  0  0
   -4.5031    0.5853   -0.3202 N   0  0  0  0  0  0  0  0  0  0  0  0
   -4.8810    1.8445   -0.5503 C   0  0  0  0  0  0  0  0  0  0  0  0
   -6.2253    2.1330   -0.6086 C   0  0  0  0  0  0  0  0  0  0  0  0
   -7.1229    1.1077   -0.4266 C   0  0  0  0  0  0  0  0  0  0  0  0
   -6.6434   -0.1210   -0.2016 N   0  0  0  0  0  0  0  0  0  0  0  0
   -8.5619    1.2881   -0.4657 C   0  0  0  0  0  0  0  0  0  0  0  0
   -9.3769    0.1956   -0.2712 C   0  0  0  0  0  0  0  0  0  0  0  0
  -10.7305    0.3045   -0.2969 N   0  0  0  0  0  0  0  0  0  0  0  0
  -11.3172    1.5119   -0.5185 C   0  0  0  0  0  0  0  0  0  0  0  0
  -10.5581    2.6655   -0.7243 C   0  0  0  0  0  0  0  0  0  0  0  0
   -9.1967    2.4847   -0.6855 C   0  0  0  0  0  0  0  0  0  0  0  0
   -3.4945   -3.6853    0.4587 C   0  0  0  0  0  0  0  0  0  0  0  0
   -4.6905   -4.5596    0.6123 C   0  0  0  0  0  0  0  0  0  0  0  0
   -2.2563   -4.2653    0.5692 C   0  0  0  0  0  0  0  0  0  0  0  0
   -1.1187   -3.5182    0.4385 C   0  0  0  0  0  0  0  0  0  0  0  0
    7.4091    1.5237    1.0305 C   0  0  0  0  0  0  0  0  0  0  0  0
    8.3058    0.3282    1.1841 C   0  0  0  0  0  0  0  0  0  0  0  0
   10.9756    0.6444   -0.3628 H   0  0  0  0  0  0  0  0  0  0  0  0
   10.0154    1.9234    0.4243 H   0  0  0  0  0  0  0  0  0  0  0  0
    9.8795    1.5704   -1.3918 H   0  0  0  0  0  0  0  0  0  0  0  0
    8.0989   -1.2717   -1.2127 H   0  0  0  0  0  0  0  0  0  0  0  0
    8.6121    0.1727   -2.0966 H   0  0  0  0  0  0  0  0  0  0  0  0
    6.0524   -0.4489   -0.7448 H   0  0  0  0  0  0  0  0  0  0  0  0
    6.4134    0.6993   -2.0344 H   0  0  0  0  0  0  0  0  0  0  0  0
    5.5915    3.1511    0.4661 H   0  0  0  0  0  0  0  0  0  0  0  0
    5.2813    2.6676   -1.2108 H   0  0  0  0  0  0  0  0  0  0  0  0
    3.8815    0.8982   -1.8327 H   0  0  0  0  0  0  0  0  0  0  0  0
    1.8710   -0.3676   -1.3871 H   0  0  0  0  0  0  0  0  0  0  0  0
    2.1833    0.5983    2.7194 H   0  0  0  0  0  0  0  0  0  0  0  0
    4.2596    1.9049    2.2556 H   0  0  0  0  0  0  0  0  0  0  0  0
    0.1801   -1.4206   -0.9477 H   0  0  0  0  0  0  0  0  0  0  0  0
   -2.5150   -0.5860   -0.0995 H   0  0  0  0  0  0  0  0  0  0  0  0
   -5.7625   -2.4742    0.2291 H   0  0  0  0  0  0  0  0  0  0  0  0
   -4.1124    2.6149   -0.6866 H   0  0  0  0  0  0  0  0  0  0  0  0
   -6.5736    3.1334   -0.7915 H   0  0  0  0  0  0  0  0  0  0  0  0
   -8.9451   -0.7890   -0.0907 H   0  0  0  0  0  0  0  0  0  0  0  0
  -12.4031    1.6006   -0.5394 H   0  0  0  0  0  0  0  0  0  0  0  0
  -10.9927    3.6340   -0.9019 H   0  0  0  0  0  0  0  0  0  0  0  0
   -8.5963    3.3700   -0.8434 H   0  0  0  0  0  0  0  0  0  0  0  0
   -5.2730   -4.1770    1.4611 H   0  0  0  0  0  0  0  0  0  0  0  0
   -5.3351   -4.5453   -0.2945 H   0  0  0  0  0  0  0  0  0  0  0  0
   -4.4045   -5.6136    0.7759 H   0  0  0  0  0  0  0  0  0  0  0  0
   -2.1850   -5.3294    0.7626 H   0  0  0  0  0  0  0  0  0  0  0  0
   -0.1755   -4.0367    0.5366 H   0  0  0  0  0  0  0  0  0  0  0  0
    6.8077    1.7536    1.9521 H   0  0  0  0  0  0  0  0  0  0  0  0
    8.1077    2.4097    0.9649 H   0  0  0  0  0  0  0  0  0  0  0  0
    7.7342   -0.5947    1.3846 H   0  0  0  0  0  0  0  0  0  0  0  0
    8.9991    0.4908    2.0235 H   0  0  0  0  0  0  0  0  0  0  0  0
  1  2  1  0
  2  3  1  0
  3  4  1  0
  4  5  1  0
  5  6  1  0
  6  7  1  0
  7  8  2  0
  8  9  1  0
  9 10  2  0
 10 11  1  0
 11 12  2  0
 10 13  1  0
 13 14  2  0
 13 15  1  0
 15 16  1  0
 16 17  2  0
 17 18  1  0
 18 19  1  0
 19 20  1  0
 20 21  2  0
 21 22  1  0
 22 23  2  0
 23 24  1  0
 24 25  2  0
 24 26  1  0
 26 27  2  0
 27 28  1  0
 28 29  2  0
 29 30  1  0
 30 31  2  0
 18 32  2  0
 32 33  1  0
 32 34  1  0
 34 35  2  0
  5 36  1  0
 36 37  1  0
 37  2  1  0
 12  7  1  0
 35 16  1  0
 25 20  1  0
 31 26  1  0
  1 38  1  0
  1 39  1  0
  1 40  1  0
  3 41  1  0
  3 42  1  0
  4 43  1  0
  4 44  1  0
  6 45  1  0
  6 46  1  0
  8 47  1  0
  9 48  1  0
 11 49  1  0
 12 50  1  0
 15 51  1  0
 17 52  1  0
 19 53  1  0
 22 54  1  0
 23 55  1  0
 27 56  1  0
 29 57  1  0
 30 58  1  0
 31 59  1  0
 33 60  1  0
 33 61  1  0
 33 62  1  0
 34 63  1  0
 35 64  1  0
 36 65  1  0
 36 66  1  0
 37 67  1  0
 37 68  1  0
M  END
$$$$
