
     RDKit          3D

 50 52  0  0  0  0  0  0  0  0999 V2000
   -3.1204   -0.1058    2.3898 C   0  0  0  0  0  0  0  0  0  0  0  0
   -1.7937   -0.4137    2.3456 O   0  0  0  0  0  0  0  0  0  0  0  0
   -1.2207   -0.6124    1.1245 C   0  0  0  0  0  0  0  0  0  0  0  0
    0.2276   -0.9905    1.3758 C   0  0  2  0  0  0  0  0  0  0  0  0
    0.9372   -1.2313    0.1768 O   0  0  0  0  0  0  0  0  0  0  0  0
    1.9372   -0.3362   -0.1728 C   0  0  0  0  0  0  0  0  0  0  0  0
    2.6010   -0.6002   -1.3335 N   0  0  0  0  0  0  0  0  0  0  0  0
    3.5918    0.1689   -1.8077 C   0  0  0  0  0  0  0  0  0  0  0  0
    4.2634   -0.1966   -3.0876 C   0  0  0  0  0  0  0  0  0  0  0  0
    3.9839    1.3010   -1.1001 C   0  0  0  0  0  0  0  0  0  0  0  0
    3.3171    1.5649    0.0647 C   0  0  0  0  0  0  0  0  0  0  0  0
    3.6973    2.7628    0.8586 C   0  0  0  0  0  0  0  0  0  0  0  0
    2.3266    0.7759    0.5169 N   0  0  0  0  0  0  0  0  0  0  0  0
    0.4138   -2.0090    2.4101 C   0  0  0  0  0  0  0  0  0  0  0  0
   -0.2702   -1.8082    3.5955 O   0  0  0  0  0  0  0  0  0  0  0  0
    1.1523   -3.0455    2.2846 O   0  0  0  0  0  0  0  0  0  0  0  0
   -1.1171    0.7419    0.4529 C   0  0  0  0  0  0  0  0  0  0  0  0
   -1.1157    1.9399    1.1294 C   0  0  0  0  0  0  0  0  0  0  0  0
   -1.0254    3.1384    0.4567 C   0  0  0  0  0  0  0  0  0  0  0  0
   -0.9348    3.1464   -0.9092 C   0  0  0  0  0  0  0  0  0  0  0  0
   -0.9308    1.9921   -1.6389 C   0  0  0  0  0  0  0  0  0  0  0  0
   -1.0226    0.8072   -0.9381 C   0  0  0  0  0  0  0  0  0  0  0  0
   -1.9252   -1.4669    0.1831 C   0  0  0  0  0  0  0  0  0  0  0  0
   -3.0917   -1.0121   -0.3958 C   0  0  0  0  0  0  0  0  0  0  0  0
   -3.8143   -1.7829   -1.2988 C   0  0  0  0  0  0  0  0  0  0  0  0
   -3.3734   -3.0608   -1.6522 C   0  0  0  0  0  0  0  0  0  0  0  0
   -2.2119   -3.5492   -1.0946 C   0  0  0  0  0  0  0  0  0  0  0  0
   -1.5512   -2.7287   -0.2090 C   0  0  0  0  0  0  0  0  0  0  0  0
   -3.7841   -0.8884    1.9648 H   0  0  0  0  0  0  0  0  0  0  0  0
   -3.4250   -0.0145    3.4540 H   0  0  0  0  0  0  0  0  0  0  0  0
   -3.2918    0.8837    1.9365 H   0  0  0  0  0  0  0  0  0  0  0  0
    0.7058   -0.0520    1.7901 H   0  0  0  0  0  0  0  0  0  0  0  0
    4.7458   -1.1880   -2.9493 H   0  0  0  0  0  0  0  0  0  0  0  0
    5.0752    0.5209   -3.2921 H   0  0  0  0  0  0  0  0  0  0  0  0
    3.5400   -0.2729   -3.9249 H   0  0  0  0  0  0  0  0  0  0  0  0
    4.7798    1.9195   -1.4804 H   0  0  0  0  0  0  0  0  0  0  0  0
    3.7786    3.6711    0.2391 H   0  0  0  0  0  0  0  0  0  0  0  0
    3.0490    2.8993    1.7436 H   0  0  0  0  0  0  0  0  0  0  0  0
    4.7249    2.5958    1.2760 H   0  0  0  0  0  0  0  0  0  0  0  0
   -0.1603   -2.5369    4.3137 H   0  0  0  0  0  0  0  0  0  0  0  0
   -1.1820    1.9276    2.2082 H   0  0  0  0  0  0  0  0  0  0  0  0
   -1.0278    4.0575    1.0274 H   0  0  0  0  0  0  0  0  0  0  0  0
   -0.8658    4.1157   -1.3916 H   0  0  0  0  0  0  0  0  0  0  0  0
   -0.8599    1.9837   -2.7156 H   0  0  0  0  0  0  0  0  0  0  0  0
   -1.0177   -0.1007   -1.5369 H   0  0  0  0  0  0  0  0  0  0  0  0
   -3.5610   -0.0723   -0.2452 H   0  0  0  0  0  0  0  0  0  0  0  0
   -4.7319   -1.4907   -1.7880 H   0  0  0  0  0  0  0  0  0  0  0  0
   -3.9192   -3.6786   -2.3526 H   0  0  0  0  0  0  0  0  0  0  0  0
   -1.8606   -4.5272   -1.3560 H   0  0  0  0  0  0  0  0  0  0  0  0
   -0.6419   -3.1421    0.2111 H   0  0  0  0  0  0  0  0  0  0  0  0
  1  2  1  0
  2  3  1  0
  3  4  1  0
  4  5  1  0
  5  6  1  0
  6  7  2  0
  7  8  1  0
  8  9  1  0
  8 10  2  0
 10 11  1  0
 11 12  1  0
 11 13  2  0
  4 14  1  0
 14 15  1  0
 14 16  2  0
  3 17  1  0
 17 18  2  0
 18 19  1  0
 19 20  2  0
 20 21  1  0
 21 22  2  0
  3 23  1  0
 23 24  2  0
 24 25  1  0
 25 26  2  0
 26 27  1  0
 27 28  2  0
 13  6  1  0
 22 17  1  0
 28 23  1  0
  1 29  1  0
  1 30  1  0
  1 31  1  0
  4 32  1  1
  9 33  1  0
  9 34  1  0
  9 35  1  0
 10 36  1  0
 12 37  1  0
 12 38  1  0
 12 39  1  0
 15 40  1  0
 18 41  1  0
 19 42  1  0
 20 43  1  0
 21 44  1  0
 22 45  1  0
 24 46  1  0
 25 47  1  0
 26 48  1  0
 27 49  1  0
 28 50  1  0
M  END
$$$$
