
     RDKit          3D

 61 65  0  0  0  0  0  0  0  0999 V2000
   -3.9378   -4.2980   -0.2296 C   0  0  0  0  0  0  0  0  0  0  0  0
   -3.1601   -3.3229    0.6350 C   0  0  0  0  0  0  0  0  0  0  0  0
   -3.5657   -1.9315    0.4117 C   0  0  0  0  0  0  0  0  0  0  0  0
   -4.5468   -1.3113    1.1018 N   0  0  0  0  0  0  0  0  0  0  0  0
   -4.6876   -0.0513    0.6662 C   0  0  0  0  0  0  0  0  0  0  0  0
   -5.5405    0.9602    1.0504 C   0  0  0  0  0  0  0  0  0  0  0  0
   -6.5395    0.7639    2.1309 C   0  0  0  0  0  0  0  0  0  0  0  0
   -5.4490    2.1729    0.4059 C   0  0  0  0  0  0  0  0  0  0  0  0
   -4.5072    2.3265   -0.5984 C   0  0  0  0  0  0  0  0  0  0  0  0
   -4.4252    3.6499   -1.2840 C   0  0  0  0  0  0  0  0  0  0  0  0
   -3.7015    1.3077   -0.9323 N   0  0  0  0  0  0  0  0  0  0  0  0
   -3.7508    0.1034   -0.3337 C   0  0  0  0  0  0  0  0  0  0  0  0
   -3.0578   -1.0683   -0.4860 N   0  0  0  0  0  0  0  0  0  0  0  0
   -2.0221   -1.2160   -1.4558 C   0  0  0  0  0  0  0  0  0  0  0  0
   -0.6694   -0.8378   -0.9814 C   0  0  0  0  0  0  0  0  0  0  0  0
    0.2167   -1.7641   -0.4859 C   0  0  0  0  0  0  0  0  0  0  0  0
    1.4824   -1.4192   -0.0350 C   0  0  0  0  0  0  0  0  0  0  0  0
    1.8832   -0.1020   -0.0783 C   0  0  0  0  0  0  0  0  0  0  0  0
    1.0314    0.8479   -0.5639 C   0  0  0  0  0  0  0  0  0  0  0  0
   -0.2290    0.4842   -1.0098 C   0  0  0  0  0  0  0  0  0  0  0  0
    1.6940    2.1780   -0.5047 C   0  0  0  0  0  0  0  0  0  0  0  0
    3.1648    1.8629   -0.3344 C   0  0  0  0  0  0  0  0  0  0  0  0
    3.0989    0.5637    0.3029 N   0  0  0  0  0  0  0  0  0  0  0  0
    4.0913   -0.0294    1.2064 C   0  0  0  0  0  0  0  0  0  0  0  0
    4.2881    0.7871    2.3990 C   0  0  0  0  0  0  0  0  0  0  0  0
    4.9997    0.4249    3.3660 O   0  0  0  0  0  0  0  0  0  0  0  0
    3.6853    2.0462    2.5407 O   0  0  0  0  0  0  0  0  0  0  0  0
    5.3375   -0.1714    0.4279 C   0  0  0  0  0  0  0  0  0  0  0  0
    5.2568   -0.7384   -0.8523 C   0  0  0  0  0  0  0  0  0  0  0  0
    6.3854   -0.8861   -1.6132 C   0  0  0  0  0  0  0  0  0  0  0  0
    7.6224   -0.4886   -1.1543 C   0  0  0  0  0  0  0  0  0  0  0  0
    7.7190    0.0649    0.0887 C   0  0  0  0  0  0  0  0  0  0  0  0
    6.5653    0.2196    0.8748 C   0  0  0  0  0  0  0  0  0  0  0  0
   -3.7325   -5.3135    0.2020 H   0  0  0  0  0  0  0  0  0  0  0  0
   -3.6130   -4.3198   -1.2667 H   0  0  0  0  0  0  0  0  0  0  0  0
   -5.0190   -4.1527   -0.1823 H   0  0  0  0  0  0  0  0  0  0  0  0
   -3.3926   -3.6495    1.6962 H   0  0  0  0  0  0  0  0  0  0  0  0
   -2.1041   -3.5482    0.5043 H   0  0  0  0  0  0  0  0  0  0  0  0
   -7.4206    1.3967    1.9039 H   0  0  0  0  0  0  0  0  0  0  0  0
   -6.8218   -0.3049    2.2342 H   0  0  0  0  0  0  0  0  0  0  0  0
   -6.0935    1.1797    3.0638 H   0  0  0  0  0  0  0  0  0  0  0  0
   -6.1066    3.0073    0.6772 H   0  0  0  0  0  0  0  0  0  0  0  0
   -4.2546    3.4720   -2.3659 H   0  0  0  0  0  0  0  0  0  0  0  0
   -5.3842    4.1896   -1.2031 H   0  0  0  0  0  0  0  0  0  0  0  0
   -3.6451    4.2991   -0.8407 H   0  0  0  0  0  0  0  0  0  0  0  0
   -2.2665   -0.5720   -2.3521 H   0  0  0  0  0  0  0  0  0  0  0  0
   -1.9639   -2.2446   -1.8868 H   0  0  0  0  0  0  0  0  0  0  0  0
   -0.0633   -2.8088   -0.4412 H   0  0  0  0  0  0  0  0  0  0  0  0
    2.1604   -2.1629    0.3497 H   0  0  0  0  0  0  0  0  0  0  0  0
   -0.9323    1.2083   -1.4015 H   0  0  0  0  0  0  0  0  0  0  0  0
    1.4887    2.7984   -1.3952 H   0  0  0  0  0  0  0  0  0  0  0  0
    1.3266    2.6881    0.4025 H   0  0  0  0  0  0  0  0  0  0  0  0
    3.6927    2.6171    0.2656 H   0  0  0  0  0  0  0  0  0  0  0  0
    3.6499    1.7144   -1.3412 H   0  0  0  0  0  0  0  0  0  0  0  0
    3.7765   -1.0493    1.4998 H   0  0  0  0  0  0  0  0  0  0  0  0
    3.4932    2.3823    3.4820 H   0  0  0  0  0  0  0  0  0  0  0  0
    4.2857   -1.0635   -1.2426 H   0  0  0  0  0  0  0  0  0  0  0  0
    6.3248   -1.3207   -2.5949 H   0  0  0  0  0  0  0  0  0  0  0  0
    8.5150   -0.6154   -1.7792 H   0  0  0  0  0  0  0  0  0  0  0  0
    8.6931    0.3839    0.4638 H   0  0  0  0  0  0  0  0  0  0  0  0
    6.6747    0.6608    1.8453 H   0  0  0  0  0  0  0  0  0  0  0  0
  1  2  1  0
  2  3  1  0
  3  4  2  0
  4  5  1  0
  5  6  2  0
  6  7  1  0
  6  8  1  0
  8  9  2  0
  9 10  1  0
  9 11  1  0
 11 12  2  0
 12 13  1  0
 13 14  1  0
 14 15  1  0
 15 16  2  0
 16 17  1  0
 17 18  2  0
 18 19  1  0
 19 20  2  0
 19 21  1  0
 21 22  1  0
 22 23  1  0
 23 24  1  0
 24 25  1  0
 25 26  2  0
 25 27  1  0
 24 28  1  0
 28 29  2  0
 29 30  1  0
 30 31  2  0
 31 32  1  0
 32 33  2  0
 13  3  1  0
 20 15  1  0
 33 28  1  0
 12  5  1  0
 23 18  1  0
  1 34  1  0
  1 35  1  0
  1 36  1  0
  2 37  1  0
  2 38  1  0
  7 39  1  0
  7 40  1  0
  7 41  1  0
  8 42  1  0
 10 43  1  0
 10 44  1  0
 10 45  1  0
 14 46  1  0
 14 47  1  0
 16 48  1  0
 17 49  1  0
 20 50  1  0
 21 51  1  0
 21 52  1  0
 22 53  1  0
 22 54  1  0
 24 55  1  0
 27 56  1  0
 29 57  1  0
 30 58  1  0
 31 59  1  0
 32 60  1  0
 33 61  1  0
M  END
$$$$
