
     RDKit          3D

 65 70  0  0  0  0  0  0  0  0999 V2000
   -0.1010   -1.7042    0.9197 C   0  0  0  0  0  0  0  0  0  0  0  0
   -1.2753   -0.9577    0.5500 N   0  0  0  0  0  0  0  0  0  0  0  0
   -2.5354   -1.4247    0.8024 C   0  0  0  0  0  0  0  0  0  0  0  0
   -2.9927   -2.5719    1.3931 C   0  0  0  0  0  0  0  0  0  0  0  0
   -4.3485   -2.7736    1.4956 C   0  0  0  0  0  0  0  0  0  0  0  0
   -5.1921   -1.8495    1.0189 N   0  0  0  0  0  0  0  0  0  0  0  0
   -4.8026   -0.6990    0.4274 C   0  0  0  0  0  0  0  0  0  0  0  0
   -5.6943    0.2552   -0.0680 N   0  0  0  0  0  0  0  0  0  0  0  0
   -5.8732    1.5942    0.4381 C   0  0  0  0  0  0  0  0  0  0  0  0
   -7.2841    1.6547    1.0005 C   0  0  0  0  0  0  0  0  0  0  0  0
   -8.1442    0.7669    0.3628 O   0  0  0  0  0  0  0  0  0  0  0  0
   -7.8727    0.5977   -0.9873 C   0  0  0  0  0  0  0  0  0  0  0  0
   -6.5426   -0.1008   -1.2060 C   0  0  0  0  0  0  0  0  0  0  0  0
   -3.4419   -0.5084    0.3310 C   0  0  0  0  0  0  0  0  0  0  0  0
   -2.6972    0.5190   -0.2092 C   0  0  0  0  0  0  0  0  0  0  0  0
   -3.1230    1.6447   -0.8008 N   0  0  0  0  0  0  0  0  0  0  0  0
   -2.1868    2.4887   -1.2566 C   0  0  0  0  0  0  0  0  0  0  0  0
   -0.8802    2.2334   -1.1345 N   0  0  0  0  0  0  0  0  0  0  0  0
   -0.4063    1.0848   -0.5310 C   0  0  0  0  0  0  0  0  0  0  0  0
    0.9840    0.8985   -0.4608 N   0  0  0  0  0  0  0  0  0  0  0  0
    1.8397    0.9353    0.6883 C   0  0  0  0  0  0  0  0  0  0  0  0
    3.2309    0.4805    0.2495 C   0  0  0  0  0  0  0  0  0  0  0  0
    3.1833   -0.6736   -0.5457 N   0  0  0  0  0  0  0  0  0  0  0  0
    4.0562   -1.7326   -0.3949 C   0  0  0  0  0  0  0  0  0  0  0  0
    5.4847   -1.6154   -0.7577 C   0  0  0  0  0  0  0  0  0  0  0  0
    6.2945   -0.6233   -0.0631 C   0  0  0  0  0  0  0  0  0  0  0  0
    6.4416    0.6461   -0.5635 C   0  0  0  0  0  0  0  0  0  0  0  0
    7.1944    1.6207    0.0294 C   0  0  0  0  0  0  0  0  0  0  0  0
    7.8593    1.3467    1.2005 C   0  0  0  0  0  0  0  0  0  0  0  0
    8.6229    2.3095    1.8134 F   0  0  0  0  0  0  0  0  0  0  0  0
    7.7417    0.0885    1.7393 C   0  0  0  0  0  0  0  0  0  0  0  0
    8.4042   -0.1643    2.8909 F   0  0  0  0  0  0  0  0  0  0  0  0
    6.9790   -0.8721    1.1237 C   0  0  0  0  0  0  0  0  0  0  0  0
    2.4252   -0.5457   -1.7545 C   0  0  0  0  0  0  0  0  0  0  0  0
    1.6410    0.7070   -1.7672 C   0  0  0  0  0  0  0  0  0  0  0  0
   -1.3367    0.2128   -0.0593 C   0  0  0  0  0  0  0  0  0  0  0  0
    0.7386   -1.6394    0.2526 H   0  0  0  0  0  0  0  0  0  0  0  0
    0.1785   -1.4029    1.9674 H   0  0  0  0  0  0  0  0  0  0  0  0
   -0.3452   -2.8151    0.9812 H   0  0  0  0  0  0  0  0  0  0  0  0
   -2.2690   -3.2917    1.7656 H   0  0  0  0  0  0  0  0  0  0  0  0
   -4.7628   -3.6600    1.9526 H   0  0  0  0  0  0  0  0  0  0  0  0
   -5.1782    1.8668    1.2545 H   0  0  0  0  0  0  0  0  0  0  0  0
   -5.7599    2.3705   -0.3705 H   0  0  0  0  0  0  0  0  0  0  0  0
   -7.2148    1.3307    2.0578 H   0  0  0  0  0  0  0  0  0  0  0  0
   -7.6381    2.7018    0.9682 H   0  0  0  0  0  0  0  0  0  0  0  0
   -7.9339    1.5483   -1.5523 H   0  0  0  0  0  0  0  0  0  0  0  0
   -8.6600   -0.0615   -1.4009 H   0  0  0  0  0  0  0  0  0  0  0  0
   -6.7371   -1.1818   -1.2537 H   0  0  0  0  0  0  0  0  0  0  0  0
   -6.1128    0.2481   -2.1571 H   0  0  0  0  0  0  0  0  0  0  0  0
   -2.5056    3.3980   -1.7361 H   0  0  0  0  0  0  0  0  0  0  0  0
    2.0169    2.0417    0.9540 H   0  0  0  0  0  0  0  0  0  0  0  0
    1.4893    0.5032    1.6054 H   0  0  0  0  0  0  0  0  0  0  0  0
    3.8156    0.3083    1.1630 H   0  0  0  0  0  0  0  0  0  0  0  0
    3.7104    1.3074   -0.3198 H   0  0  0  0  0  0  0  0  0  0  0  0
    3.6594   -2.6218   -0.9642 H   0  0  0  0  0  0  0  0  0  0  0  0
    4.0167   -2.0905    0.6714 H   0  0  0  0  0  0  0  0  0  0  0  0
    5.9474   -2.6271   -0.5120 H   0  0  0  0  0  0  0  0  0  0  0  0
    5.6355   -1.5753   -1.8827 H   0  0  0  0  0  0  0  0  0  0  0  0
    5.9378    0.9399   -1.4987 H   0  0  0  0  0  0  0  0  0  0  0  0
    7.2944    2.6249   -0.3920 H   0  0  0  0  0  0  0  0  0  0  0  0
    6.8942   -1.8783    1.5646 H   0  0  0  0  0  0  0  0  0  0  0  0
    1.7504   -1.4148   -1.8642 H   0  0  0  0  0  0  0  0  0  0  0  0
    3.0652   -0.5609   -2.6660 H   0  0  0  0  0  0  0  0  0  0  0  0
    0.9369    0.8020   -2.6123 H   0  0  0  0  0  0  0  0  0  0  0  0
    2.3788    1.5617   -1.8346 H   0  0  0  0  0  0  0  0  0  0  0  0
  1  2  1  0
  2  3  1  0
  3  4  2  0
  4  5  1  0
  5  6  2  0
  6  7  1  0
  7  8  1  0
  8  9  1  0
  9 10  1  0
 10 11  1  0
 11 12  1  0
 12 13  1  0
  7 14  2  0
 14 15  1  0
 15 16  2  0
 16 17  1  0
 17 18  2  0
 18 19  1  0
 19 20  1  0
 20 21  1  0
 21 22  1  0
 22 23  1  0
 23 24  1  0
 24 25  1  0
 25 26  1  0
 26 27  2  0
 27 28  1  0
 28 29  2  0
 29 30  1  0
 29 31  1  0
 31 32  1  0
 31 33  2  0
 23 34  1  0
 34 35  1  0
 19 36  2  0
 36  2  1  0
 14  3  1  0
 36 15  1  0
 13  8  1  0
 35 20  1  0
 33 26  1  0
  1 37  1  0
  1 38  1  0
  1 39  1  0
  4 40  1  0
  5 41  1  0
  9 42  1  0
  9 43  1  0
 10 44  1  0
 10 45  1  0
 12 46  1  0
 12 47  1  0
 13 48  1  0
 13 49  1  0
 17 50  1  0
 21 51  1  0
 21 52  1  0
 22 53  1  0
 22 54  1  0
 24 55  1  0
 24 56  1  0
 25 57  1  0
 25 58  1  0
 27 59  1  0
 28 60  1  0
 33 61  1  0
 34 62  1  0
 34 63  1  0
 35 64  1  0
 35 65  1  0
M  END
$$$$
