
     RDKit          3D

 86 91  0  0  0  0  0  0  0  0999 V2000
   -8.2498   -2.2518    4.5022 C   0  0  0  0  0  0  0  0  0  0  0  0
   -8.2371   -1.8115    3.1766 O   0  0  0  0  0  0  0  0  0  0  0  0
   -7.1928   -1.0934    2.6296 C   0  0  0  0  0  0  0  0  0  0  0  0
   -6.0804   -0.7681    3.3921 C   0  0  0  0  0  0  0  0  0  0  0  0
   -5.0189   -0.0558    2.8897 C   0  0  0  0  0  0  0  0  0  0  0  0
   -5.0192    0.3732    1.5752 C   0  0  0  0  0  0  0  0  0  0  0  0
   -6.1157    0.0522    0.8232 C   0  0  0  0  0  0  0  0  0  0  0  0
   -7.1839   -0.6597    1.3155 C   0  0  0  0  0  0  0  0  0  0  0  0
   -8.1408   -0.8300    0.3284 O   0  0  0  0  0  0  0  0  0  0  0  0
   -7.4895   -0.6094   -0.9335 C   0  0  1  0  0  0  0  0  0  0  0  0
   -8.5325   -0.1030   -1.8832 C   0  0  0  0  0  0  0  0  0  0  0  0
   -8.0627    1.0343   -2.7698 C   0  0  1  0  0  0  0  0  0  0  0  0
   -9.1945    1.5692   -3.3786 O   0  0  0  0  0  0  0  0  0  0  0  0
   -7.5181    2.0915   -1.8436 C   0  0  0  0  0  0  0  0  0  0  0  0
   -6.7435    1.7600   -0.8242 C   0  0  0  0  0  0  0  0  0  0  0  0
   -6.4114    0.3522   -0.5951 C   0  0  1  0  0  0  0  0  0  0  0  0
   -5.1486   -0.0615   -1.3597 C   0  0  0  0  0  0  0  0  0  0  0  0
   -3.9991    0.8547   -1.1510 C   0  0  0  0  0  0  0  0  0  0  0  0
   -3.2202    0.6579    0.0078 N   0  0  0  0  0  0  0  0  0  0  0  0
   -2.4249   -0.5040    0.1021 C   0  0  0  0  0  0  0  0  0  0  0  0
   -1.2726   -0.5237   -0.8773 C   0  0  0  0  0  0  0  0  0  0  0  0
   -0.3567    0.6751   -0.6419 C   0  0  0  0  0  0  0  0  0  0  0  0
    0.7958    0.6781   -1.5876 C   0  0  0  0  0  0  0  0  0  0  0  0
    1.6605    1.8951   -1.3555 C   0  0  0  0  0  0  0  0  0  0  0  0
    2.1936    1.8967    0.0497 C   0  0  0  0  0  0  0  0  0  0  0  0
    2.9379    0.8194    0.4131 O   0  0  0  0  0  0  0  0  0  0  0  0
    4.1454    0.3964   -0.0589 C   0  0  0  0  0  0  0  0  0  0  0  0
    4.8777    1.0284   -1.0072 C   0  0  0  0  0  0  0  0  0  0  0  0
    6.1086    0.5294   -1.4449 C   0  0  0  0  0  0  0  0  0  0  0  0
    6.6429   -0.6342   -0.9322 C   0  0  0  0  0  0  0  0  0  0  0  0
    7.9569   -1.1263   -1.4302 C   0  0  0  0  0  0  0  0  0  0  0  0
    8.9715   -0.5428   -0.6150 N   0  0  0  0  0  0  0  0  0  0  0  0
    8.8972   -0.8774    0.7774 C   0  0  0  0  0  0  0  0  0  0  0  0
    9.9835   -0.2024    1.5792 C   0  0  0  0  0  0  0  0  0  0  0  0
   11.3060   -0.7413    1.1643 C   0  0  0  0  0  0  0  0  0  0  0  0
   11.3138   -1.1773   -0.2557 C   0  0  0  0  0  0  0  0  0  0  0  0
   10.2941   -0.5579   -1.1458 C   0  0  0  0  0  0  0  0  0  0  0  0
    5.8961   -1.2714    0.0309 C   0  0  0  0  0  0  0  0  0  0  0  0
    4.6886   -0.7939    0.4685 C   0  0  0  0  0  0  0  0  0  0  0  0
   -3.7701    1.1382    1.2271 C   0  0  0  0  0  0  0  0  0  0  0  0
   -7.2971   -2.7909    4.7185 H   0  0  0  0  0  0  0  0  0  0  0  0
   -8.4059   -1.4152    5.2089 H   0  0  0  0  0  0  0  0  0  0  0  0
   -9.0914   -2.9706    4.6984 H   0  0  0  0  0  0  0  0  0  0  0  0
   -6.0711   -1.1037    4.4319 H   0  0  0  0  0  0  0  0  0  0  0  0
   -4.1697    0.1833    3.4992 H   0  0  0  0  0  0  0  0  0  0  0  0
   -7.0580   -1.5889   -1.2869 H   0  0  0  0  0  0  0  0  0  0  0  0
   -9.4028    0.2618   -1.2938 H   0  0  0  0  0  0  0  0  0  0  0  0
   -8.9128   -0.9582   -2.4865 H   0  0  0  0  0  0  0  0  0  0  0  0
   -7.3373    0.7432   -3.5263 H   0  0  0  0  0  0  0  0  0  0  0  0
   -9.9951    1.4696   -2.7989 H   0  0  0  0  0  0  0  0  0  0  0  0
   -7.7760    3.1124   -2.0379 H   0  0  0  0  0  0  0  0  0  0  0  0
   -6.3385    2.5268   -0.1360 H   0  0  0  0  0  0  0  0  0  0  0  0
   -4.9471   -1.1038   -1.0395 H   0  0  0  0  0  0  0  0  0  0  0  0
   -5.3809   -0.1356   -2.4620 H   0  0  0  0  0  0  0  0  0  0  0  0
   -4.3263    1.9107   -1.1960 H   0  0  0  0  0  0  0  0  0  0  0  0
   -3.3185    0.7302   -2.0448 H   0  0  0  0  0  0  0  0  0  0  0  0
   -2.9653   -1.4616   -0.0211 H   0  0  0  0  0  0  0  0  0  0  0  0
   -1.9799   -0.5364    1.1268 H   0  0  0  0  0  0  0  0  0  0  0  0
   -0.6558   -1.4380   -0.7601 H   0  0  0  0  0  0  0  0  0  0  0  0
   -1.6293   -0.5070   -1.9288 H   0  0  0  0  0  0  0  0  0  0  0  0
   -0.0054    0.5938    0.4160 H   0  0  0  0  0  0  0  0  0  0  0  0
   -0.9142    1.6241   -0.7575 H   0  0  0  0  0  0  0  0  0  0  0  0
    1.4102   -0.2564   -1.5030 H   0  0  0  0  0  0  0  0  0  0  0  0
    0.4070    0.7643   -2.6448 H   0  0  0  0  0  0  0  0  0  0  0  0
    1.0114    2.8344   -1.4210 H   0  0  0  0  0  0  0  0  0  0  0  0
    2.4181    1.9316   -2.1443 H   0  0  0  0  0  0  0  0  0  0  0  0
    1.3086    1.9851    0.7418 H   0  0  0  0  0  0  0  0  0  0  0  0
    2.8151    2.8505    0.1999 H   0  0  0  0  0  0  0  0  0  0  0  0
    4.5213    1.9612   -1.4289 H   0  0  0  0  0  0  0  0  0  0  0  0
    6.6593    1.0657   -2.2050 H   0  0  0  0  0  0  0  0  0  0  0  0
    7.9368   -2.2422   -1.2545 H   0  0  0  0  0  0  0  0  0  0  0  0
    8.0773   -0.9125   -2.4996 H   0  0  0  0  0  0  0  0  0  0  0  0
    8.9719   -1.9625    0.9859 H   0  0  0  0  0  0  0  0  0  0  0  0
    7.9330   -0.5110    1.1808 H   0  0  0  0  0  0  0  0  0  0  0  0
    9.9481    0.9063    1.4765 H   0  0  0  0  0  0  0  0  0  0  0  0
    9.8229   -0.4566    2.6473 H   0  0  0  0  0  0  0  0  0  0  0  0
   11.5774   -1.5999    1.8223 H   0  0  0  0  0  0  0  0  0  0  0  0
   12.0827    0.0528    1.3620 H   0  0  0  0  0  0  0  0  0  0  0  0
   11.3163   -2.2968   -0.3054 H   0  0  0  0  0  0  0  0  0  0  0  0
   12.3227   -0.8891   -0.6782 H   0  0  0  0  0  0  0  0  0  0  0  0
   10.2631   -1.1754   -2.0839 H   0  0  0  0  0  0  0  0  0  0  0  0
   10.5990    0.4579   -1.4714 H   0  0  0  0  0  0  0  0  0  0  0  0
    6.2858   -2.1870    0.4554 H   0  0  0  0  0  0  0  0  0  0  0  0
    4.1069   -1.2932    1.2208 H   0  0  0  0  0  0  0  0  0  0  0  0
   -4.0403    2.2009    1.0907 H   0  0  0  0  0  0  0  0  0  0  0  0
   -3.0632    1.0209    2.0466 H   0  0  0  0  0  0  0  0  0  0  0  0
  1  2  1  0
  2  3  1  0
  3  4  2  0
  4  5  1  0
  5  6  2  0
  6  7  1  0
  7  8  2  0
  8  9  1  0
  9 10  1  0
 10 11  1  0
 11 12  1  0
 12 13  1  0
 12 14  1  0
 14 15  2  0
 15 16  1  0
 16 17  1  6
 17 18  1  0
 18 19  1  0
 19 20  1  0
 20 21  1  0
 21 22  1  0
 22 23  1  0
 23 24  1  0
 24 25  1  0
 25 26  1  0
 26 27  1  0
 27 28  2  0
 28 29  1  0
 29 30  2  0
 30 31  1  0
 31 32  1  0
 32 33  1  0
 33 34  1  0
 34 35  1  0
 35 36  1  0
 36 37  1  0
 30 38  1  0
 38 39  2  0
 19 40  1  0
  8  3  1  0
 16 10  1  0
 39 27  1  0
 40  6  1  0
 16  7  1  0
 37 32  1  0
  1 41  1  0
  1 42  1  0
  1 43  1  0
  4 44  1  0
  5 45  1  0
 10 46  1  6
 11 47  1  0
 11 48  1  0
 12 49  1  6
 13 50  1  0
 14 51  1  0
 15 52  1  0
 17 53  1  0
 17 54  1  0
 18 55  1  0
 18 56  1  0
 20 57  1  0
 20 58  1  0
 21 59  1  0
 21 60  1  0
 22 61  1  0
 22 62  1  0
 23 63  1  0
 23 64  1  0
 24 65  1  0
 24 66  1  0
 25 67  1  0
 25 68  1  0
 28 69  1  0
 29 70  1  0
 31 71  1  0
 31 72  1  0
 33 73  1  0
 33 74  1  0
 34 75  1  0
 34 76  1  0
 35 77  1  0
 35 78  1  0
 36 79  1  0
 36 80  1  0
 37 81  1  0
 37 82  1  0
 38 83  1  0
 39 84  1  0
 40 85  1  0
 40 86  1  0
M  END
$$$$
