
     RDKit          3D

 64 69  0  0  0  0  0  0  0  0999 V2000
   -2.4018   -3.6335   -0.4546 C   0  0  0  0  0  0  0  0  0  0  0  0
   -1.7998   -2.3474    0.1157 C   0  0  2  0  0  0  0  0  0  0  0  0
   -2.7207   -1.2943   -0.1499 N   0  0  0  0  0  0  0  0  0  0  0  0
   -3.4782   -0.5839    0.8335 C   0  0  0  0  0  0  0  0  0  0  0  0
   -3.3034   -0.9277    2.0188 O   0  0  0  0  0  0  0  0  0  0  0  0
   -4.4030    0.4890    0.4406 C   0  0  0  0  0  0  0  0  0  0  0  0
   -5.1378    1.3005    1.2735 C   0  0  0  0  0  0  0  0  0  0  0  0
   -5.1333    1.2787    2.7014 N   0  0  0  0  0  0  0  0  0  0  0  0
   -5.8638    2.1370    0.4811 N   0  0  0  0  0  0  0  0  0  0  0  0
   -5.6077    1.8751   -0.7878 N   0  0  0  0  0  0  0  0  0  0  0  0
   -6.1091    2.4632   -1.8965 C   0  0  0  0  0  0  0  0  0  0  0  0
   -5.7182    2.0459   -3.1420 C   0  0  0  0  0  0  0  0  0  0  0  0
   -4.7955    1.0059   -3.2231 C   0  0  0  0  0  0  0  0  0  0  0  0
   -4.3433    0.4724   -2.0813 N   0  0  0  0  0  0  0  0  0  0  0  0
   -4.7079    0.8610   -0.8481 C   0  0  0  0  0  0  0  0  0  0  0  0
   -0.4179   -2.1520   -0.2775 C   0  0  0  0  0  0  0  0  0  0  0  0
    0.1729   -2.9866   -1.1984 C   0  0  0  0  0  0  0  0  0  0  0  0
    1.4700   -2.9021   -1.6086 C   0  0  0  0  0  0  0  0  0  0  0  0
    2.0585   -3.7384   -2.5349 C   0  0  0  0  0  0  0  0  0  0  0  0
    3.3777   -3.6237   -2.9313 C   0  0  0  0  0  0  0  0  0  0  0  0
    4.1353   -2.6141   -2.3622 C   0  0  0  0  0  0  0  0  0  0  0  0
    3.5542   -1.7755   -1.4368 C   0  0  0  0  0  0  0  0  0  0  0  0
    4.3387   -0.7347   -0.8105 C   0  0  0  0  0  0  0  0  0  0  0  0
    5.0161    0.1327   -0.2739 C   0  0  0  0  0  0  0  0  0  0  0  0
    5.8234    1.1300    0.3606 C   0  0  0  0  0  0  0  0  0  0  0  0
    6.9160    0.9078    1.1819 C   0  0  0  0  0  0  0  0  0  0  0  0
    7.3551    2.1183    1.5439 N   0  0  0  0  0  0  0  0  0  0  0  0
    6.6009    3.0574    0.9970 N   0  0  0  0  0  0  0  0  0  0  0  0
    6.8162    4.4724    1.1973 C   0  0  0  0  0  0  0  0  0  0  0  0
    5.6429    2.4911    0.2576 C   0  0  0  0  0  0  0  0  0  0  0  0
    2.2364   -1.8880   -1.0408 C   0  0  0  0  0  0  0  0  0  0  0  0
    1.6449   -1.0672   -0.1311 C   0  0  0  0  0  0  0  0  0  0  0  0
    2.3594   -0.1409    0.3829 O   0  0  0  0  0  0  0  0  0  0  0  0
    0.3370   -1.1839    0.2559 N   0  0  0  0  0  0  0  0  0  0  0  0
   -0.1161   -0.2606    1.2212 C   0  0  0  0  0  0  0  0  0  0  0  0
   -0.5367    0.9880    0.8172 C   0  0  0  0  0  0  0  0  0  0  0  0
   -0.9783    1.9371    1.7044 C   0  0  0  0  0  0  0  0  0  0  0  0
   -1.0122    1.6535    3.0469 C   0  0  0  0  0  0  0  0  0  0  0  0
   -0.5934    0.3964    3.4970 C   0  0  0  0  0  0  0  0  0  0  0  0
   -0.1495   -0.5448    2.5649 C   0  0  0  0  0  0  0  0  0  0  0  0
   -2.4932   -3.5833   -1.5517 H   0  0  0  0  0  0  0  0  0  0  0  0
   -3.3796   -3.7549    0.0756 H   0  0  0  0  0  0  0  0  0  0  0  0
   -1.6966   -4.4537   -0.2105 H   0  0  0  0  0  0  0  0  0  0  0  0
   -1.8176   -2.4927    1.2406 H   0  0  0  0  0  0  0  0  0  0  0  0
   -2.8386   -1.0343   -1.1563 H   0  0  0  0  0  0  0  0  0  0  0  0
   -5.1034    0.4173    3.2795 H   0  0  0  0  0  0  0  0  0  0  0  0
   -5.1644    2.1951    3.1906 H   0  0  0  0  0  0  0  0  0  0  0  0
   -6.8353    3.2849   -1.8485 H   0  0  0  0  0  0  0  0  0  0  0  0
   -6.0771    2.4674   -4.0692 H   0  0  0  0  0  0  0  0  0  0  0  0
   -4.4590    0.6458   -4.1856 H   0  0  0  0  0  0  0  0  0  0  0  0
   -0.4302   -3.7902   -1.6536 H   0  0  0  0  0  0  0  0  0  0  0  0
    1.4434   -4.5262   -2.9738 H   0  0  0  0  0  0  0  0  0  0  0  0
    3.8342   -4.2896   -3.6634 H   0  0  0  0  0  0  0  0  0  0  0  0
    5.1925   -2.4949   -2.6538 H   0  0  0  0  0  0  0  0  0  0  0  0
    7.2985   -0.0671    1.4453 H   0  0  0  0  0  0  0  0  0  0  0  0
    7.9100    4.6340    1.2411 H   0  0  0  0  0  0  0  0  0  0  0  0
    6.3911    4.7405    2.1961 H   0  0  0  0  0  0  0  0  0  0  0  0
    6.3961    5.1014    0.3913 H   0  0  0  0  0  0  0  0  0  0  0  0
    4.9088    3.0542   -0.2869 H   0  0  0  0  0  0  0  0  0  0  0  0
   -0.5217    1.2471   -0.2397 H   0  0  0  0  0  0  0  0  0  0  0  0
   -1.3080    2.9234    1.3586 H   0  0  0  0  0  0  0  0  0  0  0  0
   -1.3520    2.3626    3.7966 H   0  0  0  0  0  0  0  0  0  0  0  0
   -0.5972    0.1175    4.5418 H   0  0  0  0  0  0  0  0  0  0  0  0
    0.1712   -1.5186    2.9361 H   0  0  0  0  0  0  0  0  0  0  0  0
  1  2  1  0
  2  3  1  0
  3  4  1  0
  4  5  2  0
  4  6  1  0
  6  7  1  0
  7  8  1  0
  7  9  2  0
  9 10  1  0
 10 11  1  0
 11 12  2  0
 12 13  1  0
 13 14  2  0
 14 15  1  0
  2 16  1  0
 16 17  2  0
 17 18  1  0
 18 19  2  0
 19 20  1  0
 20 21  2  0
 21 22  1  0
 22 23  1  0
 23 24  3  0
 24 25  1  0
 25 26  1  0
 26 27  2  0
 27 28  1  0
 28 29  1  0
 28 30  1  0
 22 31  2  0
 31 32  1  0
 32 33  2  0
 32 34  1  0
 34 35  1  0
 35 36  2  0
 36 37  1  0
 37 38  2  0
 38 39  1  0
 39 40  2  0
 15  6  2  0
 34 16  1  0
 40 35  1  0
 15 10  1  0
 31 18  1  0
 30 25  2  0
  1 41  1  0
  1 42  1  0
  1 43  1  0
  2 44  1  1
  3 45  1  0
  8 46  1  0
  8 47  1  0
 11 48  1  0
 12 49  1  0
 13 50  1  0
 17 51  1  0
 19 52  1  0
 20 53  1  0
 21 54  1  0
 26 55  1  0
 29 56  1  0
 29 57  1  0
 29 58  1  0
 30 59  1  0
 36 60  1  0
 37 61  1  0
 38 62  1  0
 39 63  1  0
 40 64  1  0
M  END
$$$$
