
     RDKit          3D

 31 32  0  0  0  0  0  0  0  0999 V2000
    4.8268    0.7491    1.1676 C   0  0  0  0  0  0  0  0  0  0  0  0
    4.3551   -0.5157    0.7688 O   0  0  0  0  0  0  0  0  0  0  0  0
    3.0395   -0.7627    0.4141 C   0  0  0  0  0  0  0  0  0  0  0  0
    2.6340   -0.5970   -0.8882 C   0  0  0  0  0  0  0  0  0  0  0  0
    4.0328    0.0509   -2.3368 I   0  0  0  0  0  0  0  0  0  0  0  0
    1.3188   -0.8506   -1.2175 C   0  0  0  0  0  0  0  0  0  0  0  0
    0.3656   -1.2712   -0.2877 C   0  0  0  0  0  0  0  0  0  0  0  0
   -0.9814   -1.5031   -0.8050 C   0  0  0  0  0  0  0  0  0  0  0  0
   -1.8687   -0.3569   -0.9040 C   0  0  0  0  0  0  0  0  0  0  0  0
   -2.1226    0.3342   -2.0786 C   0  0  0  0  0  0  0  0  0  0  0  0
   -2.9479    1.3806   -2.0343 N   0  0  0  0  0  0  0  0  0  0  0  0
   -3.5663    1.8302   -0.9240 C   0  0  0  0  0  0  0  0  0  0  0  0
   -4.4341    2.9488   -0.9221 N   0  0  0  0  0  0  0  0  0  0  0  0
   -3.3366    1.1786    0.2220 N   0  0  0  0  0  0  0  0  0  0  0  0
   -2.5023    0.1053    0.2248 C   0  0  0  0  0  0  0  0  0  0  0  0
   -2.3405   -0.5183    1.5109 N   0  0  0  0  0  0  0  0  0  0  0  0
    0.7994   -1.4268    1.0016 C   0  0  0  0  0  0  0  0  0  0  0  0
    2.1294   -1.1765    1.3637 C   0  0  0  0  0  0  0  0  0  0  0  0
    2.6586   -1.4553    3.3864 I   0  0  0  0  0  0  0  0  0  0  0  0
    4.7996    0.9477    2.2420 H   0  0  0  0  0  0  0  0  0  0  0  0
    5.8954    0.9106    0.8412 H   0  0  0  0  0  0  0  0  0  0  0  0
    4.2220    1.4861    0.5589 H   0  0  0  0  0  0  0  0  0  0  0  0
    1.0518   -0.7028   -2.2593 H   0  0  0  0  0  0  0  0  0  0  0  0
   -1.5105   -2.2593   -0.1469 H   0  0  0  0  0  0  0  0  0  0  0  0
   -0.8831   -1.9785   -1.8262 H   0  0  0  0  0  0  0  0  0  0  0  0
   -1.6358   -0.0109   -2.9796 H   0  0  0  0  0  0  0  0  0  0  0  0
   -4.8999    3.3120   -1.7798 H   0  0  0  0  0  0  0  0  0  0  0  0
   -4.6248    3.4422   -0.0245 H   0  0  0  0  0  0  0  0  0  0  0  0
   -2.4661   -1.5438    1.5711 H   0  0  0  0  0  0  0  0  0  0  0  0
   -2.1088    0.0129    2.3503 H   0  0  0  0  0  0  0  0  0  0  0  0
    0.1001   -1.7598    1.7650 H   0  0  0  0  0  0  0  0  0  0  0  0
  1  2  1  0
  2  3  1  0
  3  4  2  0
  4  5  1  0
  4  6  1  0
  6  7  2  0
  7  8  1  0
  8  9  1  0
  9 10  2  0
 10 11  1  0
 11 12  2  0
 12 13  1  0
 12 14  1  0
 14 15  2  0
 15 16  1  0
  7 17  1  0
 17 18  2  0
 18 19  1  0
 18  3  1  0
 15  9  1  0
  1 20  1  0
  1 21  1  0
  1 22  1  0
  6 23  1  0
  8 24  1  0
  8 25  1  0
 10 26  1  0
 13 27  1  0
 13 28  1  0
 16 29  1  0
 16 30  1  0
 17 31  1  0
M  END
$$$$
