
     RDKit          3D

 50 53  0  0  0  0  0  0  0  0999 V2000
   -2.9840   -0.0671    1.6023 C   0  0  1  0  0  0  0  0  0  0  0  0
   -3.5882   -0.7591    2.7572 N   0  0  0  0  0  0  0  0  0  0  0  0
   -1.6661   -0.7656    1.3515 C   0  0  0  0  0  0  0  0  0  0  0  0
   -1.7755   -1.1469   -0.0434 N   0  0  0  0  0  0  0  0  0  0  0  0
   -3.1679   -1.3449   -0.4073 C   0  0  0  0  0  0  0  0  0  0  0  0
   -3.8494   -0.2341    0.4042 C   0  0  2  0  0  0  0  0  0  0  0  0
   -3.9641    0.9170   -0.4847 C   0  0  0  0  0  0  0  0  0  0  0  0
   -5.1396    1.0889   -1.2227 C   0  0  0  0  0  0  0  0  0  0  0  0
   -5.3890    2.1259   -2.0952 C   0  0  0  0  0  0  0  0  0  0  0  0
   -6.5649    2.1929   -2.7582 F   0  0  0  0  0  0  0  0  0  0  0  0
   -4.3816    3.0780   -2.2497 C   0  0  0  0  0  0  0  0  0  0  0  0
   -4.6244    4.1058   -3.1122 F   0  0  0  0  0  0  0  0  0  0  0  0
   -3.2051    2.9770   -1.5622 C   0  0  0  0  0  0  0  0  0  0  0  0
   -3.0350    1.9090   -0.7089 C   0  0  0  0  0  0  0  0  0  0  0  0
   -1.8647    1.8160   -0.0354 F   0  0  0  0  0  0  0  0  0  0  0  0
   -0.6835   -1.3091   -0.9403 C   0  0  0  0  0  0  0  0  0  0  0  0
    0.6243   -1.1168   -0.5472 C   0  0  0  0  0  0  0  0  0  0  0  0
    1.7141   -1.2605   -1.3727 C   0  0  0  0  0  0  0  0  0  0  0  0
    1.4380   -1.6134   -2.6412 N   0  0  0  0  0  0  0  0  0  0  0  0
    0.1783   -1.8115   -3.0693 C   0  0  0  0  0  0  0  0  0  0  0  0
   -0.8758   -1.6604   -2.2244 N   0  0  0  0  0  0  0  0  0  0  0  0
    3.0865   -1.0500   -0.9261 C   0  0  0  0  0  0  0  0  0  0  0  0
    3.4562   -0.6884    0.3517 C   0  0  0  0  0  0  0  0  0  0  0  0
    4.7874   -0.5152    0.6677 C   0  0  0  0  0  0  0  0  0  0  0  0
    5.7924   -0.6925   -0.2628 C   0  0  0  0  0  0  0  0  0  0  0  0
    5.4471   -1.0547   -1.5490 C   0  0  0  0  0  0  0  0  0  0  0  0
    4.1084   -1.2207   -1.8360 C   0  0  0  0  0  0  0  0  0  0  0  0
    5.2725   -0.0575    2.2817 S   0  0  0  0  0  0  0  0  0  0  0  0
    5.3484    1.7202    2.4646 C   0  0  0  0  0  0  0  0  0  0  0  0
    6.6483   -0.6080    2.5885 O   0  0  0  0  0  0  0  0  0  0  0  0
    4.2971   -0.5447    3.3119 O   0  0  0  0  0  0  0  0  0  0  0  0
   -2.7524    0.9793    1.8849 H   0  0  0  0  0  0  0  0  0  0  0  0
   -2.8481   -1.1609    3.3776 H   0  0  0  0  0  0  0  0  0  0  0  0
   -4.0543   -0.0212    3.3672 H   0  0  0  0  0  0  0  0  0  0  0  0
   -1.5758   -1.7133    1.9238 H   0  0  0  0  0  0  0  0  0  0  0  0
   -0.8017   -0.0876    1.5476 H   0  0  0  0  0  0  0  0  0  0  0  0
   -3.3219   -1.1947   -1.4954 H   0  0  0  0  0  0  0  0  0  0  0  0
   -3.5474   -2.2989   -0.0224 H   0  0  0  0  0  0  0  0  0  0  0  0
   -4.8752   -0.5537    0.6949 H   0  0  0  0  0  0  0  0  0  0  0  0
   -5.9411    0.3480   -1.1116 H   0  0  0  0  0  0  0  0  0  0  0  0
   -2.4179    3.7168   -1.6798 H   0  0  0  0  0  0  0  0  0  0  0  0
    0.7680   -0.8348    0.4863 H   0  0  0  0  0  0  0  0  0  0  0  0
    0.0902   -2.0923   -4.1129 H   0  0  0  0  0  0  0  0  0  0  0  0
    2.6959   -0.5487    1.0770 H   0  0  0  0  0  0  0  0  0  0  0  0
    6.8485   -0.5507    0.0046 H   0  0  0  0  0  0  0  0  0  0  0  0
    6.2164   -1.1982   -2.2907 H   0  0  0  0  0  0  0  0  0  0  0  0
    3.9039   -1.5038   -2.8580 H   0  0  0  0  0  0  0  0  0  0  0  0
    6.3377    2.0463    2.8968 H   0  0  0  0  0  0  0  0  0  0  0  0
    4.4983    2.1097    3.0304 H   0  0  0  0  0  0  0  0  0  0  0  0
    5.3366    2.1494    1.4463 H   0  0  0  0  0  0  0  0  0  0  0  0
  1  2  1  0
  1  3  1  0
  3  4  1  0
  4  5  1  0
  5  6  1  0
  6  7  1  0
  7  8  2  0
  8  9  1  0
  9 10  1  0
  9 11  2  0
 11 12  1  0
 11 13  1  0
 13 14  2  0
 14 15  1  0
  4 16  1  0
 16 17  2  0
 17 18  1  0
 18 19  2  0
 19 20  1  0
 20 21  2  0
 18 22  1  0
 22 23  2  0
 23 24  1  0
 24 25  2  0
 25 26  1  0
 26 27  2  0
 24 28  1  0
 28 29  1  0
 28 30  2  0
 28 31  2  0
  6  1  1  0
 14  7  1  0
 21 16  1  0
 27 22  1  0
  1 32  1  1
  2 33  1  0
  2 34  1  0
  3 35  1  0
  3 36  1  0
  5 37  1  0
  5 38  1  0
  6 39  1  1
  8 40  1  0
 13 41  1  0
 17 42  1  0
 20 43  1  0
 23 44  1  0
 25 45  1  0
 26 46  1  0
 27 47  1  0
 29 48  1  0
 29 49  1  0
 29 50  1  0
M  END
$$$$
