
     RDKit          3D

 60 63  0  0  0  0  0  0  0  0999 V2000
   -5.7514   -0.7024    3.4144 C   0  0  0  0  0  0  0  0  0  0  0  0
   -5.2535   -0.6974    1.9911 C   0  0  0  0  0  0  0  0  0  0  0  0
   -5.7758    0.1727    1.0610 C   0  0  0  0  0  0  0  0  0  0  0  0
   -5.3731    0.1994   -0.2423 C   0  0  0  0  0  0  0  0  0  0  0  0
   -5.9573    1.1785   -1.1801 C   0  0  0  0  0  0  0  0  0  0  0  0
   -4.3737   -0.6862   -0.7145 C   0  0  0  0  0  0  0  0  0  0  0  0
   -4.0057   -0.5826   -2.4086 S   0  0  0  0  0  6  0  0  0  0  0  0
   -5.2444   -0.1838   -3.1998 O   0  0  0  0  0  0  0  0  0  0  0  0
   -3.7860   -2.0309   -2.8746 O   0  0  0  0  0  0  0  0  0  0  0  0
   -2.7122    0.3701   -2.8706 N   0  0  0  0  0  0  0  0  0  0  0  0
   -1.4051    0.0874   -2.5232 C   0  0  1  0  0  0  0  0  0  0  0  0
   -0.4866    0.1186   -3.7339 C   0  0  0  0  0  0  0  0  0  0  0  0
   -0.7605    0.8687   -1.3741 C   0  0  0  0  0  0  0  0  0  0  0  0
    0.6006    0.3468   -1.2854 N   0  0  0  0  0  0  0  0  0  0  0  0
    1.5471    0.7543   -0.3095 C   0  0  0  0  0  0  0  0  0  0  0  0
    1.2230    1.6626    0.6538 C   0  0  0  0  0  0  0  0  0  0  0  0
    2.1373    2.0715    1.6322 C   0  0  0  0  0  0  0  0  0  0  0  0
    3.4258    1.5340    1.6239 C   0  0  0  0  0  0  0  0  0  0  0  0
    3.7788    0.6112    0.6562 C   0  0  0  0  0  0  0  0  0  0  0  0
    2.8235    0.2562   -0.2746 C   0  0  0  0  0  0  0  0  0  0  0  0
    3.4362   -0.6696   -1.1060 C   0  0  0  0  0  0  0  0  0  0  0  0
    4.6874   -0.8154   -0.6497 N   0  0  0  0  0  0  0  0  0  0  0  0
    4.9270   -0.0559    0.4147 N   0  0  0  0  0  0  0  0  0  0  0  0
    6.1647    0.0043    1.1185 C   0  0  0  0  0  0  0  0  0  0  0  0
    6.5000   -0.9605    2.0650 C   0  0  0  0  0  0  0  0  0  0  0  0
    7.7148   -0.9042    2.7316 C   0  0  0  0  0  0  0  0  0  0  0  0
    8.6367    0.0895    2.4927 C   0  0  0  0  0  0  0  0  0  0  0  0
    9.8416    0.1698    3.1316 F   0  0  0  0  0  0  0  0  0  0  0  0
    8.3056    1.0539    1.5469 C   0  0  0  0  0  0  0  0  0  0  0  0
    7.0972    0.9903    0.8958 C   0  0  0  0  0  0  0  0  0  0  0  0
   -3.8498   -1.5449    0.1920 C   0  0  0  0  0  0  0  0  0  0  0  0
   -2.7704   -2.4840   -0.1784 C   0  0  0  0  0  0  0  0  0  0  0  0
   -4.2860   -1.5538    1.5420 C   0  0  0  0  0  0  0  0  0  0  0  0
   -6.3504    0.2136    3.5843 H   0  0  0  0  0  0  0  0  0  0  0  0
   -4.8775   -0.6855    4.1020 H   0  0  0  0  0  0  0  0  0  0  0  0
   -6.3447   -1.6279    3.5702 H   0  0  0  0  0  0  0  0  0  0  0  0
   -6.5606    0.8769    1.3945 H   0  0  0  0  0  0  0  0  0  0  0  0
   -5.1158    1.6924   -1.6758 H   0  0  0  0  0  0  0  0  0  0  0  0
   -6.7334    0.7673   -1.8281 H   0  0  0  0  0  0  0  0  0  0  0  0
   -6.4630    1.9918   -0.5567 H   0  0  0  0  0  0  0  0  0  0  0  0
   -2.9253    1.3390   -3.1913 H   0  0  0  0  0  0  0  0  0  0  0  0
   -1.3686   -0.9672   -2.1181 H   0  0  0  0  0  0  0  0  0  0  0  0
    0.0923   -0.8174   -3.8126 H   0  0  0  0  0  0  0  0  0  0  0  0
    0.1477    1.0391   -3.7573 H   0  0  0  0  0  0  0  0  0  0  0  0
   -1.1147    0.1765   -4.6761 H   0  0  0  0  0  0  0  0  0  0  0  0
   -1.2774    0.6310   -0.4274 H   0  0  0  0  0  0  0  0  0  0  0  0
   -0.7388    1.9385   -1.5847 H   0  0  0  0  0  0  0  0  0  0  0  0
    0.9022   -0.3714   -1.9897 H   0  0  0  0  0  0  0  0  0  0  0  0
    0.2408    2.1208    0.7235 H   0  0  0  0  0  0  0  0  0  0  0  0
    1.8801    2.7833    2.3951 H   0  0  0  0  0  0  0  0  0  0  0  0
    4.1663    1.8347    2.3683 H   0  0  0  0  0  0  0  0  0  0  0  0
    2.9505   -1.1486   -1.9443 H   0  0  0  0  0  0  0  0  0  0  0  0
    5.8208   -1.7519    2.2836 H   0  0  0  0  0  0  0  0  0  0  0  0
    7.9886   -1.6532    3.4794 H   0  0  0  0  0  0  0  0  0  0  0  0
    9.0309    1.8344    1.3523 H   0  0  0  0  0  0  0  0  0  0  0  0
    6.8571    1.7524    0.1729 H   0  0  0  0  0  0  0  0  0  0  0  0
   -2.9873   -3.1221   -1.0477 H   0  0  0  0  0  0  0  0  0  0  0  0
   -1.7572   -2.0188   -0.1619 H   0  0  0  0  0  0  0  0  0  0  0  0
   -2.7004   -3.2278    0.6934 H   0  0  0  0  0  0  0  0  0  0  0  0
   -3.8179   -2.2677    2.2274 H   0  0  0  0  0  0  0  0  0  0  0  0
  1  2  1  0
  2  3  2  0
  3  4  1  0
  4  5  1  0
  4  6  2  0
  6  7  1  0
  7  8  2  0
  7  9  2  0
  7 10  1  0
 10 11  1  0
 11 12  1  0
 11 13  1  0
 13 14  1  0
 14 15  1  0
 15 16  2  0
 16 17  1  0
 17 18  2  0
 18 19  1  0
 19 20  2  0
 20 21  1  0
 21 22  2  0
 22 23  1  0
 23 24  1  0
 24 25  2  0
 25 26  1  0
 26 27  2  0
 27 28  1  0
 27 29  1  0
 29 30  2  0
  6 31  1  0
 31 32  1  0
 31 33  2  0
 33  2  1  0
 20 15  1  0
 30 24  1  0
 23 19  1  0
  1 34  1  0
  1 35  1  0
  1 36  1  0
  3 37  1  0
  5 38  1  0
  5 39  1  0
  5 40  1  0
 10 41  1  0
 11 42  1  1
 12 43  1  0
 12 44  1  0
 12 45  1  0
 13 46  1  0
 13 47  1  0
 14 48  1  0
 16 49  1  0
 17 50  1  0
 18 51  1  0
 21 52  1  0
 25 53  1  0
 26 54  1  0
 29 55  1  0
 30 56  1  0
 32 57  1  0
 32 58  1  0
 32 59  1  0
 33 60  1  0
M  END
$$$$
