
     RDKit          3D

 53 57  0  0  0  0  0  0  0  0999 V2000
    0.6581   -3.3451   -0.8780 C   0  0  0  0  0  0  0  0  0  0  0  0
   -0.2351   -2.2552   -0.8302 O   0  0  0  0  0  0  0  0  0  0  0  0
    0.2585   -0.9825   -0.6131 C   0  0  0  0  0  0  0  0  0  0  0  0
    1.6339   -0.7972   -0.4447 C   0  0  0  0  0  0  0  0  0  0  0  0
    2.1379    0.4675   -0.2276 C   0  0  0  0  0  0  0  0  0  0  0  0
    3.4741    0.7532   -0.0502 C   0  0  0  0  0  0  0  0  0  0  0  0
    4.4116   -0.2988   -0.0882 N   0  0  0  0  0  0  0  0  0  0  0  0
    5.7866    0.0711    0.1063 C   0  0  0  0  0  0  0  0  0  0  0  0
    6.4995   -0.4525    1.1552 C   0  0  0  0  0  0  0  0  0  0  0  0
    7.8373   -0.1039    1.3599 C   0  0  0  0  0  0  0  0  0  0  0  0
    8.4212    0.7698    0.4933 C   0  0  0  0  0  0  0  0  0  0  0  0
   10.2508    1.2433    0.7778 Br  0  0  0  0  0  0  0  0  0  0  0  0
    7.7232    1.3142   -0.5757 C   0  0  0  0  0  0  0  0  0  0  0  0
    8.4651    2.4295   -1.6838 Cl  0  0  0  0  0  0  0  0  0  0  0  0
    6.3875    0.9481   -0.7562 C   0  0  0  0  0  0  0  0  0  0  0  0
    5.7243    1.4758   -1.7858 F   0  0  0  0  0  0  0  0  0  0  0  0
    3.8689    2.0456    0.1591 N   0  0  0  0  0  0  0  0  0  0  0  0
    3.0114    3.0714    0.2022 C   0  0  0  0  0  0  0  0  0  0  0  0
    1.7078    2.8064    0.0309 N   0  0  0  0  0  0  0  0  0  0  0  0
    1.2586    1.5505   -0.1793 C   0  0  0  0  0  0  0  0  0  0  0  0
   -0.0988    1.3136   -0.3526 C   0  0  0  0  0  0  0  0  0  0  0  0
   -0.6250    0.0638   -0.5701 C   0  0  0  0  0  0  0  0  0  0  0  0
   -1.9453   -0.1732   -0.7394 O   0  0  0  0  0  0  0  0  0  0  0  0
   -3.0284    0.6701   -0.7434 C   0  0  1  0  0  0  0  0  0  0  0  0
   -3.8831    0.5843   -1.9878 C   0  0  0  0  0  0  0  0  0  0  0  0
   -4.9661   -0.2039   -1.7151 O   0  0  0  0  0  0  0  0  0  0  0  0
   -4.9142   -0.6455   -0.4216 C   0  0  2  0  0  0  0  0  0  0  0  0
   -6.2394   -0.4206    0.3217 C   0  0  1  0  0  0  0  0  0  0  0  0
   -6.1801   -1.0654    1.5354 O   0  0  0  0  0  0  0  0  0  0  0  0
   -7.2021   -1.9574    1.7519 C   0  0  0  0  0  0  0  0  0  0  0  0
   -6.1764    1.0948    0.4833 C   0  0  0  0  0  0  0  0  0  0  0  0
   -4.8656    1.4482    0.6009 O   0  0  0  0  0  0  0  0  0  0  0  0
   -4.0562    0.3836    0.3256 C   0  0  2  0  0  0  0  0  0  0  0  0
    1.1519   -3.5449    0.0993 H   0  0  0  0  0  0  0  0  0  0  0  0
    0.1465   -4.2780   -1.1923 H   0  0  0  0  0  0  0  0  0  0  0  0
    1.4819   -3.1880   -1.6073 H   0  0  0  0  0  0  0  0  0  0  0  0
    2.3053   -1.6365   -0.4833 H   0  0  0  0  0  0  0  0  0  0  0  0
    4.1609   -1.2836   -0.2436 H   0  0  0  0  0  0  0  0  0  0  0  0
    6.0222   -1.1404    1.8288 H   0  0  0  0  0  0  0  0  0  0  0  0
    8.3833   -0.5264    2.1916 H   0  0  0  0  0  0  0  0  0  0  0  0
    3.3972    4.0653    0.3717 H   0  0  0  0  0  0  0  0  0  0  0  0
   -0.7303    2.2079   -0.3027 H   0  0  0  0  0  0  0  0  0  0  0  0
   -2.6862    1.7154   -0.5732 H   0  0  0  0  0  0  0  0  0  0  0  0
   -4.2630    1.6249   -2.1792 H   0  0  0  0  0  0  0  0  0  0  0  0
   -3.3177    0.3002   -2.8807 H   0  0  0  0  0  0  0  0  0  0  0  0
   -4.5379   -1.6603   -0.2771 H   0  0  0  0  0  0  0  0  0  0  0  0
   -7.1062   -0.7170   -0.3045 H   0  0  0  0  0  0  0  0  0  0  0  0
   -7.2397   -2.7708    0.9990 H   0  0  0  0  0  0  0  0  0  0  0  0
   -7.0018   -2.4446    2.7445 H   0  0  0  0  0  0  0  0  0  0  0  0
   -8.2031   -1.4685    1.8788 H   0  0  0  0  0  0  0  0  0  0  0  0
   -6.5778    1.5097   -0.4807 H   0  0  0  0  0  0  0  0  0  0  0  0
   -6.8410    1.4502    1.2809 H   0  0  0  0  0  0  0  0  0  0  0  0
   -3.6451   -0.0179    1.2470 H   0  0  0  0  0  0  0  0  0  0  0  0
  1  2  1  0
  2  3  1  0
  3  4  2  0
  4  5  1  0
  5  6  2  0
  6  7  1  0
  7  8  1  0
  8  9  2  0
  9 10  1  0
 10 11  2  0
 11 12  1  0
 11 13  1  0
 13 14  1  0
 13 15  2  0
 15 16  1  0
  6 17  1  0
 17 18  2  0
 18 19  1  0
 19 20  2  0
 20 21  1  0
 21 22  2  0
 22 23  1  0
 23 24  1  0
 24 25  1  0
 25 26  1  0
 26 27  1  0
 27 28  1  0
 28 29  1  0
 29 30  1  0
 28 31  1  0
 31 32  1  0
 32 33  1  0
 22  3  1  0
 33 24  1  0
 20  5  1  0
 33 27  1  0
 15  8  1  0
  1 34  1  0
  1 35  1  0
  1 36  1  0
  4 37  1  0
  7 38  1  0
  9 39  1  0
 10 40  1  0
 18 41  1  0
 21 42  1  0
 24 43  1  1
 25 44  1  0
 25 45  1  0
 27 46  1  6
 28 47  1  6
 30 48  1  0
 30 49  1  0
 30 50  1  0
 31 51  1  0
 31 52  1  0
 33 53  1  1
M  END
$$$$
