
     RDKit          3D

 29 31  0  0  0  0  0  0  0  0999 V2000
   -0.9450   -0.3759    0.8335 C   0  0  2  0  0  0  0  0  0  0  0  0
   -0.4205   -1.7483    0.9610 C   0  0  0  0  0  0  0  0  0  0  0  0
   -1.2301   -2.6238    0.3378 C   0  0  0  0  0  0  0  0  0  0  0  0
   -1.2719   -4.5114    0.0433 Br  0  0  0  0  0  0  0  0  0  0  0  0
   -2.3335   -1.8935   -0.2378 N   0  0  0  0  0  0  0  0  0  0  0  0
   -2.1764   -0.6201    0.0402 C   0  0  0  0  0  0  0  0  0  0  0  0
   -3.1398    0.4123   -0.4068 C   0  0  0  0  0  0  0  0  0  0  0  0
   -4.3116    0.0181   -0.6408 O   0  0  0  0  0  0  0  0  0  0  0  0
   -2.8129    1.8085   -0.5830 N   0  0  0  0  0  0  0  0  0  0  0  0
   -1.4822    2.4373   -0.5301 C   0  0  0  0  0  0  0  0  0  0  0  0
   -0.5041    1.3278   -0.9477 C   0  0  0  0  0  0  0  0  0  0  0  0
   -0.0087    0.6290    0.2776 C   0  0  2  0  0  0  0  0  0  0  0  0
    1.3762    0.1106    0.1300 C   0  0  0  0  0  0  0  0  0  0  0  0
    2.0553   -0.9686    0.3295 N   0  0  0  0  0  0  0  0  0  0  0  0
    3.4187   -0.8146   -0.0347 C   0  0  0  0  0  0  0  0  0  0  0  0
    4.2529   -1.9758    0.1561 N   0  0  0  0  0  0  0  0  0  0  0  0
    3.6212    0.3662   -0.4703 N   0  0  0  0  0  0  0  0  0  0  0  0
    2.3730    1.0592   -0.4117 C   0  0  0  0  0  0  0  0  0  0  0  0
    2.4058    2.2614   -0.8153 O   0  0  0  0  0  0  0  0  0  0  0  0
   -1.3132   -0.1054    1.8677 H   0  0  0  0  0  0  0  0  0  0  0  0
    0.4053   -2.3002    1.3921 H   0  0  0  0  0  0  0  0  0  0  0  0
   -3.6640    2.4177   -0.7709 H   0  0  0  0  0  0  0  0  0  0  0  0
   -1.2769    2.7076    0.5300 H   0  0  0  0  0  0  0  0  0  0  0  0
   -1.4350    3.3036   -1.2122 H   0  0  0  0  0  0  0  0  0  0  0  0
   -1.0356    0.5440   -1.5565 H   0  0  0  0  0  0  0  0  0  0  0  0
    0.2478    1.7974   -1.5671 H   0  0  0  0  0  0  0  0  0  0  0  0
    0.0864    1.4552    1.0454 H   0  0  0  0  0  0  0  0  0  0  0  0
    4.9782   -1.8839    0.9146 H   0  0  0  0  0  0  0  0  0  0  0  0
    4.1407   -2.8345   -0.4155 H   0  0  0  0  0  0  0  0  0  0  0  0
  1  2  1  0
  2  3  2  0
  3  4  1  0
  3  5  1  0
  5  6  2  0
  6  7  1  0
  7  8  2  0
  7  9  1  0
  9 10  1  0
 10 11  1  0
 11 12  1  0
 12 13  1  0
 13 14  2  0
 14 15  1  0
 15 16  1  0
 15 17  2  0
 17 18  1  0
 18 19  2  0
  6  1  1  0
 18 13  1  0
 12  1  1  0
  1 20  1  1
  2 21  1  0
  9 22  1  0
 10 23  1  0
 10 24  1  0
 11 25  1  0
 11 26  1  0
 12 27  1  1
 16 28  1  0
 16 29  1  0
M  END
$$$$
