
     RDKit          3D

 48 51  0  0  0  0  0  0  0  0999 V2000
    4.8604   -1.3643   -2.0298 C   0  0  0  0  0  0  0  0  0  0  0  0
    5.9241   -0.6897   -0.7899 S   0  0  0  0  0  6  0  0  0  0  0  0
    6.6383    0.4899   -1.4037 O   0  0  0  0  0  0  0  0  0  0  0  0
    6.9922   -1.7066   -0.4685 O   0  0  0  0  0  0  0  0  0  0  0  0
    5.0452   -0.2465    0.6236 N   0  0  0  0  0  0  0  0  0  0  0  0
    4.0329    0.7457    0.5405 C   0  0  0  0  0  0  0  0  0  0  0  0
    4.1985    1.9247   -0.1333 C   0  0  0  0  0  0  0  0  0  0  0  0
    3.2362    2.9072   -0.2321 C   0  0  0  0  0  0  0  0  0  0  0  0
    2.0130    2.6768    0.4007 C   0  0  0  0  0  0  0  0  0  0  0  0
    1.7914    1.5055    1.0942 C   0  0  0  0  0  0  0  0  0  0  0  0
    0.5135    1.2720    1.7511 C   0  0  0  0  0  0  0  0  0  0  0  0
    0.3339    1.6722    3.0515 C   0  0  0  0  0  0  0  0  0  0  0  0
    1.3840    2.2903    3.7011 O   0  0  0  0  0  0  0  0  0  0  0  0
   -0.8720    1.4750    3.7358 C   0  0  0  0  0  0  0  0  0  0  0  0
   -1.9091    0.8564    3.0713 C   0  0  0  0  0  0  0  0  0  0  0  0
   -1.7583    0.4461    1.7721 C   0  0  0  0  0  0  0  0  0  0  0  0
   -2.7880   -0.1755    1.0919 C   0  0  0  0  0  0  0  0  0  0  0  0
   -2.6260   -0.5833   -0.2121 C   0  0  0  0  0  0  0  0  0  0  0  0
   -3.7472   -1.2317   -0.8746 C   0  0  0  0  0  0  0  0  0  0  0  0
   -3.5328   -2.1896   -1.8435 C   0  0  0  0  0  0  0  0  0  0  0  0
   -4.5874   -2.8300   -2.4978 C   0  0  0  0  0  0  0  0  0  0  0  0
   -5.8750   -2.4832   -2.1537 C   0  0  0  0  0  0  0  0  0  0  0  0
   -6.1189   -1.5264   -1.1861 C   0  0  0  0  0  0  0  0  0  0  0  0
   -7.4314   -1.2048   -0.8676 O   0  0  0  0  0  0  0  0  0  0  0  0
   -5.0613   -0.9080   -0.5540 C   0  0  0  0  0  0  0  0  0  0  0  0
   -1.4239   -0.3686   -0.8434 C   0  0  0  0  0  0  0  0  0  0  0  0
   -0.3785    0.2454   -0.2005 C   0  0  0  0  0  0  0  0  0  0  0  0
   -0.5520    0.6500    1.1062 C   0  0  0  0  0  0  0  0  0  0  0  0
    2.7910    0.5576    1.1594 C   0  0  0  0  0  0  0  0  0  0  0  0
    4.6590   -2.4295   -1.7917 H   0  0  0  0  0  0  0  0  0  0  0  0
    3.9091   -0.8350   -2.1317 H   0  0  0  0  0  0  0  0  0  0  0  0
    5.4442   -1.3756   -2.9934 H   0  0  0  0  0  0  0  0  0  0  0  0
    5.2610   -0.7087    1.5316 H   0  0  0  0  0  0  0  0  0  0  0  0
    5.1510    2.1178   -0.6329 H   0  0  0  0  0  0  0  0  0  0  0  0
    3.4394    3.8158   -0.7832 H   0  0  0  0  0  0  0  0  0  0  0  0
    1.2698    3.4433    0.3205 H   0  0  0  0  0  0  0  0  0  0  0  0
    1.9755    1.8148    4.3663 H   0  0  0  0  0  0  0  0  0  0  0  0
   -0.9581    1.8052    4.7450 H   0  0  0  0  0  0  0  0  0  0  0  0
   -2.8328    0.7108    3.6111 H   0  0  0  0  0  0  0  0  0  0  0  0
   -3.7416   -0.3549    1.5678 H   0  0  0  0  0  0  0  0  0  0  0  0
   -2.5304   -2.4863   -2.1386 H   0  0  0  0  0  0  0  0  0  0  0  0
   -4.4142   -3.5773   -3.2537 H   0  0  0  0  0  0  0  0  0  0  0  0
   -6.7019   -2.9603   -2.6414 H   0  0  0  0  0  0  0  0  0  0  0  0
   -7.6753   -0.4278   -0.2865 H   0  0  0  0  0  0  0  0  0  0  0  0
   -5.2449   -0.1598    0.2028 H   0  0  0  0  0  0  0  0  0  0  0  0
   -1.2741   -0.6836   -1.8754 H   0  0  0  0  0  0  0  0  0  0  0  0
    0.5870    0.4269   -0.6822 H   0  0  0  0  0  0  0  0  0  0  0  0
    2.5846   -0.3427    1.7076 H   0  0  0  0  0  0  0  0  0  0  0  0
  1  2  1  0
  2  3  2  0
  2  4  2  0
  2  5  1  0
  5  6  1  0
  6  7  2  0
  7  8  1  0
  8  9  2  0
  9 10  1  0
 10 11  1  0
 11 12  2  0
 12 13  1  0
 12 14  1  0
 14 15  2  0
 15 16  1  0
 16 17  2  0
 17 18  1  0
 18 19  1  0
 19 20  2  0
 20 21  1  0
 21 22  2  0
 22 23  1  0
 23 24  1  0
 23 25  2  0
 18 26  2  0
 26 27  1  0
 27 28  2  0
 10 29  2  0
 29  6  1  0
 28 11  1  0
 28 16  1  0
 25 19  1  0
  1 30  1  0
  1 31  1  0
  1 32  1  0
  5 33  1  0
  7 34  1  0
  8 35  1  0
  9 36  1  0
 13 37  1  0
 14 38  1  0
 15 39  1  0
 17 40  1  0
 20 41  1  0
 21 42  1  0
 22 43  1  0
 24 44  1  0
 25 45  1  0
 26 46  1  0
 27 47  1  0
 29 48  1  0
M  END
$$$$
