
     RDKit          3D

 69 71  0  0  0  0  0  0  0  0999 V2000
   -5.0488    7.0646   -1.0791 C   0  0  0  0  0  0  0  0  0  0  0  0
   -3.9616    6.0899   -0.7407 C   0  0  0  0  0  0  0  0  0  0  0  0
   -3.4466    5.3749   -1.9794 C   0  0  0  0  0  0  0  0  0  0  0  0
   -2.3804    4.4273   -1.5841 C   0  0  0  0  0  0  0  0  0  0  0  0
   -1.0482    4.7778   -1.5409 C   0  0  0  0  0  0  0  0  0  0  0  0
   -0.0829    3.8651   -1.1703 C   0  0  0  0  0  0  0  0  0  0  0  0
   -0.4089    2.5562   -0.8252 C   0  0  0  0  0  0  0  0  0  0  0  0
    0.5478    1.5515   -0.4394 C   0  0  0  0  0  0  0  0  0  0  0  0
    0.9306    1.3343    0.8629 C   0  0  0  0  0  0  0  0  0  0  0  0
    1.8591    0.3473    1.1871 C   0  0  0  0  0  0  0  0  0  0  0  0
    2.4256   -0.4464    0.2029 C   0  0  0  0  0  0  0  0  0  0  0  0
    3.4160   -1.4795    0.5689 C   0  0  0  0  0  0  0  0  0  0  0  0
    3.7740   -1.4912    1.7700 O   0  0  0  0  0  0  0  0  0  0  0  0
    3.9245   -2.3918   -0.3702 N   0  0  0  0  0  0  0  0  0  0  0  0
    4.9000   -3.3986   -0.1002 C   0  0  0  0  0  0  0  0  0  0  0  0
    6.2697   -2.9550    0.2404 C   0  0  0  0  0  0  0  0  0  0  0  0
    7.1052   -4.2518    0.4570 C   0  0  0  0  0  0  0  0  0  0  0  0
    6.5079   -2.1341    1.4530 C   0  0  0  0  0  0  0  0  0  0  0  0
    2.0428   -0.2288   -1.1002 C   0  0  0  0  0  0  0  0  0  0  0  0
    1.1141    0.7617   -1.4023 C   0  0  0  0  0  0  0  0  0  0  0  0
    0.7342    0.9665   -2.7760 C   0  0  0  0  0  0  0  0  0  0  0  0
   -0.0944    1.8435   -3.1068 O   0  0  0  0  0  0  0  0  0  0  0  0
    1.2919    0.1798   -3.7611 O   0  0  0  0  0  0  0  0  0  0  0  0
   -1.7381    2.2072   -0.8681 C   0  0  0  0  0  0  0  0  0  0  0  0
   -2.0910    0.8479   -0.5049 C   0  0  0  0  0  0  0  0  0  0  0  0
   -2.3695    0.0553   -1.4346 O   0  0  0  0  0  0  0  0  0  0  0  0
   -2.1390    0.3659    0.8267 N   0  0  0  0  0  0  0  0  0  0  0  0
   -2.4917   -0.9740    1.1111 C   0  0  0  0  0  0  0  0  0  0  0  0
   -3.8096   -1.2984    1.3211 C   0  0  0  0  0  0  0  0  0  0  0  0
   -4.2098   -2.6013    1.6112 C   0  0  0  0  0  0  0  0  0  0  0  0
   -3.2696   -3.6159    1.6953 C   0  0  0  0  0  0  0  0  0  0  0  0
   -3.6843   -4.9850    2.0018 C   0  0  0  0  0  0  0  0  0  0  0  0
   -4.7237   -5.2075    2.7268 N   0  0  0  0  0  0  0  0  0  0  0  0
   -2.9839   -6.1315    1.5323 N   0  0  0  0  0  0  0  0  0  0  0  0
   -1.9585   -3.2753    1.4826 C   0  0  0  0  0  0  0  0  0  0  0  0
   -1.5528   -1.9757    1.1925 C   0  0  0  0  0  0  0  0  0  0  0  0
   -2.7151    3.1149   -1.2386 C   0  0  0  0  0  0  0  0  0  0  0  0
   -4.7327    8.0872   -0.8374 H   0  0  0  0  0  0  0  0  0  0  0  0
   -5.9352    6.8344   -0.4358 H   0  0  0  0  0  0  0  0  0  0  0  0
   -5.3597    6.9781   -2.1463 H   0  0  0  0  0  0  0  0  0  0  0  0
   -3.1182    6.6254   -0.3035 H   0  0  0  0  0  0  0  0  0  0  0  0
   -4.3171    5.3273   -0.0056 H   0  0  0  0  0  0  0  0  0  0  0  0
   -4.2913    4.8373   -2.4373 H   0  0  0  0  0  0  0  0  0  0  0  0
   -3.0937    6.1126   -2.7331 H   0  0  0  0  0  0  0  0  0  0  0  0
   -0.7551    5.7871   -1.8024 H   0  0  0  0  0  0  0  0  0  0  0  0
    0.9668    4.1295   -1.1314 H   0  0  0  0  0  0  0  0  0  0  0  0
    0.5084    1.9347    1.6556 H   0  0  0  0  0  0  0  0  0  0  0  0
    2.1616    0.1728    2.2038 H   0  0  0  0  0  0  0  0  0  0  0  0
    3.5470   -2.3342   -1.3815 H   0  0  0  0  0  0  0  0  0  0  0  0
    4.9805   -4.1273   -0.9541 H   0  0  0  0  0  0  0  0  0  0  0  0
    4.5147   -4.0453    0.7701 H   0  0  0  0  0  0  0  0  0  0  0  0
    6.7216   -2.3967   -0.6211 H   0  0  0  0  0  0  0  0  0  0  0  0
    8.1537   -3.9826    0.2913 H   0  0  0  0  0  0  0  0  0  0  0  0
    6.9758   -4.4939    1.5295 H   0  0  0  0  0  0  0  0  0  0  0  0
    6.7297   -5.0293   -0.2146 H   0  0  0  0  0  0  0  0  0  0  0  0
    6.0877   -2.5264    2.3967 H   0  0  0  0  0  0  0  0  0  0  0  0
    6.2968   -1.0539    1.2755 H   0  0  0  0  0  0  0  0  0  0  0  0
    7.6540   -2.2174    1.6237 H   0  0  0  0  0  0  0  0  0  0  0  0
    2.4661   -0.8310   -1.9211 H   0  0  0  0  0  0  0  0  0  0  0  0
    1.2232    0.3313   -4.7376 H   0  0  0  0  0  0  0  0  0  0  0  0
   -1.9008    1.0528    1.5803 H   0  0  0  0  0  0  0  0  0  0  0  0
   -4.6054   -0.5735    1.2749 H   0  0  0  0  0  0  0  0  0  0  0  0
   -5.2592   -2.8534    1.7775 H   0  0  0  0  0  0  0  0  0  0  0  0
   -5.3303   -4.4852    3.1382 H   0  0  0  0  0  0  0  0  0  0  0  0
   -2.3426   -6.7035    2.1074 H   0  0  0  0  0  0  0  0  0  0  0  0
   -3.1235   -6.4212    0.5365 H   0  0  0  0  0  0  0  0  0  0  0  0
   -1.2050   -4.0575    1.5440 H   0  0  0  0  0  0  0  0  0  0  0  0
   -0.4932   -1.8026    1.0390 H   0  0  0  0  0  0  0  0  0  0  0  0
   -3.7600    2.8348   -1.2717 H   0  0  0  0  0  0  0  0  0  0  0  0
  1  2  1  0
  2  3  1  0
  3  4  1  0
  4  5  2  0
  5  6  1  0
  6  7  2  0
  7  8  1  0
  8  9  2  0
  9 10  1  0
 10 11  2  0
 11 12  1  0
 12 13  2  0
 12 14  1  0
 14 15  1  0
 15 16  1  0
 16 17  1  0
 16 18  1  0
 11 19  1  0
 19 20  2  0
 20 21  1  0
 21 22  2  0
 21 23  1  0
  7 24  1  0
 24 25  1  0
 25 26  2  0
 25 27  1  0
 27 28  1  0
 28 29  2  0
 29 30  1  0
 30 31  2  0
 31 32  1  0
 32 33  2  3
 32 34  1  0
 31 35  1  0
 35 36  2  0
 24 37  2  0
 37  4  1  0
 20  8  1  0
 36 28  1  0
  1 38  1  0
  1 39  1  0
  1 40  1  0
  2 41  1  0
  2 42  1  0
  3 43  1  0
  3 44  1  0
  5 45  1  0
  6 46  1  0
  9 47  1  0
 10 48  1  0
 14 49  1  0
 15 50  1  0
 15 51  1  0
 16 52  1  0
 17 53  1  0
 17 54  1  0
 17 55  1  0
 18 56  1  0
 18 57  1  0
 18 58  1  0
 19 59  1  0
 23 60  1  0
 27 61  1  0
 29 62  1  0
 30 63  1  0
 33 64  1  0
 34 65  1  0
 34 66  1  0
 35 67  1  0
 36 68  1  0
 37 69  1  0
M  END
$$$$
