
     RDKit          3D

 53 56  0  0  0  0  0  0  0  0999 V2000
   -3.7214    1.3549   -2.1506 C   0  0  0  0  0  0  0  0  0  0  0  0
   -4.2500    0.2707   -1.3492 N   0  0  0  0  0  0  0  0  0  0  0  0
   -3.3007   -0.5857   -0.6885 C   0  0  0  0  0  0  0  0  0  0  0  0
   -1.9542   -0.3113   -0.8259 C   0  0  0  0  0  0  0  0  0  0  0  0
   -1.0032   -1.0996   -0.1786 C   0  0  0  0  0  0  0  0  0  0  0  0
    0.3629   -0.7380   -0.3663 N   0  0  0  0  0  0  0  0  0  0  0  0
    0.9564    0.2312    0.4834 C   0  0  0  0  0  0  0  0  0  0  0  0
    0.1806    0.7839    1.5103 C   0  0  0  0  0  0  0  0  0  0  0  0
    0.7211    1.7082    2.3105 N   0  0  0  0  0  0  0  0  0  0  0  0
    2.0133    2.1187    2.1412 C   0  0  0  0  0  0  0  0  0  0  0  0
    2.5388    3.1065    3.0239 C   0  0  0  0  0  0  0  0  0  0  0  0
    2.9826    3.9416    3.7435 N   0  0  0  0  0  0  0  0  0  0  0  0
    2.7509    1.5581    1.1242 C   0  0  0  0  0  0  0  0  0  0  0  0
    4.0679    1.9645    0.9367 O   0  0  0  0  0  0  0  0  0  0  0  0
    4.8219    1.3902   -0.0909 C   0  0  1  0  0  0  0  0  0  0  0  0
    5.1292    2.3800   -1.2158 C   0  0  0  0  0  0  0  0  0  0  0  0
    6.2198    1.5806   -1.9426 C   0  0  0  0  0  0  0  0  0  0  0  0
    7.0389    1.1103   -0.8705 N   0  0  0  0  0  0  0  0  0  0  0  0
    7.6457   -0.1678   -1.1570 C   0  0  0  0  0  0  0  0  0  0  0  0
    6.1902    0.9340    0.3064 C   0  0  0  0  0  0  0  0  0  0  0  0
    2.2262    0.6246    0.3055 N   0  0  0  0  0  0  0  0  0  0  0  0
   -1.3919   -2.1280    0.5791 N   0  0  0  0  0  0  0  0  0  0  0  0
   -2.6955   -2.4035    0.7185 C   0  0  0  0  0  0  0  0  0  0  0  0
   -3.6953   -1.6470    0.0929 C   0  0  0  0  0  0  0  0  0  0  0  0
   -5.0869   -1.9799    0.2440 C   0  0  0  0  0  0  0  0  0  0  0  0
   -6.0045   -2.1353   -0.7690 C   0  0  0  0  0  0  0  0  0  0  0  0
   -7.2016   -2.4433   -0.2076 N   0  0  0  0  0  0  0  0  0  0  0  0
   -7.0787   -2.4884    1.1032 N   0  0  0  0  0  0  0  0  0  0  0  0
   -8.1771   -2.7954    2.0235 C   0  0  0  0  0  0  0  0  0  0  0  0
   -5.8077   -2.2115    1.4056 C   0  0  0  0  0  0  0  0  0  0  0  0
   -4.5138    1.8539   -2.7447 H   0  0  0  0  0  0  0  0  0  0  0  0
   -3.0188    0.8896   -2.9008 H   0  0  0  0  0  0  0  0  0  0  0  0
   -3.1521    2.1007   -1.5744 H   0  0  0  0  0  0  0  0  0  0  0  0
   -5.2659    0.1423   -1.2628 H   0  0  0  0  0  0  0  0  0  0  0  0
   -1.6454    0.5164   -1.4400 H   0  0  0  0  0  0  0  0  0  0  0  0
    0.8969   -1.1906   -1.1227 H   0  0  0  0  0  0  0  0  0  0  0  0
   -0.8376    0.4298    1.6092 H   0  0  0  0  0  0  0  0  0  0  0  0
    4.2443    0.5686   -0.5689 H   0  0  0  0  0  0  0  0  0  0  0  0
    5.5347    3.2852   -0.7690 H   0  0  0  0  0  0  0  0  0  0  0  0
    4.2542    2.5601   -1.8512 H   0  0  0  0  0  0  0  0  0  0  0  0
    6.7938    2.1892   -2.6423 H   0  0  0  0  0  0  0  0  0  0  0  0
    5.6938    0.7535   -2.4976 H   0  0  0  0  0  0  0  0  0  0  0  0
    8.7074   -0.1275   -0.8907 H   0  0  0  0  0  0  0  0  0  0  0  0
    7.4981   -0.3758   -2.2422 H   0  0  0  0  0  0  0  0  0  0  0  0
    7.1728   -0.9661   -0.5787 H   0  0  0  0  0  0  0  0  0  0  0  0
    6.5690    1.6520    1.0930 H   0  0  0  0  0  0  0  0  0  0  0  0
    6.1893   -0.1042    0.6824 H   0  0  0  0  0  0  0  0  0  0  0  0
   -3.0604   -3.2289    1.3257 H   0  0  0  0  0  0  0  0  0  0  0  0
   -5.8746   -2.0522   -1.8294 H   0  0  0  0  0  0  0  0  0  0  0  0
   -8.6328   -3.7423    1.6372 H   0  0  0  0  0  0  0  0  0  0  0  0
   -8.9033   -1.9600    2.0046 H   0  0  0  0  0  0  0  0  0  0  0  0
   -7.7411   -2.9487    3.0437 H   0  0  0  0  0  0  0  0  0  0  0  0
   -5.3861   -2.1679    2.3832 H   0  0  0  0  0  0  0  0  0  0  0  0
  1  2  1  0
  2  3  1  0
  3  4  2  0
  4  5  1  0
  5  6  1  0
  6  7  1  0
  7  8  2  0
  8  9  1  0
  9 10  2  0
 10 11  1  0
 11 12  3  0
 10 13  1  0
 13 14  1  0
 14 15  1  0
 15 16  1  0
 16 17  1  0
 17 18  1  0
 18 19  1  0
 18 20  1  0
 13 21  2  0
  5 22  2  0
 22 23  1  0
 23 24  2  0
 24 25  1  0
 25 26  1  0
 26 27  2  0
 27 28  1  0
 28 29  1  0
 28 30  1  0
 24  3  1  0
 30 25  2  0
 21  7  1  0
 20 15  1  0
  1 31  1  0
  1 32  1  0
  1 33  1  0
  2 34  1  0
  4 35  1  0
  6 36  1  0
  8 37  1  0
 15 38  1  6
 16 39  1  0
 16 40  1  0
 17 41  1  0
 17 42  1  0
 19 43  1  0
 19 44  1  0
 19 45  1  0
 20 46  1  0
 20 47  1  0
 23 48  1  0
 26 49  1  0
 29 50  1  0
 29 51  1  0
 29 52  1  0
 30 53  1  0
M  END
$$$$
