
     RDKit          3D

 70 73  0  0  0  0  0  0  0  0999 V2000
    6.6221   -0.0076   -3.1752 C   0  0  0  0  0  0  0  0  0  0  0  0
    5.3706    0.3153   -2.4249 C   0  0  0  0  0  0  0  0  0  0  0  0
    4.1805   -0.1790   -2.8997 C   0  0  0  0  0  0  0  0  0  0  0  0
    2.9966    0.0827   -2.2514 C   0  0  0  0  0  0  0  0  0  0  0  0
    2.9330    0.8575   -1.0847 C   0  0  0  0  0  0  0  0  0  0  0  0
    1.6755    1.1371   -0.4530 C   0  0  0  0  0  0  0  0  0  0  0  0
    1.1458    2.2692   -0.5728 O   0  0  0  0  0  0  0  0  0  0  0  0
    0.9119    0.1663    0.3582 N   0  0  0  0  0  0  0  0  0  0  0  0
    1.5841   -1.0683    0.5111 C   0  0  0  0  0  0  0  0  0  0  0  0
    2.7014   -1.2611    1.4574 C   0  0  0  0  0  0  0  0  0  0  0  0
    2.4609   -1.0329    2.9018 C   0  0  0  0  0  0  0  0  0  0  0  0
    3.7085   -1.2756    3.6592 N   0  0  0  0  0  0  0  0  0  0  0  0
   -0.4447    0.5593    0.6796 C   0  0  1  0  0  0  0  0  0  0  0  0
   -1.3838   -0.3640   -0.0549 C   0  0  0  0  0  0  0  0  0  0  0  0
   -1.3679   -1.6784    0.2714 N   0  0  0  0  0  0  0  0  0  0  0  0
   -2.1110   -2.6050   -0.3400 C   0  0  0  0  0  0  0  0  0  0  0  0
   -2.0569   -3.9318    0.0324 C   0  0  0  0  0  0  0  0  0  0  0  0
   -2.8394   -4.8629   -0.6229 C   0  0  0  0  0  0  0  0  0  0  0  0
   -2.8105   -6.5642   -0.1857 Cl  0  0  0  0  0  0  0  0  0  0  0  0
   -3.6528   -4.4113   -1.6379 C   0  0  0  0  0  0  0  0  0  0  0  0
   -3.6996   -3.0705   -2.0056 C   0  0  0  0  0  0  0  0  0  0  0  0
   -2.9185   -2.1359   -1.3522 C   0  0  0  0  0  0  0  0  0  0  0  0
   -2.9283   -0.8002   -1.6762 C   0  0  0  0  0  0  0  0  0  0  0  0
   -3.6856   -0.4403   -2.6115 O   0  0  0  0  0  0  0  0  0  0  0  0
   -2.1541    0.1211   -1.0258 N   0  0  0  0  0  0  0  0  0  0  0  0
   -2.2587    1.4632   -1.4880 C   0  0  0  0  0  0  0  0  0  0  0  0
   -3.3271    2.2847   -0.8692 C   0  0  0  0  0  0  0  0  0  0  0  0
   -4.5843    2.4179   -1.4809 C   0  0  0  0  0  0  0  0  0  0  0  0
   -5.6104    3.1634   -0.9801 C   0  0  0  0  0  0  0  0  0  0  0  0
   -5.4376    3.8427    0.1982 C   0  0  0  0  0  0  0  0  0  0  0  0
   -4.2314    3.7595    0.8542 C   0  0  0  0  0  0  0  0  0  0  0  0
   -3.1975    2.9840    0.3114 C   0  0  0  0  0  0  0  0  0  0  0  0
   -0.8031    0.7122    2.0800 C   0  0  0  0  0  0  0  0  0  0  0  0
   -0.7398   -0.4347    3.0142 C   0  0  0  0  0  0  0  0  0  0  0  0
    0.0470    1.8537    2.6736 C   0  0  0  0  0  0  0  0  0  0  0  0
    4.1669    1.3384   -0.6396 C   0  0  0  0  0  0  0  0  0  0  0  0
    5.3527    1.0773   -1.2880 C   0  0  0  0  0  0  0  0  0  0  0  0
    6.3808   -0.5035   -4.1372 H   0  0  0  0  0  0  0  0  0  0  0  0
    7.0956    0.9788   -3.4118 H   0  0  0  0  0  0  0  0  0  0  0  0
    7.3241   -0.5794   -2.5671 H   0  0  0  0  0  0  0  0  0  0  0  0
    4.2050   -0.7923   -3.8171 H   0  0  0  0  0  0  0  0  0  0  0  0
    2.0687   -0.3060   -2.6440 H   0  0  0  0  0  0  0  0  0  0  0  0
    0.8384   -1.9213    0.6927 H   0  0  0  0  0  0  0  0  0  0  0  0
    2.0454   -1.3124   -0.5206 H   0  0  0  0  0  0  0  0  0  0  0  0
    3.6335   -0.7024    1.1392 H   0  0  0  0  0  0  0  0  0  0  0  0
    3.0667   -2.3544    1.4050 H   0  0  0  0  0  0  0  0  0  0  0  0
    1.7145   -1.7716    3.2511 H   0  0  0  0  0  0  0  0  0  0  0  0
    2.0865   -0.0239    3.1325 H   0  0  0  0  0  0  0  0  0  0  0  0
    3.8685   -2.3108    3.6220 H   0  0  0  0  0  0  0  0  0  0  0  0
    3.4850   -1.0224    4.6473 H   0  0  0  0  0  0  0  0  0  0  0  0
   -0.5735    1.5770    0.1885 H   0  0  0  0  0  0  0  0  0  0  0  0
   -1.4140   -4.2871    0.8324 H   0  0  0  0  0  0  0  0  0  0  0  0
   -4.2561   -5.1525   -2.1415 H   0  0  0  0  0  0  0  0  0  0  0  0
   -4.3364   -2.7178   -2.8023 H   0  0  0  0  0  0  0  0  0  0  0  0
   -2.5680    1.4052   -2.5958 H   0  0  0  0  0  0  0  0  0  0  0  0
   -1.3079    2.0283   -1.5715 H   0  0  0  0  0  0  0  0  0  0  0  0
   -4.7595    1.9155   -2.4214 H   0  0  0  0  0  0  0  0  0  0  0  0
   -6.5789    3.2378   -1.4949 H   0  0  0  0  0  0  0  0  0  0  0  0
   -6.2460    4.4445    0.6133 H   0  0  0  0  0  0  0  0  0  0  0  0
   -4.0717    4.2944    1.7963 H   0  0  0  0  0  0  0  0  0  0  0  0
   -2.2676    2.9496    0.8327 H   0  0  0  0  0  0  0  0  0  0  0  0
   -1.8639    1.1206    2.2043 H   0  0  0  0  0  0  0  0  0  0  0  0
   -0.1234   -0.2294    3.9187 H   0  0  0  0  0  0  0  0  0  0  0  0
   -1.7740   -0.5929    3.4582 H   0  0  0  0  0  0  0  0  0  0  0  0
   -0.5263   -1.4251    2.5478 H   0  0  0  0  0  0  0  0  0  0  0  0
    0.2965    1.6226    3.7502 H   0  0  0  0  0  0  0  0  0  0  0  0
    1.0224    1.9267    2.1533 H   0  0  0  0  0  0  0  0  0  0  0  0
   -0.4867    2.8078    2.6968 H   0  0  0  0  0  0  0  0  0  0  0  0
    4.1282    1.9430    0.2660 H   0  0  0  0  0  0  0  0  0  0  0  0
    6.2796    1.4721   -0.9058 H   0  0  0  0  0  0  0  0  0  0  0  0
  1  2  1  0
  2  3  2  0
  3  4  1  0
  4  5  2  0
  5  6  1  0
  6  7  2  0
  6  8  1  0
  8  9  1  0
  9 10  1  0
 10 11  1  0
 11 12  1  0
  8 13  1  0
 13 14  1  0
 14 15  2  0
 15 16  1  0
 16 17  2  0
 17 18  1  0
 18 19  1  0
 18 20  2  0
 20 21  1  0
 21 22  2  0
 22 23  1  0
 23 24  2  0
 23 25  1  0
 25 26  1  0
 26 27  1  0
 27 28  2  0
 28 29  1  0
 29 30  2  0
 30 31  1  0
 31 32  2  0
 13 33  1  0
 33 34  1  0
 33 35  1  0
  5 36  1  0
 36 37  2  0
 37  2  1  0
 25 14  1  0
 32 27  1  0
 22 16  1  0
  1 38  1  0
  1 39  1  0
  1 40  1  0
  3 41  1  0
  4 42  1  0
  9 43  1  0
  9 44  1  0
 10 45  1  0
 10 46  1  0
 11 47  1  0
 11 48  1  0
 12 49  1  0
 12 50  1  0
 13 51  1  6
 17 52  1  0
 20 53  1  0
 21 54  1  0
 26 55  1  0
 26 56  1  0
 28 57  1  0
 29 58  1  0
 30 59  1  0
 31 60  1  0
 32 61  1  0
 33 62  1  0
 34 63  1  0
 34 64  1  0
 34 65  1  0
 35 66  1  0
 35 67  1  0
 35 68  1  0
 36 69  1  0
 37 70  1  0
M  END
$$$$
