
     RDKit          3D

 71 76  0  0  0  0  0  0  0  0999 V2000
   -8.2859    2.7584    0.4921 C   0  0  0  0  0  0  0  0  0  0  0  0
   -7.0504    2.2563   -0.0543 N   0  0  0  0  0  0  0  0  0  0  0  0
   -7.1316    1.5646   -1.3307 C   0  0  0  0  0  0  0  0  0  0  0  0
   -5.8483    2.4538    0.6637 C   0  0  0  0  0  0  0  0  0  0  0  0
   -5.9525    3.0820    1.7828 O   0  0  0  0  0  0  0  0  0  0  0  0
   -4.5313    1.9984    0.2231 C   0  0  0  0  0  0  0  0  0  0  0  0
   -3.5072    2.8701   -0.1391 C   0  0  0  0  0  0  0  0  0  0  0  0
   -2.3921    2.1471   -0.4985 C   0  0  0  0  0  0  0  0  0  0  0  0
   -1.0999    2.4291   -0.9346 C   0  0  0  0  0  0  0  0  0  0  0  0
   -0.2465    1.4300   -1.1981 N   0  0  0  0  0  0  0  0  0  0  0  0
   -0.5785    0.1387   -1.0615 C   0  0  0  0  0  0  0  0  0  0  0  0
    0.3250   -0.9242   -1.3137 N   0  0  0  0  0  0  0  0  0  0  0  0
    1.7124   -0.8441   -1.0466 C   0  0  0  0  0  0  0  0  0  0  0  0
    2.3239    0.2193   -0.4525 C   0  0  0  0  0  0  0  0  0  0  0  0
    3.6806    0.1898   -0.2318 C   0  0  0  0  0  0  0  0  0  0  0  0
    4.4542   -0.8982   -0.5978 C   0  0  0  0  0  0  0  0  0  0  0  0
    5.8498   -0.8809   -0.3089 N   0  0  0  0  0  0  0  0  0  0  0  0
    6.6489   -0.2102   -1.3216 C   0  0  0  0  0  0  0  0  0  0  0  0
    7.6179    0.7365   -0.6090 C   0  0  0  0  0  0  0  0  0  0  0  0
    8.9032    0.0170   -0.3790 C   0  0  0  0  0  0  0  0  0  0  0  0
    9.1751    0.2462    1.0866 C   0  0  0  0  0  0  0  0  0  0  0  0
    7.7806    0.2771    1.6779 C   0  0  0  0  0  0  0  0  0  0  0  0
    7.3093   -1.1548    1.8082 C   0  0  0  0  0  0  0  0  0  0  0  0
    6.1959   -1.4927    0.9023 C   0  0  0  0  0  0  0  0  0  0  0  0
    5.4848   -2.4538    1.2872 O   0  0  0  0  0  0  0  0  0  0  0  0
    7.0510    1.0289    0.6947 N   0  0  0  0  0  0  0  0  0  0  0  0
    3.8023   -1.9507   -1.1954 C   0  0  0  0  0  0  0  0  0  0  0  0
    2.4877   -1.9044   -1.4011 N   0  0  0  0  0  0  0  0  0  0  0  0
   -1.8405   -0.1116   -0.6357 N   0  0  0  0  0  0  0  0  0  0  0  0
   -2.7514    0.8253   -0.3509 C   0  0  0  0  0  0  0  0  0  0  0  0
   -4.0484    0.7666    0.0869 N   0  0  0  0  0  0  0  0  0  0  0  0
   -4.7119   -0.4862    0.3586 C   0  0  0  0  0  0  0  0  0  0  0  0
   -4.0314   -1.6245   -0.4150 C   0  0  0  0  0  0  0  0  0  0  0  0
   -4.9653   -2.8357   -0.3032 C   0  0  0  0  0  0  0  0  0  0  0  0
   -5.8167   -2.7637    0.9268 C   0  0  0  0  0  0  0  0  0  0  0  0
   -5.1481   -2.1659    2.1246 C   0  0  0  0  0  0  0  0  0  0  0  0
   -4.4718   -0.8436    1.8321 C   0  0  0  0  0  0  0  0  0  0  0  0
   -8.5194    2.3161    1.4880 H   0  0  0  0  0  0  0  0  0  0  0  0
   -8.1692    3.8512    0.6303 H   0  0  0  0  0  0  0  0  0  0  0  0
   -9.1048    2.5689   -0.2132 H   0  0  0  0  0  0  0  0  0  0  0  0
   -6.1264    1.5629   -1.7792 H   0  0  0  0  0  0  0  0  0  0  0  0
   -7.8942    2.0418   -1.9840 H   0  0  0  0  0  0  0  0  0  0  0  0
   -7.4498    0.4982   -1.2062 H   0  0  0  0  0  0  0  0  0  0  0  0
   -3.5548    3.9679   -0.1465 H   0  0  0  0  0  0  0  0  0  0  0  0
   -0.8110    3.4575   -1.0530 H   0  0  0  0  0  0  0  0  0  0  0  0
   -0.0470   -1.8135   -1.7181 H   0  0  0  0  0  0  0  0  0  0  0  0
    1.7365    1.0821   -0.1503 H   0  0  0  0  0  0  0  0  0  0  0  0
    4.1751    1.0290    0.2384 H   0  0  0  0  0  0  0  0  0  0  0  0
    6.0054    0.3199   -2.0446 H   0  0  0  0  0  0  0  0  0  0  0  0
    7.2528   -0.9374   -1.8743 H   0  0  0  0  0  0  0  0  0  0  0  0
    7.7194    1.6733   -1.2041 H   0  0  0  0  0  0  0  0  0  0  0  0
    8.7787   -1.0688   -0.5710 H   0  0  0  0  0  0  0  0  0  0  0  0
    9.7501    0.4071   -0.9598 H   0  0  0  0  0  0  0  0  0  0  0  0
    9.7100    1.2024    1.2216 H   0  0  0  0  0  0  0  0  0  0  0  0
    9.7172   -0.6044    1.5626 H   0  0  0  0  0  0  0  0  0  0  0  0
    7.7758    0.7996    2.6651 H   0  0  0  0  0  0  0  0  0  0  0  0
    6.9660   -1.2908    2.8553 H   0  0  0  0  0  0  0  0  0  0  0  0
    8.1270   -1.8822    1.6366 H   0  0  0  0  0  0  0  0  0  0  0  0
    7.1991    2.0368    0.8910 H   0  0  0  0  0  0  0  0  0  0  0  0
    4.3987   -2.8322   -1.4961 H   0  0  0  0  0  0  0  0  0  0  0  0
   -5.7619   -0.5360    0.0982 H   0  0  0  0  0  0  0  0  0  0  0  0
   -3.8171   -1.3495   -1.4516 H   0  0  0  0  0  0  0  0  0  0  0  0
   -3.1284   -1.9116    0.1682 H   0  0  0  0  0  0  0  0  0  0  0  0
   -4.3406   -3.7523   -0.3193 H   0  0  0  0  0  0  0  0  0  0  0  0
   -5.6313   -2.8865   -1.2035 H   0  0  0  0  0  0  0  0  0  0  0  0
   -6.7503   -2.2260    0.6730 H   0  0  0  0  0  0  0  0  0  0  0  0
   -6.0921   -3.8092    1.1874 H   0  0  0  0  0  0  0  0  0  0  0  0
   -5.9382   -1.9369    2.8792 H   0  0  0  0  0  0  0  0  0  0  0  0
   -4.4392   -2.8518    2.6042 H   0  0  0  0  0  0  0  0  0  0  0  0
   -4.7617   -0.0389    2.5105 H   0  0  0  0  0  0  0  0  0  0  0  0
   -3.3675   -0.9763    1.9153 H   0  0  0  0  0  0  0  0  0  0  0  0
  1  2  1  0
  2  3  1  0
  2  4  1  0
  4  5  2  0
  4  6  1  0
  6  7  2  0
  7  8  1  0
  8  9  2  0
  9 10  1  0
 10 11  2  0
 11 12  1  0
 12 13  1  0
 13 14  2  0
 14 15  1  0
 15 16  2  0
 16 17  1  0
 17 18  1  0
 18 19  1  0
 19 20  1  0
 20 21  1  0
 21 22  1  0
 22 23  1  0
 23 24  1  0
 24 25  2  0
 22 26  1  0
 16 27  1  0
 27 28  2  0
 11 29  1  0
 29 30  2  0
 30 31  1  0
 31 32  1  0
 32 33  1  0
 33 34  1  0
 34 35  1  0
 35 36  1  0
 36 37  1  0
 31  6  1  0
 37 32  1  0
 30  8  1  0
 28 13  1  0
 24 17  1  0
 26 19  1  0
  1 38  1  0
  1 39  1  0
  1 40  1  0
  3 41  1  0
  3 42  1  0
  3 43  1  0
  7 44  1  0
  9 45  1  0
 12 46  1  0
 14 47  1  0
 15 48  1  0
 18 49  1  0
 18 50  1  0
 19 51  1  0
 20 52  1  0
 20 53  1  0
 21 54  1  0
 21 55  1  0
 22 56  1  0
 23 57  1  0
 23 58  1  0
 26 59  1  0
 27 60  1  0
 32 61  1  0
 33 62  1  0
 33 63  1  0
 34 64  1  0
 34 65  1  0
 35 66  1  0
 35 67  1  0
 36 68  1  0
 36 69  1  0
 37 70  1  0
 37 71  1  0
M  END
$$$$
