
     RDKit          3D

 36 37  0  0  0  0  0  0  0  0999 V2000
   -1.5951   -3.6153   -0.3391 C   0  0  0  0  0  0  0  0  0  0  0  0
   -1.1859   -2.2641   -0.4415 O   0  0  0  0  0  0  0  0  0  0  0  0
   -0.7736   -1.5965    0.7022 C   0  0  0  0  0  0  0  0  0  0  0  0
   -0.7867   -2.2390    1.7820 O   0  0  0  0  0  0  0  0  0  0  0  0
   -0.3295   -0.1578    0.6407 C   0  0  0  0  0  0  0  0  0  0  0  0
   -1.4514    0.6195    0.1377 C   0  0  0  0  0  0  0  0  0  0  0  0
   -2.0087    1.5792    0.9555 C   0  0  0  0  0  0  0  0  0  0  0  0
   -3.0690    2.3599    0.5655 C   0  0  0  0  0  0  0  0  0  0  0  0
   -3.5937    2.1686   -0.7027 C   0  0  0  0  0  0  0  0  0  0  0  0
   -4.9556    3.1456   -1.2514 Cl  0  0  0  0  0  0  0  0  0  0  0  0
   -3.0361    1.2029   -1.5310 C   0  0  0  0  0  0  0  0  0  0  0  0
   -1.9725    0.4296   -1.1217 C   0  0  0  0  0  0  0  0  0  0  0  0
    0.8957   -0.1335   -0.2312 C   0  0  0  0  0  0  0  0  0  0  0  0
    1.4962    1.1999   -0.4233 C   0  0  0  0  0  0  0  0  0  0  0  0
    2.7822    1.4325    0.3206 C   0  0  0  0  0  0  0  0  0  0  0  0
    3.7124    0.2758    0.3179 C   0  0  0  0  0  0  0  0  0  0  0  0
    3.0900   -0.9422   -0.3493 C   0  0  0  0  0  0  0  0  0  0  0  0
    1.8067   -1.1332    0.2974 N   0  0  0  0  0  0  0  0  0  0  0  0
   -0.9830   -4.1762   -1.0915 H   0  0  0  0  0  0  0  0  0  0  0  0
   -2.6454   -3.7717   -0.6204 H   0  0  0  0  0  0  0  0  0  0  0  0
   -1.3312   -4.0577    0.6417 H   0  0  0  0  0  0  0  0  0  0  0  0
   -0.0492    0.1302    1.6638 H   0  0  0  0  0  0  0  0  0  0  0  0
   -1.6170    1.7592    1.9715 H   0  0  0  0  0  0  0  0  0  0  0  0
   -3.4996    3.1160    1.2246 H   0  0  0  0  0  0  0  0  0  0  0  0
   -3.4825    1.0895   -2.5180 H   0  0  0  0  0  0  0  0  0  0  0  0
   -1.5618   -0.3231   -1.8090 H   0  0  0  0  0  0  0  0  0  0  0  0
    0.5690   -0.5339   -1.2367 H   0  0  0  0  0  0  0  0  0  0  0  0
    1.7211    1.3842   -1.5143 H   0  0  0  0  0  0  0  0  0  0  0  0
    0.8113    2.0459   -0.1406 H   0  0  0  0  0  0  0  0  0  0  0  0
    2.5375    1.7929    1.3299 H   0  0  0  0  0  0  0  0  0  0  0  0
    3.3096    2.2888   -0.1943 H   0  0  0  0  0  0  0  0  0  0  0  0
    3.8802   -0.0328    1.3914 H   0  0  0  0  0  0  0  0  0  0  0  0
    4.7077    0.4832   -0.0895 H   0  0  0  0  0  0  0  0  0  0  0  0
    2.9239   -0.6855   -1.4045 H   0  0  0  0  0  0  0  0  0  0  0  0
    3.7785   -1.7912   -0.2057 H   0  0  0  0  0  0  0  0  0  0  0  0
    1.9054   -1.0501    1.3437 H   0  0  0  0  0  0  0  0  0  0  0  0
  1  2  1  0
  2  3  1  0
  3  4  2  0
  3  5  1  0
  5  6  1  0
  6  7  2  0
  7  8  1  0
  8  9  2  0
  9 10  1  0
  9 11  1  0
 11 12  2  0
  5 13  1  0
 13 14  1  0
 14 15  1  0
 15 16  1  0
 16 17  1  0
 17 18  1  0
 12  6  1  0
 18 13  1  0
  1 19  1  0
  1 20  1  0
  1 21  1  0
  5 22  1  0
  7 23  1  0
  8 24  1  0
 11 25  1  0
 12 26  1  0
 13 27  1  0
 14 28  1  0
 14 29  1  0
 15 30  1  0
 15 31  1  0
 16 32  1  0
 16 33  1  0
 17 34  1  0
 17 35  1  0
 18 36  1  0
M  END
$$$$
