
     RDKit          3D

 56 60  0  0  0  0  0  0  0  0999 V2000
   -8.9736    1.3056    0.9438 C   0  0  0  0  0  0  0  0  0  0  0  0
   -8.0300    0.8511    0.0012 O   0  0  0  0  0  0  0  0  0  0  0  0
   -6.6967    0.7756    0.3693 C   0  0  0  0  0  0  0  0  0  0  0  0
   -6.2898    1.1373    1.6353 C   0  0  0  0  0  0  0  0  0  0  0  0
   -4.9453    1.0484    1.9680 C   0  0  0  0  0  0  0  0  0  0  0  0
   -4.5959    1.4125    3.2106 N   0  0  0  0  0  0  0  0  0  0  0  0
   -3.3176    1.3444    3.5710 C   0  0  0  0  0  0  0  0  0  0  0  0
   -2.3250    0.9044    2.6939 C   0  0  0  0  0  0  0  0  0  0  0  0
   -2.6308    0.5173    1.4023 C   0  0  0  0  0  0  0  0  0  0  0  0
   -1.8091    0.0837    0.4675 O   0  0  0  0  0  0  0  0  0  0  0  0
   -0.5562   -0.2015    0.1432 C   0  0  0  0  0  0  0  0  0  0  0  0
    0.5658   -0.0619    0.9676 C   0  0  0  0  0  0  0  0  0  0  0  0
    1.8470   -0.3897    0.5364 C   0  0  0  0  0  0  0  0  0  0  0  0
    2.0312   -0.8665   -0.7369 C   0  0  0  0  0  0  0  0  0  0  0  0
    3.3075   -1.1849   -1.1406 C   0  0  0  0  0  0  0  0  0  0  0  0
    4.4873   -1.0416   -0.2852 C   0  0  0  0  0  0  0  0  0  0  0  0
    4.6099   -1.5751    0.8454 O   0  0  0  0  0  0  0  0  0  0  0  0
    5.5689   -0.2490   -0.7576 N   0  0  0  0  0  0  0  0  0  0  0  0
    6.7233   -0.0892    0.0431 C   0  0  0  0  0  0  0  0  0  0  0  0
    7.8122   -0.9309    0.0046 C   0  0  0  0  0  0  0  0  0  0  0  0
    8.9219   -0.7020    0.8280 C   0  0  0  0  0  0  0  0  0  0  0  0
    8.9398    0.3743    1.6932 C   0  0  0  0  0  0  0  0  0  0  0  0
   10.3628    0.6292    2.7182 Cl  0  0  0  0  0  0  0  0  0  0  0  0
    7.8660    1.2082    1.7342 C   0  0  0  0  0  0  0  0  0  0  0  0
    6.7723    0.9742    0.9160 C   0  0  0  0  0  0  0  0  0  0  0  0
    3.4462   -1.6685   -2.4480 C   0  0  0  0  0  0  0  0  0  0  0  0
    2.3666   -1.8199   -3.2907 C   0  0  0  0  0  0  0  0  0  0  0  0
    1.1158   -1.4990   -2.8702 C   0  0  0  0  0  0  0  0  0  0  0  0
    0.9282   -1.0136   -1.5759 C   0  0  0  0  0  0  0  0  0  0  0  0
   -0.3269   -0.6944   -1.1586 C   0  0  0  0  0  0  0  0  0  0  0  0
   -1.3919   -0.8367   -1.9671 F   0  0  0  0  0  0  0  0  0  0  0  0
   -4.0085    0.6111    1.0747 C   0  0  0  0  0  0  0  0  0  0  0  0
   -4.4082    0.2481   -0.1921 C   0  0  0  0  0  0  0  0  0  0  0  0
   -5.7595    0.3291   -0.5517 C   0  0  0  0  0  0  0  0  0  0  0  0
   -6.1893   -0.0288   -1.8167 O   0  0  0  0  0  0  0  0  0  0  0  0
   -5.2371   -0.4821   -2.7539 C   0  0  0  0  0  0  0  0  0  0  0  0
   -9.9942    1.3409    0.5558 H   0  0  0  0  0  0  0  0  0  0  0  0
   -8.7011    2.3310    1.2657 H   0  0  0  0  0  0  0  0  0  0  0  0
   -8.9397    0.6327    1.8105 H   0  0  0  0  0  0  0  0  0  0  0  0
   -7.0110    1.4866    2.3595 H   0  0  0  0  0  0  0  0  0  0  0  0
   -3.0049    1.6341    4.5743 H   0  0  0  0  0  0  0  0  0  0  0  0
   -1.3111    0.8710    3.0464 H   0  0  0  0  0  0  0  0  0  0  0  0
    0.4890    0.3012    1.9591 H   0  0  0  0  0  0  0  0  0  0  0  0
    2.7118   -0.2813    1.1708 H   0  0  0  0  0  0  0  0  0  0  0  0
    5.5175    0.2261   -1.7094 H   0  0  0  0  0  0  0  0  0  0  0  0
    7.8131   -1.7628   -0.6544 H   0  0  0  0  0  0  0  0  0  0  0  0
    9.7810   -1.3559    0.8047 H   0  0  0  0  0  0  0  0  0  0  0  0
    7.8880    2.0632    2.4250 H   0  0  0  0  0  0  0  0  0  0  0  0
    5.9511    1.6581    0.9833 H   0  0  0  0  0  0  0  0  0  0  0  0
    4.4518   -1.9198   -2.7658 H   0  0  0  0  0  0  0  0  0  0  0  0
    2.5334   -2.2020   -4.3024 H   0  0  0  0  0  0  0  0  0  0  0  0
    0.2305   -1.5962   -3.4869 H   0  0  0  0  0  0  0  0  0  0  0  0
   -3.6926   -0.0925   -0.8952 H   0  0  0  0  0  0  0  0  0  0  0  0
   -4.7142   -1.3448   -2.2956 H   0  0  0  0  0  0  0  0  0  0  0  0
   -4.4847    0.3437   -2.9204 H   0  0  0  0  0  0  0  0  0  0  0  0
   -5.6951   -0.7525   -3.7212 H   0  0  0  0  0  0  0  0  0  0  0  0
  1  2  1  0
  2  3  1  0
  3  4  2  0
  4  5  1  0
  5  6  2  0
  6  7  1  0
  7  8  2  0
  8  9  1  0
  9 10  1  0
 10 11  1  0
 11 12  2  0
 12 13  1  0
 13 14  2  0
 14 15  1  0
 15 16  1  0
 16 17  2  0
 16 18  1  0
 18 19  1  0
 19 20  2  0
 20 21  1  0
 21 22  2  0
 22 23  1  0
 22 24  1  0
 24 25  2  0
 15 26  2  0
 26 27  1  0
 27 28  2  0
 28 29  1  0
 29 30  2  0
 30 31  1  0
  9 32  2  0
 32 33  1  0
 33 34  2  0
 34 35  1  0
 35 36  1  0
 34  3  1  0
 32  5  1  0
 30 11  1  0
 29 14  1  0
 25 19  1  0
  1 37  1  0
  1 38  1  0
  1 39  1  0
  4 40  1  0
  7 41  1  0
  8 42  1  0
 12 43  1  0
 13 44  1  0
 18 45  1  0
 20 46  1  0
 21 47  1  0
 24 48  1  0
 25 49  1  0
 26 50  1  0
 27 51  1  0
 28 52  1  0
 33 53  1  0
 36 54  1  0
 36 55  1  0
 36 56  1  0
M  END
$$$$
