
     RDKit          3D

 67 68  0  0  0  0  0  0  0  0999 V2000
   -1.5719   -3.2789   -0.5907 C   0  0  2  0  0  0  0  0  0  0  0  0
   -1.7135   -4.5991   -1.0079 O   0  0  0  0  0  0  0  0  0  0  0  0
   -2.2965   -2.3853   -1.5825 C   0  0  0  0  0  0  0  0  0  0  0  0
   -1.9260   -0.9552   -1.4841 C   0  0  1  0  0  0  0  0  0  0  0  0
   -2.6320   -0.1846   -0.5988 O   0  0  0  0  0  0  0  0  0  0  0  0
   -3.4257    0.8053   -1.0578 C   0  0  2  0  0  0  0  0  0  0  0  0
   -2.8666    2.0634   -0.7322 O   0  0  0  0  0  0  0  0  0  0  0  0
   -2.8691    2.2508    0.6419 C   0  0  1  0  0  0  0  0  0  0  0  0
   -1.9264    3.3138    1.0917 C   0  0  0  0  0  0  0  0  0  0  0  0
   -4.2650    2.4915    1.1295 C   0  0  1  0  0  0  0  0  0  0  0  0
   -4.3998    3.8495    1.3410 O   0  0  0  0  0  0  0  0  0  0  0  0
   -5.2883    1.9560    0.1494 C   0  0  1  0  0  0  0  0  0  0  0  0
   -5.6740    2.9059   -0.7775 O   0  0  0  0  0  0  0  0  0  0  0  0
   -4.7970    0.6718   -0.4843 C   0  0  2  0  0  0  0  0  0  0  0  0
   -4.8179   -0.3163    0.4998 O   0  0  0  0  0  0  0  0  0  0  0  0
   -0.4266   -0.7790   -1.3503 C   0  0  2  0  0  0  0  0  0  0  0  0
    0.0830    0.2085   -2.1075 O   0  0  0  0  0  0  0  0  0  0  0  0
    0.5899    1.3428   -1.6430 C   0  0  0  0  0  0  0  0  0  0  0  0
    1.7859    1.2351   -0.6974 C   0  0  0  0  0  0  0  0  0  0  0  0
    2.8836    0.5398   -1.4433 C   0  0  0  0  0  0  0  0  0  0  0  0
    4.1524    0.3690   -0.6194 C   0  0  0  0  0  0  0  0  0  0  0  0
    3.9271   -0.4419    0.6074 C   0  0  0  0  0  0  0  0  0  0  0  0
    5.1948   -0.6124    1.3862 C   0  0  0  0  0  0  0  0  0  0  0  0
    5.7724    0.7008    1.8369 C   0  0  0  0  0  0  0  0  0  0  0  0
    7.0448    0.4385    2.6292 C   0  0  0  0  0  0  0  0  0  0  0  0
    0.1960   -1.9849   -1.5445 O   0  0  0  0  0  0  0  0  0  0  0  0
   -0.0894   -2.9654   -0.6041 C   0  0  2  0  0  0  0  0  0  0  0  0
    0.7309   -4.2082   -0.8680 C   0  0  0  0  0  0  0  0  0  0  0  0
    0.4334   -5.1955    0.0880 O   0  0  0  0  0  0  0  0  0  0  0  0
   -1.9760   -3.1927    0.4184 H   0  0  0  0  0  0  0  0  0  0  0  0
   -2.6791   -4.8532   -0.8906 H   0  0  0  0  0  0  0  0  0  0  0  0
   -3.3752   -2.5994   -1.4584 H   0  0  0  0  0  0  0  0  0  0  0  0
   -2.0537   -2.8220   -2.6004 H   0  0  0  0  0  0  0  0  0  0  0  0
   -2.1838   -0.5227   -2.5013 H   0  0  0  0  0  0  0  0  0  0  0  0
   -3.4689    0.8052   -2.1622 H   0  0  0  0  0  0  0  0  0  0  0  0
   -2.5138    1.2983    1.0853 H   0  0  0  0  0  0  0  0  0  0  0  0
   -1.4169    3.8044    0.2190 H   0  0  0  0  0  0  0  0  0  0  0  0
   -2.4062    4.1018    1.6996 H   0  0  0  0  0  0  0  0  0  0  0  0
   -1.0843    2.9120    1.7303 H   0  0  0  0  0  0  0  0  0  0  0  0
   -4.4266    1.9819    2.1037 H   0  0  0  0  0  0  0  0  0  0  0  0
   -4.4688    4.0911    2.3158 H   0  0  0  0  0  0  0  0  0  0  0  0
   -6.1872    1.6876    0.7451 H   0  0  0  0  0  0  0  0  0  0  0  0
   -6.3133    3.5468   -0.3808 H   0  0  0  0  0  0  0  0  0  0  0  0
   -5.5061    0.3816   -1.2701 H   0  0  0  0  0  0  0  0  0  0  0  0
   -5.4721   -0.0703    1.1850 H   0  0  0  0  0  0  0  0  0  0  0  0
   -0.2019   -0.4744   -0.2626 H   0  0  0  0  0  0  0  0  0  0  0  0
   -0.2132    1.8723   -1.0360 H   0  0  0  0  0  0  0  0  0  0  0  0
    0.9000    2.0890   -2.4123 H   0  0  0  0  0  0  0  0  0  0  0  0
    2.1453    2.3052   -0.5840 H   0  0  0  0  0  0  0  0  0  0  0  0
    1.5198    0.7873    0.2591 H   0  0  0  0  0  0  0  0  0  0  0  0
    3.1689    1.2306   -2.2925 H   0  0  0  0  0  0  0  0  0  0  0  0
    2.5612   -0.4191   -1.8713 H   0  0  0  0  0  0  0  0  0  0  0  0
    4.8722   -0.1725   -1.2631 H   0  0  0  0  0  0  0  0  0  0  0  0
    4.5903    1.3805   -0.4248 H   0  0  0  0  0  0  0  0  0  0  0  0
    3.1492    0.1028    1.2143 H   0  0  0  0  0  0  0  0  0  0  0  0
    3.5181   -1.4204    0.2904 H   0  0  0  0  0  0  0  0  0  0  0  0
    5.9897   -1.1278    0.8104 H   0  0  0  0  0  0  0  0  0  0  0  0
    4.9729   -1.2799    2.2667 H   0  0  0  0  0  0  0  0  0  0  0  0
    5.0705    1.2988    2.4597 H   0  0  0  0  0  0  0  0  0  0  0  0
    6.0600    1.2752    0.9129 H   0  0  0  0  0  0  0  0  0  0  0  0
    7.3389   -0.6208    2.4908 H   0  0  0  0  0  0  0  0  0  0  0  0
    6.8272    0.6316    3.6998 H   0  0  0  0  0  0  0  0  0  0  0  0
    7.8344    1.1250    2.2968 H   0  0  0  0  0  0  0  0  0  0  0  0
    0.1856   -2.5860    0.3902 H   0  0  0  0  0  0  0  0  0  0  0  0
    1.8019   -3.9780   -0.7513 H   0  0  0  0  0  0  0  0  0  0  0  0
    0.5297   -4.6551   -1.8636 H   0  0  0  0  0  0  0  0  0  0  0  0
    1.1028   -5.1508    0.8434 H   0  0  0  0  0  0  0  0  0  0  0  0
  1  2  1  0
  1  3  1  0
  3  4  1  0
  4  5  1  0
  5  6  1  0
  6  7  1  0
  7  8  1  0
  8  9  1  0
  8 10  1  0
 10 11  1  0
 10 12  1  0
 12 13  1  0
 12 14  1  0
 14 15  1  0
  4 16  1  0
 16 17  1  0
 17 18  1  0
 18 19  1  0
 19 20  1  0
 20 21  1  0
 21 22  1  0
 22 23  1  0
 23 24  1  0
 24 25  1  0
 16 26  1  0
 26 27  1  0
 27 28  1  0
 28 29  1  0
 27  1  1  0
 14  6  1  0
  1 30  1  1
  2 31  1  0
  3 32  1  0
  3 33  1  0
  4 34  1  6
  6 35  1  6
  8 36  1  1
  9 37  1  0
  9 38  1  0
  9 39  1  0
 10 40  1  1
 11 41  1  0
 12 42  1  1
 13 43  1  0
 14 44  1  6
 15 45  1  0
 16 46  1  1
 18 47  1  0
 18 48  1  0
 19 49  1  0
 19 50  1  0
 20 51  1  0
 20 52  1  0
 21 53  1  0
 21 54  1  0
 22 55  1  0
 22 56  1  0
 23 57  1  0
 23 58  1  0
 24 59  1  0
 24 60  1  0
 25 61  1  0
 25 62  1  0
 25 63  1  0
 27 64  1  1
 28 65  1  0
 28 66  1  0
 29 67  1  0
M  END
$$$$
