
     RDKit          3D

 63 66  0  0  0  0  0  0  0  0999 V2000
   -8.9542    3.2376   -0.4723 C   0  0  0  0  0  0  0  0  0  0  0  0
   -8.9287    1.9139    0.2567 C   0  0  0  0  0  0  0  0  0  0  0  0
   -7.5354    1.6588    0.8057 C   0  0  0  0  0  0  0  0  0  0  0  0
   -7.5515    0.3192    1.5312 C   0  0  0  0  0  0  0  0  0  0  0  0
   -6.1678    0.0573    2.0814 C   0  0  0  0  0  0  0  0  0  0  0  0
   -5.1366    0.0107    0.9961 C   0  0  0  0  0  0  0  0  0  0  0  0
   -5.4636   -1.0836    0.0277 C   0  0  0  0  0  0  0  0  0  0  0  0
   -4.4960   -1.1791   -1.0485 N   0  0  0  0  0  0  0  0  0  0  0  0
   -3.1251   -1.4398   -0.8341 C   0  0  0  0  0  0  0  0  0  0  0  0
   -2.6787   -1.6039    0.3274 O   0  0  0  0  0  0  0  0  0  0  0  0
   -2.2109   -1.5269   -1.8866 O   0  0  0  0  0  0  0  0  0  0  0  0
   -0.8648   -1.7812   -1.6993 C   0  0  0  0  0  0  0  0  0  0  0  0
   -0.4447   -3.0936   -1.6975 C   0  0  0  0  0  0  0  0  0  0  0  0
    0.8938   -3.3946   -1.5135 C   0  0  0  0  0  0  0  0  0  0  0  0
    1.8459   -2.4171   -1.3278 C   0  0  0  0  0  0  0  0  0  0  0  0
    3.2224   -2.6826   -1.1365 N   0  0  0  0  0  0  0  0  0  0  0  0
    3.9781   -2.5301   -0.0356 C   0  0  0  0  0  0  0  0  0  0  0  0
    5.2788   -2.9039   -0.2662 C   0  0  0  0  0  0  0  0  0  0  0  0
    6.4715   -2.9188    0.5933 C   0  0  0  0  0  0  0  0  0  0  0  0
    7.2594   -1.8308    0.4298 O   0  0  0  0  0  0  0  0  0  0  0  0
    7.1042   -0.5314    0.6407 C   0  0  0  0  0  0  0  0  0  0  0  0
    5.9985    0.0723    1.1523 C   0  0  0  0  0  0  0  0  0  0  0  0
    5.8995    1.4577    1.3457 C   0  0  0  0  0  0  0  0  0  0  0  0
    6.9902    2.2419    0.9951 C   0  0  0  0  0  0  0  0  0  0  0  0
    6.9697    3.6111    1.1556 C   0  0  0  0  0  0  0  0  0  0  0  0
    8.0807    4.3269    0.7897 C   0  0  0  0  0  0  0  0  0  0  0  0
    9.1933    3.7056    0.2745 C   0  0  0  0  0  0  0  0  0  0  0  0
   10.2024    4.3980   -0.0531 O   0  0  0  0  0  0  0  0  0  0  0  0
    9.1647    2.4137    0.1422 O   0  0  0  0  0  0  0  0  0  0  0  0
    8.1202    1.6510    0.4762 C   0  0  0  0  0  0  0  0  0  0  0  0
    8.1846    0.3025    0.3003 C   0  0  0  0  0  0  0  0  0  0  0  0
    5.2548   -3.2941   -1.5876 N   0  0  0  0  0  0  0  0  0  0  0  0
    4.0439   -3.1507   -2.0566 N   0  0  0  0  0  0  0  0  0  0  0  0
    1.4148   -1.1027   -1.3311 C   0  0  0  0  0  0  0  0  0  0  0  0
    0.0829   -0.8017   -1.5141 C   0  0  0  0  0  0  0  0  0  0  0  0
   -9.2195    4.0615    0.2120 H   0  0  0  0  0  0  0  0  0  0  0  0
   -9.7537    3.1774   -1.2622 H   0  0  0  0  0  0  0  0  0  0  0  0
   -8.0076    3.4329   -1.0253 H   0  0  0  0  0  0  0  0  0  0  0  0
   -9.6360    2.0091    1.1116 H   0  0  0  0  0  0  0  0  0  0  0  0
   -9.2779    1.1298   -0.4146 H   0  0  0  0  0  0  0  0  0  0  0  0
   -6.8553    1.6516   -0.0654 H   0  0  0  0  0  0  0  0  0  0  0  0
   -7.3010    2.4446    1.5385 H   0  0  0  0  0  0  0  0  0  0  0  0
   -8.2270    0.4619    2.4175 H   0  0  0  0  0  0  0  0  0  0  0  0
   -7.9412   -0.5016    0.9330 H   0  0  0  0  0  0  0  0  0  0  0  0
   -5.9612    0.9183    2.7836 H   0  0  0  0  0  0  0  0  0  0  0  0
   -6.1534   -0.8582    2.7021 H   0  0  0  0  0  0  0  0  0  0  0  0
   -4.1671   -0.2316    1.4786 H   0  0  0  0  0  0  0  0  0  0  0  0
   -5.0121    0.9580    0.4624 H   0  0  0  0  0  0  0  0  0  0  0  0
   -5.4036   -2.0771    0.5609 H   0  0  0  0  0  0  0  0  0  0  0  0
   -6.4870   -0.9963   -0.3889 H   0  0  0  0  0  0  0  0  0  0  0  0
   -4.8441   -1.0457   -2.0318 H   0  0  0  0  0  0  0  0  0  0  0  0
   -1.1867   -3.8870   -1.8437 H   0  0  0  0  0  0  0  0  0  0  0  0
    1.2345   -4.4181   -1.5102 H   0  0  0  0  0  0  0  0  0  0  0  0
    3.5657   -2.1619    0.8922 H   0  0  0  0  0  0  0  0  0  0  0  0
    6.1886   -3.0079    1.6816 H   0  0  0  0  0  0  0  0  0  0  0  0
    7.0530   -3.8515    0.3121 H   0  0  0  0  0  0  0  0  0  0  0  0
    5.1517   -0.5151    1.4495 H   0  0  0  0  0  0  0  0  0  0  0  0
    5.0274    1.9258    1.7475 H   0  0  0  0  0  0  0  0  0  0  0  0
    6.0735    4.0531    1.5642 H   0  0  0  0  0  0  0  0  0  0  0  0
    8.0808    5.4137    0.9106 H   0  0  0  0  0  0  0  0  0  0  0  0
    9.0823   -0.1391   -0.1088 H   0  0  0  0  0  0  0  0  0  0  0  0
    2.1193   -0.2846   -1.1893 H   0  0  0  0  0  0  0  0  0  0  0  0
   -0.2387    0.2264   -1.5144 H   0  0  0  0  0  0  0  0  0  0  0  0
  1  2  1  0
  2  3  1  0
  3  4  1  0
  4  5  1  0
  5  6  1  0
  6  7  1  0
  7  8  1  0
  8  9  1  0
  9 10  2  0
  9 11  1  0
 11 12  1  0
 12 13  2  0
 13 14  1  0
 14 15  2  0
 15 16  1  0
 16 17  1  0
 17 18  2  0
 18 19  1  0
 19 20  1  0
 20 21  1  0
 21 22  2  0
 22 23  1  0
 23 24  2  0
 24 25  1  0
 25 26  2  0
 26 27  1  0
 27 28  2  0
 27 29  1  0
 29 30  1  0
 30 31  2  0
 18 32  1  0
 32 33  2  0
 15 34  1  0
 34 35  2  0
 35 12  1  0
 33 16  1  0
 31 21  1  0
 30 24  1  0
  1 36  1  0
  1 37  1  0
  1 38  1  0
  2 39  1  0
  2 40  1  0
  3 41  1  0
  3 42  1  0
  4 43  1  0
  4 44  1  0
  5 45  1  0
  5 46  1  0
  6 47  1  0
  6 48  1  0
  7 49  1  0
  7 50  1  0
  8 51  1  0
 13 52  1  0
 14 53  1  0
 17 54  1  0
 19 55  1  0
 19 56  1  0
 22 57  1  0
 23 58  1  0
 25 59  1  0
 26 60  1  0
 31 61  1  0
 34 62  1  0
 35 63  1  0
M  END
$$$$
