
     RDKit          3D

 52 54  0  0  0  0  0  0  0  0999 V2000
   -0.7344   -1.0617   -3.8286 C   0  0  0  0  0  0  0  0  0  0  0  0
   -0.3723   -1.4955   -2.4382 C   0  0  0  0  0  0  0  0  0  0  0  0
   -0.4316   -2.9935   -2.3261 C   0  0  0  0  0  0  0  0  0  0  0  0
    1.0556   -1.0518   -2.1960 C   0  0  0  0  0  0  0  0  0  0  0  0
    2.0009   -1.1920   -3.0467 O   0  0  0  0  0  0  0  0  0  0  0  0
    1.1658   -0.4719   -0.9073 N   0  0  0  0  0  0  0  0  0  0  0  0
    2.3875    0.1933   -0.4066 C   0  0  0  0  0  0  0  0  0  0  0  0
    2.1271    1.6455   -0.1883 C   0  0  0  0  0  0  0  0  0  0  0  0
    3.4308    2.4082   -0.4760 C   0  0  0  0  0  0  0  0  0  0  0  0
    4.5388    1.6914    0.2772 C   0  0  0  0  0  0  0  0  0  0  0  0
    4.0731    1.4971    1.6802 C   0  0  0  0  0  0  0  0  0  0  0  0
    3.3212    0.2386    1.9438 C   0  0  0  0  0  0  0  0  0  0  0  0
    2.9349   -0.5595    0.7487 C   0  0  0  0  0  0  0  0  0  0  0  0
   -0.0793   -0.6516   -0.2259 C   0  0  0  0  0  0  0  0  0  0  0  0
   -1.0763   -0.7400   -1.3602 C   0  0  0  0  0  0  0  0  0  0  0  0
   -2.4079   -1.3337   -0.9378 C   0  0  0  0  0  0  0  0  0  0  0  0
   -3.0694   -0.7148   -0.0035 O   0  0  0  0  0  0  0  0  0  0  0  0
   -3.7266   -0.0984    0.9233 C   0  0  0  0  0  0  0  0  0  0  0  0
   -4.0718   -0.7082    2.1502 C   0  0  0  0  0  0  0  0  0  0  0  0
   -4.7559   -0.1036    3.1438 C   0  0  0  0  0  0  0  0  0  0  0  0
   -5.1504    1.2047    2.9561 C   0  0  0  0  0  0  0  0  0  0  0  0
   -5.8808    1.8862    3.9792 C   0  0  0  0  0  0  0  0  0  0  0  0
   -6.4632    2.4292    4.8101 N   0  0  0  0  0  0  0  0  0  0  0  0
   -4.8230    1.8171    1.7655 C   0  0  0  0  0  0  0  0  0  0  0  0
   -4.1542    1.2038    0.8122 N   0  0  0  0  0  0  0  0  0  0  0  0
   -1.8040   -0.8144   -3.9559 H   0  0  0  0  0  0  0  0  0  0  0  0
   -0.4176   -1.8660   -4.5274 H   0  0  0  0  0  0  0  0  0  0  0  0
   -0.1001   -0.1852   -4.1055 H   0  0  0  0  0  0  0  0  0  0  0  0
   -0.5505   -3.3233   -1.2957 H   0  0  0  0  0  0  0  0  0  0  0  0
   -1.1484   -3.3509   -3.0605 H   0  0  0  0  0  0  0  0  0  0  0  0
    0.5674   -3.3778   -2.6517 H   0  0  0  0  0  0  0  0  0  0  0  0
    3.1777    0.1470   -1.2177 H   0  0  0  0  0  0  0  0  0  0  0  0
    1.7704    1.9223    0.8193 H   0  0  0  0  0  0  0  0  0  0  0  0
    1.4216    1.9904   -0.9907 H   0  0  0  0  0  0  0  0  0  0  0  0
    3.6051    2.4008   -1.5702 H   0  0  0  0  0  0  0  0  0  0  0  0
    3.3633    3.4214   -0.0881 H   0  0  0  0  0  0  0  0  0  0  0  0
    5.4120    2.3822    0.2767 H   0  0  0  0  0  0  0  0  0  0  0  0
    4.8577    0.7689   -0.2195 H   0  0  0  0  0  0  0  0  0  0  0  0
    4.9797    1.6102    2.3454 H   0  0  0  0  0  0  0  0  0  0  0  0
    3.4108    2.3768    1.9377 H   0  0  0  0  0  0  0  0  0  0  0  0
    2.4367    0.3823    2.6101 H   0  0  0  0  0  0  0  0  0  0  0  0
    4.0042   -0.4139    2.5657 H   0  0  0  0  0  0  0  0  0  0  0  0
    2.1849   -1.3219    1.1039 H   0  0  0  0  0  0  0  0  0  0  0  0
    3.8243   -1.1981    0.4653 H   0  0  0  0  0  0  0  0  0  0  0  0
   -0.1102   -1.6108    0.3609 H   0  0  0  0  0  0  0  0  0  0  0  0
   -0.3272    0.1390    0.5101 H   0  0  0  0  0  0  0  0  0  0  0  0
   -1.2865    0.2890   -1.7217 H   0  0  0  0  0  0  0  0  0  0  0  0
   -2.1514   -2.3980   -0.6091 H   0  0  0  0  0  0  0  0  0  0  0  0
   -3.0242   -1.5294   -1.8873 H   0  0  0  0  0  0  0  0  0  0  0  0
   -3.7478   -1.7472    2.2774 H   0  0  0  0  0  0  0  0  0  0  0  0
   -5.0169   -0.5917    4.0930 H   0  0  0  0  0  0  0  0  0  0  0  0
   -5.1697    2.8591    1.6862 H   0  0  0  0  0  0  0  0  0  0  0  0
  1  2  1  0
  2  3  1  0
  2  4  1  0
  4  5  2  0
  4  6  1  0
  6  7  1  0
  7  8  1  0
  8  9  1  0
  9 10  1  0
 10 11  1  0
 11 12  1  0
 12 13  1  0
  6 14  1  0
 14 15  1  0
 15 16  1  0
 16 17  1  0
 17 18  1  0
 18 19  2  0
 19 20  1  0
 20 21  2  0
 21 22  1  0
 22 23  3  0
 21 24  1  0
 24 25  2  0
 15  2  1  0
 25 18  1  0
 13  7  1  0
  1 26  1  0
  1 27  1  0
  1 28  1  0
  3 29  1  0
  3 30  1  0
  3 31  1  0
  7 32  1  0
  8 33  1  0
  8 34  1  0
  9 35  1  0
  9 36  1  0
 10 37  1  0
 10 38  1  0
 11 39  1  0
 11 40  1  0
 12 41  1  0
 12 42  1  0
 13 43  1  0
 13 44  1  0
 14 45  1  0
 14 46  1  0
 15 47  1  0
 16 48  1  0
 16 49  1  0
 19 50  1  0
 20 51  1  0
 24 52  1  0
M  END
$$$$
