
     RDKit          3D

 52 56  0  0  0  0  0  0  0  0999 V2000
   -6.0631    3.1327    0.8483 C   0  0  0  0  0  0  0  0  0  0  0  0
   -5.4091    2.7592   -0.3387 O   0  0  0  0  0  0  0  0  0  0  0  0
   -4.2082    2.0704   -0.3393 C   0  0  0  0  0  0  0  0  0  0  0  0
   -3.5512    1.6918    0.8094 C   0  0  0  0  0  0  0  0  0  0  0  0
   -2.3560    1.0064    0.7955 C   0  0  0  0  0  0  0  0  0  0  0  0
   -1.8005    0.6896   -0.4112 C   0  0  0  0  0  0  0  0  0  0  0  0
   -0.5159   -0.0460   -0.5521 C   0  0  0  0  0  0  0  0  0  0  0  0
    0.6530    0.8120   -0.2536 C   0  0  0  0  0  0  0  0  0  0  0  0
    0.4909    2.1111    0.1671 C   0  0  0  0  0  0  0  0  0  0  0  0
    1.5970    2.9236    0.4527 C   0  0  0  0  0  0  0  0  0  0  0  0
    2.8730    2.4226    0.3131 C   0  0  0  0  0  0  0  0  0  0  0  0
    3.0474    1.1210   -0.1083 C   0  0  0  0  0  0  0  0  0  0  0  0
    4.4088    0.5635   -0.2645 C   0  0  0  0  0  0  0  0  0  0  0  0
    5.4288    0.9870    0.5516 C   0  0  0  0  0  0  0  0  0  0  0  0
    6.6657    0.5075    0.4391 N   0  0  0  0  0  0  0  0  0  0  0  0
    6.9234   -0.4171   -0.4995 C   0  0  0  0  0  0  0  0  0  0  0  0
    5.9365   -0.8570   -1.3226 N   0  0  0  0  0  0  0  0  0  0  0  0
    4.6812   -0.3849   -1.2247 C   0  0  0  0  0  0  0  0  0  0  0  0
    1.9376    0.3317   -0.3864 C   0  0  0  0  0  0  0  0  0  0  0  0
   -0.4217   -0.6144   -1.8661 N   0  0  0  0  0  0  0  0  0  0  0  0
   -0.4412   -1.8917   -1.8348 C   0  0  0  0  0  0  0  0  0  0  0  0
   -0.3646   -2.7459   -2.9763 N   0  0  0  0  0  0  0  0  0  0  0  0
   -0.5470   -2.3624   -0.4980 N   0  0  0  0  0  0  0  0  0  0  0  0
   -0.6099   -3.7216    0.0509 C   0  0  0  0  0  0  0  0  0  0  0  0
    0.0822   -3.6701    1.3943 C   0  0  0  0  0  0  0  0  0  0  0  0
   -0.7467   -2.7036    2.2409 C   0  0  0  0  0  0  0  0  0  0  0  0
   -0.6889   -1.3636    1.6370 N   0  0  0  0  0  0  0  0  0  0  0  0
   -0.5932   -1.2233    0.3363 C   0  0  0  0  0  0  0  0  0  0  0  0
   -2.4571    1.0680   -1.5680 C   0  0  0  0  0  0  0  0  0  0  0  0
   -3.6396    1.7461   -1.5494 C   0  0  0  0  0  0  0  0  0  0  0  0
   -6.5868    2.2448    1.2595 H   0  0  0  0  0  0  0  0  0  0  0  0
   -6.7621    3.9847    0.6805 H   0  0  0  0  0  0  0  0  0  0  0  0
   -5.2953    3.5198    1.5546 H   0  0  0  0  0  0  0  0  0  0  0  0
   -4.0108    1.9537    1.7748 H   0  0  0  0  0  0  0  0  0  0  0  0
   -1.8550    0.7176    1.7201 H   0  0  0  0  0  0  0  0  0  0  0  0
   -0.5061    2.5121    0.2772 H   0  0  0  0  0  0  0  0  0  0  0  0
    1.3828    3.9313    0.7775 H   0  0  0  0  0  0  0  0  0  0  0  0
    3.7087    3.0675    0.5391 H   0  0  0  0  0  0  0  0  0  0  0  0
    5.2000    1.7313    1.3001 H   0  0  0  0  0  0  0  0  0  0  0  0
    7.9379   -0.7941   -0.5738 H   0  0  0  0  0  0  0  0  0  0  0  0
    3.8740   -0.7346   -1.8868 H   0  0  0  0  0  0  0  0  0  0  0  0
    2.1398   -0.6902   -0.7161 H   0  0  0  0  0  0  0  0  0  0  0  0
    0.1216   -3.6608   -2.8833 H   0  0  0  0  0  0  0  0  0  0  0  0
   -0.7696   -2.5051   -3.9027 H   0  0  0  0  0  0  0  0  0  0  0  0
   -1.6753   -3.9996    0.1629 H   0  0  0  0  0  0  0  0  0  0  0  0
   -0.1102   -4.4176   -0.6507 H   0  0  0  0  0  0  0  0  0  0  0  0
    0.0810   -4.6257    1.9282 H   0  0  0  0  0  0  0  0  0  0  0  0
    1.0874   -3.2527    1.2306 H   0  0  0  0  0  0  0  0  0  0  0  0
   -1.7895   -3.0754    2.2466 H   0  0  0  0  0  0  0  0  0  0  0  0
   -0.3852   -2.6678    3.2807 H   0  0  0  0  0  0  0  0  0  0  0  0
   -1.9965    0.8051   -2.5334 H   0  0  0  0  0  0  0  0  0  0  0  0
   -4.1027    2.0132   -2.5028 H   0  0  0  0  0  0  0  0  0  0  0  0
  1  2  1  0
  2  3  1  0
  3  4  2  0
  4  5  1  0
  5  6  2  0
  6  7  1  0
  7  8  1  0
  8  9  2  0
  9 10  1  0
 10 11  2  0
 11 12  1  0
 12 13  1  0
 13 14  2  0
 14 15  1  0
 15 16  2  0
 16 17  1  0
 17 18  2  0
 12 19  2  0
  7 20  1  0
 20 21  2  0
 21 22  1  0
 21 23  1  0
 23 24  1  0
 24 25  1  0
 25 26  1  0
 26 27  1  0
 27 28  2  0
  6 29  1  0
 29 30  2  0
 30  3  1  0
 28  7  1  0
 19  8  1  0
 28 23  1  0
 18 13  1  0
  1 31  1  0
  1 32  1  0
  1 33  1  0
  4 34  1  0
  5 35  1  0
  9 36  1  0
 10 37  1  0
 11 38  1  0
 14 39  1  0
 16 40  1  0
 18 41  1  0
 19 42  1  0
 22 43  1  0
 22 44  1  0
 24 45  1  0
 24 46  1  0
 25 47  1  0
 25 48  1  0
 26 49  1  0
 26 50  1  0
 29 51  1  0
 30 52  1  0
M  END
$$$$
