
     RDKit          3D

 50 53  0  0  0  0  0  0  0  0999 V2000
   -7.1214    3.5711    0.1904 N   0  0  0  0  0  0  0  0  0  0  0  0
   -7.5254    2.4941   -0.6181 C   0  0  0  0  0  0  0  0  0  0  0  0
   -8.4355    2.5835   -1.4618 O   0  0  0  0  0  0  0  0  0  0  0  0
   -6.8506    1.1908   -0.4729 C   0  0  0  0  0  0  0  0  0  0  0  0
   -7.2419    0.1307   -1.2623 C   0  0  0  0  0  0  0  0  0  0  0  0
   -6.6608   -1.0751   -1.1696 N   0  0  0  0  0  0  0  0  0  0  0  0
   -5.6654   -1.2836   -0.2897 C   0  0  0  0  0  0  0  0  0  0  0  0
   -5.2331   -0.2558    0.5263 C   0  0  0  0  0  0  0  0  0  0  0  0
   -4.2462   -0.3781    1.4291 O   0  0  0  0  0  0  0  0  0  0  0  0
   -3.3690   -1.2821    1.9094 C   0  0  0  0  0  0  0  0  0  0  0  0
   -2.3730   -1.8564    0.9737 C   0  0  0  0  0  0  0  0  0  0  0  0
   -2.5746   -3.0590    0.3569 C   0  0  0  0  0  0  0  0  0  0  0  0
   -1.6095   -3.5458   -0.5179 C   0  0  0  0  0  0  0  0  0  0  0  0
   -0.4447   -2.8064   -0.7598 C   0  0  0  0  0  0  0  0  0  0  0  0
   -0.2422   -1.5939   -0.1370 C   0  0  0  0  0  0  0  0  0  0  0  0
    0.9606   -0.8874   -0.4217 N   0  0  0  0  0  0  0  0  0  0  0  0
    2.1238   -1.1024    0.3664 C   0  0  0  0  0  0  0  0  0  0  0  0
    1.9946   -1.9537    1.3150 O   0  0  0  0  0  0  0  0  0  0  0  0
    3.3950   -0.4471    0.1736 C   0  0  0  0  0  0  0  0  0  0  0  0
    4.4434   -0.7605    1.0254 C   0  0  0  0  0  0  0  0  0  0  0  0
    5.6594   -0.1557    0.8671 C   0  0  0  0  0  0  0  0  0  0  0  0
    5.8117    0.7557   -0.1419 C   0  0  0  0  0  0  0  0  0  0  0  0
    7.0996    1.4352   -0.3556 C   0  0  0  0  0  0  0  0  0  0  0  0
    8.2614    1.3314    0.3001 C   0  0  0  0  0  0  0  0  0  0  0  0
    9.3257    2.0530   -0.0660 C   0  0  0  0  0  0  0  0  0  0  0  0
    9.1560    2.9157   -1.1651 C   0  0  0  0  0  0  0  0  0  0  0  0
    7.4361    2.6198   -1.6037 S   0  0  0  0  0  0  0  0  0  0  0  0
    4.7853    1.0800   -0.9966 C   0  0  0  0  0  0  0  0  0  0  0  0
    3.5552    0.4700   -0.8385 C   0  0  0  0  0  0  0  0  0  0  0  0
   -1.2134   -1.1337    0.7248 C   0  0  0  0  0  0  0  0  0  0  0  0
   -5.8452    1.0147    0.4290 C   0  0  0  0  0  0  0  0  0  0  0  0
   -6.1353    3.8885    0.2089 H   0  0  0  0  0  0  0  0  0  0  0  0
   -7.8008    4.0784    0.7917 H   0  0  0  0  0  0  0  0  0  0  0  0
   -8.0388    0.2286   -1.9937 H   0  0  0  0  0  0  0  0  0  0  0  0
   -5.2134   -2.2672   -0.2237 H   0  0  0  0  0  0  0  0  0  0  0  0
   -3.8580   -2.1339    2.4690 H   0  0  0  0  0  0  0  0  0  0  0  0
   -2.7820   -0.7749    2.7505 H   0  0  0  0  0  0  0  0  0  0  0  0
   -3.4564   -3.6629    0.5209 H   0  0  0  0  0  0  0  0  0  0  0  0
   -1.7808   -4.4831   -0.9905 H   0  0  0  0  0  0  0  0  0  0  0  0
    0.2685   -3.2403   -1.4517 H   0  0  0  0  0  0  0  0  0  0  0  0
    0.9974   -0.2179   -1.1975 H   0  0  0  0  0  0  0  0  0  0  0  0
    4.3124   -1.4934    1.8328 H   0  0  0  0  0  0  0  0  0  0  0  0
    6.4999   -0.3786    1.5164 H   0  0  0  0  0  0  0  0  0  0  0  0
    8.3149    0.6131    1.1750 H   0  0  0  0  0  0  0  0  0  0  0  0
   10.3198    2.0010    0.4514 H   0  0  0  0  0  0  0  0  0  0  0  0
    9.8732    3.6138   -1.6625 H   0  0  0  0  0  0  0  0  0  0  0  0
    4.9219    1.7977   -1.7834 H   0  0  0  0  0  0  0  0  0  0  0  0
    2.7421    0.7168   -1.5036 H   0  0  0  0  0  0  0  0  0  0  0  0
   -1.0267   -0.1795    1.1986 H   0  0  0  0  0  0  0  0  0  0  0  0
   -5.5139    1.8247    1.0634 H   0  0  0  0  0  0  0  0  0  0  0  0
  1  2  1  0
  2  3  2  0
  2  4  1  0
  4  5  2  0
  5  6  1  0
  6  7  2  0
  7  8  1  0
  8  9  1  0
  9 10  1  0
 10 11  1  0
 11 12  2  0
 12 13  1  0
 13 14  2  0
 14 15  1  0
 15 16  1  0
 16 17  1  0
 17 18  2  0
 17 19  1  0
 19 20  2  0
 20 21  1  0
 21 22  2  0
 22 23  1  0
 23 24  2  0
 24 25  1  0
 25 26  2  0
 26 27  1  0
 22 28  1  0
 28 29  2  0
 15 30  2  0
  8 31  2  0
 31  4  1  0
 30 11  1  0
 29 19  1  0
 27 23  1  0
  1 32  1  0
  1 33  1  0
  5 34  1  0
  7 35  1  0
 10 36  1  0
 10 37  1  0
 12 38  1  0
 13 39  1  0
 14 40  1  0
 16 41  1  0
 20 42  1  0
 21 43  1  0
 24 44  1  0
 25 45  1  0
 26 46  1  0
 28 47  1  0
 29 48  1  0
 30 49  1  0
 31 50  1  0
M  END
$$$$
