
     RDKit          3D

 44 47  0  0  0  0  0  0  0  0999 V2000
   -4.7244    4.1086   -1.4525 F   0  0  0  0  0  0  0  0  0  0  0  0
   -4.1390    2.9775   -0.9563 C   0  0  0  0  0  0  0  0  0  0  0  0
   -4.2614    1.8215   -1.6976 C   0  0  0  0  0  0  0  0  0  0  0  0
   -3.6679    0.6855   -1.1894 C   0  0  0  0  0  0  0  0  0  0  0  0
   -2.9817    0.6999    0.0061 C   0  0  0  0  0  0  0  0  0  0  0  0
   -2.3776   -0.5749    0.4678 C   0  0  2  0  0  0  0  0  0  0  0  0
   -2.9360   -0.9243    1.8307 C   0  0  0  0  0  0  0  0  0  0  0  0
   -2.0539   -2.0300    2.3879 C   0  0  0  0  0  0  0  0  0  0  0  0
   -1.3492   -2.7401    1.3262 N   0  0  0  0  0  0  0  0  0  0  0  0
   -0.3494   -1.8649    0.6903 C   0  0  0  0  0  0  0  0  0  0  0  0
   -0.8694   -0.4572    0.6432 C   0  0  1  0  0  0  0  0  0  0  0  0
   -0.2550    0.3045   -0.5138 C   0  0  0  0  0  0  0  0  0  0  0  0
    1.0326    0.5063   -0.5095 O   0  0  0  0  0  0  0  0  0  0  0  0
    2.2961    0.1100   -0.5343 C   0  0  0  0  0  0  0  0  0  0  0  0
    2.7340   -1.1893   -0.6233 C   0  0  0  0  0  0  0  0  0  0  0  0
    4.0731   -1.5359   -0.6410 C   0  0  0  0  0  0  0  0  0  0  0  0
    5.0508   -0.5598   -0.5685 C   0  0  0  0  0  0  0  0  0  0  0  0
    4.6603    0.7474   -0.4795 C   0  0  0  0  0  0  0  0  0  0  0  0
    3.3413    1.0644   -0.4634 C   0  0  0  0  0  0  0  0  0  0  0  0
    5.8589    1.4836   -0.4231 O   0  0  0  0  0  0  0  0  0  0  0  0
    6.8946    0.5842   -0.0640 C   0  0  0  0  0  0  0  0  0  0  0  0
    6.4209   -0.6596   -0.5687 O   0  0  0  0  0  0  0  0  0  0  0  0
   -2.8806    1.8700    0.7170 C   0  0  0  0  0  0  0  0  0  0  0  0
   -3.4608    3.0225    0.2394 C   0  0  0  0  0  0  0  0  0  0  0  0
   -4.8024    1.7952   -2.6466 H   0  0  0  0  0  0  0  0  0  0  0  0
   -3.7647   -0.2384   -1.7803 H   0  0  0  0  0  0  0  0  0  0  0  0
   -2.5656   -1.3935   -0.2350 H   0  0  0  0  0  0  0  0  0  0  0  0
   -2.8476   -0.0497    2.5100 H   0  0  0  0  0  0  0  0  0  0  0  0
   -3.9917   -1.1964    1.7833 H   0  0  0  0  0  0  0  0  0  0  0  0
   -1.3862   -1.6858    3.1896 H   0  0  0  0  0  0  0  0  0  0  0  0
   -2.7489   -2.7766    2.8315 H   0  0  0  0  0  0  0  0  0  0  0  0
   -0.8056   -3.4875    1.7900 H   0  0  0  0  0  0  0  0  0  0  0  0
    0.6127   -1.9484    1.2144 H   0  0  0  0  0  0  0  0  0  0  0  0
   -0.3118   -2.2346   -0.3685 H   0  0  0  0  0  0  0  0  0  0  0  0
   -0.6393    0.0388    1.6053 H   0  0  0  0  0  0  0  0  0  0  0  0
   -0.8086    1.3055   -0.6232 H   0  0  0  0  0  0  0  0  0  0  0  0
   -0.5883   -0.2053   -1.4832 H   0  0  0  0  0  0  0  0  0  0  0  0
    2.0402   -1.9967   -0.6994 H   0  0  0  0  0  0  0  0  0  0  0  0
    4.3713   -2.5790   -0.7120 H   0  0  0  0  0  0  0  0  0  0  0  0
    3.0270    2.0931   -0.3935 H   0  0  0  0  0  0  0  0  0  0  0  0
    7.0245    0.4842    1.0240 H   0  0  0  0  0  0  0  0  0  0  0  0
    7.8423    0.8023   -0.5906 H   0  0  0  0  0  0  0  0  0  0  0  0
   -2.3406    1.8677    1.6517 H   0  0  0  0  0  0  0  0  0  0  0  0
   -3.3729    3.9550    0.8183 H   0  0  0  0  0  0  0  0  0  0  0  0
  1  2  1  0
  2  3  2  0
  3  4  1  0
  4  5  2  0
  5  6  1  0
  6  7  1  0
  7  8  1  0
  8  9  1  0
  9 10  1  0
 10 11  1  0
 11 12  1  0
 12 13  1  0
 13 14  1  0
 14 15  2  0
 15 16  1  0
 16 17  2  0
 17 18  1  0
 18 19  2  0
 18 20  1  0
 20 21  1  0
 21 22  1  0
  5 23  1  0
 23 24  2  0
 24  2  1  0
 11  6  1  0
 19 14  1  0
 22 17  1  0
  3 25  1  0
  4 26  1  0
  6 27  1  6
  7 28  1  0
  7 29  1  0
  8 30  1  0
  8 31  1  0
  9 32  1  0
 10 33  1  0
 10 34  1  0
 11 35  1  1
 12 36  1  0
 12 37  1  0
 15 38  1  0
 16 39  1  0
 19 40  1  0
 21 41  1  0
 21 42  1  0
 23 43  1  0
 24 44  1  0
M  END
$$$$
