
     RDKit          3D

 52 55  0  0  0  0  0  0  0  0999 V2000
   -4.1633   -1.5762    1.3982 N   0  0  0  0  0  0  0  0  0  0  0  0
   -5.5801   -1.6064    1.2127 C   0  0  0  0  0  0  0  0  0  0  0  0
   -6.3957   -2.6220    1.4923 N   0  0  0  0  0  0  0  0  0  0  0  0
   -7.6066   -2.2628    1.1792 O   0  0  0  0  0  0  0  0  0  0  0  0
   -7.6461   -1.0511    0.7003 C   0  0  0  0  0  0  0  0  0  0  0  0
   -8.6506   -0.2125    0.2303 C   0  0  0  0  0  0  0  0  0  0  0  0
   -8.3482    1.0471   -0.2194 C   0  0  0  0  0  0  0  0  0  0  0  0
   -7.0512    1.4925   -0.2092 C   0  0  0  0  0  0  0  0  0  0  0  0
   -6.0195    0.6760    0.2574 C   0  0  0  0  0  0  0  0  0  0  0  0
   -4.6704    1.1804    0.2821 C   0  0  0  0  0  0  0  0  0  0  0  0
   -4.2867    1.9069    1.2850 O   0  0  0  0  0  0  0  0  0  0  0  0
   -3.7294    0.9275   -0.7517 N   0  0  0  0  0  0  0  0  0  0  0  0
   -2.4196    1.4985   -0.6232 C   0  0  0  0  0  0  0  0  0  0  0  0
   -2.2162    2.8213   -1.0294 C   0  0  0  0  0  0  0  0  0  0  0  0
   -0.9781    3.3970   -0.8822 C   0  0  0  0  0  0  0  0  0  0  0  0
    0.0739    2.6978   -0.3419 C   0  0  0  0  0  0  0  0  0  0  0  0
   -0.1829    1.3885    0.0418 C   0  0  0  0  0  0  0  0  0  0  0  0
    0.9693    0.6630    0.6824 C   0  0  0  0  0  0  0  0  0  0  0  0
    1.8872    0.3140   -0.3829 N   0  0  0  0  0  0  0  0  0  0  0  0
    3.2118   -0.1309    0.0369 C   0  0  0  0  0  0  0  0  0  0  0  0
    3.4349   -0.2120    1.2683 O   0  0  0  0  0  0  0  0  0  0  0  0
    4.1887   -0.4466   -0.9044 N   0  0  0  0  0  0  0  0  0  0  0  0
    5.4833   -0.8970   -0.5413 C   0  0  0  0  0  0  0  0  0  0  0  0
    6.5333   -0.7599   -1.4788 C   0  0  0  0  0  0  0  0  0  0  0  0
    7.8012   -1.1956   -1.1816 C   0  0  0  0  0  0  0  0  0  0  0  0
    8.1291   -1.7909    0.0402 C   0  0  0  0  0  0  0  0  0  0  0  0
    9.5325   -2.2064    0.2830 C   0  0  0  0  0  0  0  0  0  0  0  0
   10.3212   -1.1110    0.6016 F   0  0  0  0  0  0  0  0  0  0  0  0
   10.0316   -2.8830   -0.8066 F   0  0  0  0  0  0  0  0  0  0  0  0
    9.5391   -3.0920    1.3396 F   0  0  0  0  0  0  0  0  0  0  0  0
    7.1078   -1.9273    0.9521 C   0  0  0  0  0  0  0  0  0  0  0  0
    5.8282   -1.4844    0.6463 C   0  0  0  0  0  0  0  0  0  0  0  0
   -1.4028    0.7715   -0.0860 C   0  0  0  0  0  0  0  0  0  0  0  0
   -6.3430   -0.5708    0.6990 C   0  0  0  0  0  0  0  0  0  0  0  0
   -3.5239   -1.8903    0.6221 H   0  0  0  0  0  0  0  0  0  0  0  0
   -3.8014   -1.2319    2.3332 H   0  0  0  0  0  0  0  0  0  0  0  0
   -9.7004   -0.5458    0.2177 H   0  0  0  0  0  0  0  0  0  0  0  0
   -9.1533    1.7039   -0.5898 H   0  0  0  0  0  0  0  0  0  0  0  0
   -6.7861    2.4893   -0.5573 H   0  0  0  0  0  0  0  0  0  0  0  0
   -3.9400    0.3651   -1.5807 H   0  0  0  0  0  0  0  0  0  0  0  0
   -3.0647    3.3685   -1.4599 H   0  0  0  0  0  0  0  0  0  0  0  0
   -0.8231    4.4359   -1.2054 H   0  0  0  0  0  0  0  0  0  0  0  0
    1.0607    3.1340   -0.2202 H   0  0  0  0  0  0  0  0  0  0  0  0
    0.6021   -0.2786    1.1793 H   0  0  0  0  0  0  0  0  0  0  0  0
    1.4256    1.3431    1.4439 H   0  0  0  0  0  0  0  0  0  0  0  0
    1.6494    0.3580   -1.3755 H   0  0  0  0  0  0  0  0  0  0  0  0
    3.9574   -0.3505   -1.9413 H   0  0  0  0  0  0  0  0  0  0  0  0
    6.2849   -0.2940   -2.4296 H   0  0  0  0  0  0  0  0  0  0  0  0
    8.5663   -1.0519   -1.9434 H   0  0  0  0  0  0  0  0  0  0  0  0
    7.3393   -2.3901    1.9025 H   0  0  0  0  0  0  0  0  0  0  0  0
    5.0615   -1.6404    1.4070 H   0  0  0  0  0  0  0  0  0  0  0  0
   -1.5371   -0.2677    0.2368 H   0  0  0  0  0  0  0  0  0  0  0  0
  1  2  1  0
  2  3  2  0
  3  4  1  0
  4  5  1  0
  5  6  2  0
  6  7  1  0
  7  8  2  0
  8  9  1  0
  9 10  1  0
 10 11  2  0
 10 12  1  0
 12 13  1  0
 13 14  2  0
 14 15  1  0
 15 16  2  0
 16 17  1  0
 17 18  1  0
 18 19  1  0
 19 20  1  0
 20 21  2  0
 20 22  1  0
 22 23  1  0
 23 24  2  0
 24 25  1  0
 25 26  2  0
 26 27  1  0
 27 28  1  0
 27 29  1  0
 27 30  1  0
 26 31  1  0
 31 32  2  0
 17 33  2  0
  9 34  2  0
 34  2  1  0
 34  5  1  0
 33 13  1  0
 32 23  1  0
  1 35  1  0
  1 36  1  0
  6 37  1  0
  7 38  1  0
  8 39  1  0
 12 40  1  0
 14 41  1  0
 15 42  1  0
 16 43  1  0
 18 44  1  0
 18 45  1  0
 19 46  1  0
 22 47  1  0
 24 48  1  0
 25 49  1  0
 31 50  1  0
 32 51  1  0
 33 52  1  0
M  END
$$$$
