
     RDKit          3D

 49 52  0  0  0  0  0  0  0  0999 V2000
    1.9808    1.1994   -0.9147 O   0  0  0  0  0  0  0  0  0  0  0  0
    2.4637    0.1837   -0.3815 C   0  0  0  0  0  0  0  0  0  0  0  0
    3.8563    0.0002   -0.3981 N   0  0  0  0  0  0  0  0  0  0  0  0
    4.7518    0.9580   -1.0180 C   0  0  0  0  0  0  0  0  0  0  0  0
    6.1609    0.5247   -0.8935 C   0  0  0  0  0  0  0  0  0  0  0  0
    6.9608    0.8750    0.1753 C   0  0  0  0  0  0  0  0  0  0  0  0
    8.2705    0.4731    0.2923 C   0  0  0  0  0  0  0  0  0  0  0  0
    8.7774   -0.3160   -0.7229 C   0  0  0  0  0  0  0  0  0  0  0  0
    7.9962   -0.6807   -1.8044 C   0  0  0  0  0  0  0  0  0  0  0  0
    6.6900   -0.2686   -1.9023 C   0  0  0  0  0  0  0  0  0  0  0  0
    1.5772   -0.7097    0.2011 O   0  0  0  0  0  0  0  0  0  0  0  0
    0.1956   -0.4980    0.2008 C   0  0  1  0  0  0  0  0  0  0  0  0
   -0.6017   -1.5758   -0.4460 C   0  0  0  0  0  0  0  0  0  0  0  0
   -1.9027   -1.2850    0.0296 O   0  0  0  0  0  0  0  0  0  0  0  0
   -1.6929   -1.1715    1.4156 C   0  0  2  0  0  0  0  0  0  0  0  0
   -2.7146   -0.3069    2.0819 C   0  0  2  0  0  0  0  0  0  0  0  0
   -3.7198    0.0210    1.1191 O   0  0  0  0  0  0  0  0  0  0  0  0
   -5.0578   -0.2535    1.3558 C   0  0  0  0  0  0  0  0  0  0  0  0
   -5.3235   -0.8025    2.4588 O   0  0  0  0  0  0  0  0  0  0  0  0
   -6.0552    0.0822    0.3782 C   0  0  0  0  0  0  0  0  0  0  0  0
   -5.6956    0.6771   -0.7994 C   0  0  0  0  0  0  0  0  0  0  0  0
   -6.6476    0.9990   -1.7354 C   0  0  0  0  0  0  0  0  0  0  0  0
   -7.9829    0.7394   -1.5283 C   0  0  0  0  0  0  0  0  0  0  0  0
   -8.3137    0.1392   -0.3318 C   0  0  0  0  0  0  0  0  0  0  0  0
   -7.3785   -0.1931    0.6217 C   0  0  0  0  0  0  0  0  0  0  0  0
   -1.9656    0.9387    2.4076 C   0  0  0  0  0  0  0  0  0  0  0  0
   -0.6607    0.8235    2.0204 O   0  0  0  0  0  0  0  0  0  0  0  0
   -0.3973   -0.4454    1.5890 C   0  0  2  0  0  0  0  0  0  0  0  0
    4.2583   -0.8534    0.0502 H   0  0  0  0  0  0  0  0  0  0  0  0
    4.5995    1.9276   -0.4921 H   0  0  0  0  0  0  0  0  0  0  0  0
    4.5297    1.1212   -2.0859 H   0  0  0  0  0  0  0  0  0  0  0  0
    6.5004    1.5018    0.9468 H   0  0  0  0  0  0  0  0  0  0  0  0
    8.8987    0.7561    1.1448 H   0  0  0  0  0  0  0  0  0  0  0  0
    9.8157   -0.6318   -0.6254 H   0  0  0  0  0  0  0  0  0  0  0  0
    8.4553   -1.3089   -2.5792 H   0  0  0  0  0  0  0  0  0  0  0  0
    6.1027   -0.5741   -2.7678 H   0  0  0  0  0  0  0  0  0  0  0  0
   -0.0052    0.4595   -0.3240 H   0  0  0  0  0  0  0  0  0  0  0  0
   -0.3700   -2.5859   -0.0955 H   0  0  0  0  0  0  0  0  0  0  0  0
   -0.5956   -1.5578   -1.5488 H   0  0  0  0  0  0  0  0  0  0  0  0
   -1.6123   -2.1874    1.8690 H   0  0  0  0  0  0  0  0  0  0  0  0
   -3.1710   -0.7812    2.9744 H   0  0  0  0  0  0  0  0  0  0  0  0
   -4.6327    0.8919   -0.9815 H   0  0  0  0  0  0  0  0  0  0  0  0
   -6.3379    1.4722   -2.6659 H   0  0  0  0  0  0  0  0  0  0  0  0
   -8.7539    0.9930   -2.2712 H   0  0  0  0  0  0  0  0  0  0  0  0
   -9.3735   -0.0787   -0.1422 H   0  0  0  0  0  0  0  0  0  0  0  0
   -7.6920   -0.6738    1.5675 H   0  0  0  0  0  0  0  0  0  0  0  0
   -2.4600    1.8570    1.9851 H   0  0  0  0  0  0  0  0  0  0  0  0
   -2.0334    1.0884    3.5232 H   0  0  0  0  0  0  0  0  0  0  0  0
    0.3060   -0.9631    2.2684 H   0  0  0  0  0  0  0  0  0  0  0  0
  1  2  2  0
  2  3  1  0
  3  4  1  0
  4  5  1  0
  5  6  2  0
  6  7  1  0
  7  8  2  0
  8  9  1  0
  9 10  2  0
  2 11  1  0
 11 12  1  0
 12 13  1  0
 13 14  1  0
 14 15  1  0
 15 16  1  0
 16 17  1  0
 17 18  1  0
 18 19  2  0
 18 20  1  0
 20 21  2  0
 21 22  1  0
 22 23  2  0
 23 24  1  0
 24 25  2  0
 16 26  1  0
 26 27  1  0
 27 28  1  0
 10  5  1  0
 28 12  1  0
 28 15  1  0
 25 20  1  0
  3 29  1  0
  4 30  1  0
  4 31  1  0
  6 32  1  0
  7 33  1  0
  8 34  1  0
  9 35  1  0
 10 36  1  0
 12 37  1  6
 13 38  1  0
 13 39  1  0
 15 40  1  1
 16 41  1  1
 21 42  1  0
 22 43  1  0
 23 44  1  0
 24 45  1  0
 25 46  1  0
 26 47  1  0
 26 48  1  0
 28 49  1  1
M  END
$$$$
