
     RDKit          3D

 25 26  0  0  0  0  0  0  0  0999 V2000
    4.2242    0.5055   -0.9697 N   0  0  0  0  0  0  0  0  0  0  0  0
    3.3138    0.3098    0.4783 S   0  0  0  0  0  0  0  0  0  0  0  0
    3.3174    1.6585    1.1749 O   0  0  0  0  0  0  0  0  0  0  0  0
    3.9516   -0.6654    1.4275 O   0  0  0  0  0  0  0  0  0  0  0  0
    1.6479   -0.1045    0.1768 C   0  0  0  0  0  0  0  0  0  0  0  0
    1.3015   -1.2514   -0.5084 C   0  0  0  0  0  0  0  0  0  0  0  0
    2.6214   -2.2775   -1.0644 Cl  0  0  0  0  0  0  0  0  0  0  0  0
    0.0087   -1.6375   -0.7803 C   0  0  0  0  0  0  0  0  0  0  0  0
   -1.0188   -0.8298   -0.3424 C   0  0  0  0  0  0  0  0  0  0  0  0
   -2.3764   -1.1854   -0.5987 N   0  0  0  0  0  0  0  0  0  0  0  0
   -3.4006   -0.2135   -0.7659 C   0  0  0  0  0  0  0  0  0  0  0  0
   -3.5282    0.7680    0.2787 N   0  0  0  0  0  0  0  0  0  0  0  0
   -2.0282    1.3240    0.8861 S   0  0  0  0  0  0  0  0  0  0  0  0
   -1.8003    2.7470    0.5286 O   0  0  0  0  0  0  0  0  0  0  0  0
   -2.0524    1.2589    2.4033 O   0  0  0  0  0  0  0  0  0  0  0  0
   -0.7084    0.3218    0.3443 C   0  0  0  0  0  0  0  0  0  0  0  0
    0.5738    0.6807    0.5999 C   0  0  0  0  0  0  0  0  0  0  0  0
    4.6683   -0.4211   -1.2434 H   0  0  0  0  0  0  0  0  0  0  0  0
    5.0627    1.1062   -0.7357 H   0  0  0  0  0  0  0  0  0  0  0  0
   -0.1837   -2.5612   -1.3292 H   0  0  0  0  0  0  0  0  0  0  0  0
   -2.5542   -2.2344   -0.6535 H   0  0  0  0  0  0  0  0  0  0  0  0
   -4.3799   -0.7634   -0.7575 H   0  0  0  0  0  0  0  0  0  0  0  0
   -3.3993    0.2879   -1.7651 H   0  0  0  0  0  0  0  0  0  0  0  0
   -4.0683    1.5759   -0.0941 H   0  0  0  0  0  0  0  0  0  0  0  0
    0.8073    1.6008    1.1480 H   0  0  0  0  0  0  0  0  0  0  0  0
  1  2  1  0
  2  3  2  0
  2  4  2  0
  2  5  1  0
  5  6  2  0
  6  7  1  0
  6  8  1  0
  8  9  2  0
  9 10  1  0
 10 11  1  0
 11 12  1  0
 12 13  1  0
 13 14  2  0
 13 15  2  0
 13 16  1  0
 16 17  2  0
 17  5  1  0
 16  9  1  0
  1 18  1  0
  1 19  1  0
  8 20  1  0
 10 21  1  0
 11 22  1  0
 11 23  1  0
 12 24  1  0
 17 25  1  0
M  END
$$$$
