
     RDKit          3D

 39 41  0  0  0  0  0  0  0  0999 V2000
   -1.9483   -1.5528    1.5324 C   0  0  0  0  0  0  0  0  0  0  0  0
   -2.4550   -0.9540    0.2501 C   0  0  1  0  0  0  0  0  0  0  0  0
   -3.8473   -0.3970    0.4736 C   0  0  0  0  0  0  0  0  0  0  0  0
   -3.8630    0.5878    1.4502 O   0  0  0  0  0  0  0  0  0  0  0  0
   -2.8807    1.5422    1.2989 C   0  0  0  0  0  0  0  0  0  0  0  0
   -2.2903    1.4725   -0.1005 C   0  0  0  0  0  0  0  0  0  0  0  0
   -1.6438    0.1533   -0.2091 N   0  0  0  0  0  0  0  0  0  0  0  0
   -0.3424    0.0348   -0.7244 C   0  0  0  0  0  0  0  0  0  0  0  0
    0.7605    0.1059    0.0130 N   0  0  0  0  0  0  0  0  0  0  0  0
    2.0252   -0.0075   -0.4714 C   0  0  0  0  0  0  0  0  0  0  0  0
    3.1610    0.0867    0.4305 C   0  0  0  0  0  0  0  0  0  0  0  0
    2.8784    0.2946    1.7765 C   0  0  0  0  0  0  0  0  0  0  0  0
    3.8877    0.3924    2.6733 C   0  0  0  0  0  0  0  0  0  0  0  0
    5.1761    0.2985    2.3335 N   0  0  0  0  0  0  0  0  0  0  0  0
    5.4801    0.0989    1.0485 C   0  0  0  0  0  0  0  0  0  0  0  0
    4.4716   -0.0067    0.0992 C   0  0  0  0  0  0  0  0  0  0  0  0
    4.8471   -0.2056   -1.1644 F   0  0  0  0  0  0  0  0  0  0  0  0
    2.1858   -0.2087   -1.8074 C   0  0  0  0  0  0  0  0  0  0  0  0
    1.0357   -0.2861   -2.5980 C   0  0  0  0  0  0  0  0  0  0  0  0
    1.1824   -0.4716   -3.8309 O   0  0  0  0  0  0  0  0  0  0  0  0
   -0.1793   -0.1638   -2.0420 N   0  0  0  0  0  0  0  0  0  0  0  0
   -1.3187   -0.2564   -2.9255 C   0  0  0  0  0  0  0  0  0  0  0  0
   -1.6740   -2.6266    1.4000 H   0  0  0  0  0  0  0  0  0  0  0  0
   -1.0253   -1.0554    1.9003 H   0  0  0  0  0  0  0  0  0  0  0  0
   -2.7475   -1.5372    2.3046 H   0  0  0  0  0  0  0  0  0  0  0  0
   -2.5471   -1.7591   -0.4890 H   0  0  0  0  0  0  0  0  0  0  0  0
   -4.5565   -1.1865    0.8049 H   0  0  0  0  0  0  0  0  0  0  0  0
   -4.2281   -0.0214   -0.4879 H   0  0  0  0  0  0  0  0  0  0  0  0
   -3.2976    2.5708    1.4006 H   0  0  0  0  0  0  0  0  0  0  0  0
   -2.0974    1.3865    2.0436 H   0  0  0  0  0  0  0  0  0  0  0  0
   -1.5213    2.2762   -0.1507 H   0  0  0  0  0  0  0  0  0  0  0  0
   -3.0714    1.6202   -0.8427 H   0  0  0  0  0  0  0  0  0  0  0  0
    1.8392    0.3765    2.0913 H   0  0  0  0  0  0  0  0  0  0  0  0
    3.6470    0.5543    3.7168 H   0  0  0  0  0  0  0  0  0  0  0  0
    6.5216    0.0185    0.7439 H   0  0  0  0  0  0  0  0  0  0  0  0
    3.1320   -0.3156   -2.3208 H   0  0  0  0  0  0  0  0  0  0  0  0
   -1.3608   -1.3157   -3.2710 H   0  0  0  0  0  0  0  0  0  0  0  0
   -1.0843    0.3476   -3.8376 H   0  0  0  0  0  0  0  0  0  0  0  0
   -2.2513    0.1094   -2.5121 H   0  0  0  0  0  0  0  0  0  0  0  0
  1  2  1  0
  2  3  1  0
  3  4  1  0
  4  5  1  0
  5  6  1  0
  6  7  1  0
  7  8  1  0
  8  9  2  0
  9 10  1  0
 10 11  1  0
 11 12  2  0
 12 13  1  0
 13 14  2  0
 14 15  1  0
 15 16  2  0
 16 17  1  0
 10 18  2  0
 18 19  1  0
 19 20  2  0
 19 21  1  0
 21 22  1  0
  7  2  1  0
 21  8  1  0
 16 11  1  0
  1 23  1  0
  1 24  1  0
  1 25  1  0
  2 26  1  6
  3 27  1  0
  3 28  1  0
  5 29  1  0
  5 30  1  0
  6 31  1  0
  6 32  1  0
 12 33  1  0
 13 34  1  0
 15 35  1  0
 18 36  1  0
 22 37  1  0
 22 38  1  0
 22 39  1  0
M  END
$$$$
