
     RDKit          3D

 49 52  0  0  0  0  0  0  0  0999 V2000
    0.6906    0.7580    2.6539 O   0  0  0  0  0  0  0  0  0  0  0  0
    1.0804    0.8600    1.4379 C   0  0  0  0  0  0  0  0  0  0  0  0
    2.4771    1.1695    1.1288 C   0  0  0  0  0  0  0  0  0  0  0  0
    2.7995    1.2222   -0.2611 N   0  0  0  0  0  0  0  0  0  0  0  0
    4.1800    1.6675   -0.4477 C   0  0  0  0  0  0  0  0  0  0  0  0
    5.0438    0.5280    0.0081 C   0  0  0  0  0  0  0  0  0  0  0  0
    4.1740   -0.6827   -0.1342 C   0  0  2  0  0  0  0  0  0  0  0  0
    4.8026   -1.7087   -1.0775 C   0  0  0  0  0  0  0  0  0  0  0  0
    4.9780   -1.1594   -2.3135 F   0  0  0  0  0  0  0  0  0  0  0  0
    4.0498   -2.8454   -1.1253 F   0  0  0  0  0  0  0  0  0  0  0  0
    6.0624   -2.0482   -0.5945 F   0  0  0  0  0  0  0  0  0  0  0  0
    2.9200   -0.1516   -0.7811 C   0  0  0  0  0  0  0  0  0  0  0  0
    0.0351    0.6469    0.5076 N   0  0  0  0  0  0  0  0  0  0  0  0
   -1.3127    0.3436    0.8495 C   0  0  1  0  0  0  0  0  0  0  0  0
   -2.3530    1.2976    0.3859 C   0  0  0  0  0  0  0  0  0  0  0  0
   -2.6650    1.2223   -1.0744 C   0  0  0  0  0  0  0  0  0  0  0  0
   -3.0884   -0.1760   -1.4351 C   0  0  0  0  0  0  0  0  0  0  0  0
   -1.9343   -1.0952   -1.1091 C   0  0  0  0  0  0  0  0  0  0  0  0
   -1.6842   -1.0396    0.3764 C   0  0  0  0  0  0  0  0  0  0  0  0
   -2.9440   -1.4883    1.0843 C   0  0  0  0  0  0  0  0  0  0  0  0
   -4.0473   -0.5012    0.7818 C   0  0  2  0  0  0  0  0  0  0  0  0
   -5.1353   -0.8265    1.5732 O   0  0  0  0  0  0  0  0  0  0  0  0
   -4.3535   -0.5555   -0.6936 C   0  0  0  0  0  0  0  0  0  0  0  0
   -3.6386    0.9091    1.1170 C   0  0  0  0  0  0  0  0  0  0  0  0
    3.2015    0.5318    1.6953 H   0  0  0  0  0  0  0  0  0  0  0  0
    2.6713    2.2041    1.5409 H   0  0  0  0  0  0  0  0  0  0  0  0
    4.3429    1.8646   -1.5269 H   0  0  0  0  0  0  0  0  0  0  0  0
    4.3535    2.5435    0.1937 H   0  0  0  0  0  0  0  0  0  0  0  0
    5.9561    0.4489   -0.6401 H   0  0  0  0  0  0  0  0  0  0  0  0
    5.3574    0.6393    1.0728 H   0  0  0  0  0  0  0  0  0  0  0  0
    3.8978   -1.1598    0.8146 H   0  0  0  0  0  0  0  0  0  0  0  0
    2.0464   -0.7783   -0.5337 H   0  0  0  0  0  0  0  0  0  0  0  0
    3.0181   -0.0486   -1.8786 H   0  0  0  0  0  0  0  0  0  0  0  0
    0.2604    0.7253   -0.5056 H   0  0  0  0  0  0  0  0  0  0  0  0
   -1.3736    0.3041    1.9665 H   0  0  0  0  0  0  0  0  0  0  0  0
   -2.1792    2.3487    0.7113 H   0  0  0  0  0  0  0  0  0  0  0  0
   -3.5524    1.8973   -1.2478 H   0  0  0  0  0  0  0  0  0  0  0  0
   -1.8576    1.5150   -1.7417 H   0  0  0  0  0  0  0  0  0  0  0  0
   -3.2930   -0.1909   -2.5293 H   0  0  0  0  0  0  0  0  0  0  0  0
   -1.0704   -0.7555   -1.7004 H   0  0  0  0  0  0  0  0  0  0  0  0
   -2.1858   -2.1262   -1.3645 H   0  0  0  0  0  0  0  0  0  0  0  0
   -0.8574   -1.7546    0.6269 H   0  0  0  0  0  0  0  0  0  0  0  0
   -2.7671   -1.5706    2.1806 H   0  0  0  0  0  0  0  0  0  0  0  0
   -3.2578   -2.4608    0.6288 H   0  0  0  0  0  0  0  0  0  0  0  0
   -5.1473   -1.7906    1.8062 H   0  0  0  0  0  0  0  0  0  0  0  0
   -4.6723   -1.5517   -1.0312 H   0  0  0  0  0  0  0  0  0  0  0  0
   -5.1106    0.2085   -0.9524 H   0  0  0  0  0  0  0  0  0  0  0  0
   -4.4374    1.6018    0.8420 H   0  0  0  0  0  0  0  0  0  0  0  0
   -3.4803    1.0080    2.2212 H   0  0  0  0  0  0  0  0  0  0  0  0
  1  2  2  0
  2  3  1  0
  3  4  1  0
  4  5  1  0
  5  6  1  0
  6  7  1  0
  7  8  1  0
  8  9  1  0
  8 10  1  0
  8 11  1  0
  7 12  1  0
  2 13  1  0
 13 14  1  0
 14 15  1  0
 15 16  1  0
 16 17  1  0
 17 18  1  0
 18 19  1  0
 19 20  1  0
 20 21  1  0
 21 22  1  1
 21 23  1  0
 21 24  1  0
 12  4  1  0
 19 14  1  0
 24 15  1  0
 23 17  1  0
  3 25  1  0
  3 26  1  0
  5 27  1  0
  5 28  1  0
  6 29  1  0
  6 30  1  0
  7 31  1  1
 12 32  1  0
 12 33  1  0
 13 34  1  0
 14 35  1  1
 15 36  1  0
 16 37  1  0
 16 38  1  0
 17 39  1  0
 18 40  1  0
 18 41  1  0
 19 42  1  0
 20 43  1  0
 20 44  1  0
 22 45  1  0
 23 46  1  0
 23 47  1  0
 24 48  1  0
 24 49  1  0
M  END
$$$$
