
     RDKit          3D

 59 64  0  0  0  0  0  0  0  0999 V2000
    4.9547    1.7504    3.2392 C   0  0  0  0  0  0  0  0  0  0  0  0
    3.9930    2.4683    2.3508 C   0  0  0  0  0  0  0  0  0  0  0  0
    3.2341    1.6421    1.5269 O   0  0  0  0  0  0  0  0  0  0  0  0
    3.7105    0.7795    0.5822 C   0  0  0  0  0  0  0  0  0  0  0  0
    4.9878    0.7715    0.4884 O   0  0  0  0  0  0  0  0  0  0  0  0
    2.9712   -0.0755   -0.2719 N   0  0  0  0  0  0  0  0  0  0  0  0
    3.5255   -0.9028   -1.1761 C   0  0  0  0  0  0  0  0  0  0  0  0
    2.5545   -1.6087   -1.8431 C   0  0  0  0  0  0  0  0  0  0  0  0
    2.7013   -2.6385   -2.8965 C   0  0  0  0  0  0  0  0  0  0  0  0
    3.2597   -3.9770   -2.6289 C   0  0  0  0  0  0  0  0  0  0  0  0
    1.8018   -3.8581   -2.6428 C   0  0  0  0  0  0  0  0  0  0  0  0
    1.3361   -1.1921   -1.3204 C   0  0  0  0  0  0  0  0  0  0  0  0
    1.6159   -0.2529   -0.3620 C   0  0  0  0  0  0  0  0  0  0  0  0
    0.3288    0.2287    0.1822 C   0  0  0  0  0  0  0  0  0  0  0  0
    0.1947    1.6874    0.0959 C   0  0  0  0  0  0  0  0  0  0  0  0
    0.0328    2.4159   -1.0554 C   0  0  0  0  0  0  0  0  0  0  0  0
   -0.1196    3.7688   -1.0944 C   0  0  0  0  0  0  0  0  0  0  0  0
   -0.1172    4.4933    0.0749 C   0  0  0  0  0  0  0  0  0  0  0  0
   -0.3125    6.2503    0.0613 Cl  0  0  0  0  0  0  0  0  0  0  0  0
    0.0426    3.8034    1.2574 C   0  0  0  0  0  0  0  0  0  0  0  0
    0.1969    2.4119    1.2628 C   0  0  0  0  0  0  0  0  0  0  0  0
   -0.6672   -0.5293   -0.4231 N   0  0  0  0  0  0  0  0  0  0  0  0
   -2.0983   -0.5682   -0.2262 C   0  0  0  0  0  0  0  0  0  0  0  0
   -2.8638    0.2697   -0.9831 C   0  0  0  0  0  0  0  0  0  0  0  0
   -4.2215    0.2375   -0.8009 C   0  0  0  0  0  0  0  0  0  0  0  0
   -5.1477    1.1216   -1.5864 C   0  0  0  0  0  0  0  0  0  0  0  0
   -4.8318   -0.6047    0.1122 C   0  0  0  0  0  0  0  0  0  0  0  0
   -6.1257   -0.8284    0.4796 N   0  0  0  0  0  0  0  0  0  0  0  0
   -6.1438   -1.7613    1.4184 N   0  0  0  0  0  0  0  0  0  0  0  0
   -4.8512   -2.1317    1.6477 C   0  0  0  0  0  0  0  0  0  0  0  0
   -4.3640   -3.1459    2.6124 C   0  0  0  0  0  0  0  0  0  0  0  0
   -4.0481   -1.4181    0.8425 N   0  0  0  0  0  0  0  0  0  0  0  0
   -2.6892   -1.4118    0.6862 C   0  0  0  0  0  0  0  0  0  0  0  0
   -0.0970   -1.3827   -1.3828 C   0  0  0  0  0  0  0  0  0  0  0  0
   -0.6634   -2.1873   -2.1819 O   0  0  0  0  0  0  0  0  0  0  0  0
    5.3824    2.4996    3.9452 H   0  0  0  0  0  0  0  0  0  0  0  0
    4.4607    0.9692    3.8200 H   0  0  0  0  0  0  0  0  0  0  0  0
    5.8028    1.3997    2.6205 H   0  0  0  0  0  0  0  0  0  0  0  0
    3.3125    3.0784    2.9756 H   0  0  0  0  0  0  0  0  0  0  0  0
    4.5920    3.2197    1.7573 H   0  0  0  0  0  0  0  0  0  0  0  0
    4.5880   -1.0431   -1.3996 H   0  0  0  0  0  0  0  0  0  0  0  0
    2.7331   -2.2451   -3.9320 H   0  0  0  0  0  0  0  0  0  0  0  0
    3.7607   -4.2023   -1.6627 H   0  0  0  0  0  0  0  0  0  0  0  0
    3.7197   -4.4917   -3.5171 H   0  0  0  0  0  0  0  0  0  0  0  0
    1.1592   -4.1185   -3.4893 H   0  0  0  0  0  0  0  0  0  0  0  0
    1.2884   -3.9414   -1.6466 H   0  0  0  0  0  0  0  0  0  0  0  0
    0.3530   -0.0587    1.2702 H   0  0  0  0  0  0  0  0  0  0  0  0
    0.0291    1.8610   -1.9790 H   0  0  0  0  0  0  0  0  0  0  0  0
   -0.2477    4.3322   -2.0267 H   0  0  0  0  0  0  0  0  0  0  0  0
    0.0428    4.3838    2.1698 H   0  0  0  0  0  0  0  0  0  0  0  0
    0.3158    1.9667    2.2494 H   0  0  0  0  0  0  0  0  0  0  0  0
   -2.4241    0.9281   -1.6928 H   0  0  0  0  0  0  0  0  0  0  0  0
   -5.7083    0.5249   -2.3368 H   0  0  0  0  0  0  0  0  0  0  0  0
   -4.5777    1.9227   -2.0925 H   0  0  0  0  0  0  0  0  0  0  0  0
   -5.8961    1.6103   -0.9351 H   0  0  0  0  0  0  0  0  0  0  0  0
   -4.2824   -2.6203    3.5993 H   0  0  0  0  0  0  0  0  0  0  0  0
   -3.3719   -3.5206    2.3028 H   0  0  0  0  0  0  0  0  0  0  0  0
   -5.0440   -4.0180    2.6848 H   0  0  0  0  0  0  0  0  0  0  0  0
   -2.0678   -2.0619    1.2705 H   0  0  0  0  0  0  0  0  0  0  0  0
  1  2  1  0
  2  3  1  0
  3  4  1  0
  4  5  2  0
  4  6  1  0
  6  7  1  0
  7  8  2  0
  8  9  1  0
  9 10  1  0
 10 11  1  0
  8 12  1  0
 12 13  2  0
 13 14  1  0
 14 15  1  0
 15 16  2  0
 16 17  1  0
 17 18  2  0
 18 19  1  0
 18 20  1  0
 20 21  2  0
 14 22  1  0
 22 23  1  0
 23 24  1  0
 24 25  2  0
 25 26  1  0
 25 27  1  0
 27 28  2  0
 28 29  1  0
 29 30  2  0
 30 31  1  0
 30 32  1  0
 32 33  1  0
 22 34  1  0
 34 35  2  0
 13  6  1  0
 21 15  1  0
 33 23  2  0
 11  9  1  0
 34 12  1  0
 32 27  1  0
  1 36  1  0
  1 37  1  0
  1 38  1  0
  2 39  1  0
  2 40  1  0
  7 41  1  0
  9 42  1  0
 10 43  1  0
 10 44  1  0
 11 45  1  0
 11 46  1  0
 14 47  1  0
 16 48  1  0
 17 49  1  0
 20 50  1  0
 21 51  1  0
 24 52  1  0
 26 53  1  0
 26 54  1  0
 26 55  1  0
 31 56  1  0
 31 57  1  0
 31 58  1  0
 33 59  1  0
M  END
$$$$
