
     RDKit          3D

 40 42  0  0  0  0  0  0  0  0999 V2000
   -2.0604   -3.4556    0.2377 C   0  0  0  0  0  0  0  0  0  0  0  0
   -2.5525   -2.1844   -0.1593 O   0  0  0  0  0  0  0  0  0  0  0  0
   -1.8045   -1.0467    0.0896 C   0  0  0  0  0  0  0  0  0  0  0  0
   -0.5757   -1.1380    0.7255 C   0  0  0  0  0  0  0  0  0  0  0  0
    0.1864   -0.0017    0.9821 C   0  0  0  0  0  0  0  0  0  0  0  0
    1.4901   -0.0691    1.6708 C   0  0  0  0  0  0  0  0  0  0  0  0
    2.6324   -0.4335    0.8380 C   0  0  0  0  0  0  0  0  0  0  0  0
    3.1811   -1.7166    0.8333 C   0  0  0  0  0  0  0  0  0  0  0  0
    4.2365   -2.0057    0.0334 N   0  0  0  0  0  0  0  0  0  0  0  0
    4.7855   -1.0864   -0.7703 C   0  0  0  0  0  0  0  0  0  0  0  0
    5.9108   -1.4270   -1.6123 N   0  0  0  0  0  0  0  0  0  0  0  0
    4.2819    0.1468   -0.7860 N   0  0  0  0  0  0  0  0  0  0  0  0
    3.2198    0.4770    0.0047 C   0  0  0  0  0  0  0  0  0  0  0  0
    2.7816    1.8134   -0.0916 N   0  0  0  0  0  0  0  0  0  0  0  0
   -0.3386    1.1933    0.5769 C   0  0  0  0  0  0  0  0  0  0  0  0
   -1.5723    1.2943   -0.0628 C   0  0  0  0  0  0  0  0  0  0  0  0
   -2.3137    0.1630   -0.3093 C   0  0  0  0  0  0  0  0  0  0  0  0
   -3.5964    0.2488   -0.9691 N   0  0  0  0  0  0  0  0  0  0  0  0
   -4.3604    1.4769   -0.9428 C   0  0  0  0  0  0  0  0  0  0  0  0
   -3.6269    2.6013   -0.2891 C   0  0  0  0  0  0  0  0  0  0  0  0
   -2.1434    2.5896   -0.5077 C   0  0  0  0  0  0  0  0  0  0  0  0
   -2.8661   -4.1892    0.0325 H   0  0  0  0  0  0  0  0  0  0  0  0
   -1.7942   -3.4681    1.3268 H   0  0  0  0  0  0  0  0  0  0  0  0
   -1.1312   -3.7235   -0.3094 H   0  0  0  0  0  0  0  0  0  0  0  0
   -0.1619   -2.0857    1.0456 H   0  0  0  0  0  0  0  0  0  0  0  0
    1.6788    0.8611    2.2826 H   0  0  0  0  0  0  0  0  0  0  0  0
    1.3910   -0.8624    2.4747 H   0  0  0  0  0  0  0  0  0  0  0  0
    2.7263   -2.4374    1.4847 H   0  0  0  0  0  0  0  0  0  0  0  0
    6.7457   -1.8895   -1.2131 H   0  0  0  0  0  0  0  0  0  0  0  0
    5.8891   -1.2098   -2.6238 H   0  0  0  0  0  0  0  0  0  0  0  0
    2.6707    2.2234   -1.0431 H   0  0  0  0  0  0  0  0  0  0  0  0
    2.5561    2.4354    0.7142 H   0  0  0  0  0  0  0  0  0  0  0  0
    0.1738    2.1100    0.7392 H   0  0  0  0  0  0  0  0  0  0  0  0
   -3.9906   -0.5713   -1.4717 H   0  0  0  0  0  0  0  0  0  0  0  0
   -5.2886    1.2880   -0.3291 H   0  0  0  0  0  0  0  0  0  0  0  0
   -4.7521    1.7460   -1.9554 H   0  0  0  0  0  0  0  0  0  0  0  0
   -4.0035    3.5524   -0.7687 H   0  0  0  0  0  0  0  0  0  0  0  0
   -3.9068    2.6788    0.7837 H   0  0  0  0  0  0  0  0  0  0  0  0
   -1.9862    2.6381   -1.6173 H   0  0  0  0  0  0  0  0  0  0  0  0
   -1.7116    3.4642    0.0043 H   0  0  0  0  0  0  0  0  0  0  0  0
  1  2  1  0
  2  3  1  0
  3  4  2  0
  4  5  1  0
  5  6  1  0
  6  7  1  0
  7  8  2  0
  8  9  1  0
  9 10  2  0
 10 11  1  0
 10 12  1  0
 12 13  2  0
 13 14  1  0
  5 15  2  0
 15 16  1  0
 16 17  2  0
 17 18  1  0
 18 19  1  0
 19 20  1  0
 20 21  1  0
 17  3  1  0
 13  7  1  0
 21 16  1  0
  1 22  1  0
  1 23  1  0
  1 24  1  0
  4 25  1  0
  6 26  1  0
  6 27  1  0
  8 28  1  0
 11 29  1  0
 11 30  1  0
 14 31  1  0
 14 32  1  0
 15 33  1  0
 18 34  1  0
 19 35  1  0
 19 36  1  0
 20 37  1  0
 20 38  1  0
 21 39  1  0
 21 40  1  0
M  END
$$$$
