
     RDKit          3D

 52 56  0  0  0  0  0  0  0  0999 V2000
   -7.2460    2.6734    0.7974 N   0  0  0  0  0  0  0  0  0  0  0  0
   -6.6565    1.4089    0.3994 C   0  0  0  0  0  0  0  0  0  0  0  0
   -5.4358    1.1590    0.6071 N   0  0  0  0  0  0  0  0  0  0  0  0
   -4.7232   -0.0253    0.2760 C   0  0  1  0  0  0  0  0  0  0  0  0
   -3.5845    0.4198   -0.6248 C   0  0  0  0  0  0  0  0  0  0  0  0
   -2.2791    0.1915   -0.2445 C   0  0  0  0  0  0  0  0  0  0  0  0
   -1.2231    0.5905   -1.0479 C   0  0  0  0  0  0  0  0  0  0  0  0
    0.1444    0.4237   -0.7878 N   0  0  0  0  0  0  0  0  0  0  0  0
    0.7505   -0.1817    0.3371 C   0  0  0  0  0  0  0  0  0  0  0  0
    0.0188   -0.6403    1.2388 O   0  0  0  0  0  0  0  0  0  0  0  0
    2.2222   -0.2772    0.4576 C   0  0  0  0  0  0  0  0  0  0  0  0
    2.7726   -0.8701    1.5614 C   0  0  0  0  0  0  0  0  0  0  0  0
    4.1596   -0.9714    1.6963 C   0  0  0  0  0  0  0  0  0  0  0  0
    4.9360   -0.4511    0.6756 C   0  0  0  0  0  0  0  0  0  0  0  0
    6.3148   -0.5144    0.7387 O   0  0  0  0  0  0  0  0  0  0  0  0
    7.1025    0.0181   -0.3058 C   0  0  0  0  0  0  0  0  0  0  0  0
    8.5433   -0.2411    0.1269 C   0  0  0  0  0  0  0  0  0  0  0  0
    9.3629   -1.1220   -0.0066 N   0  0  0  0  0  0  0  0  0  0  0  0
   10.5777   -1.1199    0.4724 C   0  0  0  0  0  0  0  0  0  0  0  0
   10.9677   -0.0300    1.1900 C   0  0  0  0  0  0  0  0  0  0  0  0
    9.4220    0.9721    1.1007 S   0  0  0  0  0  0  0  0  0  0  0  0
    4.3523    0.1393   -0.4220 C   0  0  0  0  0  0  0  0  0  0  0  0
    3.0234    0.2052   -0.4922 N   0  0  0  0  0  0  0  0  0  0  0  0
   -1.5822    1.2220   -2.2345 C   0  0  0  0  0  0  0  0  0  0  0  0
   -2.8836    1.4524   -2.6188 C   0  0  0  0  0  0  0  0  0  0  0  0
   -3.9178    1.0460   -1.8025 C   0  0  0  0  0  0  0  0  0  0  0  0
   -5.2132    1.2295   -2.0987 F   0  0  0  0  0  0  0  0  0  0  0  0
   -4.1346   -0.6511    1.5340 C   0  0  0  0  0  0  0  0  0  0  0  0
   -5.1526   -0.9521    2.4309 F   0  0  0  0  0  0  0  0  0  0  0  0
   -3.4929   -1.8382    1.2449 F   0  0  0  0  0  0  0  0  0  0  0  0
   -5.5203   -1.0348   -0.4472 C   0  0  1  0  0  0  0  0  0  0  0  0
   -6.6211   -1.8313    0.1940 C   0  0  0  0  0  0  0  0  0  0  0  0
   -6.9306   -0.7165   -0.7741 C   0  0  1  0  0  0  0  0  0  0  0  0
   -7.4386    0.4532   -0.2197 O   0  0  0  0  0  0  0  0  0  0  0  0
   -7.8633    2.7091    1.6072 H   0  0  0  0  0  0  0  0  0  0  0  0
   -7.0107    3.4981    0.2331 H   0  0  0  0  0  0  0  0  0  0  0  0
   -2.0201   -0.2904    0.6647 H   0  0  0  0  0  0  0  0  0  0  0  0
    0.8318    0.7944   -1.5205 H   0  0  0  0  0  0  0  0  0  0  0  0
    2.1857   -1.2852    2.3744 H   0  0  0  0  0  0  0  0  0  0  0  0
    4.6346   -1.4263    2.5410 H   0  0  0  0  0  0  0  0  0  0  0  0
    6.9171   -0.4690   -1.2815 H   0  0  0  0  0  0  0  0  0  0  0  0
    6.9723    1.1187   -0.4053 H   0  0  0  0  0  0  0  0  0  0  0  0
   11.2700   -1.9867    0.2960 H   0  0  0  0  0  0  0  0  0  0  0  0
   11.8681    0.2884    1.7091 H   0  0  0  0  0  0  0  0  0  0  0  0
    4.9870    0.5464   -1.2220 H   0  0  0  0  0  0  0  0  0  0  0  0
   -0.8009    1.5641   -2.9181 H   0  0  0  0  0  0  0  0  0  0  0  0
   -3.1466    1.9439   -3.5430 H   0  0  0  0  0  0  0  0  0  0  0  0
   -3.4256    0.0382    1.9947 H   0  0  0  0  0  0  0  0  0  0  0  0
   -4.9466   -1.6943   -1.1950 H   0  0  0  0  0  0  0  0  0  0  0  0
   -6.8767   -2.8417   -0.1980 H   0  0  0  0  0  0  0  0  0  0  0  0
   -6.8674   -1.6454    1.2413 H   0  0  0  0  0  0  0  0  0  0  0  0
   -7.3435   -0.9984   -1.7747 H   0  0  0  0  0  0  0  0  0  0  0  0
  1  2  1  0
  2  3  2  0
  3  4  1  0
  4  5  1  0
  5  6  2  0
  6  7  1  0
  7  8  1  0
  8  9  1  0
  9 10  2  0
  9 11  1  0
 11 12  2  0
 12 13  1  0
 13 14  2  0
 14 15  1  0
 15 16  1  0
 16 17  1  0
 17 18  2  0
 18 19  1  0
 19 20  2  0
 20 21  1  0
 14 22  1  0
 22 23  2  0
  7 24  2  0
 24 25  1  0
 25 26  2  0
 26 27  1  0
  4 28  1  1
 28 29  1  0
 28 30  1  0
  4 31  1  0
 31 32  1  0
 32 33  1  0
 33 34  1  0
 34  2  1  0
 26  5  1  0
 33 31  1  0
 23 11  1  0
 21 17  1  0
  1 35  1  0
  1 36  1  0
  6 37  1  0
  8 38  1  0
 12 39  1  0
 13 40  1  0
 16 41  1  0
 16 42  1  0
 19 43  1  0
 20 44  1  0
 22 45  1  0
 24 46  1  0
 25 47  1  0
 28 48  1  0
 31 49  1  6
 32 50  1  0
 32 51  1  0
 33 52  1  6
M  END
$$$$
