
     RDKit          3D

 53 56  0  0  0  0  0  0  0  0999 V2000
    6.1853    0.1505   -2.2708 N   0  0  0  0  0  0  0  0  0  0  0  0
    6.3107    0.8020   -0.9891 C   0  0  0  0  0  0  0  0  0  0  0  0
    7.3676    0.8662   -0.2565 N   0  0  0  0  0  0  0  0  0  0  0  0
    7.0875    1.6161    0.9729 C   0  0  0  0  0  0  0  0  0  0  0  0
    5.5567    1.5575    1.0552 C   0  0  0  0  0  0  0  0  0  0  0  0
    5.2341    1.4805   -0.3570 N   0  0  0  0  0  0  0  0  0  0  0  0
    4.0325    2.0056   -0.9782 C   0  0  0  0  0  0  0  0  0  0  0  0
    2.8700    1.3288   -0.3561 C   0  0  0  0  0  0  0  0  0  0  0  0
    2.2705    1.8707    0.7678 C   0  0  0  0  0  0  0  0  0  0  0  0
    1.2018    1.2060    1.3015 C   0  0  0  0  0  0  0  0  0  0  0  0
    0.6949    0.0177    0.7676 C   0  0  0  0  0  0  0  0  0  0  0  0
   -0.4408   -0.6014    1.4131 C   0  0  0  0  0  0  0  0  0  0  0  0
   -0.9699   -0.0738    2.4487 O   0  0  0  0  0  0  0  0  0  0  0  0
   -1.0074   -1.7978    0.9359 N   0  0  0  0  0  0  0  0  0  0  0  0
   -2.1223   -2.4330    1.5448 C   0  0  0  0  0  0  0  0  0  0  0  0
   -1.9875   -3.3648    2.5369 C   0  0  0  0  0  0  0  0  0  0  0  0
   -3.1103   -3.9739    3.1177 C   0  0  0  0  0  0  0  0  0  0  0  0
   -4.3553   -3.6132    2.6669 C   0  0  0  0  0  0  0  0  0  0  0  0
   -5.7660   -4.3586    3.3757 Cl  0  0  0  0  0  0  0  0  0  0  0  0
   -4.5075   -2.6798    1.6720 C   0  0  0  0  0  0  0  0  0  0  0  0
   -3.3837   -2.0921    1.1139 C   0  0  0  0  0  0  0  0  0  0  0  0
   -3.5225   -1.1183    0.0748 C   0  0  0  0  0  0  0  0  0  0  0  0
   -2.4901   -0.5892   -0.4317 O   0  0  0  0  0  0  0  0  0  0  0  0
   -4.7789   -0.7152   -0.4181 N   0  0  0  0  0  0  0  0  0  0  0  0
   -4.8374    0.2701   -1.4652 C   0  0  0  0  0  0  0  0  0  0  0  0
   -6.0804    0.6468   -1.9299 C   0  0  0  0  0  0  0  0  0  0  0  0
   -6.1465    1.5868   -2.9292 C   0  0  0  0  0  0  0  0  0  0  0  0
   -4.9580    2.0939   -3.4038 C   0  0  0  0  0  0  0  0  0  0  0  0
   -4.9874    3.2841   -4.6662 Cl  0  0  0  0  0  0  0  0  0  0  0  0
   -3.7301    1.6944   -2.9158 C   0  0  0  0  0  0  0  0  0  0  0  0
   -3.6962    0.7825   -1.9479 N   0  0  0  0  0  0  0  0  0  0  0  0
    1.3351   -0.4627   -0.3440 C   0  0  0  0  0  0  0  0  0  0  0  0
    2.4189    0.1606   -0.9309 C   0  0  0  0  0  0  0  0  0  0  0  0
    5.7120   -0.7924   -2.3221 H   0  0  0  0  0  0  0  0  0  0  0  0
    6.5343    0.5571   -3.1439 H   0  0  0  0  0  0  0  0  0  0  0  0
    7.3842    2.6647    0.8582 H   0  0  0  0  0  0  0  0  0  0  0  0
    7.5654    1.0837    1.8018 H   0  0  0  0  0  0  0  0  0  0  0  0
    5.2764    0.5928    1.5015 H   0  0  0  0  0  0  0  0  0  0  0  0
    5.1373    2.4305    1.5533 H   0  0  0  0  0  0  0  0  0  0  0  0
    4.0454    1.8343   -2.0529 H   0  0  0  0  0  0  0  0  0  0  0  0
    3.9914    3.1112   -0.7792 H   0  0  0  0  0  0  0  0  0  0  0  0
    2.6340    2.7885    1.2099 H   0  0  0  0  0  0  0  0  0  0  0  0
    0.7349    1.6282    2.1769 H   0  0  0  0  0  0  0  0  0  0  0  0
   -0.5587   -2.2299    0.0714 H   0  0  0  0  0  0  0  0  0  0  0  0
   -1.0006   -3.6241    2.8661 H   0  0  0  0  0  0  0  0  0  0  0  0
   -3.0130   -4.7078    3.8986 H   0  0  0  0  0  0  0  0  0  0  0  0
   -5.5268   -2.4236    1.3442 H   0  0  0  0  0  0  0  0  0  0  0  0
   -5.6573   -1.0981   -0.0584 H   0  0  0  0  0  0  0  0  0  0  0  0
   -6.9917    0.2088   -1.5140 H   0  0  0  0  0  0  0  0  0  0  0  0
   -7.0805    1.9351   -3.3476 H   0  0  0  0  0  0  0  0  0  0  0  0
   -2.7917    2.0866   -3.2817 H   0  0  0  0  0  0  0  0  0  0  0  0
    1.0008   -1.3647   -0.8026 H   0  0  0  0  0  0  0  0  0  0  0  0
    2.9166   -0.2276   -1.8084 H   0  0  0  0  0  0  0  0  0  0  0  0
  1  2  1  0
  2  3  2  0
  3  4  1  0
  4  5  1  0
  5  6  1  0
  6  7  1  0
  7  8  1  0
  8  9  2  0
  9 10  1  0
 10 11  2  0
 11 12  1  0
 12 13  2  0
 12 14  1  0
 14 15  1  0
 15 16  2  0
 16 17  1  0
 17 18  2  0
 18 19  1  0
 18 20  1  0
 20 21  2  0
 21 22  1  0
 22 23  2  0
 22 24  1  0
 24 25  1  0
 25 26  2  0
 26 27  1  0
 27 28  2  0
 28 29  1  0
 28 30  1  0
 30 31  2  0
 11 32  1  0
 32 33  2  0
  6  2  1  0
 33  8  1  0
 21 15  1  0
 31 25  1  0
  1 34  1  0
  1 35  1  0
  4 36  1  0
  4 37  1  0
  5 38  1  0
  5 39  1  0
  7 40  1  0
  7 41  1  0
  9 42  1  0
 10 43  1  0
 14 44  1  0
 16 45  1  0
 17 46  1  0
 20 47  1  0
 24 48  1  0
 26 49  1  0
 27 50  1  0
 30 51  1  0
 32 52  1  0
 33 53  1  0
M  END
$$$$
