
     RDKit          3D

 54 55  0  0  0  0  0  0  0  0999 V2000
   -1.4742   -1.9722   -0.7489 C   0  0  2  0  0  0  0  0  0  0  0  0
   -2.0000   -1.8032    0.6629 C   0  0  0  0  0  0  0  0  0  0  0  0
   -2.5017   -0.4428    0.9127 C   0  0  0  0  0  0  0  0  0  0  0  0
   -1.7321    0.5977    1.3925 C   0  0  0  0  0  0  0  0  0  0  0  0
   -2.2659    1.8630    1.6081 C   0  0  0  0  0  0  0  0  0  0  0  0
   -3.5969    2.1353    1.3501 C   0  0  0  0  0  0  0  0  0  0  0  0
   -4.3743    1.1030    0.8706 C   0  0  0  0  0  0  0  0  0  0  0  0
   -3.8257   -0.1457    0.6633 C   0  0  0  0  0  0  0  0  0  0  0  0
   -5.7695    1.4418    0.6149 C   0  0  0  0  0  0  0  0  0  0  0  0
   -7.0023    0.7336    0.6453 N   0  0  0  0  0  0  0  0  0  0  0  0
   -6.1180    2.6354    0.2690 N   0  0  0  0  0  0  0  0  0  0  0  0
   -0.3832   -1.0451   -0.9788 N   0  0  0  0  0  0  0  0  0  0  0  0
    0.9135   -1.5591   -1.2528 C   0  0  0  0  0  0  0  0  0  0  0  0
    1.1392   -2.8132   -1.3011 O   0  0  0  0  0  0  0  0  0  0  0  0
    2.1520   -0.7810   -1.5140 C   0  0  0  0  0  0  0  0  0  0  0  0
    1.8302    0.6195   -1.4453 N   0  0  0  0  0  0  0  0  0  0  0  0
    3.2089    1.6159   -1.7358 S   0  0  0  0  0  0  0  0  0  0  0  0
    3.8705    1.3140   -3.0305 O   0  0  0  0  0  0  0  0  0  0  0  0
    2.8900    3.0620   -1.5962 O   0  0  0  0  0  0  0  0  0  0  0  0
    4.3623    1.2336   -0.4524 C   0  0  0  0  0  0  0  0  0  0  0  0
    5.2738    0.2079   -0.6832 C   0  0  0  0  0  0  0  0  0  0  0  0
    6.1641   -0.0734    0.3315 C   0  0  0  0  0  0  0  0  0  0  0  0
    6.2211    0.5804    1.5526 C   0  0  0  0  0  0  0  0  0  0  0  0
    7.2326    0.1775    2.5617 C   0  0  0  0  0  0  0  0  0  0  0  0
    5.2907    1.5897    1.7231 C   0  0  0  0  0  0  0  0  0  0  0  0
    4.3703    1.9278    0.7558 C   0  0  0  0  0  0  0  0  0  0  0  0
   -2.5356   -1.8390   -1.7588 C   0  0  0  0  0  0  0  0  0  0  0  0
   -2.5822   -1.0457   -2.7406 O   0  0  0  0  0  0  0  0  0  0  0  0
   -3.6229   -2.7167   -1.5855 O   0  0  0  0  0  0  0  0  0  0  0  0
   -4.6859   -2.6274   -2.5444 C   0  0  0  0  0  0  0  0  0  0  0  0
   -1.0474   -2.9918   -0.8398 H   0  0  0  0  0  0  0  0  0  0  0  0
   -2.8590   -2.5061    0.7976 H   0  0  0  0  0  0  0  0  0  0  0  0
   -1.2580   -2.0927    1.4077 H   0  0  0  0  0  0  0  0  0  0  0  0
   -0.6913    0.4177    1.6034 H   0  0  0  0  0  0  0  0  0  0  0  0
   -1.6200    2.6466    1.9860 H   0  0  0  0  0  0  0  0  0  0  0  0
   -3.9913    3.1213    1.5235 H   0  0  0  0  0  0  0  0  0  0  0  0
   -4.5389   -0.8667    0.2857 H   0  0  0  0  0  0  0  0  0  0  0  0
   -7.4768   -0.0625    0.1638 H   0  0  0  0  0  0  0  0  0  0  0  0
   -6.6659    0.1021   -0.1400 H   0  0  0  0  0  0  0  0  0  0  0  0
   -5.4676    3.4396    0.1435 H   0  0  0  0  0  0  0  0  0  0  0  0
   -0.4537   -0.0048   -0.9632 H   0  0  0  0  0  0  0  0  0  0  0  0
    2.8874   -1.0476   -0.7195 H   0  0  0  0  0  0  0  0  0  0  0  0
    2.6216   -1.0671   -2.4691 H   0  0  0  0  0  0  0  0  0  0  0  0
    1.4559    0.8721   -0.5206 H   0  0  0  0  0  0  0  0  0  0  0  0
    5.3071   -0.3620   -1.6077 H   0  0  0  0  0  0  0  0  0  0  0  0
    6.8789   -0.8683    0.1668 H   0  0  0  0  0  0  0  0  0  0  0  0
    6.9579   -0.8237    2.9795 H   0  0  0  0  0  0  0  0  0  0  0  0
    7.1372    0.8853    3.4104 H   0  0  0  0  0  0  0  0  0  0  0  0
    8.2406    0.1211    2.1276 H   0  0  0  0  0  0  0  0  0  0  0  0
    5.3155    2.1154    2.6696 H   0  0  0  0  0  0  0  0  0  0  0  0
    3.6522    2.7194    0.9093 H   0  0  0  0  0  0  0  0  0  0  0  0
   -4.7285   -1.5743   -2.9400 H   0  0  0  0  0  0  0  0  0  0  0  0
   -4.4432   -3.2661   -3.4197 H   0  0  0  0  0  0  0  0  0  0  0  0
   -5.6618   -2.8799   -2.1249 H   0  0  0  0  0  0  0  0  0  0  0  0
  1  2  1  0
  2  3  1  0
  3  4  2  0
  4  5  1  0
  5  6  2  0
  6  7  1  0
  7  8  2  0
  7  9  1  0
  9 10  1  0
  9 11  2  3
  1 12  1  0
 12 13  1  0
 13 14  2  0
 13 15  1  0
 15 16  1  0
 16 17  1  0
 17 18  2  0
 17 19  2  0
 17 20  1  0
 20 21  2  0
 21 22  1  0
 22 23  2  0
 23 24  1  0
 23 25  1  0
 25 26  2  0
  1 27  1  0
 27 28  2  0
 27 29  1  0
 29 30  1  0
  8  3  1  0
 26 20  1  0
  1 31  1  1
  2 32  1  0
  2 33  1  0
  4 34  1  0
  5 35  1  0
  6 36  1  0
  8 37  1  0
 10 38  1  0
 10 39  1  0
 11 40  1  0
 12 41  1  0
 15 42  1  0
 15 43  1  0
 16 44  1  0
 21 45  1  0
 22 46  1  0
 24 47  1  0
 24 48  1  0
 24 49  1  0
 25 50  1  0
 26 51  1  0
 30 52  1  0
 30 53  1  0
 30 54  1  0
M  END
$$$$
