
     RDKit          3D

 51 55  0  0  0  0  0  0  0  0999 V2000
    7.0834    1.1503   -1.0167 C   0  0  0  0  0  0  0  0  0  0  0  0
    6.6171    1.8239    0.3340 C   0  0  0  0  0  0  0  0  0  0  0  0
    7.1790    0.9921    1.4228 C   0  0  0  0  0  0  0  0  0  0  0  0
    6.9144    3.1049    0.2227 O   0  0  0  0  0  0  0  0  0  0  0  0
    5.1407    1.4943    0.3775 C   0  0  0  0  0  0  0  0  0  0  0  0
    3.9336    1.2191    0.4170 C   0  0  0  0  0  0  0  0  0  0  0  0
    2.5316    0.9017    0.4410 C   0  0  0  0  0  0  0  0  0  0  0  0
    1.6639    1.6295    1.2047 C   0  0  0  0  0  0  0  0  0  0  0  0
    0.3147    1.3160    1.1531 C   0  0  0  0  0  0  0  0  0  0  0  0
   -0.1542    0.3150    0.3658 C   0  0  0  0  0  0  0  0  0  0  0  0
    0.7349   -0.4374   -0.4155 C   0  0  0  0  0  0  0  0  0  0  0  0
    2.0745   -0.1239   -0.3627 C   0  0  0  0  0  0  0  0  0  0  0  0
    0.2954   -1.4425   -1.2265 C   0  0  0  0  0  0  0  0  0  0  0  0
    1.1887   -2.1957   -1.9907 C   0  0  0  0  0  0  0  0  0  0  0  0
    0.6728   -3.2035   -2.7739 C   0  0  0  0  0  0  0  0  0  0  0  0
    1.8023   -4.1696   -3.7498 Cl  0  0  0  0  0  0  0  0  0  0  0  0
   -0.6649   -3.5184   -2.8521 C   0  0  0  0  0  0  0  0  0  0  0  0
   -1.5285   -2.7419   -2.0696 C   0  0  0  0  0  0  0  0  0  0  0  0
   -1.0709   -1.7308   -1.2786 C   0  0  0  0  0  0  0  0  0  0  0  0
   -1.9374   -0.9625   -0.5054 C   0  0  0  0  0  0  0  0  0  0  0  0
   -3.2556   -0.9916   -0.3673 N   0  0  0  0  0  0  0  0  0  0  0  0
   -3.6732   -0.0302    0.5225 C   0  0  0  0  0  0  0  0  0  0  0  0
   -5.0693    0.1007    0.8291 C   0  0  0  0  0  0  0  0  0  0  0  0
   -5.5189    1.0779    1.7777 C   0  0  0  0  0  0  0  0  0  0  0  0
   -4.6715    1.9677    2.4796 C   0  0  0  0  0  0  0  0  0  0  0  0
   -3.9827    2.7030    3.0341 N   0  0  0  0  0  0  0  0  0  0  0  0
   -6.8860    1.1449    2.0382 C   0  0  0  0  0  0  0  0  0  0  0  0
   -7.8016    0.3262    1.4286 C   0  0  0  0  0  0  0  0  0  0  0  0
   -7.3474   -0.6246    0.5073 C   0  0  0  0  0  0  0  0  0  0  0  0
   -5.9934   -0.6760    0.2639 C   0  0  0  0  0  0  0  0  0  0  0  0
   -5.5678   -1.6904   -0.7736 C   0  0  0  0  0  0  0  0  0  0  0  0
   -5.2528   -2.4922   -1.5777 N   0  0  0  0  0  0  0  0  0  0  0  0
   -2.5707    0.6012    0.9327 N   0  0  0  0  0  0  0  0  0  0  0  0
   -1.5129    0.0442    0.3126 C   0  0  0  0  0  0  0  0  0  0  0  0
    6.1836    0.8710   -1.5579 H   0  0  0  0  0  0  0  0  0  0  0  0
    7.7085    1.8191   -1.5998 H   0  0  0  0  0  0  0  0  0  0  0  0
    7.6757    0.2574   -0.7966 H   0  0  0  0  0  0  0  0  0  0  0  0
    7.1218    1.4080    2.4189 H   0  0  0  0  0  0  0  0  0  0  0  0
    6.5954   -0.0202    1.4371 H   0  0  0  0  0  0  0  0  0  0  0  0
    8.2007    0.6638    1.1854 H   0  0  0  0  0  0  0  0  0  0  0  0
    6.5341    3.4758   -0.6619 H   0  0  0  0  0  0  0  0  0  0  0  0
    1.9880    2.4339    1.8298 H   0  0  0  0  0  0  0  0  0  0  0  0
   -0.4003    1.8490    1.7558 H   0  0  0  0  0  0  0  0  0  0  0  0
    2.7756   -0.6724   -0.9744 H   0  0  0  0  0  0  0  0  0  0  0  0
    2.2419   -2.0619   -2.0090 H   0  0  0  0  0  0  0  0  0  0  0  0
   -1.0947   -4.3136   -3.4349 H   0  0  0  0  0  0  0  0  0  0  0  0
   -2.5934   -2.9457   -2.1176 H   0  0  0  0  0  0  0  0  0  0  0  0
   -7.2614    1.8716    2.7355 H   0  0  0  0  0  0  0  0  0  0  0  0
   -8.8513    0.3995    1.6579 H   0  0  0  0  0  0  0  0  0  0  0  0
   -8.0359   -1.2722    0.0261 H   0  0  0  0  0  0  0  0  0  0  0  0
   -2.4753    1.3554    1.5853 H   0  0  0  0  0  0  0  0  0  0  0  0
  1  2  1  0
  2  3  1  0
  2  4  1  0
  2  5  1  0
  5  6  3  0
  6  7  1  0
  7  8  2  0
  8  9  1  0
  9 10  2  0
 10 11  1  0
 11 12  2  0
 11 13  1  0
 13 14  2  0
 14 15  1  0
 15 16  1  0
 15 17  2  0
 17 18  1  0
 18 19  2  0
 19 20  1  0
 20 21  1  0
 21 22  2  0
 22 23  1  0
 23 24  2  0
 24 25  1  0
 25 26  3  0
 24 27  1  0
 27 28  2  0
 28 29  1  0
 29 30  2  0
 30 31  1  0
 31 32  3  0
 22 33  1  0
 33 34  1  0
 12  7  1  0
 19 13  1  0
 34 20  2  0
 34 10  1  0
 30 23  1  0
  1 35  1  0
  1 36  1  0
  1 37  1  0
  3 38  1  0
  3 39  1  0
  3 40  1  0
  4 41  1  0
  8 42  1  0
  9 43  1  0
 12 44  1  0
 14 45  1  0
 17 46  1  0
 18 47  1  0
 27 48  1  0
 28 49  1  0
 29 50  1  0
 33 51  1  0
M  END
$$$$
