
     RDKit          3D

 70 74  0  0  0  0  0  0  0  0999 V2000
   -5.2324    1.6414   -1.0026 C   0  0  0  0  0  0  0  0  0  0  0  0
   -4.0128    1.0287   -1.7069 C   0  0  2  0  0  0  0  0  0  0  0  0
   -2.9575    2.0801   -1.6288 C   0  0  0  0  0  0  0  0  0  0  0  0
   -1.6810    1.8652   -1.1866 C   0  0  0  0  0  0  0  0  0  0  0  0
   -0.7125    2.8341   -1.1389 C   0  0  0  0  0  0  0  0  0  0  0  0
    0.6538    2.6162   -0.6797 C   0  0  0  0  0  0  0  0  0  0  0  0
    1.3244    1.5015   -0.9141 C   0  0  0  0  0  0  0  0  0  0  0  0
    0.6615    0.5463   -1.6216 F   0  0  0  0  0  0  0  0  0  0  0  0
    2.6838    1.2474   -0.4783 C   0  0  0  0  0  0  0  0  0  0  0  0
    3.2679    0.0325   -0.7658 C   0  0  0  0  0  0  0  0  0  0  0  0
    4.5374   -0.2503   -0.3780 N   0  0  0  0  0  0  0  0  0  0  0  0
    5.2374    0.6746    0.3009 C   0  0  0  0  0  0  0  0  0  0  0  0
    6.6000    0.3737    0.7210 C   0  0  0  0  0  0  0  0  0  0  0  0
    7.7381    0.1314    1.0618 C   0  0  0  0  0  0  0  0  0  0  0  0
    9.4492   -0.2181    1.5440 Si  0  0  0  0  0  4  0  0  0  0  0  0
    9.5809   -0.1216    3.3858 C   0  0  0  0  0  0  0  0  0  0  0  0
    9.9645   -1.9340    0.9661 C   0  0  0  0  0  0  0  0  0  0  0  0
   10.6273    1.0357    0.8058 C   0  0  0  0  0  0  0  0  0  0  0  0
    4.6856    1.8902    0.6007 C   0  0  0  0  0  0  0  0  0  0  0  0
    3.4137    2.1342    0.1952 N   0  0  0  0  0  0  0  0  0  0  0  0
   -1.0799    4.0994   -1.5707 C   0  0  0  0  0  0  0  0  0  0  0  0
   -2.3554    4.3665   -2.0253 C   0  0  0  0  0  0  0  0  0  0  0  0
   -3.2988    3.3454   -2.0529 C   0  0  0  0  0  0  0  0  0  0  0  0
   -4.5559    3.6201   -2.5064 F   0  0  0  0  0  0  0  0  0  0  0  0
   -4.3614    0.9495   -3.0929 N   0  0  0  0  0  0  0  0  0  0  0  0
   -5.2630    0.1545   -3.5098 C   0  0  0  0  0  0  0  0  0  0  0  0
   -5.6551    0.0273   -4.8512 N   0  0  0  0  0  0  0  0  0  0  0  0
   -6.0122   -0.8731   -2.2582 S   0  0  0  0  0  0  0  0  0  0  0  0
   -4.6130   -1.3041   -1.1532 C   0  0  1  0  0  0  0  0  0  0  0  0
   -4.8635   -2.3566   -0.1836 C   0  0  0  0  0  0  0  0  0  0  0  0
   -5.2934   -3.4708   -0.7008 O   0  0  0  0  0  0  0  0  0  0  0  0
   -4.7017   -2.2988    1.2009 N   0  0  0  0  0  0  0  0  0  0  0  0
   -4.3022   -1.1426    1.9551 C   0  0  0  0  0  0  0  0  0  0  0  0
   -5.0561   -1.0602    3.2804 C   0  0  0  0  0  0  0  0  0  0  0  0
   -5.2025   -2.2675    3.9163 O   0  0  0  0  0  0  0  0  0  0  0  0
   -5.9174   -3.1174    3.0800 C   0  0  0  0  0  0  0  0  0  0  0  0
   -4.9385   -3.5258    1.9788 C   0  0  0  0  0  0  0  0  0  0  0  0
   -3.2786   -1.4265   -1.9083 C   0  0  0  0  0  0  0  0  0  0  0  0
   -3.6079   -0.2484   -1.0699 C   0  0  1  0  0  0  0  0  0  0  0  0
   -5.9826    2.0258   -1.7278 H   0  0  0  0  0  0  0  0  0  0  0  0
   -5.7537    0.9073   -0.3723 H   0  0  0  0  0  0  0  0  0  0  0  0
   -4.9546    2.5050   -0.3679 H   0  0  0  0  0  0  0  0  0  0  0  0
   -1.4292    0.8786   -0.8583 H   0  0  0  0  0  0  0  0  0  0  0  0
    1.1904    3.3880   -0.1107 H   0  0  0  0  0  0  0  0  0  0  0  0
    2.7624   -0.7412   -1.2986 H   0  0  0  0  0  0  0  0  0  0  0  0
    9.5016    0.9335    3.7482 H   0  0  0  0  0  0  0  0  0  0  0  0
    8.8243   -0.7281    3.9118 H   0  0  0  0  0  0  0  0  0  0  0  0
   10.6062   -0.4605    3.6796 H   0  0  0  0  0  0  0  0  0  0  0  0
    9.7175   -1.9973   -0.1257 H   0  0  0  0  0  0  0  0  0  0  0  0
   11.0463   -2.0442    1.1438 H   0  0  0  0  0  0  0  0  0  0  0  0
    9.3402   -2.6797    1.4893 H   0  0  0  0  0  0  0  0  0  0  0  0
   11.6581    0.6929    1.0285 H   0  0  0  0  0  0  0  0  0  0  0  0
   10.4933    2.0174    1.2995 H   0  0  0  0  0  0  0  0  0  0  0  0
   10.5237    1.1166   -0.2853 H   0  0  0  0  0  0  0  0  0  0  0  0
    5.2819    2.6097    1.1444 H   0  0  0  0  0  0  0  0  0  0  0  0
   -0.3468    4.8965   -1.5513 H   0  0  0  0  0  0  0  0  0  0  0  0
   -2.6622    5.3464   -2.3695 H   0  0  0  0  0  0  0  0  0  0  0  0
   -5.9720   -0.9046   -5.1902 H   0  0  0  0  0  0  0  0  0  0  0  0
   -5.6550    0.8076   -5.5482 H   0  0  0  0  0  0  0  0  0  0  0  0
   -4.6349   -0.2315    1.4013 H   0  0  0  0  0  0  0  0  0  0  0  0
   -3.2167   -1.1870    2.1150 H   0  0  0  0  0  0  0  0  0  0  0  0
   -6.0730   -0.6631    3.0384 H   0  0  0  0  0  0  0  0  0  0  0  0
   -4.5217   -0.3133    3.9151 H   0  0  0  0  0  0  0  0  0  0  0  0
   -6.7232   -2.5604    2.5563 H   0  0  0  0  0  0  0  0  0  0  0  0
   -6.3245   -3.9988    3.6175 H   0  0  0  0  0  0  0  0  0  0  0  0
   -3.9842   -3.7877    2.4770 H   0  0  0  0  0  0  0  0  0  0  0  0
   -5.3441   -4.3256    1.3479 H   0  0  0  0  0  0  0  0  0  0  0  0
   -3.2872   -1.3020   -3.0120 H   0  0  0  0  0  0  0  0  0  0  0  0
   -2.5642   -2.1891   -1.5689 H   0  0  0  0  0  0  0  0  0  0  0  0
   -2.9889   -0.2105   -0.1355 H   0  0  0  0  0  0  0  0  0  0  0  0
  2  1  1  1
  2  3  1  0
  3  4  2  0
  4  5  1  0
  5  6  1  0
  6  7  2  0
  7  8  1  0
  7  9  1  0
  9 10  2  0
 10 11  1  0
 11 12  2  0
 12 13  1  0
 13 14  3  0
 14 15  1  0
 15 16  1  0
 15 17  1  0
 15 18  1  0
 12 19  1  0
 19 20  2  0
  5 21  2  0
 21 22  1  0
 22 23  2  0
 23 24  1  0
  2 25  1  0
 25 26  2  0
 26 27  1  0
 26 28  1  0
 28 29  1  0
 29 30  1  1
 30 31  2  0
 30 32  1  0
 32 33  1  0
 33 34  1  0
 34 35  1  0
 35 36  1  0
 36 37  1  0
 29 38  1  0
 38 39  1  0
 39  2  1  0
 23  3  1  0
 39 29  1  0
 20  9  1  0
 37 32  1  0
  1 40  1  0
  1 41  1  0
  1 42  1  0
  4 43  1  0
  6 44  1  0
 10 45  1  0
 16 46  1  0
 16 47  1  0
 16 48  1  0
 17 49  1  0
 17 50  1  0
 17 51  1  0
 18 52  1  0
 18 53  1  0
 18 54  1  0
 19 55  1  0
 21 56  1  0
 22 57  1  0
 27 58  1  0
 27 59  1  0
 33 60  1  0
 33 61  1  0
 34 62  1  0
 34 63  1  0
 36 64  1  0
 36 65  1  0
 37 66  1  0
 37 67  1  0
 38 68  1  0
 38 69  1  0
 39 70  1  1
M  END
$$$$
