
     RDKit          3D

 61 63  0  0  0  0  0  0  0  0999 V2000
   -4.9434    4.4471    1.8310 C   0  0  0  0  0  0  0  0  0  0  0  0
   -3.8020    3.4707    1.9917 C   0  0  0  0  0  0  0  0  0  0  0  0
   -3.9237    2.3307    0.9886 C   0  0  0  0  0  0  0  0  0  0  0  0
   -2.7797    1.3484    1.1482 C   0  0  0  0  0  0  0  0  0  0  0  0
   -2.8388    0.2146    0.2035 C   0  0  0  0  0  0  0  0  0  0  0  0
   -3.7801    0.3228   -0.6557 O   0  0  0  0  0  0  0  0  0  0  0  0
   -1.9125   -0.8915    0.2684 N   0  0  0  0  0  0  0  0  0  0  0  0
   -0.8279   -1.0234    1.2349 C   0  0  0  0  0  0  0  0  0  0  0  0
    0.4501   -0.4664    0.7897 C   0  0  0  0  0  0  0  0  0  0  0  0
    1.2635   -1.3395    0.0575 C   0  0  0  0  0  0  0  0  0  0  0  0
    2.4997   -0.9657   -0.4262 C   0  0  0  0  0  0  0  0  0  0  0  0
    3.0172    0.2994   -0.2186 C   0  0  0  0  0  0  0  0  0  0  0  0
    2.2184    1.1865    0.5115 C   0  0  0  0  0  0  0  0  0  0  0  0
    0.9873    0.7865    0.9831 C   0  0  0  0  0  0  0  0  0  0  0  0
    4.2663    0.8670   -0.6364 C   0  0  0  0  0  0  0  0  0  0  0  0
    4.1471    1.9294   -1.5326 C   0  0  0  0  0  0  0  0  0  0  0  0
    5.3031    2.5486   -2.0040 C   0  0  0  0  0  0  0  0  0  0  0  0
    6.5441    2.1156   -1.5893 C   0  0  0  0  0  0  0  0  0  0  0  0
    6.6853    1.0536   -0.6923 C   0  0  0  0  0  0  0  0  0  0  0  0
    5.5215    0.4650   -0.2467 C   0  0  0  0  0  0  0  0  0  0  0  0
    5.6204   -0.6422    0.6892 C   0  0  0  0  0  0  0  0  0  0  0  0
    6.7945   -1.1241    1.1300 N   0  0  0  0  0  0  0  0  0  0  0  0
    6.6583   -2.1189    1.9672 N   0  0  0  0  0  0  0  0  0  0  0  0
    5.3456   -2.2858    2.0709 N   0  0  0  0  0  0  0  0  0  0  0  0
    4.7134   -1.4084    1.3111 N   0  0  0  0  0  0  0  0  0  0  0  0
   -2.0959   -1.9476   -0.7024 C   0  0  1  0  0  0  0  0  0  0  0  0
   -3.4599   -2.5975   -0.6435 C   0  0  0  0  0  0  0  0  0  0  0  0
   -3.7385   -3.2166    0.6982 C   0  0  0  0  0  0  0  0  0  0  0  0
   -3.4443   -3.7678   -1.6388 C   0  0  0  0  0  0  0  0  0  0  0  0
   -1.9027   -1.3933   -2.0650 C   0  0  0  0  0  0  0  0  0  0  0  0
   -1.8338   -1.4007   -3.4364 O   0  0  0  0  0  0  0  0  0  0  0  0
   -1.6255   -0.2497   -2.5160 O   0  0  0  0  0  0  0  0  0  0  0  0
   -5.0022    4.7369    0.7654 H   0  0  0  0  0  0  0  0  0  0  0  0
   -4.7000    5.3254    2.4891 H   0  0  0  0  0  0  0  0  0  0  0  0
   -5.8916    3.9682    2.1678 H   0  0  0  0  0  0  0  0  0  0  0  0
   -3.8373    3.0479    3.0186 H   0  0  0  0  0  0  0  0  0  0  0  0
   -2.8685    4.0419    1.8854 H   0  0  0  0  0  0  0  0  0  0  0  0
   -3.9569    2.7813   -0.0139 H   0  0  0  0  0  0  0  0  0  0  0  0
   -4.9012    1.8542    1.1582 H   0  0  0  0  0  0  0  0  0  0  0  0
   -1.8558    1.9631    0.9322 H   0  0  0  0  0  0  0  0  0  0  0  0
   -2.7158    1.0332    2.1879 H   0  0  0  0  0  0  0  0  0  0  0  0
   -1.1862   -0.4415    2.1345 H   0  0  0  0  0  0  0  0  0  0  0  0
   -0.7336   -2.0609    1.6146 H   0  0  0  0  0  0  0  0  0  0  0  0
    1.0390   -2.3631   -0.2070 H   0  0  0  0  0  0  0  0  0  0  0  0
    3.1624   -1.6015   -0.9978 H   0  0  0  0  0  0  0  0  0  0  0  0
    2.5018    2.2093    0.7475 H   0  0  0  0  0  0  0  0  0  0  0  0
    0.3639    1.4587    1.5524 H   0  0  0  0  0  0  0  0  0  0  0  0
    3.1779    2.3042   -1.8873 H   0  0  0  0  0  0  0  0  0  0  0  0
    5.2072    3.3805   -2.7056 H   0  0  0  0  0  0  0  0  0  0  0  0
    7.4083    2.6395   -1.9933 H   0  0  0  0  0  0  0  0  0  0  0  0
    7.6638    0.7247   -0.3755 H   0  0  0  0  0  0  0  0  0  0  0  0
    7.4776   -2.6058    2.4021 H   0  0  0  0  0  0  0  0  0  0  0  0
   -1.3034   -2.7072   -0.5272 H   0  0  0  0  0  0  0  0  0  0  0  0
   -4.2155   -1.8989   -0.9988 H   0  0  0  0  0  0  0  0  0  0  0  0
   -2.8231   -3.6931    1.1086 H   0  0  0  0  0  0  0  0  0  0  0  0
   -4.5094   -4.0126    0.6483 H   0  0  0  0  0  0  0  0  0  0  0  0
   -4.1499   -2.4556    1.4250 H   0  0  0  0  0  0  0  0  0  0  0  0
   -2.4147   -4.1938   -1.5781 H   0  0  0  0  0  0  0  0  0  0  0  0
   -3.6386   -3.4176   -2.6630 H   0  0  0  0  0  0  0  0  0  0  0  0
   -4.2243   -4.4700   -1.3136 H   0  0  0  0  0  0  0  0  0  0  0  0
   -2.2010   -2.0942   -4.0520 H   0  0  0  0  0  0  0  0  0  0  0  0
  1  2  1  0
  2  3  1  0
  3  4  1  0
  4  5  1  0
  5  6  2  0
  5  7  1  0
  7  8  1  0
  8  9  1  0
  9 10  2  0
 10 11  1  0
 11 12  2  0
 12 13  1  0
 13 14  2  0
 12 15  1  0
 15 16  2  0
 16 17  1  0
 17 18  2  0
 18 19  1  0
 19 20  2  0
 20 21  1  0
 21 22  2  0
 22 23  1  0
 23 24  1  0
 24 25  2  0
  7 26  1  0
 26 27  1  0
 27 28  1  0
 27 29  1  0
 26 30  1  0
 30 31  1  0
 30 32  2  0
 14  9  1  0
 20 15  1  0
 25 21  1  0
  1 33  1  0
  1 34  1  0
  1 35  1  0
  2 36  1  0
  2 37  1  0
  3 38  1  0
  3 39  1  0
  4 40  1  0
  4 41  1  0
  8 42  1  0
  8 43  1  0
 10 44  1  0
 11 45  1  0
 13 46  1  0
 14 47  1  0
 16 48  1  0
 17 49  1  0
 18 50  1  0
 19 51  1  0
 23 52  1  0
 26 53  1  1
 27 54  1  0
 28 55  1  0
 28 56  1  0
 28 57  1  0
 29 58  1  0
 29 59  1  0
 29 60  1  0
 31 61  1  0
M  END
$$$$
