
     RDKit          3D

 45 48  0  0  0  0  0  0  0  0999 V2000
    8.3575    0.6390    0.0659 O   0  0  0  0  0  0  0  0  0  0  0  0
    7.1567    0.5121   -0.2925 C   0  0  0  0  0  0  0  0  0  0  0  0
    6.6726   -0.0791   -1.4934 N   0  0  0  0  0  0  0  0  0  0  0  0
    5.2631   -0.0220   -1.5112 C   0  0  0  0  0  0  0  0  0  0  0  0
    4.3625   -0.4583   -2.4472 C   0  0  0  0  0  0  0  0  0  0  0  0
    3.0091   -0.2778   -2.2183 C   0  0  0  0  0  0  0  0  0  0  0  0
    2.5355    0.3297   -1.0735 C   0  0  0  0  0  0  0  0  0  0  0  0
    0.7960    0.5565   -0.8091 S   0  0  0  0  0  6  0  0  0  0  0  0
    0.6653    1.7839    0.0436 O   0  0  0  0  0  0  0  0  0  0  0  0
    0.2198    0.8733   -2.1653 O   0  0  0  0  0  0  0  0  0  0  0  0
    0.2028   -0.8643   -0.1151 N   0  0  0  0  0  0  0  0  0  0  0  0
    0.8637   -1.0782    1.1609 C   0  0  0  0  0  0  0  0  0  0  0  0
    0.0944   -0.1746    2.1325 C   0  0  0  0  0  0  0  0  0  0  0  0
   -1.2377    0.1189    1.4148 C   0  0  0  0  0  0  0  0  0  0  0  0
   -1.1778   -0.8468    0.3068 C   0  0  1  0  0  0  0  0  0  0  0  0
   -2.1284   -0.7289   -0.8203 C   0  0  0  0  0  0  0  0  0  0  0  0
   -3.4414   -0.7278   -0.6317 O   0  0  0  0  0  0  0  0  0  0  0  0
   -4.4959   -0.1214   -0.0890 C   0  0  0  0  0  0  0  0  0  0  0  0
   -4.4939    1.0386    0.6370 C   0  0  0  0  0  0  0  0  0  0  0  0
   -5.6488    1.5632    1.1475 C   0  0  0  0  0  0  0  0  0  0  0  0
   -6.8684    0.9498    0.9549 C   0  0  0  0  0  0  0  0  0  0  0  0
   -6.8947   -0.2224    0.2243 C   0  0  0  0  0  0  0  0  0  0  0  0
   -5.7437   -0.7410   -0.2815 C   0  0  0  0  0  0  0  0  0  0  0  0
    3.4753    0.7531   -0.1596 C   0  0  0  0  0  0  0  0  0  0  0  0
    4.8315    0.5883   -0.3573 C   0  0  0  0  0  0  0  0  0  0  0  0
    5.9945    0.9420    0.4413 C   0  0  0  0  0  0  0  0  0  0  0  0
    5.9518    1.5194    1.5666 O   0  0  0  0  0  0  0  0  0  0  0  0
    7.2732   -0.4909   -2.2435 H   0  0  0  0  0  0  0  0  0  0  0  0
    4.7088   -0.9456   -3.3686 H   0  0  0  0  0  0  0  0  0  0  0  0
    2.3031   -0.6176   -2.9479 H   0  0  0  0  0  0  0  0  0  0  0  0
    1.9058   -0.7289    1.1446 H   0  0  0  0  0  0  0  0  0  0  0  0
    0.7733   -2.1408    1.4734 H   0  0  0  0  0  0  0  0  0  0  0  0
    0.6402    0.7453    2.3532 H   0  0  0  0  0  0  0  0  0  0  0  0
   -0.0643   -0.7677    3.0460 H   0  0  0  0  0  0  0  0  0  0  0  0
   -2.0310   -0.0895    2.1504 H   0  0  0  0  0  0  0  0  0  0  0  0
   -1.2817    1.1885    1.1294 H   0  0  0  0  0  0  0  0  0  0  0  0
   -1.3433   -1.8705    0.7544 H   0  0  0  0  0  0  0  0  0  0  0  0
   -1.8632    0.1299   -1.5120 H   0  0  0  0  0  0  0  0  0  0  0  0
   -1.8726   -1.6227   -1.4992 H   0  0  0  0  0  0  0  0  0  0  0  0
   -3.5746    1.5645    0.8058 H   0  0  0  0  0  0  0  0  0  0  0  0
   -5.6486    2.5030    1.7365 H   0  0  0  0  0  0  0  0  0  0  0  0
   -7.7648    1.3636    1.3554 H   0  0  0  0  0  0  0  0  0  0  0  0
   -7.8754   -0.6759    0.0941 H   0  0  0  0  0  0  0  0  0  0  0  0
   -5.7813   -1.6659   -0.8553 H   0  0  0  0  0  0  0  0  0  0  0  0
    3.1751    1.2385    0.7521 H   0  0  0  0  0  0  0  0  0  0  0  0
  1  2  2  0
  2  3  1  0
  3  4  1  0
  4  5  2  0
  5  6  1  0
  6  7  2  0
  7  8  1  0
  8  9  2  0
  8 10  2  0
  8 11  1  0
 11 12  1  0
 12 13  1  0
 13 14  1  0
 14 15  1  0
 15 16  1  0
 16 17  1  0
 17 18  1  0
 18 19  2  0
 19 20  1  0
 20 21  2  0
 21 22  1  0
 22 23  2  0
  7 24  1  0
 24 25  2  0
 25 26  1  0
 26 27  2  0
 26  2  1  0
 25  4  1  0
 15 11  1  0
 23 18  1  0
  3 28  1  0
  5 29  1  0
  6 30  1  0
 12 31  1  0
 12 32  1  0
 13 33  1  0
 13 34  1  0
 14 35  1  0
 14 36  1  0
 15 37  1  1
 16 38  1  0
 16 39  1  0
 19 40  1  0
 20 41  1  0
 21 42  1  0
 22 43  1  0
 23 44  1  0
 24 45  1  0
M  END
$$$$
