
     RDKit          3D

 59 65  0  0  0  0  0  0  0  0999 V2000
    4.0455   -1.2938   -3.9578 C   0  0  0  0  0  0  0  0  0  0  0  0
    3.6159   -0.9326   -2.5742 C   0  0  0  0  0  0  0  0  0  0  0  0
    2.2822   -0.8288   -2.2350 C   0  0  0  0  0  0  0  0  0  0  0  0
    1.8595   -0.4979   -0.9687 C   0  0  0  0  0  0  0  0  0  0  0  0
    0.4839   -0.4018   -0.6381 N   0  0  0  0  0  0  0  0  0  0  0  0
   -0.2535   -1.4961   -0.1296 C   0  0  0  0  0  0  0  0  0  0  0  0
    0.1661   -2.6742    0.1263 O   0  0  0  0  0  0  0  0  0  0  0  0
   -1.6127   -1.0751    0.0693 C   0  0  0  0  0  0  0  0  0  0  0  0
   -1.6954    0.2338   -0.3060 C   0  0  0  0  0  0  0  0  0  0  0  0
   -3.0347    0.5860   -0.0980 C   0  0  0  0  0  0  0  0  0  0  0  0
   -3.5675    1.9414   -0.3821 C   0  0  0  0  0  0  0  0  0  0  0  0
   -4.1014    2.1895   -1.7478 C   0  0  0  0  0  0  0  0  0  0  0  0
   -5.0744    2.0588   -0.6208 C   0  0  0  0  0  0  0  0  0  0  0  0
   -3.6438   -0.4909    0.3700 N   0  0  0  0  0  0  0  0  0  0  0  0
   -2.8336   -1.5266    0.4923 N   0  0  0  0  0  0  0  0  0  0  0  0
   -3.1295   -2.8394    0.9581 C   0  0  0  0  0  0  0  0  0  0  0  0
   -3.5819   -3.9224    0.2250 C   0  0  0  0  0  0  0  0  0  0  0  0
   -3.7457   -5.0156    1.0555 C   0  0  0  0  0  0  0  0  0  0  0  0
   -3.3875   -4.5721    2.2831 N   0  0  0  0  0  0  0  0  0  0  0  0
   -3.0274   -3.2979    2.2224 N   0  0  0  0  0  0  0  0  0  0  0  0
   -2.5860   -2.5088    3.3553 C   0  0  0  0  0  0  0  0  0  0  0  0
   -0.3740    0.7162   -0.7555 C   0  0  0  0  0  0  0  0  0  0  0  0
    0.0241    1.9031    0.0336 C   0  0  0  0  0  0  0  0  0  0  0  0
    0.4166    1.8915    1.3432 C   0  0  0  0  0  0  0  0  0  0  0  0
    0.7705    3.0659    1.9986 C   0  0  0  0  0  0  0  0  0  0  0  0
    0.7433    4.2747    1.3729 C   0  0  0  0  0  0  0  0  0  0  0  0
    1.1755    5.7833    2.1404 Cl  0  0  0  0  0  0  0  0  0  0  0  0
    0.3465    4.3110    0.0380 C   0  0  0  0  0  0  0  0  0  0  0  0
    0.0001    3.1329   -0.5909 C   0  0  0  0  0  0  0  0  0  0  0  0
    2.8056   -0.2625   -0.0075 C   0  0  0  0  0  0  0  0  0  0  0  0
    4.1323   -0.3579   -0.3144 N   0  0  0  0  0  0  0  0  0  0  0  0
    5.2214   -0.1747    0.4502 C   0  0  0  0  0  0  0  0  0  0  0  0
    5.2394    0.1896    1.8679 C   0  0  0  0  0  0  0  0  0  0  0  0
    6.2832   -0.3886   -0.3304 N   0  0  0  0  0  0  0  0  0  0  0  0
    5.8697   -0.7009   -1.5645 N   0  0  0  0  0  0  0  0  0  0  0  0
    4.5177   -0.6827   -1.5588 C   0  0  0  0  0  0  0  0  0  0  0  0
    3.4402   -2.1568   -4.3222 H   0  0  0  0  0  0  0  0  0  0  0  0
    3.9749   -0.4220   -4.6524 H   0  0  0  0  0  0  0  0  0  0  0  0
    5.1025   -1.6127   -3.9477 H   0  0  0  0  0  0  0  0  0  0  0  0
    1.5675   -1.0285   -3.0459 H   0  0  0  0  0  0  0  0  0  0  0  0
   -3.0936    2.7923    0.1859 H   0  0  0  0  0  0  0  0  0  0  0  0
   -4.0543    1.3300   -2.4700 H   0  0  0  0  0  0  0  0  0  0  0  0
   -4.0557    3.1649   -2.2348 H   0  0  0  0  0  0  0  0  0  0  0  0
   -5.6954    1.1614   -0.5755 H   0  0  0  0  0  0  0  0  0  0  0  0
   -5.5743    2.9827   -0.2429 H   0  0  0  0  0  0  0  0  0  0  0  0
   -3.7682   -3.8749   -0.8477 H   0  0  0  0  0  0  0  0  0  0  0  0
   -4.0858   -6.0107    0.7874 H   0  0  0  0  0  0  0  0  0  0  0  0
   -1.5449   -2.7671    3.6177 H   0  0  0  0  0  0  0  0  0  0  0  0
   -2.6655   -1.4258    3.1210 H   0  0  0  0  0  0  0  0  0  0  0  0
   -3.2265   -2.6938    4.2410 H   0  0  0  0  0  0  0  0  0  0  0  0
   -0.3927    1.0150   -1.8361 H   0  0  0  0  0  0  0  0  0  0  0  0
    0.4418    0.9206    1.8570 H   0  0  0  0  0  0  0  0  0  0  0  0
    1.0755    3.0239    3.0310 H   0  0  0  0  0  0  0  0  0  0  0  0
    0.3151    5.2676   -0.4902 H   0  0  0  0  0  0  0  0  0  0  0  0
   -0.3026    3.2314   -1.6407 H   0  0  0  0  0  0  0  0  0  0  0  0
    2.5454   -0.0041    0.9991 H   0  0  0  0  0  0  0  0  0  0  0  0
    4.3206   -0.2012    2.3951 H   0  0  0  0  0  0  0  0  0  0  0  0
    6.0904   -0.3070    2.4193 H   0  0  0  0  0  0  0  0  0  0  0  0
    5.2358    1.2785    2.0291 H   0  0  0  0  0  0  0  0  0  0  0  0
  1  2  1  0
  2  3  2  0
  3  4  1  0
  4  5  1  0
  5  6  1  0
  6  7  2  0
  6  8  1  0
  8  9  2  0
  9 10  1  0
 10 11  1  0
 11 12  1  0
 12 13  1  0
 10 14  2  0
 14 15  1  0
 15 16  1  0
 16 17  2  0
 17 18  1  0
 18 19  2  0
 19 20  1  0
 20 21  1  0
  9 22  1  0
 22 23  1  0
 23 24  2  0
 24 25  1  0
 25 26  2  0
 26 27  1  0
 26 28  1  0
 28 29  2  0
  4 30  2  0
 30 31  1  0
 31 32  1  0
 32 33  1  0
 32 34  2  0
 34 35  1  0
 35 36  2  0
 36  2  1  0
 22  5  1  0
 29 23  1  0
 36 31  1  0
 15  8  1  0
 20 16  1  0
 13 11  1  0
  1 37  1  0
  1 38  1  0
  1 39  1  0
  3 40  1  0
 11 41  1  0
 12 42  1  0
 12 43  1  0
 13 44  1  0
 13 45  1  0
 17 46  1  0
 18 47  1  0
 21 48  1  0
 21 49  1  0
 21 50  1  0
 22 51  1  0
 24 52  1  0
 25 53  1  0
 28 54  1  0
 29 55  1  0
 30 56  1  0
 33 57  1  0
 33 58  1  0
 33 59  1  0
M  END
$$$$
