
     RDKit          3D

 10  9  0  0  0  0  0  0  0  0999 V2000
   -1.4458    0.0866    0.0202 C   0  0  0  0  0  0  0  0  0  0  0  0
   -0.0979   -0.3645   -0.3919 C   0  0  0  0  0  0  0  0  0  0  0  0
    0.1834   -1.0656   -1.4013 O   0  0  0  0  0  0  0  0  0  0  0  0
    1.0173    0.0283    0.4325 N   0  0  0  0  0  0  0  0  0  0  0  0
    2.2966   -0.3467    0.1221 O   0  0  0  0  0  0  0  0  0  0  0  0
   -2.1502    0.0823   -0.8430 H   0  0  0  0  0  0  0  0  0  0  0  0
   -1.4598    1.1344    0.3868 H   0  0  0  0  0  0  0  0  0  0  0  0
   -1.8215   -0.5710    0.8355 H   0  0  0  0  0  0  0  0  0  0  0  0
    0.8363    0.6169    1.2910 H   0  0  0  0  0  0  0  0  0  0  0  0
    2.6416    0.3994   -0.4518 H   0  0  0  0  0  0  0  0  0  0  0  0
  1  2  1  0
  2  3  2  0
  2  4  1  0
  4  5  1  0
  1  6  1  0
  1  7  1  0
  1  8  1  0
  4  9  1  0
  5 10  1  0
M  END
$$$$
