
     RDKit          3D

 49 51  0  0  0  0  0  0  0  0999 V2000
    0.6235   -1.8565   -0.0501 C   0  0  2  0  0  0  0  0  0  0  0  0
    1.2641   -3.1386   -0.5850 C   0  0  0  0  0  0  0  0  0  0  0  0
    1.0741   -4.2033    0.3741 N   0  0  0  0  0  0  0  0  0  0  0  0
   -0.1712   -4.8782    0.1830 C   0  0  0  0  0  0  0  0  0  0  0  0
   -1.3658   -3.9791    0.2743 C   0  0  0  0  0  0  0  0  0  0  0  0
   -1.4299   -3.0619   -0.8931 C   0  0  0  0  0  0  0  0  0  0  0  0
   -0.7242   -1.7453   -0.7288 C   0  0  1  0  0  0  0  0  0  0  0  0
   -1.5445   -0.7389   -0.1853 O   0  0  0  0  0  0  0  0  0  0  0  0
   -1.9464    0.4014   -0.8615 C   0  0  0  0  0  0  0  0  0  0  0  0
   -1.5172    0.4892   -2.0405 O   0  0  0  0  0  0  0  0  0  0  0  0
   -2.8046    1.4165   -0.2380 C   0  0  0  0  0  0  0  0  0  0  0  0
   -3.2425    1.2597    1.0626 C   0  0  0  0  0  0  0  0  0  0  0  0
   -4.0598    2.2455    1.6287 C   0  0  0  0  0  0  0  0  0  0  0  0
   -4.3839    3.3322    0.8403 C   0  0  0  0  0  0  0  0  0  0  0  0
   -5.1911    4.3850    1.2842 O   0  0  0  0  0  0  0  0  0  0  0  0
   -3.9451    3.4885   -0.4620 C   0  0  0  0  0  0  0  0  0  0  0  0
   -3.1333    2.5095   -1.0244 C   0  0  0  0  0  0  0  0  0  0  0  0
    1.4526   -0.7705   -0.5187 N   0  0  0  0  0  0  0  0  0  0  0  0
    2.0373    0.0877    0.4282 C   0  0  0  0  0  0  0  0  0  0  0  0
    1.8293   -0.1058    1.6412 O   0  0  0  0  0  0  0  0  0  0  0  0
    2.8895    1.2121    0.0589 C   0  0  0  0  0  0  0  0  0  0  0  0
    3.4130    1.9929    1.0835 C   0  0  0  0  0  0  0  0  0  0  0  0
    4.2362    3.0877    0.8464 C   0  0  0  0  0  0  0  0  0  0  0  0
    4.5231    3.3805   -0.4714 C   0  0  0  0  0  0  0  0  0  0  0  0
    5.3502    4.4791   -0.7289 O   0  0  0  0  0  0  0  0  0  0  0  0
    4.0289    2.6372   -1.5234 C   0  0  0  0  0  0  0  0  0  0  0  0
    3.2061    1.5463   -1.2400 C   0  0  0  0  0  0  0  0  0  0  0  0
    0.5581   -1.8656    1.0497 H   0  0  0  0  0  0  0  0  0  0  0  0
    2.3732   -2.9749   -0.6809 H   0  0  0  0  0  0  0  0  0  0  0  0
    0.8871   -3.3863   -1.5990 H   0  0  0  0  0  0  0  0  0  0  0  0
    1.8355   -4.9067    0.2607 H   0  0  0  0  0  0  0  0  0  0  0  0
   -0.2640   -5.6114    1.0304 H   0  0  0  0  0  0  0  0  0  0  0  0
   -0.2583   -5.4596   -0.7532 H   0  0  0  0  0  0  0  0  0  0  0  0
   -2.2618   -4.6611    0.1875 H   0  0  0  0  0  0  0  0  0  0  0  0
   -1.4864   -3.4992    1.2524 H   0  0  0  0  0  0  0  0  0  0  0  0
   -1.1306   -3.6303   -1.7995 H   0  0  0  0  0  0  0  0  0  0  0  0
   -2.5137   -2.8103   -1.0816 H   0  0  0  0  0  0  0  0  0  0  0  0
   -0.4946   -1.4122   -1.7762 H   0  0  0  0  0  0  0  0  0  0  0  0
   -2.9751    0.3957    1.6660 H   0  0  0  0  0  0  0  0  0  0  0  0
   -4.4386    2.1900    2.6372 H   0  0  0  0  0  0  0  0  0  0  0  0
   -6.1976    4.2376    1.3276 H   0  0  0  0  0  0  0  0  0  0  0  0
   -4.1955    4.3377   -1.0850 H   0  0  0  0  0  0  0  0  0  0  0  0
   -2.7676    2.5938   -2.0428 H   0  0  0  0  0  0  0  0  0  0  0  0
    1.6063   -0.6362   -1.5341 H   0  0  0  0  0  0  0  0  0  0  0  0
    3.2042    1.7868    2.1380 H   0  0  0  0  0  0  0  0  0  0  0  0
    4.6226    3.6693    1.6738 H   0  0  0  0  0  0  0  0  0  0  0  0
    6.3476    4.3268   -0.8164 H   0  0  0  0  0  0  0  0  0  0  0  0
    4.2807    2.9035   -2.5494 H   0  0  0  0  0  0  0  0  0  0  0  0
    2.8001    0.9396   -2.0496 H   0  0  0  0  0  0  0  0  0  0  0  0
  1  2  1  0
  2  3  1  0
  3  4  1  0
  4  5  1  0
  5  6  1  0
  6  7  1  0
  7  8  1  0
  8  9  1  0
  9 10  2  0
  9 11  1  0
 11 12  2  0
 12 13  1  0
 13 14  2  0
 14 15  1  0
 14 16  1  0
 16 17  2  0
  1 18  1  0
 18 19  1  0
 19 20  2  0
 19 21  1  0
 21 22  2  0
 22 23  1  0
 23 24  2  0
 24 25  1  0
 24 26  1  0
 26 27  2  0
  7  1  1  0
 17 11  1  0
 27 21  1  0
  1 28  1  1
  2 29  1  0
  2 30  1  0
  3 31  1  0
  4 32  1  0
  4 33  1  0
  5 34  1  0
  5 35  1  0
  6 36  1  0
  6 37  1  0
  7 38  1  6
 12 39  1  0
 13 40  1  0
 15 41  1  0
 16 42  1  0
 17 43  1  0
 18 44  1  0
 22 45  1  0
 23 46  1  0
 25 47  1  0
 26 48  1  0
 27 49  1  0
M  END
$$$$
