
     RDKit          3D

 40 42  0  0  0  0  0  0  0  0999 V2000
    5.6958   -1.7140   -0.2318 C   0  0  0  0  0  0  0  0  0  0  0  0
    4.2947   -1.1876   -0.1649 C   0  0  0  0  0  0  0  0  0  0  0  0
    3.3065   -1.7824   -0.9217 C   0  0  0  0  0  0  0  0  0  0  0  0
    2.0436   -1.2138   -0.7836 C   0  0  0  0  0  0  0  0  0  0  0  0
    1.7111   -0.1324    0.0277 C   0  0  0  0  0  0  0  0  0  0  0  0
    2.7687    0.3872    0.7411 C   0  0  0  0  0  0  0  0  0  0  0  0
    4.0483   -0.1159    0.6616 C   0  0  0  0  0  0  0  0  0  0  0  0
    0.3177    0.2794    0.0249 C   0  0  0  0  0  0  0  0  0  0  0  0
   -0.6262   -0.6912    0.2071 N   0  0  0  0  0  0  0  0  0  0  0  0
   -1.8431   -0.1640    0.1733 N   0  0  0  0  0  0  0  0  0  0  0  0
   -1.7711    1.1629   -0.0304 C   0  0  0  0  0  0  0  0  0  0  0  0
   -0.4220    1.4323   -0.1225 C   0  0  0  0  0  0  0  0  0  0  0  0
    0.1258    2.6781   -0.3380 C   0  0  0  0  0  0  0  0  0  0  0  0
    1.5075    2.9413   -0.4463 N   0  0  0  0  0  0  0  0  0  0  0  0
   -0.7166    3.7218   -0.4688 N   0  0  0  0  0  0  0  0  0  0  0  0
   -2.0397    3.4821   -0.3812 C   0  0  0  0  0  0  0  0  0  0  0  0
   -2.5736    2.2437   -0.1682 N   0  0  0  0  0  0  0  0  0  0  0  0
   -3.1228   -0.8321    0.3230 C   0  0  0  0  0  0  0  0  0  0  0  0
   -3.9755   -0.5643   -0.8944 C   0  0  0  0  0  0  0  0  0  0  0  0
   -2.9678   -2.3225    0.4702 C   0  0  0  0  0  0  0  0  0  0  0  0
   -3.8203   -0.2217    1.5169 C   0  0  0  0  0  0  0  0  0  0  0  0
    6.3334   -0.8201   -0.4214 H   0  0  0  0  0  0  0  0  0  0  0  0
    5.9357   -2.1543    0.7669 H   0  0  0  0  0  0  0  0  0  0  0  0
    5.8155   -2.4942   -0.9880 H   0  0  0  0  0  0  0  0  0  0  0  0
    3.4726   -2.6129   -1.5684 H   0  0  0  0  0  0  0  0  0  0  0  0
    1.2658   -1.6926   -1.3881 H   0  0  0  0  0  0  0  0  0  0  0  0
    2.5442    1.2186    1.3915 H   0  0  0  0  0  0  0  0  0  0  0  0
    4.8164    0.3741    1.2728 H   0  0  0  0  0  0  0  0  0  0  0  0
    1.9016    2.5819   -1.3315 H   0  0  0  0  0  0  0  0  0  0  0  0
    2.1656    3.4226    0.2025 H   0  0  0  0  0  0  0  0  0  0  0  0
   -2.7816    4.2799   -0.4771 H   0  0  0  0  0  0  0  0  0  0  0  0
   -5.0559   -0.7703   -0.6698 H   0  0  0  0  0  0  0  0  0  0  0  0
   -3.6140   -1.0682   -1.8050 H   0  0  0  0  0  0  0  0  0  0  0  0
   -3.9400    0.5284   -1.1030 H   0  0  0  0  0  0  0  0  0  0  0  0
   -3.0216   -2.7660   -0.5252 H   0  0  0  0  0  0  0  0  0  0  0  0
   -3.8533   -2.6878    1.0289 H   0  0  0  0  0  0  0  0  0  0  0  0
   -2.0461   -2.6069    1.0105 H   0  0  0  0  0  0  0  0  0  0  0  0
   -4.3348    0.7020    1.1713 H   0  0  0  0  0  0  0  0  0  0  0  0
   -3.0377    0.1338    2.2424 H   0  0  0  0  0  0  0  0  0  0  0  0
   -4.5067   -0.9548    1.9968 H   0  0  0  0  0  0  0  0  0  0  0  0
  1  2  1  0
  2  3  2  0
  3  4  1  0
  4  5  2  0
  5  6  1  0
  6  7  2  0
  5  8  1  0
  8  9  2  0
  9 10  1  0
 10 11  1  0
 11 12  2  0
 12 13  1  0
 13 14  1  0
 13 15  2  0
 15 16  1  0
 16 17  2  0
 10 18  1  0
 18 19  1  0
 18 20  1  0
 18 21  1  0
  7  2  1  0
 12  8  1  0
 17 11  1  0
  1 22  1  0
  1 23  1  0
  1 24  1  0
  3 25  1  0
  4 26  1  0
  6 27  1  0
  7 28  1  0
 14 29  1  0
 14 30  1  0
 16 31  1  0
 19 32  1  0
 19 33  1  0
 19 34  1  0
 20 35  1  0
 20 36  1  0
 20 37  1  0
 21 38  1  0
 21 39  1  0
 21 40  1  0
M  END
$$$$
