
     RDKit          3D

 43 44  0  0  0  0  0  0  0  0999 V2000
   -2.7829    2.4785    1.6826 O   0  0  0  0  0  0  0  0  0  0  0  0
   -2.1162    3.2146    0.9286 C   0  0  0  0  0  0  0  0  0  0  0  0
   -0.8882    2.7616    0.2751 C   0  0  0  0  0  0  0  0  0  0  0  0
   -0.5759    1.2878    0.4213 C   0  0  1  0  0  0  0  0  0  0  0  0
   -1.7138    0.5526   -0.2366 C   0  0  0  0  0  0  0  0  0  0  0  0
   -1.6534   -0.8987   -0.2418 C   0  0  0  0  0  0  0  0  0  0  0  0
   -1.0462   -1.5200   -1.3326 C   0  0  0  0  0  0  0  0  0  0  0  0
   -0.9487   -2.8904   -1.4439 C   0  0  0  0  0  0  0  0  0  0  0  0
   -1.4662   -3.7044   -0.4459 C   0  0  0  0  0  0  0  0  0  0  0  0
   -2.0662   -3.0789    0.6324 C   0  0  0  0  0  0  0  0  0  0  0  0
   -2.1625   -1.7179    0.7416 C   0  0  0  0  0  0  0  0  0  0  0  0
    0.6933    1.0482   -0.3551 C   0  0  0  0  0  0  0  0  0  0  0  0
    0.8270    1.8237   -1.3464 O   0  0  0  0  0  0  0  0  0  0  0  0
    1.6205    0.0720   -0.0067 N   0  0  0  0  0  0  0  0  0  0  0  0
    1.4645   -0.7634    1.1917 C   0  0  0  0  0  0  0  0  0  0  0  0
    1.9242   -2.1106    0.6942 C   0  0  0  0  0  0  0  0  0  0  0  0
    2.5332   -1.8844   -0.6686 C   0  0  0  0  0  0  0  0  0  0  0  0
    2.8259   -0.3643   -0.5834 C   0  0  1  0  0  0  0  0  0  0  0  0
    3.2986    0.1273   -1.8467 C   0  0  0  0  0  0  0  0  0  0  0  0
    2.7125    0.9007   -2.5901 O   0  0  0  0  0  0  0  0  0  0  0  0
    4.5627   -0.3190   -2.2837 O   0  0  0  0  0  0  0  0  0  0  0  0
   -2.5774    4.5609    0.6956 N   0  0  0  0  0  0  0  0  0  0  0  0
   -3.7061    5.0090    1.2831 O   0  0  0  0  0  0  0  0  0  0  0  0
   -0.0305    3.3954    0.6096 H   0  0  0  0  0  0  0  0  0  0  0  0
   -0.9969    3.0380   -0.8171 H   0  0  0  0  0  0  0  0  0  0  0  0
   -0.4620    1.0693    1.4864 H   0  0  0  0  0  0  0  0  0  0  0  0
   -1.7620    0.9405   -1.2921 H   0  0  0  0  0  0  0  0  0  0  0  0
   -2.6777    0.8453    0.2126 H   0  0  0  0  0  0  0  0  0  0  0  0
   -0.6219   -0.9395   -2.1457 H   0  0  0  0  0  0  0  0  0  0  0  0
   -0.4709   -3.3544   -2.3039 H   0  0  0  0  0  0  0  0  0  0  0  0
   -1.4151   -4.7717   -0.4869 H   0  0  0  0  0  0  0  0  0  0  0  0
   -2.4883   -3.6684    1.4432 H   0  0  0  0  0  0  0  0  0  0  0  0
   -2.6350   -1.2100    1.5902 H   0  0  0  0  0  0  0  0  0  0  0  0
    2.2482   -0.4114    1.9138 H   0  0  0  0  0  0  0  0  0  0  0  0
    0.4667   -0.7369    1.6191 H   0  0  0  0  0  0  0  0  0  0  0  0
    2.7020   -2.5489    1.3636 H   0  0  0  0  0  0  0  0  0  0  0  0
    1.0252   -2.7562    0.6561 H   0  0  0  0  0  0  0  0  0  0  0  0
    1.8304   -2.0917   -1.4993 H   0  0  0  0  0  0  0  0  0  0  0  0
    3.4600   -2.4497   -0.8291 H   0  0  0  0  0  0  0  0  0  0  0  0
    3.6404   -0.3335    0.2176 H   0  0  0  0  0  0  0  0  0  0  0  0
    5.0909    0.2379   -2.9737 H   0  0  0  0  0  0  0  0  0  0  0  0
   -2.0030    5.1534    0.0630 H   0  0  0  0  0  0  0  0  0  0  0  0
   -3.6596    6.0072    1.2909 H   0  0  0  0  0  0  0  0  0  0  0  0
  1  2  2  0
  2  3  1  0
  3  4  1  0
  4  5  1  0
  5  6  1  0
  6  7  2  0
  7  8  1  0
  8  9  2  0
  9 10  1  0
 10 11  2  0
  4 12  1  0
 12 13  2  0
 12 14  1  0
 14 15  1  0
 15 16  1  0
 16 17  1  0
 17 18  1  0
 18 19  1  0
 19 20  2  0
 19 21  1  0
  2 22  1  0
 22 23  1  0
 11  6  1  0
 18 14  1  0
  3 24  1  0
  3 25  1  0
  4 26  1  1
  5 27  1  0
  5 28  1  0
  7 29  1  0
  8 30  1  0
  9 31  1  0
 10 32  1  0
 11 33  1  0
 15 34  1  0
 15 35  1  0
 16 36  1  0
 16 37  1  0
 17 38  1  0
 17 39  1  0
 18 40  1  1
 21 41  1  0
 22 42  1  0
 23 43  1  0
M  END
$$$$
