
     RDKit          3D

 52 52  0  0  0  0  0  0  0  0999 V2000
    6.1652   -0.2634    1.9519 C   0  0  0  0  0  0  0  0  0  0  0  0
    6.5145   -1.0482    0.7226 C   0  0  0  0  0  0  0  0  0  0  0  0
    5.9340   -0.5138   -0.5452 C   0  0  0  0  0  0  0  0  0  0  0  0
    4.4138   -0.4747   -0.5333 C   0  0  0  0  0  0  0  0  0  0  0  0
    3.9481    0.0375   -1.7180 O   0  0  0  0  0  0  0  0  0  0  0  0
    2.5831    0.1195   -1.8482 C   0  0  0  0  0  0  0  0  0  0  0  0
    1.8938    0.9785   -0.8165 C   0  0  0  0  0  0  0  0  0  0  0  0
    0.3904    0.9641   -1.1383 C   0  0  0  0  0  0  0  0  0  0  0  0
   -0.3670    1.7972   -0.1306 C   0  0  0  0  0  0  0  0  0  0  0  0
   -1.8066    1.8644   -0.3378 C   0  0  0  0  0  0  0  0  0  0  0  0
   -2.6908    0.8028   -0.2971 N   0  0  0  0  0  0  0  0  0  0  0  0
   -3.9902    1.1010   -0.8264 C   0  0  0  0  0  0  0  0  0  0  0  0
   -5.0934    0.4440   -0.1180 C   0  0  2  0  0  0  0  0  0  0  0  0
   -5.5358    1.1126    1.0312 O   0  0  0  0  0  0  0  0  0  0  0  0
   -4.8778   -1.0087    0.0372 C   0  0  1  0  0  0  0  0  0  0  0  0
   -5.6229   -1.7027   -0.9503 O   0  0  0  0  0  0  0  0  0  0  0  0
   -3.4679   -1.4883   -0.1465 C   0  0  2  0  0  0  0  0  0  0  0  0
   -3.2855   -2.5995    0.6677 O   0  0  0  0  0  0  0  0  0  0  0  0
   -2.4567   -0.4183    0.2951 C   0  0  2  0  0  0  0  0  0  0  0  0
   -2.5965   -0.4020    1.8044 C   0  0  0  0  0  0  0  0  0  0  0  0
   -1.7622    0.4672    2.4496 O   0  0  0  0  0  0  0  0  0  0  0  0
    7.1182    0.0274    2.4806 H   0  0  0  0  0  0  0  0  0  0  0  0
    5.6819    0.7011    1.7078 H   0  0  0  0  0  0  0  0  0  0  0  0
    5.5947   -0.8714    2.6839 H   0  0  0  0  0  0  0  0  0  0  0  0
    7.6379   -1.1223    0.6337 H   0  0  0  0  0  0  0  0  0  0  0  0
    6.1938   -2.1113    0.8995 H   0  0  0  0  0  0  0  0  0  0  0  0
    6.2964    0.5176   -0.7390 H   0  0  0  0  0  0  0  0  0  0  0  0
    6.3127   -1.1356   -1.3883 H   0  0  0  0  0  0  0  0  0  0  0  0
    3.9837   -1.4626   -0.3330 H   0  0  0  0  0  0  0  0  0  0  0  0
    4.1347    0.2576    0.2749 H   0  0  0  0  0  0  0  0  0  0  0  0
    2.3350    0.4636   -2.8745 H   0  0  0  0  0  0  0  0  0  0  0  0
    2.1918   -0.9242   -1.6705 H   0  0  0  0  0  0  0  0  0  0  0  0
    2.1017    0.6262    0.2025 H   0  0  0  0  0  0  0  0  0  0  0  0
    2.2486    2.0244   -0.8989 H   0  0  0  0  0  0  0  0  0  0  0  0
    0.3375    1.5622   -2.1074 H   0  0  0  0  0  0  0  0  0  0  0  0
    0.0438   -0.0429   -1.3006 H   0  0  0  0  0  0  0  0  0  0  0  0
    0.0177    2.8649   -0.3417 H   0  0  0  0  0  0  0  0  0  0  0  0
    0.0131    1.6437    0.9005 H   0  0  0  0  0  0  0  0  0  0  0  0
   -2.2088    2.6701    0.3683 H   0  0  0  0  0  0  0  0  0  0  0  0
   -1.9622    2.3960   -1.3438 H   0  0  0  0  0  0  0  0  0  0  0  0
   -4.0820    2.2199   -0.8326 H   0  0  0  0  0  0  0  0  0  0  0  0
   -4.0042    0.7657   -1.8931 H   0  0  0  0  0  0  0  0  0  0  0  0
   -6.0175    0.5569   -0.8114 H   0  0  0  0  0  0  0  0  0  0  0  0
   -5.3720    2.0652    0.9625 H   0  0  0  0  0  0  0  0  0  0  0  0
   -5.3223   -1.3604    1.0062 H   0  0  0  0  0  0  0  0  0  0  0  0
   -5.3227   -1.2980   -1.8272 H   0  0  0  0  0  0  0  0  0  0  0  0
   -3.2082   -1.7810   -1.1781 H   0  0  0  0  0  0  0  0  0  0  0  0
   -3.4920   -3.4244    0.1812 H   0  0  0  0  0  0  0  0  0  0  0  0
   -1.4756   -0.9233    0.1011 H   0  0  0  0  0  0  0  0  0  0  0  0
   -3.6453   -0.3214    2.1323 H   0  0  0  0  0  0  0  0  0  0  0  0
   -2.3141   -1.4561    2.1858 H   0  0  0  0  0  0  0  0  0  0  0  0
   -2.1058    0.8737    3.2660 H   0  0  0  0  0  0  0  0  0  0  0  0
  1  2  1  0
  2  3  1  0
  3  4  1  0
  4  5  1  0
  5  6  1  0
  6  7  1  0
  7  8  1  0
  8  9  1  0
  9 10  1  0
 10 11  1  0
 11 12  1  0
 12 13  1  0
 13 14  1  0
 13 15  1  0
 15 16  1  0
 15 17  1  0
 17 18  1  0
 17 19  1  0
 19 20  1  0
 20 21  1  0
 19 11  1  0
  1 22  1  0
  1 23  1  0
  1 24  1  0
  2 25  1  0
  2 26  1  0
  3 27  1  0
  3 28  1  0
  4 29  1  0
  4 30  1  0
  6 31  1  0
  6 32  1  0
  7 33  1  0
  7 34  1  0
  8 35  1  0
  8 36  1  0
  9 37  1  0
  9 38  1  0
 10 39  1  0
 10 40  1  0
 12 41  1  0
 12 42  1  0
 13 43  1  6
 14 44  1  0
 15 45  1  1
 16 46  1  0
 17 47  1  6
 18 48  1  0
 19 49  1  1
 20 50  1  0
 20 51  1  0
 21 52  1  0
M  END
$$$$
