
     RDKit          3D

 74 79  0  0  0  0  0  0  0  0999 V2000
   -3.1491   -0.1057   -7.0530 C   0  0  0  0  0  0  0  0  0  0  0  0
   -2.4529    0.1713   -5.8688 O   0  0  0  0  0  0  0  0  0  0  0  0
   -2.2933   -0.7247   -4.8334 C   0  0  0  0  0  0  0  0  0  0  0  0
   -1.5880   -0.3455   -3.7115 C   0  0  0  0  0  0  0  0  0  0  0  0
   -1.4333   -1.2447   -2.6837 C   0  0  0  0  0  0  0  0  0  0  0  0
   -0.7132   -0.8617   -1.5360 N   0  0  0  0  0  0  0  0  0  0  0  0
    0.6886   -1.0336   -1.3698 C   0  0  0  0  0  0  0  0  0  0  0  0
    1.4515   -1.7905   -2.0577 O   0  0  0  0  0  0  0  0  0  0  0  0
    1.1393   -0.2260   -0.3038 N   0  0  0  0  0  0  0  0  0  0  0  0
    2.4806   -0.1388    0.1554 C   0  0  0  0  0  0  0  0  0  0  0  0
    3.3649    0.7780   -0.3596 C   0  0  0  0  0  0  0  0  0  0  0  0
    4.6699    0.8658    0.0853 C   0  0  0  0  0  0  0  0  0  0  0  0
    5.1361    0.0279    1.0722 C   0  0  0  0  0  0  0  0  0  0  0  0
    6.5151    0.0846    1.5772 C   0  0  0  0  0  0  0  0  0  0  0  0
    6.7783   -0.2493    2.9004 C   0  0  0  0  0  0  0  0  0  0  0  0
    8.0515   -0.2147    3.4282 C   0  0  0  0  0  0  0  0  0  0  0  0
    9.1050    0.1615    2.6276 C   0  0  0  0  0  0  0  0  0  0  0  0
   10.4412    0.1931    3.2004 C   0  0  0  0  0  0  0  0  0  0  0  0
   11.5797    0.5688    2.4414 N   0  0  0  0  0  0  0  0  0  0  0  0
   10.6398   -0.1136    4.4001 O   0  0  0  0  0  0  0  0  0  0  0  0
    8.8493    0.4932    1.3161 C   0  0  0  0  0  0  0  0  0  0  0  0
    7.5695    0.4574    0.7892 C   0  0  0  0  0  0  0  0  0  0  0  0
    4.2366   -0.8986    1.5903 C   0  0  0  0  0  0  0  0  0  0  0  0
    2.9407   -0.9952    1.1574 C   0  0  0  0  0  0  0  0  0  0  0  0
   -0.0101    0.4683    0.2085 C   0  0  0  0  0  0  0  0  0  0  0  0
    0.0641    1.4562    0.9518 O   0  0  0  0  0  0  0  0  0  0  0  0
   -1.2255   -0.2390   -0.3332 C   0  0  0  0  0  0  0  0  0  0  0  0
   -2.3758    0.6831   -0.5641 C   0  0  0  0  0  0  0  0  0  0  0  0
   -3.6858   -0.0590   -0.3035 C   0  0  0  0  0  0  0  0  0  0  0  0
   -3.8567   -0.3480    1.1025 N   0  0  0  0  0  0  0  0  0  0  0  0
   -4.4868    0.7516    1.7947 C   0  0  0  0  0  0  0  0  0  0  0  0
   -5.8114    1.0932    1.2956 C   0  0  0  0  0  0  0  0  0  0  0  0
   -5.9528    2.1903    0.5162 N   0  0  0  0  0  0  0  0  0  0  0  0
   -7.1340    2.5725    0.0153 C   0  0  0  0  0  0  0  0  0  0  0  0
   -8.2439    1.8178    0.3070 C   0  0  0  0  0  0  0  0  0  0  0  0
   -8.1217    0.6785    1.1114 C   0  0  0  0  0  0  0  0  0  0  0  0
   -6.9003    0.2963    1.6204 C   0  0  0  0  0  0  0  0  0  0  0  0
   -6.6671   -0.8732    2.4685 C   0  0  0  0  0  0  0  0  0  0  0  0
   -2.5901   -0.6767    1.6805 C   0  0  0  0  0  0  0  0  0  0  0  0
   -1.6282   -1.2753    0.6685 C   0  0  0  0  0  0  0  0  0  0  0  0
   -1.9567   -2.4758   -2.7601 N   0  0  0  0  0  0  0  0  0  0  0  0
   -2.6555   -2.8544   -3.8692 C   0  0  0  0  0  0  0  0  0  0  0  0
   -2.8016   -1.9663   -4.8712 N   0  0  0  0  0  0  0  0  0  0  0  0
   -3.5412    0.8742   -7.4406 H   0  0  0  0  0  0  0  0  0  0  0  0
   -4.0501   -0.7525   -6.8556 H   0  0  0  0  0  0  0  0  0  0  0  0
   -2.4685   -0.5661   -7.7734 H   0  0  0  0  0  0  0  0  0  0  0  0
   -1.1575    0.6674   -3.6482 H   0  0  0  0  0  0  0  0  0  0  0  0
    3.0259    1.4621   -1.1484 H   0  0  0  0  0  0  0  0  0  0  0  0
    5.3822    1.5938   -0.3198 H   0  0  0  0  0  0  0  0  0  0  0  0
    5.9415   -0.5443    3.5231 H   0  0  0  0  0  0  0  0  0  0  0  0
    8.2556   -0.4789    4.4717 H   0  0  0  0  0  0  0  0  0  0  0  0
   12.1943   -0.1671    2.0512 H   0  0  0  0  0  0  0  0  0  0  0  0
   11.7832    1.5688    2.2863 H   0  0  0  0  0  0  0  0  0  0  0  0
    9.6940    0.7900    0.6909 H   0  0  0  0  0  0  0  0  0  0  0  0
    7.3883    0.7253   -0.2575 H   0  0  0  0  0  0  0  0  0  0  0  0
    4.6022   -1.5718    2.3797 H   0  0  0  0  0  0  0  0  0  0  0  0
    2.2332   -1.7028    1.5451 H   0  0  0  0  0  0  0  0  0  0  0  0
   -2.4100    1.1126   -1.5841 H   0  0  0  0  0  0  0  0  0  0  0  0
   -2.2653    1.5452    0.1344 H   0  0  0  0  0  0  0  0  0  0  0  0
   -4.5291    0.5676   -0.6900 H   0  0  0  0  0  0  0  0  0  0  0  0
   -3.6767   -0.9732   -0.9167 H   0  0  0  0  0  0  0  0  0  0  0  0
   -3.8377    1.6461    1.7287 H   0  0  0  0  0  0  0  0  0  0  0  0
   -4.4904    0.4929    2.8956 H   0  0  0  0  0  0  0  0  0  0  0  0
   -7.2225    3.4364   -0.5940 H   0  0  0  0  0  0  0  0  0  0  0  0
   -9.2442    2.0501   -0.0547 H   0  0  0  0  0  0  0  0  0  0  0  0
   -8.9882    0.0784    1.3468 H   0  0  0  0  0  0  0  0  0  0  0  0
   -6.1254   -0.6221    3.4221 H   0  0  0  0  0  0  0  0  0  0  0  0
   -6.1606   -1.7185    1.9413 H   0  0  0  0  0  0  0  0  0  0  0  0
   -7.6475   -1.2819    2.8035 H   0  0  0  0  0  0  0  0  0  0  0  0
   -2.1386    0.2543    2.0634 H   0  0  0  0  0  0  0  0  0  0  0  0
   -2.6457   -1.3925    2.5272 H   0  0  0  0  0  0  0  0  0  0  0  0
   -0.7257   -1.5873    1.2303 H   0  0  0  0  0  0  0  0  0  0  0  0
   -2.0508   -2.1927    0.2111 H   0  0  0  0  0  0  0  0  0  0  0  0
   -3.0924   -3.8332   -3.9728 H   0  0  0  0  0  0  0  0  0  0  0  0
  1  2  1  0
  2  3  1  0
  3  4  2  0
  4  5  1  0
  5  6  1  0
  6  7  1  0
  7  8  2  0
  7  9  1  0
  9 10  1  0
 10 11  2  0
 11 12  1  0
 12 13  2  0
 13 14  1  0
 14 15  2  0
 15 16  1  0
 16 17  2  0
 17 18  1  0
 18 19  1  0
 18 20  2  0
 17 21  1  0
 21 22  2  0
 13 23  1  0
 23 24  2  0
  9 25  1  0
 25 26  2  0
 25 27  1  0
 27 28  1  0
 28 29  1  0
 29 30  1  0
 30 31  1  0
 31 32  1  0
 32 33  2  0
 33 34  1  0
 34 35  2  0
 35 36  1  0
 36 37  2  0
 37 38  1  0
 30 39  1  0
 39 40  1  0
  5 41  2  0
 41 42  1  0
 42 43  2  0
 43  3  1  0
 27  6  1  0
 37 32  1  0
 24 10  1  0
 40 27  1  0
 22 14  1  0
  1 44  1  0
  1 45  1  0
  1 46  1  0
  4 47  1  0
 11 48  1  0
 12 49  1  0
 15 50  1  0
 16 51  1  0
 19 52  1  0
 19 53  1  0
 21 54  1  0
 22 55  1  0
 23 56  1  0
 24 57  1  0
 28 58  1  0
 28 59  1  0
 29 60  1  0
 29 61  1  0
 31 62  1  0
 31 63  1  0
 34 64  1  0
 35 65  1  0
 36 66  1  0
 38 67  1  0
 38 68  1  0
 38 69  1  0
 39 70  1  0
 39 71  1  0
 40 72  1  0
 40 73  1  0
 42 74  1  0
M  END
$$$$
