
     RDKit          3D

 86 89  0  0  0  0  0  0  0  0999 V2000
   -7.0750    0.1438    2.2569 C   0  0  0  0  0  0  0  0  0  0  0  0
   -7.0099    1.5291    1.9913 O   0  0  0  0  0  0  0  0  0  0  0  0
   -5.9411    2.0224    1.2795 C   0  0  0  0  0  0  0  0  0  0  0  0
   -5.8545    3.3680    1.0090 C   0  0  0  0  0  0  0  0  0  0  0  0
   -4.7820    3.8567    0.2969 C   0  0  0  0  0  0  0  0  0  0  0  0
   -4.6685    5.2244    0.0076 O   0  0  0  0  0  0  0  0  0  0  0  0
   -5.6257    6.1629    0.4186 C   0  0  0  0  0  0  0  0  0  0  0  0
   -3.8168    2.9899   -0.1312 C   0  0  0  0  0  0  0  0  0  0  0  0
   -3.8776    1.6083    0.1297 C   0  0  0  0  0  0  0  0  0  0  0  0
   -2.7880    0.7589   -0.3286 C   0  0  0  0  0  0  0  0  0  0  0  0
   -1.5090    1.0660    0.1463 C   0  0  0  0  0  0  0  0  0  0  0  0
   -0.4594    0.2788   -0.2692 C   0  0  0  0  0  0  0  0  0  0  0  0
    0.8287    0.5562    0.1895 C   0  0  0  0  0  0  0  0  0  0  0  0
    1.8462   -0.2035   -0.2064 N   0  0  0  0  0  0  0  0  0  0  0  0
    1.6895   -1.2215   -1.0251 C   0  0  0  0  0  0  0  0  0  0  0  0
    2.7400   -2.0734   -1.4798 N   0  0  0  0  0  0  0  0  0  0  0  0
    3.5017   -1.7413   -2.6158 C   0  0  0  0  0  0  0  0  0  0  0  0
    4.4155   -0.5774   -2.5692 C   0  0  0  0  0  0  0  0  0  0  0  0
    5.5537   -0.6343   -1.5925 C   0  0  0  0  0  0  0  0  0  0  0  0
    5.1611   -0.7173   -0.1732 C   0  0  0  0  0  0  0  0  0  0  0  0
    6.3032   -0.8171    0.8131 C   0  0  0  0  0  0  0  0  0  0  0  0
    7.2299    0.2040    0.8671 N   0  0  0  0  0  0  0  0  0  0  0  0
    8.1544    0.4752   -0.1360 C   0  0  0  0  0  0  0  0  0  0  0  0
    9.5626    0.5450    0.4264 C   0  0  0  0  0  0  0  0  0  0  0  0
    9.6894    1.0931    1.7141 N   0  0  0  0  0  0  0  0  0  0  0  0
   10.6148    2.1523    1.9076 C   0  0  0  0  0  0  0  0  0  0  0  0
    8.6063    0.9971    2.6152 C   0  0  0  0  0  0  0  0  0  0  0  0
    7.2476    1.1316    1.9259 C   0  0  0  0  0  0  0  0  0  0  0  0
    0.4246   -1.5582   -1.5254 C   0  0  0  0  0  0  0  0  0  0  0  0
   -0.6509   -0.7815   -1.1268 C   0  0  0  0  0  0  0  0  0  0  0  0
   -1.8957   -1.0359   -1.5547 N   0  0  0  0  0  0  0  0  0  0  0  0
   -2.9762   -0.2799   -1.1687 C   0  0  0  0  0  0  0  0  0  0  0  0
   -4.2449   -0.5944   -1.7073 N   0  0  0  0  0  0  0  0  0  0  0  0
   -5.0021   -1.6690   -1.1545 C   0  0  0  0  0  0  0  0  0  0  0  0
   -4.5746   -2.3404   -0.1910 O   0  0  0  0  0  0  0  0  0  0  0  0
   -6.2624   -1.9997   -1.6950 N   0  0  0  0  0  0  0  0  0  0  0  0
   -7.1102   -3.0638   -1.2478 C   0  0  0  0  0  0  0  0  0  0  0  0
   -7.5313   -2.9577    0.1983 C   0  0  0  0  0  0  0  0  0  0  0  0
   -8.4094   -3.0884   -2.0555 C   0  0  0  0  0  0  0  0  0  0  0  0
   -6.4598   -4.4196   -1.4953 C   0  0  0  0  0  0  0  0  0  0  0  0
   -4.9538    1.1677    0.8363 C   0  0  0  0  0  0  0  0  0  0  0  0
   -6.1910   -0.0875    2.8956 H   0  0  0  0  0  0  0  0  0  0  0  0
   -7.0145   -0.3670    1.2855 H   0  0  0  0  0  0  0  0  0  0  0  0
   -7.9931   -0.1509    2.7891 H   0  0  0  0  0  0  0  0  0  0  0  0
   -6.6204    4.0482    1.3498 H   0  0  0  0  0  0  0  0  0  0  0  0
   -5.1769    7.1817    0.3167 H   0  0  0  0  0  0  0  0  0  0  0  0
   -6.5169    6.0547   -0.2462 H   0  0  0  0  0  0  0  0  0  0  0  0
   -5.8846    5.9698    1.4818 H   0  0  0  0  0  0  0  0  0  0  0  0
   -2.9758    3.3668   -0.6886 H   0  0  0  0  0  0  0  0  0  0  0  0
   -1.3812    1.8999    0.8148 H   0  0  0  0  0  0  0  0  0  0  0  0
    0.9299    1.3989    0.8609 H   0  0  0  0  0  0  0  0  0  0  0  0
    2.9047   -2.9486   -0.9456 H   0  0  0  0  0  0  0  0  0  0  0  0
    2.8664   -1.6035   -3.5401 H   0  0  0  0  0  0  0  0  0  0  0  0
    4.1243   -2.6551   -2.9017 H   0  0  0  0  0  0  0  0  0  0  0  0
    4.7785   -0.3129   -3.6014 H   0  0  0  0  0  0  0  0  0  0  0  0
    3.7924    0.3243   -2.2893 H   0  0  0  0  0  0  0  0  0  0  0  0
    6.2967   -1.4152   -1.8948 H   0  0  0  0  0  0  0  0  0  0  0  0
    6.1212    0.3363   -1.7699 H   0  0  0  0  0  0  0  0  0  0  0  0
    4.5260    0.1767    0.0549 H   0  0  0  0  0  0  0  0  0  0  0  0
    4.5246   -1.5993    0.0147 H   0  0  0  0  0  0  0  0  0  0  0  0
    6.8341   -1.7782    0.5303 H   0  0  0  0  0  0  0  0  0  0  0  0
    5.8867   -1.0610    1.8418 H   0  0  0  0  0  0  0  0  0  0  0  0
    7.9517    1.4067   -0.7286 H   0  0  0  0  0  0  0  0  0  0  0  0
    8.1807   -0.3777   -0.8725 H   0  0  0  0  0  0  0  0  0  0  0  0
   10.1593    1.1828   -0.2895 H   0  0  0  0  0  0  0  0  0  0  0  0
   10.0472   -0.4530    0.3782 H   0  0  0  0  0  0  0  0  0  0  0  0
   10.2159    3.1671    1.8142 H   0  0  0  0  0  0  0  0  0  0  0  0
   11.4409    2.0211    1.1639 H   0  0  0  0  0  0  0  0  0  0  0  0
   11.1222    2.0016    2.9028 H   0  0  0  0  0  0  0  0  0  0  0  0
    8.6611    1.8299    3.3508 H   0  0  0  0  0  0  0  0  0  0  0  0
    8.6259    0.0522    3.2326 H   0  0  0  0  0  0  0  0  0  0  0  0
    6.4916    0.9310    2.7315 H   0  0  0  0  0  0  0  0  0  0  0  0
    7.1924    2.2129    1.6092 H   0  0  0  0  0  0  0  0  0  0  0  0
    0.2784   -2.3918   -2.2000 H   0  0  0  0  0  0  0  0  0  0  0  0
   -4.6423   -0.0420   -2.5284 H   0  0  0  0  0  0  0  0  0  0  0  0
   -6.5932   -1.4060   -2.4939 H   0  0  0  0  0  0  0  0  0  0  0  0
   -6.6829   -2.7642    0.8830 H   0  0  0  0  0  0  0  0  0  0  0  0
   -8.3111   -2.1780    0.3030 H   0  0  0  0  0  0  0  0  0  0  0  0
   -7.9309   -3.9627    0.4982 H   0  0  0  0  0  0  0  0  0  0  0  0
   -8.1527   -3.1397   -3.1310 H   0  0  0  0  0  0  0  0  0  0  0  0
   -9.0511   -2.2209   -1.7947 H   0  0  0  0  0  0  0  0  0  0  0  0
   -8.9544   -4.0075   -1.7417 H   0  0  0  0  0  0  0  0  0  0  0  0
   -5.9860   -4.4253   -2.4796 H   0  0  0  0  0  0  0  0  0  0  0  0
   -5.7109   -4.6634   -0.7427 H   0  0  0  0  0  0  0  0  0  0  0  0
   -7.2646   -5.2045   -1.4966 H   0  0  0  0  0  0  0  0  0  0  0  0
   -5.0087    0.0962    1.0569 H   0  0  0  0  0  0  0  0  0  0  0  0
  1  2  1  0
  2  3  1  0
  3  4  2  0
  4  5  1  0
  5  6  1  0
  6  7  1  0
  5  8  2  0
  8  9  1  0
  9 10  1  0
 10 11  2  0
 11 12  1  0
 12 13  2  0
 13 14  1  0
 14 15  2  0
 15 16  1  0
 16 17  1  0
 17 18  1  0
 18 19  1  0
 19 20  1  0
 20 21  1  0
 21 22  1  0
 22 23  1  0
 23 24  1  0
 24 25  1  0
 25 26  1  0
 25 27  1  0
 27 28  1  0
 15 29  1  0
 29 30  2  0
 30 31  1  0
 31 32  2  0
 32 33  1  0
 33 34  1  0
 34 35  2  0
 34 36  1  0
 36 37  1  0
 37 38  1  0
 37 39  1  0
 37 40  1  0
  9 41  2  0
 41  3  1  0
 32 10  1  0
 30 12  1  0
 28 22  1  0
  1 42  1  0
  1 43  1  0
  1 44  1  0
  4 45  1  0
  7 46  1  0
  7 47  1  0
  7 48  1  0
  8 49  1  0
 11 50  1  0
 13 51  1  0
 16 52  1  0
 17 53  1  0
 17 54  1  0
 18 55  1  0
 18 56  1  0
 19 57  1  0
 19 58  1  0
 20 59  1  0
 20 60  1  0
 21 61  1  0
 21 62  1  0
 23 63  1  0
 23 64  1  0
 24 65  1  0
 24 66  1  0
 26 67  1  0
 26 68  1  0
 26 69  1  0
 27 70  1  0
 27 71  1  0
 28 72  1  0
 28 73  1  0
 29 74  1  0
 33 75  1  0
 36 76  1  0
 38 77  1  0
 38 78  1  0
 38 79  1  0
 39 80  1  0
 39 81  1  0
 39 82  1  0
 40 83  1  0
 40 84  1  0
 40 85  1  0
 41 86  1  0
M  END
$$$$
