
     RDKit          3D

101105  0  0  0  0  0  0  0  0999 V2000
   -6.8802    5.4397    0.2129 C   0  0  0  0  0  0  0  0  0  0  0  0
   -6.3647    4.2703   -0.5944 C   0  0  0  0  0  0  0  0  0  0  0  0
   -5.5897    4.8697   -1.7647 C   0  0  0  0  0  0  0  0  0  0  0  0
   -5.4664    3.4679    0.2980 C   0  0  0  0  0  0  0  0  0  0  0  0
   -4.8975    2.2434   -0.4577 C   0  0  2  0  0  0  0  0  0  0  0  0
   -6.0127    1.5290   -0.8296 O   0  0  0  0  0  0  0  0  0  0  0  0
   -4.0140    1.5699    0.5569 C   0  0  2  0  0  0  0  0  0  0  0  0
   -2.9678    2.5127    0.7361 O   0  0  0  0  0  0  0  0  0  0  0  0
   -3.3613    0.3342    0.0225 C   0  0  2  0  0  0  0  0  0  0  0  0
   -4.2927   -0.8170   -0.1535 C   0  0  0  0  0  0  0  0  0  0  0  0
   -3.6596   -2.0678   -0.7080 C   0  0  0  0  0  0  0  0  0  0  0  0
   -3.0649   -1.9300   -2.0669 C   0  0  0  0  0  0  0  0  0  0  0  0
   -2.3575   -3.2466   -2.3637 C   0  0  0  0  0  0  0  0  0  0  0  0
   -3.3972   -4.3197   -2.5420 C   0  0  0  0  0  0  0  0  0  0  0  0
   -4.2364   -4.4429   -1.3093 C   0  0  0  0  0  0  0  0  0  0  0  0
   -4.7593   -3.1203   -0.8166 C   0  0  0  0  0  0  0  0  0  0  0  0
   -2.3454   -0.1534    0.9752 N   0  0  0  0  0  0  0  0  0  0  0  0
   -0.9935   -0.2705    0.7386 C   0  0  0  0  0  0  0  0  0  0  0  0
   -0.6871    0.1161   -0.4853 O   0  0  0  0  0  0  0  0  0  0  0  0
    0.1562   -0.7094    1.4914 C   0  0  2  0  0  0  0  0  0  0  0  0
    0.5700    0.0616    2.6807 C   0  0  0  0  0  0  0  0  0  0  0  0
   -0.2887    0.0837    3.8814 C   0  0  0  0  0  0  0  0  0  0  0  0
   -1.3331   -0.7676    4.0957 C   0  0  0  0  0  0  0  0  0  0  0  0
   -1.8185   -0.3125    5.7928 S   0  0  0  0  0  0  0  0  0  0  0  0
   -0.5489    0.9445    5.9543 C   0  0  0  0  0  0  0  0  0  0  0  0
   -0.3905    1.7267    7.1497 N   0  0  0  0  0  0  0  0  0  0  0  0
    0.0108    0.8940    4.8877 N   0  0  0  0  0  0  0  0  0  0  0  0
    1.3703   -0.7996    0.6634 N   0  0  0  0  0  0  0  0  0  0  0  0
    2.0476   -1.9990    0.3943 C   0  0  0  0  0  0  0  0  0  0  0  0
    1.5264   -3.0502    0.9155 O   0  0  0  0  0  0  0  0  0  0  0  0
    3.2732   -2.0968   -0.4233 C   0  0  2  0  0  0  0  0  0  0  0  0
    4.1986   -3.1465    0.1047 C   0  0  0  0  0  0  0  0  0  0  0  0
    5.2808   -2.5673    0.9532 C   0  0  0  0  0  0  0  0  0  0  0  0
    6.1763   -3.3986    1.5894 C   0  0  0  0  0  0  0  0  0  0  0  0
    7.2024   -2.8984    2.3903 C   0  0  0  0  0  0  0  0  0  0  0  0
    7.3245   -1.5538    2.5495 C   0  0  0  0  0  0  0  0  0  0  0  0
    6.4373   -0.7085    1.9200 C   0  0  0  0  0  0  0  0  0  0  0  0
    5.4147   -1.2057    1.1216 C   0  0  0  0  0  0  0  0  0  0  0  0
    4.5067   -0.2157    0.4857 C   0  0  0  0  0  0  0  0  0  0  0  0
    3.8775   -0.8272   -0.6445 N   0  0  0  0  0  0  0  0  0  0  0  0
    5.0572   -0.8827   -1.9077 S   0  0  0  0  0  6  0  0  0  0  0  0
    4.4269   -1.6043   -3.0644 O   0  0  0  0  0  0  0  0  0  0  0  0
    6.2518   -1.6998   -1.4943 O   0  0  0  0  0  0  0  0  0  0  0  0
    5.5863    0.6664   -2.3705 N   0  0  0  0  0  0  0  0  0  0  0  0
    4.5186    1.4883   -2.8976 C   0  0  0  0  0  0  0  0  0  0  0  0
    5.1039    2.8986   -3.0439 C   0  0  0  0  0  0  0  0  0  0  0  0
    6.1764    2.8617   -3.9395 O   0  0  0  0  0  0  0  0  0  0  0  0
    7.1872    2.0985   -3.3806 C   0  0  0  0  0  0  0  0  0  0  0  0
    6.6661    0.6565   -3.3106 C   0  0  0  0  0  0  0  0  0  0  0  0
   -6.1923    6.2938    0.0969 H   0  0  0  0  0  0  0  0  0  0  0  0
   -7.9301    5.6950   -0.0574 H   0  0  0  0  0  0  0  0  0  0  0  0
   -6.8674    5.1569    1.2902 H   0  0  0  0  0  0  0  0  0  0  0  0
   -7.1812    3.6174   -0.9462 H   0  0  0  0  0  0  0  0  0  0  0  0
   -4.5055    4.7859   -1.5921 H   0  0  0  0  0  0  0  0  0  0  0  0
   -5.8302    5.9388   -1.9010 H   0  0  0  0  0  0  0  0  0  0  0  0
   -5.9003    4.3473   -2.6988 H   0  0  0  0  0  0  0  0  0  0  0  0
   -6.1109    3.0212    1.0901 H   0  0  0  0  0  0  0  0  0  0  0  0
   -4.6696    4.0375    0.7896 H   0  0  0  0  0  0  0  0  0  0  0  0
   -4.3422    2.6725   -1.3005 H   0  0  0  0  0  0  0  0  0  0  0  0
   -6.5493    1.3007   -0.0530 H   0  0  0  0  0  0  0  0  0  0  0  0
   -4.6055    1.4091    1.4622 H   0  0  0  0  0  0  0  0  0  0  0  0
   -2.7191    2.8337   -0.1443 H   0  0  0  0  0  0  0  0  0  0  0  0
   -2.8486    0.5581   -0.9070 H   0  0  0  0  0  0  0  0  0  0  0  0
   -5.2034   -0.6071   -0.7497 H   0  0  0  0  0  0  0  0  0  0  0  0
   -4.7194   -1.1478    0.8450 H   0  0  0  0  0  0  0  0  0  0  0  0
   -2.8949   -2.4761    0.0100 H   0  0  0  0  0  0  0  0  0  0  0  0
   -2.3162   -1.1351   -2.1945 H   0  0  0  0  0  0  0  0  0  0  0  0
   -3.8910   -1.8544   -2.8110 H   0  0  0  0  0  0  0  0  0  0  0  0
   -1.8092   -3.4923   -1.4245 H   0  0  0  0  0  0  0  0  0  0  0  0
   -1.6387   -3.1905   -3.1799 H   0  0  0  0  0  0  0  0  0  0  0  0
   -4.0706   -4.1095   -3.3998 H   0  0  0  0  0  0  0  0  0  0  0  0
   -2.8531   -5.2700   -2.7245 H   0  0  0  0  0  0  0  0  0  0  0  0
   -5.1393   -5.0545   -1.5870 H   0  0  0  0  0  0  0  0  0  0  0  0
   -3.7403   -5.0279   -0.5034 H   0  0  0  0  0  0  0  0  0  0  0  0
   -5.2920   -3.2529    0.1276 H   0  0  0  0  0  0  0  0  0  0  0  0
   -5.4344   -2.7257   -1.6315 H   0  0  0  0  0  0  0  0  0  0  0  0
   -2.7517   -0.4128    1.8710 H   0  0  0  0  0  0  0  0  0  0  0  0
    0.0320   -1.7880    1.8643 H   0  0  0  0  0  0  0  0  0  0  0  0
    1.6445   -0.1449    2.9659 H   0  0  0  0  0  0  0  0  0  0  0  0
    0.6539    1.1509    2.3181 H   0  0  0  0  0  0  0  0  0  0  0  0
   -1.8132   -1.5567    3.5131 H   0  0  0  0  0  0  0  0  0  0  0  0
   -0.6450    2.7203    7.0889 H   0  0  0  0  0  0  0  0  0  0  0  0
   -0.0398    1.3428    8.0454 H   0  0  0  0  0  0  0  0  0  0  0  0
    1.7053    0.1026    0.2668 H   0  0  0  0  0  0  0  0  0  0  0  0
    2.9437   -2.4670   -1.4344 H   0  0  0  0  0  0  0  0  0  0  0  0
    3.5974   -3.8300    0.7728 H   0  0  0  0  0  0  0  0  0  0  0  0
    4.6057   -3.8246   -0.6965 H   0  0  0  0  0  0  0  0  0  0  0  0
    6.0999   -4.4779    1.4765 H   0  0  0  0  0  0  0  0  0  0  0  0
    7.9127   -3.5460    2.8947 H   0  0  0  0  0  0  0  0  0  0  0  0
    8.1279   -1.1597    3.1753 H   0  0  0  0  0  0  0  0  0  0  0  0
    6.5521    0.3632    2.0605 H   0  0  0  0  0  0  0  0  0  0  0  0
    5.1976    0.5726    0.0582 H   0  0  0  0  0  0  0  0  0  0  0  0
    3.8456    0.2659    1.2089 H   0  0  0  0  0  0  0  0  0  0  0  0
    4.2928    1.1849   -3.9632 H   0  0  0  0  0  0  0  0  0  0  0  0
    3.6138    1.5140   -2.2921 H   0  0  0  0  0  0  0  0  0  0  0  0
    5.4995    3.1945   -2.0553 H   0  0  0  0  0  0  0  0  0  0  0  0
    4.2963    3.5750   -3.3935 H   0  0  0  0  0  0  0  0  0  0  0  0
    7.3317    2.4651   -2.3335 H   0  0  0  0  0  0  0  0  0  0  0  0
    8.1390    2.1488   -3.9222 H   0  0  0  0  0  0  0  0  0  0  0  0
    7.4802   -0.0373   -3.0568 H   0  0  0  0  0  0  0  0  0  0  0  0
    6.3124    0.3989   -4.3310 H   0  0  0  0  0  0  0  0  0  0  0  0
  1  2  1  0
  2  3  1  0
  2  4  1  0
  4  5  1  0
  5  6  1  0
  5  7  1  0
  7  8  1  0
  7  9  1  0
  9 10  1  0
 10 11  1  0
 11 12  1  0
 12 13  1  0
 13 14  1  0
 14 15  1  0
 15 16  1  0
  9 17  1  0
 17 18  1  0
 18 19  2  0
 18 20  1  0
 20 21  1  0
 21 22  1  0
 22 23  2  0
 23 24  1  0
 24 25  1  0
 25 26  1  0
 25 27  2  0
 20 28  1  0
 28 29  1  0
 29 30  2  0
 29 31  1  0
 31 32  1  0
 32 33  1  0
 33 34  2  0
 34 35  1  0
 35 36  2  0
 36 37  1  0
 37 38  2  0
 38 39  1  0
 39 40  1  0
 40 41  1  0
 41 42  2  0
 41 43  2  0
 41 44  1  0
 44 45  1  0
 45 46  1  0
 46 47  1  0
 47 48  1  0
 48 49  1  0
 16 11  1  0
 27 22  1  0
 40 31  1  0
 49 44  1  0
 38 33  1  0
  1 50  1  0
  1 51  1  0
  1 52  1  0
  2 53  1  0
  3 54  1  0
  3 55  1  0
  3 56  1  0
  4 57  1  0
  4 58  1  0
  5 59  1  6
  6 60  1  0
  7 61  1  1
  8 62  1  0
  9 63  1  6
 10 64  1  0
 10 65  1  0
 11 66  1  0
 12 67  1  0
 12 68  1  0
 13 69  1  0
 13 70  1  0
 14 71  1  0
 14 72  1  0
 15 73  1  0
 15 74  1  0
 16 75  1  0
 16 76  1  0
 17 77  1  0
 20 78  1  1
 21 79  1  0
 21 80  1  0
 23 81  1  0
 26 82  1  0
 26 83  1  0
 28 84  1  0
 31 85  1  6
 32 86  1  0
 32 87  1  0
 34 88  1  0
 35 89  1  0
 36 90  1  0
 37 91  1  0
 39 92  1  0
 39 93  1  0
 45 94  1  0
 45 95  1  0
 46 96  1  0
 46 97  1  0
 48 98  1  0
 48 99  1  0
 49100  1  0
 49101  1  0
M  END
$$$$
