
     RDKit          3D

 49 52  0  0  0  0  0  0  0  0999 V2000
   -1.7530    0.4496    0.7833 C   0  0  2  0  0  0  0  0  0  0  0  0
   -2.7855   -0.0928    1.6879 C   0  0  0  0  0  0  0  0  0  0  0  0
   -4.0087    0.6172    1.0861 C   0  0  0  0  0  0  0  0  0  0  0  0
   -3.7702    0.3637   -0.4087 C   0  0  1  0  0  0  0  0  0  0  0  0
   -4.4459   -0.8552   -0.6509 O   0  0  0  0  0  0  0  0  0  0  0  0
   -4.3496    1.3848   -1.2466 C   0  0  0  0  0  0  0  0  0  0  0  0
   -4.8424    2.2132   -1.9417 C   0  0  0  0  0  0  0  0  0  0  0  0
   -2.3236    0.1256   -0.5969 C   0  0  2  0  0  0  0  0  0  0  0  0
   -2.0252   -1.2726   -1.0411 C   0  0  0  0  0  0  0  0  0  0  0  0
   -1.6272    1.0766   -1.5249 C   0  0  0  0  0  0  0  0  0  0  0  0
   -0.1513    0.9293   -1.4600 C   0  0  0  0  0  0  0  0  0  0  0  0
    0.4219    0.7934   -0.0938 C   0  0  2  0  0  0  0  0  0  0  0  0
    1.7895    0.2542   -0.1200 C   0  0  0  0  0  0  0  0  0  0  0  0
    2.2885   -0.6721    0.7816 C   0  0  0  0  0  0  0  0  0  0  0  0
    1.4595   -1.2206    1.8908 C   0  0  0  0  0  0  0  0  0  0  0  0
    0.2525   -0.3041    2.1231 C   0  0  0  0  0  0  0  0  0  0  0  0
   -0.4039   -0.1485    0.7970 C   0  0  1  0  0  0  0  0  0  0  0  0
    3.5953   -1.1361    0.6927 C   0  0  0  0  0  0  0  0  0  0  0  0
    4.4524   -0.6842   -0.3102 C   0  0  0  0  0  0  0  0  0  0  0  0
    5.7307   -1.2059   -0.3126 O   0  0  0  0  0  0  0  0  0  0  0  0
    6.6870   -0.8339   -1.2665 C   0  0  0  0  0  0  0  0  0  0  0  0
    3.9319    0.2373   -1.1949 C   0  0  0  0  0  0  0  0  0  0  0  0
    2.6484    0.7058   -1.1234 C   0  0  0  0  0  0  0  0  0  0  0  0
   -1.6957    1.5468    0.8938 H   0  0  0  0  0  0  0  0  0  0  0  0
   -2.9257   -1.1720    1.6117 H   0  0  0  0  0  0  0  0  0  0  0  0
   -2.5996    0.2376    2.7278 H   0  0  0  0  0  0  0  0  0  0  0  0
   -3.8312    1.6927    1.2239 H   0  0  0  0  0  0  0  0  0  0  0  0
   -4.9557    0.2253    1.4488 H   0  0  0  0  0  0  0  0  0  0  0  0
   -5.3270   -0.8658   -0.1770 H   0  0  0  0  0  0  0  0  0  0  0  0
   -5.2933    2.9407   -2.5711 H   0  0  0  0  0  0  0  0  0  0  0  0
   -1.0756   -1.3707   -1.6244 H   0  0  0  0  0  0  0  0  0  0  0  0
   -2.0952   -2.0425   -0.2617 H   0  0  0  0  0  0  0  0  0  0  0  0
   -2.8206   -1.5530   -1.7922 H   0  0  0  0  0  0  0  0  0  0  0  0
   -1.9396    2.1401   -1.3628 H   0  0  0  0  0  0  0  0  0  0  0  0
   -1.9515    0.8244   -2.5634 H   0  0  0  0  0  0  0  0  0  0  0  0
    0.2557    0.1418   -2.1273 H   0  0  0  0  0  0  0  0  0  0  0  0
    0.2783    1.8852   -1.8829 H   0  0  0  0  0  0  0  0  0  0  0  0
    0.4385    1.8185    0.3789 H   0  0  0  0  0  0  0  0  0  0  0  0
    2.0337   -1.3058    2.8503 H   0  0  0  0  0  0  0  0  0  0  0  0
    1.0799   -2.2179    1.5778 H   0  0  0  0  0  0  0  0  0  0  0  0
   -0.4284   -0.9063    2.7663 H   0  0  0  0  0  0  0  0  0  0  0  0
    0.5791    0.6465    2.5787 H   0  0  0  0  0  0  0  0  0  0  0  0
   -0.3421   -1.1374    0.2660 H   0  0  0  0  0  0  0  0  0  0  0  0
    3.9605   -1.8716    1.4245 H   0  0  0  0  0  0  0  0  0  0  0  0
    7.3774   -0.1058   -0.7815 H   0  0  0  0  0  0  0  0  0  0  0  0
    6.2940   -0.5255   -2.2359 H   0  0  0  0  0  0  0  0  0  0  0  0
    7.2864   -1.7694   -1.4688 H   0  0  0  0  0  0  0  0  0  0  0  0
    4.6024    0.5832   -1.9699 H   0  0  0  0  0  0  0  0  0  0  0  0
    2.3242    1.4363   -1.8699 H   0  0  0  0  0  0  0  0  0  0  0  0
  1  2  1  0
  2  3  1  0
  3  4  1  0
  4  5  1  0
  4  6  1  6
  6  7  3  0
  4  8  1  0
  8  9  1  6
  8 10  1  0
 10 11  1  0
 11 12  1  0
 12 13  1  0
 13 14  2  0
 14 15  1  0
 15 16  1  0
 16 17  1  0
 14 18  1  0
 18 19  2  0
 19 20  1  0
 20 21  1  0
 19 22  1  0
 22 23  2  0
  8  1  1  0
 17 12  1  0
 17  1  1  0
 23 13  1  0
  1 24  1  6
  2 25  1  0
  2 26  1  0
  3 27  1  0
  3 28  1  0
  5 29  1  0
  7 30  1  0
  9 31  1  0
  9 32  1  0
  9 33  1  0
 10 34  1  0
 10 35  1  0
 11 36  1  0
 11 37  1  0
 12 38  1  1
 15 39  1  0
 15 40  1  0
 16 41  1  0
 16 42  1  0
 17 43  1  6
 18 44  1  0
 21 45  1  0
 21 46  1  0
 21 47  1  0
 22 48  1  0
 23 49  1  0
M  END
$$$$
