
     RDKit          3D

 40 43  0  0  0  0  0  0  0  0999 V2000
    3.0769   -2.3843    1.9437 F   0  0  0  0  0  0  0  0  0  0  0  0
    1.7763   -2.3683    1.5033 C   0  0  0  0  0  0  0  0  0  0  0  0
    1.0853   -3.5542    1.3729 C   0  0  0  0  0  0  0  0  0  0  0  0
   -0.2105   -3.4845    0.9302 C   0  0  0  0  0  0  0  0  0  0  0  0
   -0.8402   -2.2980    0.6153 C   0  0  0  0  0  0  0  0  0  0  0  0
   -2.0624   -1.9525    0.1729 N   0  0  0  0  0  0  0  0  0  0  0  0
   -2.1513   -0.6219    0.0271 C   0  0  0  0  0  0  0  0  0  0  0  0
   -3.3094    0.1616   -0.4335 C   0  0  0  0  0  0  0  0  0  0  0  0
   -3.2239    1.5303   -0.5325 C   0  0  0  0  0  0  0  0  0  0  0  0
   -4.3283    2.2357   -0.9662 C   0  0  0  0  0  0  0  0  0  0  0  0
   -5.5239    1.6387   -1.3089 C   0  0  0  0  0  0  0  0  0  0  0  0
   -5.5790    0.2682   -1.1996 C   0  0  0  0  0  0  0  0  0  0  0  0
   -4.4941   -0.4452   -0.7717 C   0  0  0  0  0  0  0  0  0  0  0  0
   -0.9538   -0.1310    0.3887 N   0  0  0  0  0  0  0  0  0  0  0  0
   -0.1153   -1.1224    0.7579 C   0  0  0  0  0  0  0  0  0  0  0  0
    1.1914   -1.1512    1.2009 C   0  0  0  0  0  0  0  0  0  0  0  0
    1.9406    0.1231    1.3441 C   0  0  0  0  0  0  0  0  0  0  0  0
    2.8754    0.3078    0.2713 N   0  0  0  0  0  0  0  0  0  0  0  0
    2.2655    0.3701   -1.0192 C   0  0  0  0  0  0  0  0  0  0  0  0
    3.3116    0.9957   -1.9236 C   0  0  0  0  0  0  0  0  0  0  0  0
    4.3213    1.6258   -0.9653 C   0  0  0  0  0  0  0  0  0  0  0  0
    3.7504    1.4284    0.4264 C   0  0  0  0  0  0  0  0  0  0  0  0
    1.5860   -4.4792    1.6208 H   0  0  0  0  0  0  0  0  0  0  0  0
   -0.7626   -4.4080    0.8242 H   0  0  0  0  0  0  0  0  0  0  0  0
   -2.3029    2.0698   -0.2760 H   0  0  0  0  0  0  0  0  0  0  0  0
   -4.2800    3.3060   -1.0500 H   0  0  0  0  0  0  0  0  0  0  0  0
   -6.3906    2.2249   -1.6523 H   0  0  0  0  0  0  0  0  0  0  0  0
   -6.5207   -0.2353   -1.4663 H   0  0  0  0  0  0  0  0  0  0  0  0
   -4.5312   -1.5372   -0.6824 H   0  0  0  0  0  0  0  0  0  0  0  0
   -0.7046    0.8799    0.3844 H   0  0  0  0  0  0  0  0  0  0  0  0
    2.3922    0.1816    2.3404 H   0  0  0  0  0  0  0  0  0  0  0  0
    1.2093    0.9807    1.2944 H   0  0  0  0  0  0  0  0  0  0  0  0
    1.9146   -0.6074   -1.3758 H   0  0  0  0  0  0  0  0  0  0  0  0
    1.3944    1.0815   -0.9336 H   0  0  0  0  0  0  0  0  0  0  0  0
    2.8538    1.8024   -2.5211 H   0  0  0  0  0  0  0  0  0  0  0  0
    3.8379    0.2306   -2.5434 H   0  0  0  0  0  0  0  0  0  0  0  0
    5.2916    1.0801   -1.0289 H   0  0  0  0  0  0  0  0  0  0  0  0
    4.4627    2.6986   -1.2011 H   0  0  0  0  0  0  0  0  0  0  0  0
    4.5784    1.2365    1.1458 H   0  0  0  0  0  0  0  0  0  0  0  0
    3.1690    2.3223    0.6697 H   0  0  0  0  0  0  0  0  0  0  0  0
  1  2  1  0
  2  3  2  0
  3  4  1  0
  4  5  2  0
  5  6  1  0
  6  7  2  0
  7  8  1  0
  8  9  2  0
  9 10  1  0
 10 11  2  0
 11 12  1  0
 12 13  2  0
  7 14  1  0
 14 15  1  0
 15 16  2  0
 16 17  1  0
 17 18  1  0
 18 19  1  0
 19 20  1  0
 20 21  1  0
 21 22  1  0
 16  2  1  0
 22 18  1  0
 15  5  1  0
 13  8  1  0
  3 23  1  0
  4 24  1  0
  9 25  1  0
 10 26  1  0
 11 27  1  0
 12 28  1  0
 13 29  1  0
 14 30  1  0
 17 31  1  0
 17 32  1  0
 19 33  1  0
 19 34  1  0
 20 35  1  0
 20 36  1  0
 21 37  1  0
 21 38  1  0
 22 39  1  0
 22 40  1  0
M  END
$$$$
