
     RDKit          3D

 36 37  0  0  0  0  0  0  0  0999 V2000
   -5.5934    2.2810   -2.5223 O   0  0  0  0  0  0  0  0  0  0  0  0
   -5.7300    1.7801   -1.3833 C   0  0  0  0  0  0  0  0  0  0  0  0
   -6.8773    2.0293   -0.6833 O   0  0  0  0  0  0  0  0  0  0  0  0
   -4.6349    0.9475   -0.8677 C   0  0  0  0  0  0  0  0  0  0  0  0
   -3.4921    0.7183   -1.6026 C   0  0  0  0  0  0  0  0  0  0  0  0
   -2.4752   -0.0667   -1.1002 C   0  0  0  0  0  0  0  0  0  0  0  0
   -2.5413   -0.6579    0.1449 C   0  0  0  0  0  0  0  0  0  0  0  0
   -1.2323   -1.6545    0.7638 S   0  0  0  0  0  5  0  0  0  0  0  0
   -1.7462   -3.0537    1.0752 O   0  0  0  0  0  0  0  0  0  0  0  0
   -0.5974   -1.0481    2.1759 O   0  0  0  0  0  1  0  0  0  0  0  0
   -0.0013   -1.8204   -0.3679 O   0  0  0  0  0  0  0  0  0  0  0  0
    1.2835   -1.3283   -0.1957 C   0  0  0  0  0  0  0  0  0  0  0  0
    1.5752   -0.0569   -0.6210 C   0  0  0  0  0  0  0  0  0  0  0  0
    2.8783    0.3998   -0.4294 C   0  0  0  0  0  0  0  0  0  0  0  0
    3.8466   -0.3748    0.1591 C   0  0  0  0  0  0  0  0  0  0  0  0
    5.2160    0.1125    0.3576 C   0  0  0  0  0  0  0  0  0  0  0  0
    5.6607    1.2834    0.0166 C   0  0  0  0  0  0  0  0  0  0  0  0
    7.0290    1.6732    0.2538 N   0  0  0  0  0  4  0  0  0  0  0  0
    7.9824    1.0165   -0.1813 O   0  0  0  0  0  0  0  0  0  0  0  0
    7.2982    2.8014    0.9805 O   0  0  0  0  0  1  0  0  0  0  0  0
    3.4935   -1.6449    0.5663 C   0  0  0  0  0  0  0  0  0  0  0  0
    2.2294   -2.1295    0.3970 C   0  0  0  0  0  0  0  0  0  0  0  0
   -3.6859   -0.4272    0.8786 C   0  0  0  0  0  0  0  0  0  0  0  0
   -3.7900   -1.0058    2.1385 O   0  0  0  0  0  0  0  0  0  0  0  0
   -4.7037    0.3582    0.3765 C   0  0  0  0  0  0  0  0  0  0  0  0
   -7.7652    2.3157   -1.1136 H   0  0  0  0  0  0  0  0  0  0  0  0
   -3.4072    1.1723   -2.5943 H   0  0  0  0  0  0  0  0  0  0  0  0
   -1.5590   -0.2564   -1.6775 H   0  0  0  0  0  0  0  0  0  0  0  0
    0.8754    0.6098   -1.0891 H   0  0  0  0  0  0  0  0  0  0  0  0
    3.1271    1.3957   -0.7567 H   0  0  0  0  0  0  0  0  0  0  0  0
    5.9446   -0.5604    0.8365 H   0  0  0  0  0  0  0  0  0  0  0  0
    5.0026    1.9886   -0.4550 H   0  0  0  0  0  0  0  0  0  0  0  0
    4.2408   -2.2664    1.0299 H   0  0  0  0  0  0  0  0  0  0  0  0
    1.9592   -3.1508    0.7283 H   0  0  0  0  0  0  0  0  0  0  0  0
   -4.2040   -1.9224    2.2439 H   0  0  0  0  0  0  0  0  0  0  0  0
   -5.6059    0.5420    0.9511 H   0  0  0  0  0  0  0  0  0  0  0  0
  1  2  2  0
  2  3  1  0
  2  4  1  0
  4  5  2  0
  5  6  1  0
  6  7  2  0
  7  8  1  0
  8  9  2  0
  8 10  1  0
  8 11  1  0
 11 12  1  0
 12 13  2  0
 13 14  1  0
 14 15  2  0
 15 16  1  0
 16 17  2  0
 17 18  1  0
 18 19  2  0
 18 20  1  0
 15 21  1  0
 21 22  2  0
  7 23  1  0
 23 24  1  0
 23 25  2  0
 25  4  1  0
 22 12  1  0
  3 26  1  0
  5 27  1  0
  6 28  1  0
 13 29  1  0
 14 30  1  0
 16 31  1  0
 17 32  1  0
 21 33  1  0
 22 34  1  0
 24 35  1  0
 25 36  1  0
M  CHG  4   8   1  10  -1  18   1  20  -1
M  END
$$$$
