
     RDKit          3D

 62 65  0  0  0  0  0  0  0  0999 V2000
   -5.2795    6.0142    2.3059 C   0  0  0  0  0  0  0  0  0  0  0  0
   -5.4466    5.9571    0.8097 C   0  0  0  0  0  0  0  0  0  0  0  0
   -4.6570    4.8752    0.3281 O   0  0  0  0  0  0  0  0  0  0  0  0
   -4.9333    3.6029    0.7893 C   0  0  0  0  0  0  0  0  0  0  0  0
   -5.8653    3.4478    1.6118 O   0  0  0  0  0  0  0  0  0  0  0  0
   -4.1692    2.4451    0.3424 C   0  0  0  0  0  0  0  0  0  0  0  0
   -3.1148    2.4767   -0.5626 C   0  0  0  0  0  0  0  0  0  0  0  0
   -2.6308    1.1993   -0.7503 C   0  0  0  0  0  0  0  0  0  0  0  0
   -1.5323    0.7853   -1.6147 C   0  0  0  0  0  0  0  0  0  0  0  0
   -1.4268    1.2768   -2.9141 C   0  0  0  0  0  0  0  0  0  0  0  0
   -0.4053    0.9049   -3.7525 C   0  0  0  0  0  0  0  0  0  0  0  0
    0.5455    0.0354   -3.3348 C   0  0  0  0  0  0  0  0  0  0  0  0
    0.4902   -0.4871   -2.0473 C   0  0  0  0  0  0  0  0  0  0  0  0
    1.4775   -1.3781   -1.6414 O   0  0  0  0  0  0  0  0  0  0  0  0
    2.6311   -0.9028   -1.0484 C   0  0  0  0  0  0  0  0  0  0  0  0
    2.7472    0.3379   -0.8952 O   0  0  0  0  0  0  0  0  0  0  0  0
    3.6878   -1.7348   -0.6046 N   0  0  0  0  0  0  0  0  0  0  0  0
    4.8535   -1.1214    0.0046 C   0  0  0  0  0  0  0  0  0  0  0  0
    6.0789   -1.4061   -0.8752 C   0  0  0  0  0  0  0  0  0  0  0  0
    7.1517   -0.4131   -0.4816 C   0  0  0  0  0  0  0  0  0  0  0  0
    7.2681   -0.3516    1.0183 C   0  0  0  0  0  0  0  0  0  0  0  0
    6.5892   -1.5278    1.6854 C   0  0  0  0  0  0  0  0  0  0  0  0
    5.1408   -1.6616    1.3648 C   0  0  0  0  0  0  0  0  0  0  0  0
   -0.5438   -0.0969   -1.2303 C   0  0  0  0  0  0  0  0  0  0  0  0
   -3.4018    0.4214    0.0446 N   0  0  0  0  0  0  0  0  0  0  0  0
   -3.2862   -0.9970    0.1959 C   0  0  0  0  0  0  0  0  0  0  0  0
   -3.6480   -1.8741   -0.8060 C   0  0  0  0  0  0  0  0  0  0  0  0
   -3.5347   -3.2480   -0.6557 C   0  0  0  0  0  0  0  0  0  0  0  0
   -3.0499   -3.7896    0.5166 C   0  0  0  0  0  0  0  0  0  0  0  0
   -2.9200   -5.2674    0.6984 C   0  0  0  0  0  0  0  0  0  0  0  0
   -2.6871   -2.9168    1.5210 C   0  0  0  0  0  0  0  0  0  0  0  0
   -2.8023   -1.5446    1.3658 C   0  0  0  0  0  0  0  0  0  0  0  0
   -4.2976    1.1597    0.6787 N   0  0  0  0  0  0  0  0  0  0  0  0
   -6.2859    5.8735    2.7700 H   0  0  0  0  0  0  0  0  0  0  0  0
   -4.5869    5.2397    2.6792 H   0  0  0  0  0  0  0  0  0  0  0  0
   -4.8660    7.0057    2.6386 H   0  0  0  0  0  0  0  0  0  0  0  0
   -5.1589    6.9127    0.3339 H   0  0  0  0  0  0  0  0  0  0  0  0
   -6.5039    5.6961    0.5309 H   0  0  0  0  0  0  0  0  0  0  0  0
   -2.7363    3.3678   -1.0429 H   0  0  0  0  0  0  0  0  0  0  0  0
   -2.2123    1.9770   -3.2171 H   0  0  0  0  0  0  0  0  0  0  0  0
   -0.3697    1.3131   -4.7460 H   0  0  0  0  0  0  0  0  0  0  0  0
    1.3857   -0.2962   -3.9659 H   0  0  0  0  0  0  0  0  0  0  0  0
    3.6281   -2.7690   -0.7140 H   0  0  0  0  0  0  0  0  0  0  0  0
    4.7755   -0.0306    0.0569 H   0  0  0  0  0  0  0  0  0  0  0  0
    6.4206   -2.4416   -0.6882 H   0  0  0  0  0  0  0  0  0  0  0  0
    5.8458   -1.2835   -1.9436 H   0  0  0  0  0  0  0  0  0  0  0  0
    8.1220   -0.6604   -0.9339 H   0  0  0  0  0  0  0  0  0  0  0  0
    6.8608    0.5966   -0.8488 H   0  0  0  0  0  0  0  0  0  0  0  0
    6.8887    0.6270    1.4178 H   0  0  0  0  0  0  0  0  0  0  0  0
    8.3413   -0.4002    1.2801 H   0  0  0  0  0  0  0  0  0  0  0  0
    6.7505   -1.4069    2.7867 H   0  0  0  0  0  0  0  0  0  0  0  0
    7.1944   -2.4355    1.4017 H   0  0  0  0  0  0  0  0  0  0  0  0
    4.4918   -1.2221    2.1505 H   0  0  0  0  0  0  0  0  0  0  0  0
    4.8818   -2.7598    1.3435 H   0  0  0  0  0  0  0  0  0  0  0  0
   -0.5859   -0.5045   -0.2272 H   0  0  0  0  0  0  0  0  0  0  0  0
   -4.0287   -1.4572   -1.7275 H   0  0  0  0  0  0  0  0  0  0  0  0
   -3.8181   -3.9361   -1.4407 H   0  0  0  0  0  0  0  0  0  0  0  0
   -1.9080   -5.6180    0.4358 H   0  0  0  0  0  0  0  0  0  0  0  0
   -3.6368   -5.8343    0.0955 H   0  0  0  0  0  0  0  0  0  0  0  0
   -3.0990   -5.5538    1.7625 H   0  0  0  0  0  0  0  0  0  0  0  0
   -2.3033   -3.3575    2.4485 H   0  0  0  0  0  0  0  0  0  0  0  0
   -2.5159   -0.8628    2.1573 H   0  0  0  0  0  0  0  0  0  0  0  0
  1  2  1  0
  2  3  1  0
  3  4  1  0
  4  5  2  0
  4  6  1  0
  6  7  1  0
  7  8  2  0
  8  9  1  0
  9 10  2  0
 10 11  1  0
 11 12  2  0
 12 13  1  0
 13 14  1  0
 14 15  1  0
 15 16  2  0
 15 17  1  0
 17 18  1  0
 18 19  1  0
 19 20  1  0
 20 21  1  0
 21 22  1  0
 22 23  1  0
 13 24  2  0
  8 25  1  0
 25 26  1  0
 26 27  2  0
 27 28  1  0
 28 29  2  0
 29 30  1  0
 29 31  1  0
 31 32  2  0
 25 33  1  0
 33  6  2  0
 24  9  1  0
 32 26  1  0
 23 18  1  0
  1 34  1  0
  1 35  1  0
  1 36  1  0
  2 37  1  0
  2 38  1  0
  7 39  1  0
 10 40  1  0
 11 41  1  0
 12 42  1  0
 17 43  1  0
 18 44  1  0
 19 45  1  0
 19 46  1  0
 20 47  1  0
 20 48  1  0
 21 49  1  0
 21 50  1  0
 22 51  1  0
 22 52  1  0
 23 53  1  0
 23 54  1  0
 24 55  1  0
 27 56  1  0
 28 57  1  0
 30 58  1  0
 30 59  1  0
 30 60  1  0
 31 61  1  0
 32 62  1  0
M  END
$$$$
