
     RDKit          3D

 51 55  0  0  0  0  0  0  0  0999 V2000
    7.6720   -0.0408    1.2860 C   0  0  0  0  0  0  0  0  0  0  0  0
    6.5638    0.0489    0.3070 C   0  0  0  0  0  0  0  0  0  0  0  0
    6.5821    0.0055   -1.0565 C   0  0  0  0  0  0  0  0  0  0  0  0
    5.2831    0.1321   -1.5021 C   0  0  0  0  0  0  0  0  0  0  0  0
    4.7108    0.1573   -2.7117 N   0  0  0  0  0  0  0  0  0  0  0  0
    3.3860    0.2948   -2.8960 C   0  0  0  0  0  0  0  0  0  0  0  0
    2.5604    0.4172   -1.7990 C   0  0  0  0  0  0  0  0  0  0  0  0
    3.1491    0.3910   -0.5605 C   0  0  0  0  0  0  0  0  0  0  0  0
    4.4989    0.2496   -0.4159 N   0  0  0  0  0  0  0  0  0  0  0  0
    5.2628    0.1995    0.6473 N   0  0  0  0  0  0  0  0  0  0  0  0
    2.1254    0.5349    0.4739 C   0  0  0  0  0  0  0  0  0  0  0  0
    0.9899    1.0549   -0.2629 N   0  0  0  0  0  0  0  0  0  0  0  0
   -0.2468    0.8851    0.3953 C   0  0  1  0  0  0  0  0  0  0  0  0
   -1.3922    1.4647   -0.4020 C   0  0  0  0  0  0  0  0  0  0  0  0
   -2.3127    0.4509   -0.9910 C   0  0  0  0  0  0  0  0  0  0  0  0
   -2.7959   -0.5478    0.0080 C   0  0  2  0  0  0  0  0  0  0  0  0
   -4.2453   -0.4757    0.2559 C   0  0  0  0  0  0  0  0  0  0  0  0
   -4.8228    0.3147    1.2245 C   0  0  0  0  0  0  0  0  0  0  0  0
   -6.2026    0.3239    1.3917 C   0  0  0  0  0  0  0  0  0  0  0  0
   -6.7761    1.1125    2.3582 F   0  0  0  0  0  0  0  0  0  0  0  0
   -7.0165   -0.4491    0.6011 C   0  0  0  0  0  0  0  0  0  0  0  0
   -6.4690   -1.2399   -0.3646 C   0  0  0  0  0  0  0  0  0  0  0  0
   -5.0922   -1.2385   -0.5194 C   0  0  0  0  0  0  0  0  0  0  0  0
   -4.5565   -2.0278   -1.4822 F   0  0  0  0  0  0  0  0  0  0  0  0
   -2.0075   -0.5337    1.3067 C   0  0  1  0  0  0  0  0  0  0  0  0
   -2.2330   -1.7981    1.9880 N   0  0  0  0  0  0  0  0  0  0  0  0
   -0.5340   -0.5089    0.8759 C   0  0  0  0  0  0  0  0  0  0  0  0
    1.1034    0.5796   -1.5965 C   0  0  0  0  0  0  0  0  0  0  0  0
    7.4595   -0.7327    2.1209 H   0  0  0  0  0  0  0  0  0  0  0  0
    7.8330    0.9589    1.7273 H   0  0  0  0  0  0  0  0  0  0  0  0
    8.6062   -0.3371    0.7674 H   0  0  0  0  0  0  0  0  0  0  0  0
    7.4590   -0.1078   -1.6778 H   0  0  0  0  0  0  0  0  0  0  0  0
    2.9588    0.3107   -3.8976 H   0  0  0  0  0  0  0  0  0  0  0  0
    2.4477    1.2991    1.2017 H   0  0  0  0  0  0  0  0  0  0  0  0
    1.9008   -0.4322    0.9443 H   0  0  0  0  0  0  0  0  0  0  0  0
   -0.1972    1.5169    1.3356 H   0  0  0  0  0  0  0  0  0  0  0  0
   -0.9340    2.0373   -1.2639 H   0  0  0  0  0  0  0  0  0  0  0  0
   -1.9472    2.2612    0.1594 H   0  0  0  0  0  0  0  0  0  0  0  0
   -1.8295   -0.0046   -1.8776 H   0  0  0  0  0  0  0  0  0  0  0  0
   -3.1791    1.0253   -1.4128 H   0  0  0  0  0  0  0  0  0  0  0  0
   -2.5782   -1.5657   -0.4359 H   0  0  0  0  0  0  0  0  0  0  0  0
   -4.1886    0.9278    1.8523 H   0  0  0  0  0  0  0  0  0  0  0  0
   -8.1039   -0.4498    0.7237 H   0  0  0  0  0  0  0  0  0  0  0  0
   -7.0747   -1.8644   -1.0093 H   0  0  0  0  0  0  0  0  0  0  0  0
   -2.2497    0.3186    1.9466 H   0  0  0  0  0  0  0  0  0  0  0  0
   -1.3996   -2.1139    2.5166 H   0  0  0  0  0  0  0  0  0  0  0  0
   -3.1072   -1.7693    2.5673 H   0  0  0  0  0  0  0  0  0  0  0  0
   -0.3938   -1.2914    0.1397 H   0  0  0  0  0  0  0  0  0  0  0  0
    0.0474   -0.7703    1.7837 H   0  0  0  0  0  0  0  0  0  0  0  0
    0.7493    1.3643   -2.2968 H   0  0  0  0  0  0  0  0  0  0  0  0
    0.5361   -0.3377   -1.8206 H   0  0  0  0  0  0  0  0  0  0  0  0
  1  2  1  0
  2  3  1  0
  3  4  2  0
  4  5  1  0
  5  6  2  0
  6  7  1  0
  7  8  2  0
  8  9  1  0
  9 10  1  0
  8 11  1  0
 11 12  1  0
 12 13  1  0
 13 14  1  0
 14 15  1  0
 15 16  1  0
 16 17  1  0
 17 18  2  0
 18 19  1  0
 19 20  1  0
 19 21  2  0
 21 22  1  0
 22 23  2  0
 23 24  1  0
 16 25  1  0
 25 26  1  0
 25 27  1  0
 12 28  1  0
 10  2  2  0
 27 13  1  0
  9  4  1  0
 23 17  1  0
 28  7  1  0
  1 29  1  0
  1 30  1  0
  1 31  1  0
  3 32  1  0
  6 33  1  0
 11 34  1  0
 11 35  1  0
 13 36  1  1
 14 37  1  0
 14 38  1  0
 15 39  1  0
 15 40  1  0
 16 41  1  6
 18 42  1  0
 21 43  1  0
 22 44  1  0
 25 45  1  1
 26 46  1  0
 26 47  1  0
 27 48  1  0
 27 49  1  0
 28 50  1  0
 28 51  1  0
M  END
$$$$
