
     RDKit          3D

 71 78  0  0  0  0  0  0  0  0999 V2000
    8.9312    0.6094   -0.6909 C   0  0  0  0  0  0  0  0  0  0  0  0
    8.2504    0.2372    0.5960 C   0  0  0  0  0  0  0  0  0  0  0  0
    6.7668    0.0142    0.3630 C   0  0  0  0  0  0  0  0  0  0  0  0
    6.1202    1.2566   -0.1714 C   0  0  0  0  0  0  0  0  0  0  0  0
    4.6394    1.0723   -0.4196 C   0  0  0  0  0  0  0  0  0  0  0  0
    3.9116    0.7109    0.8336 C   0  0  0  0  0  0  0  0  0  0  0  0
    2.5354    0.5516    0.5851 O   0  0  0  0  0  0  0  0  0  0  0  0
    1.9730   -0.3723   -0.2658 C   0  0  0  0  0  0  0  0  0  0  0  0
    2.7401   -1.1496   -0.8797 O   0  0  0  0  0  0  0  0  0  0  0  0
    0.4998   -0.4116   -0.4212 C   0  0  2  0  0  0  0  0  0  0  0  0
    0.2082   -1.4258   -1.3284 O   0  0  0  0  0  0  0  0  0  0  0  0
    0.0754    0.8820   -1.0787 C   0  0  0  0  0  0  0  0  0  0  0  0
   -0.6667    1.5660    0.0384 C   0  0  2  0  0  0  0  0  0  0  0  0
   -0.5028    0.8525    1.1712 O   0  0  0  0  0  0  0  0  0  0  0  0
   -0.2225   -0.5058    0.8602 C   0  0  2  0  0  0  0  0  0  0  0  0
    0.6288   -0.8999    2.0361 C   0  0  0  0  0  0  0  0  0  0  0  0
   -1.5037   -1.1796    0.7897 N   0  0  0  0  0  0  0  0  0  0  0  0
   -1.7835   -2.4507    1.1318 C   0  0  0  0  0  0  0  0  0  0  0  0
   -0.9966   -3.4836    1.5936 C   0  0  0  0  0  0  0  0  0  0  0  0
   -1.5225   -4.7232    1.8718 C   0  0  0  0  0  0  0  0  0  0  0  0
   -2.8849   -4.9885    1.6959 C   0  0  0  0  0  0  0  0  0  0  0  0
   -3.6782   -3.9595    1.2331 C   0  0  0  0  0  0  0  0  0  0  0  0
   -3.1331   -2.7250    0.9602 C   0  0  0  0  0  0  0  0  0  0  0  0
   -3.6982   -1.5865    0.4951 C   0  0  0  0  0  0  0  0  0  0  0  0
   -4.9839   -1.1826    0.1180 C   0  0  0  0  0  0  0  0  0  0  0  0
   -5.2681    0.0916   -0.3421 C   0  0  0  0  0  0  0  0  0  0  0  0
   -4.2415    1.0036   -0.4344 C   0  0  0  0  0  0  0  0  0  0  0  0
   -4.1375    2.3059   -0.8434 C   0  0  0  0  0  0  0  0  0  0  0  0
   -5.0197    3.2423   -1.3186 C   0  0  0  0  0  0  0  0  0  0  0  0
   -4.6266    4.5418   -1.6725 C   0  0  0  0  0  0  0  0  0  0  0  0
   -3.3014    4.8705   -1.5305 C   0  0  0  0  0  0  0  0  0  0  0  0
   -2.4057    3.9404   -1.0548 C   0  0  0  0  0  0  0  0  0  0  0  0
   -2.7970    2.6666   -0.7090 C   0  0  0  0  0  0  0  0  0  0  0  0
   -2.1011    1.6259   -0.2345 N   0  0  0  0  0  0  0  0  0  0  0  0
   -2.9575    0.6130   -0.0612 C   0  0  0  0  0  0  0  0  0  0  0  0
   -2.7140   -0.6672    0.3951 C   0  0  0  0  0  0  0  0  0  0  0  0
   -6.6851    0.1879   -0.6455 C   0  0  0  0  0  0  0  0  0  0  0  0
   -7.3985    1.1122   -1.0768 O   0  0  0  0  0  0  0  0  0  0  0  0
   -7.2408   -1.0969   -0.3438 N   0  0  0  0  0  0  0  0  0  0  0  0
   -6.2168   -1.9828    0.1339 C   0  0  0  0  0  0  0  0  0  0  0  0
    9.8766    0.0294   -0.8175 H   0  0  0  0  0  0  0  0  0  0  0  0
    9.1734    1.6866   -0.7300 H   0  0  0  0  0  0  0  0  0  0  0  0
    8.2819    0.3558   -1.5725 H   0  0  0  0  0  0  0  0  0  0  0  0
    8.7010   -0.7135    0.9621 H   0  0  0  0  0  0  0  0  0  0  0  0
    8.3670    0.9886    1.3815 H   0  0  0  0  0  0  0  0  0  0  0  0
    6.6548   -0.8460   -0.3224 H   0  0  0  0  0  0  0  0  0  0  0  0
    6.2946   -0.2427    1.3518 H   0  0  0  0  0  0  0  0  0  0  0  0
    6.5776    1.4742   -1.1797 H   0  0  0  0  0  0  0  0  0  0  0  0
    6.3508    2.1229    0.4534 H   0  0  0  0  0  0  0  0  0  0  0  0
    4.5414    0.2536   -1.1492 H   0  0  0  0  0  0  0  0  0  0  0  0
    4.2472    2.0395   -0.8405 H   0  0  0  0  0  0  0  0  0  0  0  0
    4.0845    1.4191    1.6636 H   0  0  0  0  0  0  0  0  0  0  0  0
    4.2785   -0.3174    1.1296 H   0  0  0  0  0  0  0  0  0  0  0  0
    0.8409   -2.1773   -1.2002 H   0  0  0  0  0  0  0  0  0  0  0  0
   -0.6429    0.7115   -1.9038 H   0  0  0  0  0  0  0  0  0  0  0  0
    0.9358    1.4734   -1.4472 H   0  0  0  0  0  0  0  0  0  0  0  0
   -0.2904    2.6048    0.1075 H   0  0  0  0  0  0  0  0  0  0  0  0
    0.0145   -1.2879    2.8392 H   0  0  0  0  0  0  0  0  0  0  0  0
    1.4824   -1.5509    1.8185 H   0  0  0  0  0  0  0  0  0  0  0  0
    1.1297    0.0293    2.4707 H   0  0  0  0  0  0  0  0  0  0  0  0
    0.0502   -3.3308    1.7292 H   0  0  0  0  0  0  0  0  0  0  0  0
   -0.8807   -5.4910    2.2263 H   0  0  0  0  0  0  0  0  0  0  0  0
   -3.3140   -5.9546    1.9092 H   0  0  0  0  0  0  0  0  0  0  0  0
   -4.7461   -4.1585    1.0922 H   0  0  0  0  0  0  0  0  0  0  0  0
   -6.0509    2.9731   -1.4242 H   0  0  0  0  0  0  0  0  0  0  0  0
   -5.3825    5.1965   -2.0309 H   0  0  0  0  0  0  0  0  0  0  0  0
   -2.9713    5.8810   -1.8011 H   0  0  0  0  0  0  0  0  0  0  0  0
   -1.3598    4.1923   -0.9403 H   0  0  0  0  0  0  0  0  0  0  0  0
   -8.2641   -1.3527   -0.4587 H   0  0  0  0  0  0  0  0  0  0  0  0
   -6.1703   -2.8557   -0.5580 H   0  0  0  0  0  0  0  0  0  0  0  0
   -6.4023   -2.3159    1.1850 H   0  0  0  0  0  0  0  0  0  0  0  0
  1  2  1  0
  2  3  1  0
  3  4  1  0
  4  5  1  0
  5  6  1  0
  6  7  1  0
  7  8  1  0
  8  9  2  0
  8 10  1  0
 10 11  1  6
 10 12  1  0
 12 13  1  0
 13 14  1  0
 14 15  1  0
 15 16  1  1
 15 17  1  0
 17 18  1  0
 18 19  2  0
 19 20  1  0
 20 21  2  0
 21 22  1  0
 22 23  2  0
 23 24  1  0
 24 25  2  0
 25 26  1  0
 26 27  2  0
 27 28  1  0
 28 29  2  0
 29 30  1  0
 30 31  2  0
 31 32  1  0
 32 33  2  0
 33 34  1  0
 34 35  1  0
 35 36  2  0
 26 37  1  0
 37 38  2  0
 37 39  1  0
 39 40  1  0
 15 10  1  0
 36 17  1  0
 34 13  1  0
 23 18  1  0
 36 24  1  0
 40 25  1  0
 35 27  1  0
 33 28  1  0
  1 41  1  0
  1 42  1  0
  1 43  1  0
  2 44  1  0
  2 45  1  0
  3 46  1  0
  3 47  1  0
  4 48  1  0
  4 49  1  0
  5 50  1  0
  5 51  1  0
  6 52  1  0
  6 53  1  0
 11 54  1  0
 12 55  1  0
 12 56  1  0
 13 57  1  1
 16 58  1  0
 16 59  1  0
 16 60  1  0
 19 61  1  0
 20 62  1  0
 21 63  1  0
 22 64  1  0
 29 65  1  0
 30 66  1  0
 31 67  1  0
 32 68  1  0
 39 69  1  0
 40 70  1  0
 40 71  1  0
M  END
$$$$
