
     RDKit          3D

 25 25  0  0  0  0  0  0  0  0999 V2000
   -2.7125    1.0737    0.5806 C   0  0  0  0  0  0  0  0  0  0  0  0
   -1.3849    0.6237    0.0159 C   0  0  2  0  0  0  0  0  0  0  0  0
   -1.5457   -0.4629   -0.9943 C   0  0  0  0  0  0  0  0  0  0  0  0
   -0.4793   -1.5134   -0.9837 C   0  0  0  0  0  0  0  0  0  0  0  0
    0.8806   -1.0474   -0.5968 C   0  0  0  0  0  0  0  0  0  0  0  0
    0.8484   -0.0237    0.4441 N   0  0  0  0  0  0  0  0  0  0  0  0
   -0.3978    0.2613    1.1206 C   0  0  0  0  0  0  0  0  0  0  0  0
    2.0442    0.6730    0.7721 C   0  0  0  0  0  0  0  0  0  0  0  0
    3.3076    0.3699    0.0720 C   0  0  0  0  0  0  0  0  0  0  0  0
    2.0205    1.5694    1.6823 O   0  0  0  0  0  0  0  0  0  0  0  0
   -2.6320    1.4154    1.6298 H   0  0  0  0  0  0  0  0  0  0  0  0
   -3.4283    0.2258    0.4690 H   0  0  0  0  0  0  0  0  0  0  0  0
   -3.0962    1.8787   -0.0915 H   0  0  0  0  0  0  0  0  0  0  0  0
   -0.9083    1.5023   -0.5082 H   0  0  0  0  0  0  0  0  0  0  0  0
   -1.6545   -0.0406   -2.0142 H   0  0  0  0  0  0  0  0  0  0  0  0
   -2.5183   -0.9996   -0.7993 H   0  0  0  0  0  0  0  0  0  0  0  0
   -0.4057   -1.9181   -2.0350 H   0  0  0  0  0  0  0  0  0  0  0  0
   -0.7741   -2.3852   -0.3602 H   0  0  0  0  0  0  0  0  0  0  0  0
    1.4285   -1.9387   -0.1723 H   0  0  0  0  0  0  0  0  0  0  0  0
    1.4932   -0.7107   -1.4468 H   0  0  0  0  0  0  0  0  0  0  0  0
   -0.7569   -0.6083    1.7095 H   0  0  0  0  0  0  0  0  0  0  0  0
   -0.2718    1.1257    1.7728 H   0  0  0  0  0  0  0  0  0  0  0  0
    4.1468    0.4706    0.7901 H   0  0  0  0  0  0  0  0  0  0  0  0
    3.3413   -0.6555   -0.3174 H   0  0  0  0  0  0  0  0  0  0  0  0
    3.4553    1.1147   -0.7390 H   0  0  0  0  0  0  0  0  0  0  0  0
  1  2  1  0
  2  3  1  0
  3  4  1  0
  4  5  1  0
  5  6  1  0
  6  7  1  0
  6  8  1  0
  8  9  1  0
  8 10  2  0
  7  2  1  0
  1 11  1  0
  1 12  1  0
  1 13  1  0
  2 14  1  6
  3 15  1  0
  3 16  1  0
  4 17  1  0
  4 18  1  0
  5 19  1  0
  5 20  1  0
  7 21  1  0
  7 22  1  0
  9 23  1  0
  9 24  1  0
  9 25  1  0
M  END
$$$$
