
     RDKit          3D

 48 50  0  0  0  0  0  0  0  0999 V2000
   -5.8413   -0.7863   -0.7574 O   0  0  0  0  0  0  0  0  0  0  0  0
   -4.9519   -1.7871   -0.3935 C   0  0  0  0  0  0  0  0  0  0  0  0
   -6.0733   -2.3593   -0.3693 O   0  0  0  0  0  0  0  0  0  0  0  0
   -3.7085   -2.5286   -0.0565 C   0  0  0  0  0  0  0  0  0  0  0  0
   -3.1238   -1.8600    1.1276 C   0  0  0  0  0  0  0  0  0  0  0  0
   -1.9212   -1.0048    0.9022 C   0  0  0  0  0  0  0  0  0  0  0  0
   -2.0037   -0.5034   -0.4565 N   0  0  0  0  0  0  0  0  0  0  0  0
   -1.9965   -1.4269   -1.5754 C   0  0  0  0  0  0  0  0  0  0  0  0
   -2.8664   -2.5812   -1.2671 C   0  0  0  0  0  0  0  0  0  0  0  0
   -2.0813    0.9020   -0.5952 C   0  0  0  0  0  0  0  0  0  0  0  0
   -1.1076    1.7534   -0.1223 C   0  0  0  0  0  0  0  0  0  0  0  0
    0.1124    1.2949    0.5160 N   0  0  0  0  0  0  0  0  0  0  0  0
    1.2512    1.1877   -0.3986 C   0  0  0  0  0  0  0  0  0  0  0  0
    1.2609    1.4456   -1.6070 O   0  0  0  0  0  0  0  0  0  0  0  0
    2.1297    0.7381    0.6015 N   0  0  0  0  0  0  0  0  0  0  0  0
    3.4941    0.5744   -0.0011 C   0  0  0  0  0  0  0  0  0  0  0  0
    3.7056    0.7953   -1.2542 O   0  0  0  0  0  0  0  0  0  0  0  0
    4.8918    0.2057    0.3533 C   0  0  0  0  0  0  0  0  0  0  0  0
    5.8234    1.2239    0.4381 C   0  0  0  0  0  0  0  0  0  0  0  0
    7.1266    0.9702    0.8118 C   0  0  0  0  0  0  0  0  0  0  0  0
    8.0688    1.9320    0.9096 F   0  0  0  0  0  0  0  0  0  0  0  0
    7.3874   -0.3423    1.0782 C   0  0  0  0  0  0  0  0  0  0  0  0
    8.6497   -0.6862    1.4566 F   0  0  0  0  0  0  0  0  0  0  0  0
    6.5318   -1.4480    1.0246 C   0  0  0  0  0  0  0  0  0  0  0  0
    5.2325   -1.1237    0.6407 C   0  0  0  0  0  0  0  0  0  0  0  0
    4.0324   -2.3961    0.5160 Cl  0  0  0  0  0  0  0  0  0  0  0  0
   -1.1753    3.1331   -0.2418 C   0  0  0  0  0  0  0  0  0  0  0  0
   -2.2351    3.7513   -0.8501 C   0  0  0  0  0  0  0  0  0  0  0  0
   -2.3312    5.0877   -0.9837 F   0  0  0  0  0  0  0  0  0  0  0  0
   -3.2514    2.9275   -1.3480 C   0  0  0  0  0  0  0  0  0  0  0  0
   -3.1179    1.5693   -1.1931 C   0  0  0  0  0  0  0  0  0  0  0  0
   -5.8618    0.0857   -0.2307 H   0  0  0  0  0  0  0  0  0  0  0  0
   -4.0283   -3.5703    0.2252 H   0  0  0  0  0  0  0  0  0  0  0  0
   -3.8879   -1.2836    1.7305 H   0  0  0  0  0  0  0  0  0  0  0  0
   -2.7951   -2.6580    1.8560 H   0  0  0  0  0  0  0  0  0  0  0  0
   -0.9917   -1.5859    0.9729 H   0  0  0  0  0  0  0  0  0  0  0  0
   -1.9560   -0.1882    1.6620 H   0  0  0  0  0  0  0  0  0  0  0  0
   -0.9558   -1.7320   -1.8387 H   0  0  0  0  0  0  0  0  0  0  0  0
   -2.4113   -0.9066   -2.4919 H   0  0  0  0  0  0  0  0  0  0  0  0
   -2.1746   -3.4715   -1.1331 H   0  0  0  0  0  0  0  0  0  0  0  0
   -3.4667   -2.8782   -2.1621 H   0  0  0  0  0  0  0  0  0  0  0  0
    0.0002    1.1031    1.5629 H   0  0  0  0  0  0  0  0  0  0  0  0
    2.7534    0.4192    1.3097 H   0  0  0  0  0  0  0  0  0  0  0  0
    5.5056    2.2326    0.1969 H   0  0  0  0  0  0  0  0  0  0  0  0
    6.8466   -2.4354    1.2632 H   0  0  0  0  0  0  0  0  0  0  0  0
   -0.4275    3.8237    0.1234 H   0  0  0  0  0  0  0  0  0  0  0  0
   -4.0976    3.3847   -1.8368 H   0  0  0  0  0  0  0  0  0  0  0  0
   -3.9634    1.0028   -1.6107 H   0  0  0  0  0  0  0  0  0  0  0  0
  1  2  1  0
  2  3  2  0
  2  4  1  0
  4  5  1  0
  5  6  1  0
  6  7  1  0
  7  8  1  0
  8  9  1  0
  7 10  1  0
 10 11  1  0
 11 12  1  0
 12 13  1  0
 13 14  2  0
 13 15  1  0
 15 16  1  0
 16 17  2  0
 16 18  1  0
 18 19  2  0
 19 20  1  0
 20 21  1  0
 20 22  2  0
 22 23  1  0
 22 24  1  0
 24 25  2  0
 25 26  1  0
 11 27  2  0
 27 28  1  0
 28 29  1  0
 28 30  2  0
 30 31  1  0
  9  4  1  0
 31 10  2  0
 25 18  1  0
  1 32  1  0
  4 33  1  0
  5 34  1  0
  5 35  1  0
  6 36  1  0
  6 37  1  0
  8 38  1  0
  8 39  1  0
  9 40  1  0
  9 41  1  0
 12 42  1  0
 15 43  1  0
 19 44  1  0
 24 45  1  0
 27 46  1  0
 30 47  1  0
 31 48  1  0
M  END
$$$$
