
     RDKit          3D

 16 16  0  0  0  0  0  0  0  0999 V2000
    2.6576    0.8742   -0.3313 O   0  0  0  0  0  0  0  0  0  0  0  0
    2.0060   -0.2722    0.1473 C   0  0  0  0  0  0  0  0  0  0  0  0
    2.6955   -1.2332    0.5508 O   0  0  0  0  0  0  0  0  0  0  0  0
    0.5304   -0.2086    0.1179 C   0  0  0  0  0  0  0  0  0  0  0  0
   -0.0887   -1.3636    0.6002 C   0  0  0  0  0  0  0  0  0  0  0  0
   -1.4733   -1.4164    0.6197 C   0  0  0  0  0  0  0  0  0  0  0  0
   -2.1751   -0.3146    0.1572 C   0  0  0  0  0  0  0  0  0  0  0  0
   -1.5647    0.8276   -0.3198 C   0  0  0  0  0  0  0  0  0  0  0  0
   -0.1856    0.8767   -0.3377 C   0  0  0  0  0  0  0  0  0  0  0  0
    0.5239    1.9860   -0.8007 O   0  0  0  0  0  0  0  0  0  0  0  0
    3.6312    0.9835   -0.0161 H   0  0  0  0  0  0  0  0  0  0  0  0
    0.4328   -2.2244    0.9615 H   0  0  0  0  0  0  0  0  0  0  0  0
   -2.0877   -2.2231    0.9562 H   0  0  0  0  0  0  0  0  0  0  0  0
   -3.2727   -0.2782    0.1399 H   0  0  0  0  0  0  0  0  0  0  0  0
   -2.1259    1.6823   -0.6785 H   0  0  0  0  0  0  0  0  0  0  0  0
    0.4963    2.3041   -1.7665 H   0  0  0  0  0  0  0  0  0  0  0  0
  1  2  1  0
  2  3  2  0
  2  4  1  0
  4  5  2  0
  5  6  1  0
  6  7  2  0
  7  8  1  0
  8  9  2  0
  9 10  1  0
  9  4  1  0
  1 11  1  0
  5 12  1  0
  6 13  1  0
  7 14  1  0
  8 15  1  0
 10 16  1  0
M  END
$$$$
