
     RDKit          3D

 61 65  0  0  0  0  0  0  0  0999 V2000
    9.3072   -1.4067   -0.1458 C   0  0  0  0  0  0  0  0  0  0  0  0
    8.1417   -1.8948    0.4487 O   0  0  0  0  0  0  0  0  0  0  0  0
    6.9521   -1.2033    0.2706 C   0  0  0  0  0  0  0  0  0  0  0  0
    5.8017   -1.6607    0.8415 C   0  0  0  0  0  0  0  0  0  0  0  0
    4.5815   -0.9973    0.6889 C   0  0  0  0  0  0  0  0  0  0  0  0
    3.4195   -1.5204    1.2944 N   0  0  0  0  0  0  0  0  0  0  0  0
    2.1939   -0.7881    1.1688 C   0  0  0  0  0  0  0  0  0  0  0  0
    1.8134    0.0689    2.1232 N   0  0  0  0  0  0  0  0  0  0  0  0
    0.7032    0.7861    2.0836 C   0  0  0  0  0  0  0  0  0  0  0  0
   -0.1386    0.6242    0.9348 C   0  0  0  0  0  0  0  0  0  0  0  0
   -1.1284    1.6670    0.7183 C   0  0  0  0  0  0  0  0  0  0  0  0
   -1.5972    2.0642   -0.4998 C   0  0  0  0  0  0  0  0  0  0  0  0
   -2.4081    3.1760   -0.6962 C   0  0  0  0  0  0  0  0  0  0  0  0
   -2.7526    3.9162    0.4104 C   0  0  0  0  0  0  0  0  0  0  0  0
   -3.5696    5.0386    0.2465 C   0  0  0  0  0  0  0  0  0  0  0  0
   -3.8779    5.7350    1.4081 C   0  0  0  0  0  0  0  0  0  0  0  0
   -3.4351    5.3829    2.6498 C   0  0  0  0  0  0  0  0  0  0  0  0
   -2.6333    4.2708    2.7628 C   0  0  0  0  0  0  0  0  0  0  0  0
   -2.2882    3.5271    1.6207 C   0  0  0  0  0  0  0  0  0  0  0  0
   -1.5012    2.4377    1.7684 N   0  0  0  0  0  0  0  0  0  0  0  0
    0.2097   -0.2324   -0.0260 C   0  0  0  0  0  0  0  0  0  0  0  0
   -0.6525   -0.7894   -0.9939 N   0  0  0  0  0  0  0  0  0  0  0  0
   -2.0664   -0.9620   -0.8778 C   0  0  2  0  0  0  0  0  0  0  0  0
   -2.3470   -2.2044    0.0300 C   0  0  0  0  0  0  0  0  0  0  0  0
   -3.6527   -2.6537   -0.5803 C   0  0  2  0  0  0  0  0  0  0  0  0
   -4.0720   -4.0203   -0.1012 C   0  0  0  0  0  0  0  0  0  0  0  0
   -3.1370   -4.9885   -0.4175 O   0  0  0  0  0  0  0  0  0  0  0  0
   -3.2668   -2.6707   -2.0504 C   0  0  1  0  0  0  0  0  0  0  0  0
   -4.3842   -2.8559   -2.8631 O   0  0  0  0  0  0  0  0  0  0  0  0
   -2.6877   -1.2825   -2.2034 C   0  0  1  0  0  0  0  0  0  0  0  0
   -3.7885   -0.4106   -2.3689 O   0  0  0  0  0  0  0  0  0  0  0  0
    1.4006   -0.9365    0.1068 N   0  0  0  0  0  0  0  0  0  0  0  0
    4.5685    0.1509   -0.0658 C   0  0  0  0  0  0  0  0  0  0  0  0
    5.7483    0.5965   -0.6358 C   0  0  0  0  0  0  0  0  0  0  0  0
    6.9116   -0.0640   -0.4718 N   0  0  0  0  0  0  0  0  0  0  0  0
   10.1762   -2.1052    0.0118 H   0  0  0  0  0  0  0  0  0  0  0  0
    9.2276   -1.2933   -1.2407 H   0  0  0  0  0  0  0  0  0  0  0  0
    9.6059   -0.4598    0.3685 H   0  0  0  0  0  0  0  0  0  0  0  0
    5.8256   -2.5744    1.4385 H   0  0  0  0  0  0  0  0  0  0  0  0
    3.4227   -2.4074    1.8219 H   0  0  0  0  0  0  0  0  0  0  0  0
    0.3872    1.4726    2.8393 H   0  0  0  0  0  0  0  0  0  0  0  0
   -1.3109    1.5283   -1.4122 H   0  0  0  0  0  0  0  0  0  0  0  0
   -2.7764    3.4859   -1.6522 H   0  0  0  0  0  0  0  0  0  0  0  0
   -3.9235    5.3239   -0.7262 H   0  0  0  0  0  0  0  0  0  0  0  0
   -4.5104    6.6076    1.2933 H   0  0  0  0  0  0  0  0  0  0  0  0
   -3.6859    5.9372    3.5527 H   0  0  0  0  0  0  0  0  0  0  0  0
   -2.2438    3.9287    3.7128 H   0  0  0  0  0  0  0  0  0  0  0  0
   -0.2230   -1.1229   -1.9201 H   0  0  0  0  0  0  0  0  0  0  0  0
   -2.6185   -0.1758   -0.3480 H   0  0  0  0  0  0  0  0  0  0  0  0
   -2.4284   -1.9063    1.0750 H   0  0  0  0  0  0  0  0  0  0  0  0
   -1.5733   -2.9488   -0.1847 H   0  0  0  0  0  0  0  0  0  0  0  0
   -4.4418   -1.9216   -0.3632 H   0  0  0  0  0  0  0  0  0  0  0  0
   -4.2329   -3.9321    1.0017 H   0  0  0  0  0  0  0  0  0  0  0  0
   -5.0322   -4.2691   -0.5541 H   0  0  0  0  0  0  0  0  0  0  0  0
   -2.4323   -5.0501    0.2500 H   0  0  0  0  0  0  0  0  0  0  0  0
   -2.4897   -3.4224   -2.2122 H   0  0  0  0  0  0  0  0  0  0  0  0
   -4.7483   -1.9316   -3.0503 H   0  0  0  0  0  0  0  0  0  0  0  0
   -1.9961   -1.2068   -3.0655 H   0  0  0  0  0  0  0  0  0  0  0  0
   -3.7303    0.3475   -1.7176 H   0  0  0  0  0  0  0  0  0  0  0  0
    3.6486    0.6895   -0.2075 H   0  0  0  0  0  0  0  0  0  0  0  0
    5.7357    1.5066   -1.2341 H   0  0  0  0  0  0  0  0  0  0  0  0
  1  2  1  0
  2  3  1  0
  3  4  2  0
  4  5  1  0
  5  6  1  0
  6  7  1  0
  7  8  2  0
  8  9  1  0
  9 10  2  0
 10 11  1  0
 11 12  2  0
 12 13  1  0
 13 14  2  0
 14 15  1  0
 15 16  2  0
 16 17  1  0
 17 18  2  0
 18 19  1  0
 19 20  2  0
 10 21  1  0
 21 22  1  0
 22 23  1  0
 23 24  1  0
 24 25  1  0
 25 26  1  0
 26 27  1  0
 25 28  1  0
 28 29  1  0
 28 30  1  0
 30 31  1  0
 21 32  2  0
  5 33  2  0
 33 34  1  0
 34 35  2  0
 35  3  1  0
 32  7  1  0
 20 11  1  0
 30 23  1  0
 19 14  1  0
  1 36  1  0
  1 37  1  0
  1 38  1  0
  4 39  1  0
  6 40  1  0
  9 41  1  0
 12 42  1  0
 13 43  1  0
 15 44  1  0
 16 45  1  0
 17 46  1  0
 18 47  1  0
 22 48  1  0
 23 49  1  1
 24 50  1  0
 24 51  1  0
 25 52  1  6
 26 53  1  0
 26 54  1  0
 27 55  1  0
 28 56  1  1
 29 57  1  0
 30 58  1  6
 31 59  1  0
 33 60  1  0
 34 61  1  0
M  END
$$$$
