
     RDKit          3D

 50 54  0  0  0  0  0  0  0  0999 V2000
    3.1115   -3.0911   -0.5341 O   0  0  0  0  0  0  0  0  0  0  0  0
    3.4814   -1.9311   -0.1748 C   0  0  0  0  0  0  0  0  0  0  0  0
    2.5741   -0.8836   -0.2798 N   0  0  0  0  0  0  0  0  0  0  0  0
    1.2370   -0.9126   -0.7483 C   0  0  0  0  0  0  0  0  0  0  0  0
    0.6048   -2.0324   -1.1905 C   0  0  0  0  0  0  0  0  0  0  0  0
   -0.7323   -2.0128   -1.6493 C   0  0  0  0  0  0  0  0  0  0  0  0
   -1.3772   -0.8209   -1.6346 C   0  0  0  0  0  0  0  0  0  0  0  0
   -0.8037    0.3580   -1.2008 C   0  0  0  0  0  0  0  0  0  0  0  0
   -1.5107    1.6314   -1.1912 C   0  0  0  0  0  0  0  0  0  0  0  0
   -0.9374    2.8032   -1.6456 C   0  0  0  0  0  0  0  0  0  0  0  0
   -1.6327    3.9921   -1.6233 C   0  0  0  0  0  0  0  0  0  0  0  0
   -2.9018    4.0054   -1.1457 N   0  0  0  0  0  0  0  0  0  0  0  0
   -3.4491    2.8499   -0.7045 C   0  0  0  0  0  0  0  0  0  0  0  0
   -4.7028    2.5365   -0.1665 C   0  0  0  0  0  0  0  0  0  0  0  0
   -4.7369    1.1927    0.1187 C   0  0  0  0  0  0  0  0  0  0  0  0
   -5.8719    0.4982    0.6889 C   0  0  0  0  0  0  0  0  0  0  0  0
   -7.0187    1.2000    0.9808 C   0  0  0  0  0  0  0  0  0  0  0  0
   -8.1143    0.5649    1.5240 C   0  0  0  0  0  0  0  0  0  0  0  0
   -8.0494   -0.7518    1.7661 N   0  0  0  0  0  0  0  0  0  0  0  0
   -6.9581   -1.4960    1.5039 C   0  0  0  0  0  0  0  0  0  0  0  0
   -5.8626   -0.8535    0.9591 C   0  0  0  0  0  0  0  0  0  0  0  0
   -3.5296    0.7110   -0.2407 N   0  0  0  0  0  0  0  0  0  0  0  0
   -2.7771    1.6849   -0.7228 N   0  0  0  0  0  0  0  0  0  0  0  0
    0.4952    0.2704   -0.7689 C   0  0  0  0  0  0  0  0  0  0  0  0
    4.8405   -1.7877    0.3241 C   0  0  0  0  0  0  0  0  0  0  0  0
    5.6865   -2.8978    0.3957 C   0  0  0  0  0  0  0  0  0  0  0  0
    6.9773   -2.7988    0.8621 C   0  0  0  0  0  0  0  0  0  0  0  0
    7.4815   -1.6001    1.2754 C   0  0  0  0  0  0  0  0  0  0  0  0
    6.6832   -0.5010    1.2181 C   0  0  0  0  0  0  0  0  0  0  0  0
    7.2267    0.8162    1.6687 C   0  0  0  0  0  0  0  0  0  0  0  0
    8.2494    1.2123    0.8247 F   0  0  0  0  0  0  0  0  0  0  0  0
    6.2072    1.7429    1.6213 F   0  0  0  0  0  0  0  0  0  0  0  0
    7.7572    0.6695    2.9213 F   0  0  0  0  0  0  0  0  0  0  0  0
    5.3655   -0.6017    0.7421 C   0  0  0  0  0  0  0  0  0  0  0  0
    2.9624    0.0723    0.0453 H   0  0  0  0  0  0  0  0  0  0  0  0
    1.1044   -2.9918   -1.2092 H   0  0  0  0  0  0  0  0  0  0  0  0
   -1.1631   -2.9487   -1.9852 H   0  0  0  0  0  0  0  0  0  0  0  0
   -2.3992   -0.7824   -1.9805 H   0  0  0  0  0  0  0  0  0  0  0  0
    0.0726    2.8127   -2.0298 H   0  0  0  0  0  0  0  0  0  0  0  0
   -1.2038    4.9301   -1.9757 H   0  0  0  0  0  0  0  0  0  0  0  0
   -5.4870    3.2677   -0.0178 H   0  0  0  0  0  0  0  0  0  0  0  0
   -7.0788    2.2835    0.7840 H   0  0  0  0  0  0  0  0  0  0  0  0
   -9.0135    1.1156    1.7528 H   0  0  0  0  0  0  0  0  0  0  0  0
   -6.9485   -2.5629    1.7163 H   0  0  0  0  0  0  0  0  0  0  0  0
   -4.9855   -1.4460    0.7472 H   0  0  0  0  0  0  0  0  0  0  0  0
    0.9598    1.1989   -0.4228 H   0  0  0  0  0  0  0  0  0  0  0  0
    5.2805   -3.8604    0.0634 H   0  0  0  0  0  0  0  0  0  0  0  0
    7.6014   -3.6753    0.9033 H   0  0  0  0  0  0  0  0  0  0  0  0
    8.5036   -1.4793    1.6531 H   0  0  0  0  0  0  0  0  0  0  0  0
    4.7819    0.2992    0.7197 H   0  0  0  0  0  0  0  0  0  0  0  0
  1  2  2  0
  2  3  1  0
  3  4  1  0
  4  5  2  0
  5  6  1  0
  6  7  2  0
  7  8  1  0
  8  9  1  0
  9 10  2  0
 10 11  1  0
 11 12  2  0
 12 13  1  0
 13 14  2  0
 14 15  1  0
 15 16  1  0
 16 17  2  0
 17 18  1  0
 18 19  2  0
 19 20  1  0
 20 21  2  0
 15 22  2  0
 22 23  1  0
  8 24  2  0
  2 25  1  0
 25 26  2  0
 26 27  1  0
 27 28  2  0
 28 29  1  0
 29 30  1  0
 30 31  1  0
 30 32  1  0
 30 33  1  0
 29 34  2  0
 24  4  1  0
 34 25  1  0
 23  9  1  0
 23 13  1  0
 21 16  1  0
  3 35  1  0
  5 36  1  0
  6 37  1  0
  7 38  1  0
 10 39  1  0
 11 40  1  0
 14 41  1  0
 17 42  1  0
 18 43  1  0
 20 44  1  0
 21 45  1  0
 24 46  1  0
 26 47  1  0
 27 48  1  0
 28 49  1  0
 34 50  1  0
M  END
$$$$
