
     RDKit          3D

 39 40  0  0  0  0  0  0  0  0999 V2000
   -0.5829   -1.4524    0.3526 O   0  0  0  0  0  0  0  0  0  0  0  0
   -0.3445   -0.3054   -0.0747 C   0  0  0  0  0  0  0  0  0  0  0  0
   -1.3709    0.5296   -0.5719 N   0  0  0  0  0  0  0  0  0  0  0  0
   -2.7469    0.0977   -0.6106 C   0  0  0  0  0  0  0  0  0  0  0  0
   -3.2482   -0.5554   -1.7228 C   0  0  0  0  0  0  0  0  0  0  0  0
   -4.5745   -0.9364   -1.6821 C   0  0  0  0  0  0  0  0  0  0  0  0
   -5.3445   -0.6574   -0.5507 C   0  0  0  0  0  0  0  0  0  0  0  0
   -4.8209   -0.0133    0.5265 C   0  0  0  0  0  0  0  0  0  0  0  0
   -5.7937    0.3331    1.9426 S   0  0  0  0  0  6  0  0  0  0  0  0
   -4.8943    0.3513    3.1627 O   0  0  0  0  0  0  0  0  0  0  0  0
   -6.8136   -0.7371    2.1612 O   0  0  0  0  0  0  0  0  0  0  0  0
   -6.5079    1.8253    1.7482 O   0  0  0  0  0  1  0  0  0  0  0  0
   -3.5056    0.3697    0.4976 C   0  0  0  0  0  0  0  0  0  0  0  0
    1.0526    0.1899   -0.0584 C   0  0  0  0  0  0  0  0  0  0  0  0
    1.4547    0.5072   -1.4844 C   0  0  0  0  0  0  0  0  0  0  0  0
    1.3532   -0.9172   -2.5803 S   0  0  0  0  0  0  0  0  0  0  0  0
    1.9865   -0.7667    0.6318 C   0  0  0  0  0  0  0  0  0  0  0  0
    3.3540   -0.2021    0.6218 C   0  0  0  0  0  0  0  0  0  0  0  0
    3.8029    0.6439    1.6141 C   0  0  0  0  0  0  0  0  0  0  0  0
    5.0815    1.1658    1.6126 C   0  0  0  0  0  0  0  0  0  0  0  0
    5.9285    0.8249    0.5828 C   0  0  0  0  0  0  0  0  0  0  0  0
    5.5230   -0.0177   -0.4309 C   0  0  0  0  0  0  0  0  0  0  0  0
    4.2183   -0.5269   -0.3941 C   0  0  0  0  0  0  0  0  0  0  0  0
   -1.1026    1.4780   -0.9142 H   0  0  0  0  0  0  0  0  0  0  0  0
   -2.6029   -0.7466   -2.5766 H   0  0  0  0  0  0  0  0  0  0  0  0
   -4.9848   -1.4463   -2.5377 H   0  0  0  0  0  0  0  0  0  0  0  0
   -6.3687   -0.9662   -0.5516 H   0  0  0  0  0  0  0  0  0  0  0  0
   -3.1130    0.8809    1.3681 H   0  0  0  0  0  0  0  0  0  0  0  0
    1.0717    1.1942    0.4691 H   0  0  0  0  0  0  0  0  0  0  0  0
    0.8438    1.3512   -1.8309 H   0  0  0  0  0  0  0  0  0  0  0  0
    2.5223    0.8645   -1.5181 H   0  0  0  0  0  0  0  0  0  0  0  0
    1.2401   -2.1246   -1.9042 H   0  0  0  0  0  0  0  0  0  0  0  0
    1.9531   -1.7673    0.1272 H   0  0  0  0  0  0  0  0  0  0  0  0
    1.7088   -0.9285    1.6824 H   0  0  0  0  0  0  0  0  0  0  0  0
    3.1178    0.8935    2.4080 H   0  0  0  0  0  0  0  0  0  0  0  0
    5.4542    1.8321    2.3825 H   0  0  0  0  0  0  0  0  0  0  0  0
    6.9400    1.2015    0.5270 H   0  0  0  0  0  0  0  0  0  0  0  0
    6.1629   -0.2905   -1.2318 H   0  0  0  0  0  0  0  0  0  0  0  0
    3.9504   -1.1764   -1.1929 H   0  0  0  0  0  0  0  0  0  0  0  0
  1  2  2  0
  2  3  1  0
  3  4  1  0
  4  5  2  0
  5  6  1  0
  6  7  2  0
  7  8  1  0
  8  9  1  0
  9 10  2  0
  9 11  2  0
  9 12  1  0
  8 13  2  0
  2 14  1  0
 14 15  1  0
 15 16  1  0
 14 17  1  0
 17 18  1  0
 18 19  2  0
 19 20  1  0
 20 21  2  0
 21 22  1  0
 22 23  2  0
 13  4  1  0
 23 18  1  0
  3 24  1  0
  5 25  1  0
  6 26  1  0
  7 27  1  0
 13 28  1  0
 14 29  1  0
 15 30  1  0
 15 31  1  0
 16 32  1  0
 17 33  1  0
 17 34  1  0
 19 35  1  0
 20 36  1  0
 21 37  1  0
 22 38  1  0
 23 39  1  0
M  CHG  1  12  -1
M  END
$$$$
