
     RDKit          3D

 33 36  0  0  0  0  0  0  0  0999 V2000
    0.6003    3.4292   -1.8696 O   0  0  0  0  0  0  0  0  0  0  0  0
    0.3543    2.3442   -1.2796 C   0  0  0  0  0  0  0  0  0  0  0  0
   -0.9433    1.9134   -1.0781 C   0  0  0  0  0  0  0  0  0  0  0  0
   -1.2291    0.7278   -0.4339 C   0  0  0  0  0  0  0  0  0  0  0  0
   -0.2654   -0.0403    0.0149 O   0  0  0  0  0  0  0  0  0  0  0  0
    0.9867    0.3686   -0.1758 C   0  0  0  0  0  0  0  0  0  0  0  0
    1.3674    1.5349   -0.8068 C   0  0  0  0  0  0  0  0  0  0  0  0
    2.6840    1.8702   -0.9553 C   0  0  0  0  0  0  0  0  0  0  0  0
    3.6958    1.0485   -0.4757 C   0  0  0  0  0  0  0  0  0  0  0  0
    3.3177   -0.1164    0.1547 C   0  0  0  0  0  0  0  0  0  0  0  0
    4.3787   -0.8833    0.6054 C   0  0  0  0  0  0  0  0  0  0  0  0
    4.1029   -2.0715    1.2514 C   0  0  0  0  0  0  0  0  0  0  0  0
    2.7830   -2.4352    1.4154 C   0  0  0  0  0  0  0  0  0  0  0  0
    1.7332   -1.6579    0.9592 C   0  0  0  0  0  0  0  0  0  0  0  0
    1.9977   -0.4665    0.3111 C   0  0  0  0  0  0  0  0  0  0  0  0
   -2.5902    0.2596   -0.2135 C   0  0  0  0  0  0  0  0  0  0  0  0
   -2.7805   -0.9369    0.4393 C   0  0  0  0  0  0  0  0  0  0  0  0
   -4.0617   -1.4443    0.6834 C   0  0  0  0  0  0  0  0  0  0  0  0
   -5.1798   -0.7659    0.2797 C   0  0  0  0  0  0  0  0  0  0  0  0
   -5.0019    0.4387   -0.3779 C   0  0  0  0  0  0  0  0  0  0  0  0
   -3.7320    0.9229   -0.6095 C   0  0  0  0  0  0  0  0  0  0  0  0
   -1.7225    2.5390   -1.4435 H   0  0  0  0  0  0  0  0  0  0  0  0
    2.9108    2.8108   -1.4664 H   0  0  0  0  0  0  0  0  0  0  0  0
    4.7228    1.3537   -0.6155 H   0  0  0  0  0  0  0  0  0  0  0  0
    5.4162   -0.6048    0.4806 H   0  0  0  0  0  0  0  0  0  0  0  0
    4.9379   -2.6750    1.6061 H   0  0  0  0  0  0  0  0  0  0  0  0
    2.6387   -3.3756    1.9286 H   0  0  0  0  0  0  0  0  0  0  0  0
    0.7190   -1.9726    1.1045 H   0  0  0  0  0  0  0  0  0  0  0  0
   -1.9633   -1.5418    0.7943 H   0  0  0  0  0  0  0  0  0  0  0  0
   -4.2193   -2.4005    1.2049 H   0  0  0  0  0  0  0  0  0  0  0  0
   -6.2058   -1.0686    0.4182 H   0  0  0  0  0  0  0  0  0  0  0  0
   -5.8357    1.0340   -0.7281 H   0  0  0  0  0  0  0  0  0  0  0  0
   -3.6169    1.8615   -1.1225 H   0  0  0  0  0  0  0  0  0  0  0  0
  1  2  2  0
  2  3  1  0
  3  4  2  0
  4  5  1  0
  5  6  1  0
  6  7  2  0
  7  8  1  0
  8  9  2  0
  9 10  1  0
 10 11  2  0
 11 12  1  0
 12 13  2  0
 13 14  1  0
 14 15  2  0
  4 16  1  0
 16 17  2  0
 17 18  1  0
 18 19  2  0
 19 20  1  0
 20 21  2  0
  7  2  1  0
 15 10  1  0
 21 16  1  0
 15  6  1  0
  3 22  1  0
  8 23  1  0
  9 24  1  0
 11 25  1  0
 12 26  1  0
 13 27  1  0
 14 28  1  0
 17 29  1  0
 18 30  1  0
 19 31  1  0
 20 32  1  0
 21 33  1  0
M  END
$$$$
