
     RDKit          3D

104110  0  0  0  0  0  0  0  0999 V2000
    7.6382    4.5432   -0.6205 C   0  0  0  0  0  0  0  0  0  0  0  0
    6.3245    4.0369   -0.4896 O   0  0  0  0  0  0  0  0  0  0  0  0
    6.1494    2.7597    0.0096 C   0  0  0  0  0  0  0  0  0  0  0  0
    4.8961    2.2251    0.1562 C   0  0  0  0  0  0  0  0  0  0  0  0
    4.6631    0.9385    0.6567 C   0  0  0  0  0  0  0  0  0  0  0  0
    3.3265    0.4770    0.7644 N   0  0  0  0  0  0  0  0  0  0  0  0
    2.9164   -0.4697    1.7377 C   0  0  0  0  0  0  0  0  0  0  0  0
    1.5804   -0.8477    1.7339 C   0  0  0  0  0  0  0  0  0  0  0  0
    1.0622   -1.7287    2.6465 C   0  0  0  0  0  0  0  0  0  0  0  0
   -0.2558   -2.1101    2.6513 O   0  0  0  0  0  0  0  0  0  0  0  0
   -1.1926   -1.6026    1.7838 C   0  0  0  0  0  0  0  0  0  0  0  0
   -1.7899   -2.4221    0.8178 C   0  0  0  0  0  0  0  0  0  0  0  0
   -2.7282   -1.9365   -0.0610 C   0  0  0  0  0  0  0  0  0  0  0  0
   -3.1185   -0.6196   -0.0253 C   0  0  0  0  0  0  0  0  0  0  0  0
   -4.0850   -0.0752   -0.8948 N   0  0  0  0  0  0  0  0  0  0  0  0
   -5.4723   -0.0003   -0.5100 C   0  0  0  0  0  0  0  0  0  0  0  0
   -5.8627   -0.4123    0.6140 O   0  0  0  0  0  0  0  0  0  0  0  0
   -6.4542    0.5422   -1.3780 N   0  0  0  0  0  0  0  0  0  0  0  0
   -7.8141    0.6264   -0.9443 C   0  0  0  0  0  0  0  0  0  0  0  0
   -8.2430    1.7891   -0.2880 C   0  0  0  0  0  0  0  0  0  0  0  0
   -9.5744    1.5804    0.0003 C   0  0  0  0  0  0  0  0  0  0  0  0
  -10.4880    2.5327    0.7012 C   0  0  0  0  0  0  0  0  0  0  0  0
  -11.1118    3.4214   -0.3509 C   0  0  0  0  0  0  0  0  0  0  0  0
   -9.7314    3.3325    1.7346 C   0  0  0  0  0  0  0  0  0  0  0  0
  -11.5834    1.7277    1.3437 C   0  0  0  0  0  0  0  0  0  0  0  0
   -9.8857    0.3632   -0.4675 N   0  0  0  0  0  0  0  0  0  0  0  0
   -8.8309   -0.2180   -1.0378 N   0  0  0  0  0  0  0  0  0  0  0  0
   -8.7688   -1.5043   -1.6438 C   0  0  0  0  0  0  0  0  0  0  0  0
   -8.5179   -1.6312   -2.9914 C   0  0  0  0  0  0  0  0  0  0  0  0
   -8.4688   -2.9008   -3.5584 C   0  0  0  0  0  0  0  0  0  0  0  0
   -8.6661   -4.0382   -2.8002 C   0  0  0  0  0  0  0  0  0  0  0  0
   -8.6145   -5.4037   -3.4093 C   0  0  0  0  0  0  0  0  0  0  0  0
   -8.9170   -3.9114   -1.4522 C   0  0  0  0  0  0  0  0  0  0  0  0
   -8.9672   -2.6364   -0.8785 C   0  0  0  0  0  0  0  0  0  0  0  0
   -2.5504    0.2297    0.9206 C   0  0  0  0  0  0  0  0  0  0  0  0
   -2.9550    1.5609    0.9797 C   0  0  0  0  0  0  0  0  0  0  0  0
   -2.3949    2.3533    1.9337 C   0  0  0  0  0  0  0  0  0  0  0  0
   -1.4596    1.8600    2.8142 C   0  0  0  0  0  0  0  0  0  0  0  0
   -1.0541    0.5492    2.7638 C   0  0  0  0  0  0  0  0  0  0  0  0
   -1.6053   -0.2797    1.8008 C   0  0  0  0  0  0  0  0  0  0  0  0
    1.9513   -2.2133    3.5620 N   0  0  0  0  0  0  0  0  0  0  0  0
    3.2469   -1.8537    3.5726 C   0  0  0  0  0  0  0  0  0  0  0  0
    3.7168   -0.9872    2.6628 N   0  0  0  0  0  0  0  0  0  0  0  0
    5.7633    0.2238    0.9989 C   0  0  0  0  0  0  0  0  0  0  0  0
    7.0765    0.7037    0.8775 C   0  0  0  0  0  0  0  0  0  0  0  0
    8.1498   -0.1765    1.2702 C   0  0  0  0  0  0  0  0  0  0  0  0
    7.9187   -1.3656    1.5928 O   0  0  0  0  0  0  0  0  0  0  0  0
    9.5128    0.2729    1.3070 N   0  0  0  0  0  0  0  0  0  0  0  0
   10.5920   -0.5878    1.6896 C   0  0  0  0  0  0  0  0  0  0  0  0
   10.8091   -1.7879    0.8480 C   0  0  0  0  0  0  0  0  0  0  0  0
   11.1423   -1.4774   -0.4874 N   0  0  0  0  0  0  0  0  0  0  0  0
   10.1877   -0.9061   -1.3458 C   0  0  0  0  0  0  0  0  0  0  0  0
   10.7983   -0.7398   -2.7329 C   0  0  0  0  0  0  0  0  0  0  0  0
   11.8757   -1.5737   -2.9083 O   0  0  0  0  0  0  0  0  0  0  0  0
   12.9572   -1.2161   -2.0879 C   0  0  0  0  0  0  0  0  0  0  0  0
   12.4601   -0.9173   -0.6817 C   0  0  0  0  0  0  0  0  0  0  0  0
    7.2447    1.9744    0.3803 C   0  0  0  0  0  0  0  0  0  0  0  0
    8.1555    4.5733    0.3787 H   0  0  0  0  0  0  0  0  0  0  0  0
    7.6172    5.5745   -1.0659 H   0  0  0  0  0  0  0  0  0  0  0  0
    8.2299    3.8367   -1.2362 H   0  0  0  0  0  0  0  0  0  0  0  0
    4.0246    2.8251   -0.1293 H   0  0  0  0  0  0  0  0  0  0  0  0
    2.6319    0.8805    0.0686 H   0  0  0  0  0  0  0  0  0  0  0  0
    0.9041   -0.4429    0.9722 H   0  0  0  0  0  0  0  0  0  0  0  0
   -1.4906   -3.4777    0.7750 H   0  0  0  0  0  0  0  0  0  0  0  0
   -3.1581   -2.6116   -0.7864 H   0  0  0  0  0  0  0  0  0  0  0  0
   -3.7785    0.2734   -1.8261 H   0  0  0  0  0  0  0  0  0  0  0  0
   -6.1976    0.8979   -2.3276 H   0  0  0  0  0  0  0  0  0  0  0  0
   -7.6797    2.6778   -0.0431 H   0  0  0  0  0  0  0  0  0  0  0  0
  -11.9044    2.8516   -0.8375 H   0  0  0  0  0  0  0  0  0  0  0  0
  -10.2781    3.6652   -1.0688 H   0  0  0  0  0  0  0  0  0  0  0  0
  -11.4444    4.3818    0.0772 H   0  0  0  0  0  0  0  0  0  0  0  0
  -10.4286    3.9688    2.2884 H   0  0  0  0  0  0  0  0  0  0  0  0
   -8.9976    3.9747    1.2052 H   0  0  0  0  0  0  0  0  0  0  0  0
   -9.1918    2.5927    2.3812 H   0  0  0  0  0  0  0  0  0  0  0  0
  -11.1932    1.3535    2.3286 H   0  0  0  0  0  0  0  0  0  0  0  0
  -11.7591    0.8422    0.7149 H   0  0  0  0  0  0  0  0  0  0  0  0
  -12.5036    2.3246    1.5140 H   0  0  0  0  0  0  0  0  0  0  0  0
   -8.3675   -0.7236   -3.5570 H   0  0  0  0  0  0  0  0  0  0  0  0
   -8.2689   -2.9921   -4.6308 H   0  0  0  0  0  0  0  0  0  0  0  0
   -9.6459   -5.7777   -3.6198 H   0  0  0  0  0  0  0  0  0  0  0  0
   -8.1827   -6.0920   -2.6474 H   0  0  0  0  0  0  0  0  0  0  0  0
   -8.0540   -5.4368   -4.3428 H   0  0  0  0  0  0  0  0  0  0  0  0
   -9.0705   -4.8072   -0.8679 H   0  0  0  0  0  0  0  0  0  0  0  0
   -9.1654   -2.5675    0.1819 H   0  0  0  0  0  0  0  0  0  0  0  0
   -3.6916    1.8866    0.2625 H   0  0  0  0  0  0  0  0  0  0  0  0
   -2.7046    3.3876    1.9819 H   0  0  0  0  0  0  0  0  0  0  0  0
   -1.0115    2.5069    3.5838 H   0  0  0  0  0  0  0  0  0  0  0  0
   -0.3407    0.1302    3.4543 H   0  0  0  0  0  0  0  0  0  0  0  0
    3.9515   -2.2485    4.3084 H   0  0  0  0  0  0  0  0  0  0  0  0
    5.6296   -0.7870    1.3846 H   0  0  0  0  0  0  0  0  0  0  0  0
    9.6694    1.2718    1.0436 H   0  0  0  0  0  0  0  0  0  0  0  0
   10.5331   -0.8661    2.7858 H   0  0  0  0  0  0  0  0  0  0  0  0
   11.5374    0.0309    1.6524 H   0  0  0  0  0  0  0  0  0  0  0  0
   11.6636   -2.3570    1.3202 H   0  0  0  0  0  0  0  0  0  0  0  0
    9.8936   -2.4568    0.8965 H   0  0  0  0  0  0  0  0  0  0  0  0
    9.8616    0.0825   -0.9977 H   0  0  0  0  0  0  0  0  0  0  0  0
    9.2954   -1.5732   -1.3991 H   0  0  0  0  0  0  0  0  0  0  0  0
   11.1257    0.3401   -2.7995 H   0  0  0  0  0  0  0  0  0  0  0  0
   10.0412   -0.8505   -3.5359 H   0  0  0  0  0  0  0  0  0  0  0  0
   13.4012   -0.3043   -2.5027 H   0  0  0  0  0  0  0  0  0  0  0  0
   13.7022   -2.0167   -2.0234 H   0  0  0  0  0  0  0  0  0  0  0  0
   13.1501   -1.4011    0.0309 H   0  0  0  0  0  0  0  0  0  0  0  0
   12.4555    0.1959   -0.5561 H   0  0  0  0  0  0  0  0  0  0  0  0
    8.2357    2.3904    0.2652 H   0  0  0  0  0  0  0  0  0  0  0  0
  1  2  1  0
  2  3  1  0
  3  4  2  0
  4  5  1  0
  5  6  1  0
  6  7  1  0
  7  8  2  0
  8  9  1  0
  9 10  1  0
 10 11  1  0
 11 12  2  0
 12 13  1  0
 13 14  2  0
 14 15  1  0
 15 16  1  0
 16 17  2  0
 16 18  1  0
 18 19  1  0
 19 20  2  0
 20 21  1  0
 21 22  1  0
 22 23  1  0
 22 24  1  0
 22 25  1  0
 21 26  2  0
 26 27  1  0
 27 28  1  0
 28 29  2  0
 29 30  1  0
 30 31  2  0
 31 32  1  0
 31 33  1  0
 33 34  2  0
 14 35  1  0
 35 36  2  0
 36 37  1  0
 37 38  2  0
 38 39  1  0
 39 40  2  0
  9 41  2  0
 41 42  1  0
 42 43  2  0
  5 44  2  0
 44 45  1  0
 45 46  1  0
 46 47  2  0
 46 48  1  0
 48 49  1  0
 49 50  1  0
 50 51  1  0
 51 52  1  0
 52 53  1  0
 53 54  1  0
 54 55  1  0
 55 56  1  0
 45 57  2  0
 57  3  1  0
 43  7  1  0
 56 51  1  0
 40 11  1  0
 27 19  1  0
 34 28  1  0
 40 35  1  0
  1 58  1  0
  1 59  1  0
  1 60  1  0
  4 61  1  0
  6 62  1  0
  8 63  1  0
 12 64  1  0
 13 65  1  0
 15 66  1  0
 18 67  1  0
 20 68  1  0
 23 69  1  0
 23 70  1  0
 23 71  1  0
 24 72  1  0
 24 73  1  0
 24 74  1  0
 25 75  1  0
 25 76  1  0
 25 77  1  0
 29 78  1  0
 30 79  1  0
 32 80  1  0
 32 81  1  0
 32 82  1  0
 33 83  1  0
 34 84  1  0
 36 85  1  0
 37 86  1  0
 38 87  1  0
 39 88  1  0
 42 89  1  0
 44 90  1  0
 48 91  1  0
 49 92  1  0
 49 93  1  0
 50 94  1  0
 50 95  1  0
 52 96  1  0
 52 97  1  0
 53 98  1  0
 53 99  1  0
 55100  1  0
 55101  1  0
 56102  1  0
 56103  1  0
 57104  1  0
M  END
$$$$
