
     RDKit          3D

 40 43  0  0  0  0  0  0  0  0999 V2000
   -4.3278   -1.9237    0.2488 N   0  0  0  0  0  0  0  0  0  0  0  0
   -3.4729   -0.9831    0.9480 C   0  0  0  0  0  0  0  0  0  0  0  0
   -2.0352   -1.4882    0.8604 C   0  0  0  0  0  0  0  0  0  0  0  0
   -1.5585   -0.9440   -0.4548 C   0  0  0  0  0  0  0  0  0  0  0  0
   -0.1915   -0.9803   -0.7240 N   0  0  0  0  0  0  0  0  0  0  0  0
    0.7446   -0.3305    0.0955 C   0  0  1  0  0  0  0  0  0  0  0  0
    1.0909   -0.6294    1.4774 C   0  0  0  0  0  0  0  0  0  0  0  0
    2.0394   -1.0983    0.3606 C   0  0  2  0  0  0  0  0  0  0  0  0
    3.3305   -0.3733    0.3446 C   0  0  0  0  0  0  0  0  0  0  0  0
    3.4304    0.9635    0.6441 C   0  0  0  0  0  0  0  0  0  0  0  0
    4.6668    1.5655    0.6072 C   0  0  0  0  0  0  0  0  0  0  0  0
    5.8320    0.8980    0.2824 C   0  0  0  0  0  0  0  0  0  0  0  0
    5.6930   -0.4418   -0.0122 C   0  0  0  0  0  0  0  0  0  0  0  0
    4.4679   -1.0703    0.0169 C   0  0  0  0  0  0  0  0  0  0  0  0
   -2.2454    0.3478   -0.5860 C   0  0  0  0  0  0  0  0  0  0  0  0
   -2.0420    1.5142   -1.2996 C   0  0  0  0  0  0  0  0  0  0  0  0
   -2.8992    2.5916   -1.2114 C   0  0  0  0  0  0  0  0  0  0  0  0
   -4.0089    2.5470   -0.3959 C   0  0  0  0  0  0  0  0  0  0  0  0
   -4.2298    1.4003    0.3208 C   0  0  0  0  0  0  0  0  0  0  0  0
   -3.3585    0.3175    0.2252 C   0  0  0  0  0  0  0  0  0  0  0  0
   -4.3362   -1.6324   -0.7678 H   0  0  0  0  0  0  0  0  0  0  0  0
   -3.8645   -2.8672    0.3492 H   0  0  0  0  0  0  0  0  0  0  0  0
   -3.7763   -0.7778    1.9722 H   0  0  0  0  0  0  0  0  0  0  0  0
   -1.5299   -1.1043    1.7461 H   0  0  0  0  0  0  0  0  0  0  0  0
   -2.0103   -2.5952    0.8972 H   0  0  0  0  0  0  0  0  0  0  0  0
   -2.0610   -1.6175   -1.2280 H   0  0  0  0  0  0  0  0  0  0  0  0
    0.0324   -0.8596   -1.7230 H   0  0  0  0  0  0  0  0  0  0  0  0
    0.9798    0.7189   -0.2377 H   0  0  0  0  0  0  0  0  0  0  0  0
    0.7606   -1.4724    2.0821 H   0  0  0  0  0  0  0  0  0  0  0  0
    1.4500    0.2206    2.1315 H   0  0  0  0  0  0  0  0  0  0  0  0
    2.0741   -2.1646    0.1051 H   0  0  0  0  0  0  0  0  0  0  0  0
    2.5257    1.5182    0.9049 H   0  0  0  0  0  0  0  0  0  0  0  0
    4.7510    2.6366    0.8466 H   0  0  0  0  0  0  0  0  0  0  0  0
    6.8042    1.3993    0.2599 H   0  0  0  0  0  0  0  0  0  0  0  0
    6.5956   -1.0131   -0.2765 H   0  0  0  0  0  0  0  0  0  0  0  0
    4.4053   -2.1483   -0.2272 H   0  0  0  0  0  0  0  0  0  0  0  0
   -1.1836    1.6031   -1.9570 H   0  0  0  0  0  0  0  0  0  0  0  0
   -2.7335    3.4991   -1.7719 H   0  0  0  0  0  0  0  0  0  0  0  0
   -4.7002    3.4004   -0.3172 H   0  0  0  0  0  0  0  0  0  0  0  0
   -5.1092    1.3733    0.9630 H   0  0  0  0  0  0  0  0  0  0  0  0
  1  2  1  0
  2  3  1  0
  3  4  1  0
  4  5  1  0
  5  6  1  0
  6  7  1  0
  7  8  1  0
  8  9  1  0
  9 10  2  0
 10 11  1  0
 11 12  2  0
 12 13  1  0
 13 14  2  0
  4 15  1  0
 15 16  2  0
 16 17  1  0
 17 18  2  0
 18 19  1  0
 19 20  2  0
 20  2  1  0
  8  6  1  0
 14  9  1  0
 20 15  1  0
  1 21  1  0
  1 22  1  0
  2 23  1  0
  3 24  1  0
  3 25  1  0
  4 26  1  0
  5 27  1  0
  6 28  1  1
  7 29  1  0
  7 30  1  0
  8 31  1  6
 10 32  1  0
 11 33  1  0
 12 34  1  0
 13 35  1  0
 14 36  1  0
 16 37  1  0
 17 38  1  0
 18 39  1  0
 19 40  1  0
M  END
$$$$
