
     RDKit          3D

 44 46  0  0  0  0  0  0  0  0999 V2000
   -1.9396   -1.2444    0.9749 C   0  0  0  0  0  0  0  0  0  0  0  0
   -2.3345    0.1580    0.5053 C   0  0  1  0  0  0  0  0  0  0  0  0
   -1.0925    0.9772    0.3374 C   0  0  0  0  0  0  0  0  0  0  0  0
    0.1634    0.3963    0.4971 C   0  0  0  0  0  0  0  0  0  0  0  0
    1.3192    1.1240    0.3440 C   0  0  0  0  0  0  0  0  0  0  0  0
    2.6245    0.5616    0.5003 N   0  0  0  0  0  0  0  0  0  0  0  0
    3.3406   -0.0145   -0.5772 C   0  0  0  0  0  0  0  0  0  0  0  0
    2.7850   -0.0187   -1.7034 O   0  0  0  0  0  0  0  0  0  0  0  0
    4.6726   -0.5888   -0.4196 C   0  0  0  0  0  0  0  0  0  0  0  0
    5.3571   -1.1457   -1.4760 C   0  0  0  0  0  0  0  0  0  0  0  0
    6.6345   -1.6931   -1.3102 C   0  0  0  0  0  0  0  0  0  0  0  0
    7.2363   -1.6831   -0.0678 C   0  0  0  0  0  0  0  0  0  0  0  0
    8.8381   -2.3620    0.1737 Cl  0  0  0  0  0  0  0  0  0  0  0  0
    6.5127   -1.1147    0.9612 C   0  0  0  0  0  0  0  0  0  0  0  0
    5.2760   -0.5892    0.7807 N   0  0  0  0  0  0  0  0  0  0  0  0
    1.2520    2.4649    0.0242 C   0  0  0  0  0  0  0  0  0  0  0  0
    0.0251    3.0639   -0.1393 C   0  0  0  0  0  0  0  0  0  0  0  0
   -0.0155    4.3771   -0.4521 F   0  0  0  0  0  0  0  0  0  0  0  0
   -1.1204    2.3163    0.0188 C   0  0  0  0  0  0  0  0  0  0  0  0
   -2.3239    2.9151   -0.1394 F   0  0  0  0  0  0  0  0  0  0  0  0
   -3.0592    0.1009   -0.8038 C   0  0  0  0  0  0  0  0  0  0  0  0
   -4.5126   -0.2524   -0.7007 C   0  0  1  0  0  0  0  0  0  0  0  0
   -4.8312   -1.5463   -1.4326 C   0  0  0  0  0  0  0  0  0  0  0  0
   -6.1677   -1.8608   -1.3313 F   0  0  0  0  0  0  0  0  0  0  0  0
   -4.5468   -1.3452   -2.7785 F   0  0  0  0  0  0  0  0  0  0  0  0
   -4.1139   -2.6111   -0.9677 F   0  0  0  0  0  0  0  0  0  0  0  0
   -4.8819   -0.3285    0.6563 O   0  0  0  0  0  0  0  0  0  0  0  0
   -4.3607    0.5109    1.6297 C   0  0  0  0  0  0  0  0  0  0  0  0
   -5.1234    1.0960    2.6667 N   0  0  0  0  0  0  0  0  0  0  0  0
   -3.0904    0.7597    1.5627 N   0  0  0  0  0  0  0  0  0  0  0  0
   -2.8513   -1.7992    1.2755 H   0  0  0  0  0  0  0  0  0  0  0  0
   -1.3397   -1.1197    1.8990 H   0  0  0  0  0  0  0  0  0  0  0  0
   -1.3384   -1.7831    0.2333 H   0  0  0  0  0  0  0  0  0  0  0  0
    0.2641   -0.6347    0.7437 H   0  0  0  0  0  0  0  0  0  0  0  0
    3.0911    0.5634    1.4383 H   0  0  0  0  0  0  0  0  0  0  0  0
    4.8711   -1.1456   -2.4441 H   0  0  0  0  0  0  0  0  0  0  0  0
    7.1669   -2.1295   -2.1458 H   0  0  0  0  0  0  0  0  0  0  0  0
    6.9818   -1.1037    1.9433 H   0  0  0  0  0  0  0  0  0  0  0  0
    2.1328    3.0752   -0.1058 H   0  0  0  0  0  0  0  0  0  0  0  0
   -2.9816    1.0755   -1.3042 H   0  0  0  0  0  0  0  0  0  0  0  0
   -2.5380   -0.6443   -1.4466 H   0  0  0  0  0  0  0  0  0  0  0  0
   -5.1600    0.5242   -1.1626 H   0  0  0  0  0  0  0  0  0  0  0  0
   -5.2613    2.1276    2.6594 H   0  0  0  0  0  0  0  0  0  0  0  0
   -5.5604    0.5707    3.4419 H   0  0  0  0  0  0  0  0  0  0  0  0
  2  1  1  1
  2  3  1  0
  3  4  2  0
  4  5  1  0
  5  6  1  0
  6  7  1  0
  7  8  2  0
  7  9  1  0
  9 10  2  0
 10 11  1  0
 11 12  2  0
 12 13  1  0
 12 14  1  0
 14 15  2  0
  5 16  2  0
 16 17  1  0
 17 18  1  0
 17 19  2  0
 19 20  1  0
  2 21  1  0
 21 22  1  0
 22 23  1  0
 23 24  1  0
 23 25  1  0
 23 26  1  0
 22 27  1  0
 27 28  1  0
 28 29  1  0
 28 30  2  0
 30  2  1  0
 19  3  1  0
 15  9  1  0
  1 31  1  0
  1 32  1  0
  1 33  1  0
  4 34  1  0
  6 35  1  0
 10 36  1  0
 11 37  1  0
 14 38  1  0
 16 39  1  0
 21 40  1  0
 21 41  1  0
 22 42  1  6
 29 43  1  0
 29 44  1  0
M  END
$$$$
