
     RDKit          3D

137140  0  0  0  0  0  0  0  0999 V2000
   12.2277    0.0604   -1.5927 N   0  0  0  0  0  0  0  0  0  0  0  0
   11.6354   -1.1873   -2.0787 C   0  0  0  0  0  0  0  0  0  0  0  0
   11.2426   -2.0777   -0.9473 C   0  0  0  0  0  0  0  0  0  0  0  0
   10.2408   -1.4097   -0.0220 C   0  0  0  0  0  0  0  0  0  0  0  0
    9.0132   -1.0548   -0.7777 C   0  0  0  0  0  0  0  0  0  0  0  0
    7.9074   -0.4012    0.0263 C   0  0  2  0  0  0  0  0  0  0  0  0
    6.8400   -0.1482   -0.9808 N   0  0  0  0  0  0  0  0  0  0  0  0
    5.4604   -0.5016   -0.8349 C   0  0  0  0  0  0  0  0  0  0  0  0
    5.4019   -1.0492    0.3151 O   0  0  0  0  0  0  0  0  0  0  0  0
    4.7859   -0.0705   -2.0551 C   0  0  2  0  0  0  0  0  0  0  0  0
    5.0851    1.3759   -2.4121 C   0  0  0  0  0  0  0  0  0  0  0  0
    4.0263    1.5701   -3.5268 C   0  0  0  0  0  0  0  0  0  0  0  0
    3.2205    0.3044   -3.4504 C   0  0  0  0  0  0  0  0  0  0  0  0
    3.3572   -0.1025   -2.0469 N   0  0  0  0  0  0  0  0  0  0  0  0
    2.4927   -0.3886   -0.9879 C   0  0  0  0  0  0  0  0  0  0  0  0
    2.8264   -0.7879    0.1425 O   0  0  0  0  0  0  0  0  0  0  0  0
    1.0737   -0.3469   -0.7800 C   0  0  2  0  0  0  0  0  0  0  0  0
    0.6951    1.1344   -0.5709 C   0  0  0  0  0  0  0  0  0  0  0  0
    0.8728    2.2662   -1.8660 S   0  0  0  0  0  0  0  0  0  0  0  0
   -0.3934    1.9648   -3.5356 S   0  0  0  0  0  0  0  0  0  0  0  0
   -2.0225    2.8265   -3.2339 C   0  0  0  0  0  0  0  0  0  0  0  0
   -2.7449    1.9585   -2.2400 C   0  0  2  0  0  0  0  0  0  0  0  0
   -3.0801    0.7339   -3.0154 N   0  0  0  0  0  0  0  0  0  0  0  0
   -3.8698    2.4980   -1.5117 C   0  0  0  0  0  0  0  0  0  0  0  0
   -3.4485    3.4372   -0.8023 O   0  0  0  0  0  0  0  0  0  0  0  0
   -5.2531    2.4743   -1.2089 N   0  0  0  0  0  0  0  0  0  0  0  0
   -6.0206    3.2381   -0.2512 C   0  0  1  0  0  0  0  0  0  0  0  0
   -7.0356    4.1702   -0.8432 C   0  0  0  0  0  0  0  0  0  0  0  0
   -6.4223    5.1921   -1.7168 C   0  0  0  0  0  0  0  0  0  0  0  0
   -6.2295    5.1942   -3.0874 C   0  0  0  0  0  0  0  0  0  0  0  0
   -5.6198    6.2703   -3.6719 C   0  0  0  0  0  0  0  0  0  0  0  0
   -5.1716    7.3768   -2.9921 C   0  0  0  0  0  0  0  0  0  0  0  0
   -5.3358    7.4317   -1.6209 C   0  0  0  0  0  0  0  0  0  0  0  0
   -5.9593    6.3276   -1.0408 C   0  0  0  0  0  0  0  0  0  0  0  0
   -6.6070    2.3772    0.8029 C   0  0  0  0  0  0  0  0  0  0  0  0
   -7.2227    2.8243    1.7909 O   0  0  0  0  0  0  0  0  0  0  0  0
   -6.7524    1.0191    1.1543 N   0  0  0  0  0  0  0  0  0  0  0  0
   -7.2958    0.2168    2.2274 C   0  0  1  0  0  0  0  0  0  0  0  0
   -8.6776   -0.3280    1.8214 C   0  0  0  0  0  0  0  0  0  0  0  0
   -8.6230   -1.1679    0.6104 C   0  0  0  0  0  0  0  0  0  0  0  0
   -8.8007   -0.7122   -0.7046 C   0  0  0  0  0  0  0  0  0  0  0  0
   -8.7243   -1.5943   -1.7597 C   0  0  0  0  0  0  0  0  0  0  0  0
   -8.4769   -2.9352   -1.6053 C   0  0  0  0  0  0  0  0  0  0  0  0
   -8.2910   -3.4448   -0.3213 C   0  0  0  0  0  0  0  0  0  0  0  0
   -8.3767   -2.5228    0.7106 C   0  0  0  0  0  0  0  0  0  0  0  0
   -6.4260   -0.9008    2.6022 C   0  0  0  0  0  0  0  0  0  0  0  0
   -6.6925   -1.5474    3.6381 O   0  0  0  0  0  0  0  0  0  0  0  0
   -5.3170   -1.7164    2.3586 N   0  0  0  0  0  0  0  0  0  0  0  0
   -4.4604   -2.8442    2.8189 C   0  0  1  0  0  0  0  0  0  0  0  0
   -4.9014   -4.0719    2.0134 C   0  0  0  0  0  0  0  0  0  0  0  0
   -4.1396   -5.2998    2.3393 C   0  0  0  0  0  0  0  0  0  0  0  0
   -4.2124   -5.7211    3.7570 C   0  0  0  0  0  0  0  0  0  0  0  0
   -3.5442   -6.9689    3.8779 N   0  0  0  0  0  0  0  0  0  0  0  0
   -4.7356   -5.1797    4.7808 O   0  0  0  0  0  0  0  0  0  0  0  0
   -3.0718   -2.5070    2.6631 C   0  0  0  0  0  0  0  0  0  0  0  0
   -3.1532   -1.4331    2.0275 O   0  0  0  0  0  0  0  0  0  0  0  0
   -1.6737   -2.6776    2.8125 N   0  0  0  0  0  0  0  0  0  0  0  0
   -0.5509   -1.8487    2.4704 C   0  0  1  0  0  0  0  0  0  0  0  0
    0.6934   -2.2015    3.1376 C   0  0  0  0  0  0  0  0  0  0  0  0
    1.1521   -3.5915    2.8359 C   0  0  0  0  0  0  0  0  0  0  0  0
    0.7156   -4.7241    2.1015 N   0  0  0  0  0  0  0  0  0  0  0  0
    2.2586   -3.9083    3.3700 O   0  0  0  0  0  0  0  0  0  0  0  0
   -0.4650   -1.7438    0.9422 C   0  0  0  0  0  0  0  0  0  0  0  0
   -0.8091   -1.9744   -0.1924 O   0  0  0  0  0  0  0  0  0  0  0  0
    0.5938   -0.9058    0.5059 N   0  0  0  0  0  0  0  0  0  0  0  0
    8.3090    0.9382    0.4891 C   0  0  0  0  0  0  0  0  0  0  0  0
    7.7155    1.7836   -0.2666 O   0  0  0  0  0  0  0  0  0  0  0  0
    9.1517    1.3665    1.5239 N   0  0  0  0  0  0  0  0  0  0  0  0
    9.3463    2.7673    1.7217 C   0  0  0  0  0  0  0  0  0  0  0  0
   10.2730    3.0245    2.8649 C   0  0  0  0  0  0  0  0  0  0  0  0
   10.8139    1.9381    3.5675 N   0  0  0  0  0  0  0  0  0  0  0  0
   10.4903    4.2534    3.0992 O   0  0  0  0  0  0  0  0  0  0  0  0
   12.8110   -0.1135   -0.7539 H   0  0  0  0  0  0  0  0  0  0  0  0
   11.5162    0.7945   -1.4375 H   0  0  0  0  0  0  0  0  0  0  0  0
   12.4715   -1.6938   -2.6456 H   0  0  0  0  0  0  0  0  0  0  0  0
   10.8071   -1.0181   -2.7591 H   0  0  0  0  0  0  0  0  0  0  0  0
   10.7727   -2.9894   -1.3642 H   0  0  0  0  0  0  0  0  0  0  0  0
   12.1557   -2.3723   -0.3637 H   0  0  0  0  0  0  0  0  0  0  0  0
   10.6984   -0.4770    0.4038 H   0  0  0  0  0  0  0  0  0  0  0  0
   10.0191   -2.0947    0.8165 H   0  0  0  0  0  0  0  0  0  0  0  0
    9.3239   -0.3696   -1.6157 H   0  0  0  0  0  0  0  0  0  0  0  0
    8.6301   -2.0043   -1.2356 H   0  0  0  0  0  0  0  0  0  0  0  0
    7.5263   -1.0161    0.8428 H   0  0  0  0  0  0  0  0  0  0  0  0
    7.3244    0.3356   -1.7842 H   0  0  0  0  0  0  0  0  0  0  0  0
    5.1745   -0.7116   -2.8829 H   0  0  0  0  0  0  0  0  0  0  0  0
    6.0864    1.5194   -2.8227 H   0  0  0  0  0  0  0  0  0  0  0  0
    4.7882    2.0511   -1.5977 H   0  0  0  0  0  0  0  0  0  0  0  0
    3.4315    2.4733   -3.3425 H   0  0  0  0  0  0  0  0  0  0  0  0
    4.5141    1.6596   -4.5073 H   0  0  0  0  0  0  0  0  0  0  0  0
    2.1940    0.4510   -3.7769 H   0  0  0  0  0  0  0  0  0  0  0  0
    3.6535   -0.4946   -4.1019 H   0  0  0  0  0  0  0  0  0  0  0  0
    0.5241   -0.7568   -1.6412 H   0  0  0  0  0  0  0  0  0  0  0  0
   -0.3350    1.0995   -0.1022 H   0  0  0  0  0  0  0  0  0  0  0  0
    1.3074    1.5036    0.3258 H   0  0  0  0  0  0  0  0  0  0  0  0
   -2.4824    2.9155   -4.2109 H   0  0  0  0  0  0  0  0  0  0  0  0
   -1.7670    3.8165   -2.8303 H   0  0  0  0  0  0  0  0  0  0  0  0
   -1.9405    1.6388   -1.5067 H   0  0  0  0  0  0  0  0  0  0  0  0
   -2.1896    0.1935   -3.0857 H   0  0  0  0  0  0  0  0  0  0  0  0
   -3.3317    1.0096   -3.9953 H   0  0  0  0  0  0  0  0  0  0  0  0
   -5.3553    1.7458   -1.9238 H   0  0  0  0  0  0  0  0  0  0  0  0
   -5.3116    3.9205    0.3243 H   0  0  0  0  0  0  0  0  0  0  0  0
   -7.8317    3.5931   -1.3971 H   0  0  0  0  0  0  0  0  0  0  0  0
   -7.5709    4.6850   -0.0091 H   0  0  0  0  0  0  0  0  0  0  0  0
   -6.5990    4.3027   -3.5596 H   0  0  0  0  0  0  0  0  0  0  0  0
   -5.4945    6.2180   -4.7656 H   0  0  0  0  0  0  0  0  0  0  0  0
   -4.6937    8.2091   -3.4902 H   0  0  0  0  0  0  0  0  0  0  0  0
   -5.0067    8.2660   -1.0126 H   0  0  0  0  0  0  0  0  0  0  0  0
   -6.0683    6.4123    0.0498 H   0  0  0  0  0  0  0  0  0  0  0  0
   -6.2894    0.6610    0.3033 H   0  0  0  0  0  0  0  0  0  0  0  0
   -7.5118    0.8191    3.1280 H   0  0  0  0  0  0  0  0  0  0  0  0
   -9.4176    0.4840    1.8037 H   0  0  0  0  0  0  0  0  0  0  0  0
   -8.9707   -0.9706    2.6899 H   0  0  0  0  0  0  0  0  0  0  0  0
   -8.9988    0.3425   -0.8222 H   0  0  0  0  0  0  0  0  0  0  0  0
   -8.8643   -1.2391   -2.7855 H   0  0  0  0  0  0  0  0  0  0  0  0
   -8.4010   -3.6817   -2.3726 H   0  0  0  0  0  0  0  0  0  0  0  0
   -8.0913   -4.4784   -0.0829 H   0  0  0  0  0  0  0  0  0  0  0  0
   -8.2336   -2.9085    1.7313 H   0  0  0  0  0  0  0  0  0  0  0  0
   -5.1512   -1.2146    1.4601 H   0  0  0  0  0  0  0  0  0  0  0  0
   -4.7422   -3.0101    3.8711 H   0  0  0  0  0  0  0  0  0  0  0  0
   -5.9596   -4.2344    2.2815 H   0  0  0  0  0  0  0  0  0  0  0  0
   -4.7944   -3.8596    0.9133 H   0  0  0  0  0  0  0  0  0  0  0  0
   -3.0585   -5.2623    2.0518 H   0  0  0  0  0  0  0  0  0  0  0  0
   -4.6157   -6.1357    1.7195 H   0  0  0  0  0  0  0  0  0  0  0  0
   -2.9157   -7.7954    4.0468 H   0  0  0  0  0  0  0  0  0  0  0  0
   -4.1521   -7.7399    3.4676 H   0  0  0  0  0  0  0  0  0  0  0  0
   -1.9139   -3.5817    3.2387 H   0  0  0  0  0  0  0  0  0  0  0  0
   -0.8656   -0.7890    2.7422 H   0  0  0  0  0  0  0  0  0  0  0  0
    0.5135   -2.1065    4.2557 H   0  0  0  0  0  0  0  0  0  0  0  0
    1.4700   -1.4649    2.8998 H   0  0  0  0  0  0  0  0  0  0  0  0
    0.9309   -4.4394    1.1153 H   0  0  0  0  0  0  0  0  0  0  0  0
    0.3197   -5.4990    2.6725 H   0  0  0  0  0  0  0  0  0  0  0  0
    1.2750   -0.5246    1.1681 H   0  0  0  0  0  0  0  0  0  0  0  0
    9.5611    0.6103    2.0814 H   0  0  0  0  0  0  0  0  0  0  0  0
    9.7531    3.2794    0.8183 H   0  0  0  0  0  0  0  0  0  0  0  0
    8.3584    3.2338    1.9305 H   0  0  0  0  0  0  0  0  0  0  0  0
   11.4722    1.2641    3.9868 H   0  0  0  0  0  0  0  0  0  0  0  0
   10.2307    1.2213    4.0755 H   0  0  0  0  0  0  0  0  0  0  0  0
  1  2  1  0
  2  3  1  0
  3  4  1  0
  4  5  1  0
  5  6  1  0
  6  7  1  0
  7  8  1  0
  8  9  2  0
  8 10  1  0
 10 11  1  0
 11 12  1  0
 12 13  1  0
 13 14  1  0
 14 15  1  0
 15 16  2  0
 15 17  1  0
 17 18  1  0
 18 19  1  0
 19 20  1  0
 20 21  1  0
 21 22  1  0
 22 23  1  0
 22 24  1  0
 24 25  2  0
 24 26  1  0
 26 27  1  0
 27 28  1  0
 28 29  1  0
 29 30  2  0
 30 31  1  0
 31 32  2  0
 32 33  1  0
 33 34  2  0
 27 35  1  0
 35 36  2  0
 35 37  1  0
 37 38  1  0
 38 39  1  0
 39 40  1  0
 40 41  2  0
 41 42  1  0
 42 43  2  0
 43 44  1  0
 44 45  2  0
 38 46  1  0
 46 47  2  0
 46 48  1  0
 48 49  1  0
 49 50  1  0
 50 51  1  0
 51 52  1  0
 52 53  1  0
 52 54  2  0
 49 55  1  0
 55 56  2  0
 55 57  1  0
 57 58  1  0
 58 59  1  0
 59 60  1  0
 60 61  1  0
 60 62  2  0
 58 63  1  0
 63 64  2  0
 63 65  1  0
  6 66  1  0
 66 67  2  0
 66 68  1  0
 68 69  1  0
 69 70  1  0
 70 71  1  0
 70 72  2  0
 14 10  1  0
 65 17  1  0
 34 29  1  0
 45 40  1  0
  1 73  1  0
  1 74  1  0
  2 75  1  0
  2 76  1  0
  3 77  1  0
  3 78  1  0
  4 79  1  0
  4 80  1  0
  5 81  1  0
  5 82  1  0
  6 83  1  1
  7 84  1  0
 10 85  1  6
 11 86  1  0
 11 87  1  0
 12 88  1  0
 12 89  1  0
 13 90  1  0
 13 91  1  0
 17 92  1  6
 18 93  1  0
 18 94  1  0
 21 95  1  0
 21 96  1  0
 22 97  1  1
 23 98  1  0
 23 99  1  0
 26100  1  0
 27101  1  1
 28102  1  0
 28103  1  0
 30104  1  0
 31105  1  0
 32106  1  0
 33107  1  0
 34108  1  0
 37109  1  0
 38110  1  1
 39111  1  0
 39112  1  0
 41113  1  0
 42114  1  0
 43115  1  0
 44116  1  0
 45117  1  0
 48118  1  0
 49119  1  1
 50120  1  0
 50121  1  0
 51122  1  0
 51123  1  0
 53124  1  0
 53125  1  0
 57126  1  0
 58127  1  1
 59128  1  0
 59129  1  0
 61130  1  0
 61131  1  0
 65132  1  0
 68133  1  0
 69134  1  0
 69135  1  0
 71136  1  0
 71137  1  0
M  END
$$$$
