
     RDKit          3D

 42 45  0  0  0  0  0  0  0  0999 V2000
   -5.4675   -0.8449   -2.0986 N   0  0  0  0  0  0  0  0  0  0  0  0
   -4.7108   -0.2487   -1.0601 C   0  0  0  0  0  0  0  0  0  0  0  0
   -3.4346   -0.3134   -0.9912 N   0  0  0  0  0  0  0  0  0  0  0  0
   -2.6557    0.2970    0.0721 C   0  0  2  0  0  0  0  0  0  0  0  0
   -2.2816    1.6733   -0.3975 C   0  0  0  0  0  0  0  0  0  0  0  0
   -1.5477    2.4053    0.5003 F   0  0  0  0  0  0  0  0  0  0  0  0
   -1.4305   -0.5312    0.1841 C   0  0  0  0  0  0  0  0  0  0  0  0
   -0.1753   -0.0297   -0.0198 C   0  0  0  0  0  0  0  0  0  0  0  0
    0.9943   -0.8055    0.0751 C   0  0  0  0  0  0  0  0  0  0  0  0
    2.2422   -0.1840   -0.1552 N   0  0  0  0  0  0  0  0  0  0  0  0
    3.4841   -0.8375   -0.0943 C   0  0  0  0  0  0  0  0  0  0  0  0
    3.6089   -2.0563    0.1749 O   0  0  0  0  0  0  0  0  0  0  0  0
    4.6963   -0.0278   -0.3650 C   0  0  0  0  0  0  0  0  0  0  0  0
    5.9306   -0.6309   -0.3150 C   0  0  0  0  0  0  0  0  0  0  0  0
    7.0418    0.1214   -0.5655 C   0  0  0  0  0  0  0  0  0  0  0  0
    6.9238    1.4499   -0.8602 C   0  0  0  0  0  0  0  0  0  0  0  0
    8.3221    2.4482   -1.1871 Cl  0  0  0  0  0  0  0  0  0  0  0  0
    5.6765    2.0441   -0.9072 C   0  0  0  0  0  0  0  0  0  0  0  0
    4.6193    1.2697   -0.6555 N   0  0  0  0  0  0  0  0  0  0  0  0
    0.8214   -2.1234    0.3890 C   0  0  0  0  0  0  0  0  0  0  0  0
   -0.4473   -2.6499    0.5993 C   0  0  0  0  0  0  0  0  0  0  0  0
   -0.5870   -3.9615    0.9093 F   0  0  0  0  0  0  0  0  0  0  0  0
   -1.5509   -1.8747    0.5000 C   0  0  0  0  0  0  0  0  0  0  0  0
   -2.7993   -2.3567    0.6986 F   0  0  0  0  0  0  0  0  0  0  0  0
   -3.3746    0.3049    1.3885 C   0  0  1  0  0  0  0  0  0  0  0  0
   -4.1080    1.4934    1.8680 C   0  0  0  0  0  0  0  0  0  0  0  0
   -4.8466    0.3187    1.2947 C   0  0  0  0  0  0  0  0  0  0  0  0
   -5.3423    0.4667   -0.0192 O   0  0  0  0  0  0  0  0  0  0  0  0
   -5.7154   -0.2854   -2.9253 H   0  0  0  0  0  0  0  0  0  0  0  0
   -5.7625   -1.8257   -2.0210 H   0  0  0  0  0  0  0  0  0  0  0  0
   -1.6583    1.5538   -1.3178 H   0  0  0  0  0  0  0  0  0  0  0  0
   -3.1694    2.2504   -0.7464 H   0  0  0  0  0  0  0  0  0  0  0  0
   -0.0138    1.0084   -0.2747 H   0  0  0  0  0  0  0  0  0  0  0  0
    2.2566    0.8430   -0.3905 H   0  0  0  0  0  0  0  0  0  0  0  0
    5.9839   -1.7013   -0.0746 H   0  0  0  0  0  0  0  0  0  0  0  0
    8.0191   -0.3536   -0.5265 H   0  0  0  0  0  0  0  0  0  0  0  0
    5.6015    3.0858   -1.1395 H   0  0  0  0  0  0  0  0  0  0  0  0
    1.6494   -2.8065    0.4869 H   0  0  0  0  0  0  0  0  0  0  0  0
   -2.9408   -0.3502    2.1656 H   0  0  0  0  0  0  0  0  0  0  0  0
   -4.2417    1.6368    2.9533 H   0  0  0  0  0  0  0  0  0  0  0  0
   -4.1344    2.4463    1.3004 H   0  0  0  0  0  0  0  0  0  0  0  0
   -5.4759   -0.3181    1.9429 H   0  0  0  0  0  0  0  0  0  0  0  0
  1  2  1  0
  2  3  2  0
  3  4  1  0
  4  5  1  6
  5  6  1  0
  4  7  1  0
  7  8  2  0
  8  9  1  0
  9 10  1  0
 10 11  1  0
 11 12  2  0
 11 13  1  0
 13 14  2  0
 14 15  1  0
 15 16  2  0
 16 17  1  0
 16 18  1  0
 18 19  2  0
  9 20  2  0
 20 21  1  0
 21 22  1  0
 21 23  2  0
 23 24  1  0
  4 25  1  0
 25 26  1  0
 26 27  1  0
 27 28  1  0
 28  2  1  0
 23  7  1  0
 27 25  1  0
 19 13  1  0
  1 29  1  0
  1 30  1  0
  5 31  1  0
  5 32  1  0
  8 33  1  0
 10 34  1  0
 14 35  1  0
 15 36  1  0
 18 37  1  0
 20 38  1  0
 25 39  1  1
 26 40  1  0
 26 41  1  0
 27 42  1  0
M  END
$$$$
