
     RDKit          3D

 52 55  0  0  0  0  0  0  0  0999 V2000
   -2.5621   -1.6090    0.4537 C   0  0  0  0  0  0  0  0  0  0  0  0
   -2.1300   -0.3816   -0.1328 N   0  0  0  0  0  0  0  0  0  0  0  0
   -0.7540   -0.3260   -0.5000 C   0  0  2  0  0  0  0  0  0  0  0  0
   -0.2101   -1.7513   -0.5893 C   0  0  0  0  0  0  0  0  0  0  0  0
    1.0807   -1.6300   -1.3765 C   0  0  0  0  0  0  0  0  0  0  0  0
    1.9879   -0.6932   -0.6773 C   0  0  0  0  0  0  0  0  0  0  0  0
    1.5265    0.2365    0.2021 C   0  0  0  0  0  0  0  0  0  0  0  0
    0.0811    0.3834    0.5098 C   0  0  0  0  0  0  0  0  0  0  0  0
    2.7329    0.8435    0.7310 C   0  0  0  0  0  0  0  0  0  0  0  0
    2.8631    1.9083    1.6210 C   0  0  0  0  0  0  0  0  0  0  0  0
    3.8884    2.7453    1.5502 C   0  0  0  0  0  0  0  0  0  0  0  0
    4.8762    2.5809    0.4833 C   0  0  0  0  0  0  0  0  0  0  0  0
    4.7214    1.6512   -0.4576 C   0  0  0  0  0  0  0  0  0  0  0  0
    3.5859    0.8455   -0.4772 C   0  0  0  0  0  0  0  0  0  0  0  0
    3.4523   -0.5286   -0.8160 N   0  0  0  0  0  0  0  0  0  0  0  0
    4.3247   -1.5740   -1.2249 C   0  0  0  0  0  0  0  0  0  0  0  0
    5.2977   -2.0635   -0.2652 C   0  0  0  0  0  0  0  0  0  0  0  0
    6.0590   -3.0289   -0.5953 O   0  0  0  0  0  0  0  0  0  0  0  0
    5.4547   -1.5475    0.9919 O   0  0  0  0  0  0  0  0  0  0  0  0
   -3.2062    0.2324   -1.3110 S   0  0  0  0  0  6  0  0  0  0  0  0
   -2.6736    1.5663   -1.7906 O   0  0  0  0  0  0  0  0  0  0  0  0
   -3.4409   -0.6873   -2.4542 O   0  0  0  0  0  0  0  0  0  0  0  0
   -4.7371    0.5531   -0.5319 C   0  0  0  0  0  0  0  0  0  0  0  0
   -5.0144    1.7820    0.0467 C   0  0  0  0  0  0  0  0  0  0  0  0
   -6.2343    2.0297    0.6637 C   0  0  0  0  0  0  0  0  0  0  0  0
   -7.1865    1.0420    0.7038 C   0  0  0  0  0  0  0  0  0  0  0  0
   -8.3969    1.2715    1.3100 F   0  0  0  0  0  0  0  0  0  0  0  0
   -6.9033   -0.1774    0.1261 C   0  0  0  0  0  0  0  0  0  0  0  0
   -5.6953   -0.4375   -0.4904 C   0  0  0  0  0  0  0  0  0  0  0  0
   -2.7523   -2.4261   -0.2804 H   0  0  0  0  0  0  0  0  0  0  0  0
   -3.5104   -1.3778    1.0230 H   0  0  0  0  0  0  0  0  0  0  0  0
   -1.8407   -1.9500    1.2017 H   0  0  0  0  0  0  0  0  0  0  0  0
   -0.5856    0.1146   -1.5119 H   0  0  0  0  0  0  0  0  0  0  0  0
    0.0327   -2.1089    0.4283 H   0  0  0  0  0  0  0  0  0  0  0  0
   -0.8874   -2.4399   -1.0922 H   0  0  0  0  0  0  0  0  0  0  0  0
    1.5706   -2.6405   -1.4646 H   0  0  0  0  0  0  0  0  0  0  0  0
    0.8216   -1.2779   -2.3700 H   0  0  0  0  0  0  0  0  0  0  0  0
   -0.1585    1.4630    0.6053 H   0  0  0  0  0  0  0  0  0  0  0  0
   -0.0720   -0.1366    1.4982 H   0  0  0  0  0  0  0  0  0  0  0  0
    3.2178   -0.1242    1.3517 H   0  0  0  0  0  0  0  0  0  0  0  0
    2.1392    2.1083    2.4127 H   0  0  0  0  0  0  0  0  0  0  0  0
    3.9990    3.5458    2.2726 H   0  0  0  0  0  0  0  0  0  0  0  0
    5.7534    3.2274    0.4556 H   0  0  0  0  0  0  0  0  0  0  0  0
    5.5253    1.5731   -1.1860 H   0  0  0  0  0  0  0  0  0  0  0  0
    2.8523    1.4056   -1.3035 H   0  0  0  0  0  0  0  0  0  0  0  0
    3.7067   -2.4754   -1.5341 H   0  0  0  0  0  0  0  0  0  0  0  0
    4.8491   -1.2983   -2.1971 H   0  0  0  0  0  0  0  0  0  0  0  0
    6.3433   -1.6080    1.4525 H   0  0  0  0  0  0  0  0  0  0  0  0
   -4.2593    2.5623    0.0137 H   0  0  0  0  0  0  0  0  0  0  0  0
   -6.4327    2.9959    1.1102 H   0  0  0  0  0  0  0  0  0  0  0  0
   -7.6422   -0.9817    0.1431 H   0  0  0  0  0  0  0  0  0  0  0  0
   -5.4578   -1.3869   -0.9474 H   0  0  0  0  0  0  0  0  0  0  0  0
  1  2  1  0
  2  3  1  0
  3  4  1  0
  4  5  1  0
  5  6  1  0
  6  7  2  0
  7  8  1  0
  7  9  1  0
  9 10  1  0
 10 11  2  0
 11 12  1  0
 12 13  2  0
 13 14  1  0
 14 15  1  0
 15 16  1  0
 16 17  1  0
 17 18  2  0
 17 19  1  0
  2 20  1  0
 20 21  2  0
 20 22  2  0
 20 23  1  0
 23 24  2  0
 24 25  1  0
 25 26  2  0
 26 27  1  0
 26 28  1  0
 28 29  2  0
  8  3  1  0
 14  9  1  0
 29 23  1  0
 15  6  1  0
  1 30  1  0
  1 31  1  0
  1 32  1  0
  3 33  1  6
  4 34  1  0
  4 35  1  0
  5 36  1  0
  5 37  1  0
  8 38  1  0
  8 39  1  0
  9 40  1  0
 10 41  1  0
 11 42  1  0
 12 43  1  0
 13 44  1  0
 14 45  1  0
 16 46  1  0
 16 47  1  0
 19 48  1  0
 24 49  1  0
 25 50  1  0
 28 51  1  0
 29 52  1  0
M  END
$$$$
