
     RDKit          3D

 51 55  0  0  0  0  0  0  0  0999 V2000
    0.3371   -1.9678    0.7642 O   0  0  0  0  0  0  0  0  0  0  0  0
    0.8863   -0.5355    0.8830 S   0  0  0  0  0  6  0  0  0  0  0  0
    0.5770   -0.3003    2.3765 O   0  0  0  0  0  0  0  0  0  0  0  0
    2.5692   -0.7331    0.6502 C   0  0  0  0  0  0  0  0  0  0  0  0
    3.1446   -1.0968   -0.5390 C   0  0  0  0  0  0  0  0  0  0  0  0
    4.5025   -1.3470   -0.7111 C   0  0  0  0  0  0  0  0  0  0  0  0
    5.3312   -1.2266    0.3684 C   0  0  0  0  0  0  0  0  0  0  0  0
    7.0660   -1.5340    0.1985 Cl  0  0  0  0  0  0  0  0  0  0  0  0
    4.7861   -0.8642    1.5739 C   0  0  0  0  0  0  0  0  0  0  0  0
    3.4758   -0.6258    1.7261 C   0  0  0  0  0  0  0  0  0  0  0  0
   -0.0701    0.4635   -0.1319 C   0  0  1  0  0  0  0  0  0  0  0  0
    0.0453   -0.0559   -1.5830 C   0  0  0  0  0  0  0  0  0  0  0  0
   -0.2920   -1.4626   -1.7875 C   0  0  0  0  0  0  0  0  0  0  0  0
   -1.6006   -1.8921   -1.1931 C   0  0  0  0  0  0  0  0  0  0  0  0
   -2.1900   -1.0242   -0.1813 C   0  0  2  0  0  0  0  0  0  0  0  0
   -2.6957   -1.8107    1.0114 C   0  0  0  0  0  0  0  0  0  0  0  0
   -3.9644   -2.4995    0.4716 C   0  0  0  0  0  0  0  0  0  0  0  0
   -3.9773   -2.1370   -0.8967 O   0  0  0  0  0  0  0  0  0  0  0  0
   -3.6426   -0.7565   -0.7112 C   0  0  0  0  0  0  0  0  0  0  0  0
   -1.5502    0.2811    0.1870 C   0  0  2  0  0  0  0  0  0  0  0  0
   -2.4372    1.4314   -0.1600 C   0  0  0  0  0  0  0  0  0  0  0  0
   -1.8716    2.1802   -1.2754 O   0  0  0  0  0  0  0  0  0  0  0  0
   -0.6512    2.7400   -0.9498 C   0  0  0  0  0  0  0  0  0  0  0  0
   -0.3472    4.0749   -1.2426 C   0  0  0  0  0  0  0  0  0  0  0  0
   -1.2955    4.8046   -1.8911 F   0  0  0  0  0  0  0  0  0  0  0  0
    0.8633    4.6107   -0.8940 C   0  0  0  0  0  0  0  0  0  0  0  0
    1.7469    3.7988   -0.2575 C   0  0  0  0  0  0  0  0  0  0  0  0
    1.4765    2.4733    0.0442 C   0  0  0  0  0  0  0  0  0  0  0  0
    2.3464    1.7288    0.6990 F   0  0  0  0  0  0  0  0  0  0  0  0
    0.2566    1.8890   -0.2985 C   0  0  0  0  0  0  0  0  0  0  0  0
    2.5766   -1.2270   -1.4525 H   0  0  0  0  0  0  0  0  0  0  0  0
    4.9097   -1.6299   -1.6640 H   0  0  0  0  0  0  0  0  0  0  0  0
    5.5124   -0.7874    2.3960 H   0  0  0  0  0  0  0  0  0  0  0  0
    3.0373   -0.3367    2.6854 H   0  0  0  0  0  0  0  0  0  0  0  0
   -0.6828    0.5484   -2.2315 H   0  0  0  0  0  0  0  0  0  0  0  0
    1.0105    0.2598   -1.9587 H   0  0  0  0  0  0  0  0  0  0  0  0
   -0.2912   -1.5981   -2.9202 H   0  0  0  0  0  0  0  0  0  0  0  0
    0.5222   -2.1366   -1.4905 H   0  0  0  0  0  0  0  0  0  0  0  0
   -1.5032   -2.9478   -0.8681 H   0  0  0  0  0  0  0  0  0  0  0  0
   -2.2802   -2.0298   -2.1042 H   0  0  0  0  0  0  0  0  0  0  0  0
   -3.0169   -1.0795    1.7824 H   0  0  0  0  0  0  0  0  0  0  0  0
   -2.0859   -2.6146    1.3737 H   0  0  0  0  0  0  0  0  0  0  0  0
   -4.8585   -2.0132    0.9061 H   0  0  0  0  0  0  0  0  0  0  0  0
   -3.9559   -3.5798    0.6167 H   0  0  0  0  0  0  0  0  0  0  0  0
   -4.3130   -0.4391    0.0634 H   0  0  0  0  0  0  0  0  0  0  0  0
   -3.6585   -0.3423   -1.6952 H   0  0  0  0  0  0  0  0  0  0  0  0
   -1.5256    0.2639    1.3286 H   0  0  0  0  0  0  0  0  0  0  0  0
   -3.4337    1.2101   -0.5236 H   0  0  0  0  0  0  0  0  0  0  0  0
   -2.6321    2.1076    0.7214 H   0  0  0  0  0  0  0  0  0  0  0  0
    1.0969    5.6207   -1.1147 H   0  0  0  0  0  0  0  0  0  0  0  0
    2.7464    4.1443    0.0636 H   0  0  0  0  0  0  0  0  0  0  0  0
  1  2  2  0
  2  3  2  0
  2  4  1  0
  4  5  2  0
  5  6  1  0
  6  7  2  0
  7  8  1  0
  7  9  1  0
  9 10  2  0
 11  2  1  1
 11 12  1  0
 12 13  1  0
 13 14  1  0
 15 14  1  6
 15 16  1  0
 16 17  1  0
 17 18  1  0
 18 19  1  0
 15 20  1  0
 20 21  1  0
 21 22  1  0
 22 23  1  0
 23 24  2  0
 24 25  1  0
 24 26  1  0
 26 27  2  0
 27 28  1  0
 28 29  1  0
 28 30  2  0
 10  4  1  0
 20 11  1  0
 30 23  1  0
 30 11  1  0
 19 15  1  0
  5 31  1  0
  6 32  1  0
  9 33  1  0
 10 34  1  0
 12 35  1  0
 12 36  1  0
 13 37  1  0
 13 38  1  0
 14 39  1  0
 14 40  1  0
 16 41  1  0
 16 42  1  0
 17 43  1  0
 17 44  1  0
 19 45  1  0
 19 46  1  0
 20 47  1  1
 21 48  1  0
 21 49  1  0
 26 50  1  0
 27 51  1  0
M  END
$$$$
