
     RDKit          3D

 36 37  0  0  0  0  0  0  0  0999 V2000
   -2.3122   -3.5600    0.5130 C   0  0  0  0  0  0  0  0  0  0  0  0
   -2.7579   -2.3713    1.0875 O   0  0  0  0  0  0  0  0  0  0  0  0
   -2.2639   -1.1271    0.7199 C   0  0  0  0  0  0  0  0  0  0  0  0
   -1.2847   -1.0796   -0.2632 C   0  0  0  0  0  0  0  0  0  0  0  0
   -0.7583    0.1298   -0.6670 C   0  0  0  0  0  0  0  0  0  0  0  0
    0.2778    0.1547   -1.7212 C   0  0  0  0  0  0  0  0  0  0  0  0
    1.6408   -0.1057   -1.2618 C   0  0  0  0  0  0  0  0  0  0  0  0
    2.1521   -1.3871   -1.5013 C   0  0  0  0  0  0  0  0  0  0  0  0
    3.3789   -1.6503   -1.0875 N   0  0  0  0  0  0  0  0  0  0  0  0
    4.1489   -0.7496   -0.4530 C   0  0  0  0  0  0  0  0  0  0  0  0
    5.4509   -1.1635   -0.0597 N   0  0  0  0  0  0  0  0  0  0  0  0
    3.6817    0.4825   -0.2128 N   0  0  0  0  0  0  0  0  0  0  0  0
    2.4213    0.8192   -0.6149 C   0  0  0  0  0  0  0  0  0  0  0  0
    1.9013    2.1187   -0.3791 N   0  0  0  0  0  0  0  0  0  0  0  0
   -1.2212    1.2827   -0.0787 C   0  0  0  0  0  0  0  0  0  0  0  0
   -2.1976    1.2746    0.9059 C   0  0  0  0  0  0  0  0  0  0  0  0
   -2.6866    2.4179    1.5196 O   0  0  0  0  0  0  0  0  0  0  0  0
   -2.1630    3.6724    1.1231 C   0  0  0  0  0  0  0  0  0  0  0  0
   -2.7050    0.0475    1.2887 C   0  0  0  0  0  0  0  0  0  0  0  0
   -3.6883   -0.0115    2.2752 O   0  0  0  0  0  0  0  0  0  0  0  0
   -2.4019   -3.4593   -0.5878 H   0  0  0  0  0  0  0  0  0  0  0  0
   -1.2545   -3.7336    0.8243 H   0  0  0  0  0  0  0  0  0  0  0  0
   -2.9227   -4.4060    0.8969 H   0  0  0  0  0  0  0  0  0  0  0  0
   -0.9499   -2.0115   -0.6994 H   0  0  0  0  0  0  0  0  0  0  0  0
   -0.0487   -0.5650   -2.5136 H   0  0  0  0  0  0  0  0  0  0  0  0
    0.2800    1.1450   -2.2416 H   0  0  0  0  0  0  0  0  0  0  0  0
    1.5387   -2.1137   -2.0094 H   0  0  0  0  0  0  0  0  0  0  0  0
    5.4906   -1.7523    0.8184 H   0  0  0  0  0  0  0  0  0  0  0  0
    6.2895   -0.9003   -0.6037 H   0  0  0  0  0  0  0  0  0  0  0  0
    1.4311    2.6367   -1.1576 H   0  0  0  0  0  0  0  0  0  0  0  0
    1.9770    2.5692    0.5509 H   0  0  0  0  0  0  0  0  0  0  0  0
   -0.8574    2.2596   -0.3504 H   0  0  0  0  0  0  0  0  0  0  0  0
   -1.0748    3.6825    1.3578 H   0  0  0  0  0  0  0  0  0  0  0  0
   -2.6905    4.5163    1.6114 H   0  0  0  0  0  0  0  0  0  0  0  0
   -2.2435    3.7083    0.0172 H   0  0  0  0  0  0  0  0  0  0  0  0
   -3.5779   -0.7703    2.9540 H   0  0  0  0  0  0  0  0  0  0  0  0
  1  2  1  0
  2  3  1  0
  3  4  2  0
  4  5  1  0
  5  6  1  0
  6  7  1  0
  7  8  2  0
  8  9  1  0
  9 10  2  0
 10 11  1  0
 10 12  1  0
 12 13  2  0
 13 14  1  0
  5 15  2  0
 15 16  1  0
 16 17  1  0
 17 18  1  0
 16 19  2  0
 19 20  1  0
 19  3  1  0
 13  7  1  0
  1 21  1  0
  1 22  1  0
  1 23  1  0
  4 24  1  0
  6 25  1  0
  6 26  1  0
  8 27  1  0
 11 28  1  0
 11 29  1  0
 14 30  1  0
 14 31  1  0
 15 32  1  0
 18 33  1  0
 18 34  1  0
 18 35  1  0
 20 36  1  0
M  END
$$$$
