
     RDKit          3D

 35 36  0  0  0  0  0  0  0  0999 V2000
    6.0625   -0.7731    0.8195 C   0  0  0  0  0  0  0  0  0  0  0  0
    5.0060    0.1262    1.0337 O   0  0  0  0  0  0  0  0  0  0  0  0
    3.7534   -0.1896    0.5134 C   0  0  0  0  0  0  0  0  0  0  0  0
    3.5626   -1.3486   -0.1883 C   0  0  0  0  0  0  0  0  0  0  0  0
    2.3203   -1.6436   -0.6924 C   0  0  0  0  0  0  0  0  0  0  0  0
    1.1926   -0.8073   -0.5310 C   0  0  0  0  0  0  0  0  0  0  0  0
   -0.0550   -1.2423   -1.0083 C   0  0  0  0  0  0  0  0  0  0  0  0
    0.1099   -2.3012   -1.8529 O   0  0  0  0  0  0  0  0  0  0  0  0
   -1.4268   -0.9588   -0.9099 C   0  0  0  0  0  0  0  0  0  0  0  0
   -2.1253   -0.1296   -0.2323 C   0  0  0  0  0  0  0  0  0  0  0  0
   -3.6053    0.0061   -0.2895 C   0  0  0  0  0  0  0  0  0  0  0  0
   -4.1942    0.9643    0.5183 C   0  0  0  0  0  0  0  0  0  0  0  0
   -5.5506    1.1224    0.4968 C   0  0  0  0  0  0  0  0  0  0  0  0
   -6.3510    0.3455   -0.3154 C   0  0  0  0  0  0  0  0  0  0  0  0
   -5.7443   -0.5710   -1.0827 N   0  0  0  0  0  0  0  0  0  0  0  0
   -4.3928   -0.7462   -1.0775 C   0  0  0  0  0  0  0  0  0  0  0  0
    1.4414    0.3286    0.1704 C   0  0  0  0  0  0  0  0  0  0  0  0
    0.4591    1.2424    0.3997 O   0  0  0  0  0  0  0  0  0  0  0  0
    0.7008    2.4144    1.1190 C   0  0  0  0  0  0  0  0  0  0  0  0
    2.6921    0.6474    0.6915 C   0  0  0  0  0  0  0  0  0  0  0  0
    6.4046   -0.7379   -0.2338 H   0  0  0  0  0  0  0  0  0  0  0  0
    5.7521   -1.7855    1.1417 H   0  0  0  0  0  0  0  0  0  0  0  0
    6.9095   -0.4360    1.4617 H   0  0  0  0  0  0  0  0  0  0  0  0
    4.3955   -2.0570   -0.3583 H   0  0  0  0  0  0  0  0  0  0  0  0
    2.2361   -2.5700   -1.2319 H   0  0  0  0  0  0  0  0  0  0  0  0
   -2.0935   -1.6061   -1.5852 H   0  0  0  0  0  0  0  0  0  0  0  0
   -1.6312    0.5048    0.4679 H   0  0  0  0  0  0  0  0  0  0  0  0
   -3.6034    1.6104    1.1845 H   0  0  0  0  0  0  0  0  0  0  0  0
   -6.0361    1.8754    1.1289 H   0  0  0  0  0  0  0  0  0  0  0  0
   -7.4208    0.5005   -0.3046 H   0  0  0  0  0  0  0  0  0  0  0  0
   -3.9838   -1.5227   -1.7405 H   0  0  0  0  0  0  0  0  0  0  0  0
    1.5114    3.0357    0.6890 H   0  0  0  0  0  0  0  0  0  0  0  0
    1.0639    2.1302    2.1443 H   0  0  0  0  0  0  0  0  0  0  0  0
   -0.2167    3.0148    1.2988 H   0  0  0  0  0  0  0  0  0  0  0  0
    2.8569    1.5575    1.2465 H   0  0  0  0  0  0  0  0  0  0  0  0
  1  2  1  0
  2  3  1  0
  3  4  2  0
  4  5  1  0
  5  6  2  0
  6  7  1  0
  7  8  2  0
  7  9  1  0
  9 10  2  0
 10 11  1  0
 11 12  2  0
 12 13  1  0
 13 14  2  0
 14 15  1  0
 15 16  2  0
  6 17  1  0
 17 18  1  0
 18 19  1  0
 17 20  2  0
 20  3  1  0
 16 11  1  0
  1 21  1  0
  1 22  1  0
  1 23  1  0
  4 24  1  0
  5 25  1  0
  9 26  1  0
 10 27  1  0
 12 28  1  0
 13 29  1  0
 14 30  1  0
 16 31  1  0
 19 32  1  0
 19 33  1  0
 19 34  1  0
 20 35  1  0
M  END
$$$$
