
     RDKit          3D

 55 57  0  0  0  0  0  0  0  0999 V2000
    7.4157    0.3356    2.3891 C   0  0  0  0  0  0  0  0  0  0  0  0
    6.9198    0.7104    1.1235 O   0  0  0  0  0  0  0  0  0  0  0  0
    5.5668    0.4721    0.8306 C   0  0  0  0  0  0  0  0  0  0  0  0
    5.0237    0.8140   -0.3837 C   0  0  0  0  0  0  0  0  0  0  0  0
    3.6795    0.5670   -0.6492 C   0  0  0  0  0  0  0  0  0  0  0  0
    2.8433   -0.0155    0.2618 C   0  0  0  0  0  0  0  0  0  0  0  0
    1.4254   -0.2885    0.0203 C   0  0  2  0  0  0  0  0  0  0  0  0
    1.2214   -1.1361   -1.5688 S   0  0  0  0  0  0  0  0  0  0  0  0
   -0.3981   -1.8691   -1.5727 C   0  0  0  0  0  0  0  0  0  0  0  0
   -0.4330   -2.9857   -2.3984 C   0  0  0  0  0  0  0  0  0  0  0  0
   -1.5670   -3.7411   -2.5812 C   0  0  0  0  0  0  0  0  0  0  0  0
   -2.6987   -3.3493   -1.9044 C   0  0  0  0  0  0  0  0  0  0  0  0
   -2.6679   -2.2201   -1.0678 C   0  0  0  0  0  0  0  0  0  0  0  0
   -1.5305   -1.4638   -0.8855 C   0  0  0  0  0  0  0  0  0  0  0  0
   -1.7716   -0.3811    0.0109 N   0  0  0  0  0  0  0  0  0  0  0  0
   -3.0354   -0.3115    0.7086 C   0  0  0  0  0  0  0  0  0  0  0  0
   -4.1023    0.4478    0.0159 C   0  0  0  0  0  0  0  0  0  0  0  0
   -5.3196    0.4359    0.8116 N   0  0  0  0  0  0  0  0  0  0  0  0
   -5.9296   -0.8587    0.8963 C   0  0  0  0  0  0  0  0  0  0  0  0
   -5.1787    1.0387    2.1012 C   0  0  0  0  0  0  0  0  0  0  0  0
   -0.8475    0.6644    0.2878 C   0  0  0  0  0  0  0  0  0  0  0  0
   -1.3728    1.5776    1.0003 O   0  0  0  0  0  0  0  0  0  0  0  0
    0.5686    0.9439   -0.0522 C   0  0  2  0  0  0  0  0  0  0  0  0
    0.6956    1.5396   -1.3200 O   0  0  0  0  0  0  0  0  0  0  0  0
    1.2171    2.7986   -1.4973 C   0  0  0  0  0  0  0  0  0  0  0  0
    1.3277    3.3725   -2.8445 C   0  0  0  0  0  0  0  0  0  0  0  0
    1.6111    3.4891   -0.5174 O   0  0  0  0  0  0  0  0  0  0  0  0
    3.4156   -0.3566    1.4930 C   0  0  0  0  0  0  0  0  0  0  0  0
    4.7371   -0.1166    1.7601 C   0  0  0  0  0  0  0  0  0  0  0  0
    8.4922    0.6039    2.4724 H   0  0  0  0  0  0  0  0  0  0  0  0
    7.3055   -0.7792    2.4572 H   0  0  0  0  0  0  0  0  0  0  0  0
    6.7908    0.7905    3.1681 H   0  0  0  0  0  0  0  0  0  0  0  0
    5.6468    1.2786   -1.1377 H   0  0  0  0  0  0  0  0  0  0  0  0
    3.2973    0.8444   -1.6168 H   0  0  0  0  0  0  0  0  0  0  0  0
    1.0580   -0.9830    0.8185 H   0  0  0  0  0  0  0  0  0  0  0  0
    0.4581   -3.3073   -2.9416 H   0  0  0  0  0  0  0  0  0  0  0  0
   -1.5865   -4.6080   -3.2258 H   0  0  0  0  0  0  0  0  0  0  0  0
   -3.6391   -3.8991   -1.9991 H   0  0  0  0  0  0  0  0  0  0  0  0
   -3.5412   -1.9135   -0.5413 H   0  0  0  0  0  0  0  0  0  0  0  0
   -2.8003    0.3558    1.6100 H   0  0  0  0  0  0  0  0  0  0  0  0
   -3.3292   -1.2155    1.2709 H   0  0  0  0  0  0  0  0  0  0  0  0
   -4.3636    0.2231   -1.0005 H   0  0  0  0  0  0  0  0  0  0  0  0
   -3.7807    1.5373    0.0030 H   0  0  0  0  0  0  0  0  0  0  0  0
   -6.8720   -0.7370    1.4762 H   0  0  0  0  0  0  0  0  0  0  0  0
   -6.2180   -1.2424   -0.1052 H   0  0  0  0  0  0  0  0  0  0  0  0
   -5.3225   -1.5997    1.4618 H   0  0  0  0  0  0  0  0  0  0  0  0
   -4.8509    0.2447    2.8186 H   0  0  0  0  0  0  0  0  0  0  0  0
   -4.4766    1.8824    2.0320 H   0  0  0  0  0  0  0  0  0  0  0  0
   -6.1501    1.4561    2.4507 H   0  0  0  0  0  0  0  0  0  0  0  0
    0.9848    1.6680    0.6928 H   0  0  0  0  0  0  0  0  0  0  0  0
    2.3624    3.7946   -2.9357 H   0  0  0  0  0  0  0  0  0  0  0  0
    0.5959    4.1639   -3.0587 H   0  0  0  0  0  0  0  0  0  0  0  0
    1.2397    2.5494   -3.5932 H   0  0  0  0  0  0  0  0  0  0  0  0
    2.7716   -0.8127    2.2142 H   0  0  0  0  0  0  0  0  0  0  0  0
    5.1120   -0.4090    2.7413 H   0  0  0  0  0  0  0  0  0  0  0  0
  1  2  1  0
  2  3  1  0
  3  4  2  0
  4  5  1  0
  5  6  2  0
  6  7  1  0
  7  8  1  0
  8  9  1  0
  9 10  2  0
 10 11  1  0
 11 12  2  0
 12 13  1  0
 13 14  2  0
 14 15  1  0
 15 16  1  0
 16 17  1  0
 17 18  1  0
 18 19  1  0
 18 20  1  0
 15 21  1  0
 21 22  2  0
 21 23  1  0
 23 24  1  0
 24 25  1  0
 25 26  1  0
 25 27  2  0
  6 28  1  0
 28 29  2  0
 29  3  1  0
 23  7  1  0
 14  9  1  0
  1 30  1  0
  1 31  1  0
  1 32  1  0
  4 33  1  0
  5 34  1  0
  7 35  1  1
 10 36  1  0
 11 37  1  0
 12 38  1  0
 13 39  1  0
 16 40  1  0
 16 41  1  0
 17 42  1  0
 17 43  1  0
 19 44  1  0
 19 45  1  0
 19 46  1  0
 20 47  1  0
 20 48  1  0
 20 49  1  0
 23 50  1  1
 26 51  1  0
 26 52  1  0
 26 53  1  0
 28 54  1  0
 29 55  1  0
M  END
$$$$
