
     RDKit          3D

 53 57  0  0  0  0  0  0  0  0999 V2000
   -1.6965   -0.2347    2.2484 O   0  0  0  0  0  0  0  0  0  0  0  0
   -1.2810    0.5664    1.3671 C   0  0  0  0  0  0  0  0  0  0  0  0
   -2.2711    1.1505    0.5287 N   0  0  0  0  0  0  0  0  0  0  0  0
   -3.6971    0.8365    0.6833 C   0  0  1  0  0  0  0  0  0  0  0  0
   -4.6604    1.9444    0.3285 C   0  0  0  0  0  0  0  0  0  0  0  0
   -4.4446    0.8300   -0.6384 C   0  0  2  0  0  0  0  0  0  0  0  0
   -5.4677   -0.2344   -0.7670 C   0  0  0  0  0  0  0  0  0  0  0  0
   -6.1892   -0.5914    0.3442 C   0  0  0  0  0  0  0  0  0  0  0  0
   -7.1593   -1.5947    0.2411 C   0  0  0  0  0  0  0  0  0  0  0  0
   -7.4059   -2.2319   -0.9518 C   0  0  0  0  0  0  0  0  0  0  0  0
   -6.6822   -1.8703   -2.0559 C   0  0  0  0  0  0  0  0  0  0  0  0
   -5.7258   -0.8880   -1.9749 C   0  0  0  0  0  0  0  0  0  0  0  0
    0.0884    0.8246    1.2698 N   0  0  0  0  0  0  0  0  0  0  0  0
    1.0005    0.1490    2.2032 C   0  0  0  0  0  0  0  0  0  0  0  0
    1.8820   -0.7383    1.3305 C   0  0  0  0  0  0  0  0  0  0  0  0
    2.6337    0.0835    0.2927 C   0  0  0  0  0  0  0  0  0  0  0  0
    3.6371    0.9173    1.0237 C   0  0  0  0  0  0  0  0  0  0  0  0
    4.8571    1.2432    0.1929 C   0  0  0  0  0  0  0  0  0  0  0  0
    5.4008    0.0651   -0.4997 C   0  0  0  0  0  0  0  0  0  0  0  0
    6.7459    0.0071   -0.7539 C   0  0  0  0  0  0  0  0  0  0  0  0
    7.2235   -1.1171   -1.4078 C   0  0  0  0  0  0  0  0  0  0  0  0
    8.5557   -1.2562   -1.7013 F   0  0  0  0  0  0  0  0  0  0  0  0
    6.3942   -2.1519   -1.7979 C   0  0  0  0  0  0  0  0  0  0  0  0
    5.0370   -2.0592   -1.5239 C   0  0  0  0  0  0  0  0  0  0  0  0
    4.5555   -0.9428   -0.8733 C   0  0  0  0  0  0  0  0  0  0  0  0
    3.2198   -0.8460   -0.6009 O   0  0  0  0  0  0  0  0  0  0  0  0
    1.6963    0.9438   -0.5254 C   0  0  0  0  0  0  0  0  0  0  0  0
    0.7229    1.7080    0.3251 C   0  0  0  0  0  0  0  0  0  0  0  0
   -1.9375    1.8122   -0.2010 H   0  0  0  0  0  0  0  0  0  0  0  0
   -3.9961    0.1377    1.4622 H   0  0  0  0  0  0  0  0  0  0  0  0
   -5.6243    2.0062    0.8785 H   0  0  0  0  0  0  0  0  0  0  0  0
   -4.2191    2.9316    0.0926 H   0  0  0  0  0  0  0  0  0  0  0  0
   -3.8938    1.0807   -1.5677 H   0  0  0  0  0  0  0  0  0  0  0  0
   -6.0152   -0.1021    1.3068 H   0  0  0  0  0  0  0  0  0  0  0  0
   -7.7166   -1.8597    1.1325 H   0  0  0  0  0  0  0  0  0  0  0  0
   -8.1764   -3.0047   -0.9603 H   0  0  0  0  0  0  0  0  0  0  0  0
   -6.8679   -2.3616   -2.9890 H   0  0  0  0  0  0  0  0  0  0  0  0
   -5.1256   -0.5685   -2.8305 H   0  0  0  0  0  0  0  0  0  0  0  0
    0.4642   -0.5134    2.8926 H   0  0  0  0  0  0  0  0  0  0  0  0
    1.6151    0.9228    2.6856 H   0  0  0  0  0  0  0  0  0  0  0  0
    2.6473   -1.2646    1.9341 H   0  0  0  0  0  0  0  0  0  0  0  0
    1.1925   -1.4295    0.7997 H   0  0  0  0  0  0  0  0  0  0  0  0
    3.1664    1.8847    1.2895 H   0  0  0  0  0  0  0  0  0  0  0  0
    3.9184    0.4060    1.9817 H   0  0  0  0  0  0  0  0  0  0  0  0
    4.6797    2.0934   -0.4744 H   0  0  0  0  0  0  0  0  0  0  0  0
    5.6421    1.5858    0.9246 H   0  0  0  0  0  0  0  0  0  0  0  0
    7.4303    0.8037   -0.4613 H   0  0  0  0  0  0  0  0  0  0  0  0
    6.7605   -3.0370   -2.3111 H   0  0  0  0  0  0  0  0  0  0  0  0
    4.3297   -2.8323   -1.8008 H   0  0  0  0  0  0  0  0  0  0  0  0
    2.3300    1.6861   -1.0636 H   0  0  0  0  0  0  0  0  0  0  0  0
    1.1422    0.3667   -1.2760 H   0  0  0  0  0  0  0  0  0  0  0  0
    1.2502    2.4923    0.9435 H   0  0  0  0  0  0  0  0  0  0  0  0
    0.0348    2.2510   -0.3217 H   0  0  0  0  0  0  0  0  0  0  0  0
  1  2  2  0
  2  3  1  0
  3  4  1  0
  4  5  1  0
  5  6  1  0
  6  7  1  0
  7  8  2  0
  8  9  1  0
  9 10  2  0
 10 11  1  0
 11 12  2  0
  2 13  1  0
 13 14  1  0
 14 15  1  0
 15 16  1  0
 16 17  1  0
 17 18  1  0
 18 19  1  0
 19 20  2  0
 20 21  1  0
 21 22  1  0
 21 23  2  0
 23 24  1  0
 24 25  2  0
 25 26  1  0
 16 27  1  0
 27 28  1  0
  6  4  1  0
 12  7  1  0
 28 13  1  0
 26 16  1  0
 25 19  1  0
  3 29  1  0
  4 30  1  1
  5 31  1  0
  5 32  1  0
  6 33  1  6
  8 34  1  0
  9 35  1  0
 10 36  1  0
 11 37  1  0
 12 38  1  0
 14 39  1  0
 14 40  1  0
 15 41  1  0
 15 42  1  0
 17 43  1  0
 17 44  1  0
 18 45  1  0
 18 46  1  0
 20 47  1  0
 23 48  1  0
 24 49  1  0
 27 50  1  0
 27 51  1  0
 28 52  1  0
 28 53  1  0
M  END
$$$$
