
     RDKit          3D

 37 40  0  0  0  0  0  0  0  0999 V2000
   -2.9399    1.5847   -1.0464 C   0  0  0  0  0  0  0  0  0  0  0  0
   -3.5036    0.4732   -0.2573 C   0  0  0  0  0  0  0  0  0  0  0  0
   -4.8649    0.3304   -0.1117 C   0  0  0  0  0  0  0  0  0  0  0  0
   -5.3620   -0.7176    0.6261 C   0  0  0  0  0  0  0  0  0  0  0  0
   -4.5129   -1.5812    1.1901 N   0  0  0  0  0  0  0  0  0  0  0  0
   -3.1878   -1.4669    1.0653 C   0  0  0  0  0  0  0  0  0  0  0  0
   -2.6399   -0.4230    0.3287 C   0  0  0  0  0  0  0  0  0  0  0  0
   -1.1872   -0.3552    0.2369 C   0  0  0  0  0  0  0  0  0  0  0  0
   -0.4926   -1.4994   -0.0602 C   0  0  0  0  0  0  0  0  0  0  0  0
    0.9066   -1.5027   -0.1600 C   0  0  0  0  0  0  0  0  0  0  0  0
    1.4363   -2.6697   -0.4499 F   0  0  0  0  0  0  0  0  0  0  0  0
    1.5753   -0.3257    0.0476 C   0  0  0  0  0  0  0  0  0  0  0  0
    0.8919    0.8468    0.3501 C   0  0  0  0  0  0  0  0  0  0  0  0
   -0.5063    0.8139    0.4421 C   0  0  0  0  0  0  0  0  0  0  0  0
    1.4801    2.1595    0.5928 C   0  0  0  0  0  0  0  0  0  0  0  0
    2.9362    2.2267    0.5051 C   0  0  0  0  0  0  0  0  0  0  0  0
    3.6095    0.9587    0.1820 C   0  0  0  0  0  0  0  0  0  0  0  0
    4.9486    0.7567    0.0430 N   0  0  0  0  0  0  0  0  0  0  0  0
    5.1350   -0.4900   -0.2408 N   0  0  0  0  0  0  0  0  0  0  0  0
    3.9200   -1.1612   -0.3001 C   0  0  0  0  0  0  0  0  0  0  0  0
    3.8248   -2.5954   -0.6050 C   0  0  0  0  0  0  0  0  0  0  0  0
    3.0150   -0.2345   -0.0346 N   0  0  0  0  0  0  0  0  0  0  0  0
   -1.9698    1.3600   -1.5165 H   0  0  0  0  0  0  0  0  0  0  0  0
   -2.9795    2.5459   -0.5024 H   0  0  0  0  0  0  0  0  0  0  0  0
   -3.6486    1.7319   -1.9163 H   0  0  0  0  0  0  0  0  0  0  0  0
   -5.5534    1.0512   -0.5831 H   0  0  0  0  0  0  0  0  0  0  0  0
   -6.4526   -0.8356    0.7453 H   0  0  0  0  0  0  0  0  0  0  0  0
   -2.5734   -2.2131    1.5568 H   0  0  0  0  0  0  0  0  0  0  0  0
   -0.9943   -2.4546   -0.2316 H   0  0  0  0  0  0  0  0  0  0  0  0
   -1.0782    1.6992    0.6770 H   0  0  0  0  0  0  0  0  0  0  0  0
    1.1607    2.5394    1.6048 H   0  0  0  0  0  0  0  0  0  0  0  0
    0.9772    2.8784   -0.1216 H   0  0  0  0  0  0  0  0  0  0  0  0
    3.2197    2.9450   -0.3217 H   0  0  0  0  0  0  0  0  0  0  0  0
    3.4463    2.6512    1.4059 H   0  0  0  0  0  0  0  0  0  0  0  0
    3.4456   -2.8599   -1.5998 H   0  0  0  0  0  0  0  0  0  0  0  0
    3.5801   -3.2545    0.2436 H   0  0  0  0  0  0  0  0  0  0  0  0
    4.9380   -2.9127   -0.7574 H   0  0  0  0  0  0  0  0  0  0  0  0
  1  2  1  0
  2  3  2  0
  3  4  1  0
  4  5  2  0
  5  6  1  0
  6  7  2  0
  7  8  1  0
  8  9  2  0
  9 10  1  0
 10 11  1  0
 10 12  2  0
 12 13  1  0
 13 14  2  0
 13 15  1  0
 15 16  1  0
 16 17  1  0
 17 18  2  0
 18 19  1  0
 19 20  2  0
 20 21  1  0
 20 22  1  0
  7  2  1  0
 14  8  1  0
 22 17  1  0
 22 12  1  0
  1 23  1  0
  1 24  1  0
  1 25  1  0
  3 26  1  0
  4 27  1  0
  6 28  1  0
  9 29  1  0
 14 30  1  0
 15 31  1  0
 15 32  1  0
 16 33  1  0
 16 34  1  0
 21 35  1  0
 21 36  1  0
 21 37  1  0
M  END
$$$$
