
     RDKit          3D

 56 59  0  0  0  0  0  0  0  0999 V2000
   10.2478   -0.2354   -1.3352 C   0  0  0  0  0  0  0  0  0  0  0  0
    8.8868    0.2687   -1.0815 C   0  0  0  0  0  0  0  0  0  0  0  0
    8.1310    0.6905   -2.1688 C   0  0  0  0  0  0  0  0  0  0  0  0
    6.8649    1.1599   -1.9354 C   0  0  0  0  0  0  0  0  0  0  0  0
    6.1683    1.5475   -2.9274 O   0  0  0  0  0  0  0  0  0  0  0  0
    6.3263    1.2284   -0.6983 N   0  0  0  0  0  0  0  0  0  0  0  0
    7.0645    0.8186    0.3408 C   0  0  0  0  0  0  0  0  0  0  0  0
    6.4223    0.8600    1.9989 S   0  0  0  0  0  0  0  0  0  0  0  0
    4.7048    1.3654    2.0390 C   0  0  0  0  0  0  0  0  0  0  0  0
    3.8096    0.3176    1.4561 C   0  0  0  0  0  0  0  0  0  0  0  0
    2.3947    0.7928    1.5065 C   0  0  0  0  0  0  0  0  0  0  0  0
    2.1519    1.9209    2.0002 O   0  0  0  0  0  0  0  0  0  0  0  0
    1.3195    0.0064    1.0129 N   0  0  0  0  0  0  0  0  0  0  0  0
   -0.0657    0.4392    1.0478 C   0  0  1  0  0  0  0  0  0  0  0  0
   -0.5020    0.6545   -0.3840 C   0  0  0  0  0  0  0  0  0  0  0  0
   -2.0013    0.8718   -0.3225 C   0  0  0  0  0  0  0  0  0  0  0  0
   -2.5978   -0.5032   -0.1119 C   0  0  2  0  0  0  0  0  0  0  0  0
   -4.0600   -0.3476    0.1874 C   0  0  0  0  0  0  0  0  0  0  0  0
   -4.5601    0.2381    1.2950 N   0  0  0  0  0  0  0  0  0  0  0  0
   -5.8929    0.1915    1.2125 N   0  0  0  0  0  0  0  0  0  0  0  0
   -6.2215   -0.4211    0.0571 C   0  0  0  0  0  0  0  0  0  0  0  0
   -7.5792   -0.6747   -0.4165 C   0  0  0  0  0  0  0  0  0  0  0  0
   -7.7825   -1.3127   -1.6218 C   0  0  0  0  0  0  0  0  0  0  0  0
   -9.0778   -1.5566   -2.0772 C   0  0  0  0  0  0  0  0  0  0  0  0
  -10.1891   -1.1756   -1.3520 C   0  0  0  0  0  0  0  0  0  0  0  0
   -9.9796   -0.5380   -0.1477 C   0  0  0  0  0  0  0  0  0  0  0  0
   -8.6852   -0.2928    0.3103 C   0  0  0  0  0  0  0  0  0  0  0  0
   -5.0835   -0.7225   -0.5164 O   0  0  0  0  0  0  0  0  0  0  0  0
   -1.9061   -1.2865    0.9556 C   0  0  0  0  0  0  0  0  0  0  0  0
   -0.9301   -0.5324    1.7846 C   0  0  0  0  0  0  0  0  0  0  0  0
    8.3181    0.3540    0.1095 N   0  0  0  0  0  0  0  0  0  0  0  0
   10.9715    0.3646   -0.7201 H   0  0  0  0  0  0  0  0  0  0  0  0
   10.5570   -0.0958   -2.3772 H   0  0  0  0  0  0  0  0  0  0  0  0
   10.3745   -1.2830   -0.9879 H   0  0  0  0  0  0  0  0  0  0  0  0
    8.5536    0.6392   -3.1601 H   0  0  0  0  0  0  0  0  0  0  0  0
    5.3638    1.6064   -0.6107 H   0  0  0  0  0  0  0  0  0  0  0  0
    4.5488    2.3452    1.5214 H   0  0  0  0  0  0  0  0  0  0  0  0
    4.4033    1.5114    3.1120 H   0  0  0  0  0  0  0  0  0  0  0  0
    4.1013   -0.0282    0.4678 H   0  0  0  0  0  0  0  0  0  0  0  0
    3.8236   -0.5522    2.1878 H   0  0  0  0  0  0  0  0  0  0  0  0
    1.5923   -0.9315    0.6106 H   0  0  0  0  0  0  0  0  0  0  0  0
   -0.0713    1.4411    1.5254 H   0  0  0  0  0  0  0  0  0  0  0  0
    0.0335    1.5519   -0.7501 H   0  0  0  0  0  0  0  0  0  0  0  0
   -0.2969   -0.2450   -0.9867 H   0  0  0  0  0  0  0  0  0  0  0  0
   -2.2444    1.5511    0.5312 H   0  0  0  0  0  0  0  0  0  0  0  0
   -2.3430    1.2615   -1.2838 H   0  0  0  0  0  0  0  0  0  0  0  0
   -2.5402   -1.0179   -1.0935 H   0  0  0  0  0  0  0  0  0  0  0  0
   -6.9223   -1.6168   -2.2001 H   0  0  0  0  0  0  0  0  0  0  0  0
   -9.2497   -2.0526   -3.0140 H   0  0  0  0  0  0  0  0  0  0  0  0
  -11.2017   -1.3554   -1.6878 H   0  0  0  0  0  0  0  0  0  0  0  0
  -10.8368   -0.2243    0.4490 H   0  0  0  0  0  0  0  0  0  0  0  0
   -8.5085    0.2062    1.2527 H   0  0  0  0  0  0  0  0  0  0  0  0
   -1.4166   -2.1654    0.4796 H   0  0  0  0  0  0  0  0  0  0  0  0
   -2.6869   -1.7079    1.6246 H   0  0  0  0  0  0  0  0  0  0  0  0
   -0.2568   -1.2605    2.2897 H   0  0  0  0  0  0  0  0  0  0  0  0
   -1.4443    0.0154    2.6028 H   0  0  0  0  0  0  0  0  0  0  0  0
  1  2  1  0
  2  3  2  0
  3  4  1  0
  4  5  2  0
  4  6  1  0
  6  7  1  0
  7  8  1  0
  8  9  1  0
  9 10  1  0
 10 11  1  0
 11 12  2  0
 11 13  1  0
 13 14  1  0
 14 15  1  0
 15 16  1  0
 16 17  1  0
 17 18  1  0
 18 19  2  0
 19 20  1  0
 20 21  2  0
 21 22  1  0
 22 23  2  0
 23 24  1  0
 24 25  2  0
 25 26  1  0
 26 27  2  0
 21 28  1  0
 17 29  1  0
 29 30  1  0
  7 31  2  0
 31  2  1  0
 30 14  1  0
 28 18  1  0
 27 22  1  0
  1 32  1  0
  1 33  1  0
  1 34  1  0
  3 35  1  0
  6 36  1  0
  9 37  1  0
  9 38  1  0
 10 39  1  0
 10 40  1  0
 13 41  1  0
 14 42  1  1
 15 43  1  0
 15 44  1  0
 16 45  1  0
 16 46  1  0
 17 47  1  6
 23 48  1  0
 24 49  1  0
 25 50  1  0
 26 51  1  0
 27 52  1  0
 29 53  1  0
 29 54  1  0
 30 55  1  0
 30 56  1  0
M  END
$$$$
