
     RDKit          3D

 64 67  0  0  0  0  0  0  0  0999 V2000
    1.7313    2.4584    1.2612 O   0  0  0  0  0  0  0  0  0  0  0  0
    2.5743    1.5854    0.8098 C   0  0  0  0  0  0  0  0  0  0  0  0
    3.9985    1.8231    1.1161 C   0  0  0  0  0  0  0  0  0  0  0  0
    4.8985    0.8285    0.6005 N   0  0  0  0  0  0  0  0  0  0  0  0
    6.2819    0.9888    0.8471 C   0  0  0  0  0  0  0  0  0  0  0  0
    6.6595    1.9923    1.5023 O   0  0  0  0  0  0  0  0  0  0  0  0
    7.2678    0.0507    0.3786 C   0  0  0  0  0  0  0  0  0  0  0  0
    6.9281   -1.0747   -0.3193 C   0  0  0  0  0  0  0  0  0  0  0  0
    7.9314   -1.9533   -0.7485 C   0  0  0  0  0  0  0  0  0  0  0  0
    9.2627   -1.7238   -0.4911 C   0  0  0  0  0  0  0  0  0  0  0  0
    9.6142   -0.5974    0.2087 C   0  0  0  0  0  0  0  0  0  0  0  0
   11.0568   -0.3244    0.5017 C   0  0  0  0  0  0  0  0  0  0  0  0
   11.1620    1.0382    0.7676 F   0  0  0  0  0  0  0  0  0  0  0  0
   11.4335   -1.0374    1.6230 F   0  0  0  0  0  0  0  0  0  0  0  0
   11.8559   -0.6513   -0.5962 F   0  0  0  0  0  0  0  0  0  0  0  0
    8.6235    0.2593    0.6259 C   0  0  0  0  0  0  0  0  0  0  0  0
    2.0637    0.5056    0.0788 N   0  0  0  0  0  0  0  0  0  0  0  0
    0.6314    0.4124   -0.1382 C   0  0  0  0  0  0  0  0  0  0  0  0
    0.0534   -0.9589    0.0724 C   0  0  0  0  0  0  0  0  0  0  0  0
   -0.6691   -0.8126   -1.1395 N   0  0  0  0  0  0  0  0  0  0  0  0
   -2.0566   -0.6496   -1.1757 C   0  0  1  0  0  0  0  0  0  0  0  0
   -2.8299   -1.7790   -0.5258 C   0  0  0  0  0  0  0  0  0  0  0  0
   -4.2979   -1.5016   -0.7746 C   0  0  0  0  0  0  0  0  0  0  0  0
   -4.6465   -0.2308   -0.0360 C   0  0  2  0  0  0  0  0  0  0  0  0
   -6.1056    0.0101   -0.0032 C   0  0  0  0  0  0  0  0  0  0  0  0
   -6.8517    0.2302   -1.1406 C   0  0  0  0  0  0  0  0  0  0  0  0
   -8.2078    0.4478   -1.0153 C   0  0  0  0  0  0  0  0  0  0  0  0
   -8.8463    0.4538    0.2072 C   0  0  0  0  0  0  0  0  0  0  0  0
  -10.2864    0.6880    0.3183 C   0  0  0  0  0  0  0  0  0  0  0  0
  -10.9756    0.8875   -0.7025 O   0  0  0  0  0  0  0  0  0  0  0  0
  -10.9237    0.6955    1.5479 O   0  0  0  0  0  0  0  0  0  0  0  0
   -8.1108    0.2354    1.3439 C   0  0  0  0  0  0  0  0  0  0  0  0
   -6.7379    0.0151    1.2150 C   0  0  0  0  0  0  0  0  0  0  0  0
   -3.9410    0.9001   -0.7521 C   0  0  0  0  0  0  0  0  0  0  0  0
   -2.4495    0.6712   -0.5601 C   0  0  0  0  0  0  0  0  0  0  0  0
    0.2379    0.1825   -1.5710 C   0  0  0  0  0  0  0  0  0  0  0  0
    4.3048    2.7928    0.6689 H   0  0  0  0  0  0  0  0  0  0  0  0
    4.1525    1.9520    2.2121 H   0  0  0  0  0  0  0  0  0  0  0  0
    4.5521    0.0263    0.0712 H   0  0  0  0  0  0  0  0  0  0  0  0
    5.8982   -1.2759   -0.5328 H   0  0  0  0  0  0  0  0  0  0  0  0
    7.5756   -2.8154   -1.2922 H   0  0  0  0  0  0  0  0  0  0  0  0
    9.9990   -2.4278   -0.8406 H   0  0  0  0  0  0  0  0  0  0  0  0
    8.8657    1.1649    1.1837 H   0  0  0  0  0  0  0  0  0  0  0  0
    2.6707   -0.2196   -0.3081 H   0  0  0  0  0  0  0  0  0  0  0  0
    0.0507    1.2343    0.3312 H   0  0  0  0  0  0  0  0  0  0  0  0
    0.8846   -1.6975   -0.0122 H   0  0  0  0  0  0  0  0  0  0  0  0
   -0.5518   -1.0771    0.9996 H   0  0  0  0  0  0  0  0  0  0  0  0
   -2.4233   -0.6005   -2.2300 H   0  0  0  0  0  0  0  0  0  0  0  0
   -2.6893   -1.8310    0.5643 H   0  0  0  0  0  0  0  0  0  0  0  0
   -2.5336   -2.7148   -1.0518 H   0  0  0  0  0  0  0  0  0  0  0  0
   -4.9239   -2.3644   -0.4974 H   0  0  0  0  0  0  0  0  0  0  0  0
   -4.3903   -1.3442   -1.8818 H   0  0  0  0  0  0  0  0  0  0  0  0
   -4.2618   -0.3288    0.9877 H   0  0  0  0  0  0  0  0  0  0  0  0
   -6.3346    0.2210   -2.0762 H   0  0  0  0  0  0  0  0  0  0  0  0
   -8.8144    0.6242   -1.9003 H   0  0  0  0  0  0  0  0  0  0  0  0
  -11.9295    0.8765    1.5801 H   0  0  0  0  0  0  0  0  0  0  0  0
   -8.5888    0.2358    2.3006 H   0  0  0  0  0  0  0  0  0  0  0  0
   -6.2175   -0.1517    2.1605 H   0  0  0  0  0  0  0  0  0  0  0  0
   -4.2150    0.9016   -1.8174 H   0  0  0  0  0  0  0  0  0  0  0  0
   -4.1860    1.8887   -0.3190 H   0  0  0  0  0  0  0  0  0  0  0  0
   -2.2549    0.6007    0.5267 H   0  0  0  0  0  0  0  0  0  0  0  0
   -1.8603    1.4898   -1.0240 H   0  0  0  0  0  0  0  0  0  0  0  0
   -0.1919    1.0648   -2.0917 H   0  0  0  0  0  0  0  0  0  0  0  0
    1.0827   -0.2900   -2.1276 H   0  0  0  0  0  0  0  0  0  0  0  0
  1  2  2  0
  2  3  1  0
  3  4  1  0
  4  5  1  0
  5  6  2  0
  5  7  1  0
  7  8  2  0
  8  9  1  0
  9 10  2  0
 10 11  1  0
 11 12  1  0
 12 13  1  0
 12 14  1  0
 12 15  1  0
 11 16  2  0
  2 17  1  0
 17 18  1  0
 18 19  1  0
 19 20  1  0
 20 21  1  0
 21 22  1  0
 22 23  1  0
 23 24  1  0
 24 25  1  0
 25 26  2  0
 26 27  1  0
 27 28  2  0
 28 29  1  0
 29 30  2  0
 29 31  1  0
 28 32  1  0
 32 33  2  0
 24 34  1  0
 34 35  1  0
 20 36  1  0
 16  7  1  0
 36 18  1  0
 35 21  1  0
 33 25  1  0
  3 37  1  0
  3 38  1  0
  4 39  1  0
  8 40  1  0
  9 41  1  0
 10 42  1  0
 16 43  1  0
 17 44  1  0
 18 45  1  0
 19 46  1  0
 19 47  1  0
 21 48  1  6
 22 49  1  0
 22 50  1  0
 23 51  1  0
 23 52  1  0
 24 53  1  1
 26 54  1  0
 27 55  1  0
 31 56  1  0
 32 57  1  0
 33 58  1  0
 34 59  1  0
 34 60  1  0
 35 61  1  0
 35 62  1  0
 36 63  1  0
 36 64  1  0
M  END
$$$$
