
     RDKit          3D

 19 19  0  0  0  0  0  0  0  0999 V2000
   -3.2294    2.2810   -0.3893 F   0  0  0  0  0  0  0  0  0  0  0  0
   -3.3261    0.9794    0.0107 C   0  0  0  0  0  0  0  0  0  0  0  0
   -2.9640    0.8624    1.3593 F   0  0  0  0  0  0  0  0  0  0  0  0
   -4.6378    0.5412   -0.1809 F   0  0  0  0  0  0  0  0  0  0  0  0
   -2.4365    0.0451   -0.7239 C   0  0  0  0  0  0  0  0  0  0  0  0
   -2.7321   -0.9162   -1.4018 O   0  0  0  0  0  0  0  0  0  0  0  0
   -0.9839    0.2111   -0.6970 C   0  0  0  0  0  0  0  0  0  0  0  0
   -0.3287   -0.7294    0.2822 C   0  0  0  0  0  0  0  0  0  0  0  0
   -0.9425   -1.5584    0.9961 O   0  0  0  0  0  0  0  0  0  0  0  0
    1.0942   -0.6464    0.3809 C   0  0  0  0  0  0  0  0  0  0  0  0
    2.0780    0.1182   -0.2250 C   0  0  0  0  0  0  0  0  0  0  0  0
    3.3792   -0.0394    0.0879 C   0  0  0  0  0  0  0  0  0  0  0  0
    3.6368   -1.0719    1.1043 C   0  0  0  0  0  0  0  0  0  0  0  0
    1.9306   -1.6842    1.4752 S   0  0  0  0  0  0  0  0  0  0  0  0
   -0.7057    1.2491   -0.3643 H   0  0  0  0  0  0  0  0  0  0  0  0
   -0.4919    0.0838   -1.6684 H   0  0  0  0  0  0  0  0  0  0  0  0
    1.6616    0.8140   -0.9399 H   0  0  0  0  0  0  0  0  0  0  0  0
    4.1180    0.5780   -0.4094 H   0  0  0  0  0  0  0  0  0  0  0  0
    4.8801   -1.1177    1.3033 H   0  0  0  0  0  0  0  0  0  0  0  0
  1  2  1  0
  2  3  1  0
  2  4  1  0
  2  5  1  0
  5  6  2  0
  5  7  1  0
  7  8  1  0
  8  9  2  0
  8 10  1  0
 10 11  2  0
 11 12  1  0
 12 13  2  0
 13 14  1  0
 14 10  1  0
  7 15  1  0
  7 16  1  0
 11 17  1  0
 12 18  1  0
 13 19  1  0
M  END
$$$$
