
     RDKit          3D

 71 75  0  0  0  0  0  0  0  0999 V2000
  -10.0281   -3.5917   -0.5242 N   0  0  0  0  0  0  0  0  0  0  0  0
   -8.9174   -2.8182   -0.9186 C   0  0  0  0  0  0  0  0  0  0  0  0
   -8.5609   -1.6663   -0.2470 C   0  0  0  0  0  0  0  0  0  0  0  0
   -9.0737   -1.0182    0.8227 N   0  0  0  0  0  0  0  0  0  0  0  0
   -8.3036    0.0697    1.0365 C   0  0  0  0  0  0  0  0  0  0  0  0
   -7.3228    0.1051    0.1164 N   0  0  0  0  0  0  0  0  0  0  0  0
   -6.3605    1.1619    0.1163 C   0  0  2  0  0  0  0  0  0  0  0  0
   -5.4051    0.9988   -0.9134 O   0  0  0  0  0  0  0  0  0  0  0  0
   -4.4440    1.9356   -0.6358 C   0  0  2  0  0  0  0  0  0  0  0  0
   -3.0824    1.5447   -1.2150 C   0  0  0  0  0  0  0  0  0  0  0  0
   -2.6442    0.3485   -0.7024 O   0  0  0  0  0  0  0  0  0  0  0  0
   -1.1417   -0.1157   -1.3182 P   0  0  0  0  0  0  0  0  0  0  0  0
   -1.2333   -0.5127   -2.9592 O   0  0  0  0  0  0  0  0  0  0  0  0
   -0.6450   -1.3368   -0.5812 O   0  0  0  0  0  0  0  0  0  0  0  0
    0.0311    1.0874   -1.1605 O   0  0  0  0  0  0  0  0  0  0  0  0
    0.2583    1.5401    0.4311 P   0  0  0  0  0  0  0  0  0  0  0  0
   -0.8266    0.7005    1.4135 O   0  0  0  0  0  0  0  0  0  0  0  0
   -0.1097    3.0227    0.5372 O   0  0  0  0  0  0  0  0  0  0  0  0
    1.8295    1.3987    0.9789 O   0  0  0  0  0  0  0  0  0  0  0  0
    2.5795    0.4592    0.3075 C   0  0  0  0  0  0  0  0  0  0  0  0
    3.9550    0.4428    0.9045 C   0  0  1  0  0  0  0  0  0  0  0  0
    4.7865   -0.5036    0.2625 O   0  0  0  0  0  0  0  0  0  0  0  0
    6.0263   -0.0894    0.7364 C   0  0  2  0  0  0  0  0  0  0  0  0
    6.0648    1.3477    0.3237 C   0  0  2  0  0  0  0  0  0  0  0  0
    6.9700    2.0941    1.0491 O   0  0  0  0  0  0  0  0  0  0  0  0
    4.6260    1.7857    0.6260 C   0  0  2  0  0  0  0  0  0  0  0  0
    4.5722    2.5111    1.8166 O   0  0  0  0  0  0  0  0  0  0  0  0
    7.1293   -0.8819    0.2940 N   0  0  0  0  0  4  0  0  0  0  0  0
    7.7370   -1.7347    1.1631 C   0  0  0  0  0  0  0  0  0  0  0  0
    8.8025   -2.5457    0.8579 C   0  0  0  0  0  0  0  0  0  0  0  0
    9.3083   -2.5058   -0.4228 C   0  0  0  0  0  0  0  0  0  0  0  0
    8.6816   -1.6365   -1.2918 C   0  0  0  0  0  0  0  0  0  0  0  0
    7.6165   -0.8373   -0.9558 C   0  0  0  0  0  0  0  0  0  0  0  0
    9.1305   -1.5091   -2.6742 C   0  0  0  0  0  0  0  0  0  0  0  0
   10.1937   -2.2300   -3.2158 O   0  0  0  0  0  0  0  0  0  0  0  0
    8.6253   -0.7409   -3.5548 O   0  0  0  0  0  0  0  0  0  0  0  0
   -4.3193    2.0633    0.8456 C   0  0  1  0  0  0  0  0  0  0  0  0
   -4.6155    3.3986    1.1861 O   0  0  0  0  0  0  0  0  0  0  0  0
   -5.4637    1.1743    1.3367 C   0  0  1  0  0  0  0  0  0  0  0  0
   -6.0831    1.6972    2.4543 O   0  0  0  0  0  0  0  0  0  0  0  0
   -7.4600   -0.9516   -0.6837 C   0  0  0  0  0  0  0  0  0  0  0  0
   -6.7442   -1.3529   -1.7324 N   0  0  0  0  0  0  0  0  0  0  0  0
   -7.0869   -2.4751   -2.3911 C   0  0  0  0  0  0  0  0  0  0  0  0
   -8.1656   -3.1776   -1.9652 N   0  0  0  0  0  0  0  0  0  0  0  0
  -10.9504   -3.3858   -0.9616 H   0  0  0  0  0  0  0  0  0  0  0  0
  -10.0465   -4.3727    0.1752 H   0  0  0  0  0  0  0  0  0  0  0  0
   -8.5688    0.7239    1.8714 H   0  0  0  0  0  0  0  0  0  0  0  0
   -6.8151    2.1797    0.0537 H   0  0  0  0  0  0  0  0  0  0  0  0
   -4.7573    2.8847   -1.1255 H   0  0  0  0  0  0  0  0  0  0  0  0
   -2.3415    2.3211   -0.9400 H   0  0  0  0  0  0  0  0  0  0  0  0
   -3.1366    1.4847   -2.3226 H   0  0  0  0  0  0  0  0  0  0  0  0
   -0.8584   -1.3933   -3.1594 H   0  0  0  0  0  0  0  0  0  0  0  0
   -0.3259    0.0791    1.9969 H   0  0  0  0  0  0  0  0  0  0  0  0
    2.7012    0.8641   -0.7395 H   0  0  0  0  0  0  0  0  0  0  0  0
    2.1167   -0.5275    0.2327 H   0  0  0  0  0  0  0  0  0  0  0  0
    3.9607    0.2013    1.9826 H   0  0  0  0  0  0  0  0  0  0  0  0
    5.9591   -0.1195    1.8403 H   0  0  0  0  0  0  0  0  0  0  0  0
    6.2603    1.4615   -0.7750 H   0  0  0  0  0  0  0  0  0  0  0  0
    7.8378    2.1268    0.5774 H   0  0  0  0  0  0  0  0  0  0  0  0
    4.1748    2.3176   -0.2116 H   0  0  0  0  0  0  0  0  0  0  0  0
    3.7190    2.3798    2.2991 H   0  0  0  0  0  0  0  0  0  0  0  0
    7.3441   -1.7764    2.1864 H   0  0  0  0  0  0  0  0  0  0  0  0
    9.2391   -3.2012    1.5966 H   0  0  0  0  0  0  0  0  0  0  0  0
   10.1426   -3.1110   -0.7414 H   0  0  0  0  0  0  0  0  0  0  0  0
    7.1406   -0.1678   -1.6407 H   0  0  0  0  0  0  0  0  0  0  0  0
   10.9527   -1.7837   -3.7479 H   0  0  0  0  0  0  0  0  0  0  0  0
   -3.3594    1.7629    1.2662 H   0  0  0  0  0  0  0  0  0  0  0  0
   -3.7844    3.9261    1.3347 H   0  0  0  0  0  0  0  0  0  0  0  0
   -5.1225    0.1248    1.4883 H   0  0  0  0  0  0  0  0  0  0  0  0
   -5.8853    1.1150    3.2273 H   0  0  0  0  0  0  0  0  0  0  0  0
   -6.4833   -2.7703   -3.2374 H   0  0  0  0  0  0  0  0  0  0  0  0
  1  2  1  0
  2  3  2  0
  3  4  1  0
  4  5  2  0
  5  6  1  0
  6  7  1  0
  7  8  1  0
  8  9  1  0
  9 10  1  0
 10 11  1  0
 11 12  1  0
 12 13  1  0
 12 14  2  0
 12 15  1  0
 15 16  1  0
 16 17  1  0
 16 18  2  0
 16 19  1  0
 19 20  1  0
 20 21  1  0
 21 22  1  0
 22 23  1  0
 23 24  1  0
 24 25  1  0
 24 26  1  0
 26 27  1  0
 23 28  1  0
 28 29  2  0
 29 30  1  0
 30 31  2  0
 31 32  1  0
 32 33  2  0
 32 34  1  0
 34 35  1  0
 34 36  2  0
  9 37  1  0
 37 38  1  0
 37 39  1  0
 39 40  1  0
  6 41  1  0
 41 42  2  0
 42 43  1  0
 43 44  2  0
 44  2  1  0
 41  3  1  0
 39  7  1  0
 26 21  1  0
 33 28  1  0
  1 45  1  0
  1 46  1  0
  5 47  1  0
  7 48  1  6
  9 49  1  6
 10 50  1  0
 10 51  1  0
 13 52  1  0
 17 53  1  0
 20 54  1  0
 20 55  1  0
 21 56  1  1
 23 57  1  1
 24 58  1  6
 25 59  1  0
 26 60  1  6
 27 61  1  0
 29 62  1  0
 30 63  1  0
 31 64  1  0
 33 65  1  0
 35 66  1  0
 37 67  1  1
 38 68  1  0
 39 69  1  1
 40 70  1  0
 43 71  1  0
M  CHG  1  28   1
M  END
$$$$
