
     RDKit          3D

 51 51  0  0  0  0  0  0  0  0999 V2000
    4.4302   -2.4029   -0.5649 C   0  0  1  0  0  0  0  0  0  0  0  0
    3.6930   -3.3230    0.2654 N   0  0  0  0  0  0  0  0  0  0  0  0
    4.7123   -1.1149    0.1822 C   0  0  0  0  0  0  0  0  0  0  0  0
    3.4358   -0.4220    0.6131 C   0  0  0  0  0  0  0  0  0  0  0  0
    2.6372   -0.1040   -0.5934 C   0  0  0  0  0  0  0  0  0  0  0  0
    2.6999   -0.2356   -1.8422 O   0  0  0  0  0  0  0  0  0  0  0  0
    1.4138    0.5585   -0.2348 N   0  0  0  0  0  0  0  0  0  0  0  0
    0.3850    1.0193   -1.1484 C   0  0  1  0  0  0  0  0  0  0  0  0
   -0.9284    0.3043   -0.9079 C   0  0  0  0  0  0  0  0  0  0  0  0
   -1.5658    0.5527    0.7539 S   0  0  0  0  0  0  0  0  0  0  0  0
   -3.1027   -0.3490    0.8673 C   0  0  0  0  0  0  0  0  0  0  0  0
   -4.3625    0.1520    0.5672 C   0  0  0  0  0  0  0  0  0  0  0  0
   -5.4499   -0.6732    0.7067 C   0  0  0  0  0  0  0  0  0  0  0  0
   -5.3138   -1.9834    1.1372 C   0  0  0  0  0  0  0  0  0  0  0  0
   -4.0660   -2.4859    1.4364 C   0  0  0  0  0  0  0  0  0  0  0  0
   -2.9679   -1.6632    1.2989 C   0  0  0  0  0  0  0  0  0  0  0  0
   -6.4633   -2.8193    1.2731 N   0  0  0  0  0  0  0  0  0  0  0  0
   -6.2807   -4.1114    1.7031 O   0  0  0  0  0  0  0  0  0  0  0  0
   -7.5855   -2.3674    1.0040 O   0  0  0  0  0  0  0  0  0  0  0  0
   -4.3968    1.5076    0.1338 N   0  0  0  0  0  0  0  0  0  0  0  0
   -5.4372    1.6957   -0.7618 O   0  0  0  0  0  0  0  0  0  0  0  0
   -3.5782    2.3347    0.5465 O   0  0  0  0  0  0  0  0  0  0  0  0
    0.2552    2.4846   -0.9373 C   0  0  0  0  0  0  0  0  0  0  0  0
    1.1099    2.7546   -0.0267 O   0  0  0  0  0  0  0  0  0  0  0  0
   -0.6285    3.3728   -1.6081 N   0  0  0  0  0  0  0  0  0  0  0  0
   -0.4058    4.7236   -1.0740 C   0  0  0  0  0  0  0  0  0  0  0  0
   -0.6676    4.7871    0.3853 C   0  0  0  0  0  0  0  0  0  0  0  0
   -1.0663    3.9339    1.4073 O   0  0  0  0  0  0  0  0  0  0  0  0
   -0.4636    5.9750    0.8116 O   0  0  0  0  0  0  0  0  0  0  0  0
    5.7338   -2.9695   -0.9992 C   0  0  0  0  0  0  0  0  0  0  0  0
    6.9638   -3.3541   -1.4793 O   0  0  0  0  0  0  0  0  0  0  0  0
    5.9357   -4.1327   -0.5614 O   0  0  0  0  0  0  0  0  0  0  0  0
    3.8503   -2.2356   -1.4894 H   0  0  0  0  0  0  0  0  0  0  0  0
    4.1493   -4.2599    0.2348 H   0  0  0  0  0  0  0  0  0  0  0  0
    3.7430   -2.9756    1.2569 H   0  0  0  0  0  0  0  0  0  0  0  0
    5.3162   -0.4228   -0.4379 H   0  0  0  0  0  0  0  0  0  0  0  0
    5.3557   -1.3719    1.0446 H   0  0  0  0  0  0  0  0  0  0  0  0
    2.8693   -1.0197    1.3472 H   0  0  0  0  0  0  0  0  0  0  0  0
    3.7719    0.5052    1.1453 H   0  0  0  0  0  0  0  0  0  0  0  0
    1.0866    0.8057    0.7440 H   0  0  0  0  0  0  0  0  0  0  0  0
    0.6451    0.8004   -2.2060 H   0  0  0  0  0  0  0  0  0  0  0  0
   -1.6870    0.7137   -1.6055 H   0  0  0  0  0  0  0  0  0  0  0  0
   -0.7969   -0.7627   -1.1687 H   0  0  0  0  0  0  0  0  0  0  0  0
   -6.4123   -0.2379    0.4608 H   0  0  0  0  0  0  0  0  0  0  0  0
   -3.9861   -3.5035    1.7677 H   0  0  0  0  0  0  0  0  0  0  0  0
   -2.0221   -2.1393    1.5558 H   0  0  0  0  0  0  0  0  0  0  0  0
   -1.2465    2.9278   -2.3243 H   0  0  0  0  0  0  0  0  0  0  0  0
    0.6449    5.0441   -1.2417 H   0  0  0  0  0  0  0  0  0  0  0  0
   -1.0545    5.4213   -1.6459 H   0  0  0  0  0  0  0  0  0  0  0  0
   -0.4694    3.8124    2.2292 H   0  0  0  0  0  0  0  0  0  0  0  0
    7.5674   -2.7470   -2.0207 H   0  0  0  0  0  0  0  0  0  0  0  0
  1  2  1  0
  1  3  1  0
  3  4  1  0
  4  5  1  0
  5  6  2  0
  5  7  1  0
  7  8  1  0
  8  9  1  0
  9 10  1  0
 10 11  1  0
 11 12  2  0
 12 13  1  0
 13 14  2  0
 14 15  1  0
 15 16  2  0
 14 17  1  0
 17 18  1  0
 17 19  2  0
 12 20  1  0
 20 21  1  0
 20 22  2  0
  8 23  1  0
 23 24  2  0
 23 25  1  0
 25 26  1  0
 26 27  1  0
 27 28  1  0
 27 29  2  0
  1 30  1  0
 30 31  1  0
 30 32  2  0
 16 11  1  0
  1 33  1  6
  2 34  1  0
  2 35  1  0
  3 36  1  0
  3 37  1  0
  4 38  1  0
  4 39  1  0
  7 40  1  0
  8 41  1  6
  9 42  1  0
  9 43  1  0
 13 44  1  0
 15 45  1  0
 16 46  1  0
 25 47  1  0
 26 48  1  0
 26 49  1  0
 28 50  1  0
 31 51  1  0
M  CHG  4  17   1  18  -1  20   1  21  -1
M  END
$$$$
