
     RDKit          3D

 44 47  0  0  0  0  0  0  0  0999 V2000
    0.2516   -3.5525   -0.1181 C   0  0  0  0  0  0  0  0  0  0  0  0
   -1.0755   -2.8774   -0.0705 C   0  0  0  0  0  0  0  0  0  0  0  0
   -1.1769   -1.5812   -0.0909 C   0  0  0  0  0  0  0  0  0  0  0  0
   -0.0855   -0.6304   -0.1490 C   0  0  0  0  0  0  0  0  0  0  0  0
   -0.4618    0.6264   -0.1732 O   0  0  0  0  0  0  0  0  0  0  0  0
    1.2958   -0.7543   -0.1843 N   0  0  0  0  0  0  0  0  0  0  0  0
    2.2696    0.3075   -0.2465 C   0  0  0  0  0  0  0  0  0  0  0  0
    1.9926    1.6337   -0.2831 C   0  0  0  0  0  0  0  0  0  0  0  0
    3.0371    2.5826   -0.3433 C   0  0  0  0  0  0  0  0  0  0  0  0
    4.3559    2.2103   -0.3671 C   0  0  0  0  0  0  0  0  0  0  0  0
    5.5030    2.9147   -0.4221 N   0  0  0  0  0  0  0  0  0  0  0  0
    6.5156    2.0323   -0.4205 N   0  0  0  0  0  0  0  0  0  0  0  0
    6.0180    0.7921   -0.3655 C   0  0  0  0  0  0  0  0  0  0  0  0
    4.6436    0.8633   -0.3302 C   0  0  0  0  0  0  0  0  0  0  0  0
    3.6224   -0.0597   -0.2714 C   0  0  0  0  0  0  0  0  0  0  0  0
   -2.5934   -1.0182   -0.1387 C   0  0  0  0  0  0  0  0  0  0  0  0
   -2.6857    0.4178    0.0789 C   0  0  0  0  0  0  0  0  0  0  0  0
   -2.9309    1.2533   -0.9907 C   0  0  0  0  0  0  0  0  0  0  0  0
   -3.0668    2.6190   -0.8454 C   0  0  0  0  0  0  0  0  0  0  0  0
   -2.9545    3.1739    0.4111 C   0  0  0  0  0  0  0  0  0  0  0  0
   -3.1274    4.9064    0.5919 Cl  0  0  0  0  0  0  0  0  0  0  0  0
   -2.7105    2.3439    1.4763 C   0  0  0  0  0  0  0  0  0  0  0  0
   -2.5634    3.0351    3.0935 Cl  0  0  0  0  0  0  0  0  0  0  0  0
   -2.5735    0.9762    1.3374 C   0  0  0  0  0  0  0  0  0  0  0  0
   -3.4438   -1.8030    0.8169 C   0  0  0  0  0  0  0  0  0  0  0  0
   -3.4677   -3.1921    0.2132 C   0  0  0  0  0  0  0  0  0  0  0  0
   -4.5274   -3.7008   -0.1117 O   0  0  0  0  0  0  0  0  0  0  0  0
   -2.2040   -3.7937    0.0778 N   0  0  0  0  0  0  0  0  0  0  0  0
    0.7731   -3.3704   -1.0455 H   0  0  0  0  0  0  0  0  0  0  0  0
    0.0637   -4.6929   -0.1773 H   0  0  0  0  0  0  0  0  0  0  0  0
    0.8706   -3.4404    0.7577 H   0  0  0  0  0  0  0  0  0  0  0  0
    1.6763   -1.7175   -0.1541 H   0  0  0  0  0  0  0  0  0  0  0  0
    1.0033    2.0373   -0.2696 H   0  0  0  0  0  0  0  0  0  0  0  0
    2.8074    3.6377   -0.3722 H   0  0  0  0  0  0  0  0  0  0  0  0
    5.6361    3.9512   -0.4602 H   0  0  0  0  0  0  0  0  0  0  0  0
    6.5849   -0.1139   -0.3509 H   0  0  0  0  0  0  0  0  0  0  0  0
    3.8695   -1.1116   -0.2432 H   0  0  0  0  0  0  0  0  0  0  0  0
   -2.9640   -1.2928   -1.1812 H   0  0  0  0  0  0  0  0  0  0  0  0
   -3.0311    0.8740   -2.0177 H   0  0  0  0  0  0  0  0  0  0  0  0
   -3.2599    3.2805   -1.6855 H   0  0  0  0  0  0  0  0  0  0  0  0
   -2.3817    0.3035    2.1586 H   0  0  0  0  0  0  0  0  0  0  0  0
   -4.4370   -1.3935    0.9656 H   0  0  0  0  0  0  0  0  0  0  0  0
   -2.9728   -1.8758    1.8200 H   0  0  0  0  0  0  0  0  0  0  0  0
   -2.0949   -4.8006    0.0804 H   0  0  0  0  0  0  0  0  0  0  0  0
  1  2  1  0
  2  3  2  0
  3  4  1  0
  4  5  2  0
  4  6  1  0
  6  7  1  0
  7  8  2  0
  8  9  1  0
  9 10  2  0
 10 11  1  0
 11 12  1  0
 12 13  2  0
 13 14  1  0
 14 15  2  0
  3 16  1  0
 16 17  1  0
 17 18  2  0
 18 19  1  0
 19 20  2  0
 20 21  1  0
 20 22  1  0
 22 23  1  0
 22 24  2  0
 16 25  1  0
 25 26  1  0
 26 27  2  0
 26 28  1  0
 28  2  1  0
 15  7  1  0
 24 17  1  0
 14 10  1  0
  1 29  1  0
  1 30  1  0
  1 31  1  0
  6 32  1  0
  8 33  1  0
  9 34  1  0
 11 35  1  0
 13 36  1  0
 15 37  1  0
 16 38  1  0
 18 39  1  0
 19 40  1  0
 24 41  1  0
 25 42  1  0
 25 43  1  0
 28 44  1  0
M  END
$$$$
