
     RDKit          3D

 60 62  0  0  0  0  0  0  0  0999 V2000
    6.4168   -3.7134    1.9957 C   0  0  0  0  0  0  0  0  0  0  0  0
    7.0188   -2.7965    0.9463 C   0  0  0  0  0  0  0  0  0  0  0  0
    6.1020   -2.7967   -0.2454 C   0  0  0  0  0  0  0  0  0  0  0  0
    4.7527   -2.2903    0.1868 C   0  0  0  0  0  0  0  0  0  0  0  0
    3.8680   -2.2915   -0.9478 N   0  0  0  0  0  0  0  0  0  0  0  0
    2.5027   -1.8294   -0.8609 C   0  0  0  0  0  0  0  0  0  0  0  0
    1.5321   -2.6696   -0.4749 N   0  0  0  0  0  0  0  0  0  0  0  0
    0.2582   -2.2502   -0.4008 C   0  0  0  0  0  0  0  0  0  0  0  0
   -0.1297   -0.9388   -0.7144 C   0  0  0  0  0  0  0  0  0  0  0  0
   -1.5729   -0.6480   -0.7715 C   0  0  0  0  0  0  0  0  0  0  0  0
   -2.0352    0.2081   -1.5361 O   0  0  0  0  0  0  0  0  0  0  0  0
   -2.4821   -1.3311    0.0496 N   0  0  0  0  0  0  0  0  0  0  0  0
   -3.8974   -1.1600    0.1061 C   0  0  0  0  0  0  0  0  0  0  0  0
   -4.6412   -0.3471   -0.6744 C   0  0  0  0  0  0  0  0  0  0  0  0
   -6.0099   -0.2485   -0.5230 C   0  0  0  0  0  0  0  0  0  0  0  0
   -6.6531   -0.9848    0.4372 C   0  0  0  0  0  0  0  0  0  0  0  0
   -8.1229   -0.8497    0.5645 C   0  0  0  0  0  0  0  0  0  0  0  0
   -8.6066   -1.7405    1.4798 F   0  0  0  0  0  0  0  0  0  0  0  0
   -8.6759   -1.0170   -0.6913 F   0  0  0  0  0  0  0  0  0  0  0  0
   -8.3699    0.4295    1.0245 F   0  0  0  0  0  0  0  0  0  0  0  0
   -5.8965   -1.8140    1.2333 C   0  0  0  0  0  0  0  0  0  0  0  0
   -4.5387   -1.9171    1.0891 C   0  0  0  0  0  0  0  0  0  0  0  0
    0.8514   -0.0855   -1.0996 C   0  0  0  0  0  0  0  0  0  0  0  0
    0.7211    1.2970   -1.2903 N   0  0  0  0  0  0  0  0  0  0  0  0
   -0.2341    2.3075   -1.0401 C   0  0  1  0  0  0  0  0  0  0  0  0
   -0.7011    2.4440    0.3728 C   0  0  0  0  0  0  0  0  0  0  0  0
   -1.2649    3.8545    0.5640 C   0  0  0  0  0  0  0  0  0  0  0  0
   -0.0380    4.7352    0.8377 C   0  0  2  0  0  0  0  0  0  0  0  0
   -0.3522    6.0641    0.6596 O   0  0  0  0  0  0  0  0  0  0  0  0
    1.0332    4.2797   -0.1420 C   0  0  0  0  0  0  0  0  0  0  0  0
    0.4214    3.6998   -1.3759 C   0  0  0  0  0  0  0  0  0  0  0  0
    2.1537   -0.5916   -1.1567 N   0  0  0  0  0  0  0  0  0  0  0  0
    5.8715   -3.0772    2.7185 H   0  0  0  0  0  0  0  0  0  0  0  0
    7.2647   -4.2440    2.4783 H   0  0  0  0  0  0  0  0  0  0  0  0
    5.7175   -4.4447    1.5630 H   0  0  0  0  0  0  0  0  0  0  0  0
    8.0370   -3.1289    0.6540 H   0  0  0  0  0  0  0  0  0  0  0  0
    7.0556   -1.7502    1.3336 H   0  0  0  0  0  0  0  0  0  0  0  0
    6.0496   -3.7959   -0.7091 H   0  0  0  0  0  0  0  0  0  0  0  0
    6.5713   -2.1250   -1.0117 H   0  0  0  0  0  0  0  0  0  0  0  0
    4.8144   -1.3380    0.7294 H   0  0  0  0  0  0  0  0  0  0  0  0
    4.3690   -3.0555    0.9257 H   0  0  0  0  0  0  0  0  0  0  0  0
    4.2471   -2.6445   -1.8620 H   0  0  0  0  0  0  0  0  0  0  0  0
   -0.5352   -2.9369   -0.0973 H   0  0  0  0  0  0  0  0  0  0  0  0
   -2.0359   -2.0449    0.7023 H   0  0  0  0  0  0  0  0  0  0  0  0
   -4.1649    0.2541   -1.4550 H   0  0  0  0  0  0  0  0  0  0  0  0
   -6.5905    0.4195   -1.1709 H   0  0  0  0  0  0  0  0  0  0  0  0
   -6.4448   -2.3817    1.9849 H   0  0  0  0  0  0  0  0  0  0  0  0
   -4.0040   -2.5930    1.7547 H   0  0  0  0  0  0  0  0  0  0  0  0
    1.6304    1.6756   -1.8185 H   0  0  0  0  0  0  0  0  0  0  0  0
   -1.0709    2.3089   -1.7298 H   0  0  0  0  0  0  0  0  0  0  0  0
    0.1531    2.3406    1.0851 H   0  0  0  0  0  0  0  0  0  0  0  0
   -1.4606    1.7028    0.6624 H   0  0  0  0  0  0  0  0  0  0  0  0
   -1.9706    3.9054    1.4230 H   0  0  0  0  0  0  0  0  0  0  0  0
   -1.7692    4.1330   -0.3714 H   0  0  0  0  0  0  0  0  0  0  0  0
    0.2916    4.5006    1.8613 H   0  0  0  0  0  0  0  0  0  0  0  0
    0.4413    6.6412    0.5657 H   0  0  0  0  0  0  0  0  0  0  0  0
    1.5770    5.2079   -0.4441 H   0  0  0  0  0  0  0  0  0  0  0  0
    1.6969    3.5642    0.3553 H   0  0  0  0  0  0  0  0  0  0  0  0
    1.1958    3.5089   -2.1190 H   0  0  0  0  0  0  0  0  0  0  0  0
   -0.3467    4.3899   -1.7564 H   0  0  0  0  0  0  0  0  0  0  0  0
  1  2  1  0
  2  3  1  0
  3  4  1  0
  4  5  1  0
  5  6  1  0
  6  7  2  0
  7  8  1  0
  8  9  2  0
  9 10  1  0
 10 11  2  0
 10 12  1  0
 12 13  1  0
 13 14  2  0
 14 15  1  0
 15 16  2  0
 16 17  1  0
 17 18  1  0
 17 19  1  0
 17 20  1  0
 16 21  1  0
 21 22  2  0
  9 23  1  0
 23 24  1  0
 24 25  1  0
 25 26  1  0
 26 27  1  0
 27 28  1  0
 28 29  1  0
 28 30  1  0
 30 31  1  0
 23 32  2  0
 32  6  1  0
 22 13  1  0
 31 25  1  0
  1 33  1  0
  1 34  1  0
  1 35  1  0
  2 36  1  0
  2 37  1  0
  3 38  1  0
  3 39  1  0
  4 40  1  0
  4 41  1  0
  5 42  1  0
  8 43  1  0
 12 44  1  0
 14 45  1  0
 15 46  1  0
 21 47  1  0
 22 48  1  0
 24 49  1  0
 25 50  1  6
 26 51  1  0
 26 52  1  0
 27 53  1  0
 27 54  1  0
 28 55  1  1
 29 56  1  0
 30 57  1  0
 30 58  1  0
 31 59  1  0
 31 60  1  0
M  END
$$$$
