
     RDKit          3D

 50 54  0  0  0  0  0  0  0  0999 V2000
    6.7591   -3.4640    0.2595 C   0  0  0  0  0  0  0  0  0  0  0  0
    5.7106   -2.4755    0.0703 N   0  0  0  0  0  0  0  0  0  0  0  0
    5.8741   -1.2162   -0.3648 C   0  0  0  0  0  0  0  0  0  0  0  0
    4.6295   -0.5799   -0.4126 C   0  0  0  0  0  0  0  0  0  0  0  0
    3.7271   -1.5323    0.0177 C   0  0  0  0  0  0  0  0  0  0  0  0
    4.4184   -2.6565    0.2975 N   0  0  0  0  0  0  0  0  0  0  0  0
    2.3203   -1.1715    0.0803 C   0  0  0  0  0  0  0  0  0  0  0  0
    1.4906   -1.9099   -0.7250 C   0  0  0  0  0  0  0  0  0  0  0  0
    0.1349   -1.6564   -0.7489 C   0  0  0  0  0  0  0  0  0  0  0  0
   -0.3592   -0.6493    0.0517 C   0  0  0  0  0  0  0  0  0  0  0  0
   -1.7280   -0.4237    0.0007 O   0  0  0  0  0  0  0  0  0  0  0  0
   -2.2883    0.5827    0.7883 C   0  0  0  0  0  0  0  0  0  0  0  0
   -3.7603    0.6972    0.6173 C   0  0  0  0  0  0  0  0  0  0  0  0
   -4.5660    1.5673    1.2286 N   0  0  0  0  0  0  0  0  0  0  0  0
   -5.8907    1.5703    0.9871 C   0  0  0  0  0  0  0  0  0  0  0  0
   -6.6829    2.4953    1.6486 C   0  0  0  0  0  0  0  0  0  0  0  0
   -8.0596    2.5209    1.4171 C   0  0  0  0  0  0  0  0  0  0  0  0
   -8.6753    1.6478    0.5411 C   0  0  0  0  0  0  0  0  0  0  0  0
   -7.8708    0.7158   -0.1243 C   0  0  0  0  0  0  0  0  0  0  0  0
   -6.5082    0.6863    0.1014 C   0  0  0  0  0  0  0  0  0  0  0  0
   -5.7108   -0.2208   -0.5437 C   0  0  0  0  0  0  0  0  0  0  0  0
   -4.3612   -0.1937   -0.2715 C   0  0  0  0  0  0  0  0  0  0  0  0
    0.4677    0.1157    0.8799 C   0  0  0  0  0  0  0  0  0  0  0  0
    1.8215   -0.1500    0.8928 C   0  0  0  0  0  0  0  0  0  0  0  0
    4.4748    0.8144   -0.8491 C   0  0  0  0  0  0  0  0  0  0  0  0
    3.7392    1.2226   -1.9550 C   0  0  0  0  0  0  0  0  0  0  0  0
    3.7061    2.5758   -2.2142 C   0  0  0  0  0  0  0  0  0  0  0  0
    4.3408    3.4893   -1.4591 N   0  0  0  0  0  0  0  0  0  0  0  0
    5.0487    3.0671   -0.3903 C   0  0  0  0  0  0  0  0  0  0  0  0
    5.1351    1.7269   -0.0574 C   0  0  0  0  0  0  0  0  0  0  0  0
    6.4986   -4.1503    1.0928 H   0  0  0  0  0  0  0  0  0  0  0  0
    6.9065   -4.0643   -0.6713 H   0  0  0  0  0  0  0  0  0  0  0  0
    7.7128   -2.9536    0.4797 H   0  0  0  0  0  0  0  0  0  0  0  0
    6.8319   -0.7936   -0.6279 H   0  0  0  0  0  0  0  0  0  0  0  0
    1.8538   -2.7081   -1.3646 H   0  0  0  0  0  0  0  0  0  0  0  0
   -0.5211   -2.2383   -1.3842 H   0  0  0  0  0  0  0  0  0  0  0  0
   -1.8341    1.5724    0.7035 H   0  0  0  0  0  0  0  0  0  0  0  0
   -2.1191    0.2668    1.8586 H   0  0  0  0  0  0  0  0  0  0  0  0
   -6.2842    3.2068    2.3428 H   0  0  0  0  0  0  0  0  0  0  0  0
   -8.7057    3.2450    1.9300 H   0  0  0  0  0  0  0  0  0  0  0  0
   -9.7276    1.6339    0.3351 H   0  0  0  0  0  0  0  0  0  0  0  0
   -8.3138    0.0008   -0.8307 H   0  0  0  0  0  0  0  0  0  0  0  0
   -6.1103   -0.9404   -1.2453 H   0  0  0  0  0  0  0  0  0  0  0  0
   -3.7472   -0.9252   -0.7962 H   0  0  0  0  0  0  0  0  0  0  0  0
    0.0481    0.8969    1.4949 H   0  0  0  0  0  0  0  0  0  0  0  0
    2.5173    0.4026    1.5093 H   0  0  0  0  0  0  0  0  0  0  0  0
    3.2473    0.4520   -2.5302 H   0  0  0  0  0  0  0  0  0  0  0  0
    3.1313    2.8882   -3.0765 H   0  0  0  0  0  0  0  0  0  0  0  0
    5.5557    3.8330    0.2074 H   0  0  0  0  0  0  0  0  0  0  0  0
    5.7224    1.5047    0.8089 H   0  0  0  0  0  0  0  0  0  0  0  0
  1  2  1  0
  2  3  1  0
  3  4  2  0
  4  5  1  0
  5  6  2  0
  5  7  1  0
  7  8  2  0
  8  9  1  0
  9 10  2  0
 10 11  1  0
 11 12  1  0
 12 13  1  0
 13 14  2  0
 14 15  1  0
 15 16  2  0
 16 17  1  0
 17 18  2  0
 18 19  1  0
 19 20  2  0
 20 21  1  0
 21 22  2  0
 10 23  1  0
 23 24  2  0
  4 25  1  0
 25 26  2  0
 26 27  1  0
 27 28  2  0
 28 29  1  0
 29 30  2  0
  6  2  1  0
 24  7  1  0
 30 25  1  0
 22 13  1  0
 20 15  1  0
  1 31  1  0
  1 32  1  0
  1 33  1  0
  3 34  1  0
  8 35  1  0
  9 36  1  0
 12 37  1  0
 12 38  1  0
 16 39  1  0
 17 40  1  0
 18 41  1  0
 19 42  1  0
 21 43  1  0
 22 44  1  0
 23 45  1  0
 24 46  1  0
 26 47  1  0
 27 48  1  0
 29 49  1  0
 30 50  1  0
M  END
$$$$
