
     RDKit          3D

 76 80  0  0  0  0  0  0  0  0999 V2000
   -4.5515    5.3005   -1.1277 C   0  0  0  0  0  0  0  0  0  0  0  0
   -4.5638    3.8769   -0.6935 C   0  0  0  0  0  0  0  0  0  0  0  0
   -4.7316    2.8512   -1.5983 C   0  0  0  0  0  0  0  0  0  0  0  0
   -4.7457    1.5261   -1.2148 C   0  0  0  0  0  0  0  0  0  0  0  0
   -4.5891    1.1695    0.1182 C   0  0  0  0  0  0  0  0  0  0  0  0
   -4.6089   -0.2067    0.4757 N   0  0  0  0  0  0  0  0  0  0  0  0
   -5.5058   -1.1407    0.2214 N   0  0  0  0  0  0  0  0  0  0  0  0
   -5.1750   -2.3220    0.7234 C   0  0  0  0  0  0  0  0  0  0  0  0
   -5.9787   -3.5920    0.6128 C   0  0  0  0  0  0  0  0  0  0  0  0
   -5.2496   -4.7151    1.3184 C   0  0  0  0  0  0  0  0  0  0  0  0
   -7.2852   -3.3412    1.3451 C   0  0  0  0  0  0  0  0  0  0  0  0
   -6.2777   -3.9482   -0.8058 C   0  0  0  0  0  0  0  0  0  0  0  0
   -3.9624   -2.1633    1.3628 C   0  0  0  0  0  0  0  0  0  0  0  0
   -3.6328   -0.8318    1.1919 C   0  0  0  0  0  0  0  0  0  0  0  0
   -2.4446   -0.2496    1.7056 N   0  0  0  0  0  0  0  0  0  0  0  0
   -1.2358   -0.2031    0.9693 C   0  0  0  0  0  0  0  0  0  0  0  0
   -1.2275   -0.7003   -0.1820 O   0  0  0  0  0  0  0  0  0  0  0  0
   -0.0433    0.3786    1.4774 N   0  0  0  0  0  0  0  0  0  0  0  0
    1.1178    0.3760    0.6573 C   0  0  0  0  0  0  0  0  0  0  0  0
    1.4204    1.3870   -0.2119 C   0  0  0  0  0  0  0  0  0  0  0  0
    2.5710    1.3375   -0.9922 C   0  0  0  0  0  0  0  0  0  0  0  0
    3.4452    0.2829   -0.9247 C   0  0  0  0  0  0  0  0  0  0  0  0
    4.5660    0.1645   -1.6414 O   0  0  0  0  0  0  0  0  0  0  0  0
    5.2269    0.9206   -2.5807 C   0  0  0  0  0  0  0  0  0  0  0  0
    5.7124    2.2312   -2.0659 C   0  0  0  0  0  0  0  0  0  0  0  0
    6.6270    2.1663   -0.9971 N   0  0  0  0  0  0  0  0  0  0  0  0
    7.9138    1.6273   -1.2362 C   0  0  0  0  0  0  0  0  0  0  0  0
    8.1949    0.3894   -0.3903 C   0  0  0  0  0  0  0  0  0  0  0  0
    8.0217    0.7571    0.9361 O   0  0  0  0  0  0  0  0  0  0  0  0
    6.6595    0.9778    1.1386 C   0  0  0  0  0  0  0  0  0  0  0  0
    6.1719    2.1657    0.3305 C   0  0  0  0  0  0  0  0  0  0  0  0
    3.1351   -0.7605   -0.0295 C   0  0  0  0  0  0  0  0  0  0  0  0
    3.9875   -1.8438    0.0710 C   0  0  0  0  0  0  0  0  0  0  0  0
    3.6625   -2.8449    0.9491 C   0  0  0  0  0  0  0  0  0  0  0  0
    2.5318   -2.8248    1.7340 C   0  0  0  0  0  0  0  0  0  0  0  0
    1.7014   -1.7367    1.6148 C   0  0  0  0  0  0  0  0  0  0  0  0
    1.9992   -0.7088    0.7386 C   0  0  0  0  0  0  0  0  0  0  0  0
   -4.4213    2.1941    1.0239 C   0  0  0  0  0  0  0  0  0  0  0  0
   -4.4068    3.5192    0.6439 C   0  0  0  0  0  0  0  0  0  0  0  0
   -4.0778    5.3084   -2.1434 H   0  0  0  0  0  0  0  0  0  0  0  0
   -5.5665    5.7293   -1.2243 H   0  0  0  0  0  0  0  0  0  0  0  0
   -3.8918    5.9170   -0.4824 H   0  0  0  0  0  0  0  0  0  0  0  0
   -4.8554    3.1338   -2.6525 H   0  0  0  0  0  0  0  0  0  0  0  0
   -4.8801    0.7183   -1.9459 H   0  0  0  0  0  0  0  0  0  0  0  0
   -4.3881   -5.0829    0.7305 H   0  0  0  0  0  0  0  0  0  0  0  0
   -5.9788   -5.5763    1.3580 H   0  0  0  0  0  0  0  0  0  0  0  0
   -5.0134   -4.4787    2.3585 H   0  0  0  0  0  0  0  0  0  0  0  0
   -7.0763   -2.6140    2.1638 H   0  0  0  0  0  0  0  0  0  0  0  0
   -7.6411   -4.2629    1.8591 H   0  0  0  0  0  0  0  0  0  0  0  0
   -8.0615   -2.9080    0.6889 H   0  0  0  0  0  0  0  0  0  0  0  0
   -5.4186   -4.4785   -1.3065 H   0  0  0  0  0  0  0  0  0  0  0  0
   -6.5789   -3.0716   -1.3922 H   0  0  0  0  0  0  0  0  0  0  0  0
   -7.1659   -4.6432   -0.7861 H   0  0  0  0  0  0  0  0  0  0  0  0
   -3.3999   -2.9283    1.8837 H   0  0  0  0  0  0  0  0  0  0  0  0
   -2.4602    0.1626    2.6664 H   0  0  0  0  0  0  0  0  0  0  0  0
   -0.0165    0.7991    2.4299 H   0  0  0  0  0  0  0  0  0  0  0  0
    0.7436    2.2261   -0.2783 H   0  0  0  0  0  0  0  0  0  0  0  0
    2.7037    2.1799   -1.6514 H   0  0  0  0  0  0  0  0  0  0  0  0
    6.0430    0.3333   -3.0821 H   0  0  0  0  0  0  0  0  0  0  0  0
    4.4765    1.1010   -3.4212 H   0  0  0  0  0  0  0  0  0  0  0  0
    6.2826    2.6990   -2.9427 H   0  0  0  0  0  0  0  0  0  0  0  0
    4.8783    2.8726   -1.7925 H   0  0  0  0  0  0  0  0  0  0  0  0
    8.0073    1.3455   -2.3184 H   0  0  0  0  0  0  0  0  0  0  0  0
    8.6938    2.4104   -1.0653 H   0  0  0  0  0  0  0  0  0  0  0  0
    7.4920   -0.3880   -0.7203 H   0  0  0  0  0  0  0  0  0  0  0  0
    9.2403    0.0848   -0.5480 H   0  0  0  0  0  0  0  0  0  0  0  0
    6.4855    1.1903    2.2104 H   0  0  0  0  0  0  0  0  0  0  0  0
    6.0502    0.0918    0.8757 H   0  0  0  0  0  0  0  0  0  0  0  0
    6.5364    3.0662    0.9099 H   0  0  0  0  0  0  0  0  0  0  0  0
    5.0779    2.2017    0.4122 H   0  0  0  0  0  0  0  0  0  0  0  0
    4.8818   -1.8641   -0.5468 H   0  0  0  0  0  0  0  0  0  0  0  0
    4.3471   -3.6921    1.0150 H   0  0  0  0  0  0  0  0  0  0  0  0
    2.2950   -3.6409    2.4299 H   0  0  0  0  0  0  0  0  0  0  0  0
    0.7812   -1.6654    2.2178 H   0  0  0  0  0  0  0  0  0  0  0  0
   -4.2986    1.9280    2.0626 H   0  0  0  0  0  0  0  0  0  0  0  0
   -4.2758    4.3297    1.3486 H   0  0  0  0  0  0  0  0  0  0  0  0
  1  2  1  0
  2  3  2  0
  3  4  1  0
  4  5  2  0
  5  6  1  0
  6  7  1  0
  7  8  2  0
  8  9  1  0
  9 10  1  0
  9 11  1  0
  9 12  1  0
  8 13  1  0
 13 14  2  0
 14 15  1  0
 15 16  1  0
 16 17  2  0
 16 18  1  0
 18 19  1  0
 19 20  2  0
 20 21  1  0
 21 22  2  0
 22 23  1  0
 23 24  1  0
 24 25  1  0
 25 26  1  0
 26 27  1  0
 27 28  1  0
 28 29  1  0
 29 30  1  0
 30 31  1  0
 22 32  1  0
 32 33  2  0
 33 34  1  0
 34 35  2  0
 35 36  1  0
 36 37  2  0
  5 38  1  0
 38 39  2  0
 39  2  1  0
 14  6  1  0
 37 19  1  0
 31 26  1  0
 37 32  1  0
  1 40  1  0
  1 41  1  0
  1 42  1  0
  3 43  1  0
  4 44  1  0
 10 45  1  0
 10 46  1  0
 10 47  1  0
 11 48  1  0
 11 49  1  0
 11 50  1  0
 12 51  1  0
 12 52  1  0
 12 53  1  0
 13 54  1  0
 15 55  1  0
 18 56  1  0
 20 57  1  0
 21 58  1  0
 24 59  1  0
 24 60  1  0
 25 61  1  0
 25 62  1  0
 27 63  1  0
 27 64  1  0
 28 65  1  0
 28 66  1  0
 30 67  1  0
 30 68  1  0
 31 69  1  0
 31 70  1  0
 33 71  1  0
 34 72  1  0
 35 73  1  0
 36 74  1  0
 38 75  1  0
 39 76  1  0
M  END
$$$$
