
     RDKit          3D

 52 55  0  0  0  0  0  0  0  0999 V2000
   -4.2376    2.5780   -0.7182 C   0  0  0  0  0  0  0  0  0  0  0  0
   -3.8060    1.1344   -0.5088 C   0  0  1  0  0  0  0  0  0  0  0  0
   -3.4479    0.8769    0.8077 O   0  0  0  0  0  0  0  0  0  0  0  0
   -2.2196    0.4571    1.2792 C   0  0  0  0  0  0  0  0  0  0  0  0
   -1.1366    0.2249    0.4617 C   0  0  0  0  0  0  0  0  0  0  0  0
    0.0989   -0.2004    0.9635 C   0  0  0  0  0  0  0  0  0  0  0  0
    1.2415   -0.4435    0.0850 C   0  0  0  0  0  0  0  0  0  0  0  0
    1.2338   -0.8973   -1.2203 C   0  0  0  0  0  0  0  0  0  0  0  0
    2.5085   -0.9728   -1.6373 N   0  0  0  0  0  0  0  0  0  0  0  0
    3.3477   -0.5974   -0.6877 N   0  0  0  0  0  0  0  0  0  0  0  0
    4.8167   -0.5451   -0.7652 C   0  0  0  0  0  0  0  0  0  0  0  0
    5.3129   -1.3495    0.4129 C   0  0  0  0  0  0  0  0  0  0  0  0
    6.7673   -1.1646    0.6934 C   0  0  0  0  0  0  0  0  0  0  0  0
    7.0565    0.2395    0.8332 N   0  0  0  0  0  0  0  0  0  0  0  0
    6.7600    0.8837   -0.4303 C   0  0  0  0  0  0  0  0  0  0  0  0
    5.2691    0.8811   -0.6193 C   0  0  0  0  0  0  0  0  0  0  0  0
    2.5874   -0.2682    0.3792 C   0  0  0  0  0  0  0  0  0  0  0  0
    0.1751   -0.3757    2.3283 C   0  0  0  0  0  0  0  0  0  0  0  0
   -0.8949   -0.1427    3.1053 N   0  0  0  0  0  0  0  0  0  0  0  0
   -2.0913    0.2642    2.6631 C   0  0  0  0  0  0  0  0  0  0  0  0
   -3.1862    0.4930    3.5569 N   0  0  0  0  0  0  0  0  0  0  0  0
   -4.8897    0.2015   -0.9537 C   0  0  0  0  0  0  0  0  0  0  0  0
   -5.8963   -0.1886   -0.0991 C   0  0  0  0  0  0  0  0  0  0  0  0
   -5.9068    0.4300    1.5395 Cl  0  0  0  0  0  0  0  0  0  0  0  0
   -6.8947   -1.0642   -0.5410 C   0  0  0  0  0  0  0  0  0  0  0  0
   -6.9051   -1.5591   -1.8275 C   0  0  0  0  0  0  0  0  0  0  0  0
   -5.8965   -1.1674   -2.6814 C   0  0  0  0  0  0  0  0  0  0  0  0
   -5.8829   -1.6401   -3.9544 F   0  0  0  0  0  0  0  0  0  0  0  0
   -4.9020   -0.2955   -2.2423 C   0  0  0  0  0  0  0  0  0  0  0  0
   -3.6087    0.2131   -3.3217 Cl  0  0  0  0  0  0  0  0  0  0  0  0
   -5.3470    2.5863   -0.7699 H   0  0  0  0  0  0  0  0  0  0  0  0
   -3.8767    2.9766   -1.6954 H   0  0  0  0  0  0  0  0  0  0  0  0
   -3.9372    3.2266    0.1334 H   0  0  0  0  0  0  0  0  0  0  0  0
   -2.9538    0.9623   -1.1873 H   0  0  0  0  0  0  0  0  0  0  0  0
   -1.1748    0.3549   -0.6005 H   0  0  0  0  0  0  0  0  0  0  0  0
    0.3247   -1.1373   -1.7686 H   0  0  0  0  0  0  0  0  0  0  0  0
    5.1024   -0.9614   -1.7328 H   0  0  0  0  0  0  0  0  0  0  0  0
    4.7554   -0.9597    1.3109 H   0  0  0  0  0  0  0  0  0  0  0  0
    5.0238   -2.4093    0.2999 H   0  0  0  0  0  0  0  0  0  0  0  0
    6.9576   -1.6231    1.7078 H   0  0  0  0  0  0  0  0  0  0  0  0
    7.3603   -1.6643   -0.0828 H   0  0  0  0  0  0  0  0  0  0  0  0
    6.4780    0.6292    1.5881 H   0  0  0  0  0  0  0  0  0  0  0  0
    7.2072    1.8933   -0.4149 H   0  0  0  0  0  0  0  0  0  0  0  0
    7.2953    0.3159   -1.2145 H   0  0  0  0  0  0  0  0  0  0  0  0
    5.0150    1.4771   -1.5259 H   0  0  0  0  0  0  0  0  0  0  0  0
    4.8048    1.3493    0.2608 H   0  0  0  0  0  0  0  0  0  0  0  0
    2.9968    0.0791    1.3153 H   0  0  0  0  0  0  0  0  0  0  0  0
    1.1316   -0.7060    2.7263 H   0  0  0  0  0  0  0  0  0  0  0  0
   -3.3513    1.4652    3.9052 H   0  0  0  0  0  0  0  0  0  0  0  0
   -3.8203   -0.2590    3.8732 H   0  0  0  0  0  0  0  0  0  0  0  0
   -7.6770   -1.3633    0.1324 H   0  0  0  0  0  0  0  0  0  0  0  0
   -7.6874   -2.2378   -2.1535 H   0  0  0  0  0  0  0  0  0  0  0  0
  1  2  1  0
  2  3  1  0
  3  4  1  0
  4  5  2  0
  5  6  1  0
  6  7  1  0
  7  8  1  0
  8  9  2  0
  9 10  1  0
 10 11  1  0
 11 12  1  0
 12 13  1  0
 13 14  1  0
 14 15  1  0
 15 16  1  0
 10 17  1  0
  6 18  2  0
 18 19  1  0
 19 20  2  0
 20 21  1  0
  2 22  1  0
 22 23  2  0
 23 24  1  0
 23 25  1  0
 25 26  2  0
 26 27  1  0
 27 28  1  0
 27 29  2  0
 29 30  1  0
 20  4  1  0
 29 22  1  0
 17  7  2  0
 16 11  1  0
  1 31  1  0
  1 32  1  0
  1 33  1  0
  2 34  1  6
  5 35  1  0
  8 36  1  0
 11 37  1  0
 12 38  1  0
 12 39  1  0
 13 40  1  0
 13 41  1  0
 14 42  1  0
 15 43  1  0
 15 44  1  0
 16 45  1  0
 16 46  1  0
 17 47  1  0
 18 48  1  0
 21 49  1  0
 21 50  1  0
 25 51  1  0
 26 52  1  0
M  END
$$$$
