
     RDKit          3D

 44 47  0  0  0  0  0  0  0  0999 V2000
   -6.2256   -0.3045    1.8556 C   0  0  0  0  0  0  0  0  0  0  0  0
   -4.9764   -0.9926    1.4660 C   0  0  0  0  0  0  0  0  0  0  0  0
   -4.7946   -2.1580    1.8941 O   0  0  0  0  0  0  0  0  0  0  0  0
   -3.9893   -0.3927    0.6379 N   0  0  0  0  0  0  0  0  0  0  0  0
   -4.2483    0.9536    0.1673 C   0  0  0  0  0  0  0  0  0  0  0  0
   -3.6400    1.1065   -1.2099 C   0  0  0  0  0  0  0  0  0  0  0  0
   -2.1752    0.8843   -1.0593 C   0  0  0  0  0  0  0  0  0  0  0  0
   -1.7825   -0.2048   -0.3245 C   0  0  0  0  0  0  0  0  0  0  0  0
   -0.3802   -0.2074   -0.3220 C   0  0  0  0  0  0  0  0  0  0  0  0
    0.3910   -1.1935    0.3358 N   0  0  0  0  0  0  0  0  0  0  0  0
    1.8087   -1.1692    0.3555 C   0  0  0  0  0  0  0  0  0  0  0  0
    2.5062   -2.2860    0.8568 C   0  0  0  0  0  0  0  0  0  0  0  0
    3.8697   -2.3167    0.9076 C   0  0  0  0  0  0  0  0  0  0  0  0
    4.6316   -1.2482    0.4676 C   0  0  0  0  0  0  0  0  0  0  0  0
    5.9709   -0.9675    0.3835 C   0  0  0  0  0  0  0  0  0  0  0  0
    6.1217    0.2659   -0.1443 N   0  0  0  0  0  0  0  0  0  0  0  0
    7.3673    0.9697   -0.4136 C   0  0  0  0  0  0  0  0  0  0  0  0
    4.9331    0.7543   -0.3878 N   0  0  0  0  0  0  0  0  0  0  0  0
    3.9747   -0.1494   -0.0246 C   0  0  0  0  0  0  0  0  0  0  0  0
    2.6017   -0.1374   -0.0676 C   0  0  0  0  0  0  0  0  0  0  0  0
   -0.0406    0.8618   -1.0431 N   0  0  0  0  0  0  0  0  0  0  0  0
   -1.0799    1.5311   -1.4951 N   0  0  0  0  0  0  0  0  0  0  0  0
   -1.0269    2.7370   -2.3087 C   0  0  0  0  0  0  0  0  0  0  0  0
   -2.7808   -1.1344    0.3030 C   0  0  0  0  0  0  0  0  0  0  0  0
   -6.0788    0.7945    1.9777 H   0  0  0  0  0  0  0  0  0  0  0  0
   -6.5796   -0.6557    2.8668 H   0  0  0  0  0  0  0  0  0  0  0  0
   -7.0548   -0.4450    1.1486 H   0  0  0  0  0  0  0  0  0  0  0  0
   -3.7484    1.7095    0.8134 H   0  0  0  0  0  0  0  0  0  0  0  0
   -5.3445    1.1215    0.1063 H   0  0  0  0  0  0  0  0  0  0  0  0
   -4.0743    0.3323   -1.9076 H   0  0  0  0  0  0  0  0  0  0  0  0
   -3.7977    2.1278   -1.6037 H   0  0  0  0  0  0  0  0  0  0  0  0
   -0.0970   -1.9773    0.8319 H   0  0  0  0  0  0  0  0  0  0  0  0
    1.9170   -3.1154    1.1986 H   0  0  0  0  0  0  0  0  0  0  0  0
    4.4075   -3.1785    1.2946 H   0  0  0  0  0  0  0  0  0  0  0  0
    6.7754   -1.5984    0.6780 H   0  0  0  0  0  0  0  0  0  0  0  0
    8.0225    0.2250   -0.9371 H   0  0  0  0  0  0  0  0  0  0  0  0
    7.8840    1.2420    0.5291 H   0  0  0  0  0  0  0  0  0  0  0  0
    7.1855    1.8241   -1.0864 H   0  0  0  0  0  0  0  0  0  0  0  0
    2.1431    0.7609   -0.4623 H   0  0  0  0  0  0  0  0  0  0  0  0
   -0.1107    2.7785   -2.9314 H   0  0  0  0  0  0  0  0  0  0  0  0
   -1.9523    2.7376   -2.9406 H   0  0  0  0  0  0  0  0  0  0  0  0
   -1.0589    3.6308   -1.6523 H   0  0  0  0  0  0  0  0  0  0  0  0
   -3.0736   -1.9339   -0.3849 H   0  0  0  0  0  0  0  0  0  0  0  0
   -2.4005   -1.5823    1.2367 H   0  0  0  0  0  0  0  0  0  0  0  0
  1  2  1  0
  2  3  2  0
  2  4  1  0
  4  5  1  0
  5  6  1  0
  6  7  1  0
  7  8  2  0
  8  9  1  0
  9 10  1  0
 10 11  1  0
 11 12  1  0
 12 13  2  0
 13 14  1  0
 14 15  2  0
 15 16  1  0
 16 17  1  0
 16 18  1  0
 18 19  2  0
 19 20  1  0
  9 21  2  0
 21 22  1  0
 22 23  1  0
  8 24  1  0
 24  4  1  0
 22  7  1  0
 20 11  2  0
 19 14  1  0
  1 25  1  0
  1 26  1  0
  1 27  1  0
  5 28  1  0
  5 29  1  0
  6 30  1  0
  6 31  1  0
 10 32  1  0
 12 33  1  0
 13 34  1  0
 15 35  1  0
 17 36  1  0
 17 37  1  0
 17 38  1  0
 20 39  1  0
 23 40  1  0
 23 41  1  0
 23 42  1  0
 24 43  1  0
 24 44  1  0
M  END
$$$$
