
     RDKit          3D

 69 72  0  0  0  0  0  0  0  0999 V2000
   -8.4910    3.0990   -0.2166 C   0  0  0  0  0  0  0  0  0  0  0  0
   -7.9494    1.8322   -0.4523 O   0  0  0  0  0  0  0  0  0  0  0  0
   -6.5800    1.6445   -0.5538 C   0  0  0  0  0  0  0  0  0  0  0  0
   -5.7432    2.7237   -0.4199 C   0  0  0  0  0  0  0  0  0  0  0  0
   -4.3865    2.5088   -0.5252 C   0  0  0  0  0  0  0  0  0  0  0  0
   -3.8454    1.2390   -0.7615 C   0  0  0  0  0  0  0  0  0  0  0  0
   -2.5533    0.7819   -0.9032 C   0  0  0  0  0  0  0  0  0  0  0  0
   -2.5987   -0.5555   -1.1202 C   0  0  0  0  0  0  0  0  0  0  0  0
   -3.9096   -0.8940   -1.1082 N   0  0  0  0  0  0  0  0  0  0  0  0
   -4.6827    0.1617   -0.8951 C   0  0  0  0  0  0  0  0  0  0  0  0
   -6.0417    0.4012   -0.7856 C   0  0  0  0  0  0  0  0  0  0  0  0
   -1.3857   -1.3667   -1.3342 C   0  0  2  0  0  0  0  0  0  0  0  0
   -1.4624   -2.6453   -0.5947 C   0  0  0  0  0  0  0  0  0  0  0  0
   -1.5692   -2.6269    0.8748 C   0  0  0  0  0  0  0  0  0  0  0  0
   -2.7714   -1.9473    1.4624 C   0  0  0  0  0  0  0  0  0  0  0  0
   -1.6884   -4.1014    1.3174 C   0  0  0  0  0  0  0  0  0  0  0  0
   -0.1669   -0.6339   -1.1017 N   0  0  0  0  0  0  0  0  0  0  0  0
    1.0864   -1.3526   -1.1292 C   0  0  0  0  0  0  0  0  0  0  0  0
    1.2140   -2.3954   -1.8577 O   0  0  0  0  0  0  0  0  0  0  0  0
    2.2288   -0.8786   -0.3088 C   0  0  2  0  0  0  0  0  0  0  0  0
    3.0326   -2.0504    0.1960 C   0  0  0  0  0  0  0  0  0  0  0  0
    4.2004   -1.6397    1.0331 C   0  0  0  0  0  0  0  0  0  0  0  0
    5.1570   -0.7759    0.2932 C   0  0  0  0  0  0  0  0  0  0  0  0
    5.9302   -1.2780   -0.5906 O   0  0  0  0  0  0  0  0  0  0  0  0
    5.2748    0.5847    0.5005 O   0  0  0  0  0  0  0  0  0  0  0  0
    6.1866    1.4017   -0.2065 C   0  0  0  0  0  0  0  0  0  0  0  0
    7.6044    0.9093    0.0509 C   0  0  0  0  0  0  0  0  0  0  0  0
    5.9340    1.4293   -1.6855 C   0  0  0  0  0  0  0  0  0  0  0  0
    6.0688    2.8179    0.3174 C   0  0  0  0  0  0  0  0  0  0  0  0
    1.6861   -0.0815    0.7707 N   0  0  0  0  0  0  0  0  0  0  0  0
    0.6960    0.8845    0.4510 C   0  0  0  0  0  0  0  0  0  0  0  0
    0.4166    1.8546    1.1878 O   0  0  0  0  0  0  0  0  0  0  0  0
   -0.0753    0.7589   -0.8390 C   0  0  2  0  0  0  0  0  0  0  0  0
   -1.3122    1.5519   -0.8425 C   0  0  0  0  0  0  0  0  0  0  0  0
   -9.5704    3.0367    0.0926 H   0  0  0  0  0  0  0  0  0  0  0  0
   -8.4801    3.7634   -1.1034 H   0  0  0  0  0  0  0  0  0  0  0  0
   -7.9947    3.6548    0.6111 H   0  0  0  0  0  0  0  0  0  0  0  0
   -6.1410    3.7301   -0.2345 H   0  0  0  0  0  0  0  0  0  0  0  0
   -3.7214    3.3393   -0.4233 H   0  0  0  0  0  0  0  0  0  0  0  0
   -4.2966   -1.8619   -1.2472 H   0  0  0  0  0  0  0  0  0  0  0  0
   -6.7200   -0.4497   -0.8903 H   0  0  0  0  0  0  0  0  0  0  0  0
   -1.3823   -1.6102   -2.4289 H   0  0  0  0  0  0  0  0  0  0  0  0
   -2.4142   -3.1554   -0.9670 H   0  0  0  0  0  0  0  0  0  0  0  0
   -0.6753   -3.3902   -0.9373 H   0  0  0  0  0  0  0  0  0  0  0  0
   -0.6835   -2.1715    1.3853 H   0  0  0  0  0  0  0  0  0  0  0  0
   -2.7392   -0.8614    1.4098 H   0  0  0  0  0  0  0  0  0  0  0  0
   -3.7360   -2.4182    1.1601 H   0  0  0  0  0  0  0  0  0  0  0  0
   -2.7482   -2.1630    2.5875 H   0  0  0  0  0  0  0  0  0  0  0  0
   -2.5660   -4.4880    0.7575 H   0  0  0  0  0  0  0  0  0  0  0  0
   -1.9462   -4.1721    2.3876 H   0  0  0  0  0  0  0  0  0  0  0  0
   -0.8163   -4.6827    1.0125 H   0  0  0  0  0  0  0  0  0  0  0  0
    2.8637   -0.1889   -0.9251 H   0  0  0  0  0  0  0  0  0  0  0  0
    2.3716   -2.7598    0.6948 H   0  0  0  0  0  0  0  0  0  0  0  0
    3.4419   -2.5639   -0.7109 H   0  0  0  0  0  0  0  0  0  0  0  0
    3.9255   -1.2176    2.0098 H   0  0  0  0  0  0  0  0  0  0  0  0
    4.7730   -2.5851    1.2657 H   0  0  0  0  0  0  0  0  0  0  0  0
    8.3542    1.7111   -0.0519 H   0  0  0  0  0  0  0  0  0  0  0  0
    7.8868    0.1210   -0.7027 H   0  0  0  0  0  0  0  0  0  0  0  0
    7.6913    0.4865    1.0832 H   0  0  0  0  0  0  0  0  0  0  0  0
    6.4310    0.5797   -2.2060 H   0  0  0  0  0  0  0  0  0  0  0  0
    4.8467    1.4883   -1.8994 H   0  0  0  0  0  0  0  0  0  0  0  0
    6.3857    2.3584   -2.0970 H   0  0  0  0  0  0  0  0  0  0  0  0
    7.0599    3.1830    0.7166 H   0  0  0  0  0  0  0  0  0  0  0  0
    5.7893    3.5424   -0.4760 H   0  0  0  0  0  0  0  0  0  0  0  0
    5.3785    2.8606    1.1734 H   0  0  0  0  0  0  0  0  0  0  0  0
    2.0113   -0.2083    1.7672 H   0  0  0  0  0  0  0  0  0  0  0  0
    0.6233    1.2377   -1.5934 H   0  0  0  0  0  0  0  0  0  0  0  0
   -1.3713    2.1762    0.0984 H   0  0  0  0  0  0  0  0  0  0  0  0
   -1.3349    2.3168   -1.6636 H   0  0  0  0  0  0  0  0  0  0  0  0
  1  2  1  0
  2  3  1  0
  3  4  2  0
  4  5  1  0
  5  6  2  0
  6  7  1  0
  7  8  2  0
  8  9  1  0
  9 10  1  0
 10 11  2  0
  8 12  1  0
 12 13  1  0
 13 14  1  0
 14 15  1  0
 14 16  1  0
 12 17  1  0
 17 18  1  0
 18 19  2  0
 18 20  1  0
 20 21  1  0
 21 22  1  0
 22 23  1  0
 23 24  2  0
 23 25  1  0
 25 26  1  0
 26 27  1  0
 26 28  1  0
 26 29  1  0
 20 30  1  0
 30 31  1  0
 31 32  2  0
 31 33  1  0
 33 34  1  0
 11  3  1  0
 33 17  1  0
 10  6  1  0
 34  7  1  0
  1 35  1  0
  1 36  1  0
  1 37  1  0
  4 38  1  0
  5 39  1  0
  9 40  1  0
 11 41  1  0
 12 42  1  6
 13 43  1  0
 13 44  1  0
 14 45  1  0
 15 46  1  0
 15 47  1  0
 15 48  1  0
 16 49  1  0
 16 50  1  0
 16 51  1  0
 20 52  1  6
 21 53  1  0
 21 54  1  0
 22 55  1  0
 22 56  1  0
 27 57  1  0
 27 58  1  0
 27 59  1  0
 28 60  1  0
 28 61  1  0
 28 62  1  0
 29 63  1  0
 29 64  1  0
 29 65  1  0
 30 66  1  0
 33 67  1  6
 34 68  1  0
 34 69  1  0
M  END
$$$$
