
     RDKit          3D

 27 28  0  0  0  0  0  0  0  0999 V2000
    1.4933   -2.9770    0.7197 O   0  0  0  0  0  0  0  0  0  0  0  0
    1.3549   -1.6948    0.4351 C   0  0  0  0  0  0  0  0  0  0  0  0
    0.0216   -1.2378    0.5639 C   0  0  0  0  0  0  0  0  0  0  0  0
   -0.4788   -0.0668    0.2756 C   0  0  0  0  0  0  0  0  0  0  0  0
   -1.9063    0.2943    0.4656 C   0  0  0  0  0  0  0  0  0  0  0  0
   -2.3038    1.5767    0.1184 C   0  0  0  0  0  0  0  0  0  0  0  0
   -3.6036    2.0203    0.2524 C   0  0  0  0  0  0  0  0  0  0  0  0
   -4.5360    1.1653    0.7455 C   0  0  0  0  0  0  0  0  0  0  0  0
   -6.1939    1.6827    0.9328 Cl  0  0  0  0  0  0  0  0  0  0  0  0
   -4.1632   -0.1083    1.0951 C   0  0  0  0  0  0  0  0  0  0  0  0
   -5.3688   -1.2021    1.7288 Cl  0  0  0  0  0  0  0  0  0  0  0  0
   -2.8398   -0.5667    0.9610 C   0  0  0  0  0  0  0  0  0  0  0  0
    2.5400   -1.0030    0.0518 C   0  0  0  0  0  0  0  0  0  0  0  0
    2.6631    0.3540    0.1297 C   0  0  0  0  0  0  0  0  0  0  0  0
    3.8151    0.9873   -0.3381 C   0  0  0  0  0  0  0  0  0  0  0  0
    4.8081    0.2144   -0.8690 C   0  0  0  0  0  0  0  0  0  0  0  0
    4.6743   -1.1177   -0.9365 N   0  0  0  0  0  0  0  0  0  0  0  0
    3.5992   -1.7560   -0.5060 C   0  0  0  0  0  0  0  0  0  0  0  0
   -0.7639   -1.9487    0.9717 H   0  0  0  0  0  0  0  0  0  0  0  0
    0.1766    0.6593   -0.1767 H   0  0  0  0  0  0  0  0  0  0  0  0
   -1.5594    2.2604   -0.2756 H   0  0  0  0  0  0  0  0  0  0  0  0
   -3.8534    3.0447   -0.0397 H   0  0  0  0  0  0  0  0  0  0  0  0
   -2.6079   -1.5716    1.2504 H   0  0  0  0  0  0  0  0  0  0  0  0
    1.9487    1.0166    0.5924 H   0  0  0  0  0  0  0  0  0  0  0  0
    3.9167    2.0800   -0.2790 H   0  0  0  0  0  0  0  0  0  0  0  0
    5.7119    0.7142   -1.2356 H   0  0  0  0  0  0  0  0  0  0  0  0
    3.4555   -2.8197   -0.5443 H   0  0  0  0  0  0  0  0  0  0  0  0
  1  2  2  0
  2  3  1  0
  3  4  2  0
  4  5  1  0
  5  6  2  0
  6  7  1  0
  7  8  2  0
  8  9  1  0
  8 10  1  0
 10 11  1  0
 10 12  2  0
  2 13  1  0
 13 14  2  0
 14 15  1  0
 15 16  2  0
 16 17  1  0
 17 18  2  0
 12  5  1  0
 18 13  1  0
  3 19  1  0
  4 20  1  0
  6 21  1  0
  7 22  1  0
 12 23  1  0
 14 24  1  0
 15 25  1  0
 16 26  1  0
 18 27  1  0
M  END
$$$$
