
     RDKit          3D

102108  0  0  0  0  0  0  0  0999 V2000
  -10.4179    1.0649    4.3256 C   0  0  0  0  0  0  0  0  0  0  0  0
  -10.7372    1.6048    3.0615 O   0  0  0  0  0  0  0  0  0  0  0  0
  -10.2663    0.9625    1.9096 C   0  0  0  0  0  0  0  0  0  0  0  0
  -10.5611    1.4631    0.6592 C   0  0  0  0  0  0  0  0  0  0  0  0
  -10.1115    0.8524   -0.4999 C   0  0  0  0  0  0  0  0  0  0  0  0
   -9.3405   -0.2969   -0.4437 C   0  0  0  0  0  0  0  0  0  0  0  0
   -8.8478   -0.9708   -1.5917 N   0  0  0  0  0  0  0  0  0  0  0  0
   -9.4445   -1.9008   -2.3145 N   0  0  0  0  0  0  0  0  0  0  0  0
   -8.6811   -2.3246   -3.3311 C   0  0  0  0  0  0  0  0  0  0  0  0
   -9.0185   -3.3665   -4.3639 C   0  0  0  0  0  0  0  0  0  0  0  0
   -7.8301   -4.2722   -4.4915 C   0  0  0  0  0  0  0  0  0  0  0  0
   -9.1478   -2.6176   -5.6812 C   0  0  0  0  0  0  0  0  0  0  0  0
   -7.5030   -1.6055   -3.2458 C   0  0  0  0  0  0  0  0  0  0  0  0
   -7.6273   -0.7807   -2.1717 C   0  0  0  0  0  0  0  0  0  0  0  0
   -6.6896    0.1530   -1.6578 N   0  0  0  0  0  0  0  0  0  0  0  0
   -5.7766   -0.1652   -0.5833 C   0  0  0  0  0  0  0  0  0  0  0  0
   -5.8642   -1.3035   -0.1294 O   0  0  0  0  0  0  0  0  0  0  0  0
   -4.8530    0.7758   -0.0923 N   0  0  0  0  0  0  0  0  0  0  0  0
   -3.9550    0.5579    0.9747 C   0  0  0  0  0  0  0  0  0  0  0  0
   -3.8996   -0.6070    1.6918 C   0  0  0  0  0  0  0  0  0  0  0  0
   -3.0329   -0.7691    2.7505 C   0  0  0  0  0  0  0  0  0  0  0  0
   -2.1773    0.2690    3.1208 C   0  0  0  0  0  0  0  0  0  0  0  0
   -1.3170    0.1256    4.1715 O   0  0  0  0  0  0  0  0  0  0  0  0
    0.0638    0.1212    4.1959 C   0  0  0  0  0  0  0  0  0  0  0  0
    0.7067    0.0193    5.4409 C   0  0  0  0  0  0  0  0  0  0  0  0
    2.0675    0.0192    5.4738 C   0  0  0  0  0  0  0  0  0  0  0  0
    2.7756    0.1127    4.3522 N   0  0  0  0  0  0  0  0  0  0  0  0
    2.1923    0.2099    3.1555 C   0  0  0  0  0  0  0  0  0  0  0  0
    2.9755    0.3231    1.9716 N   0  0  0  0  0  0  0  0  0  0  0  0
    4.3543    0.5446    1.8994 C   0  0  0  0  0  0  0  0  0  0  0  0
    5.1675    0.8645    2.9578 C   0  0  0  0  0  0  0  0  0  0  0  0
    6.5140    1.1042    2.8228 C   0  0  0  0  0  0  0  0  0  0  0  0
    7.1472    1.0358    1.5773 C   0  0  0  0  0  0  0  0  0  0  0  0
    8.5719    1.3122    1.4879 C   0  0  0  0  0  0  0  0  0  0  0  0
    9.1829    1.7187    2.5340 O   0  0  0  0  0  0  0  0  0  0  0  0
    9.3533    1.1674    0.3249 N   0  0  0  0  0  0  0  0  0  0  0  0
   10.7526    1.4663    0.3196 C   0  0  0  0  0  0  0  0  0  0  0  0
   11.4131    1.2184   -0.9943 C   0  0  0  0  0  0  0  0  0  0  0  0
   11.4334   -0.0872   -1.4810 N   0  0  0  0  0  0  0  0  0  0  0  0
   10.3118   -0.7718   -1.9148 C   0  0  0  0  0  0  0  0  0  0  0  0
   10.7950   -1.8688   -2.8948 C   0  0  0  0  0  0  0  0  0  0  0  0
   11.8864   -1.3294   -3.5551 O   0  0  0  0  0  0  0  0  0  0  0  0
   13.0126   -1.3912   -2.7024 C   0  0  0  0  0  0  0  0  0  0  0  0
   12.6743   -0.7732   -1.3510 C   0  0  0  0  0  0  0  0  0  0  0  0
    6.3462    0.7181    0.5179 C   0  0  0  0  0  0  0  0  0  0  0  0
    4.9946    0.4763    0.6473 C   0  0  0  0  0  0  0  0  0  0  0  0
    4.2624    0.1622   -0.4771 O   0  0  0  0  0  0  0  0  0  0  0  0
    4.8955    0.0893   -1.7297 C   0  0  0  0  0  0  0  0  0  0  0  0
    0.8532    0.2106    3.1223 N   0  0  0  0  0  0  0  0  0  0  0  0
   -2.2024    1.4664    2.4182 C   0  0  0  0  0  0  0  0  0  0  0  0
   -1.3499    2.4766    2.8199 C   0  0  0  0  0  0  0  0  0  0  0  0
   -1.3780    3.6677    2.1309 C   0  0  0  0  0  0  0  0  0  0  0  0
   -2.2289    3.8439    1.0774 C   0  0  0  0  0  0  0  0  0  0  0  0
   -3.0793    2.7975    0.7010 C   0  0  0  0  0  0  0  0  0  0  0  0
   -3.0879    1.5868    1.3611 C   0  0  0  0  0  0  0  0  0  0  0  0
   -9.0565   -0.7818    0.8265 C   0  0  0  0  0  0  0  0  0  0  0  0
   -9.5009   -0.1792    1.9881 C   0  0  0  0  0  0  0  0  0  0  0  0
  -10.7083   -0.0125    4.4081 H   0  0  0  0  0  0  0  0  0  0  0  0
  -10.9205    1.5794    5.1514 H   0  0  0  0  0  0  0  0  0  0  0  0
   -9.3317    1.0836    4.5535 H   0  0  0  0  0  0  0  0  0  0  0  0
  -11.1675    2.3668    0.6397 H   0  0  0  0  0  0  0  0  0  0  0  0
  -10.3497    1.2575   -1.4767 H   0  0  0  0  0  0  0  0  0  0  0  0
   -9.9285   -3.8962   -4.0953 H   0  0  0  0  0  0  0  0  0  0  0  0
   -7.8722   -4.9103   -5.4011 H   0  0  0  0  0  0  0  0  0  0  0  0
   -7.6639   -4.9386   -3.6434 H   0  0  0  0  0  0  0  0  0  0  0  0
   -6.9028   -3.6649   -4.6082 H   0  0  0  0  0  0  0  0  0  0  0  0
   -9.5641   -3.2462   -6.4652 H   0  0  0  0  0  0  0  0  0  0  0  0
   -8.1231   -2.3140   -5.9630 H   0  0  0  0  0  0  0  0  0  0  0  0
   -9.7110   -1.6930   -5.4566 H   0  0  0  0  0  0  0  0  0  0  0  0
   -6.6632   -1.7056   -3.9221 H   0  0  0  0  0  0  0  0  0  0  0  0
   -6.6281    1.1302   -2.0594 H   0  0  0  0  0  0  0  0  0  0  0  0
   -4.8883    1.7038   -0.6116 H   0  0  0  0  0  0  0  0  0  0  0  0
   -4.5401   -1.4746    1.4668 H   0  0  0  0  0  0  0  0  0  0  0  0
   -3.0199   -1.7020    3.2915 H   0  0  0  0  0  0  0  0  0  0  0  0
    0.1031   -0.0557    6.3292 H   0  0  0  0  0  0  0  0  0  0  0  0
    2.6216   -0.0567    6.4212 H   0  0  0  0  0  0  0  0  0  0  0  0
    2.4320    0.2263    1.0652 H   0  0  0  0  0  0  0  0  0  0  0  0
    4.7831    0.9537    3.9600 H   0  0  0  0  0  0  0  0  0  0  0  0
    7.1269    1.3564    3.6914 H   0  0  0  0  0  0  0  0  0  0  0  0
    8.8690    0.8445   -0.5297 H   0  0  0  0  0  0  0  0  0  0  0  0
   11.2991    0.8278    1.0734 H   0  0  0  0  0  0  0  0  0  0  0  0
   10.9558    2.5112    0.6444 H   0  0  0  0  0  0  0  0  0  0  0  0
   12.4829    1.6021   -0.9777 H   0  0  0  0  0  0  0  0  0  0  0  0
   10.9237    1.9483   -1.7331 H   0  0  0  0  0  0  0  0  0  0  0  0
    9.6059   -0.1580   -2.5416 H   0  0  0  0  0  0  0  0  0  0  0  0
    9.6815   -1.2623   -1.1350 H   0  0  0  0  0  0  0  0  0  0  0  0
    9.9783   -2.2049   -3.5426 H   0  0  0  0  0  0  0  0  0  0  0  0
   11.1710   -2.7320   -2.3087 H   0  0  0  0  0  0  0  0  0  0  0  0
   13.2291   -2.4723   -2.5953 H   0  0  0  0  0  0  0  0  0  0  0  0
   13.8695   -0.8161   -3.1071 H   0  0  0  0  0  0  0  0  0  0  0  0
   13.4531   -0.0542   -1.0295 H   0  0  0  0  0  0  0  0  0  0  0  0
   12.6304   -1.5546   -0.5614 H   0  0  0  0  0  0  0  0  0  0  0  0
    6.8389    0.6621   -0.4675 H   0  0  0  0  0  0  0  0  0  0  0  0
    4.1918   -0.2895   -2.5117 H   0  0  0  0  0  0  0  0  0  0  0  0
    5.3277    1.0665   -1.9892 H   0  0  0  0  0  0  0  0  0  0  0  0
    5.7695   -0.6126   -1.6319 H   0  0  0  0  0  0  0  0  0  0  0  0
   -0.6770    2.3628    3.6715 H   0  0  0  0  0  0  0  0  0  0  0  0
   -0.7134    4.4572    2.4398 H   0  0  0  0  0  0  0  0  0  0  0  0
   -2.2570    4.7846    0.5224 H   0  0  0  0  0  0  0  0  0  0  0  0
   -3.7298    2.9843   -0.1376 H   0  0  0  0  0  0  0  0  0  0  0  0
   -8.4488   -1.6870    0.8656 H   0  0  0  0  0  0  0  0  0  0  0  0
   -9.2550   -0.5941    2.9707 H   0  0  0  0  0  0  0  0  0  0  0  0
  1  2  1  0
  2  3  1  0
  3  4  2  0
  4  5  1  0
  5  6  2  0
  6  7  1  0
  7  8  1  0
  8  9  2  0
  9 10  1  0
 10 11  1  0
 10 12  1  0
  9 13  1  0
 13 14  2  0
 14 15  1  0
 15 16  1  0
 16 17  2  0
 16 18  1  0
 18 19  1  0
 19 20  2  0
 20 21  1  0
 21 22  2  0
 22 23  1  0
 23 24  1  0
 24 25  2  0
 25 26  1  0
 26 27  2  0
 27 28  1  0
 28 29  1  0
 29 30  1  0
 30 31  2  0
 31 32  1  0
 32 33  2  0
 33 34  1  0
 34 35  2  0
 34 36  1  0
 36 37  1  0
 37 38  1  0
 38 39  1  0
 39 40  1  0
 40 41  1  0
 41 42  1  0
 42 43  1  0
 43 44  1  0
 33 45  1  0
 45 46  2  0
 46 47  1  0
 47 48  1  0
 28 49  2  0
 22 50  1  0
 50 51  2  0
 51 52  1  0
 52 53  2  0
 53 54  1  0
 54 55  2  0
  6 56  1  0
 56 57  2  0
 57  3  1  0
 14  7  1  0
 55 19  1  0
 49 24  1  0
 55 50  1  0
 46 30  1  0
 44 39  1  0
  1 58  1  0
  1 59  1  0
  1 60  1  0
  4 61  1  0
  5 62  1  0
 10 63  1  0
 11 64  1  0
 11 65  1  0
 11 66  1  0
 12 67  1  0
 12 68  1  0
 12 69  1  0
 13 70  1  0
 15 71  1  0
 18 72  1  0
 20 73  1  0
 21 74  1  0
 25 75  1  0
 26 76  1  0
 29 77  1  0
 31 78  1  0
 32 79  1  0
 36 80  1  0
 37 81  1  0
 37 82  1  0
 38 83  1  0
 38 84  1  0
 40 85  1  0
 40 86  1  0
 41 87  1  0
 41 88  1  0
 43 89  1  0
 43 90  1  0
 44 91  1  0
 44 92  1  0
 45 93  1  0
 48 94  1  0
 48 95  1  0
 48 96  1  0
 51 97  1  0
 52 98  1  0
 53 99  1  0
 54100  1  0
 56101  1  0
 57102  1  0
M  END
$$$$
