
     RDKit          3D

 40 41  0  0  0  0  0  0  0  0999 V2000
    3.2394    2.1427   -0.1220 C   0  0  0  0  0  0  0  0  0  0  0  0
    3.4462    1.1357    1.0164 C   0  0  0  0  0  0  0  0  0  0  0  0
    4.8271    1.3557    1.5888 C   0  0  0  0  0  0  0  0  0  0  0  0
    2.3583    1.4409    2.0579 C   0  0  0  0  0  0  0  0  0  0  0  0
    1.1054    1.2546    1.3551 N   0  0  0  0  0  0  0  0  0  0  0  0
    0.6521    0.0422    0.8382 C   0  0  0  0  0  0  0  0  0  0  0  0
    1.3423   -1.1033    0.9441 N   0  0  0  0  0  0  0  0  0  0  0  0
    0.9058   -2.2732    0.4547 C   0  0  0  0  0  0  0  0  0  0  0  0
    1.6808   -3.4813    0.5932 C   0  0  0  0  0  0  0  0  0  0  0  0
    2.3306   -4.4591    0.6984 N   0  0  0  0  0  0  0  0  0  0  0  0
   -0.2789   -2.3140   -0.1750 N   0  0  0  0  0  0  0  0  0  0  0  0
   -1.0414   -1.2283   -0.3325 C   0  0  0  0  0  0  0  0  0  0  0  0
   -2.2953   -1.2337   -0.9839 N   0  0  0  0  0  0  0  0  0  0  0  0
   -3.4801   -0.8927   -0.2307 C   0  0  0  0  0  0  0  0  0  0  0  0
   -4.5541   -0.2692   -1.0939 C   0  0  0  0  0  0  0  0  0  0  0  0
   -3.9900    0.1277   -2.2803 O   0  0  0  0  0  0  0  0  0  0  0  0
   -3.6489   -1.0435   -2.9961 C   0  0  0  0  0  0  0  0  0  0  0  0
   -2.3455   -1.5842   -2.4006 C   0  0  0  0  0  0  0  0  0  0  0  0
   -0.5706   -0.0204    0.1835 C   0  0  0  0  0  0  0  0  0  0  0  0
   -1.3001    1.1828    0.0662 N   0  0  0  0  0  0  0  0  0  0  0  0
    2.3374    1.9007   -0.7012 H   0  0  0  0  0  0  0  0  0  0  0  0
    3.1660    3.1364    0.4106 H   0  0  0  0  0  0  0  0  0  0  0  0
    4.1746    2.1683   -0.6919 H   0  0  0  0  0  0  0  0  0  0  0  0
    3.3535    0.1052    0.6309 H   0  0  0  0  0  0  0  0  0  0  0  0
    5.4032    2.0866    0.9554 H   0  0  0  0  0  0  0  0  0  0  0  0
    4.7086    1.7870    2.6094 H   0  0  0  0  0  0  0  0  0  0  0  0
    5.3529    0.3710    1.6323 H   0  0  0  0  0  0  0  0  0  0  0  0
    2.5032    2.4291    2.4725 H   0  0  0  0  0  0  0  0  0  0  0  0
    2.4235    0.5982    2.7864 H   0  0  0  0  0  0  0  0  0  0  0  0
    0.5308    2.1234    1.2509 H   0  0  0  0  0  0  0  0  0  0  0  0
   -3.9155   -1.7914    0.2772 H   0  0  0  0  0  0  0  0  0  0  0  0
   -3.1888   -0.1479    0.5352 H   0  0  0  0  0  0  0  0  0  0  0  0
   -5.3631   -1.0090   -1.3320 H   0  0  0  0  0  0  0  0  0  0  0  0
   -5.0642    0.5666   -0.5521 H   0  0  0  0  0  0  0  0  0  0  0  0
   -4.4064   -1.8280   -2.8506 H   0  0  0  0  0  0  0  0  0  0  0  0
   -3.4720   -0.7682   -4.0342 H   0  0  0  0  0  0  0  0  0  0  0  0
   -1.4858   -1.0979   -2.8786 H   0  0  0  0  0  0  0  0  0  0  0  0
   -2.2788   -2.6762   -2.4573 H   0  0  0  0  0  0  0  0  0  0  0  0
   -1.7235    1.4128   -0.8517 H   0  0  0  0  0  0  0  0  0  0  0  0
   -1.4389    1.8539    0.8448 H   0  0  0  0  0  0  0  0  0  0  0  0
  1  2  1  0
  2  3  1  0
  2  4  1  0
  4  5  1  0
  5  6  1  0
  6  7  2  0
  7  8  1  0
  8  9  1  0
  9 10  3  0
  8 11  2  0
 11 12  1  0
 12 13  1  0
 13 14  1  0
 14 15  1  0
 15 16  1  0
 16 17  1  0
 17 18  1  0
 12 19  2  0
 19 20  1  0
 19  6  1  0
 18 13  1  0
  1 21  1  0
  1 22  1  0
  1 23  1  0
  2 24  1  0
  3 25  1  0
  3 26  1  0
  3 27  1  0
  4 28  1  0
  4 29  1  0
  5 30  1  0
 14 31  1  0
 14 32  1  0
 15 33  1  0
 15 34  1  0
 17 35  1  0
 17 36  1  0
 18 37  1  0
 18 38  1  0
 20 39  1  0
 20 40  1  0
M  END
$$$$
