
     RDKit          3D

 24 23  0  0  0  0  0  0  0  0999 V2000
    3.6742   -0.4883    0.1462 N   0  0  0  0  0  0  0  0  0  0  0  0
    2.5117    0.2825   -0.2136 C   0  0  0  0  0  0  0  0  0  0  0  0
    1.2141   -0.4735    0.0829 C   0  0  0  0  0  0  0  0  0  0  0  0
    0.1222    0.4608   -0.3458 C   0  0  0  0  0  0  0  0  0  0  0  0
   -1.2596   -0.0603   -0.1528 C   0  0  1  0  0  0  0  0  0  0  0  0
   -1.4140   -1.2791   -0.9263 N   0  0  0  0  0  0  0  0  0  0  0  0
   -1.6438   -0.3661    1.2421 C   0  0  0  0  0  0  0  0  0  0  0  0
   -1.5973    0.6881    2.1045 F   0  0  0  0  0  0  0  0  0  0  0  0
   -2.9777   -0.7747    1.2100 F   0  0  0  0  0  0  0  0  0  0  0  0
   -2.1967    0.9500   -0.7315 C   0  0  0  0  0  0  0  0  0  0  0  0
   -2.1148    2.1733   -0.0392 O   0  0  0  0  0  0  0  0  0  0  0  0
   -3.0304    0.9394   -1.6914 O   0  0  0  0  0  0  0  0  0  0  0  0
    3.9945   -0.3564    1.1276 H   0  0  0  0  0  0  0  0  0  0  0  0
    3.6457   -1.4645   -0.1903 H   0  0  0  0  0  0  0  0  0  0  0  0
    2.5689    0.4484   -1.3232 H   0  0  0  0  0  0  0  0  0  0  0  0
    2.5563    1.2584    0.2804 H   0  0  0  0  0  0  0  0  0  0  0  0
    1.2436   -0.6337    1.1828 H   0  0  0  0  0  0  0  0  0  0  0  0
    1.2452   -1.4204   -0.4655 H   0  0  0  0  0  0  0  0  0  0  0  0
    0.2963    0.6554   -1.4243 H   0  0  0  0  0  0  0  0  0  0  0  0
    0.2849    1.4287    0.1773 H   0  0  0  0  0  0  0  0  0  0  0  0
   -0.8035   -2.0468   -0.5875 H   0  0  0  0  0  0  0  0  0  0  0  0
   -2.4178   -1.5561   -0.8653 H   0  0  0  0  0  0  0  0  0  0  0  0
   -1.0824   -1.2697    1.6095 H   0  0  0  0  0  0  0  0  0  0  0  0
   -2.8199    2.9046   -0.2066 H   0  0  0  0  0  0  0  0  0  0  0  0
  1  2  1  0
  2  3  1  0
  3  4  1  0
  4  5  1  0
  5  6  1  6
  5  7  1  0
  7  8  1  0
  7  9  1  0
  5 10  1  0
 10 11  1  0
 10 12  2  0
  1 13  1  0
  1 14  1  0
  2 15  1  0
  2 16  1  0
  3 17  1  0
  3 18  1  0
  4 19  1  0
  4 20  1  0
  6 21  1  0
  6 22  1  0
  7 23  1  0
 11 24  1  0
M  END
$$$$
