
     RDKit          3D

 41 43  0  0  0  0  0  0  0  0999 V2000
   -3.5288   -0.4093    2.0311 C   0  0  0  0  0  0  0  0  0  0  0  0
   -4.0285   -0.3895    0.6301 C   0  0  1  0  0  0  0  0  0  0  0  0
   -5.1003    0.6870    0.4262 C   0  0  0  0  0  0  0  0  0  0  0  0
   -5.7807    0.3995   -0.8754 C   0  0  0  0  0  0  0  0  0  0  0  0
   -5.0444   -0.5849   -1.7474 C   0  0  0  0  0  0  0  0  0  0  0  0
   -3.5727   -0.2978   -1.8243 C   0  0  0  0  0  0  0  0  0  0  0  0
   -3.0309   -0.1807   -0.4157 C   0  0  0  0  0  0  0  0  0  0  0  0
   -1.8176    0.0674   -0.2988 N   0  0  0  0  0  0  0  0  0  0  0  0
   -0.9408    0.2419    0.7115 N   0  0  0  0  0  0  0  0  0  0  0  0
    0.4658   -0.2082    0.5974 C   0  0  0  0  0  0  0  0  0  0  0  0
    1.5335    0.1003    0.4523 N   0  0  0  0  0  0  0  0  0  0  0  0
    2.6452   -0.6048    0.3749 C   0  0  0  0  0  0  0  0  0  0  0  0
    4.0291   -0.0707    0.1981 C   0  0  0  0  0  0  0  0  0  0  0  0
    5.0977   -0.9356    0.1273 C   0  0  0  0  0  0  0  0  0  0  0  0
    6.3868   -0.4447   -0.0170 C   0  0  0  0  0  0  0  0  0  0  0  0
    6.6514    0.9000   -0.0939 C   0  0  0  0  0  0  0  0  0  0  0  0
    7.9429    1.4321   -0.2376 N   0  0  0  0  0  4  0  0  0  0  0  0
    8.9139    0.6621   -0.3064 O   0  0  0  0  0  0  0  0  0  0  0  0
    8.1548    2.7755   -0.3023 O   0  0  0  0  0  1  0  0  0  0  0  0
    5.5664    1.7450   -0.0214 C   0  0  0  0  0  0  0  0  0  0  0  0
    4.2850    1.2748    0.1213 C   0  0  0  0  0  0  0  0  0  0  0  0
    2.4493   -1.9664    0.4947 C   0  0  0  0  0  0  0  0  0  0  0  0
    0.6535   -2.0930    0.7121 S   0  0  0  0  0  0  0  0  0  0  0  0
   -3.4083    0.6181    2.4095 H   0  0  0  0  0  0  0  0  0  0  0  0
   -2.6718   -1.0683    2.1227 H   0  0  0  0  0  0  0  0  0  0  0  0
   -4.3440   -0.8668    2.6541 H   0  0  0  0  0  0  0  0  0  0  0  0
   -4.5537   -1.3510    0.3929 H   0  0  0  0  0  0  0  0  0  0  0  0
   -5.8014    0.7292    1.2801 H   0  0  0  0  0  0  0  0  0  0  0  0
   -4.5736    1.6576    0.3371 H   0  0  0  0  0  0  0  0  0  0  0  0
   -6.7896   -0.0392   -0.6645 H   0  0  0  0  0  0  0  0  0  0  0  0
   -5.9849    1.3417   -1.4578 H   0  0  0  0  0  0  0  0  0  0  0  0
   -5.4351   -0.4371   -2.7976 H   0  0  0  0  0  0  0  0  0  0  0  0
   -5.2659   -1.6199   -1.4918 H   0  0  0  0  0  0  0  0  0  0  0  0
   -3.0747   -1.2185   -2.2219 H   0  0  0  0  0  0  0  0  0  0  0  0
   -3.3836    0.5966   -2.4066 H   0  0  0  0  0  0  0  0  0  0  0  0
   -1.2079    0.7061    1.6015 H   0  0  0  0  0  0  0  0  0  0  0  0
    4.9694   -2.0189    0.1815 H   0  0  0  0  0  0  0  0  0  0  0  0
    7.2304   -1.1283   -0.0733 H   0  0  0  0  0  0  0  0  0  0  0  0
    5.7566    2.8252   -0.0818 H   0  0  0  0  0  0  0  0  0  0  0  0
    3.4712    1.9865    0.1723 H   0  0  0  0  0  0  0  0  0  0  0  0
    3.1364   -2.8130    0.4744 H   0  0  0  0  0  0  0  0  0  0  0  0
  1  2  1  0
  2  3  1  0
  3  4  1  0
  4  5  1  0
  5  6  1  0
  6  7  1  0
  7  8  2  3
  8  9  1  0
  9 10  1  0
 10 11  2  0
 11 12  1  0
 12 13  1  0
 13 14  2  0
 14 15  1  0
 15 16  2  0
 16 17  1  0
 17 18  2  0
 17 19  1  0
 16 20  1  0
 20 21  2  0
 12 22  2  0
 22 23  1  0
  7  2  1  0
 23 10  1  0
 21 13  1  0
  1 24  1  0
  1 25  1  0
  1 26  1  0
  2 27  1  6
  3 28  1  0
  3 29  1  0
  4 30  1  0
  4 31  1  0
  5 32  1  0
  5 33  1  0
  6 34  1  0
  6 35  1  0
  9 36  1  0
 14 37  1  0
 15 38  1  0
 20 39  1  0
 21 40  1  0
 22 41  1  0
M  CHG  2  17   1  19  -1
M  END
$$$$
