
     RDKit          3D

 67 71  0  0  0  0  0  0  0  0999 V2000
   -6.4663   -4.2128    0.4943 C   0  0  0  0  0  0  0  0  0  0  0  0
   -6.5250   -2.7103    0.3266 C   0  0  0  0  0  0  0  0  0  0  0  0
   -7.7818   -2.1198    0.8954 C   0  0  0  0  0  0  0  0  0  0  0  0
   -6.5407   -2.4444   -1.1758 C   0  0  0  0  0  0  0  0  0  0  0  0
   -5.3898   -2.0753    0.9251 O   0  0  0  0  0  0  0  0  0  0  0  0
   -4.1047   -2.3832    0.4855 C   0  0  0  0  0  0  0  0  0  0  0  0
   -4.0210   -3.2279   -0.4403 O   0  0  0  0  0  0  0  0  0  0  0  0
   -2.9422   -1.8007    1.0244 N   0  0  0  0  0  0  0  0  0  0  0  0
   -2.8286   -0.8231    2.0796 C   0  0  0  0  0  0  0  0  0  0  0  0
   -1.7985    0.1439    1.4793 C   0  0  2  0  0  0  0  0  0  0  0  0
   -2.4490    1.3209    0.9745 N   0  0  0  0  0  0  0  0  0  0  0  0
   -1.7093    2.3802    0.3857 C   0  0  0  0  0  0  0  0  0  0  0  0
   -0.3592    2.4473    0.2184 N   0  0  0  0  0  0  0  0  0  0  0  0
   -0.0308    3.6061   -0.3776 C   0  0  0  0  0  0  0  0  0  0  0  0
    1.1500    4.1924   -0.7804 C   0  0  0  0  0  0  0  0  0  0  0  0
    1.1590    5.4275   -1.3816 C   0  0  0  0  0  0  0  0  0  0  0  0
    2.3290    5.9797   -1.7668 F   0  0  0  0  0  0  0  0  0  0  0  0
   -0.0078    6.1273   -1.6053 C   0  0  0  0  0  0  0  0  0  0  0  0
   -1.1930    5.5603   -1.2114 C   0  0  0  0  0  0  0  0  0  0  0  0
   -1.1982    4.3030   -0.5997 C   0  0  0  0  0  0  0  0  0  0  0  0
   -2.1899    3.5319   -0.1261 N   0  0  0  0  0  0  0  0  0  0  0  0
   -1.0751   -0.6495    0.4127 C   0  0  1  0  0  0  0  0  0  0  0  0
    0.3263   -0.6608    0.5867 O   0  0  0  0  0  0  0  0  0  0  0  0
    1.2059   -0.3694   -0.4524 C   0  0  0  0  0  0  0  0  0  0  0  0
    0.6600   -0.0955   -1.5621 O   0  0  0  0  0  0  0  0  0  0  0  0
    2.6491   -0.3767   -0.2837 C   0  0  0  0  0  0  0  0  0  0  0  0
    3.4671   -0.0836   -1.3453 C   0  0  0  0  0  0  0  0  0  0  0  0
    4.8493   -0.0869   -1.1902 C   0  0  0  0  0  0  0  0  0  0  0  0
    5.4459   -0.3828    0.0283 C   0  0  0  0  0  0  0  0  0  0  0  0
    6.8994   -0.3730    0.1436 C   0  0  0  0  0  0  0  0  0  0  0  0
    7.6653    0.4920   -0.6203 C   0  0  0  0  0  0  0  0  0  0  0  0
    9.0567    0.4883   -0.4967 C   0  0  0  0  0  0  0  0  0  0  0  0
    9.6963   -0.3630    0.3754 C   0  0  0  0  0  0  0  0  0  0  0  0
    8.9391   -1.2195    1.1317 C   0  0  0  0  0  0  0  0  0  0  0  0
    7.5567   -1.2087    1.0021 C   0  0  0  0  0  0  0  0  0  0  0  0
    4.6015   -0.6731    1.0762 C   0  0  0  0  0  0  0  0  0  0  0  0
    3.2322   -0.6712    0.9273 C   0  0  0  0  0  0  0  0  0  0  0  0
   -1.5934   -2.0845    0.6018 C   0  0  0  0  0  0  0  0  0  0  0  0
   -5.4697   -4.4982    0.8949 H   0  0  0  0  0  0  0  0  0  0  0  0
   -6.5846   -4.7585   -0.4634 H   0  0  0  0  0  0  0  0  0  0  0  0
   -7.2375   -4.5687    1.2152 H   0  0  0  0  0  0  0  0  0  0  0  0
   -7.7034   -1.0142    0.7721 H   0  0  0  0  0  0  0  0  0  0  0  0
   -8.6392   -2.5306    0.3193 H   0  0  0  0  0  0  0  0  0  0  0  0
   -7.8582   -2.3781    1.9685 H   0  0  0  0  0  0  0  0  0  0  0  0
   -6.0812   -3.2965   -1.7397 H   0  0  0  0  0  0  0  0  0  0  0  0
   -7.5876   -2.3705   -1.5356 H   0  0  0  0  0  0  0  0  0  0  0  0
   -6.0326   -1.4834   -1.4098 H   0  0  0  0  0  0  0  0  0  0  0  0
   -3.7876   -0.3104    2.2882 H   0  0  0  0  0  0  0  0  0  0  0  0
   -2.3630   -1.2531    2.9820 H   0  0  0  0  0  0  0  0  0  0  0  0
   -1.0405    0.4177    2.2401 H   0  0  0  0  0  0  0  0  0  0  0  0
   -3.4840    1.3911    1.0456 H   0  0  0  0  0  0  0  0  0  0  0  0
    2.0711    3.6229   -0.5955 H   0  0  0  0  0  0  0  0  0  0  0  0
    0.0075    7.1139   -2.0864 H   0  0  0  0  0  0  0  0  0  0  0  0
   -2.1063    6.1107   -1.3877 H   0  0  0  0  0  0  0  0  0  0  0  0
   -3.1892    3.7891   -0.1511 H   0  0  0  0  0  0  0  0  0  0  0  0
   -1.3788   -0.3812   -0.6199 H   0  0  0  0  0  0  0  0  0  0  0  0
    3.0742    0.1584   -2.3319 H   0  0  0  0  0  0  0  0  0  0  0  0
    5.4968    0.1422   -2.0193 H   0  0  0  0  0  0  0  0  0  0  0  0
    7.2012    1.1741   -1.3146 H   0  0  0  0  0  0  0  0  0  0  0  0
    9.6258    1.1857   -1.1168 H   0  0  0  0  0  0  0  0  0  0  0  0
   10.7778   -0.3635    0.4692 H   0  0  0  0  0  0  0  0  0  0  0  0
    9.4494   -1.8846    1.8136 H   0  0  0  0  0  0  0  0  0  0  0  0
    6.9903   -1.8958    1.6127 H   0  0  0  0  0  0  0  0  0  0  0  0
    5.0327   -0.9069    2.0333 H   0  0  0  0  0  0  0  0  0  0  0  0
    2.6338   -0.9083    1.7925 H   0  0  0  0  0  0  0  0  0  0  0  0
   -1.5263   -2.6582   -0.3255 H   0  0  0  0  0  0  0  0  0  0  0  0
   -0.9757   -2.5503    1.4057 H   0  0  0  0  0  0  0  0  0  0  0  0
  1  2  1  0
  2  3  1  0
  2  4  1  0
  2  5  1  0
  5  6  1  0
  6  7  2  0
  6  8  1  0
  8  9  1  0
  9 10  1  0
 10 11  1  0
 11 12  1  0
 12 13  2  0
 13 14  1  0
 14 15  2  0
 15 16  1  0
 16 17  1  0
 16 18  2  0
 18 19  1  0
 19 20  2  0
 20 21  1  0
 10 22  1  0
 22 23  1  0
 23 24  1  0
 24 25  2  0
 24 26  1  0
 26 27  2  0
 27 28  1  0
 28 29  2  0
 29 30  1  0
 30 31  2  0
 31 32  1  0
 32 33  2  0
 33 34  1  0
 34 35  2  0
 29 36  1  0
 36 37  2  0
 22 38  1  0
 38  8  1  0
 21 12  1  0
 37 26  1  0
 20 14  1  0
 35 30  1  0
  1 39  1  0
  1 40  1  0
  1 41  1  0
  3 42  1  0
  3 43  1  0
  3 44  1  0
  4 45  1  0
  4 46  1  0
  4 47  1  0
  9 48  1  0
  9 49  1  0
 10 50  1  1
 11 51  1  0
 15 52  1  0
 18 53  1  0
 19 54  1  0
 21 55  1  0
 22 56  1  6
 27 57  1  0
 28 58  1  0
 31 59  1  0
 32 60  1  0
 33 61  1  0
 34 62  1  0
 35 63  1  0
 36 64  1  0
 37 65  1  0
 38 66  1  0
 38 67  1  0
M  END
$$$$
