
     RDKit          3D

 53 55  0  0  0  0  0  0  0  0999 V2000
    8.8404    2.6690   -0.6727 C   0  0  0  0  0  0  0  0  0  0  0  0
    8.6450    1.2063   -1.0948 C   0  0  0  0  0  0  0  0  0  0  0  0
    7.3919    0.7481   -0.4441 C   0  0  0  0  0  0  0  0  0  0  0  0
    7.3898    0.1724    0.8070 C   0  0  0  0  0  0  0  0  0  0  0  0
    6.2013   -0.2490    1.3959 C   0  0  0  0  0  0  0  0  0  0  0  0
    4.9860   -0.1052    0.7484 C   0  0  0  0  0  0  0  0  0  0  0  0
    3.7548   -0.5261    1.3610 C   0  0  0  0  0  0  0  0  0  0  0  0
    2.8467   -1.1682    0.6450 C   0  0  0  0  0  0  0  0  0  0  0  0
    2.9517   -1.6119   -1.0868 S   0  0  0  0  0  0  0  0  0  0  0  0
    1.3314   -2.3353   -1.2048 C   0  0  0  0  0  0  0  0  0  0  0  0
    0.6668   -2.9337   -2.5578 S   0  0  0  0  0  0  0  0  0  0  0  0
    0.7751   -2.2739    0.0910 N   0  0  0  0  0  0  0  0  0  0  0  0
   -0.5769   -2.8313    0.3778 C   0  0  0  0  0  0  0  0  0  0  0  0
   -1.6192   -1.7686    0.1535 C   0  0  0  0  0  0  0  0  0  0  0  0
   -3.0101   -2.2894    0.4353 C   0  0  0  0  0  0  0  0  0  0  0  0
   -3.9818   -1.1913    0.1889 C   0  0  0  0  0  0  0  0  0  0  0  0
   -3.5955   -0.0644   -0.2004 O   0  0  0  0  0  0  0  0  0  0  0  0
   -5.3796   -1.3587    0.3795 N   0  0  0  0  0  0  0  0  0  0  0  0
   -6.2630   -0.2754    0.1278 C   0  0  0  0  0  0  0  0  0  0  0  0
   -6.8516   -0.0467   -1.0989 C   0  0  0  0  0  0  0  0  0  0  0  0
   -7.7039    1.0186   -1.3157 C   0  0  0  0  0  0  0  0  0  0  0  0
   -7.9836    1.8884   -0.2822 C   0  0  0  0  0  0  0  0  0  0  0  0
   -8.8930    3.0362   -0.4967 C   0  0  0  0  0  0  0  0  0  0  0  0
   -9.4183    3.2227   -1.6217 O   0  0  0  0  0  0  0  0  0  0  0  0
   -9.1935    3.9262    0.5058 O   0  0  0  0  0  0  0  0  0  0  0  0
   -7.4105    1.6844    0.9519 C   0  0  0  0  0  0  0  0  0  0  0  0
   -6.5670    0.6143    1.1338 C   0  0  0  0  0  0  0  0  0  0  0  0
    1.5465   -1.6701    1.0715 C   0  0  0  0  0  0  0  0  0  0  0  0
    1.1804   -1.5372    2.2991 O   0  0  0  0  0  0  0  0  0  0  0  0
    4.9930    0.4678   -0.4947 C   0  0  0  0  0  0  0  0  0  0  0  0
    6.1735    0.8843   -1.0751 C   0  0  0  0  0  0  0  0  0  0  0  0
    8.8895    2.6961    0.4438 H   0  0  0  0  0  0  0  0  0  0  0  0
    7.9482    3.2598   -0.9700 H   0  0  0  0  0  0  0  0  0  0  0  0
    9.7287    3.0979   -1.1602 H   0  0  0  0  0  0  0  0  0  0  0  0
    9.5017    0.6193   -0.7422 H   0  0  0  0  0  0  0  0  0  0  0  0
    8.5462    1.1368   -2.1918 H   0  0  0  0  0  0  0  0  0  0  0  0
    8.3457    0.0693    1.2945 H   0  0  0  0  0  0  0  0  0  0  0  0
    6.2483   -0.6968    2.3867 H   0  0  0  0  0  0  0  0  0  0  0  0
    3.5407   -0.3335    2.4027 H   0  0  0  0  0  0  0  0  0  0  0  0
   -0.7798   -3.6654   -0.3211 H   0  0  0  0  0  0  0  0  0  0  0  0
   -0.6381   -3.2225    1.3960 H   0  0  0  0  0  0  0  0  0  0  0  0
   -1.4455   -0.9279    0.8859 H   0  0  0  0  0  0  0  0  0  0  0  0
   -1.5789   -1.4114   -0.8815 H   0  0  0  0  0  0  0  0  0  0  0  0
   -3.1940   -3.1322   -0.2550 H   0  0  0  0  0  0  0  0  0  0  0  0
   -3.0972   -2.6875    1.4720 H   0  0  0  0  0  0  0  0  0  0  0  0
   -5.7293   -2.2834    0.7028 H   0  0  0  0  0  0  0  0  0  0  0  0
   -6.6241   -0.7346   -1.8996 H   0  0  0  0  0  0  0  0  0  0  0  0
   -8.1551    1.1756   -2.2920 H   0  0  0  0  0  0  0  0  0  0  0  0
   -9.2178    4.9320    0.3180 H   0  0  0  0  0  0  0  0  0  0  0  0
   -7.6210    2.3670    1.7856 H   0  0  0  0  0  0  0  0  0  0  0  0
   -6.1358    0.4879    2.1215 H   0  0  0  0  0  0  0  0  0  0  0  0
    4.0784    0.6127   -1.0405 H   0  0  0  0  0  0  0  0  0  0  0  0
    6.1627    1.3385   -2.0664 H   0  0  0  0  0  0  0  0  0  0  0  0
  1  2  1  0
  2  3  1  0
  3  4  2  0
  4  5  1  0
  5  6  2  0
  6  7  1  0
  7  8  2  0
  8  9  1  0
  9 10  1  0
 10 11  2  0
 10 12  1  0
 12 13  1  0
 13 14  1  0
 14 15  1  0
 15 16  1  0
 16 17  2  0
 16 18  1  0
 18 19  1  0
 19 20  2  0
 20 21  1  0
 21 22  2  0
 22 23  1  0
 23 24  2  0
 23 25  1  0
 22 26  1  0
 26 27  2  0
 12 28  1  0
 28 29  2  0
  6 30  1  0
 30 31  2  0
 31  3  1  0
 28  8  1  0
 27 19  1  0
  1 32  1  0
  1 33  1  0
  1 34  1  0
  2 35  1  0
  2 36  1  0
  4 37  1  0
  5 38  1  0
  7 39  1  0
 13 40  1  0
 13 41  1  0
 14 42  1  0
 14 43  1  0
 15 44  1  0
 15 45  1  0
 18 46  1  0
 20 47  1  0
 21 48  1  0
 25 49  1  0
 26 50  1  0
 27 51  1  0
 30 52  1  0
 31 53  1  0
M  END
$$$$
