
     RDKit          3D

 36 38  0  0  0  0  0  0  0  0999 V2000
   -3.2064   -0.2563    1.2113 C   0  0  0  0  0  0  0  0  0  0  0  0
   -1.9434   -0.2791    0.4825 C   0  0  0  0  0  0  0  0  0  0  0  0
   -1.2314    0.9233    0.5370 C   0  0  0  0  0  0  0  0  0  0  0  0
   -1.7194    2.0366    1.2125 C   0  0  0  0  0  0  0  0  0  0  0  0
   -1.0682    3.2499    1.2786 C   0  0  0  0  0  0  0  0  0  0  0  0
    0.1575    3.3518    0.6206 C   0  0  0  0  0  0  0  0  0  0  0  0
    0.6470    2.2437   -0.0531 C   0  0  0  0  0  0  0  0  0  0  0  0
   -0.0126    1.0339   -0.1113 C   0  0  0  0  0  0  0  0  0  0  0  0
    0.6042    0.0198   -0.8454 C   0  0  0  0  0  0  0  0  0  0  0  0
    1.9021    0.0941   -1.4696 C   0  0  0  0  0  0  0  0  0  0  0  0
    3.0520   -0.2810   -0.5590 C   0  0  0  0  0  0  0  0  0  0  0  0
    3.1887    0.5403    0.6509 C   0  0  0  0  0  0  0  0  0  0  0  0
    3.2018    1.4069    1.7592 O   0  0  0  0  0  0  0  0  0  0  0  0
    4.1242    0.2055    1.4298 O   0  0  0  0  0  0  0  0  0  0  0  0
   -0.1365   -1.1571   -0.8754 C   0  0  0  0  0  0  0  0  0  0  0  0
   -1.3514   -1.2827   -0.2358 C   0  0  0  0  0  0  0  0  0  0  0  0
   -2.0728   -2.4575   -0.2710 C   0  0  0  0  0  0  0  0  0  0  0  0
   -1.6182   -3.5706   -0.9468 C   0  0  0  0  0  0  0  0  0  0  0  0
   -0.3966   -3.4810   -1.6025 C   0  0  0  0  0  0  0  0  0  0  0  0
    0.2900   -2.2865   -1.5407 C   0  0  0  0  0  0  0  0  0  0  0  0
   -2.9468    0.0617    2.2677 H   0  0  0  0  0  0  0  0  0  0  0  0
   -3.8819    0.5798    0.8558 H   0  0  0  0  0  0  0  0  0  0  0  0
   -3.7452   -1.1947    1.3285 H   0  0  0  0  0  0  0  0  0  0  0  0
   -2.6652    1.9952    1.7321 H   0  0  0  0  0  0  0  0  0  0  0  0
   -1.4909    4.0910    1.8185 H   0  0  0  0  0  0  0  0  0  0  0  0
    0.6528    4.3129    0.6837 H   0  0  0  0  0  0  0  0  0  0  0  0
    1.5739    2.4604   -0.5261 H   0  0  0  0  0  0  0  0  0  0  0  0
    2.2115    1.0880   -1.8491 H   0  0  0  0  0  0  0  0  0  0  0  0
    1.9389   -0.5598   -2.3590 H   0  0  0  0  0  0  0  0  0  0  0  0
    4.0312   -0.1452   -1.1154 H   0  0  0  0  0  0  0  0  0  0  0  0
    2.9647   -1.3312   -0.1993 H   0  0  0  0  0  0  0  0  0  0  0  0
    2.9597    2.3645    1.6711 H   0  0  0  0  0  0  0  0  0  0  0  0
   -3.0268   -2.6154    0.2056 H   0  0  0  0  0  0  0  0  0  0  0  0
   -2.1662   -4.5034   -0.9891 H   0  0  0  0  0  0  0  0  0  0  0  0
   -0.0339   -4.3509   -2.1347 H   0  0  0  0  0  0  0  0  0  0  0  0
    1.2140   -2.3068   -2.0622 H   0  0  0  0  0  0  0  0  0  0  0  0
  1  2  1  0
  2  3  2  0
  3  4  1  0
  4  5  2  0
  5  6  1  0
  6  7  2  0
  7  8  1  0
  8  9  2  0
  9 10  1  0
 10 11  1  0
 11 12  1  0
 12 13  1  0
 12 14  2  0
  9 15  1  0
 15 16  2  0
 16 17  1  0
 17 18  2  0
 18 19  1  0
 19 20  2  0
 16  2  1  0
  8  3  1  0
 20 15  1  0
  1 21  1  0
  1 22  1  0
  1 23  1  0
  4 24  1  0
  5 25  1  0
  6 26  1  0
  7 27  1  0
 10 28  1  0
 10 29  1  0
 11 30  1  0
 11 31  1  0
 13 32  1  0
 17 33  1  0
 18 34  1  0
 19 35  1  0
 20 36  1  0
M  END
$$$$
