
     RDKit          3D

 50 52  0  0  0  0  0  0  0  0999 V2000
   -4.5294   -2.2737   -1.2357 C   0  0  0  0  0  0  0  0  0  0  0  0
   -3.9647   -1.0016   -0.5875 C   0  0  1  0  0  0  0  0  0  0  0  0
   -2.9500   -0.4852   -1.5231 C   0  0  0  0  0  0  0  0  0  0  0  0
   -1.5868   -0.4256   -1.1720 C   0  0  0  0  0  0  0  0  0  0  0  0
   -0.6314    0.0569   -2.0334 C   0  0  0  0  0  0  0  0  0  0  0  0
    0.7376    0.1408   -1.7414 N   0  0  0  0  0  0  0  0  0  0  0  0
    1.3873   -0.2356   -0.5570 C   0  0  0  0  0  0  0  0  0  0  0  0
    0.7276   -0.7092    0.3911 O   0  0  0  0  0  0  0  0  0  0  0  0
    2.8392   -0.0979   -0.3700 C   0  0  0  0  0  0  0  0  0  0  0  0
    3.4781   -0.4589    0.7724 C   0  0  0  0  0  0  0  0  0  0  0  0
    4.8410   -0.3129    0.9060 C   0  0  0  0  0  0  0  0  0  0  0  0
    5.5841    0.2066   -0.1236 C   0  0  0  0  0  0  0  0  0  0  0  0
    6.9161    0.3966   -0.0935 O   0  0  0  0  0  0  0  0  0  0  0  0
    7.9140    0.2366    0.8049 C   0  0  0  0  0  0  0  0  0  0  0  0
    7.9236    1.1175    2.0213 C   0  0  0  0  0  0  0  0  0  0  0  0
    9.0308    0.7728    2.8028 F   0  0  0  0  0  0  0  0  0  0  0  0
    8.1758    2.4312    1.5569 F   0  0  0  0  0  0  0  0  0  0  0  0
    6.7900    1.0930    2.7544 F   0  0  0  0  0  0  0  0  0  0  0  0
    4.8856    0.5739   -1.3061 C   0  0  0  0  0  0  0  0  0  0  0  0
    3.5669    0.4067   -1.3716 N   0  0  0  0  0  0  0  0  0  0  0  0
   -1.1001    0.4821   -3.2742 C   0  0  0  0  0  0  0  0  0  0  0  0
   -2.3912    0.4411   -3.6458 N   0  0  0  0  0  0  0  0  0  0  0  0
   -3.2838   -0.0402   -2.7645 C   0  0  0  0  0  0  0  0  0  0  0  0
   -4.5780   -0.0757   -3.1619 F   0  0  0  0  0  0  0  0  0  0  0  0
   -5.0570   -0.0137   -0.2958 C   0  0  0  0  0  0  0  0  0  0  0  0
   -4.4637    1.0448    0.6452 C   0  0  1  0  0  0  0  0  0  0  0  0
   -5.4428    2.1823    0.8403 C   0  0  0  0  0  0  0  0  0  0  0  0
   -6.6038    1.6740    1.3910 F   0  0  0  0  0  0  0  0  0  0  0  0
   -5.6631    2.8195   -0.3632 F   0  0  0  0  0  0  0  0  0  0  0  0
   -4.8850    3.0890    1.7059 F   0  0  0  0  0  0  0  0  0  0  0  0
   -4.2050    0.3638    1.8526 O   0  0  0  0  0  0  0  0  0  0  0  0
   -3.4894   -0.8218    1.7942 C   0  0  0  0  0  0  0  0  0  0  0  0
   -2.8665   -1.3583    2.9833 N   0  0  0  0  0  0  0  0  0  0  0  0
   -3.3957   -1.4239    0.6682 N   0  0  0  0  0  0  0  0  0  0  0  0
   -5.2544   -1.9762   -1.9929 H   0  0  0  0  0  0  0  0  0  0  0  0
   -4.9202   -2.9634   -0.4640 H   0  0  0  0  0  0  0  0  0  0  0  0
   -3.6660   -2.7739   -1.7210 H   0  0  0  0  0  0  0  0  0  0  0  0
   -1.3424   -0.7778   -0.1970 H   0  0  0  0  0  0  0  0  0  0  0  0
    1.3736    0.5377   -2.5053 H   0  0  0  0  0  0  0  0  0  0  0  0
    2.8928   -0.8789    1.6135 H   0  0  0  0  0  0  0  0  0  0  0  0
    5.2963   -0.6548    1.8417 H   0  0  0  0  0  0  0  0  0  0  0  0
    7.9614   -0.8502    1.1279 H   0  0  0  0  0  0  0  0  0  0  0  0
    8.9298    0.4149    0.3053 H   0  0  0  0  0  0  0  0  0  0  0  0
    5.4819    0.9813   -2.1115 H   0  0  0  0  0  0  0  0  0  0  0  0
   -0.3323    0.8674   -3.9601 H   0  0  0  0  0  0  0  0  0  0  0  0
   -5.8511   -0.5512    0.2693 H   0  0  0  0  0  0  0  0  0  0  0  0
   -5.4546    0.5260   -1.1493 H   0  0  0  0  0  0  0  0  0  0  0  0
   -3.4990    1.4192    0.2507 H   0  0  0  0  0  0  0  0  0  0  0  0
   -3.4768   -1.7026    3.7525 H   0  0  0  0  0  0  0  0  0  0  0  0
   -1.8492   -1.4125    3.0978 H   0  0  0  0  0  0  0  0  0  0  0  0
  2  1  1  6
  2  3  1  0
  3  4  2  0
  4  5  1  0
  5  6  1  0
  6  7  1  0
  7  8  2  0
  7  9  1  0
  9 10  2  0
 10 11  1  0
 11 12  2  0
 12 13  1  0
 13 14  1  0
 14 15  1  0
 15 16  1  0
 15 17  1  0
 15 18  1  0
 12 19  1  0
 19 20  2  0
  5 21  2  0
 21 22  1  0
 22 23  2  0
 23 24  1  0
  2 25  1  0
 25 26  1  0
 26 27  1  0
 27 28  1  0
 27 29  1  0
 27 30  1  0
 26 31  1  0
 31 32  1  0
 32 33  1  0
 32 34  2  0
 34  2  1  0
 23  3  1  0
 20  9  1  0
  1 35  1  0
  1 36  1  0
  1 37  1  0
  4 38  1  0
  6 39  1  0
 10 40  1  0
 11 41  1  0
 14 42  1  0
 14 43  1  0
 19 44  1  0
 21 45  1  0
 25 46  1  0
 25 47  1  0
 26 48  1  6
 33 49  1  0
 33 50  1  0
M  END
$$$$
