
     RDKit          3D

 43 45  0  0  0  0  0  0  0  0999 V2000
    4.0295    2.7215   -0.8490 C   0  0  0  0  0  0  0  0  0  0  0  0
    2.9655    1.7592   -0.4167 C   0  0  0  0  0  0  0  0  0  0  0  0
    1.6512    1.8552   -0.8738 C   0  0  0  0  0  0  0  0  0  0  0  0
    0.7013    0.9198   -0.4376 C   0  0  0  0  0  0  0  0  0  0  0  0
    1.0805   -0.0955    0.4454 C   0  0  0  0  0  0  0  0  0  0  0  0
    0.0851   -1.0561    0.8590 N   0  0  0  0  0  0  0  0  0  0  0  0
   -1.1653   -1.0274    0.1383 C   0  0  0  0  0  0  0  0  0  0  0  0
   -2.4622   -0.6680    0.4254 C   0  0  0  0  0  0  0  0  0  0  0  0
   -3.3760   -0.7939   -0.5938 C   0  0  0  0  0  0  0  0  0  0  0  0
   -3.0318   -1.2421   -1.8077 N   0  0  0  0  0  0  0  0  0  0  0  0
   -1.7517   -1.5897   -2.0715 C   0  0  0  0  0  0  0  0  0  0  0  0
   -0.8292   -1.4800   -1.0991 N   0  0  0  0  0  0  0  0  0  0  0  0
   -4.7305   -0.4332   -0.2773 C   0  0  0  0  0  0  0  0  0  0  0  0
   -5.6441   -0.5849   -1.2906 C   0  0  0  0  0  0  0  0  0  0  0  0
   -6.9885   -0.3000   -1.1777 C   0  0  0  0  0  0  0  0  0  0  0  0
   -7.4504    0.1785    0.0600 C   0  0  0  0  0  0  0  0  0  0  0  0
   -6.5549    0.3489    1.1195 C   0  0  0  0  0  0  0  0  0  0  0  0
   -5.2007    0.0347    0.9242 C   0  0  0  0  0  0  0  0  0  0  0  0
    2.3887   -0.1764    0.8890 C   0  0  0  0  0  0  0  0  0  0  0  0
    3.3354    0.7594    0.4532 C   0  0  0  0  0  0  0  0  0  0  0  0
    4.6369    0.5686    1.0056 N   0  0  0  0  0  0  0  0  0  0  0  0
    5.3376   -1.0203    0.8498 S   0  0  0  0  0  0  0  0  0  0  0  0
    6.7550   -0.9629   -0.2237 C   0  0  0  0  0  0  0  0  0  0  0  0
    5.7044   -1.5107    2.2111 O   0  0  0  0  0  0  0  0  0  0  0  0
    4.3203   -1.9732    0.2233 O   0  0  0  0  0  0  0  0  0  0  0  0
    3.9007    3.0540   -1.8991 H   0  0  0  0  0  0  0  0  0  0  0  0
    5.0289    2.3104   -0.6922 H   0  0  0  0  0  0  0  0  0  0  0  0
    3.9095    3.6206   -0.1756 H   0  0  0  0  0  0  0  0  0  0  0  0
    1.4042    2.6456   -1.5553 H   0  0  0  0  0  0  0  0  0  0  0  0
   -0.3196    0.9929   -0.7910 H   0  0  0  0  0  0  0  0  0  0  0  0
    0.3472   -1.6985    1.6439 H   0  0  0  0  0  0  0  0  0  0  0  0
   -2.5439   -0.3348    1.4343 H   0  0  0  0  0  0  0  0  0  0  0  0
   -1.6231   -1.9338   -3.1049 H   0  0  0  0  0  0  0  0  0  0  0  0
   -5.3514   -0.9566   -2.2850 H   0  0  0  0  0  0  0  0  0  0  0  0
   -7.6759   -0.4320   -2.0016 H   0  0  0  0  0  0  0  0  0  0  0  0
   -8.5060    0.3992    0.1333 H   0  0  0  0  0  0  0  0  0  0  0  0
   -6.9312    0.7113    2.0406 H   0  0  0  0  0  0  0  0  0  0  0  0
   -4.4996    0.1550    1.7178 H   0  0  0  0  0  0  0  0  0  0  0  0
    2.5801   -0.9989    1.5712 H   0  0  0  0  0  0  0  0  0  0  0  0
    5.3020    1.2021    1.5123 H   0  0  0  0  0  0  0  0  0  0  0  0
    7.6546   -1.2299    0.3854 H   0  0  0  0  0  0  0  0  0  0  0  0
    6.8669    0.0112   -0.7462 H   0  0  0  0  0  0  0  0  0  0  0  0
    6.6505   -1.7495   -0.9973 H   0  0  0  0  0  0  0  0  0  0  0  0
  1  2  1  0
  2  3  2  0
  3  4  1  0
  4  5  2  0
  5  6  1  0
  6  7  1  0
  7  8  2  0
  8  9  1  0
  9 10  2  0
 10 11  1  0
 11 12  2  0
  9 13  1  0
 13 14  2  0
 14 15  1  0
 15 16  2  0
 16 17  1  0
 17 18  2  0
  5 19  1  0
 19 20  2  0
 20 21  1  0
 21 22  1  0
 22 23  1  0
 22 24  2  0
 22 25  2  0
 20  2  1  0
 12  7  1  0
 18 13  1  0
  1 26  1  0
  1 27  1  0
  1 28  1  0
  3 29  1  0
  4 30  1  0
  6 31  1  0
  8 32  1  0
 11 33  1  0
 14 34  1  0
 15 35  1  0
 16 36  1  0
 17 37  1  0
 18 38  1  0
 19 39  1  0
 21 40  1  0
 23 41  1  0
 23 42  1  0
 23 43  1  0
M  END
$$$$
