
     RDKit          3D

 65 69  0  0  0  0  0  0  0  0999 V2000
    6.5152    1.4914    1.6922 C   0  0  0  0  0  0  0  0  0  0  0  0
    5.6050    0.4371    1.5349 O   0  0  0  0  0  0  0  0  0  0  0  0
    5.0009    0.2148    0.3064 C   0  0  0  0  0  0  0  0  0  0  0  0
    4.0995   -0.8497    0.1973 C   0  0  0  0  0  0  0  0  0  0  0  0
    3.4469   -1.1583   -0.9670 C   0  0  0  0  0  0  0  0  0  0  0  0
    2.4749   -2.2656   -1.1357 C   0  0  0  0  0  0  0  0  0  0  0  0
    1.1000   -1.8689   -0.9546 N   0  0  0  0  0  0  0  0  0  0  0  0
    0.5411   -1.6653    0.3222 C   0  0  0  0  0  0  0  0  0  0  0  0
    1.2806   -1.8368    1.3234 O   0  0  0  0  0  0  0  0  0  0  0  0
   -0.8618   -1.2599    0.5487 C   0  0  1  0  0  0  0  0  0  0  0  0
   -1.8409   -2.3815    0.2941 C   0  0  0  0  0  0  0  0  0  0  0  0
   -1.8338   -2.9405   -1.0519 C   0  0  0  0  0  0  0  0  0  0  0  0
   -2.6045   -2.3828   -2.0419 C   0  0  0  0  0  0  0  0  0  0  0  0
   -2.6173   -2.9280   -3.3328 C   0  0  0  0  0  0  0  0  0  0  0  0
   -1.8604   -4.0211   -3.6142 C   0  0  0  0  0  0  0  0  0  0  0  0
   -1.0837   -4.5870   -2.6249 C   0  0  0  0  0  0  0  0  0  0  0  0
   -1.0680   -4.0467   -1.3368 C   0  0  0  0  0  0  0  0  0  0  0  0
   -0.9928   -1.0047    1.9638 O   0  0  0  0  0  0  0  0  0  0  0  0
   -1.7050    0.1420    2.1949 C   0  0  0  0  0  0  0  0  0  0  0  0
   -2.1186    0.4936    3.3527 O   0  0  0  0  0  0  0  0  0  0  0  0
   -1.8644    0.7965    0.9494 N   0  0  0  0  0  0  0  0  0  0  0  0
   -2.5600    2.0572    0.7378 C   0  0  2  0  0  0  0  0  0  0  0  0
   -2.0087    3.1697    1.5377 C   0  0  0  0  0  0  0  0  0  0  0  0
   -3.0122    3.5063    2.5881 C   0  0  0  0  0  0  0  0  0  0  0  0
   -4.2026    2.7107    2.2542 C   0  0  0  0  0  0  0  0  0  0  0  0
   -5.4660    2.7078    2.8497 C   0  0  0  0  0  0  0  0  0  0  0  0
   -6.4771    1.8838    2.3984 C   0  0  0  0  0  0  0  0  0  0  0  0
   -6.2135    1.0495    1.3312 C   0  0  0  0  0  0  0  0  0  0  0  0
   -4.9615    1.0603    0.7500 C   0  0  0  0  0  0  0  0  0  0  0  0
   -3.9445    1.8834    1.1975 C   0  0  0  0  0  0  0  0  0  0  0  0
   -1.2274    0.0157   -0.0585 C   0  0  0  0  0  0  0  0  0  0  0  0
   -1.0296    0.3863   -1.2492 O   0  0  0  0  0  0  0  0  0  0  0  0
    3.7346   -0.3402   -2.0584 C   0  0  0  0  0  0  0  0  0  0  0  0
    4.6072    0.7150   -2.0114 C   0  0  0  0  0  0  0  0  0  0  0  0
    4.8651    1.5090   -3.1318 O   0  0  0  0  0  0  0  0  0  0  0  0
    5.7768    2.5817   -3.0119 C   0  0  0  0  0  0  0  0  0  0  0  0
    5.2446    0.9843   -0.7968 C   0  0  0  0  0  0  0  0  0  0  0  0
    7.1559    1.2359    2.5628 H   0  0  0  0  0  0  0  0  0  0  0  0
    6.0245    2.4624    1.9551 H   0  0  0  0  0  0  0  0  0  0  0  0
    7.1951    1.5773    0.8228 H   0  0  0  0  0  0  0  0  0  0  0  0
    3.9298   -1.4447    1.0711 H   0  0  0  0  0  0  0  0  0  0  0  0
    2.7760   -3.0675   -0.4153 H   0  0  0  0  0  0  0  0  0  0  0  0
    2.6210   -2.7432   -2.1445 H   0  0  0  0  0  0  0  0  0  0  0  0
    0.4717   -1.7071   -1.7783 H   0  0  0  0  0  0  0  0  0  0  0  0
   -2.8637   -2.0347    0.6126 H   0  0  0  0  0  0  0  0  0  0  0  0
   -1.5880   -3.1743    1.0560 H   0  0  0  0  0  0  0  0  0  0  0  0
   -3.2306   -1.5153   -1.8945 H   0  0  0  0  0  0  0  0  0  0  0  0
   -3.2182   -2.4979   -4.1154 H   0  0  0  0  0  0  0  0  0  0  0  0
   -1.8857   -4.4301   -4.6283 H   0  0  0  0  0  0  0  0  0  0  0  0
   -0.4959   -5.4554   -2.8881 H   0  0  0  0  0  0  0  0  0  0  0  0
   -0.4323   -4.5462   -0.6110 H   0  0  0  0  0  0  0  0  0  0  0  0
   -2.5058    2.2843   -0.3592 H   0  0  0  0  0  0  0  0  0  0  0  0
   -0.9971    2.9521    1.9674 H   0  0  0  0  0  0  0  0  0  0  0  0
   -1.9347    4.0608    0.8612 H   0  0  0  0  0  0  0  0  0  0  0  0
   -3.2373    4.6026    2.6292 H   0  0  0  0  0  0  0  0  0  0  0  0
   -2.5598    3.1795    3.5711 H   0  0  0  0  0  0  0  0  0  0  0  0
   -5.6857    3.3567    3.6867 H   0  0  0  0  0  0  0  0  0  0  0  0
   -7.4566    1.8858    2.8649 H   0  0  0  0  0  0  0  0  0  0  0  0
   -7.0184    0.4083    0.9886 H   0  0  0  0  0  0  0  0  0  0  0  0
   -4.8002    0.3954   -0.0773 H   0  0  0  0  0  0  0  0  0  0  0  0
    3.2328   -0.5604   -2.9955 H   0  0  0  0  0  0  0  0  0  0  0  0
    5.6369    3.2278   -3.9176 H   0  0  0  0  0  0  0  0  0  0  0  0
    5.3864    3.2151   -2.1635 H   0  0  0  0  0  0  0  0  0  0  0  0
    6.8097    2.2593   -2.8606 H   0  0  0  0  0  0  0  0  0  0  0  0
    5.9320    1.8142   -0.7552 H   0  0  0  0  0  0  0  0  0  0  0  0
  1  2  1  0
  2  3  1  0
  3  4  2  0
  4  5  1  0
  5  6  1  0
  6  7  1  0
  7  8  1  0
  8  9  2  0
  8 10  1  0
 10 11  1  6
 11 12  1  0
 12 13  2  0
 13 14  1  0
 14 15  2  0
 15 16  1  0
 16 17  2  0
 10 18  1  0
 18 19  1  0
 19 20  2  0
 19 21  1  0
 21 22  1  0
 22 23  1  0
 23 24  1  0
 24 25  1  0
 25 26  2  0
 26 27  1  0
 27 28  2  0
 28 29  1  0
 29 30  2  0
 21 31  1  0
 31 32  2  0
  5 33  2  0
 33 34  1  0
 34 35  1  0
 35 36  1  0
 34 37  2  0
 37  3  1  0
 31 10  1  0
 17 12  1  0
 30 22  1  0
 30 25  1  0
  1 38  1  0
  1 39  1  0
  1 40  1  0
  4 41  1  0
  6 42  1  0
  6 43  1  0
  7 44  1  0
 11 45  1  0
 11 46  1  0
 13 47  1  0
 14 48  1  0
 15 49  1  0
 16 50  1  0
 17 51  1  0
 22 52  1  6
 23 53  1  0
 23 54  1  0
 24 55  1  0
 24 56  1  0
 26 57  1  0
 27 58  1  0
 28 59  1  0
 29 60  1  0
 33 61  1  0
 36 62  1  0
 36 63  1  0
 36 64  1  0
 37 65  1  0
M  END
$$$$
