
     RDKit          3D

 81 84  0  0  0  0  0  0  0  0999 V2000
   -7.5682    2.1937   -1.0756 C   0  0  0  0  0  0  0  0  0  0  0  0
   -6.9944    3.4183   -0.4287 C   0  0  0  0  0  0  0  0  0  0  0  0
   -5.6058    3.5444   -0.5324 O   0  0  0  0  0  0  0  0  0  0  0  0
   -4.7599    2.6050    0.0139 C   0  0  0  0  0  0  0  0  0  0  0  0
   -3.3758    2.7823   -0.1333 C   0  0  0  0  0  0  0  0  0  0  0  0
   -2.5349    1.8474    0.4120 C   0  0  0  0  0  0  0  0  0  0  0  0
   -3.0313    0.7593    1.0885 C   0  0  0  0  0  0  0  0  0  0  0  0
   -2.1201   -0.2717    1.6995 C   0  0  0  0  0  0  0  0  0  0  0  0
   -1.7770   -1.3739    0.7498 C   0  0  1  0  0  0  0  0  0  0  0  0
   -2.9879   -2.0476    0.3138 N   0  0  0  0  0  0  0  0  0  0  0  0
   -3.2650   -3.4014    0.6353 C   0  0  0  0  0  0  0  0  0  0  0  0
   -2.3890   -3.9939    1.3296 O   0  0  0  0  0  0  0  0  0  0  0  0
   -4.4745   -4.0830    0.2025 C   0  0  0  0  0  0  0  0  0  0  0  0
   -5.4502   -3.5045   -0.5609 C   0  0  0  0  0  0  0  0  0  0  0  0
   -6.5967   -4.2035   -0.9508 C   0  0  0  0  0  0  0  0  0  0  0  0
   -6.7821   -5.5147   -0.5733 C   0  0  0  0  0  0  0  0  0  0  0  0
   -5.7996   -6.1082    0.1993 C   0  0  0  0  0  0  0  0  0  0  0  0
   -4.6699   -5.4062    0.5787 C   0  0  0  0  0  0  0  0  0  0  0  0
   -0.9981   -0.8315   -0.3850 C   0  0  0  0  0  0  0  0  0  0  0  0
   -1.4399   -0.9509   -1.5593 O   0  0  0  0  0  0  0  0  0  0  0  0
    0.2581   -0.1664   -0.2074 N   0  0  0  0  0  0  0  0  0  0  0  0
    1.0072    0.3563   -1.3277 C   0  0  1  0  0  0  0  0  0  0  0  0
    1.3441    1.8152   -1.1599 C   0  0  0  0  0  0  0  0  0  0  0  0
    2.1639    2.1003    0.0386 C   0  0  0  0  0  0  0  0  0  0  0  0
    1.6475    2.3768    1.2830 C   0  0  0  0  0  0  0  0  0  0  0  0
    2.4347    2.6424    2.3880 C   0  0  0  0  0  0  0  0  0  0  0  0
    3.7879    2.6307    2.2423 C   0  0  0  0  0  0  0  0  0  0  0  0
    4.3332    2.3547    0.9976 C   0  0  0  0  0  0  0  0  0  0  0  0
    3.5341    2.0923   -0.0937 C   0  0  0  0  0  0  0  0  0  0  0  0
    2.2386   -0.4724   -1.4807 C   0  0  0  0  0  0  0  0  0  0  0  0
    2.4725   -1.3643   -0.6354 O   0  0  0  0  0  0  0  0  0  0  0  0
    3.1002   -0.2184   -2.5811 N   0  0  0  0  0  0  0  0  0  0  0  0
    4.3151   -0.9728   -2.7840 C   0  0  0  0  0  0  0  0  0  0  0  0
    5.4174   -0.5072   -1.9144 C   0  0  0  0  0  0  0  0  0  0  0  0
    6.2368    0.5282   -2.3702 C   0  0  0  0  0  0  0  0  0  0  0  0
    7.2806    1.0172   -1.6188 C   0  0  0  0  0  0  0  0  0  0  0  0
    7.5687    0.5063   -0.3745 C   0  0  0  0  0  0  0  0  0  0  0  0
    8.7088    1.0465    0.4446 C   0  0  0  0  0  0  0  0  0  0  0  0
    9.9362    0.3263    0.1695 N   0  0  0  0  0  0  0  0  0  0  0  0
    6.7720   -0.5157    0.0917 C   0  0  0  0  0  0  0  0  0  0  0  0
    5.7098   -1.0135   -0.6733 C   0  0  0  0  0  0  0  0  0  0  0  0
   -4.3859    0.5822    1.2348 C   0  0  0  0  0  0  0  0  0  0  0  0
   -5.2554    1.5155    0.6916 C   0  0  0  0  0  0  0  0  0  0  0  0
   -8.1836    2.5420   -1.9572 H   0  0  0  0  0  0  0  0  0  0  0  0
   -8.3109    1.6644   -0.4348 H   0  0  0  0  0  0  0  0  0  0  0  0
   -6.7933    1.4963   -1.4892 H   0  0  0  0  0  0  0  0  0  0  0  0
   -7.2931    3.3540    0.6610 H   0  0  0  0  0  0  0  0  0  0  0  0
   -7.5108    4.3433   -0.7846 H   0  0  0  0  0  0  0  0  0  0  0  0
   -3.0572    3.6532   -0.6733 H   0  0  0  0  0  0  0  0  0  0  0  0
   -1.4726    1.9606    0.3128 H   0  0  0  0  0  0  0  0  0  0  0  0
   -2.5650   -0.5959    2.6382 H   0  0  0  0  0  0  0  0  0  0  0  0
   -1.1541    0.2631    1.9297 H   0  0  0  0  0  0  0  0  0  0  0  0
   -1.1911   -2.1214    1.3251 H   0  0  0  0  0  0  0  0  0  0  0  0
   -3.6835   -1.5276   -0.2557 H   0  0  0  0  0  0  0  0  0  0  0  0
   -5.3340   -2.4786   -0.8735 H   0  0  0  0  0  0  0  0  0  0  0  0
   -7.3720   -3.7424   -1.5581 H   0  0  0  0  0  0  0  0  0  0  0  0
   -7.6667   -6.0681   -0.8695 H   0  0  0  0  0  0  0  0  0  0  0  0
   -5.9541   -7.1259    0.4861 H   0  0  0  0  0  0  0  0  0  0  0  0
   -3.8948   -5.8589    1.1828 H   0  0  0  0  0  0  0  0  0  0  0  0
    0.5828   -0.0922    0.7835 H   0  0  0  0  0  0  0  0  0  0  0  0
    0.4352    0.2192   -2.2529 H   0  0  0  0  0  0  0  0  0  0  0  0
    0.4024    2.3810   -1.0738 H   0  0  0  0  0  0  0  0  0  0  0  0
    1.9134    2.1210   -2.0640 H   0  0  0  0  0  0  0  0  0  0  0  0
    0.5849    2.3891    1.4077 H   0  0  0  0  0  0  0  0  0  0  0  0
    1.9457    2.8506    3.3326 H   0  0  0  0  0  0  0  0  0  0  0  0
    4.4221    2.8381    3.1057 H   0  0  0  0  0  0  0  0  0  0  0  0
    5.4201    2.3548    0.9220 H   0  0  0  0  0  0  0  0  0  0  0  0
    4.0326    1.8876   -1.0342 H   0  0  0  0  0  0  0  0  0  0  0  0
    2.7931    0.5485   -3.2281 H   0  0  0  0  0  0  0  0  0  0  0  0
    4.5685   -0.8926   -3.8649 H   0  0  0  0  0  0  0  0  0  0  0  0
    4.1030   -2.0706   -2.6154 H   0  0  0  0  0  0  0  0  0  0  0  0
    6.0105    0.9398   -3.3631 H   0  0  0  0  0  0  0  0  0  0  0  0
    7.9109    1.8221   -1.9842 H   0  0  0  0  0  0  0  0  0  0  0  0
    8.4995    0.9910    1.5151 H   0  0  0  0  0  0  0  0  0  0  0  0
    8.8461    2.0948    0.1003 H   0  0  0  0  0  0  0  0  0  0  0  0
   10.0895   -0.3430    0.9535 H   0  0  0  0  0  0  0  0  0  0  0  0
    9.8846   -0.2401   -0.7060 H   0  0  0  0  0  0  0  0  0  0  0  0
    6.9924   -0.9229    1.0696 H   0  0  0  0  0  0  0  0  0  0  0  0
    5.1195   -1.8091   -0.2790 H   0  0  0  0  0  0  0  0  0  0  0  0
   -4.7994   -0.2846    1.7746 H   0  0  0  0  0  0  0  0  0  0  0  0
   -6.3269    1.3396    0.8389 H   0  0  0  0  0  0  0  0  0  0  0  0
  1  2  1  0
  2  3  1  0
  3  4  1  0
  4  5  2  0
  5  6  1  0
  6  7  2  0
  7  8  1  0
  8  9  1  0
  9 10  1  0
 10 11  1  0
 11 12  2  0
 11 13  1  0
 13 14  2  0
 14 15  1  0
 15 16  2  0
 16 17  1  0
 17 18  2  0
  9 19  1  0
 19 20  2  0
 19 21  1  0
 21 22  1  0
 22 23  1  0
 23 24  1  0
 24 25  2  0
 25 26  1  0
 26 27  2  0
 27 28  1  0
 28 29  2  0
 22 30  1  0
 30 31  2  0
 30 32  1  0
 32 33  1  0
 33 34  1  0
 34 35  2  0
 35 36  1  0
 36 37  2  0
 37 38  1  0
 38 39  1  0
 37 40  1  0
 40 41  2  0
  7 42  1  0
 42 43  2  0
 43  4  1  0
 18 13  1  0
 29 24  1  0
 41 34  1  0
  1 44  1  0
  1 45  1  0
  1 46  1  0
  2 47  1  0
  2 48  1  0
  5 49  1  0
  6 50  1  0
  8 51  1  0
  8 52  1  0
  9 53  1  1
 10 54  1  0
 14 55  1  0
 15 56  1  0
 16 57  1  0
 17 58  1  0
 18 59  1  0
 21 60  1  0
 22 61  1  6
 23 62  1  0
 23 63  1  0
 25 64  1  0
 26 65  1  0
 27 66  1  0
 28 67  1  0
 29 68  1  0
 32 69  1  0
 33 70  1  0
 33 71  1  0
 35 72  1  0
 36 73  1  0
 38 74  1  0
 38 75  1  0
 39 76  1  0
 39 77  1  0
 40 78  1  0
 41 79  1  0
 42 80  1  0
 43 81  1  0
M  END
$$$$
