
     RDKit          3D

 16 15  0  0  0  0  0  0  0  0999 V2000
    2.8655    0.7662   -0.4144 O   0  0  0  0  0  0  0  0  0  0  0  0
    1.6789    0.3305    0.1699 C   0  0  0  0  0  0  0  0  0  0  0  0
    1.5007    0.9238    1.2874 O   0  0  0  0  0  0  0  0  0  0  0  0
    0.8975   -0.6847   -0.5837 C   0  0  0  0  0  0  0  0  0  0  0  0
   -0.3597   -1.0808    0.1378 C   0  0  0  0  0  0  0  0  0  0  0  0
   -1.4703    0.3054    0.4176 P   0  0  0  0  0  0  0  0  0  0  0  0
   -0.8112    1.7285   -0.2551 O   0  0  0  0  0  0  0  0  0  0  0  0
   -2.9667   -0.0108   -0.3436 O   0  0  0  0  0  0  0  0  0  0  0  0
   -1.6463    0.5379    1.9016 O   0  0  0  0  0  0  0  0  0  0  0  0
    3.6168    1.2229    0.0438 H   0  0  0  0  0  0  0  0  0  0  0  0
    0.7256   -0.3555   -1.6228 H   0  0  0  0  0  0  0  0  0  0  0  0
    1.5349   -1.6127   -0.6165 H   0  0  0  0  0  0  0  0  0  0  0  0
   -0.8429   -1.8810   -0.4635 H   0  0  0  0  0  0  0  0  0  0  0  0
   -0.0239   -1.5551    1.0936 H   0  0  0  0  0  0  0  0  0  0  0  0
   -1.5860    2.3582   -0.3592 H   0  0  0  0  0  0  0  0  0  0  0  0
   -3.1130   -0.9927   -0.2388 H   0  0  0  0  0  0  0  0  0  0  0  0
  1  2  1  0
  2  3  2  0
  2  4  1  0
  4  5  1  0
  5  6  1  0
  6  7  1  0
  6  8  1  0
  6  9  2  0
  1 10  1  0
  4 11  1  0
  4 12  1  0
  5 13  1  0
  5 14  1  0
  7 15  1  0
  8 16  1  0
M  END
$$$$
