
     RDKit          3D

 33 36  0  0  0  0  0  0  0  0999 V2000
    0.1629   -3.9113    0.9663 O   0  0  0  0  0  0  0  0  0  0  0  0
    0.1301   -2.6890    0.6756 C   0  0  0  0  0  0  0  0  0  0  0  0
    1.2925   -1.9103    0.7555 C   0  0  0  0  0  0  0  0  0  0  0  0
    1.3302   -0.5780    0.4552 C   0  0  0  0  0  0  0  0  0  0  0  0
    2.5182    0.2477    0.5299 C   0  0  0  0  0  0  0  0  0  0  0  0
    3.7183   -0.2703    0.9188 C   0  0  0  0  0  0  0  0  0  0  0  0
    4.8640    0.5475    0.9858 C   0  0  0  0  0  0  0  0  0  0  0  0
    4.7870    1.8812    0.6595 C   0  0  0  0  0  0  0  0  0  0  0  0
    3.5653    2.3779    0.2707 C   0  0  0  0  0  0  0  0  0  0  0  0
    2.4416    1.5805    0.2038 C   0  0  0  0  0  0  0  0  0  0  0  0
    0.1695   -0.0357    0.0695 O   0  0  0  0  0  0  0  0  0  0  0  0
   -0.9371   -0.7010   -0.0242 C   0  0  0  0  0  0  0  0  0  0  0  0
   -2.0908   -0.0369   -0.4365 C   0  0  0  0  0  0  0  0  0  0  0  0
   -3.2853   -0.7157   -0.5467 C   0  0  0  0  0  0  0  0  0  0  0  0
   -3.3579   -2.0814   -0.2465 C   0  0  0  0  0  0  0  0  0  0  0  0
   -2.2155   -2.7363    0.1612 C   0  0  0  0  0  0  0  0  0  0  0  0
   -1.0184   -2.0600    0.2726 C   0  0  0  0  0  0  0  0  0  0  0  0
   -4.3736   -0.0031   -0.9557 O   0  0  0  0  0  0  0  0  0  0  0  0
   -4.4355    1.3448   -1.2818 C   0  0  0  0  0  0  0  0  0  0  0  0
   -3.1391    2.0253   -1.1492 C   0  0  0  0  0  0  0  0  0  0  0  0
   -2.0668    1.3768   -0.7588 C   0  0  0  0  0  0  0  0  0  0  0  0
    2.1878   -2.4132    1.0726 H   0  0  0  0  0  0  0  0  0  0  0  0
    3.8282   -1.3203    1.1868 H   0  0  0  0  0  0  0  0  0  0  0  0
    5.7856    0.0902    1.2983 H   0  0  0  0  0  0  0  0  0  0  0  0
    5.6914    2.4796    0.7233 H   0  0  0  0  0  0  0  0  0  0  0  0
    3.5321    3.4452    0.0159 H   0  0  0  0  0  0  0  0  0  0  0  0
    1.5110    2.0516   -0.1138 H   0  0  0  0  0  0  0  0  0  0  0  0
   -4.2797   -2.6060   -0.3313 H   0  0  0  0  0  0  0  0  0  0  0  0
   -2.2241   -3.7890    0.4033 H   0  0  0  0  0  0  0  0  0  0  0  0
   -4.7247    1.4765   -2.3711 H   0  0  0  0  0  0  0  0  0  0  0  0
   -5.2067    1.8875   -0.6766 H   0  0  0  0  0  0  0  0  0  0  0  0
   -3.0473    3.1098   -1.3800 H   0  0  0  0  0  0  0  0  0  0  0  0
   -1.1132    1.9352   -0.6746 H   0  0  0  0  0  0  0  0  0  0  0  0
  1  2  2  0
  2  3  1  0
  3  4  2  0
  4  5  1  0
  5  6  2  0
  6  7  1  0
  7  8  2  0
  8  9  1  0
  9 10  2  0
  4 11  1  0
 11 12  1  0
 12 13  2  0
 13 14  1  0
 14 15  2  0
 15 16  1  0
 16 17  2  0
 14 18  1  0
 18 19  1  0
 19 20  1  0
 20 21  2  0
 17  2  1  0
 10  5  1  0
 17 12  1  0
 21 13  1  0
  3 22  1  0
  6 23  1  0
  7 24  1  0
  8 25  1  0
  9 26  1  0
 10 27  1  0
 15 28  1  0
 16 29  1  0
 19 30  1  0
 19 31  1  0
 20 32  1  0
 21 33  1  0
M  END
$$$$
