
     RDKit          3D

 37 40  0  0  0  0  0  0  0  0999 V2000
    1.4429    0.2630   -1.7690 O   0  0  0  0  0  0  0  0  0  0  0  0
    1.2463   -0.2729   -0.6674 C   0  0  0  0  0  0  0  0  0  0  0  0
    2.2947   -0.2000    0.3103 N   0  0  0  0  0  0  0  0  0  0  0  0
    3.5462    0.3747    0.1753 C   0  0  0  0  0  0  0  0  0  0  0  0
    3.7486    1.7210    0.2119 C   0  0  0  0  0  0  0  0  0  0  0  0
    5.0216    2.2245    0.1480 C   0  0  0  0  0  0  0  0  0  0  0  0
    6.0969    1.3643    0.0461 C   0  0  0  0  0  0  0  0  0  0  0  0
    7.3539    1.8687   -0.0069 F   0  0  0  0  0  0  0  0  0  0  0  0
    5.8442   -0.0019    0.0115 C   0  0  0  0  0  0  0  0  0  0  0  0
    4.6039   -0.4657    0.0743 N   0  0  0  0  0  0  0  0  0  0  0  0
    0.0421   -0.9820   -0.2628 C   0  0  0  0  0  0  0  0  0  0  0  0
   -1.1285   -0.3575    0.0556 C   0  0  0  0  0  0  0  0  0  0  0  0
   -2.2482   -1.0895    0.4601 C   0  0  0  0  0  0  0  0  0  0  0  0
   -3.4430   -0.5070    0.7817 O   0  0  0  0  0  0  0  0  0  0  0  0
   -4.0158    0.6119    0.2503 C   0  0  0  0  0  0  0  0  0  0  0  0
   -4.7144    0.4578   -0.9678 C   0  0  0  0  0  0  0  0  0  0  0  0
   -5.3144    1.4920   -1.5736 N   0  0  0  0  0  0  0  0  0  0  0  0
   -5.2915    2.7309   -1.0664 C   0  0  0  0  0  0  0  0  0  0  0  0
   -4.6211    2.9309    0.1225 C   0  0  0  0  0  0  0  0  0  0  0  0
   -4.5854    4.1730    0.6545 F   0  0  0  0  0  0  0  0  0  0  0  0
   -4.0002    1.8750    0.7544 C   0  0  0  0  0  0  0  0  0  0  0  0
   -2.1313   -2.4958    0.5286 C   0  0  0  0  0  0  0  0  0  0  0  0
   -0.9724   -3.0937    0.2118 N   0  0  0  0  0  0  0  0  0  0  0  0
   -0.5801   -4.3630    0.1815 N   0  0  0  0  0  0  0  0  0  0  0  0
    0.6899   -4.4815   -0.2073 C   0  0  0  0  0  0  0  0  0  0  0  0
    1.1186   -3.2059   -0.4346 N   0  0  0  0  0  0  0  0  0  0  0  0
    0.0906   -2.3758   -0.1735 C   0  0  0  0  0  0  0  0  0  0  0  0
    2.0795   -0.6590    1.2552 H   0  0  0  0  0  0  0  0  0  0  0  0
    2.8857    2.3910    0.2846 H   0  0  0  0  0  0  0  0  0  0  0  0
    5.1799    3.3133    0.1750 H   0  0  0  0  0  0  0  0  0  0  0  0
    6.7096   -0.6508   -0.0630 H   0  0  0  0  0  0  0  0  0  0  0  0
   -1.2324    0.7226    0.0186 H   0  0  0  0  0  0  0  0  0  0  0  0
   -4.7531   -0.5245   -1.3996 H   0  0  0  0  0  0  0  0  0  0  0  0
   -5.8017    3.5311   -1.6004 H   0  0  0  0  0  0  0  0  0  0  0  0
   -3.4937    2.0526    1.6792 H   0  0  0  0  0  0  0  0  0  0  0  0
   -3.0110   -3.0360    0.8398 H   0  0  0  0  0  0  0  0  0  0  0  0
    1.3430   -5.3358   -0.3515 H   0  0  0  0  0  0  0  0  0  0  0  0
  1  2  2  0
  2  3  1  0
  3  4  1  0
  4  5  2  0
  5  6  1  0
  6  7  2  0
  7  8  1  0
  7  9  1  0
  9 10  2  0
  2 11  1  0
 11 12  2  0
 12 13  1  0
 13 14  1  0
 14 15  1  0
 15 16  2  0
 16 17  1  0
 17 18  2  0
 18 19  1  0
 19 20  1  0
 19 21  2  0
 13 22  2  0
 22 23  1  0
 23 24  1  0
 24 25  2  0
 25 26  1  0
 26 27  2  0
 10  4  1  0
 27 11  1  0
 21 15  1  0
 27 23  1  0
  3 28  1  0
  5 29  1  0
  6 30  1  0
  9 31  1  0
 12 32  1  0
 16 33  1  0
 18 34  1  0
 21 35  1  0
 22 36  1  0
 25 37  1  0
M  END
$$$$
