
     RDKit          3D

 61 68  0  0  0  0  0  0  0  0999 V2000
   -2.4342    0.4918    2.2121 C   0  0  0  0  0  0  0  0  0  0  0  0
   -1.6200   -0.5062    1.5526 N   0  0  0  0  0  0  0  0  0  0  0  0
   -2.3068   -1.2053    0.5083 C   0  0  2  0  0  0  0  0  0  0  0  0
   -1.5374   -2.2820   -0.1354 C   0  0  0  0  0  0  0  0  0  0  0  0
   -0.7355   -1.9054   -1.3530 C   0  0  1  0  0  0  0  0  0  0  0  0
   -0.9721   -0.7696   -1.9833 O   0  0  0  0  0  0  0  0  0  0  0  0
   -1.5734    0.3272   -1.3361 C   0  0  1  0  0  0  0  0  0  0  0  0
   -2.0886    1.1186   -2.5363 C   0  0  0  0  0  0  0  0  0  0  0  0
   -2.6892   -0.2277   -0.5871 C   0  0  2  0  0  0  0  0  0  0  0  0
   -3.6584    0.5720   -0.0718 O   0  0  0  0  0  0  0  0  0  0  0  0
   -4.9460    0.3549   -0.4730 C   0  0  0  0  0  0  0  0  0  0  0  0
   -0.5149    1.0125   -0.6485 N   0  0  0  0  0  0  0  0  0  0  0  0
   -0.5109    2.3007   -0.3301 C   0  0  0  0  0  0  0  0  0  0  0  0
   -1.4000    3.3487   -0.4487 C   0  0  0  0  0  0  0  0  0  0  0  0
   -1.1636    4.6288   -0.0281 C   0  0  0  0  0  0  0  0  0  0  0  0
    0.0461    4.9191    0.5620 C   0  0  0  0  0  0  0  0  0  0  0  0
    0.9819    3.9206    0.7134 C   0  0  0  0  0  0  0  0  0  0  0  0
    0.7125    2.6467    0.2802 C   0  0  0  0  0  0  0  0  0  0  0  0
    1.4398    1.5116    0.3161 C   0  0  0  0  0  0  0  0  0  0  0  0
    2.7219    1.2220    0.7839 C   0  0  0  0  0  0  0  0  0  0  0  0
    3.2624   -0.0534    0.6946 C   0  0  0  0  0  0  0  0  0  0  0  0
    2.4919   -1.0256    0.1305 C   0  0  0  0  0  0  0  0  0  0  0  0
    2.6427   -2.3762   -0.1236 C   0  0  0  0  0  0  0  0  0  0  0  0
    3.6674   -3.2714    0.0912 C   0  0  0  0  0  0  0  0  0  0  0  0
    3.4774   -4.6032   -0.2996 C   0  0  0  0  0  0  0  0  0  0  0  0
    2.3149   -5.0426   -0.8843 C   0  0  0  0  0  0  0  0  0  0  0  0
    1.2864   -4.1516   -1.1017 C   0  0  0  0  0  0  0  0  0  0  0  0
    1.4871   -2.8402   -0.7112 C   0  0  0  0  0  0  0  0  0  0  0  0
    0.6229   -1.8256   -0.8318 N   0  0  0  0  0  0  0  0  0  0  0  0
    1.2030   -0.7293   -0.3380 C   0  0  0  0  0  0  0  0  0  0  0  0
    0.6902    0.5485   -0.2402 C   0  0  0  0  0  0  0  0  0  0  0  0
    4.5952   -0.0815    1.2462 C   0  0  0  0  0  0  0  0  0  0  0  0
    5.4375   -0.9863    1.3751 O   0  0  0  0  0  0  0  0  0  0  0  0
    4.8640    1.2609    1.6914 N   0  0  0  0  0  0  0  0  0  0  0  0
    3.7344    2.0881    1.4256 C   0  0  0  0  0  0  0  0  0  0  0  0
   -2.1668    0.5834    3.2941 H   0  0  0  0  0  0  0  0  0  0  0  0
   -2.3831    1.4332    1.6749 H   0  0  0  0  0  0  0  0  0  0  0  0
   -3.4832    0.1230    2.2110 H   0  0  0  0  0  0  0  0  0  0  0  0
   -1.0926   -1.1110    2.2025 H   0  0  0  0  0  0  0  0  0  0  0  0
   -3.2488   -1.6247    0.9484 H   0  0  0  0  0  0  0  0  0  0  0  0
   -2.2715   -3.0708   -0.4830 H   0  0  0  0  0  0  0  0  0  0  0  0
   -0.9490   -2.8068    0.6517 H   0  0  0  0  0  0  0  0  0  0  0  0
   -0.7277   -2.7667   -2.0858 H   0  0  0  0  0  0  0  0  0  0  0  0
   -3.0948    1.5361   -2.4088 H   0  0  0  0  0  0  0  0  0  0  0  0
   -2.0221    0.4768   -3.4280 H   0  0  0  0  0  0  0  0  0  0  0  0
   -1.4119    1.9824   -2.7559 H   0  0  0  0  0  0  0  0  0  0  0  0
   -3.2555   -0.9148   -1.3014 H   0  0  0  0  0  0  0  0  0  0  0  0
   -5.5896    1.1109    0.0570 H   0  0  0  0  0  0  0  0  0  0  0  0
   -5.3428   -0.6434   -0.1705 H   0  0  0  0  0  0  0  0  0  0  0  0
   -5.0568    0.5251   -1.5431 H   0  0  0  0  0  0  0  0  0  0  0  0
   -2.3326    3.1257   -0.8931 H   0  0  0  0  0  0  0  0  0  0  0  0
   -1.9168    5.3712   -0.1651 H   0  0  0  0  0  0  0  0  0  0  0  0
    0.2715    5.9242    0.9090 H   0  0  0  0  0  0  0  0  0  0  0  0
    1.9251    4.1857    1.1833 H   0  0  0  0  0  0  0  0  0  0  0  0
    4.5971   -2.9846    0.5433 H   0  0  0  0  0  0  0  0  0  0  0  0
    4.2910   -5.2895   -0.1232 H   0  0  0  0  0  0  0  0  0  0  0  0
    2.1688   -6.0816   -1.1883 H   0  0  0  0  0  0  0  0  0  0  0  0
    0.3497   -4.4385   -1.5572 H   0  0  0  0  0  0  0  0  0  0  0  0
    5.7661    1.5711    2.1445 H   0  0  0  0  0  0  0  0  0  0  0  0
    3.3772    2.4849    2.4075 H   0  0  0  0  0  0  0  0  0  0  0  0
    4.0707    2.9087    0.7548 H   0  0  0  0  0  0  0  0  0  0  0  0
  1  2  1  0
  2  3  1  0
  3  4  1  0
  4  5  1  0
  5  6  1  0
  6  7  1  0
  7  8  1  6
  7  9  1  0
  9 10  1  0
 10 11  1  0
  7 12  1  0
 12 13  1  0
 13 14  2  0
 14 15  1  0
 15 16  2  0
 16 17  1  0
 17 18  2  0
 18 19  1  0
 19 20  2  0
 20 21  1  0
 21 22  2  0
 22 23  1  0
 23 24  2  0
 24 25  1  0
 25 26  2  0
 26 27  1  0
 27 28  2  0
 28 29  1  0
 29 30  1  0
 30 31  2  0
 21 32  1  0
 32 33  2  0
 32 34  1  0
 34 35  1  0
  9  3  1  0
 31 12  1  0
 29  5  1  0
 18 13  1  0
 31 19  1  0
 35 20  1  0
 30 22  1  0
 28 23  1  0
  1 36  1  0
  1 37  1  0
  1 38  1  0
  2 39  1  0
  3 40  1  1
  4 41  1  0
  4 42  1  0
  5 43  1  6
  8 44  1  0
  8 45  1  0
  8 46  1  0
  9 47  1  6
 11 48  1  0
 11 49  1  0
 11 50  1  0
 14 51  1  0
 15 52  1  0
 16 53  1  0
 17 54  1  0
 24 55  1  0
 25 56  1  0
 26 57  1  0
 27 58  1  0
 34 59  1  0
 35 60  1  0
 35 61  1  0
M  END
$$$$
