
     RDKit          3D

 55 59  0  0  0  0  0  0  0  0999 V2000
    0.3172    2.6828    1.9407 C   0  0  0  0  0  0  0  0  0  0  0  0
   -0.0468    1.5424    1.1884 O   0  0  0  0  0  0  0  0  0  0  0  0
    0.8754    0.9516    0.3166 C   0  0  0  0  0  0  0  0  0  0  0  0
    2.1552    1.4270    0.1402 C   0  0  0  0  0  0  0  0  0  0  0  0
    3.0542    0.8363   -0.7220 C   0  0  0  0  0  0  0  0  0  0  0  0
    4.3390    1.2904   -0.9174 O   0  0  0  0  0  0  0  0  0  0  0  0
    5.4164    0.8315   -0.1931 C   0  0  0  0  0  0  0  0  0  0  0  0
    6.1109   -0.2518   -0.7047 C   0  0  0  0  0  0  0  0  0  0  0  0
    7.1885   -0.7114    0.0187 C   0  0  0  0  0  0  0  0  0  0  0  0
    7.5616   -0.1187    1.2029 C   0  0  0  0  0  0  0  0  0  0  0  0
    6.8468    0.9725    1.7001 C   0  0  0  0  0  0  0  0  0  0  0  0
    5.7721    1.4317    0.9798 C   0  0  0  0  0  0  0  0  0  0  0  0
    2.6490   -0.2707   -1.4297 C   0  0  0  0  0  0  0  0  0  0  0  0
    1.3827   -0.7845   -1.2896 C   0  0  0  0  0  0  0  0  0  0  0  0
    0.5045   -0.1709   -0.4180 C   0  0  0  0  0  0  0  0  0  0  0  0
   -0.8384   -0.6983   -0.2761 C   0  0  0  0  0  0  0  0  0  0  0  0
   -1.9586    0.0019   -0.5012 N   0  0  0  0  0  0  0  0  0  0  0  0
   -3.0401   -0.7851   -0.2732 C   0  0  0  0  0  0  0  0  0  0  0  0
   -4.4685   -0.4266   -0.3956 C   0  0  1  0  0  0  0  0  0  0  0  0
   -4.8369    0.7758    0.4698 C   0  0  0  0  0  0  0  0  0  0  0  0
   -4.8236    1.6175   -0.7774 C   0  0  1  0  0  0  0  0  0  0  0  0
   -6.1208    2.3458   -0.9642 C   0  0  0  0  0  0  0  0  0  0  0  0
   -3.6850    2.4314   -0.8400 O   0  0  0  0  0  0  0  0  0  0  0  0
   -4.7471    0.3729   -1.6415 C   0  0  0  0  0  0  0  0  0  0  0  0
   -2.5738   -1.9859    0.0978 N   0  0  0  0  0  0  0  0  0  0  0  0
   -3.2090   -3.1087    0.4371 C   0  0  0  0  0  0  0  0  0  0  0  0
   -2.5109   -4.2279    0.7906 C   0  0  0  0  0  0  0  0  0  0  0  0
   -1.1629   -4.2331    0.8079 N   0  0  0  0  0  0  0  0  0  0  0  0
   -0.5208   -3.1002    0.4655 C   0  0  0  0  0  0  0  0  0  0  0  0
    0.9092   -3.0941    0.4936 N   0  0  0  0  0  0  0  0  0  0  0  0
   -1.2080   -1.9583    0.1045 C   0  0  0  0  0  0  0  0  0  0  0  0
    0.9238    2.4242    2.8246 H   0  0  0  0  0  0  0  0  0  0  0  0
   -0.6283    3.1785    2.2590 H   0  0  0  0  0  0  0  0  0  0  0  0
    0.8758    3.4265    1.3207 H   0  0  0  0  0  0  0  0  0  0  0  0
    2.4663    2.3051    0.7053 H   0  0  0  0  0  0  0  0  0  0  0  0
    5.8122   -0.7156   -1.6399 H   0  0  0  0  0  0  0  0  0  0  0  0
    7.7399   -1.5681   -0.3850 H   0  0  0  0  0  0  0  0  0  0  0  0
    8.4023   -0.5000    1.7390 H   0  0  0  0  0  0  0  0  0  0  0  0
    7.1468    1.4339    2.6345 H   0  0  0  0  0  0  0  0  0  0  0  0
    5.2122    2.2860    1.3680 H   0  0  0  0  0  0  0  0  0  0  0  0
    3.3196   -0.7706   -2.1197 H   0  0  0  0  0  0  0  0  0  0  0  0
    1.0837   -1.6690   -1.8735 H   0  0  0  0  0  0  0  0  0  0  0  0
   -5.1155   -1.3068   -0.2168 H   0  0  0  0  0  0  0  0  0  0  0  0
   -5.8208    0.6800    0.9747 H   0  0  0  0  0  0  0  0  0  0  0  0
   -4.0711    1.0297    1.2276 H   0  0  0  0  0  0  0  0  0  0  0  0
   -5.9521    3.3038   -1.5030 H   0  0  0  0  0  0  0  0  0  0  0  0
   -6.5142    2.5675    0.0624 H   0  0  0  0  0  0  0  0  0  0  0  0
   -6.8179    1.6893   -1.5133 H   0  0  0  0  0  0  0  0  0  0  0  0
   -3.3666    2.5487    0.0833 H   0  0  0  0  0  0  0  0  0  0  0  0
   -5.7023    0.1332   -2.1493 H   0  0  0  0  0  0  0  0  0  0  0  0
   -3.9136    0.4093   -2.3857 H   0  0  0  0  0  0  0  0  0  0  0  0
   -4.2846   -3.1599    0.4410 H   0  0  0  0  0  0  0  0  0  0  0  0
   -3.0097   -5.1454    1.0681 H   0  0  0  0  0  0  0  0  0  0  0  0
    1.4614   -3.7571   -0.0749 H   0  0  0  0  0  0  0  0  0  0  0  0
    1.4213   -2.4080    1.1007 H   0  0  0  0  0  0  0  0  0  0  0  0
  1  2  1  0
  2  3  1  0
  3  4  2  0
  4  5  1  0
  5  6  1  0
  6  7  1  0
  7  8  2  0
  8  9  1  0
  9 10  2  0
 10 11  1  0
 11 12  2  0
  5 13  2  0
 13 14  1  0
 14 15  2  0
 15 16  1  0
 16 17  1  0
 17 18  2  0
 18 19  1  0
 19 20  1  0
 20 21  1  0
 21 22  1  0
 21 23  1  1
 21 24  1  0
 18 25  1  0
 25 26  1  0
 26 27  2  0
 27 28  1  0
 28 29  2  0
 29 30  1  0
 29 31  1  0
 15  3  1  0
 31 16  2  0
 12  7  1  0
 24 19  1  0
 31 25  1  0
  1 32  1  0
  1 33  1  0
  1 34  1  0
  4 35  1  0
  8 36  1  0
  9 37  1  0
 10 38  1  0
 11 39  1  0
 12 40  1  0
 13 41  1  0
 14 42  1  0
 19 43  1  1
 20 44  1  0
 20 45  1  0
 22 46  1  0
 22 47  1  0
 22 48  1  0
 23 49  1  0
 24 50  1  0
 24 51  1  0
 26 52  1  0
 27 53  1  0
 30 54  1  0
 30 55  1  0
M  END
$$$$
