
     RDKit          3D

 32 32  0  0  0  0  0  0  0  0999 V2000
    0.1642   -1.3456   -0.0923 C   0  0  1  0  0  0  0  0  0  0  0  0
    1.1058   -2.3383   -0.2017 O   0  0  0  0  0  0  0  0  0  0  0  0
   -1.0361   -1.7177    0.7552 C   0  0  2  0  0  0  0  0  0  0  0  0
   -1.9535   -2.4931    0.0608 O   0  0  0  0  0  0  0  0  0  0  0  0
   -1.5802   -0.3074    1.0048 C   0  0  2  0  0  0  0  0  0  0  0  0
   -2.6007   -0.0802   -0.1011 C   0  0  0  0  0  0  0  0  0  0  0  0
   -3.3647    1.5508    0.0219 P   0  0  0  0  0  0  0  0  0  0  0  0
   -4.4721    1.5829    1.2768 O   0  0  0  0  0  0  0  0  0  0  0  0
   -2.1668    2.7211    0.2824 O   0  0  0  0  0  0  0  0  0  0  0  0
   -4.0724    1.8441   -1.2751 O   0  0  0  0  0  0  0  0  0  0  0  0
   -0.5163    0.5494    0.9107 O   0  0  0  0  0  0  0  0  0  0  0  0
    0.6480   -0.1576    0.7450 C   0  0  2  0  0  0  0  0  0  0  0  0
    1.7198    0.6112    0.0205 C   0  0  0  0  0  0  0  0  0  0  0  0
    2.8168   -0.2514   -0.0566 O   0  0  0  0  0  0  0  0  0  0  0  0
    4.1433    0.3965   -0.8310 P   0  0  0  0  0  0  0  0  0  0  0  0
    5.5312    0.0003    0.0731 O   0  0  0  0  0  0  0  0  0  0  0  0
    3.9618    2.0641   -1.0130 O   0  0  0  0  0  0  0  0  0  0  0  0
    4.2536   -0.3096   -2.1852 O   0  0  0  0  0  0  0  0  0  0  0  0
   -0.1311   -0.9033   -1.0657 H   0  0  0  0  0  0  0  0  0  0  0  0
    0.8957   -2.8352   -1.0434 H   0  0  0  0  0  0  0  0  0  0  0  0
   -0.6563   -2.1875    1.6673 H   0  0  0  0  0  0  0  0  0  0  0  0
   -2.5814   -2.8541    0.7377 H   0  0  0  0  0  0  0  0  0  0  0  0
   -2.0862   -0.2111    1.9689 H   0  0  0  0  0  0  0  0  0  0  0  0
   -3.3797   -0.8526    0.0440 H   0  0  0  0  0  0  0  0  0  0  0  0
   -2.1538   -0.2303   -1.0939 H   0  0  0  0  0  0  0  0  0  0  0  0
   -4.9270    0.6924    1.3115 H   0  0  0  0  0  0  0  0  0  0  0  0
   -2.6388    3.5927    0.2667 H   0  0  0  0  0  0  0  0  0  0  0  0
    1.0134   -0.4837    1.7360 H   0  0  0  0  0  0  0  0  0  0  0  0
    1.3977    1.0159   -0.9379 H   0  0  0  0  0  0  0  0  0  0  0  0
    2.0205    1.4361    0.7086 H   0  0  0  0  0  0  0  0  0  0  0  0
    5.7627   -0.9451   -0.1891 H   0  0  0  0  0  0  0  0  0  0  0  0
    4.8825    2.4462   -1.0604 H   0  0  0  0  0  0  0  0  0  0  0  0
  1  2  1  0
  1  3  1  0
  3  4  1  0
  3  5  1  0
  5  6  1  0
  6  7  1  0
  7  8  1  0
  7  9  1  0
  7 10  2  0
  5 11  1  0
 11 12  1  0
 12 13  1  0
 13 14  1  0
 14 15  1  0
 15 16  1  0
 15 17  1  0
 15 18  2  0
 12  1  1  0
  1 19  1  6
  2 20  1  0
  3 21  1  1
  4 22  1  0
  5 23  1  1
  6 24  1  0
  6 25  1  0
  8 26  1  0
  9 27  1  0
 12 28  1  1
 13 29  1  0
 13 30  1  0
 16 31  1  0
 17 32  1  0
M  END
$$$$
