
     RDKit          3D

 48 52  0  0  0  0  0  0  0  0999 V2000
   -3.3784    4.3356    0.5903 C   0  0  0  0  0  0  0  0  0  0  0  0
   -3.1248    3.1567   -0.2826 C   0  0  0  0  0  0  0  0  0  0  0  0
   -4.0241    2.9092   -1.2955 C   0  0  0  0  0  0  0  0  0  0  0  0
   -3.8347    1.8308   -2.1311 C   0  0  0  0  0  0  0  0  0  0  0  0
   -2.7149    1.0189   -1.9094 C   0  0  0  0  0  0  0  0  0  0  0  0
   -1.8327    1.2906   -0.8885 C   0  0  0  0  0  0  0  0  0  0  0  0
   -0.6595    0.4263   -0.6562 C   0  0  0  0  0  0  0  0  0  0  0  0
    0.6192    0.7132   -0.9614 N   0  0  0  0  0  0  0  0  0  0  0  0
    1.4009   -0.3114   -0.6081 C   0  0  0  0  0  0  0  0  0  0  0  0
    2.8656   -0.4320   -0.7557 C   0  0  0  0  0  0  0  0  0  0  0  0
    3.5933    0.0548    0.3767 N   0  0  0  0  0  0  0  0  0  0  0  0
    5.0019   -0.0098    0.3721 C   0  0  0  0  0  0  0  0  0  0  0  0
    5.6863   -0.5315   -0.6967 C   0  0  0  0  0  0  0  0  0  0  0  0
    7.0616   -0.5760   -0.6579 C   0  0  0  0  0  0  0  0  0  0  0  0
    7.7995   -0.1133    0.4226 C   0  0  0  0  0  0  0  0  0  0  0  0
    7.0625    0.4012    1.4703 C   0  0  0  0  0  0  0  0  0  0  0  0
    5.6904    0.4573    1.4571 C   0  0  0  0  0  0  0  0  0  0  0  0
    5.0246    0.9807    2.5303 F   0  0  0  0  0  0  0  0  0  0  0  0
    0.5998   -1.2530   -0.0741 N   0  0  0  0  0  0  0  0  0  0  0  0
   -0.6998   -0.8281   -0.0861 C   0  0  0  0  0  0  0  0  0  0  0  0
   -1.8610   -1.5548    0.4044 C   0  0  0  0  0  0  0  0  0  0  0  0
   -2.0132   -1.7576    1.7708 C   0  0  0  0  0  0  0  0  0  0  0  0
   -3.0857   -2.4402    2.2916 C   0  0  0  0  0  0  0  0  0  0  0  0
   -4.0233   -2.9273    1.4059 C   0  0  0  0  0  0  0  0  0  0  0  0
   -5.1714   -3.6246    1.5605 N   0  0  0  0  0  0  0  0  0  0  0  0
   -5.7277   -3.8588    0.3687 C   0  0  0  0  0  0  0  0  0  0  0  0
   -4.9217   -3.3036   -0.5416 N   0  0  0  0  0  0  0  0  0  0  0  0
   -3.8898   -2.7394    0.0825 N   0  0  0  0  0  0  0  0  0  0  0  0
   -2.8252   -2.0620   -0.4327 C   0  0  0  0  0  0  0  0  0  0  0  0
   -2.0439    2.3506   -0.0890 N   0  0  0  0  0  0  0  0  0  0  0  0
   -2.6486    4.3602    1.4358 H   0  0  0  0  0  0  0  0  0  0  0  0
   -3.2689    5.2923    0.0520 H   0  0  0  0  0  0  0  0  0  0  0  0
   -4.4240    4.3045    0.9956 H   0  0  0  0  0  0  0  0  0  0  0  0
   -4.8848    3.5814   -1.4214 H   0  0  0  0  0  0  0  0  0  0  0  0
   -4.5368    1.6389   -2.9201 H   0  0  0  0  0  0  0  0  0  0  0  0
   -2.5826    0.1803   -2.5819 H   0  0  0  0  0  0  0  0  0  0  0  0
    0.9293    1.5944   -1.4004 H   0  0  0  0  0  0  0  0  0  0  0  0
    3.1234   -1.5283   -0.8453 H   0  0  0  0  0  0  0  0  0  0  0  0
    3.1717    0.1032   -1.6844 H   0  0  0  0  0  0  0  0  0  0  0  0
    3.0960    0.4492    1.1886 H   0  0  0  0  0  0  0  0  0  0  0  0
    5.1653   -0.9152   -1.5843 H   0  0  0  0  0  0  0  0  0  0  0  0
    7.6043   -0.9909   -1.5072 H   0  0  0  0  0  0  0  0  0  0  0  0
    8.8807   -0.1642    0.4170 H   0  0  0  0  0  0  0  0  0  0  0  0
    7.6372    0.7659    2.3224 H   0  0  0  0  0  0  0  0  0  0  0  0
   -1.2667   -1.3667    2.4341 H   0  0  0  0  0  0  0  0  0  0  0  0
   -3.2210   -2.6088    3.3693 H   0  0  0  0  0  0  0  0  0  0  0  0
   -6.6392   -4.3869    0.1778 H   0  0  0  0  0  0  0  0  0  0  0  0
   -2.7091   -1.9118   -1.4850 H   0  0  0  0  0  0  0  0  0  0  0  0
  1  2  1  0
  2  3  2  0
  3  4  1  0
  4  5  2  0
  5  6  1  0
  6  7  1  0
  7  8  1  0
  8  9  1  0
  9 10  1  0
 10 11  1  0
 11 12  1  0
 12 13  2  0
 13 14  1  0
 14 15  2  0
 15 16  1  0
 16 17  2  0
 17 18  1  0
  9 19  2  0
 19 20  1  0
 20 21  1  0
 21 22  1  0
 22 23  2  0
 23 24  1  0
 24 25  2  0
 25 26  1  0
 26 27  2  0
 27 28  1  0
 28 29  1  0
  6 30  2  0
 30  2  1  0
 20  7  2  0
 29 21  2  0
 17 12  1  0
 28 24  1  0
  1 31  1  0
  1 32  1  0
  1 33  1  0
  3 34  1  0
  4 35  1  0
  5 36  1  0
  8 37  1  0
 10 38  1  0
 10 39  1  0
 11 40  1  0
 13 41  1  0
 14 42  1  0
 15 43  1  0
 16 44  1  0
 22 45  1  0
 23 46  1  0
 26 47  1  0
 29 48  1  0
M  END
$$$$
