
     RDKit          3D

 25 28  0  0  0  0  0  0  0  0999 V2000
    0.4253   -2.8527   -0.3233 O   0  0  0  0  0  0  0  0  0  0  0  0
    0.2820   -1.6247   -0.1820 C   0  0  0  0  0  0  0  0  0  0  0  0
    1.4284   -0.7119   -0.0087 C   0  0  0  0  0  0  0  0  0  0  0  0
    2.7303   -1.1900    0.0041 C   0  0  0  0  0  0  0  0  0  0  0  0
    3.8256   -0.3877    0.1612 C   0  0  0  0  0  0  0  0  0  0  0  0
    3.6308    0.9738    0.3159 C   0  0  0  0  0  0  0  0  0  0  0  0
    2.3285    1.4899    0.3077 C   0  0  0  0  0  0  0  0  0  0  0  0
    1.2584    0.6482    0.1472 C   0  0  0  0  0  0  0  0  0  0  0  0
   -0.1113    1.1795    0.1372 C   0  0  0  0  0  0  0  0  0  0  0  0
   -0.6790    2.3981    0.2543 N   0  0  0  0  0  0  0  0  0  0  0  0
   -2.0224    2.2722    0.1658 N   0  0  0  0  0  0  0  0  0  0  0  0
   -2.3439    0.9763   -0.0090 C   0  0  0  0  0  0  0  0  0  0  0  0
   -3.4950    0.2102   -0.1648 C   0  0  0  0  0  0  0  0  0  0  0  0
   -3.4392   -1.1790   -0.3304 C   0  0  0  0  0  0  0  0  0  0  0  0
   -2.2227   -1.8074   -0.3405 C   0  0  0  0  0  0  0  0  0  0  0  0
   -1.0592   -1.0498   -0.1852 C   0  0  0  0  0  0  0  0  0  0  0  0
   -1.1519    0.3038   -0.0258 C   0  0  0  0  0  0  0  0  0  0  0  0
    2.8531   -2.2506   -0.1180 H   0  0  0  0  0  0  0  0  0  0  0  0
    4.8494   -0.7477    0.1732 H   0  0  0  0  0  0  0  0  0  0  0  0
    4.4650    1.6515    0.4437 H   0  0  0  0  0  0  0  0  0  0  0  0
    2.1382    2.5309    0.4238 H   0  0  0  0  0  0  0  0  0  0  0  0
   -2.7167    3.0298    0.2200 H   0  0  0  0  0  0  0  0  0  0  0  0
   -4.4371    0.7337   -0.1525 H   0  0  0  0  0  0  0  0  0  0  0  0
   -4.3806   -1.7286   -0.4484 H   0  0  0  0  0  0  0  0  0  0  0  0
   -2.1558   -2.8680   -0.4657 H   0  0  0  0  0  0  0  0  0  0  0  0
  1  2  2  0
  2  3  1  0
  3  4  2  0
  4  5  1  0
  5  6  2  0
  6  7  1  0
  7  8  2  0
  8  9  1  0
  9 10  2  0
 10 11  1  0
 11 12  1  0
 12 13  1  0
 13 14  2  0
 14 15  1  0
 15 16  2  0
 16 17  1  0
 16  2  1  0
  8  3  1  0
 17  9  1  0
 17 12  2  0
  4 18  1  0
  5 19  1  0
  6 20  1  0
  7 21  1  0
 11 22  1  0
 13 23  1  0
 14 24  1  0
 15 25  1  0
M  END
$$$$
