
     RDKit          3D

 18 18  0  0  0  0  0  0  0  0999 V2000
   -2.7480   -1.1668   -0.5408 N   0  0  0  0  0  0  0  0  0  0  0  0
   -1.5767   -0.3951   -0.3343 C   0  0  0  0  0  0  0  0  0  0  0  0
   -0.3724   -1.0211   -0.0072 C   0  0  0  0  0  0  0  0  0  0  0  0
    0.7303   -0.2122    0.1806 C   0  0  0  0  0  0  0  0  0  0  0  0
    1.9435   -0.9467    0.5185 C   0  0  0  0  0  0  0  0  0  0  0  0
    3.2277   -0.5324    0.7798 O   0  0  0  0  0  0  0  0  0  0  0  0
    2.0623   -2.1946    0.6467 O   0  0  0  0  0  0  0  0  0  0  0  0
    0.7390    1.1482    0.0726 C   0  0  0  0  0  0  0  0  0  0  0  0
    1.8740    1.9048    0.2720 O   0  0  0  0  0  0  0  0  0  0  0  0
   -0.4929    1.6998   -0.2548 C   0  0  0  0  0  0  0  0  0  0  0  0
   -1.6492    0.9727   -0.4615 C   0  0  0  0  0  0  0  0  0  0  0  0
   -3.6942   -0.7378   -0.4349 H   0  0  0  0  0  0  0  0  0  0  0  0
   -2.6621   -2.1809   -0.8030 H   0  0  0  0  0  0  0  0  0  0  0  0
   -0.3555   -2.1013    0.0841 H   0  0  0  0  0  0  0  0  0  0  0  0
    4.0372   -0.7480    0.1846 H   0  0  0  0  0  0  0  0  0  0  0  0
    2.0987    2.2977    1.1727 H   0  0  0  0  0  0  0  0  0  0  0  0
   -0.5848    2.7784   -0.3632 H   0  0  0  0  0  0  0  0  0  0  0  0
   -2.5769    1.4351   -0.7119 H   0  0  0  0  0  0  0  0  0  0  0  0
  1  2  1  0
  2  3  2  0
  3  4  1  0
  4  5  1  0
  5  6  1  0
  5  7  2  0
  4  8  2  0
  8  9  1  0
  8 10  1  0
 10 11  2  0
 11  2  1  0
  1 12  1  0
  1 13  1  0
  3 14  1  0
  6 15  1  0
  9 16  1  0
 10 17  1  0
 11 18  1  0
M  END
$$$$
