
     RDKit          3D

 55 59  0  0  0  0  0  0  0  0999 V2000
    4.2386    0.4929   -1.7857 C   0  0  0  0  0  0  0  0  0  0  0  0
    2.8009    0.1244   -1.4760 C   0  0  2  0  0  0  0  0  0  0  0  0
    1.9679    1.3477   -1.7091 C   0  0  0  0  0  0  0  0  0  0  0  0
    2.0819    2.3036   -0.5184 C   0  0  0  0  0  0  0  0  0  0  0  0
    1.7371    1.6062    0.7580 C   0  0  2  0  0  0  0  0  0  0  0  0
    2.0812    2.5186    1.8418 N   0  0  0  0  0  0  0  0  0  0  0  0
    2.4506    0.3211    0.9835 C   0  0  0  0  0  0  0  0  0  0  0  0
    2.6485   -0.4856   -0.1952 N   0  0  0  0  0  0  0  0  0  0  0  0
    2.7042   -1.8979   -0.1166 C   0  0  0  0  0  0  0  0  0  0  0  0
    3.9339   -2.5222   -0.2816 C   0  0  0  0  0  0  0  0  0  0  0  0
    3.9459   -3.8874   -0.1598 C   0  0  0  0  0  0  0  0  0  0  0  0
    2.8595   -4.6187    0.1024 N   0  0  0  0  0  0  0  0  0  0  0  0
    1.6719   -3.9564    0.2556 C   0  0  0  0  0  0  0  0  0  0  0  0
    1.5381   -2.6003    0.1561 C   0  0  0  0  0  0  0  0  0  0  0  0
    0.3432   -1.8650    0.2641 N   0  0  0  0  0  0  0  0  0  0  0  0
   -0.8872   -2.4773    0.6220 C   0  0  0  0  0  0  0  0  0  0  0  0
   -1.2036   -3.7390    0.9299 N   0  0  0  0  0  0  0  0  0  0  0  0
   -2.5031   -3.8869    1.2101 C   0  0  0  0  0  0  0  0  0  0  0  0
   -3.0654   -2.6359    1.0743 C   0  0  0  0  0  0  0  0  0  0  0  0
   -4.3778   -2.1679    1.2368 C   0  0  0  0  0  0  0  0  0  0  0  0
   -4.5754   -0.8231    1.0124 C   0  0  0  0  0  0  0  0  0  0  0  0
   -3.5505    0.0259    0.6482 C   0  0  0  0  0  0  0  0  0  0  0  0
   -3.7990    1.4621    0.4163 C   0  0  0  0  0  0  0  0  0  0  0  0
   -3.7105    2.4029    1.4195 C   0  0  0  0  0  0  0  0  0  0  0  0
   -3.3851    2.0221    2.6765 F   0  0  0  0  0  0  0  0  0  0  0  0
   -3.9414    3.7437    1.2063 C   0  0  0  0  0  0  0  0  0  0  0  0
   -4.2789    4.1748   -0.0736 C   0  0  0  0  0  0  0  0  0  0  0  0
   -4.3745    3.2577   -1.0942 C   0  0  0  0  0  0  0  0  0  0  0  0
   -4.1341    1.9031   -0.8461 C   0  0  0  0  0  0  0  0  0  0  0  0
   -4.2314    1.0111   -1.8576 F   0  0  0  0  0  0  0  0  0  0  0  0
   -2.3256   -0.5000    0.5139 N   0  0  0  0  0  0  0  0  0  0  0  0
   -2.0807   -1.8044    0.7213 N   0  0  0  0  0  0  0  0  0  0  0  0
    4.2950    1.4104   -2.4116 H   0  0  0  0  0  0  0  0  0  0  0  0
    4.7572   -0.3084   -2.3480 H   0  0  0  0  0  0  0  0  0  0  0  0
    4.8350    0.6704   -0.8625 H   0  0  0  0  0  0  0  0  0  0  0  0
    2.5059   -0.6099   -2.2598 H   0  0  0  0  0  0  0  0  0  0  0  0
    2.4247    1.9049   -2.5756 H   0  0  0  0  0  0  0  0  0  0  0  0
    0.9317    1.1405   -1.9773 H   0  0  0  0  0  0  0  0  0  0  0  0
    3.1472    2.6610   -0.5143 H   0  0  0  0  0  0  0  0  0  0  0  0
    1.4246    3.1585   -0.6666 H   0  0  0  0  0  0  0  0  0  0  0  0
    0.6380    1.4174    0.7360 H   0  0  0  0  0  0  0  0  0  0  0  0
    1.8958    3.4833    1.5068 H   0  0  0  0  0  0  0  0  0  0  0  0
    3.1242    2.4357    1.9799 H   0  0  0  0  0  0  0  0  0  0  0  0
    3.4658    0.4743    1.4426 H   0  0  0  0  0  0  0  0  0  0  0  0
    1.9030   -0.3017    1.7296 H   0  0  0  0  0  0  0  0  0  0  0  0
    4.8083   -1.9222   -0.4938 H   0  0  0  0  0  0  0  0  0  0  0  0
    4.9232   -4.3830   -0.2908 H   0  0  0  0  0  0  0  0  0  0  0  0
    0.7761   -4.5511    0.4673 H   0  0  0  0  0  0  0  0  0  0  0  0
    0.3280   -0.8245    0.0660 H   0  0  0  0  0  0  0  0  0  0  0  0
   -3.0429   -4.7912    1.4914 H   0  0  0  0  0  0  0  0  0  0  0  0
   -5.1635   -2.8527    1.5227 H   0  0  0  0  0  0  0  0  0  0  0  0
   -5.5785   -0.3992    1.1236 H   0  0  0  0  0  0  0  0  0  0  0  0
   -3.8748    4.4896    1.9853 H   0  0  0  0  0  0  0  0  0  0  0  0
   -4.4651    5.2246   -0.2647 H   0  0  0  0  0  0  0  0  0  0  0  0
   -4.6381    3.6236   -2.0759 H   0  0  0  0  0  0  0  0  0  0  0  0
  1  2  1  0
  2  3  1  0
  3  4  1  0
  4  5  1  0
  5  6  1  0
  5  7  1  0
  7  8  1  0
  8  9  1  0
  9 10  2  0
 10 11  1  0
 11 12  2  0
 12 13  1  0
 13 14  2  0
 14 15  1  0
 15 16  1  0
 16 17  2  0
 17 18  1  0
 18 19  2  0
 19 20  1  0
 20 21  2  0
 21 22  1  0
 22 23  1  0
 23 24  2  0
 24 25  1  0
 24 26  1  0
 26 27  2  0
 27 28  1  0
 28 29  2  0
 29 30  1  0
 22 31  2  0
 31 32  1  0
  8  2  1  0
 14  9  1  0
 32 16  1  0
 32 19  1  0
 29 23  1  0
  1 33  1  0
  1 34  1  0
  1 35  1  0
  2 36  1  6
  3 37  1  0
  3 38  1  0
  4 39  1  0
  4 40  1  0
  5 41  1  6
  6 42  1  0
  6 43  1  0
  7 44  1  0
  7 45  1  0
 10 46  1  0
 11 47  1  0
 13 48  1  0
 15 49  1  0
 18 50  1  0
 20 51  1  0
 21 52  1  0
 26 53  1  0
 27 54  1  0
 28 55  1  0
M  END
$$$$
