
     RDKit          3D

 53 55  0  0  0  0  0  0  0  0999 V2000
   -8.1611    1.5341    0.2508 C   0  0  0  0  0  0  0  0  0  0  0  0
   -6.8476    0.9203   -0.2654 C   0  0  0  0  0  0  0  0  0  0  0  0
   -5.7219    1.4215    0.5618 C   0  0  0  0  0  0  0  0  0  0  0  0
   -4.4181    0.9133    0.1777 C   0  0  0  0  0  0  0  0  0  0  0  0
   -4.0488   -0.2361    0.8912 C   0  0  0  0  0  0  0  0  0  0  0  0
   -2.8659   -0.9048    0.6687 C   0  0  0  0  0  0  0  0  0  0  0  0
   -1.9652   -0.4749   -0.2820 C   0  0  0  0  0  0  0  0  0  0  0  0
   -0.7670   -1.1940   -0.4786 N   0  0  0  0  0  0  0  0  0  0  0  0
    0.4819   -1.0436    0.1533 C   0  0  0  0  0  0  0  0  0  0  0  0
    0.2203   -0.1002    0.9286 O   0  0  0  0  0  0  0  0  0  0  0  0
    1.5842   -1.8952   -0.2053 C   0  0  0  0  0  0  0  0  0  0  0  0
    1.4301   -2.8434   -1.1740 C   0  0  0  0  0  0  0  0  0  0  0  0
    2.4380   -3.6794   -1.5623 C   0  0  0  0  0  0  0  0  0  0  0  0
    3.6759   -3.5537   -0.9379 C   0  0  0  0  0  0  0  0  0  0  0  0
    3.8047   -2.5879    0.0376 C   0  0  0  0  0  0  0  0  0  0  0  0
    2.7773   -1.7522    0.4173 C   0  0  0  0  0  0  0  0  0  0  0  0
    3.1252   -0.8580    1.4385 N   0  0  0  0  0  0  0  0  0  0  0  0
    4.2648   -0.4973    2.2374 C   0  0  0  0  0  0  0  0  0  0  0  0
    5.3482    0.1501    1.4532 C   0  0  0  0  0  0  0  0  0  0  0  0
    5.1139    1.5159    1.2944 C   0  0  0  0  0  0  0  0  0  0  0  0
    5.9354    2.3607    0.6385 N   0  0  0  0  0  0  0  0  0  0  0  0
    7.0592    1.9097    0.0868 C   0  0  0  0  0  0  0  0  0  0  0  0
    7.8965    2.6083   -0.5469 O   0  0  0  0  0  0  0  0  0  0  0  0
    7.3472    0.5559    0.2123 C   0  0  0  0  0  0  0  0  0  0  0  0
    6.5054   -0.2955    0.8817 C   0  0  0  0  0  0  0  0  0  0  0  0
   -2.3410    0.6562   -0.9754 C   0  0  0  0  0  0  0  0  0  0  0  0
   -3.5240    1.3381   -0.7633 C   0  0  0  0  0  0  0  0  0  0  0  0
   -3.8213    2.5624   -1.5418 C   0  0  0  0  0  0  0  0  0  0  0  0
   -2.7278    2.8307   -2.3860 F   0  0  0  0  0  0  0  0  0  0  0  0
   -4.0323    3.6066   -0.6824 F   0  0  0  0  0  0  0  0  0  0  0  0
   -4.8602    2.3601   -2.4404 F   0  0  0  0  0  0  0  0  0  0  0  0
   -8.4689    2.3806   -0.4133 H   0  0  0  0  0  0  0  0  0  0  0  0
   -8.0788    1.8445    1.2953 H   0  0  0  0  0  0  0  0  0  0  0  0
   -8.9441    0.7624    0.1518 H   0  0  0  0  0  0  0  0  0  0  0  0
   -6.9643   -0.1975   -0.1277 H   0  0  0  0  0  0  0  0  0  0  0  0
   -6.7829    1.1788   -1.3075 H   0  0  0  0  0  0  0  0  0  0  0  0
   -5.6852    2.5364    0.4738 H   0  0  0  0  0  0  0  0  0  0  0  0
   -5.9789    1.2142    1.6328 H   0  0  0  0  0  0  0  0  0  0  0  0
   -4.6676   -0.6951    1.6818 H   0  0  0  0  0  0  0  0  0  0  0  0
   -2.5968   -1.8014    1.2376 H   0  0  0  0  0  0  0  0  0  0  0  0
   -1.0484   -1.8908   -1.2366 H   0  0  0  0  0  0  0  0  0  0  0  0
    0.5101   -3.0000   -1.6989 H   0  0  0  0  0  0  0  0  0  0  0  0
    2.3002   -4.4274   -2.3336 H   0  0  0  0  0  0  0  0  0  0  0  0
    4.4668   -4.2285   -1.2599 H   0  0  0  0  0  0  0  0  0  0  0  0
    4.8019   -2.5944    0.4489 H   0  0  0  0  0  0  0  0  0  0  0  0
    2.2964   -0.2786    1.6882 H   0  0  0  0  0  0  0  0  0  0  0  0
    4.7374   -1.4434    2.6383 H   0  0  0  0  0  0  0  0  0  0  0  0
    3.9502    0.1457    3.0636 H   0  0  0  0  0  0  0  0  0  0  0  0
    4.2381    2.0578    1.6830 H   0  0  0  0  0  0  0  0  0  0  0  0
    5.7767    3.3705    0.5130 H   0  0  0  0  0  0  0  0  0  0  0  0
    8.2261    0.0549   -0.1871 H   0  0  0  0  0  0  0  0  0  0  0  0
    6.6643   -1.3481    1.0307 H   0  0  0  0  0  0  0  0  0  0  0  0
   -1.6583    1.0317   -1.7373 H   0  0  0  0  0  0  0  0  0  0  0  0
  1  2  1  0
  2  3  1  0
  3  4  1  0
  4  5  2  0
  5  6  1  0
  6  7  2  0
  7  8  1  0
  8  9  1  0
  9 10  2  0
  9 11  1  0
 11 12  2  0
 12 13  1  0
 13 14  2  0
 14 15  1  0
 15 16  2  0
 16 17  1  0
 17 18  1  0
 18 19  1  0
 19 20  2  0
 20 21  1  0
 21 22  1  0
 22 23  2  0
 22 24  1  0
 24 25  2  0
  7 26  1  0
 26 27  2  0
 27 28  1  0
 28 29  1  0
 28 30  1  0
 28 31  1  0
 27  4  1  0
 16 11  1  0
 25 19  1  0
  1 32  1  0
  1 33  1  0
  1 34  1  0
  2 35  1  0
  2 36  1  0
  3 37  1  0
  3 38  1  0
  5 39  1  0
  6 40  1  0
  8 41  1  0
 12 42  1  0
 13 43  1  0
 14 44  1  0
 15 45  1  0
 17 46  1  0
 18 47  1  0
 18 48  1  0
 20 49  1  0
 21 50  1  0
 24 51  1  0
 25 52  1  0
 26 53  1  0
M  END
$$$$
