
     RDKit          3D

 49 52  0  0  0  0  0  0  0  0999 V2000
    9.9254   -1.9007    1.1341 N   0  0  0  0  0  0  0  0  0  0  0  0
    9.4487   -1.2392   -0.0185 C   0  0  0  0  0  0  0  0  0  0  0  0
   10.0197   -1.3673   -1.1111 O   0  0  0  0  0  0  0  0  0  0  0  0
    8.2690   -0.3972    0.0900 C   0  0  0  0  0  0  0  0  0  0  0  0
    7.5921   -0.2184    1.2848 C   0  0  0  0  0  0  0  0  0  0  0  0
    6.4743    0.5751    1.4035 C   0  0  0  0  0  0  0  0  0  0  0  0
    5.9816    1.2344    0.3037 C   0  0  0  0  0  0  0  0  0  0  0  0
    4.5222    2.2661    0.4747 S   0  0  0  0  0  0  0  0  0  0  0  0
    3.1081    1.3809    0.2006 C   0  0  0  0  0  0  0  0  0  0  0  0
    2.2266    0.6394    0.9709 C   0  0  0  0  0  0  0  0  0  0  0  0
    1.2190    0.0760    0.4419 N   0  0  0  0  0  0  0  0  0  0  0  0
    0.8726    0.0852   -0.7470 C   0  0  0  0  0  0  0  0  0  0  0  0
   -0.1413   -0.4138   -1.6159 N   0  0  0  0  0  0  0  0  0  0  0  0
   -1.3516    0.3206   -1.8801 C   0  0  0  0  0  0  0  0  0  0  0  0
   -1.4374    1.4234   -1.2882 O   0  0  0  0  0  0  0  0  0  0  0  0
   -2.3279   -0.2102   -2.7461 N   0  0  0  0  0  0  0  0  0  0  0  0
   -3.5385    0.5040   -3.0170 C   0  0  0  0  0  0  0  0  0  0  0  0
   -4.3111    0.7028   -1.7610 C   0  0  0  0  0  0  0  0  0  0  0  0
   -5.1635   -0.2225   -1.2153 N   0  0  0  0  0  0  0  0  0  0  0  0
   -5.6903    0.3143   -0.1107 C   0  0  0  0  0  0  0  0  0  0  0  0
   -6.6616   -0.2985    0.8171 C   0  0  0  0  0  0  0  0  0  0  0  0
   -7.1445   -1.5714    0.6083 C   0  0  0  0  0  0  0  0  0  0  0  0
   -8.0641   -2.1418    1.4935 C   0  0  0  0  0  0  0  0  0  0  0  0
   -8.5094   -1.4388    2.5996 C   0  0  0  0  0  0  0  0  0  0  0  0
   -8.0178   -0.1659    2.7962 C   0  0  0  0  0  0  0  0  0  0  0  0
   -7.1105    0.3941    1.9211 C   0  0  0  0  0  0  0  0  0  0  0  0
   -5.1680    1.5780    0.0369 C   0  0  0  0  0  0  0  0  0  0  0  0
   -4.3184    1.8019   -0.9911 N   0  0  0  0  0  0  0  0  0  0  0  0
    2.2507    1.1440   -1.4527 S   0  0  0  0  0  0  0  0  0  0  0  0
    6.6269    1.0810   -0.8992 C   0  0  0  0  0  0  0  0  0  0  0  0
    7.7413    0.2837   -0.9946 C   0  0  0  0  0  0  0  0  0  0  0  0
   10.1463   -1.3512    1.9824 H   0  0  0  0  0  0  0  0  0  0  0  0
   10.0514   -2.9268    1.1260 H   0  0  0  0  0  0  0  0  0  0  0  0
    7.9844   -0.7405    2.1502 H   0  0  0  0  0  0  0  0  0  0  0  0
    5.9877    0.6699    2.3883 H   0  0  0  0  0  0  0  0  0  0  0  0
    2.4707    0.5799    2.0719 H   0  0  0  0  0  0  0  0  0  0  0  0
   -0.0126   -1.3387   -2.0800 H   0  0  0  0  0  0  0  0  0  0  0  0
   -2.1899   -1.1443   -3.2139 H   0  0  0  0  0  0  0  0  0  0  0  0
   -4.2197   -0.0413   -3.7040 H   0  0  0  0  0  0  0  0  0  0  0  0
   -3.2978    1.5092   -3.4684 H   0  0  0  0  0  0  0  0  0  0  0  0
   -6.7917   -2.1187   -0.2614 H   0  0  0  0  0  0  0  0  0  0  0  0
   -8.4468   -3.1410    1.3346 H   0  0  0  0  0  0  0  0  0  0  0  0
   -9.2193   -1.9066    3.2639 H   0  0  0  0  0  0  0  0  0  0  0  0
   -8.3716    0.3737    3.6621 H   0  0  0  0  0  0  0  0  0  0  0  0
   -6.7169    1.3948    2.0657 H   0  0  0  0  0  0  0  0  0  0  0  0
   -5.3549    2.3136    0.8063 H   0  0  0  0  0  0  0  0  0  0  0  0
   -3.7860    2.6935   -1.1322 H   0  0  0  0  0  0  0  0  0  0  0  0
    6.2095    1.6183   -1.7521 H   0  0  0  0  0  0  0  0  0  0  0  0
    8.2345    0.1810   -1.9678 H   0  0  0  0  0  0  0  0  0  0  0  0
  1  2  1  0
  2  3  2  0
  2  4  1  0
  4  5  2  0
  5  6  1  0
  6  7  2  0
  7  8  1  0
  8  9  1  0
  9 10  2  0
 10 11  1  0
 11 12  2  0
 12 13  1  0
 13 14  1  0
 14 15  2  0
 14 16  1  0
 16 17  1  0
 17 18  1  0
 18 19  2  0
 19 20  1  0
 20 21  1  0
 21 22  2  0
 22 23  1  0
 23 24  2  0
 24 25  1  0
 25 26  2  0
 20 27  2  0
 27 28  1  0
 12 29  1  0
  7 30  1  0
 30 31  2  0
 31  4  1  0
 29  9  1  0
 28 18  1  0
 26 21  1  0
  1 32  1  0
  1 33  1  0
  5 34  1  0
  6 35  1  0
 10 36  1  0
 13 37  1  0
 16 38  1  0
 17 39  1  0
 17 40  1  0
 22 41  1  0
 23 42  1  0
 24 43  1  0
 25 44  1  0
 26 45  1  0
 27 46  1  0
 28 47  1  0
 30 48  1  0
 31 49  1  0
M  END
$$$$
