
     RDKit          3D

 62 65  0  0  0  0  0  0  0  0999 V2000
   -4.6971   -3.4642   -2.2121 C   0  0  0  0  0  0  0  0  0  0  0  0
   -4.1076   -3.1804   -0.5636 S   0  0  0  0  0  6  0  0  0  0  0  0
   -2.6993   -3.6914   -0.4664 O   0  0  0  0  0  0  0  0  0  0  0  0
   -4.9326   -3.9658    0.4157 O   0  0  0  0  0  0  0  0  0  0  0  0
   -4.2207   -1.5062   -0.1363 N   0  0  0  0  0  0  0  0  0  0  0  0
   -3.3971   -0.6938   -1.0223 C   0  0  0  0  0  0  0  0  0  0  0  0
   -3.4383    0.7663   -0.7334 C   0  0  0  0  0  0  0  0  0  0  0  0
   -2.9382    1.1853    0.6294 C   0  0  0  0  0  0  0  0  0  0  0  0
   -1.5755    0.9117    0.9089 N   0  0  0  0  0  0  0  0  0  0  0  0
   -0.5223    0.7377   -0.0198 C   0  0  0  0  0  0  0  0  0  0  0  0
   -0.7030    0.8306   -1.2593 O   0  0  0  0  0  0  0  0  0  0  0  0
    0.8782    0.4293    0.4521 C   0  0  0  0  0  0  0  0  0  0  0  0
    0.9024    0.3666    1.9050 N   0  0  0  0  0  0  0  0  0  0  0  0
    1.3030   -0.9655   -0.0247 C   0  0  0  0  0  0  0  0  0  0  0  0
    2.6735   -1.1923    0.6210 C   0  0  0  0  0  0  0  0  0  0  0  0
    3.5918   -0.2811   -0.0226 N   0  0  0  0  0  0  0  0  0  0  0  0
    4.9635   -0.5900   -0.0479 C   0  0  0  0  0  0  0  0  0  0  0  0
    5.8301    0.2441    0.5514 N   0  0  0  0  0  0  0  0  0  0  0  0
    7.1634    0.0069    0.5684 C   0  0  0  0  0  0  0  0  0  0  0  0
    7.6733   -1.0895   -0.0238 N   0  0  0  0  0  0  0  0  0  0  0  0
    6.8550   -1.9728   -0.6467 C   0  0  0  0  0  0  0  0  0  0  0  0
    7.0613   -3.1194   -1.3059 N   0  0  0  0  0  0  0  0  0  0  0  0
    5.8998   -3.6168   -1.7408 C   0  0  0  0  0  0  0  0  0  0  0  0
    4.9134   -2.7442   -1.3378 C   0  0  0  0  0  0  0  0  0  0  0  0
    5.4838   -1.7129   -0.6548 C   0  0  0  0  0  0  0  0  0  0  0  0
    3.0814    0.9312   -0.6288 C   0  0  0  0  0  0  0  0  0  0  0  0
    1.8567    1.4740    0.0213 C   0  0  0  0  0  0  0  0  0  0  0  0
   -3.4331    2.5162    0.9429 C   0  0  0  0  0  0  0  0  0  0  0  0
   -4.6595    2.6542    1.5740 C   0  0  0  0  0  0  0  0  0  0  0  0
   -5.1387    3.9030    1.8762 C   0  0  0  0  0  0  0  0  0  0  0  0
   -4.4417    5.0559    1.5749 C   0  0  0  0  0  0  0  0  0  0  0  0
   -5.0502    6.6556    1.9595 Cl  0  0  0  0  0  0  0  0  0  0  0  0
   -3.2220    4.9312    0.9477 C   0  0  0  0  0  0  0  0  0  0  0  0
   -2.7534    3.6810    0.6509 C   0  0  0  0  0  0  0  0  0  0  0  0
   -5.4663   -2.7049   -2.4592 H   0  0  0  0  0  0  0  0  0  0  0  0
   -5.2411   -4.4455   -2.1965 H   0  0  0  0  0  0  0  0  0  0  0  0
   -3.8900   -3.5440   -2.9539 H   0  0  0  0  0  0  0  0  0  0  0  0
   -3.7551   -1.4438    0.8207 H   0  0  0  0  0  0  0  0  0  0  0  0
   -3.6348   -0.8891   -2.0881 H   0  0  0  0  0  0  0  0  0  0  0  0
   -2.3731   -1.0772   -0.8687 H   0  0  0  0  0  0  0  0  0  0  0  0
   -2.9365    1.3299   -1.5474 H   0  0  0  0  0  0  0  0  0  0  0  0
   -4.5076    1.0856   -0.7867 H   0  0  0  0  0  0  0  0  0  0  0  0
   -3.5164    0.4432    1.3082 H   0  0  0  0  0  0  0  0  0  0  0  0
   -1.2654    0.8168    1.9278 H   0  0  0  0  0  0  0  0  0  0  0  0
    0.6915    1.2932    2.3372 H   0  0  0  0  0  0  0  0  0  0  0  0
    0.3741   -0.4184    2.2945 H   0  0  0  0  0  0  0  0  0  0  0  0
    0.6219   -1.6812    0.4603 H   0  0  0  0  0  0  0  0  0  0  0  0
    1.3539   -1.0326   -1.1133 H   0  0  0  0  0  0  0  0  0  0  0  0
    2.5420   -0.8215    1.6809 H   0  0  0  0  0  0  0  0  0  0  0  0
    2.9782   -2.2391    0.6108 H   0  0  0  0  0  0  0  0  0  0  0  0
    7.8150    0.7192    1.0697 H   0  0  0  0  0  0  0  0  0  0  0  0
    7.9865   -3.5737   -1.4666 H   0  0  0  0  0  0  0  0  0  0  0  0
    5.7243   -4.5228   -2.3017 H   0  0  0  0  0  0  0  0  0  0  0  0
    3.8538   -2.8520   -1.5292 H   0  0  0  0  0  0  0  0  0  0  0  0
    3.8920    1.7113   -0.5461 H   0  0  0  0  0  0  0  0  0  0  0  0
    2.9415    0.7788   -1.7193 H   0  0  0  0  0  0  0  0  0  0  0  0
    1.3326    2.1149   -0.7460 H   0  0  0  0  0  0  0  0  0  0  0  0
    2.1338    2.1853    0.8340 H   0  0  0  0  0  0  0  0  0  0  0  0
   -5.2664    1.7971    1.8428 H   0  0  0  0  0  0  0  0  0  0  0  0
   -6.1007    4.0532    2.3732 H   0  0  0  0  0  0  0  0  0  0  0  0
   -2.6857    5.8342    0.7165 H   0  0  0  0  0  0  0  0  0  0  0  0
   -1.8020    3.5882    0.1617 H   0  0  0  0  0  0  0  0  0  0  0  0
  1  2  1  0
  2  3  2  0
  2  4  2  0
  2  5  1  0
  5  6  1  0
  6  7  1  0
  7  8  1  0
  8  9  1  0
  9 10  1  0
 10 11  2  0
 10 12  1  0
 12 13  1  0
 12 14  1  0
 14 15  1  0
 15 16  1  0
 16 17  1  0
 17 18  2  0
 18 19  1  0
 19 20  2  0
 20 21  1  0
 21 22  1  0
 22 23  1  0
 23 24  2  0
 24 25  1  0
 16 26  1  0
 26 27  1  0
  8 28  1  0
 28 29  2  0
 29 30  1  0
 30 31  2  0
 31 32  1  0
 31 33  1  0
 33 34  2  0
 27 12  1  0
 34 28  1  0
 25 17  1  0
 25 21  2  0
  1 35  1  0
  1 36  1  0
  1 37  1  0
  5 38  1  0
  6 39  1  0
  6 40  1  0
  7 41  1  0
  7 42  1  0
  8 43  1  0
  9 44  1  0
 13 45  1  0
 13 46  1  0
 14 47  1  0
 14 48  1  0
 15 49  1  0
 15 50  1  0
 19 51  1  0
 22 52  1  0
 23 53  1  0
 24 54  1  0
 26 55  1  0
 26 56  1  0
 27 57  1  0
 27 58  1  0
 29 59  1  0
 30 60  1  0
 33 61  1  0
 34 62  1  0
M  END
$$$$
