
     RDKit          3D

 49 51  0  0  0  0  0  0  0  0999 V2000
   -4.7328    4.3577    0.0026 C   0  0  0  0  0  0  0  0  0  0  0  0
   -5.5636    3.2516   -0.2680 O   0  0  0  0  0  0  0  0  0  0  0  0
   -5.0817    1.9645   -0.4360 C   0  0  0  0  0  0  0  0  0  0  0  0
   -5.9416    0.9214   -0.6990 C   0  0  0  0  0  0  0  0  0  0  0  0
   -5.4916   -0.3630   -0.8700 C   0  0  0  0  0  0  0  0  0  0  0  0
   -4.1283   -0.6873   -0.7865 C   0  0  0  0  0  0  0  0  0  0  0  0
   -3.2790    0.3375   -0.5273 C   0  0  0  0  0  0  0  0  0  0  0  0
   -3.7445    1.6475   -0.3538 C   0  0  0  0  0  0  0  0  0  0  0  0
   -1.8316    0.2774   -0.3821 C   0  0  0  0  0  0  0  0  0  0  0  0
   -1.2477    1.3553   -0.6521 O   0  0  0  0  0  0  0  0  0  0  0  0
   -0.9302   -0.7705    0.0100 N   0  0  0  0  0  0  0  0  0  0  0  0
    0.3115   -0.3496    0.5840 C   0  0  0  0  0  0  0  0  0  0  0  0
    1.4326   -0.1397   -0.3931 C   0  0  0  0  0  0  0  0  0  0  0  0
    2.6508    0.2880    0.3986 C   0  0  0  0  0  0  0  0  0  0  0  0
    3.8442    0.5264   -0.5037 C   0  0  0  0  0  0  0  0  0  0  0  0
    4.9927    0.9454    0.3892 C   0  0  0  0  0  0  0  0  0  0  0  0
    6.2240    1.2071   -0.3950 C   0  0  0  0  0  0  0  0  0  0  0  0
    6.1773    1.0602   -1.6383 O   0  0  0  0  0  0  0  0  0  0  0  0
    7.4104    1.6115    0.2639 N   0  0  0  0  0  0  0  0  0  0  0  0
    8.5538    1.8594   -0.4192 O   0  0  0  0  0  0  0  0  0  0  0  0
   -1.1622   -2.1703   -0.1252 C   0  0  0  0  0  0  0  0  0  0  0  0
   -0.0483   -2.8701    0.2253 C   0  0  0  0  0  0  0  0  0  0  0  0
    0.0046   -4.2706    0.1901 C   0  0  0  0  0  0  0  0  0  0  0  0
   -1.0903   -4.9883   -0.2079 C   0  0  0  0  0  0  0  0  0  0  0  0
   -2.2066   -4.3012   -0.5601 C   0  0  0  0  0  0  0  0  0  0  0  0
   -2.2601   -2.8928   -0.5249 C   0  0  0  0  0  0  0  0  0  0  0  0
   -3.8534   -2.4103   -1.0618 S   0  0  0  0  0  0  0  0  0  0  0  0
   -5.2506    5.3025   -0.2345 H   0  0  0  0  0  0  0  0  0  0  0  0
   -3.8165    4.2801   -0.6518 H   0  0  0  0  0  0  0  0  0  0  0  0
   -4.3296    4.3356    1.0436 H   0  0  0  0  0  0  0  0  0  0  0  0
   -7.0072    1.1660   -0.7657 H   0  0  0  0  0  0  0  0  0  0  0  0
   -6.1828   -1.1611   -1.0746 H   0  0  0  0  0  0  0  0  0  0  0  0
   -3.0567    2.4551   -0.1484 H   0  0  0  0  0  0  0  0  0  0  0  0
    0.1161    0.7284    0.9359 H   0  0  0  0  0  0  0  0  0  0  0  0
    0.5869   -0.7836    1.5579 H   0  0  0  0  0  0  0  0  0  0  0  0
    1.2002    0.7742   -1.0311 H   0  0  0  0  0  0  0  0  0  0  0  0
    1.6046   -0.9161   -1.1285 H   0  0  0  0  0  0  0  0  0  0  0  0
    2.3972    1.2841    0.8464 H   0  0  0  0  0  0  0  0  0  0  0  0
    2.8803   -0.3765    1.2359 H   0  0  0  0  0  0  0  0  0  0  0  0
    4.0978   -0.4295   -0.9996 H   0  0  0  0  0  0  0  0  0  0  0  0
    3.5925    1.3321   -1.1903 H   0  0  0  0  0  0  0  0  0  0  0  0
    4.7201    1.8120    1.0142 H   0  0  0  0  0  0  0  0  0  0  0  0
    5.2485    0.1230    1.1043 H   0  0  0  0  0  0  0  0  0  0  0  0
    7.4535    1.7361    1.3092 H   0  0  0  0  0  0  0  0  0  0  0  0
    9.1164    1.0425   -0.4725 H   0  0  0  0  0  0  0  0  0  0  0  0
    0.8437   -2.3748    0.5407 H   0  0  0  0  0  0  0  0  0  0  0  0
    0.9178   -4.7758    0.4802 H   0  0  0  0  0  0  0  0  0  0  0  0
   -1.0589   -6.0706   -0.2381 H   0  0  0  0  0  0  0  0  0  0  0  0
   -3.0813   -4.8812   -0.8783 H   0  0  0  0  0  0  0  0  0  0  0  0
  1  2  1  0
  2  3  1  0
  3  4  2  0
  4  5  1  0
  5  6  2  0
  6  7  1  0
  7  8  2  0
  7  9  1  0
  9 10  2  0
  9 11  1  0
 11 12  1  0
 12 13  1  0
 13 14  1  0
 14 15  1  0
 15 16  1  0
 16 17  1  0
 17 18  2  0
 17 19  1  0
 19 20  1  0
 11 21  1  0
 21 22  2  0
 22 23  1  0
 23 24  2  0
 24 25  1  0
 25 26  2  0
 26 27  1  0
  8  3  1  0
 26 21  1  0
 27  6  1  0
  1 28  1  0
  1 29  1  0
  1 30  1  0
  4 31  1  0
  5 32  1  0
  8 33  1  0
 12 34  1  0
 12 35  1  0
 13 36  1  0
 13 37  1  0
 14 38  1  0
 14 39  1  0
 15 40  1  0
 15 41  1  0
 16 42  1  0
 16 43  1  0
 19 44  1  0
 20 45  1  0
 22 46  1  0
 23 47  1  0
 24 48  1  0
 25 49  1  0
M  END
$$$$
