
     RDKit          3D

 19 18  0  0  0  0  0  0  0  0999 V2000
   -0.9180   -0.7142    0.9536 C   0  0  0  0  0  0  0  0  0  0  0  0
   -0.2335    0.0411   -0.0835 N   0  0  0  0  0  4  0  0  0  0  0  0
   -0.3304    1.4395    0.1808 C   0  0  0  0  0  0  0  0  0  0  0  0
   -1.0179   -0.2060   -1.3006 C   0  0  0  0  0  0  0  0  0  0  0  0
    1.0804   -0.4343   -0.3572 C   0  0  0  0  0  0  0  0  0  0  0  0
    2.0481   -0.2119    0.7245 C   0  0  0  0  0  0  0  0  0  0  0  0
    3.3505   -0.6519    0.5227 O   0  0  0  0  0  1  0  0  0  0  0  0
    1.8615    0.3449    1.8604 O   0  0  0  0  0  0  0  0  0  0  0  0
   -1.7939   -0.0839    1.2462 H   0  0  0  0  0  0  0  0  0  0  0  0
   -0.3006   -0.9558    1.8207 H   0  0  0  0  0  0  0  0  0  0  0  0
   -1.3713   -1.6529    0.5265 H   0  0  0  0  0  0  0  0  0  0  0  0
   -1.3488    1.6231    0.6072 H   0  0  0  0  0  0  0  0  0  0  0  0
   -0.2791    2.0005   -0.7886 H   0  0  0  0  0  0  0  0  0  0  0  0
    0.3791    1.8647    0.8824 H   0  0  0  0  0  0  0  0  0  0  0  0
   -0.8062   -1.2588   -1.5987 H   0  0  0  0  0  0  0  0  0  0  0  0
   -0.6424    0.4072   -2.1610 H   0  0  0  0  0  0  0  0  0  0  0  0
   -2.0938   -0.0743   -1.1379 H   0  0  0  0  0  0  0  0  0  0  0  0
    0.9823   -1.5253   -0.6128 H   0  0  0  0  0  0  0  0  0  0  0  0
    1.4339    0.0481   -1.2847 H   0  0  0  0  0  0  0  0  0  0  0  0
  1  2  1  0
  2  3  1  0
  2  4  1  0
  2  5  1  0
  5  6  1  0
  6  7  1  0
  6  8  2  0
  1  9  1  0
  1 10  1  0
  1 11  1  0
  3 12  1  0
  3 13  1  0
  3 14  1  0
  4 15  1  0
  4 16  1  0
  4 17  1  0
  5 18  1  0
  5 19  1  0
M  CHG  2   2   1   7  -1
M  END
$$$$
