
     RDKit          3D

 23 24  0  0  0  0  0  0  0  0999 V2000
    5.2996   -1.0204   -2.0446 O   0  0  0  0  0  1  0  0  0  0  0  0
    4.9079   -0.8410   -0.7399 N   0  0  0  0  0  4  0  0  0  0  0  0
    5.8682   -1.1224    0.0275 O   0  0  0  0  0  0  0  0  0  0  0  0
    3.6682   -0.4162   -0.1926 C   0  0  0  0  0  0  0  0  0  0  0  0
    3.3532   -0.2606    1.1418 C   0  0  0  0  0  0  0  0  0  0  0  0
    2.0339    0.1677    1.1298 C   0  0  0  0  0  0  0  0  0  0  0  0
    1.6346    0.2440   -0.2102 C   0  0  0  0  0  0  0  0  0  0  0  0
    2.6467   -0.1145   -0.9514 O   0  0  0  0  0  0  0  0  0  0  0  0
    0.2557    0.6843   -0.4087 C   0  0  0  0  0  0  0  0  0  0  0  0
   -0.6098   -0.2276   -0.2182 N   0  0  0  0  0  0  0  0  0  0  0  0
   -2.0033   -0.0053   -0.3597 N   0  0  0  0  0  0  0  0  0  0  0  0
   -2.8966    1.1272   -0.6064 C   0  0  0  0  0  0  0  0  0  0  0  0
   -4.1101    0.7988    0.1850 C   0  0  0  0  0  0  0  0  0  0  0  0
   -4.9657    1.4456    0.8540 O   0  0  0  0  0  0  0  0  0  0  0  0
   -4.2213   -0.6233    0.0814 N   0  0  0  0  0  0  0  0  0  0  0  0
   -2.9180   -1.1142   -0.2550 C   0  0  0  0  0  0  0  0  0  0  0  0
   -2.6738   -2.3542   -0.4217 O   0  0  0  0  0  0  0  0  0  0  0  0
    4.0007   -0.4370    1.9938 H   0  0  0  0  0  0  0  0  0  0  0  0
    1.5399    0.3666    2.0908 H   0  0  0  0  0  0  0  0  0  0  0  0
   -0.0985    1.6662   -0.6901 H   0  0  0  0  0  0  0  0  0  0  0  0
   -2.4501    2.0680   -0.2546 H   0  0  0  0  0  0  0  0  0  0  0  0
   -3.1959    1.1944   -1.6841 H   0  0  0  0  0  0  0  0  0  0  0  0
   -5.0656   -1.2261    0.2161 H   0  0  0  0  0  0  0  0  0  0  0  0
  1  2  1  0
  2  3  2  0
  2  4  1  0
  4  5  2  0
  5  6  1  0
  6  7  2  0
  7  8  1  0
  7  9  1  0
  9 10  2  0
 10 11  1  0
 11 12  1  0
 12 13  1  0
 13 14  2  0
 13 15  1  0
 15 16  1  0
 16 17  2  0
  8  4  1  0
 16 11  1  0
  5 18  1  0
  6 19  1  0
  9 20  1  0
 12 21  1  0
 12 22  1  0
 15 23  1  0
M  CHG  2   1  -1   2   1
M  END
$$$$
