
     RDKit          3D

 54 58  0  0  0  0  0  0  0  0999 V2000
    2.0072   -2.8335   -0.3979 C   0  0  0  0  0  0  0  0  0  0  0  0
    0.9913   -1.7471   -0.2639 C   0  0  2  0  0  0  0  0  0  0  0  0
   -0.3623   -2.4012   -0.1605 C   0  0  0  0  0  0  0  0  0  0  0  0
   -1.1734   -2.2104   -1.4191 C   0  0  0  0  0  0  0  0  0  0  0  0
   -1.3303   -0.6958   -1.6429 C   0  0  1  0  0  0  0  0  0  0  0  0
   -1.9145   -0.0456   -0.6656 O   0  0  0  0  0  0  0  0  0  0  0  0
   -2.4981    0.5925    0.2775 C   0  0  0  0  0  0  0  0  0  0  0  0
   -2.0188    0.7581    1.5793 C   0  0  0  0  0  0  0  0  0  0  0  0
   -2.7125    1.4522    2.5022 C   0  0  0  0  0  0  0  0  0  0  0  0
   -3.8923    2.0262    2.2491 N   0  0  0  0  0  0  0  0  0  0  0  0
   -4.3917    1.8959    1.0202 C   0  0  0  0  0  0  0  0  0  0  0  0
   -5.6292    2.4861    0.7298 C   0  0  0  0  0  0  0  0  0  0  0  0
   -6.3016    3.1798    1.6915 F   0  0  0  0  0  0  0  0  0  0  0  0
   -6.2157    2.3991   -0.5071 C   0  0  0  0  0  0  0  0  0  0  0  0
   -5.5431    1.6985   -1.4857 C   0  0  0  0  0  0  0  0  0  0  0  0
   -4.3256    1.1074   -1.2304 C   0  0  0  0  0  0  0  0  0  0  0  0
   -3.7476    1.2057    0.0259 C   0  0  0  0  0  0  0  0  0  0  0  0
    0.0331   -0.1957   -2.0348 C   0  0  0  0  0  0  0  0  0  0  0  0
    1.0792   -0.6675   -1.1862 N   0  0  0  0  0  0  0  0  0  0  0  0
    2.3256    0.0789   -1.2999 C   0  0  0  0  0  0  0  0  0  0  0  0
    2.3268    1.0478   -2.0907 O   0  0  0  0  0  0  0  0  0  0  0  0
    3.5213   -0.2685   -0.5402 C   0  0  0  0  0  0  0  0  0  0  0  0
    4.4730   -1.0649   -1.1869 C   0  0  0  0  0  0  0  0  0  0  0  0
    5.6257   -1.3713   -0.4956 C   0  0  0  0  0  0  0  0  0  0  0  0
    5.8255   -0.8987    0.8048 C   0  0  0  0  0  0  0  0  0  0  0  0
    4.8715   -0.1187    1.4141 C   0  0  0  0  0  0  0  0  0  0  0  0
    3.6968    0.2002    0.7225 C   0  0  0  0  0  0  0  0  0  0  0  0
    2.6961    1.0105    1.3269 N   0  0  0  0  0  0  0  0  0  0  0  0
    1.6744    1.6610    0.8172 N   0  0  0  0  0  0  0  0  0  0  0  0
    0.9729    2.3260    1.7680 C   0  0  0  0  0  0  0  0  0  0  0  0
    1.6376    2.0430    2.9371 C   0  0  0  0  0  0  0  0  0  0  0  0
    2.6694    1.2504    2.6526 N   0  0  0  0  0  0  0  0  0  0  0  0
    2.3222   -2.9755   -1.4326 H   0  0  0  0  0  0  0  0  0  0  0  0
    1.5150   -3.8115   -0.1018 H   0  0  0  0  0  0  0  0  0  0  0  0
    2.8242   -2.7312    0.3501 H   0  0  0  0  0  0  0  0  0  0  0  0
    1.1675   -1.2889    0.7599 H   0  0  0  0  0  0  0  0  0  0  0  0
   -0.2616   -3.4931   -0.0001 H   0  0  0  0  0  0  0  0  0  0  0  0
   -0.9455   -2.0184    0.7018 H   0  0  0  0  0  0  0  0  0  0  0  0
   -2.1436   -2.6914   -1.2879 H   0  0  0  0  0  0  0  0  0  0  0  0
   -0.6257   -2.5947   -2.2901 H   0  0  0  0  0  0  0  0  0  0  0  0
   -1.9084   -0.6843   -2.6479 H   0  0  0  0  0  0  0  0  0  0  0  0
   -1.0801    0.3072    1.8150 H   0  0  0  0  0  0  0  0  0  0  0  0
   -2.3514    1.5960    3.5407 H   0  0  0  0  0  0  0  0  0  0  0  0
   -7.1866    2.8651   -0.7281 H   0  0  0  0  0  0  0  0  0  0  0  0
   -5.9642    1.5987   -2.4839 H   0  0  0  0  0  0  0  0  0  0  0  0
   -3.7834    0.5526   -1.9908 H   0  0  0  0  0  0  0  0  0  0  0  0
    0.2850   -0.5590   -3.0732 H   0  0  0  0  0  0  0  0  0  0  0  0
   -0.0207    0.9202   -2.0309 H   0  0  0  0  0  0  0  0  0  0  0  0
    4.2851   -1.4127   -2.1956 H   0  0  0  0  0  0  0  0  0  0  0  0
    6.3938   -1.9763   -0.9348 H   0  0  0  0  0  0  0  0  0  0  0  0
    6.7408   -1.1633    1.3116 H   0  0  0  0  0  0  0  0  0  0  0  0
    4.9896    0.2695    2.4302 H   0  0  0  0  0  0  0  0  0  0  0  0
    0.0856    2.9373    1.6200 H   0  0  0  0  0  0  0  0  0  0  0  0
    1.2919    2.4534    3.8976 H   0  0  0  0  0  0  0  0  0  0  0  0
  1  2  1  0
  2  3  1  0
  3  4  1  0
  4  5  1  0
  5  6  1  0
  6  7  1  0
  7  8  2  0
  8  9  1  0
  9 10  2  0
 10 11  1  0
 11 12  2  0
 12 13  1  0
 12 14  1  0
 14 15  2  0
 15 16  1  0
 16 17  2  0
  5 18  1  0
 18 19  1  0
 19 20  1  0
 20 21  2  0
 20 22  1  0
 22 23  2  0
 23 24  1  0
 24 25  2  0
 25 26  1  0
 26 27  2  0
 27 28  1  0
 28 29  1  0
 29 30  2  0
 30 31  1  0
 31 32  2  0
 19  2  1  0
 27 22  1  0
 32 28  1  0
 17  7  1  0
 17 11  1  0
  1 33  1  0
  1 34  1  0
  1 35  1  0
  2 36  1  1
  3 37  1  0
  3 38  1  0
  4 39  1  0
  4 40  1  0
  5 41  1  6
  8 42  1  0
  9 43  1  0
 14 44  1  0
 15 45  1  0
 16 46  1  0
 18 47  1  0
 18 48  1  0
 23 49  1  0
 24 50  1  0
 25 51  1  0
 26 52  1  0
 30 53  1  0
 31 54  1  0
M  END
$$$$
