
     RDKit          3D

 52 55  0  0  0  0  0  0  0  0999 V2000
   -4.3646   -1.4008    3.0858 C   0  0  0  0  0  0  0  0  0  0  0  0
   -5.5975   -1.1581    2.5507 O   0  0  0  0  0  0  0  0  0  0  0  0
   -5.6396   -0.8503    1.2120 C   0  0  0  0  0  0  0  0  0  0  0  0
   -4.9478    0.3334    0.7620 C   0  0  2  0  0  0  0  0  0  0  0  0
   -5.3313    0.8576   -0.5974 C   0  0  0  0  0  0  0  0  0  0  0  0
   -4.2943    1.9506   -0.8590 C   0  0  0  0  0  0  0  0  0  0  0  0
   -3.3597    1.8716    0.3348 C   0  0  0  0  0  0  0  0  0  0  0  0
   -3.5229    0.4753    0.8428 N   0  0  0  0  0  0  0  0  0  0  0  0
   -2.6409   -0.5748   -0.2003 S   0  0  0  0  0  6  0  0  0  0  0  0
   -2.7256   -1.9987    0.2302 O   0  0  0  0  0  0  0  0  0  0  0  0
   -3.0520   -0.4154   -1.6519 O   0  0  0  0  0  0  0  0  0  0  0  0
   -0.9523   -0.1206   -0.1283 C   0  0  0  0  0  0  0  0  0  0  0  0
   -0.0768   -0.6215    0.8123 C   0  0  0  0  0  0  0  0  0  0  0  0
    1.2587   -0.2448    0.8422 C   0  0  0  0  0  0  0  0  0  0  0  0
    1.7295    0.6510   -0.0871 C   0  0  0  0  0  0  0  0  0  0  0  0
    0.8749    1.1725   -1.0455 C   0  0  0  0  0  0  0  0  0  0  0  0
   -0.4533    0.7747   -1.0467 C   0  0  0  0  0  0  0  0  0  0  0  0
    1.6193    2.0928   -1.9037 C   0  0  0  0  0  0  0  0  0  0  0  0
    1.1613    2.7453   -2.8767 O   0  0  0  0  0  0  0  0  0  0  0  0
    2.9705    2.0949   -1.4064 C   0  0  0  0  0  0  0  0  0  0  0  0
    3.9200    2.7716   -1.8887 O   0  0  0  0  0  0  0  0  0  0  0  0
    3.0391    1.2017   -0.2810 N   0  0  0  0  0  0  0  0  0  0  0  0
    4.2531    0.9723    0.4508 C   0  0  0  0  0  0  0  0  0  0  0  0
    5.0177   -0.1594   -0.1306 C   0  0  0  0  0  0  0  0  0  0  0  0
    5.9559    0.0412   -1.1210 C   0  0  0  0  0  0  0  0  0  0  0  0
    6.6707   -1.0120   -1.6652 C   0  0  0  0  0  0  0  0  0  0  0  0
    6.4254   -2.2944   -1.1917 C   0  0  0  0  0  0  0  0  0  0  0  0
    7.1207   -3.4047   -1.7060 O   0  0  0  0  0  0  0  0  0  0  0  0
    5.4927   -2.5259   -0.2014 C   0  0  0  0  0  0  0  0  0  0  0  0
    4.7902   -1.4400    0.3246 C   0  0  0  0  0  0  0  0  0  0  0  0
   -4.4181   -1.6109    4.1893 H   0  0  0  0  0  0  0  0  0  0  0  0
   -3.8660   -2.2833    2.5878 H   0  0  0  0  0  0  0  0  0  0  0  0
   -3.7143   -0.5273    2.9426 H   0  0  0  0  0  0  0  0  0  0  0  0
   -6.7533   -0.7447    0.9782 H   0  0  0  0  0  0  0  0  0  0  0  0
   -5.3848   -1.7996    0.6729 H   0  0  0  0  0  0  0  0  0  0  0  0
   -5.3162    1.1903    1.4654 H   0  0  0  0  0  0  0  0  0  0  0  0
   -6.3600    1.2872   -0.6203 H   0  0  0  0  0  0  0  0  0  0  0  0
   -5.2956    0.0647   -1.3515 H   0  0  0  0  0  0  0  0  0  0  0  0
   -3.7897    1.7817   -1.8147 H   0  0  0  0  0  0  0  0  0  0  0  0
   -4.8235    2.9116   -0.9197 H   0  0  0  0  0  0  0  0  0  0  0  0
   -3.7307    2.5578    1.1140 H   0  0  0  0  0  0  0  0  0  0  0  0
   -2.3178    2.0429    0.0495 H   0  0  0  0  0  0  0  0  0  0  0  0
   -0.4810   -1.3242    1.5283 H   0  0  0  0  0  0  0  0  0  0  0  0
    1.9376   -0.6591    1.6036 H   0  0  0  0  0  0  0  0  0  0  0  0
   -1.0827    1.1930   -1.8003 H   0  0  0  0  0  0  0  0  0  0  0  0
    4.0764    0.8217    1.5392 H   0  0  0  0  0  0  0  0  0  0  0  0
    4.9189    1.8712    0.3873 H   0  0  0  0  0  0  0  0  0  0  0  0
    6.1665    1.0467   -1.5110 H   0  0  0  0  0  0  0  0  0  0  0  0
    7.4099   -0.8707   -2.4427 H   0  0  0  0  0  0  0  0  0  0  0  0
    8.1000   -3.5501   -1.5076 H   0  0  0  0  0  0  0  0  0  0  0  0
    5.3189   -3.5346    0.1515 H   0  0  0  0  0  0  0  0  0  0  0  0
    4.0643   -1.6496    1.1005 H   0  0  0  0  0  0  0  0  0  0  0  0
  1  2  1  0
  2  3  1  0
  3  4  1  0
  4  5  1  0
  5  6  1  0
  6  7  1  0
  7  8  1  0
  8  9  1  0
  9 10  2  0
  9 11  2  0
  9 12  1  0
 12 13  2  0
 13 14  1  0
 14 15  2  0
 15 16  1  0
 16 17  2  0
 16 18  1  0
 18 19  2  0
 18 20  1  0
 20 21  2  0
 20 22  1  0
 22 23  1  0
 23 24  1  0
 24 25  2  0
 25 26  1  0
 26 27  2  0
 27 28  1  0
 27 29  1  0
 29 30  2  0
  8  4  1  0
 17 12  1  0
 30 24  1  0
 22 15  1  0
  1 31  1  0
  1 32  1  0
  1 33  1  0
  3 34  1  0
  3 35  1  0
  4 36  1  1
  5 37  1  0
  5 38  1  0
  6 39  1  0
  6 40  1  0
  7 41  1  0
  7 42  1  0
 13 43  1  0
 14 44  1  0
 17 45  1  0
 23 46  1  0
 23 47  1  0
 25 48  1  0
 26 49  1  0
 28 50  1  0
 29 51  1  0
 30 52  1  0
M  END
$$$$
