
     RDKit          3D

 62 61  0  0  0  0  0  0  0  0999 V2000
   -9.4997    0.2190   -1.6506 C   0  0  0  0  0  0  0  0  0  0  0  0
   -8.8881   -1.1540   -1.5056 C   0  0  0  0  0  0  0  0  0  0  0  0
   -7.5417   -1.0947   -0.8107 C   0  0  0  0  0  0  0  0  0  0  0  0
   -7.6369   -0.5155    0.5621 C   0  0  0  0  0  0  0  0  0  0  0  0
   -6.2453   -0.4963    1.1877 C   0  0  0  0  0  0  0  0  0  0  0  0
   -5.2544    0.3117    0.4348 C   0  0  0  0  0  0  0  0  0  0  0  0
   -3.8873    0.3017    1.1516 C   0  0  0  0  0  0  0  0  0  0  0  0
   -3.3093   -1.0581    1.2938 C   0  0  0  0  0  0  0  0  0  0  0  0
   -2.1333   -1.2157    1.8812 O   0  0  0  0  0  0  0  0  0  0  0  0
   -0.9650   -0.8703    1.3842 C   0  0  0  0  0  0  0  0  0  0  0  0
   -0.7379    0.5321    0.9881 C   0  0  0  0  0  0  0  0  0  0  0  0
    0.5795    0.7520    0.5157 O   0  0  0  0  0  0  0  0  0  0  0  0
    0.9039    0.0015   -0.5846 C   0  0  0  0  0  0  0  0  0  0  0  0
    2.3574    0.4034   -0.9344 C   0  0  0  0  0  0  0  0  0  0  0  0
    3.0949    0.0930    0.1631 O   0  0  0  0  0  0  0  0  0  0  0  0
    4.4658    0.3399    0.0950 C   0  0  0  0  0  0  0  0  0  0  0  0
    4.7308    1.7808   -0.1166 C   0  0  0  0  0  0  0  0  0  0  0  0
    5.9336    2.2910   -0.2024 O   0  0  0  0  0  0  0  0  0  0  0  0
    6.9362    2.1491   -1.0222 C   0  0  0  0  0  0  0  0  0  0  0  0
    7.5342    0.7654   -1.1034 C   0  0  0  0  0  0  0  0  0  0  0  0
    7.9824    0.3846    0.1379 O   0  0  0  0  0  0  0  0  0  0  0  0
    8.5463   -0.8584    0.2290 C   0  0  0  0  0  0  0  0  0  0  0  0
    9.7592   -0.9885   -0.6657 C   0  0  0  0  0  0  0  0  0  0  0  0
   10.7306   -0.0437   -0.3063 O   0  0  0  0  0  0  0  0  0  0  0  0
  -10.3622    0.3100   -0.9882 H   0  0  0  0  0  0  0  0  0  0  0  0
   -9.8418    0.4080   -2.6976 H   0  0  0  0  0  0  0  0  0  0  0  0
   -8.7408    1.0304   -1.4624 H   0  0  0  0  0  0  0  0  0  0  0  0
   -9.5410   -1.8758   -1.0062 H   0  0  0  0  0  0  0  0  0  0  0  0
   -8.6883   -1.5271   -2.5366 H   0  0  0  0  0  0  0  0  0  0  0  0
   -7.2152   -2.1525   -0.7022 H   0  0  0  0  0  0  0  0  0  0  0  0
   -6.8183   -0.5982   -1.4581 H   0  0  0  0  0  0  0  0  0  0  0  0
   -8.2425   -1.1487    1.2422 H   0  0  0  0  0  0  0  0  0  0  0  0
   -8.0830    0.4966    0.5851 H   0  0  0  0  0  0  0  0  0  0  0  0
   -6.2604   -0.2261    2.2569 H   0  0  0  0  0  0  0  0  0  0  0  0
   -5.8874   -1.5693    1.1470 H   0  0  0  0  0  0  0  0  0  0  0  0
   -5.5247    1.3817    0.3357 H   0  0  0  0  0  0  0  0  0  0  0  0
   -5.0671   -0.0896   -0.5868 H   0  0  0  0  0  0  0  0  0  0  0  0
   -3.3159    1.0697    0.6387 H   0  0  0  0  0  0  0  0  0  0  0  0
   -4.0750    0.7089    2.1929 H   0  0  0  0  0  0  0  0  0  0  0  0
   -3.3913   -1.5830    0.2848 H   0  0  0  0  0  0  0  0  0  0  0  0
   -4.0747   -1.6894    1.8957 H   0  0  0  0  0  0  0  0  0  0  0  0
   -0.8071   -1.5299    0.4373 H   0  0  0  0  0  0  0  0  0  0  0  0
   -0.0907   -1.1624    2.0696 H   0  0  0  0  0  0  0  0  0  0  0  0
   -1.3195    0.7505    0.0290 H   0  0  0  0  0  0  0  0  0  0  0  0
   -0.9207    1.2422    1.7880 H   0  0  0  0  0  0  0  0  0  0  0  0
    0.2328    0.1464   -1.4451 H   0  0  0  0  0  0  0  0  0  0  0  0
    0.9897   -1.1051   -0.3697 H   0  0  0  0  0  0  0  0  0  0  0  0
    2.6161   -0.1953   -1.8415 H   0  0  0  0  0  0  0  0  0  0  0  0
    2.3079    1.4430   -1.2509 H   0  0  0  0  0  0  0  0  0  0  0  0
    4.8781   -0.3747   -0.6102 H   0  0  0  0  0  0  0  0  0  0  0  0
    4.8473    0.0639    1.1210 H   0  0  0  0  0  0  0  0  0  0  0  0
    4.1000    2.1957   -0.9744 H   0  0  0  0  0  0  0  0  0  0  0  0
    4.2046    2.3005    0.7695 H   0  0  0  0  0  0  0  0  0  0  0  0
    6.7785    2.5607   -2.0700 H   0  0  0  0  0  0  0  0  0  0  0  0
    7.7962    2.8335   -0.6747 H   0  0  0  0  0  0  0  0  0  0  0  0
    8.3959    0.7907   -1.8487 H   0  0  0  0  0  0  0  0  0  0  0  0
    6.8621    0.0115   -1.5105 H   0  0  0  0  0  0  0  0  0  0  0  0
    8.9132   -0.9826    1.2873 H   0  0  0  0  0  0  0  0  0  0  0  0
    7.8299   -1.6777    0.0507 H   0  0  0  0  0  0  0  0  0  0  0  0
    9.4746   -0.9107   -1.7342 H   0  0  0  0  0  0  0  0  0  0  0  0
   10.2528   -1.9752   -0.4841 H   0  0  0  0  0  0  0  0  0  0  0  0
   10.3319    0.5991    0.3199 H   0  0  0  0  0  0  0  0  0  0  0  0
  1  2  1  0
  2  3  1  0
  3  4  1  0
  4  5  1  0
  5  6  1  0
  6  7  1  0
  7  8  1  0
  8  9  1  0
  9 10  1  0
 10 11  1  0
 11 12  1  0
 12 13  1  0
 13 14  1  0
 14 15  1  0
 15 16  1  0
 16 17  1  0
 17 18  1  0
 18 19  1  0
 19 20  1  0
 20 21  1  0
 21 22  1  0
 22 23  1  0
 23 24  1  0
  1 25  1  0
  1 26  1  0
  1 27  1  0
  2 28  1  0
  2 29  1  0
  3 30  1  0
  3 31  1  0
  4 32  1  0
  4 33  1  0
  5 34  1  0
  5 35  1  0
  6 36  1  0
  6 37  1  0
  7 38  1  0
  7 39  1  0
  8 40  1  0
  8 41  1  0
 10 42  1  0
 10 43  1  0
 11 44  1  0
 11 45  1  0
 13 46  1  0
 13 47  1  0
 14 48  1  0
 14 49  1  0
 16 50  1  0
 16 51  1  0
 17 52  1  0
 17 53  1  0
 19 54  1  0
 19 55  1  0
 20 56  1  0
 20 57  1  0
 22 58  1  0
 22 59  1  0
 23 60  1  0
 23 61  1  0
 24 62  1  0
M  END
$$$$
