
     RDKit          3D

 37 40  0  0  0  0  0  0  0  0999 V2000
   -0.3614   -1.3196   -0.1899 O   0  0  0  0  0  0  0  0  0  0  0  0
   -0.0859   -0.3326    0.5190 C   0  0  0  0  0  0  0  0  0  0  0  0
   -1.0795    0.4023    1.3391 C   0  0  0  0  0  0  0  0  0  0  0  0
   -2.4369   -0.1672    1.2080 C   0  0  0  0  0  0  0  0  0  0  0  0
   -3.0180   -0.9473    2.1915 C   0  0  0  0  0  0  0  0  0  0  0  0
   -4.2843   -1.4581    2.0345 C   0  0  0  0  0  0  0  0  0  0  0  0
   -4.9855   -1.1884    0.8782 C   0  0  0  0  0  0  0  0  0  0  0  0
   -4.4299   -0.4027   -0.1394 C   0  0  0  0  0  0  0  0  0  0  0  0
   -5.1451   -0.1588   -1.2595 N   0  0  0  0  0  0  0  0  0  0  0  0
   -4.6584    0.5880   -2.2658 C   0  0  0  0  0  0  0  0  0  0  0  0
   -3.3897    1.1042   -2.1170 C   0  0  0  0  0  0  0  0  0  0  0  0
   -2.6430    0.8670   -0.9812 C   0  0  0  0  0  0  0  0  0  0  0  0
   -3.1530    0.0910    0.0607 C   0  0  0  0  0  0  0  0  0  0  0  0
    1.2659    0.1288    0.5516 N   0  0  0  0  0  0  0  0  0  0  0  0
    2.2297   -0.5755   -0.2361 C   0  0  0  0  0  0  0  0  0  0  0  0
    1.8533   -2.0168   -1.2393 S   0  0  0  0  0  0  0  0  0  0  0  0
    3.5306   -2.2796   -1.8764 C   0  0  0  0  0  0  0  0  0  0  0  0
    4.2034   -1.2456   -1.2617 C   0  0  0  0  0  0  0  0  0  0  0  0
    6.1171   -1.1418   -1.6810 Br  0  0  0  0  0  0  0  0  0  0  0  0
    3.5880   -0.3890   -0.4473 C   0  0  0  0  0  0  0  0  0  0  0  0
    4.2225    0.7643    0.2624 C   0  0  0  0  0  0  0  0  0  0  0  0
    3.6266    1.6375    1.0785 N   0  0  0  0  0  0  0  0  0  0  0  0
    4.4932    2.5257    1.5264 N   0  0  0  0  0  0  0  0  0  0  0  0
    5.6760    2.2395    1.0030 C   0  0  0  0  0  0  0  0  0  0  0  0
    5.4901    1.1299    0.2106 N   0  0  0  0  0  0  0  0  0  0  0  0
   -1.0537    1.4591    1.0587 H   0  0  0  0  0  0  0  0  0  0  0  0
   -0.7178    0.2974    2.4008 H   0  0  0  0  0  0  0  0  0  0  0  0
   -2.4661   -1.1566    3.0955 H   0  0  0  0  0  0  0  0  0  0  0  0
   -4.7417   -2.0657    2.7981 H   0  0  0  0  0  0  0  0  0  0  0  0
   -5.9832   -1.5802    0.7343 H   0  0  0  0  0  0  0  0  0  0  0  0
   -5.2293    0.7909   -3.1753 H   0  0  0  0  0  0  0  0  0  0  0  0
   -3.0045    1.7058   -2.9330 H   0  0  0  0  0  0  0  0  0  0  0  0
   -1.6377    1.2834   -0.8785 H   0  0  0  0  0  0  0  0  0  0  0  0
    1.5076    0.9475    1.1358 H   0  0  0  0  0  0  0  0  0  0  0  0
    3.7977   -3.0431   -2.5293 H   0  0  0  0  0  0  0  0  0  0  0  0
    6.5950    2.7558    1.1557 H   0  0  0  0  0  0  0  0  0  0  0  0
    6.3076    0.7505   -0.2890 H   0  0  0  0  0  0  0  0  0  0  0  0
  1  2  2  0
  2  3  1  0
  3  4  1  0
  4  5  2  0
  5  6  1  0
  6  7  2  0
  7  8  1  0
  8  9  2  0
  9 10  1  0
 10 11  2  0
 11 12  1  0
 12 13  2  0
  2 14  1  0
 14 15  1  0
 15 16  1  0
 16 17  1  0
 17 18  2  0
 18 19  1  0
 18 20  1  0
 20 21  1  0
 21 22  2  0
 22 23  1  0
 23 24  2  0
 24 25  1  0
 13  4  1  0
 20 15  2  0
 25 21  1  0
 13  8  1  0
  3 26  1  0
  3 27  1  0
  5 28  1  0
  6 29  1  0
  7 30  1  0
 10 31  1  0
 11 32  1  0
 12 33  1  0
 14 34  1  0
 17 35  1  0
 24 36  1  0
 25 37  1  0
M  END
$$$$
