
     RDKit          3D

 52 55  0  0  0  0  0  0  0  0999 V2000
   -4.6578    0.3482   -0.5545 C   0  0  1  0  0  0  0  0  0  0  0  0
   -6.0893   -0.0367   -0.7759 C   0  0  0  0  0  0  0  0  0  0  0  0
   -4.4564    1.7513   -0.0669 C   0  0  0  0  0  0  0  0  0  0  0  0
   -5.1753    1.9687    1.2298 C   0  0  0  0  0  0  0  0  0  0  0  0
   -5.4920    0.7024    1.9588 C   0  0  0  0  0  0  0  0  0  0  0  0
   -4.4141   -0.3240    1.8422 C   0  0  0  0  0  0  0  0  0  0  0  0
   -3.9455   -0.5795    0.4257 C   0  0  2  0  0  0  0  0  0  0  0  0
   -2.5782   -0.2942    0.3715 O   0  0  0  0  0  0  0  0  0  0  0  0
   -1.6515   -1.2037   -0.0609 C   0  0  0  0  0  0  0  0  0  0  0  0
   -0.3366   -0.7231   -0.0390 C   0  0  0  0  0  0  0  0  0  0  0  0
   -0.0690    0.5697    0.3942 O   0  0  0  0  0  0  0  0  0  0  0  0
    0.7543   -1.4678   -0.4311 C   0  0  0  0  0  0  0  0  0  0  0  0
    0.4888   -2.7672   -0.8669 C   0  0  0  0  0  0  0  0  0  0  0  0
   -0.7744   -3.3046   -0.9151 C   0  0  0  0  0  0  0  0  0  0  0  0
   -1.8077   -2.4938   -0.5060 C   0  0  0  0  0  0  0  0  0  0  0  0
    2.1435   -1.0358   -0.4351 C   0  0  0  0  0  0  0  0  0  0  0  0
    2.6797    0.1742   -0.0622 C   0  0  0  0  0  0  0  0  0  0  0  0
    4.0518    0.2011   -0.2096 C   0  0  0  0  0  0  0  0  0  0  0  0
    5.0322    1.1521    0.0195 C   0  0  0  0  0  0  0  0  0  0  0  0
    6.3296    0.7785   -0.2632 C   0  0  0  0  0  0  0  0  0  0  0  0
    7.3476    1.8067   -0.0107 C   0  0  0  0  0  0  0  0  0  0  0  0
    7.0378    3.1977   -0.1302 N   0  0  0  0  0  0  0  0  0  0  0  0
    8.5873    1.7484    0.3296 N   0  0  0  0  0  0  0  0  0  0  0  0
    6.6591   -0.4697   -0.7489 C   0  0  0  0  0  0  0  0  0  0  0  0
    7.9682   -0.6959   -0.9799 F   0  0  0  0  0  0  0  0  0  0  0  0
    5.6504   -1.3882   -0.9631 C   0  0  0  0  0  0  0  0  0  0  0  0
    4.3323   -1.0594   -0.6941 C   0  0  0  0  0  0  0  0  0  0  0  0
    3.2148   -1.7850   -0.8266 N   0  0  0  0  0  0  0  0  0  0  0  0
   -4.1264    0.2657   -1.5297 H   0  0  0  0  0  0  0  0  0  0  0  0
   -6.2800   -0.3181   -1.8530 H   0  0  0  0  0  0  0  0  0  0  0  0
   -6.8105    0.7642   -0.5679 H   0  0  0  0  0  0  0  0  0  0  0  0
   -6.3156   -0.9982   -0.2283 H   0  0  0  0  0  0  0  0  0  0  0  0
   -3.3717    1.8761    0.1086 H   0  0  0  0  0  0  0  0  0  0  0  0
   -4.7421    2.5091   -0.8250 H   0  0  0  0  0  0  0  0  0  0  0  0
   -4.5638    2.6706    1.8539 H   0  0  0  0  0  0  0  0  0  0  0  0
   -6.1104    2.5408    0.9781 H   0  0  0  0  0  0  0  0  0  0  0  0
   -5.5225    0.9831    3.0531 H   0  0  0  0  0  0  0  0  0  0  0  0
   -6.5255    0.3116    1.7718 H   0  0  0  0  0  0  0  0  0  0  0  0
   -3.5818   -0.0274    2.5056 H   0  0  0  0  0  0  0  0  0  0  0  0
   -4.7841   -1.2934    2.2324 H   0  0  0  0  0  0  0  0  0  0  0  0
   -4.1558   -1.5924    0.0869 H   0  0  0  0  0  0  0  0  0  0  0  0
   -0.2031    1.3888   -0.1661 H   0  0  0  0  0  0  0  0  0  0  0  0
    1.2849   -3.4468   -1.2019 H   0  0  0  0  0  0  0  0  0  0  0  0
   -0.9591   -4.2979   -1.2504 H   0  0  0  0  0  0  0  0  0  0  0  0
   -2.7944   -2.8802   -0.5316 H   0  0  0  0  0  0  0  0  0  0  0  0
    2.1637    1.0453    0.3096 H   0  0  0  0  0  0  0  0  0  0  0  0
    4.7358    2.1148    0.3989 H   0  0  0  0  0  0  0  0  0  0  0  0
    7.1176    4.0738   -0.6764 H   0  0  0  0  0  0  0  0  0  0  0  0
    6.4836    3.8114    0.5325 H   0  0  0  0  0  0  0  0  0  0  0  0
    9.1050    0.8695    0.4931 H   0  0  0  0  0  0  0  0  0  0  0  0
    5.9212   -2.3637   -1.3442 H   0  0  0  0  0  0  0  0  0  0  0  0
    3.2054   -2.7772   -1.1817 H   0  0  0  0  0  0  0  0  0  0  0  0
  1  2  1  0
  1  3  1  0
  3  4  1  0
  4  5  1  0
  5  6  1  0
  6  7  1  0
  7  8  1  0
  8  9  1  0
  9 10  2  0
 10 11  1  0
 10 12  1  0
 12 13  2  0
 13 14  1  0
 14 15  2  0
 12 16  1  0
 16 17  2  0
 17 18  1  0
 18 19  2  0
 19 20  1  0
 20 21  1  0
 21 22  1  0
 21 23  2  3
 20 24  2  0
 24 25  1  0
 24 26  1  0
 26 27  2  0
 27 28  1  0
  7  1  1  0
 15  9  1  0
 28 16  1  0
 27 18  1  0
  1 29  1  6
  2 30  1  0
  2 31  1  0
  2 32  1  0
  3 33  1  0
  3 34  1  0
  4 35  1  0
  4 36  1  0
  5 37  1  0
  5 38  1  0
  6 39  1  0
  6 40  1  0
  7 41  1  6
 11 42  1  0
 13 43  1  0
 14 44  1  0
 15 45  1  0
 17 46  1  0
 19 47  1  0
 22 48  1  0
 22 49  1  0
 23 50  1  0
 26 51  1  0
 28 52  1  0
M  END
$$$$
