
     RDKit          3D

 72 76  0  0  0  0  0  0  0  0999 V2000
   -6.5834    3.5564    0.2784 C   0  0  0  0  0  0  0  0  0  0  0  0
   -6.7693    2.0963   -0.0537 C   0  0  0  0  0  0  0  0  0  0  0  0
   -7.9874    1.5721    0.0551 N   0  0  0  0  0  0  0  0  0  0  0  0
   -8.2363    0.2899   -0.2182 C   0  0  0  0  0  0  0  0  0  0  0  0
   -9.5610   -0.2649   -0.0967 N   0  0  0  0  0  0  0  0  0  0  0  0
   -7.1738   -0.4754   -0.6198 C   0  0  0  0  0  0  0  0  0  0  0  0
   -5.8704    0.0318   -0.7489 C   0  0  0  0  0  0  0  0  0  0  0  0
   -5.6391    1.3608   -0.4619 C   0  0  0  0  0  0  0  0  0  0  0  0
   -4.3749    2.0740   -0.5660 C   0  0  0  0  0  0  0  0  0  0  0  0
   -3.3562    1.6036    0.4155 N   0  0  0  0  0  0  0  0  0  0  0  0
   -2.0277    1.9745    0.3171 C   0  0  0  0  0  0  0  0  0  0  0  0
   -1.9970    2.7959   -0.7279 O   0  0  0  0  0  0  0  0  0  0  0  0
   -0.7301    1.7388    0.9695 C   0  0  0  0  0  0  0  0  0  0  0  0
    0.2363    2.7703    1.0796 C   0  0  0  0  0  0  0  0  0  0  0  0
    1.2843    2.1950    1.6098 N   0  0  0  0  0  0  0  0  0  0  0  0
    1.0500    0.8746    1.8433 N   0  0  0  0  0  0  0  0  0  0  0  0
   -0.1793    0.5638    1.4658 C   0  0  0  0  0  0  0  0  0  0  0  0
    2.1775    0.0963    2.3875 C   0  0  0  0  0  0  0  0  0  0  0  0
    3.2816    0.1283    1.3633 C   0  0  0  0  0  0  0  0  0  0  0  0
    3.8633    1.3356    1.0610 C   0  0  0  0  0  0  0  0  0  0  0  0
    4.8687    1.4836    0.1330 C   0  0  0  0  0  0  0  0  0  0  0  0
    5.3404    0.3910   -0.5443 C   0  0  0  0  0  0  0  0  0  0  0  0
    6.4404    0.5241   -1.5671 C   0  0  0  0  0  0  0  0  0  0  0  0
    7.7459    0.3729   -0.9604 N   0  0  0  0  0  0  0  0  0  0  0  0
    8.4440    1.3981   -0.4663 C   0  0  0  0  0  0  0  0  0  0  0  0
    9.6217    0.9072    0.0268 C   0  0  0  0  0  0  0  0  0  0  0  0
    9.5875   -0.4492   -0.1976 C   0  0  0  0  0  0  0  0  0  0  0  0
    8.4265   -0.7277   -0.8006 N   0  0  0  0  0  0  0  0  0  0  0  0
    4.7738   -0.8259   -0.2562 C   0  0  0  0  0  0  0  0  0  0  0  0
    3.7438   -1.0197    0.6863 C   0  0  0  0  0  0  0  0  0  0  0  0
    3.2909   -2.2343    0.8747 O   0  0  0  0  0  0  0  0  0  0  0  0
    2.7526   -3.3998    1.0865 C   0  0  0  0  0  0  0  0  0  0  0  0
    1.5139   -3.7953    0.2207 C   0  0  0  0  0  0  0  0  0  0  0  0
    0.5304   -2.6862    0.5619 C   0  0  0  0  0  0  0  0  0  0  0  0
   -0.8204   -2.8533   -0.0507 C   0  0  0  0  0  0  0  0  0  0  0  0
   -1.5570   -2.1784   -0.8501 C   0  0  0  0  0  0  0  0  0  0  0  0
   -2.9361   -2.3333   -1.4722 C   0  0  0  0  0  0  0  0  0  0  0  0
   -3.6324   -1.0594   -0.8738 C   0  0  0  0  0  0  0  0  0  0  0  0
   -4.9535   -0.9187   -1.1631 O   0  0  0  0  0  0  0  0  0  0  0  0
   -5.8341    3.5776    1.0944 H   0  0  0  0  0  0  0  0  0  0  0  0
   -7.5139    3.9596    0.6963 H   0  0  0  0  0  0  0  0  0  0  0  0
   -6.3221    4.1489   -0.5996 H   0  0  0  0  0  0  0  0  0  0  0  0
  -10.0073   -0.5809   -0.9789 H   0  0  0  0  0  0  0  0  0  0  0  0
  -10.0618   -0.3565    0.7937 H   0  0  0  0  0  0  0  0  0  0  0  0
   -7.4253   -1.5155   -0.8364 H   0  0  0  0  0  0  0  0  0  0  0  0
   -4.5482    3.1580   -0.4295 H   0  0  0  0  0  0  0  0  0  0  0  0
   -3.9048    1.9785   -1.5619 H   0  0  0  0  0  0  0  0  0  0  0  0
   -3.7944    1.0247    1.1170 H   0  0  0  0  0  0  0  0  0  0  0  0
    0.1367    3.8275    0.7880 H   0  0  0  0  0  0  0  0  0  0  0  0
   -0.7111   -0.4533    1.5489 H   0  0  0  0  0  0  0  0  0  0  0  0
    2.6351    0.6813    3.2727 H   0  0  0  0  0  0  0  0  0  0  0  0
    2.0161   -0.8553    2.8131 H   0  0  0  0  0  0  0  0  0  0  0  0
    3.5373    2.2518    1.5895 H   0  0  0  0  0  0  0  0  0  0  0  0
    5.3098    2.4468   -0.0874 H   0  0  0  0  0  0  0  0  0  0  0  0
    6.2389   -0.2358   -2.3395 H   0  0  0  0  0  0  0  0  0  0  0  0
    6.4149    1.5071   -2.0759 H   0  0  0  0  0  0  0  0  0  0  0  0
    8.1523    2.4476   -0.4462 H   0  0  0  0  0  0  0  0  0  0  0  0
   10.3873    1.5131    0.4892 H   0  0  0  0  0  0  0  0  0  0  0  0
   10.3747   -1.1400    0.0764 H   0  0  0  0  0  0  0  0  0  0  0  0
    5.2180   -1.6388   -0.8475 H   0  0  0  0  0  0  0  0  0  0  0  0
    3.4847   -4.2255    0.7778 H   0  0  0  0  0  0  0  0  0  0  0  0
    2.5280   -3.7056    2.1484 H   0  0  0  0  0  0  0  0  0  0  0  0
    1.1644   -4.7954    0.4723 H   0  0  0  0  0  0  0  0  0  0  0  0
    1.8151   -3.6802   -0.8379 H   0  0  0  0  0  0  0  0  0  0  0  0
    0.4169   -2.7917    1.7154 H   0  0  0  0  0  0  0  0  0  0  0  0
    1.0821   -1.7681    0.4894 H   0  0  0  0  0  0  0  0  0  0  0  0
   -1.1012   -3.8890    0.4062 H   0  0  0  0  0  0  0  0  0  0  0  0
   -1.2679   -1.1701   -1.3545 H   0  0  0  0  0  0  0  0  0  0  0  0
   -3.5835   -3.1174   -1.2605 H   0  0  0  0  0  0  0  0  0  0  0  0
   -2.8819   -2.2175   -2.5940 H   0  0  0  0  0  0  0  0  0  0  0  0
   -3.0939   -0.1970   -1.3842 H   0  0  0  0  0  0  0  0  0  0  0  0
   -3.4488   -1.1022    0.2128 H   0  0  0  0  0  0  0  0  0  0  0  0
  1  2  1  0
  2  3  2  0
  3  4  1  0
  4  5  1  0
  4  6  2  0
  6  7  1  0
  7  8  2  0
  8  9  1  0
  9 10  1  0
 10 11  1  0
 11 12  2  0
 11 13  1  0
 13 14  1  0
 14 15  2  0
 15 16  1  0
 16 17  1  0
 16 18  1  0
 18 19  1  0
 19 20  2  0
 20 21  1  0
 21 22  2  0
 22 23  1  0
 23 24  1  0
 24 25  1  0
 25 26  2  0
 26 27  1  0
 27 28  2  0
 22 29  1  0
 29 30  2  0
 30 31  1  0
 31 32  1  0
 32 33  1  0
 33 34  1  0
 34 35  1  0
 35 36  2  0
 36 37  1  0
 37 38  1  0
 38 39  1  0
  8  2  1  0
 17 13  2  0
 30 19  1  0
 39  7  1  0
 28 24  1  0
  1 40  1  0
  1 41  1  0
  1 42  1  0
  5 43  1  0
  5 44  1  0
  6 45  1  0
  9 46  1  0
  9 47  1  0
 10 48  1  0
 14 49  1  0
 17 50  1  0
 18 51  1  0
 18 52  1  0
 20 53  1  0
 21 54  1  0
 23 55  1  0
 23 56  1  0
 25 57  1  0
 26 58  1  0
 27 59  1  0
 29 60  1  0
 32 61  1  0
 32 62  1  0
 33 63  1  0
 33 64  1  0
 34 65  1  0
 34 66  1  0
 35 67  1  0
 36 68  1  0
 37 69  1  0
 37 70  1  0
 38 71  1  0
 38 72  1  0
M  END
$$$$
