
     RDKit          3D

 49 51  0  0  0  0  0  0  0  0999 V2000
    6.6996    1.2396    2.2386 C   0  0  0  0  0  0  0  0  0  0  0  0
    5.6583    0.2195    2.6746 C   0  0  0  0  0  0  0  0  0  0  0  0
    4.7040    0.0066    1.6287 O   0  0  0  0  0  0  0  0  0  0  0  0
    5.0632   -0.4578    0.3869 C   0  0  0  0  0  0  0  0  0  0  0  0
    6.2525   -0.7097    0.1388 O   0  0  0  0  0  0  0  0  0  0  0  0
    4.0464   -0.6515   -0.6302 C   0  0  0  0  0  0  0  0  0  0  0  0
    2.7555   -0.4006   -0.4251 C   0  0  0  0  0  0  0  0  0  0  0  0
    1.6870   -0.5592   -1.3610 C   0  0  0  0  0  0  0  0  0  0  0  0
    1.8665   -0.9797   -2.6477 C   0  0  0  0  0  0  0  0  0  0  0  0
    3.1221   -1.2770   -3.1314 O   0  0  0  0  0  0  0  0  0  0  0  0
    3.3374   -1.7109   -4.4486 C   0  0  0  0  0  0  0  0  0  0  0  0
    0.7726   -1.1226   -3.5222 C   0  0  0  0  0  0  0  0  0  0  0  0
   -0.4863   -0.8374   -3.0813 C   0  0  0  0  0  0  0  0  0  0  0  0
   -0.7059   -0.4104   -1.7898 C   0  0  0  0  0  0  0  0  0  0  0  0
   -1.9867   -0.1279   -1.3619 C   0  0  0  0  0  0  0  0  0  0  0  0
   -2.2695    0.3001   -0.0867 C   0  0  0  0  0  0  0  0  0  0  0  0
   -3.6322    0.5907    0.3309 C   0  0  0  0  0  0  0  0  0  0  0  0
   -4.5674    1.0802   -0.5489 C   0  0  0  0  0  0  0  0  0  0  0  0
   -5.8714    1.3592   -0.1541 C   0  0  0  0  0  0  0  0  0  0  0  0
   -6.2375    1.1384    1.1586 C   0  0  0  0  0  0  0  0  0  0  0  0
   -5.3144    0.6478    2.0564 C   0  0  0  0  0  0  0  0  0  0  0  0
   -5.6960    0.4310    3.3704 O   0  0  0  0  0  0  0  0  0  0  0  0
   -6.9751    0.6778    3.8644 C   0  0  0  0  0  0  0  0  0  0  0  0
   -4.0093    0.3745    1.6376 C   0  0  0  0  0  0  0  0  0  0  0  0
   -1.1925    0.4346    0.7551 C   0  0  0  0  0  0  0  0  0  0  0  0
    0.1207    0.1544    0.3467 C   0  0  0  0  0  0  0  0  0  0  0  0
    0.3765   -0.2716   -0.9325 C   0  0  0  0  0  0  0  0  0  0  0  0
    6.2012    1.9763    1.5945 H   0  0  0  0  0  0  0  0  0  0  0  0
    7.5018    0.7303    1.6468 H   0  0  0  0  0  0  0  0  0  0  0  0
    7.1775    1.6802    3.1190 H   0  0  0  0  0  0  0  0  0  0  0  0
    6.1935   -0.6976    2.9499 H   0  0  0  0  0  0  0  0  0  0  0  0
    5.1267    0.5810    3.5853 H   0  0  0  0  0  0  0  0  0  0  0  0
    4.3697   -1.0139   -1.5719 H   0  0  0  0  0  0  0  0  0  0  0  0
    2.6044   -0.0333    0.6105 H   0  0  0  0  0  0  0  0  0  0  0  0
    2.8231   -2.6727   -4.6358 H   0  0  0  0  0  0  0  0  0  0  0  0
    4.4169   -1.8174   -4.5947 H   0  0  0  0  0  0  0  0  0  0  0  0
    2.9718   -0.9076   -5.1378 H   0  0  0  0  0  0  0  0  0  0  0  0
    0.9951   -1.4624   -4.5292 H   0  0  0  0  0  0  0  0  0  0  0  0
   -1.3479   -0.9426   -3.7465 H   0  0  0  0  0  0  0  0  0  0  0  0
   -2.8093   -0.2508   -2.0689 H   0  0  0  0  0  0  0  0  0  0  0  0
   -4.2514    1.2434   -1.5728 H   0  0  0  0  0  0  0  0  0  0  0  0
   -6.6000    1.7473   -0.8643 H   0  0  0  0  0  0  0  0  0  0  0  0
   -7.2444    1.3422    1.5082 H   0  0  0  0  0  0  0  0  0  0  0  0
   -7.1453    1.7943    3.8817 H   0  0  0  0  0  0  0  0  0  0  0  0
   -7.0079    0.3633    4.9316 H   0  0  0  0  0  0  0  0  0  0  0  0
   -7.7621    0.1757    3.2694 H   0  0  0  0  0  0  0  0  0  0  0  0
   -3.3097   -0.0083    2.3627 H   0  0  0  0  0  0  0  0  0  0  0  0
   -1.3419    0.7620    1.7587 H   0  0  0  0  0  0  0  0  0  0  0  0
    0.9201    0.2741    1.0375 H   0  0  0  0  0  0  0  0  0  0  0  0
  1  2  1  0
  2  3  1  0
  3  4  1  0
  4  5  2  0
  4  6  1  0
  6  7  2  0
  7  8  1  0
  8  9  2  0
  9 10  1  0
 10 11  1  0
  9 12  1  0
 12 13  2  0
 13 14  1  0
 14 15  2  0
 15 16  1  0
 16 17  1  0
 17 18  2  0
 18 19  1  0
 19 20  2  0
 20 21  1  0
 21 22  1  0
 22 23  1  0
 21 24  2  0
 16 25  2  0
 25 26  1  0
 26 27  2  0
 27  8  1  0
 27 14  1  0
 24 17  1  0
  1 28  1  0
  1 29  1  0
  1 30  1  0
  2 31  1  0
  2 32  1  0
  6 33  1  0
  7 34  1  0
 11 35  1  0
 11 36  1  0
 11 37  1  0
 12 38  1  0
 13 39  1  0
 15 40  1  0
 18 41  1  0
 19 42  1  0
 20 43  1  0
 23 44  1  0
 23 45  1  0
 23 46  1  0
 24 47  1  0
 25 48  1  0
 26 49  1  0
M  END
$$$$
