
     RDKit          3D

 80 83  0  0  0  0  0  0  0  0999 V2000
    1.2843   -0.0837   -0.8715 C   0  0  1  0  0  0  0  0  0  0  0  0
    1.5919    1.1756   -0.0860 C   0  0  0  0  0  0  0  0  0  0  0  0
    0.2608    1.8021    0.2818 C   0  0  0  0  0  0  0  0  0  0  0  0
   -0.6507    0.6520    0.1644 C   0  0  1  0  0  0  0  0  0  0  0  0
   -2.1089    0.9579    0.1593 C   0  0  2  0  0  0  0  0  0  0  0  0
   -2.5126    1.4252    1.5373 C   0  0  2  0  0  0  0  0  0  0  0  0
   -2.1892    0.4457    2.4951 O   0  0  0  0  0  0  0  0  0  0  0  0
   -3.9753    1.7174    1.5315 C   0  0  0  0  0  0  0  0  0  0  0  0
   -4.7337    1.1985    0.3424 C   0  0  2  0  0  0  0  0  0  0  0  0
   -6.1952    1.3735    0.5808 C   0  0  0  0  0  0  0  0  0  0  0  0
   -6.9058    0.2140    1.1911 C   0  0  2  0  0  0  0  0  0  0  0  0
   -7.6732    0.5944    2.2979 O   0  0  0  0  0  0  0  0  0  0  0  0
   -6.0309   -0.9348    1.5933 C   0  0  0  0  0  0  0  0  0  0  0  0
   -5.0119   -1.3075    0.5738 C   0  0  0  0  0  0  0  0  0  0  0  0
   -4.3229   -0.1612   -0.1066 C   0  0  1  0  0  0  0  0  0  0  0  0
   -4.6882   -0.2422   -1.5921 C   0  0  0  0  0  0  0  0  0  0  0  0
   -2.8466   -0.3405   -0.0317 C   0  0  1  0  0  0  0  0  0  0  0  0
   -2.3215   -1.1798   -1.1704 C   0  0  0  0  0  0  0  0  0  0  0  0
   -0.8449   -1.4077   -1.0400 C   0  0  2  0  0  0  0  0  0  0  0  0
   -0.5441   -1.9885    0.1861 O   0  0  0  0  0  0  0  0  0  0  0  0
   -0.1869   -0.0455   -1.1135 C   0  0  2  0  0  0  0  0  0  0  0  0
   -0.6229    0.6233   -2.3655 C   0  0  0  0  0  0  0  0  0  0  0  0
    2.1916   -0.1525   -2.0213 C   0  0  2  0  0  0  0  0  0  0  0  0
    2.0348   -1.3359   -2.9309 C   0  0  0  0  0  0  0  0  0  0  0  0
    3.6152   -0.0546   -1.5030 C   0  0  0  0  0  0  0  0  0  0  0  0
    3.9909   -1.1558   -0.5435 C   0  0  0  0  0  0  0  0  0  0  0  0
    5.4237   -0.8725   -0.1624 C   0  0  0  0  0  0  0  0  0  0  0  0
    5.8238    0.1542   -0.7498 O   0  0  0  0  0  0  0  0  0  0  0  0
    6.1592   -1.6905    0.7389 N   0  0  0  0  0  0  0  0  0  0  0  0
    7.5206   -1.3392    1.0410 C   0  0  0  0  0  0  0  0  0  0  0  0
    7.5586    0.0421    1.6598 C   0  0  0  0  0  0  0  0  0  0  0  0
    9.2748    0.4296    2.0161 S   0  0  0  0  0  0  0  0  0  0  0  0
    9.3729    1.9551    2.7056 O   0  0  0  0  0  0  0  0  0  0  0  0
   10.0406    0.3800    0.7204 O   0  0  0  0  0  0  0  0  0  0  0  0
    9.8552   -0.5898    2.9525 O   0  0  0  0  0  0  0  0  0  0  0  0
    1.5106   -0.9661   -0.2048 H   0  0  0  0  0  0  0  0  0  0  0  0
    2.1023    1.9408   -0.7079 H   0  0  0  0  0  0  0  0  0  0  0  0
    2.1467    0.9502    0.8493 H   0  0  0  0  0  0  0  0  0  0  0  0
   -0.0014    2.6715   -0.3523 H   0  0  0  0  0  0  0  0  0  0  0  0
    0.2813    2.1058    1.3684 H   0  0  0  0  0  0  0  0  0  0  0  0
   -0.4354   -0.0512    0.9878 H   0  0  0  0  0  0  0  0  0  0  0  0
   -2.4031    1.7651   -0.5220 H   0  0  0  0  0  0  0  0  0  0  0  0
   -1.8944    2.3341    1.7656 H   0  0  0  0  0  0  0  0  0  0  0  0
   -2.8307    0.4314    3.2406 H   0  0  0  0  0  0  0  0  0  0  0  0
   -4.4327    1.4018    2.5079 H   0  0  0  0  0  0  0  0  0  0  0  0
   -4.0818    2.8306    1.5295 H   0  0  0  0  0  0  0  0  0  0  0  0
   -4.4764    1.9070   -0.5002 H   0  0  0  0  0  0  0  0  0  0  0  0
   -6.7181    1.7066   -0.3601 H   0  0  0  0  0  0  0  0  0  0  0  0
   -6.3227    2.2483    1.2799 H   0  0  0  0  0  0  0  0  0  0  0  0
   -7.6460   -0.1912    0.4406 H   0  0  0  0  0  0  0  0  0  0  0  0
   -7.9323    1.5361    2.1462 H   0  0  0  0  0  0  0  0  0  0  0  0
   -6.7221   -1.8201    1.7129 H   0  0  0  0  0  0  0  0  0  0  0  0
   -5.5653   -0.8144    2.6060 H   0  0  0  0  0  0  0  0  0  0  0  0
   -4.2573   -1.9471    1.1018 H   0  0  0  0  0  0  0  0  0  0  0  0
   -5.4822   -2.0240   -0.1599 H   0  0  0  0  0  0  0  0  0  0  0  0
   -5.7902   -0.0039   -1.6103 H   0  0  0  0  0  0  0  0  0  0  0  0
   -4.1451    0.5046   -2.1991 H   0  0  0  0  0  0  0  0  0  0  0  0
   -4.5716   -1.2828   -1.9088 H   0  0  0  0  0  0  0  0  0  0  0  0
   -2.6353   -0.9524    0.8921 H   0  0  0  0  0  0  0  0  0  0  0  0
   -2.5810   -0.8094   -2.1602 H   0  0  0  0  0  0  0  0  0  0  0  0
   -2.8051   -2.1768   -1.0661 H   0  0  0  0  0  0  0  0  0  0  0  0
   -0.5428   -2.0669   -1.8742 H   0  0  0  0  0  0  0  0  0  0  0  0
   -0.5458   -2.9846    0.1513 H   0  0  0  0  0  0  0  0  0  0  0  0
   -1.6174    1.1033   -2.2852 H   0  0  0  0  0  0  0  0  0  0  0  0
    0.0597    1.4470   -2.6792 H   0  0  0  0  0  0  0  0  0  0  0  0
   -0.7400   -0.1557   -3.1523 H   0  0  0  0  0  0  0  0  0  0  0  0
    2.0535    0.7539   -2.6476 H   0  0  0  0  0  0  0  0  0  0  0  0
    1.3817   -1.1113   -3.8014 H   0  0  0  0  0  0  0  0  0  0  0  0
    3.0497   -1.4965   -3.4055 H   0  0  0  0  0  0  0  0  0  0  0  0
    1.8101   -2.2821   -2.4269 H   0  0  0  0  0  0  0  0  0  0  0  0
    3.8043    0.9097   -0.9970 H   0  0  0  0  0  0  0  0  0  0  0  0
    4.3207   -0.0435   -2.3848 H   0  0  0  0  0  0  0  0  0  0  0  0
    3.8344   -2.1674   -0.9115 H   0  0  0  0  0  0  0  0  0  0  0  0
    3.4407   -1.0588    0.4153 H   0  0  0  0  0  0  0  0  0  0  0  0
    5.6608   -2.5310    1.1498 H   0  0  0  0  0  0  0  0  0  0  0  0
    8.1711   -1.3364    0.1430 H   0  0  0  0  0  0  0  0  0  0  0  0
    7.9208   -2.0409    1.7733 H   0  0  0  0  0  0  0  0  0  0  0  0
    7.0074    0.0330    2.6386 H   0  0  0  0  0  0  0  0  0  0  0  0
    7.2103    0.8450    1.0005 H   0  0  0  0  0  0  0  0  0  0  0  0
    9.7763    2.6305    2.0946 H   0  0  0  0  0  0  0  0  0  0  0  0
  1  2  1  0
  2  3  1  0
  3  4  1  0
  4  5  1  0
  5  6  1  0
  6  7  1  0
  6  8  1  0
  8  9  1  0
  9 10  1  0
 10 11  1  0
 11 12  1  0
 11 13  1  0
 13 14  1  0
 14 15  1  0
 15 16  1  6
 15 17  1  0
 17 18  1  0
 18 19  1  0
 19 20  1  0
 19 21  1  0
 21 22  1  6
  1 23  1  0
 23 24  1  0
 23 25  1  0
 25 26  1  0
 26 27  1  0
 27 28  2  0
 27 29  1  0
 29 30  1  0
 30 31  1  0
 31 32  1  0
 32 33  1  0
 32 34  2  0
 32 35  2  0
 21  1  1  0
 21  4  1  0
 17  5  1  0
 15  9  1  0
  1 36  1  1
  2 37  1  0
  2 38  1  0
  3 39  1  0
  3 40  1  0
  4 41  1  1
  5 42  1  6
  6 43  1  1
  7 44  1  0
  8 45  1  0
  8 46  1  0
  9 47  1  6
 10 48  1  0
 10 49  1  0
 11 50  1  6
 12 51  1  0
 13 52  1  0
 13 53  1  0
 14 54  1  0
 14 55  1  0
 16 56  1  0
 16 57  1  0
 16 58  1  0
 17 59  1  1
 18 60  1  0
 18 61  1  0
 19 62  1  6
 20 63  1  0
 22 64  1  0
 22 65  1  0
 22 66  1  0
 23 67  1  6
 24 68  1  0
 24 69  1  0
 24 70  1  0
 25 71  1  0
 25 72  1  0
 26 73  1  0
 26 74  1  0
 29 75  1  0
 30 76  1  0
 30 77  1  0
 31 78  1  0
 31 79  1  0
 33 80  1  0
M  END
$$$$
