
     RDKit          3D

 58 62  0  0  0  0  0  0  0  0999 V2000
    4.8999   -1.1424   -1.4654 C   0  0  0  0  0  0  0  0  0  0  0  0
    5.4284   -0.3496   -0.3255 C   0  0  0  0  0  0  0  0  0  0  0  0
    4.6044    0.1537    0.6433 C   0  0  0  0  0  0  0  0  0  0  0  0
    3.1371   -0.0709    0.5922 C   0  0  0  0  0  0  0  0  0  0  0  0
    2.5483    0.8399   -0.4353 C   0  0  0  0  0  0  0  0  0  0  0  0
    1.1325    0.7414   -0.6131 N   0  0  0  0  0  0  0  0  0  0  0  0
    0.8301   -0.5441   -1.1909 C   0  0  0  0  0  0  0  0  0  0  0  0
   -0.6381   -0.6089   -1.5377 C   0  0  0  0  0  0  0  0  0  0  0  0
   -1.3785   -0.3147   -0.3354 N   0  0  0  0  0  0  0  0  0  0  0  0
   -2.7847   -0.3692   -0.3624 C   0  0  0  0  0  0  0  0  0  0  0  0
   -3.4038   -0.6748   -1.4227 O   0  0  0  0  0  0  0  0  0  0  0  0
   -3.5648   -0.0688    0.8480 C   0  0  0  0  0  0  0  0  0  0  0  0
   -5.0308   -0.1601    0.6110 C   0  0  0  0  0  0  0  0  0  0  0  0
   -5.7435    0.9615    0.1832 C   0  0  0  0  0  0  0  0  0  0  0  0
   -7.1021    0.8807   -0.0353 C   0  0  0  0  0  0  0  0  0  0  0  0
   -7.8155   -0.2959    0.1551 C   0  0  0  0  0  0  0  0  0  0  0  0
   -9.2186   -0.3565   -0.0746 N   0  0  0  0  0  0  0  0  0  0  0  0
  -10.0843    0.6428   -0.2934 C   0  0  0  0  0  0  0  0  0  0  0  0
  -11.3205    0.1478   -0.4625 N   0  0  0  0  0  0  0  0  0  0  0  0
  -11.1995   -1.1635   -0.3445 N   0  0  0  0  0  0  0  0  0  0  0  0
   -9.9347   -1.4541   -0.1120 N   0  0  0  0  0  0  0  0  0  0  0  0
   -7.1088   -1.3616    0.5666 N   0  0  0  0  0  0  0  0  0  0  0  0
   -5.7705   -1.3077    0.7888 C   0  0  0  0  0  0  0  0  0  0  0  0
   -0.6839    0.0341    0.8531 C   0  0  0  0  0  0  0  0  0  0  0  0
    0.4469    1.0092    0.5976 C   0  0  0  0  0  0  0  0  0  0  0  0
    5.1472    0.8871    1.6802 C   0  0  0  0  0  0  0  0  0  0  0  0
    6.4951    1.1126    1.7448 C   0  0  0  0  0  0  0  0  0  0  0  0
    7.3301    0.6095    0.7740 C   0  0  0  0  0  0  0  0  0  0  0  0
    6.8034   -0.1215   -0.2620 C   0  0  0  0  0  0  0  0  0  0  0  0
    7.8923   -0.5521   -1.1684 C   0  0  0  0  0  0  0  0  0  0  0  0
    9.0623   -0.0214   -0.6002 O   0  0  0  0  0  0  0  0  0  0  0  0
    8.7876    0.6711    0.5516 C   0  0  0  0  0  0  0  0  0  0  0  0
    9.5865    1.2725    1.3242 O   0  0  0  0  0  0  0  0  0  0  0  0
    5.6484   -1.9661   -1.6412 H   0  0  0  0  0  0  0  0  0  0  0  0
    4.8740   -0.5409   -2.4167 H   0  0  0  0  0  0  0  0  0  0  0  0
    3.9294   -1.6221   -1.2562 H   0  0  0  0  0  0  0  0  0  0  0  0
    2.7724    0.0994    1.6301 H   0  0  0  0  0  0  0  0  0  0  0  0
    2.8685   -1.1262    0.3490 H   0  0  0  0  0  0  0  0  0  0  0  0
    2.8349    1.8928   -0.1676 H   0  0  0  0  0  0  0  0  0  0  0  0
    3.0308    0.6173   -1.4220 H   0  0  0  0  0  0  0  0  0  0  0  0
    1.4046   -0.6289   -2.1353 H   0  0  0  0  0  0  0  0  0  0  0  0
    1.0392   -1.3850   -0.4991 H   0  0  0  0  0  0  0  0  0  0  0  0
   -0.9108    0.2159   -2.2618 H   0  0  0  0  0  0  0  0  0  0  0  0
   -0.9208   -1.5880   -1.9730 H   0  0  0  0  0  0  0  0  0  0  0  0
   -3.2910    0.9333    1.2674 H   0  0  0  0  0  0  0  0  0  0  0  0
   -3.2640   -0.8020    1.6209 H   0  0  0  0  0  0  0  0  0  0  0  0
   -5.2033    1.8803    0.0317 H   0  0  0  0  0  0  0  0  0  0  0  0
   -7.6778    1.7456   -0.3691 H   0  0  0  0  0  0  0  0  0  0  0  0
   -9.8194    1.6855   -0.3267 H   0  0  0  0  0  0  0  0  0  0  0  0
   -5.2352   -2.2030    1.1243 H   0  0  0  0  0  0  0  0  0  0  0  0
   -1.3788    0.3940    1.6219 H   0  0  0  0  0  0  0  0  0  0  0  0
   -0.2198   -0.8951    1.2611 H   0  0  0  0  0  0  0  0  0  0  0  0
    1.0785    1.1131    1.4858 H   0  0  0  0  0  0  0  0  0  0  0  0
   -0.0629    2.0130    0.4774 H   0  0  0  0  0  0  0  0  0  0  0  0
    4.5075    1.2809    2.4366 H   0  0  0  0  0  0  0  0  0  0  0  0
    6.9080    1.6865    2.5573 H   0  0  0  0  0  0  0  0  0  0  0  0
    7.9772   -1.6735   -1.1684 H   0  0  0  0  0  0  0  0  0  0  0  0
    7.7609   -0.1530   -2.1971 H   0  0  0  0  0  0  0  0  0  0  0  0
  1  2  1  0
  2  3  2  0
  3  4  1  0
  4  5  1  0
  5  6  1  0
  6  7  1  0
  7  8  1  0
  8  9  1  0
  9 10  1  0
 10 11  2  0
 10 12  1  0
 12 13  1  0
 13 14  2  0
 14 15  1  0
 15 16  2  0
 16 17  1  0
 17 18  1  0
 18 19  2  0
 19 20  1  0
 20 21  2  0
 16 22  1  0
 22 23  2  0
  9 24  1  0
 24 25  1  0
  3 26  1  0
 26 27  2  0
 27 28  1  0
 28 29  2  0
 29 30  1  0
 30 31  1  0
 31 32  1  0
 32 33  2  0
 29  2  1  0
 25  6  1  0
 32 28  1  0
 23 13  1  0
 21 17  1  0
  1 34  1  0
  1 35  1  0
  1 36  1  0
  4 37  1  0
  4 38  1  0
  5 39  1  0
  5 40  1  0
  7 41  1  0
  7 42  1  0
  8 43  1  0
  8 44  1  0
 12 45  1  0
 12 46  1  0
 14 47  1  0
 15 48  1  0
 18 49  1  0
 23 50  1  0
 24 51  1  0
 24 52  1  0
 25 53  1  0
 25 54  1  0
 26 55  1  0
 27 56  1  0
 30 57  1  0
 30 58  1  0
M  END
$$$$
