
     RDKit          3D

 48 50  0  0  0  0  0  0  0  0999 V2000
   -1.7130    1.0919   -0.0181 O   0  0  0  0  0  0  0  0  0  0  0  0
   -1.3688   -0.2143    0.1459 C   0  0  0  0  0  0  0  0  0  0  0  0
   -2.5975   -0.4462    0.2829 O   0  0  0  0  0  0  0  0  0  0  0  0
   -0.3816   -1.2710    0.2190 C   0  0  0  0  0  0  0  0  0  0  0  0
    0.9133   -1.0852    0.0814 C   0  0  0  0  0  0  0  0  0  0  0  0
    1.4427    0.2479   -0.1617 C   0  0  0  0  0  0  0  0  0  0  0  0
    0.9229    1.5170   -0.3066 O   0  0  0  0  0  0  0  0  0  0  0  0
    2.6356    0.5531   -0.3079 O   0  0  0  0  0  0  0  0  0  0  0  0
    3.9661   -0.5346   -0.2493 C   0  0  0  0  0  0  0  0  0  0  0  0
    2.7064   -0.4160    0.4078 N   0  0  0  0  0  0  0  0  0  0  0  0
    2.0800    0.8969    0.2476 C   0  0  0  0  0  0  0  0  0  0  0  0
    0.6642    0.5606    0.5995 C   0  0  0  0  0  0  0  0  0  0  0  0
    0.4597   -0.6519   -0.3073 C   0  0  0  0  0  0  0  0  0  0  0  0
    1.7314   -1.4135    0.0888 C   0  0  0  0  0  0  0  0  0  0  0  0
   -0.7549   -1.4105    0.0223 C   0  0  0  0  0  0  0  0  0  0  0  0
   -2.0329   -0.9566    0.2599 C   0  0  0  0  0  0  0  0  0  0  0  0
   -2.4698    0.3805    0.2382 O   0  0  0  0  0  0  0  0  0  0  0  0
   -1.6589    1.5146    0.2499 C   0  0  0  0  0  0  0  0  0  0  0  0
   -2.4867    2.6012    0.0691 C   0  0  0  0  0  0  0  0  0  0  0  0
   -1.9639    3.8775    0.0356 C   0  0  0  0  0  0  0  0  0  0  0  0
   -0.5998    4.0256    0.1876 C   0  0  0  0  0  0  0  0  0  0  0  0
    0.2054    2.8991    0.3687 C   0  0  0  0  0  0  0  0  0  0  0  0
   -0.3120    1.6229    0.4028 C   0  0  0  0  0  0  0  0  0  0  0  0
   -3.0850   -1.7905    0.5608 C   0  0  0  0  0  0  0  0  0  0  0  0
   -2.8922   -3.1709    0.6392 C   0  0  0  0  0  0  0  0  0  0  0  0
   -1.6226   -3.6568    0.4061 C   0  0  0  0  0  0  0  0  0  0  0  0
   -1.3344   -5.3868    0.4944 Cl  0  0  0  0  0  0  0  0  0  0  0  0
   -0.6066   -2.7803    0.1094 C   0  0  0  0  0  0  0  0  0  0  0  0
   -1.6029    1.7401    0.7395 H   0  0  0  0  0  0  0  0  0  0  0  0
   -0.7519   -2.2639    0.3979 H   0  0  0  0  0  0  0  0  0  0  0  0
    1.6739   -1.8462    0.1300 H   0  0  0  0  0  0  0  0  0  0  0  0
    0.8273    1.9769   -1.2023 H   0  0  0  0  0  0  0  0  0  0  0  0
    3.9496   -0.9376   -1.2631 H   0  0  0  0  0  0  0  0  0  0  0  0
    4.4537    0.4811   -0.1871 H   0  0  0  0  0  0  0  0  0  0  0  0
    4.6486   -1.1781    0.3725 H   0  0  0  0  0  0  0  0  0  0  0  0
    2.2245    1.2373   -0.7903 H   0  0  0  0  0  0  0  0  0  0  0  0
    2.5746    1.5629    0.9661 H   0  0  0  0  0  0  0  0  0  0  0  0
    0.6901    0.1448    1.6294 H   0  0  0  0  0  0  0  0  0  0  0  0
    0.4606   -0.3792   -1.3790 H   0  0  0  0  0  0  0  0  0  0  0  0
    2.0223   -2.1515   -0.6585 H   0  0  0  0  0  0  0  0  0  0  0  0
    1.4697   -1.9088    1.0700 H   0  0  0  0  0  0  0  0  0  0  0  0
   -3.5607    2.5395   -0.0548 H   0  0  0  0  0  0  0  0  0  0  0  0
   -2.5816    4.7433   -0.1034 H   0  0  0  0  0  0  0  0  0  0  0  0
   -0.1823    5.0150    0.1631 H   0  0  0  0  0  0  0  0  0  0  0  0
    1.2631    3.0500    0.4839 H   0  0  0  0  0  0  0  0  0  0  0  0
   -4.0864   -1.4101    0.7449 H   0  0  0  0  0  0  0  0  0  0  0  0
   -3.7156   -3.8166    0.8740 H   0  0  0  0  0  0  0  0  0  0  0  0
    0.3764   -3.2024   -0.0670 H   0  0  0  0  0  0  0  0  0  0  0  0
  1  2  1  0
  2  3  2  0
  2  4  1  0
  4  5  2  0
  5  6  1  0
  6  7  1  0
  6  8  2  0
  9 10  1  0
 10 11  1  0
 11 12  1  0
 12 13  1  0
 13 14  1  0
 13 15  1  0
 15 16  2  0
 16 17  1  0
 17 18  1  0
 18 19  2  0
 19 20  1  0
 20 21  2  0
 21 22  1  0
 22 23  2  0
 16 24  1  0
 24 25  2  0
 25 26  1  0
 26 27  1  0
 26 28  2  0
 14 10  1  0
 28 15  1  0
 23 12  1  0
 23 18  1  0
  1 29  1  0
  4 30  1  0
  5 31  1  0
  7 32  1  0
  9 33  1  0
  9 34  1  0
  9 35  1  0
 11 36  1  0
 11 37  1  0
 12 38  1  0
 13 39  1  0
 14 40  1  0
 14 41  1  0
 19 42  1  0
 20 43  1  0
 21 44  1  0
 22 45  1  0
 24 46  1  0
 25 47  1  0
 28 48  1  0
M  END
$$$$
