
     RDKit          3D

 47 50  0  0  0  0  0  0  0  0999 V2000
   -6.6557    1.1176   -0.7536 C   0  0  0  0  0  0  0  0  0  0  0  0
   -7.0068   -0.2928   -0.6920 N   0  0  0  0  0  0  0  0  0  0  0  0
   -8.3141   -0.7272   -1.0989 C   0  0  0  0  0  0  0  0  0  0  0  0
   -6.0274   -1.2235   -0.2073 C   0  0  0  0  0  0  0  0  0  0  0  0
   -6.3142   -2.4253   -0.1668 O   0  0  0  0  0  0  0  0  0  0  0  0
   -4.7315   -0.6949    0.2197 C   0  0  0  0  0  0  0  0  0  0  0  0
   -4.4628   -0.5528    1.5675 C   0  0  0  0  0  0  0  0  0  0  0  0
   -3.2659   -0.0547    1.9983 C   0  0  0  0  0  0  0  0  0  0  0  0
   -2.2424    0.3402    1.1212 C   0  0  0  0  0  0  0  0  0  0  0  0
   -1.0581    0.8923    1.6610 N   0  0  0  0  0  0  0  0  0  0  0  0
    0.2360    0.3411    1.5301 C   0  0  0  0  0  0  0  0  0  0  0  0
    1.2178    0.8755    0.6868 C   0  0  0  0  0  0  0  0  0  0  0  0
    2.4935    0.3617    0.6190 C   0  0  0  0  0  0  0  0  0  0  0  0
    3.6144    0.6868   -0.0735 N   0  0  0  0  0  0  0  0  0  0  0  0
    4.6265   -0.1443    0.2533 C   0  0  0  0  0  0  0  0  0  0  0  0
    5.9886   -0.1247   -0.2925 C   0  0  0  0  0  0  0  0  0  0  0  0
    7.0255   -0.9073    0.1560 C   0  0  0  0  0  0  0  0  0  0  0  0
    8.1056   -0.6128   -0.6167 N   0  0  0  0  0  0  0  0  0  0  0  0
    7.7980    0.3126   -1.5252 N   0  0  0  0  0  0  0  0  0  0  0  0
    8.7282    0.8428   -2.5264 C   0  0  0  0  0  0  0  0  0  0  0  0
    6.4980    0.6167   -1.3289 C   0  0  0  0  0  0  0  0  0  0  0  0
    4.1090   -1.0111    1.1782 C   0  0  0  0  0  0  0  0  0  0  0  0
    2.7910   -0.7258    1.4249 C   0  0  0  0  0  0  0  0  0  0  0  0
    1.8185   -1.2717    2.2702 C   0  0  0  0  0  0  0  0  0  0  0  0
    0.5969   -0.7170    2.2825 N   0  0  0  0  0  0  0  0  0  0  0  0
   -2.5146    0.1938   -0.2088 C   0  0  0  0  0  0  0  0  0  0  0  0
   -1.3202    0.6351   -1.4193 Cl  0  0  0  0  0  0  0  0  0  0  0  0
   -3.7391   -0.3138   -0.6457 C   0  0  0  0  0  0  0  0  0  0  0  0
   -5.7440    1.3344   -0.1302 H   0  0  0  0  0  0  0  0  0  0  0  0
   -7.4455    1.7821   -0.3504 H   0  0  0  0  0  0  0  0  0  0  0  0
   -6.4633    1.4273   -1.7990 H   0  0  0  0  0  0  0  0  0  0  0  0
   -8.3839   -1.0587   -2.1518 H   0  0  0  0  0  0  0  0  0  0  0  0
   -8.7351   -1.5223   -0.4454 H   0  0  0  0  0  0  0  0  0  0  0  0
   -8.9987    0.1604   -0.9465 H   0  0  0  0  0  0  0  0  0  0  0  0
   -5.2290   -0.8431    2.2821 H   0  0  0  0  0  0  0  0  0  0  0  0
   -3.0384    0.0671    3.0689 H   0  0  0  0  0  0  0  0  0  0  0  0
   -1.1293    1.8161    2.2215 H   0  0  0  0  0  0  0  0  0  0  0  0
    0.9677    1.7167    0.0700 H   0  0  0  0  0  0  0  0  0  0  0  0
    3.6816    1.4567   -0.7584 H   0  0  0  0  0  0  0  0  0  0  0  0
    6.9610   -1.6187    0.9805 H   0  0  0  0  0  0  0  0  0  0  0  0
    8.5712    1.9222   -2.6406 H   0  0  0  0  0  0  0  0  0  0  0  0
    8.4346    0.3532   -3.4712 H   0  0  0  0  0  0  0  0  0  0  0  0
    9.7571    0.6015   -2.2150 H   0  0  0  0  0  0  0  0  0  0  0  0
    5.9438    1.3432   -1.9124 H   0  0  0  0  0  0  0  0  0  0  0  0
    4.6647   -1.8187    1.6480 H   0  0  0  0  0  0  0  0  0  0  0  0
    2.1267   -2.1146    2.8669 H   0  0  0  0  0  0  0  0  0  0  0  0
   -3.9359   -0.4209   -1.7303 H   0  0  0  0  0  0  0  0  0  0  0  0
  1  2  1  0
  2  3  1  0
  2  4  1  0
  4  5  2  0
  4  6  1  0
  6  7  2  0
  7  8  1  0
  8  9  2  0
  9 10  1  0
 10 11  1  0
 11 12  2  0
 12 13  1  0
 13 14  1  0
 14 15  1  0
 15 16  1  0
 16 17  1  0
 17 18  2  0
 18 19  1  0
 19 20  1  0
 19 21  1  0
 15 22  2  0
 22 23  1  0
 23 24  1  0
 24 25  2  0
  9 26  1  0
 26 27  1  0
 26 28  2  0
 28  6  1  0
 25 11  1  0
 23 13  2  0
 21 16  2  0
  1 29  1  0
  1 30  1  0
  1 31  1  0
  3 32  1  0
  3 33  1  0
  3 34  1  0
  7 35  1  0
  8 36  1  0
 10 37  1  0
 12 38  1  0
 14 39  1  0
 17 40  1  0
 20 41  1  0
 20 42  1  0
 20 43  1  0
 21 44  1  0
 22 45  1  0
 24 46  1  0
 28 47  1  0
M  END
$$$$
