
     RDKit          3D

 62 61  0  0  0  0  0  0  0  0999 V2000
   -6.7304    3.5620   -0.6346 C   0  0  0  0  0  0  0  0  0  0  0  0
   -5.2306    2.5645   -0.4037 S   0  0  0  0  0  0  0  0  0  0  0  0
   -5.7451    0.8556   -0.4207 C   0  0  0  0  0  0  0  0  0  0  0  0
   -7.1704    0.7748   -0.6083 N   0  0  0  0  0  0  0  0  0  0  0  0
   -5.1444   -0.2614   -0.3070 N   0  0  0  0  0  0  0  0  0  0  0  0
   -5.8139   -1.5304   -0.3579 C   0  0  0  0  0  0  0  0  0  0  0  0
   -5.4079   -2.4151    0.7643 C   0  0  0  0  0  0  0  0  0  0  0  0
   -3.9532   -2.7759    0.7325 C   0  0  0  0  0  0  0  0  0  0  0  0
   -3.0763   -1.5848    0.8184 C   0  0  0  0  0  0  0  0  0  0  0  0
   -1.6106   -2.0494    0.8945 C   0  0  0  0  0  0  0  0  0  0  0  0
   -1.2782   -2.8224   -0.3331 C   0  0  0  0  0  0  0  0  0  0  0  0
    0.1714   -3.2727   -0.3077 C   0  0  0  0  0  0  0  0  0  0  0  0
    1.0660   -2.0853   -0.2193 C   0  0  0  0  0  0  0  0  0  0  0  0
    0.8795   -1.1732   -1.3906 C   0  0  0  0  0  0  0  0  0  0  0  0
    1.8516   -0.0094   -1.2613 C   0  0  0  0  0  0  0  0  0  0  0  0
    1.6681    0.8108   -0.0435 C   0  0  0  0  0  0  0  0  0  0  0  0
    2.6266    1.9679   -0.0012 C   0  0  0  0  0  0  0  0  0  0  0  0
    4.0381    1.4667    0.0049 C   0  0  0  0  0  0  0  0  0  0  0  0
    5.0253    2.6321    0.0640 C   0  0  0  0  0  0  0  0  0  0  0  0
    6.3469    2.0639    0.0666 N   0  0  0  0  0  0  0  0  0  0  0  0
    7.4127    2.7357    0.2732 C   0  0  0  0  0  0  0  0  0  0  0  0
    7.3462    4.1159    0.5177 N   0  0  0  0  0  0  0  0  0  0  0  0
    8.9733    1.8608    0.2395 S   0  0  0  0  0  0  0  0  0  0  0  0
    8.7567    0.1025   -0.0954 C   0  0  0  0  0  0  0  0  0  0  0  0
   -7.5374    3.0597   -0.0258 H   0  0  0  0  0  0  0  0  0  0  0  0
   -7.0122    3.5558   -1.6899 H   0  0  0  0  0  0  0  0  0  0  0  0
   -6.5035    4.5640   -0.2189 H   0  0  0  0  0  0  0  0  0  0  0  0
   -8.2046    0.7147   -0.7159 H   0  0  0  0  0  0  0  0  0  0  0  0
   -7.6187    0.7957   -1.5503 H   0  0  0  0  0  0  0  0  0  0  0  0
   -6.9064   -1.3079   -0.2450 H   0  0  0  0  0  0  0  0  0  0  0  0
   -5.6823   -2.0271   -1.3609 H   0  0  0  0  0  0  0  0  0  0  0  0
   -6.0474   -3.3355    0.8349 H   0  0  0  0  0  0  0  0  0  0  0  0
   -5.5678   -1.9005    1.7682 H   0  0  0  0  0  0  0  0  0  0  0  0
   -3.7266   -3.5463    1.5079 H   0  0  0  0  0  0  0  0  0  0  0  0
   -3.7448   -3.3189   -0.2510 H   0  0  0  0  0  0  0  0  0  0  0  0
   -3.2451   -0.9569    1.7023 H   0  0  0  0  0  0  0  0  0  0  0  0
   -3.0930   -1.0111   -0.1500 H   0  0  0  0  0  0  0  0  0  0  0  0
   -1.0366   -1.1264    1.0179 H   0  0  0  0  0  0  0  0  0  0  0  0
   -1.5711   -2.6973    1.8175 H   0  0  0  0  0  0  0  0  0  0  0  0
   -1.4446   -2.2261   -1.2240 H   0  0  0  0  0  0  0  0  0  0  0  0
   -1.8849   -3.7763   -0.3838 H   0  0  0  0  0  0  0  0  0  0  0  0
    0.3326   -3.8789   -1.2139 H   0  0  0  0  0  0  0  0  0  0  0  0
    0.3613   -3.9639    0.5509 H   0  0  0  0  0  0  0  0  0  0  0  0
    0.9126   -1.5023    0.7114 H   0  0  0  0  0  0  0  0  0  0  0  0
    2.1232   -2.4431   -0.1473 H   0  0  0  0  0  0  0  0  0  0  0  0
   -0.1503   -0.7632   -1.4583 H   0  0  0  0  0  0  0  0  0  0  0  0
    1.1021   -1.6693   -2.3603 H   0  0  0  0  0  0  0  0  0  0  0  0
    1.7718    0.5430   -2.2087 H   0  0  0  0  0  0  0  0  0  0  0  0
    2.8689   -0.4705   -1.2753 H   0  0  0  0  0  0  0  0  0  0  0  0
    1.8819    0.1809    0.8730 H   0  0  0  0  0  0  0  0  0  0  0  0
    0.6539    1.2377    0.0712 H   0  0  0  0  0  0  0  0  0  0  0  0
    2.4827    2.5524   -0.9359 H   0  0  0  0  0  0  0  0  0  0  0  0
    2.3822    2.5692    0.8977 H   0  0  0  0  0  0  0  0  0  0  0  0
    4.3048    0.7771   -0.7980 H   0  0  0  0  0  0  0  0  0  0  0  0
    4.1856    0.9243    0.9763 H   0  0  0  0  0  0  0  0  0  0  0  0
    4.9524    3.2932   -0.8234 H   0  0  0  0  0  0  0  0  0  0  0  0
    4.7747    3.2336    0.9375 H   0  0  0  0  0  0  0  0  0  0  0  0
    6.5281    4.5429    0.9847 H   0  0  0  0  0  0  0  0  0  0  0  0
    8.1815    4.6604    0.1914 H   0  0  0  0  0  0  0  0  0  0  0  0
    9.2722   -0.1669   -1.0457 H   0  0  0  0  0  0  0  0  0  0  0  0
    9.2225   -0.5119    0.6922 H   0  0  0  0  0  0  0  0  0  0  0  0
    7.6807   -0.1372   -0.1227 H   0  0  0  0  0  0  0  0  0  0  0  0
  1  2  1  0
  2  3  1  0
  3  4  1  0
  3  5  2  0
  5  6  1  0
  6  7  1  0
  7  8  1  0
  8  9  1  0
  9 10  1  0
 10 11  1  0
 11 12  1  0
 12 13  1  0
 13 14  1  0
 14 15  1  0
 15 16  1  0
 16 17  1  0
 17 18  1  0
 18 19  1  0
 19 20  1  0
 20 21  2  0
 21 22  1  0
 21 23  1  0
 23 24  1  0
  1 25  1  0
  1 26  1  0
  1 27  1  0
  4 28  1  0
  4 29  1  0
  6 30  1  0
  6 31  1  0
  7 32  1  0
  7 33  1  0
  8 34  1  0
  8 35  1  0
  9 36  1  0
  9 37  1  0
 10 38  1  0
 10 39  1  0
 11 40  1  0
 11 41  1  0
 12 42  1  0
 12 43  1  0
 13 44  1  0
 13 45  1  0
 14 46  1  0
 14 47  1  0
 15 48  1  0
 15 49  1  0
 16 50  1  0
 16 51  1  0
 17 52  1  0
 17 53  1  0
 18 54  1  0
 18 55  1  0
 19 56  1  0
 19 57  1  0
 22 58  1  0
 22 59  1  0
 24 60  1  0
 24 61  1  0
 24 62  1  0
M  END
$$$$
