
     RDKit          3D

  8  7  0  0  0  0  0  0  0  0999 V2000
    1.4765   -0.7282    0.1260 O   0  0  0  0  0  0  0  0  0  0  0  0
    0.5179    0.2099   -0.2181 C   0  0  0  0  0  0  0  0  0  0  0  0
    0.7535    1.2381   -0.9328 O   0  0  0  0  0  0  0  0  0  0  0  0
   -0.8731    0.0024    0.2786 C   0  0  0  0  0  0  0  0  0  0  0  0
   -1.9460    1.2993   -0.2634 Cl  0  0  0  0  0  0  0  0  0  0  0  0
   -1.4759   -1.5011   -0.4273 Cl  0  0  0  0  0  0  0  0  0  0  0  0
    2.4621   -0.4405    0.0566 H   0  0  0  0  0  0  0  0  0  0  0  0
   -0.9150   -0.0799    1.3804 H   0  0  0  0  0  0  0  0  0  0  0  0
  1  2  1  0
  2  3  2  0
  2  4  1  0
  4  5  1  0
  4  6  1  0
  1  7  1  0
  4  8  1  0
M  END
$$$$
