
     RDKit          3D

 27 29  0  0  0  0  0  0  0  0999 V2000
    2.1084   -2.7813    0.3658 O   0  0  0  0  0  0  0  0  0  0  0  0
    1.5650   -1.6632    0.2275 C   0  0  0  0  0  0  0  0  0  0  0  0
    0.2223   -1.5533    0.1565 N   0  0  0  0  0  0  0  0  0  0  0  0
   -0.3937   -0.3696    0.0084 C   0  0  0  0  0  0  0  0  0  0  0  0
   -1.8336   -0.2048   -0.0725 C   0  0  0  0  0  0  0  0  0  0  0  0
   -2.3629    1.0567   -0.2248 C   0  0  0  0  0  0  0  0  0  0  0  0
   -3.7215    1.2552   -0.3055 C   0  0  0  0  0  0  0  0  0  0  0  0
   -4.5571    0.1790   -0.2329 C   0  0  0  0  0  0  0  0  0  0  0  0
   -6.4631    0.3925   -0.3395 Br  0  0  0  0  0  0  0  0  0  0  0  0
   -4.0671   -1.0982   -0.0808 C   0  0  0  0  0  0  0  0  0  0  0  0
   -2.6816   -1.2819   -0.0004 C   0  0  0  0  0  0  0  0  0  0  0  0
    0.4034    0.7150   -0.0668 N   0  0  0  0  0  0  0  0  0  0  0  0
    1.7396    0.6696   -0.0027 C   0  0  0  0  0  0  0  0  0  0  0  0
    2.5092    1.8197   -0.0857 C   0  0  0  0  0  0  0  0  0  0  0  0
    3.8820    1.7270   -0.0151 C   0  0  0  0  0  0  0  0  0  0  0  0
    4.5380    0.5205    0.1371 C   0  0  0  0  0  0  0  0  0  0  0  0
    3.7371   -0.5990    0.2157 C   0  0  0  0  0  0  0  0  0  0  0  0
    2.3703   -0.5524    0.1501 C   0  0  0  0  0  0  0  0  0  0  0  0
   -0.3558   -2.4342    0.2207 H   0  0  0  0  0  0  0  0  0  0  0  0
   -1.7481    1.9444   -0.2880 H   0  0  0  0  0  0  0  0  0  0  0  0
   -4.1642    2.2305   -0.4247 H   0  0  0  0  0  0  0  0  0  0  0  0
   -4.7163   -1.9734   -0.0204 H   0  0  0  0  0  0  0  0  0  0  0  0
   -2.3403   -2.3100    0.1197 H   0  0  0  0  0  0  0  0  0  0  0  0
    2.0303    2.7977   -0.2068 H   0  0  0  0  0  0  0  0  0  0  0  0
    4.4918    2.6410   -0.0812 H   0  0  0  0  0  0  0  0  0  0  0  0
    5.6116    0.4511    0.1920 H   0  0  0  0  0  0  0  0  0  0  0  0
    4.1965   -1.5785    0.3360 H   0  0  0  0  0  0  0  0  0  0  0  0
  1  2  2  0
  2  3  1  0
  3  4  1  0
  4  5  1  0
  5  6  2  0
  6  7  1  0
  7  8  2  0
  8  9  1  0
  8 10  1  0
 10 11  2  0
  4 12  2  0
 12 13  1  0
 13 14  2  0
 14 15  1  0
 15 16  2  0
 16 17  1  0
 17 18  2  0
 18  2  1  0
 11  5  1  0
 18 13  1  0
  3 19  1  0
  6 20  1  0
  7 21  1  0
 10 22  1  0
 11 23  1  0
 14 24  1  0
 15 25  1  0
 16 26  1  0
 17 27  1  0
M  END
$$$$
