
     RDKit          3D

 39 38  0  0  0  0  0  0  0  0999 V2000
    6.1186    1.3135   -0.4163 O   0  0  0  0  0  0  0  0  0  0  0  0
    6.4367    1.2798    0.7607 C   0  0  0  0  0  0  0  0  0  0  0  0
    5.2914    0.4968    1.2961 C   0  0  0  0  0  0  0  0  0  0  0  0
    4.3577    0.1611    0.1349 C   0  0  0  0  0  0  0  0  0  0  0  0
    3.1661   -0.6420    0.6313 C   0  0  0  0  0  0  0  0  0  0  0  0
    2.2469   -0.9791   -0.4770 C   0  0  0  0  0  0  0  0  0  0  0  0
    0.9767   -0.7173   -0.7212 C   0  0  0  0  0  0  0  0  0  0  0  0
    0.1420    0.0676    0.2030 C   0  0  0  0  0  0  0  0  0  0  0  0
   -1.0497   -0.6504    0.7580 C   0  0  0  0  0  0  0  0  0  0  0  0
   -2.0249   -1.1196   -0.2448 C   0  0  0  0  0  0  0  0  0  0  0  0
   -3.2887   -0.7236   -0.3142 C   0  0  0  0  0  0  0  0  0  0  0  0
   -4.0296    0.2202    0.5174 C   0  0  0  0  0  0  0  0  0  0  0  0
   -4.5902    1.4141   -0.2219 C   0  0  0  0  0  0  0  0  0  0  0  0
   -5.2990    2.2302    0.8339 C   0  0  0  0  0  0  0  0  0  0  0  0
   -5.5806    2.2869    2.0219 O   0  0  0  0  0  0  0  0  0  0  0  0
   -4.1193   -1.2942   -1.3724 C   0  0  0  0  0  0  0  0  0  0  0  0
   -5.3264   -1.0801   -1.6364 O   0  0  0  0  0  0  0  0  0  0  0  0
    0.4556   -1.2341   -1.9633 C   0  0  0  0  0  0  0  0  0  0  0  0
    0.1119   -1.7144   -3.0377 O   0  0  0  0  0  0  0  0  0  0  0  0
    7.2290    1.6274    1.4144 H   0  0  0  0  0  0  0  0  0  0  0  0
    4.7138    1.1215    2.0289 H   0  0  0  0  0  0  0  0  0  0  0  0
    5.6203   -0.4291    1.7732 H   0  0  0  0  0  0  0  0  0  0  0  0
    4.9387   -0.4412   -0.5938 H   0  0  0  0  0  0  0  0  0  0  0  0
    4.0271    1.0707   -0.3700 H   0  0  0  0  0  0  0  0  0  0  0  0
    2.6891   -0.0026    1.4219 H   0  0  0  0  0  0  0  0  0  0  0  0
    3.5432   -1.5372    1.1715 H   0  0  0  0  0  0  0  0  0  0  0  0
    2.8922   -1.5491   -1.1281 H   0  0  0  0  0  0  0  0  0  0  0  0
   -0.1722    0.9848   -0.3696 H   0  0  0  0  0  0  0  0  0  0  0  0
    0.7316    0.4297    1.0750 H   0  0  0  0  0  0  0  0  0  0  0  0
   -1.5953    0.0475    1.4483 H   0  0  0  0  0  0  0  0  0  0  0  0
   -0.7087   -1.5210    1.3913 H   0  0  0  0  0  0  0  0  0  0  0  0
   -1.6553   -1.8420   -0.9530 H   0  0  0  0  0  0  0  0  0  0  0  0
   -4.9427   -0.3399    0.8860 H   0  0  0  0  0  0  0  0  0  0  0  0
   -3.5373    0.5622    1.4344 H   0  0  0  0  0  0  0  0  0  0  0  0
   -5.3624    1.1318   -0.9352 H   0  0  0  0  0  0  0  0  0  0  0  0
   -3.8183    2.0692   -0.6365 H   0  0  0  0  0  0  0  0  0  0  0  0
   -5.7357    3.1179    0.3798 H   0  0  0  0  0  0  0  0  0  0  0  0
   -3.8642   -2.0136   -2.1397 H   0  0  0  0  0  0  0  0  0  0  0  0
    1.0119   -1.8023   -2.6865 H   0  0  0  0  0  0  0  0  0  0  0  0
  1  2  2  0
  2  3  1  0
  3  4  1  0
  4  5  1  0
  5  6  1  0
  6  7  2  3
  7  8  1  0
  8  9  1  0
  9 10  1  0
 10 11  2  3
 11 12  1  0
 12 13  1  0
 13 14  1  0
 14 15  2  0
 11 16  1  0
 16 17  2  0
  7 18  1  0
 18 19  2  0
  2 20  1  0
  3 21  1  0
  3 22  1  0
  4 23  1  0
  4 24  1  0
  5 25  1  0
  5 26  1  0
  6 27  1  0
  8 28  1  0
  8 29  1  0
  9 30  1  0
  9 31  1  0
 10 32  1  0
 12 33  1  0
 12 34  1  0
 13 35  1  0
 13 36  1  0
 14 37  1  0
 16 38  1  0
 18 39  1  0
M  END
$$$$
