
     RDKit          3D

 63 66  0  0  0  0  0  0  0  0999 V2000
    0.9042   -2.6091    1.5196 C   0  0  0  0  0  0  0  0  0  0  0  0
    1.0123   -1.0655    1.4302 C   0  0  1  0  0  0  0  0  0  0  0  0
    2.3127   -0.7942    0.8038 C   0  0  0  0  0  0  0  0  0  0  0  0
    3.1873    0.0864    1.4545 C   0  0  0  0  0  0  0  0  0  0  0  0
    4.4323    0.3785    0.9496 C   0  0  0  0  0  0  0  0  0  0  0  0
    4.8664   -0.1923   -0.2273 C   0  0  0  0  0  0  0  0  0  0  0  0
    6.2086    0.1452   -0.7468 C   0  0  0  0  0  0  0  0  0  0  0  0
    7.2496    0.4398    0.0936 C   0  0  0  0  0  0  0  0  0  0  0  0
    8.4817    0.7539   -0.4281 C   0  0  0  0  0  0  0  0  0  0  0  0
    8.7124    0.7846   -1.7615 N   0  0  0  0  0  0  0  0  0  0  0  0
    7.6731    0.4909   -2.5683 C   0  0  0  0  0  0  0  0  0  0  0  0
    7.8352    0.5051   -3.8375 O   0  0  0  0  0  0  0  0  0  0  0  0
    6.4165    0.1690   -2.1043 C   0  0  0  0  0  0  0  0  0  0  0  0
    4.0103   -1.0579   -0.8685 C   0  0  0  0  0  0  0  0  0  0  0  0
    2.7374   -1.3616   -0.3593 C   0  0  0  0  0  0  0  0  0  0  0  0
   -0.1425   -0.5971    0.7399 N   0  0  0  0  0  0  0  0  0  0  0  0
   -0.5086   -0.7925   -0.6284 C   0  0  0  0  0  0  0  0  0  0  0  0
   -1.5886    0.1229   -1.1327 C   0  0  0  0  0  0  0  0  0  0  0  0
   -2.8105    0.1865   -0.2100 C   0  0  2  0  0  0  0  0  0  0  0  0
   -3.7172   -0.9649   -0.4118 C   0  0  0  0  0  0  0  0  0  0  0  0
   -4.9259   -1.0394    0.4676 C   0  0  0  0  0  0  0  0  0  0  0  0
   -4.4432   -1.1199    1.9249 C   0  0  0  0  0  0  0  0  0  0  0  0
   -5.7101   -2.3364    0.1813 C   0  0  0  0  0  0  0  0  0  0  0  0
   -5.8888    0.0373    0.3236 C   0  0  0  0  0  0  0  0  0  0  0  0
   -6.6293    0.8851    0.2262 N   0  0  0  0  0  0  0  0  0  0  0  0
   -3.4042    1.5208   -0.5105 C   0  0  0  0  0  0  0  0  0  0  0  0
   -3.1283    2.5576    0.3439 C   0  0  0  0  0  0  0  0  0  0  0  0
   -3.6323    3.8216    0.0762 C   0  0  0  0  0  0  0  0  0  0  0  0
   -4.4115    4.0425   -1.0468 C   0  0  0  0  0  0  0  0  0  0  0  0
   -4.7007    3.0110   -1.9193 C   0  0  0  0  0  0  0  0  0  0  0  0
   -4.1834    1.7595   -1.6255 C   0  0  0  0  0  0  0  0  0  0  0  0
   -2.4024    0.2086    1.1397 O   0  0  0  0  0  0  0  0  0  0  0  0
   -1.0727    0.1860    1.5254 C   0  0  0  0  0  0  0  0  0  0  0  0
   -0.6995    0.8267    2.5240 O   0  0  0  0  0  0  0  0  0  0  0  0
    1.9064   -3.0499    1.7552 H   0  0  0  0  0  0  0  0  0  0  0  0
    0.2335   -2.9063    2.3400 H   0  0  0  0  0  0  0  0  0  0  0  0
    0.6099   -3.0132    0.5343 H   0  0  0  0  0  0  0  0  0  0  0  0
    1.0245   -0.7367    2.4984 H   0  0  0  0  0  0  0  0  0  0  0  0
    2.8475    0.5356    2.3764 H   0  0  0  0  0  0  0  0  0  0  0  0
    5.1309    1.0654    1.4411 H   0  0  0  0  0  0  0  0  0  0  0  0
    7.0840    0.4193    1.1772 H   0  0  0  0  0  0  0  0  0  0  0  0
    9.2933    0.9835    0.2573 H   0  0  0  0  0  0  0  0  0  0  0  0
    9.6539    1.0255   -2.1641 H   0  0  0  0  0  0  0  0  0  0  0  0
    5.6113   -0.0608   -2.8151 H   0  0  0  0  0  0  0  0  0  0  0  0
    4.3333   -1.5095   -1.7894 H   0  0  0  0  0  0  0  0  0  0  0  0
    2.0933   -2.0584   -0.8770 H   0  0  0  0  0  0  0  0  0  0  0  0
    0.3654   -0.5976   -1.2993 H   0  0  0  0  0  0  0  0  0  0  0  0
   -0.8504   -1.8418   -0.8378 H   0  0  0  0  0  0  0  0  0  0  0  0
   -1.8908   -0.2402   -2.1291 H   0  0  0  0  0  0  0  0  0  0  0  0
   -1.1440    1.1301   -1.2123 H   0  0  0  0  0  0  0  0  0  0  0  0
   -4.0656   -1.0952   -1.4603 H   0  0  0  0  0  0  0  0  0  0  0  0
   -3.0884   -1.8935   -0.2366 H   0  0  0  0  0  0  0  0  0  0  0  0
   -5.1980   -1.7513    2.4537 H   0  0  0  0  0  0  0  0  0  0  0  0
   -3.4906   -1.6724    1.9885 H   0  0  0  0  0  0  0  0  0  0  0  0
   -4.3250   -0.1399    2.3835 H   0  0  0  0  0  0  0  0  0  0  0  0
   -5.0325   -3.1811    0.0404 H   0  0  0  0  0  0  0  0  0  0  0  0
   -6.3911   -2.4469    1.0551 H   0  0  0  0  0  0  0  0  0  0  0  0
   -6.3579   -2.1258   -0.6871 H   0  0  0  0  0  0  0  0  0  0  0  0
   -2.5142    2.4348    1.2513 H   0  0  0  0  0  0  0  0  0  0  0  0
   -3.3942    4.6194    0.7739 H   0  0  0  0  0  0  0  0  0  0  0  0
   -4.7998    5.0332   -1.2476 H   0  0  0  0  0  0  0  0  0  0  0  0
   -5.3041    3.1556   -2.8024 H   0  0  0  0  0  0  0  0  0  0  0  0
   -4.3812    0.9291   -2.2725 H   0  0  0  0  0  0  0  0  0  0  0  0
  1  2  1  0
  2  3  1  0
  3  4  2  0
  4  5  1  0
  5  6  2  0
  6  7  1  0
  7  8  1  0
  8  9  2  0
  9 10  1  0
 10 11  1  0
 11 12  2  0
 11 13  1  0
  6 14  1  0
 14 15  2  0
  2 16  1  0
 16 17  1  0
 17 18  1  0
 18 19  1  0
 19 20  1  1
 20 21  1  0
 21 22  1  0
 21 23  1  0
 21 24  1  0
 24 25  3  0
 19 26  1  0
 26 27  2  0
 27 28  1  0
 28 29  2  0
 29 30  1  0
 30 31  2  0
 19 32  1  0
 32 33  1  0
 33 34  2  0
 15  3  1  0
 33 16  1  0
 13  7  2  0
 31 26  1  0
  1 35  1  0
  1 36  1  0
  1 37  1  0
  2 38  1  1
  4 39  1  0
  5 40  1  0
  8 41  1  0
  9 42  1  0
 10 43  1  0
 13 44  1  0
 14 45  1  0
 15 46  1  0
 17 47  1  0
 17 48  1  0
 18 49  1  0
 18 50  1  0
 20 51  1  0
 20 52  1  0
 22 53  1  0
 22 54  1  0
 22 55  1  0
 23 56  1  0
 23 57  1  0
 23 58  1  0
 27 59  1  0
 28 60  1  0
 29 61  1  0
 30 62  1  0
 31 63  1  0
M  END
$$$$
