
     RDKit          3D

 62 67  0  0  0  0  0  0  0  0999 V2000
   -1.2206    0.0253   -2.4104 C   0  0  0  0  0  0  0  0  0  0  0  0
   -0.3543   -0.8694   -1.5392 C   0  0  2  0  0  0  0  0  0  0  0  0
    1.0646   -0.5456   -1.9038 C   0  0  0  0  0  0  0  0  0  0  0  0
    1.9652   -0.1837   -0.9404 C   0  0  0  0  0  0  0  0  0  0  0  0
    3.2714    0.1119   -1.2683 C   0  0  0  0  0  0  0  0  0  0  0  0
    4.1910    0.4975   -0.2006 C   0  0  0  0  0  0  0  0  0  0  0  0
    5.4527    0.1104   -0.1732 C   0  0  0  0  0  0  0  0  0  0  0  0
    5.8337   -0.6817   -1.2232 F   0  0  0  0  0  0  0  0  0  0  0  0
    6.3909    0.4794    0.8738 C   0  0  0  0  0  0  0  0  0  0  0  0
    6.0984    1.2642    1.9585 C   0  0  0  0  0  0  0  0  0  0  0  0
    7.0706    1.5713    2.9200 C   0  0  0  0  0  0  0  0  0  0  0  0
    8.3498    1.0837    2.7884 C   0  0  0  0  0  0  0  0  0  0  0  0
    9.3859    1.3728    3.7525 C   0  0  0  0  0  0  0  0  0  0  0  0
   10.2327    1.6224    4.5232 N   0  0  0  0  0  0  0  0  0  0  0  0
    8.6144    0.2984    1.6897 C   0  0  0  0  0  0  0  0  0  0  0  0
    7.6593    0.0111    0.7672 N   0  0  0  0  0  0  0  0  0  0  0  0
    3.6315    0.0292   -2.5929 C   0  0  0  0  0  0  0  0  0  0  0  0
    2.7232   -0.3369   -3.5695 C   0  0  0  0  0  0  0  0  0  0  0  0
    1.4282   -0.6259   -3.2161 C   0  0  0  0  0  0  0  0  0  0  0  0
    0.5381   -0.9886   -4.2021 F   0  0  0  0  0  0  0  0  0  0  0  0
   -0.5743   -2.2284   -1.9493 N   0  0  0  0  0  0  0  0  0  0  0  0
   -1.6148   -2.8780   -1.6407 C   0  0  0  0  0  0  0  0  0  0  0  0
   -1.7860   -4.2134   -2.0698 N   0  0  0  0  0  0  0  0  0  0  0  0
   -2.8560   -2.0778   -0.6458 S   0  0  0  0  0  0  0  0  0  0  0  0
   -1.9104   -0.9657    0.4670 C   0  0  1  0  0  0  0  0  0  0  0  0
   -2.6476   -0.0989    1.4037 C   0  0  0  0  0  0  0  0  0  0  0  0
   -2.0449    0.1896    2.4973 O   0  0  0  0  0  0  0  0  0  0  0  0
   -3.9463    0.4240    1.1843 N   0  0  0  0  0  0  0  0  0  0  0  0
   -4.5624    1.2842    2.1741 C   0  0  0  0  0  0  0  0  0  0  0  0
   -5.2743    2.4641    1.5807 C   0  0  0  0  0  0  0  0  0  0  0  0
   -5.6292    2.2998    0.2500 O   0  0  0  0  0  0  0  0  0  0  0  0
   -5.9752    0.9821    0.0556 C   0  0  0  0  0  0  0  0  0  0  0  0
   -7.2144    0.4154    0.6585 C   0  0  0  0  0  0  0  0  0  0  0  0
   -7.0896    0.6276   -0.8579 C   0  0  0  0  0  0  0  0  0  0  0  0
   -4.7072    0.1187   -0.0014 C   0  0  0  0  0  0  0  0  0  0  0  0
   -0.5828   -1.5615    0.9542 C   0  0  0  0  0  0  0  0  0  0  0  0
   -0.6292   -0.5643   -0.1075 C   0  0  1  0  0  0  0  0  0  0  0  0
   -1.6515   -0.5575   -3.2283 H   0  0  0  0  0  0  0  0  0  0  0  0
   -1.9957    0.5246   -1.7941 H   0  0  0  0  0  0  0  0  0  0  0  0
   -0.5829    0.8061   -2.9125 H   0  0  0  0  0  0  0  0  0  0  0  0
    1.6809   -0.1162    0.1238 H   0  0  0  0  0  0  0  0  0  0  0  0
    3.8511    1.1256    0.6142 H   0  0  0  0  0  0  0  0  0  0  0  0
    5.1070    1.6470    2.0688 H   0  0  0  0  0  0  0  0  0  0  0  0
    6.8450    2.1868    3.7726 H   0  0  0  0  0  0  0  0  0  0  0  0
    9.6199   -0.0834    1.5893 H   0  0  0  0  0  0  0  0  0  0  0  0
    4.6366    0.2499   -2.9167 H   0  0  0  0  0  0  0  0  0  0  0  0
    2.9982   -0.4047   -4.6152 H   0  0  0  0  0  0  0  0  0  0  0  0
   -1.2163   -4.6285   -2.8563 H   0  0  0  0  0  0  0  0  0  0  0  0
   -2.4837   -4.8787   -1.6410 H   0  0  0  0  0  0  0  0  0  0  0  0
   -3.7908    1.5811    2.9206 H   0  0  0  0  0  0  0  0  0  0  0  0
   -5.3464    0.6412    2.6700 H   0  0  0  0  0  0  0  0  0  0  0  0
   -6.2450    2.6355    2.1291 H   0  0  0  0  0  0  0  0  0  0  0  0
   -4.6575    3.4038    1.6450 H   0  0  0  0  0  0  0  0  0  0  0  0
   -7.9183    1.0540    1.2160 H   0  0  0  0  0  0  0  0  0  0  0  0
   -7.1234   -0.6197    1.0317 H   0  0  0  0  0  0  0  0  0  0  0  0
   -7.7707    1.4057   -1.2563 H   0  0  0  0  0  0  0  0  0  0  0  0
   -6.9794   -0.3246   -1.4382 H   0  0  0  0  0  0  0  0  0  0  0  0
   -4.1792    0.2413   -0.9417 H   0  0  0  0  0  0  0  0  0  0  0  0
   -5.0886   -0.9299    0.1506 H   0  0  0  0  0  0  0  0  0  0  0  0
   -0.4247   -2.6404    0.7867 H   0  0  0  0  0  0  0  0  0  0  0  0
   -0.2849   -1.2503    1.9957 H   0  0  0  0  0  0  0  0  0  0  0  0
   -0.2817    0.4678    0.1983 H   0  0  0  0  0  0  0  0  0  0  0  0
  2  1  1  6
  2  3  1  0
  3  4  2  0
  4  5  1  0
  5  6  1  0
  6  7  2  0
  7  8  1  0
  7  9  1  0
  9 10  2  0
 10 11  1  0
 11 12  2  0
 12 13  1  0
 13 14  3  0
 12 15  1  0
 15 16  2  0
  5 17  2  0
 17 18  1  0
 18 19  2  0
 19 20  1  0
  2 21  1  0
 21 22  2  0
 22 23  1  0
 22 24  1  0
 24 25  1  0
 25 26  1  1
 26 27  2  0
 26 28  1  0
 28 29  1  0
 29 30  1  0
 30 31  1  0
 31 32  1  0
 32 33  1  0
 33 34  1  0
 32 35  1  0
 25 36  1  0
 36 37  1  0
 37  2  1  0
 19  3  1  0
 37 25  1  0
 16  9  1  0
 35 28  1  0
 34 32  1  0
  1 38  1  0
  1 39  1  0
  1 40  1  0
  4 41  1  0
  6 42  1  0
 10 43  1  0
 11 44  1  0
 15 45  1  0
 17 46  1  0
 18 47  1  0
 23 48  1  0
 23 49  1  0
 29 50  1  0
 29 51  1  0
 30 52  1  0
 30 53  1  0
 33 54  1  0
 33 55  1  0
 34 56  1  0
 34 57  1  0
 35 58  1  0
 35 59  1  0
 36 60  1  0
 36 61  1  0
 37 62  1  1
M  END
$$$$
