
     RDKit          3D

 56 58  0  0  0  0  0  0  0  0999 V2000
   -3.0247    4.8104    1.7314 C   0  0  0  0  0  0  0  0  0  0  0  0
   -2.1884    3.9404    1.0109 O   0  0  0  0  0  0  0  0  0  0  0  0
   -2.7061    2.8996    0.2592 C   0  0  0  0  0  0  0  0  0  0  0  0
   -4.0728    2.7249    0.2261 C   0  0  0  0  0  0  0  0  0  0  0  0
   -4.6077    1.6926   -0.5178 C   0  0  0  0  0  0  0  0  0  0  0  0
   -3.7688    0.8538   -1.2141 C   0  0  0  0  0  0  0  0  0  0  0  0
   -2.3743    1.0005   -1.2045 C   0  0  0  0  0  0  0  0  0  0  0  0
   -1.5721    0.0582   -1.9763 C   0  0  0  0  0  0  0  0  0  0  0  0
   -1.0419   -1.0760   -1.2918 N   0  0  0  0  0  0  0  0  0  0  0  0
   -1.8373   -2.2823   -1.1821 C   0  0  0  0  0  0  0  0  0  0  0  0
   -2.6266   -2.3930    0.0851 C   0  0  0  0  0  0  0  0  0  0  0  0
   -3.3687   -3.6125    0.0769 N   0  0  0  0  0  0  0  0  0  0  0  0
   -4.4255   -3.6958   -0.8814 C   0  0  0  0  0  0  0  0  0  0  0  0
   -2.6028   -4.8162    0.1897 C   0  0  0  0  0  0  0  0  0  0  0  0
    0.2525   -1.0701   -0.7529 C   0  0  0  0  0  0  0  0  0  0  0  0
    0.6383   -2.0849   -0.1373 O   0  0  0  0  0  0  0  0  0  0  0  0
    1.1144    0.0306   -0.8863 N   0  0  0  0  0  0  0  0  0  0  0  0
    2.4406    0.1480   -0.3780 C   0  0  0  0  0  0  0  0  0  0  0  0
    3.1109   -0.7844    0.3344 C   0  0  0  0  0  0  0  0  0  0  0  0
    4.3985   -0.5628    0.7805 C   0  0  0  0  0  0  0  0  0  0  0  0
    5.0502    0.6038    0.5233 C   0  0  0  0  0  0  0  0  0  0  0  0
    6.4214    0.8522    0.9959 C   0  0  0  0  0  0  0  0  0  0  0  0
    7.4165   -0.0770    1.1652 C   0  0  0  0  0  0  0  0  0  0  0  0
    8.5046    0.5960    1.6127 N   0  0  0  0  0  0  0  0  0  0  0  0
    8.2401    1.8838    1.7291 N   0  0  0  0  0  0  0  0  0  0  0  0
    6.9541    2.0610    1.3513 C   0  0  0  0  0  0  0  0  0  0  0  0
    4.3689    1.5544   -0.2023 C   0  0  0  0  0  0  0  0  0  0  0  0
    3.1024    1.3489   -0.6469 C   0  0  0  0  0  0  0  0  0  0  0  0
   -1.8768    2.0289   -0.4609 C   0  0  0  0  0  0  0  0  0  0  0  0
   -3.6862    4.2575    2.4377 H   0  0  0  0  0  0  0  0  0  0  0  0
   -3.6109    5.4449    1.0416 H   0  0  0  0  0  0  0  0  0  0  0  0
   -2.3882    5.4917    2.3449 H   0  0  0  0  0  0  0  0  0  0  0  0
   -4.7174    3.4076    0.7896 H   0  0  0  0  0  0  0  0  0  0  0  0
   -5.6880    1.5904   -0.5182 H   0  0  0  0  0  0  0  0  0  0  0  0
   -4.2193    0.0563   -1.7857 H   0  0  0  0  0  0  0  0  0  0  0  0
   -0.7737    0.5857   -2.5793 H   0  0  0  0  0  0  0  0  0  0  0  0
   -2.2082   -0.3972   -2.8264 H   0  0  0  0  0  0  0  0  0  0  0  0
   -1.1093   -3.1440   -1.2129 H   0  0  0  0  0  0  0  0  0  0  0  0
   -2.5339   -2.3764   -2.0495 H   0  0  0  0  0  0  0  0  0  0  0  0
   -3.2824   -1.5185    0.1962 H   0  0  0  0  0  0  0  0  0  0  0  0
   -1.9068   -2.4713    0.9427 H   0  0  0  0  0  0  0  0  0  0  0  0
   -5.0985   -4.5413   -0.5989 H   0  0  0  0  0  0  0  0  0  0  0  0
   -5.0625   -2.8046   -0.9169 H   0  0  0  0  0  0  0  0  0  0  0  0
   -3.9429   -3.8990   -1.8803 H   0  0  0  0  0  0  0  0  0  0  0  0
   -2.8934   -5.4682   -0.6849 H   0  0  0  0  0  0  0  0  0  0  0  0
   -1.5366   -4.5934    0.1339 H   0  0  0  0  0  0  0  0  0  0  0  0
   -2.8746   -5.4158    1.0897 H   0  0  0  0  0  0  0  0  0  0  0  0
    0.7565    0.8684   -1.4288 H   0  0  0  0  0  0  0  0  0  0  0  0
    2.6193   -1.7360    0.5621 H   0  0  0  0  0  0  0  0  0  0  0  0
    4.8690   -1.3587    1.3445 H   0  0  0  0  0  0  0  0  0  0  0  0
    7.3826   -1.1423    0.9889 H   0  0  0  0  0  0  0  0  0  0  0  0
    8.8338    2.6773    2.0385 H   0  0  0  0  0  0  0  0  0  0  0  0
    6.4225    2.9964    1.3281 H   0  0  0  0  0  0  0  0  0  0  0  0
    4.9135    2.4873   -0.3978 H   0  0  0  0  0  0  0  0  0  0  0  0
    2.6254    2.1536   -1.2194 H   0  0  0  0  0  0  0  0  0  0  0  0
   -0.8087    2.2162   -0.3967 H   0  0  0  0  0  0  0  0  0  0  0  0
  1  2  1  0
  2  3  1  0
  3  4  2  0
  4  5  1  0
  5  6  2  0
  6  7  1  0
  7  8  1  0
  8  9  1  0
  9 10  1  0
 10 11  1  0
 11 12  1  0
 12 13  1  0
 12 14  1  0
  9 15  1  0
 15 16  2  0
 15 17  1  0
 17 18  1  0
 18 19  2  0
 19 20  1  0
 20 21  2  0
 21 22  1  0
 22 23  1  0
 23 24  2  0
 24 25  1  0
 25 26  1  0
 21 27  1  0
 27 28  2  0
  7 29  2  0
 29  3  1  0
 28 18  1  0
 26 22  2  0
  1 30  1  0
  1 31  1  0
  1 32  1  0
  4 33  1  0
  5 34  1  0
  6 35  1  0
  8 36  1  0
  8 37  1  0
 10 38  1  0
 10 39  1  0
 11 40  1  0
 11 41  1  0
 13 42  1  0
 13 43  1  0
 13 44  1  0
 14 45  1  0
 14 46  1  0
 14 47  1  0
 17 48  1  0
 19 49  1  0
 20 50  1  0
 23 51  1  0
 25 52  1  0
 26 53  1  0
 27 54  1  0
 28 55  1  0
 29 56  1  0
M  END
$$$$
