
     RDKit          3D

 72 76  0  0  0  0  0  0  0  0999 V2000
    0.3231    2.2025    3.3756 O   0  0  0  0  0  0  0  0  0  0  0  0
    0.6135    2.2024    2.1422 C   0  0  0  0  0  0  0  0  0  0  0  0
    1.8545    2.6560    1.5318 C   0  0  0  0  0  0  0  0  0  0  0  0
    2.8383    3.1234    2.1522 O   0  0  0  0  0  0  0  0  0  0  0  0
    1.6832    2.4489    0.1345 N   0  0  0  0  0  0  0  0  0  0  0  0
    2.6901    2.7691   -0.8542 C   0  0  0  0  0  0  0  0  0  0  0  0
    3.5774    1.6000   -1.0509 C   0  0  0  0  0  0  0  0  0  0  0  0
    3.3282    0.6325   -1.9927 C   0  0  0  0  0  0  0  0  0  0  0  0
    4.1489   -0.4419   -2.1662 C   0  0  0  0  0  0  0  0  0  0  0  0
    5.2958   -0.6035   -1.3785 C   0  0  0  0  0  0  0  0  0  0  0  0
    6.0874   -1.7117   -1.5948 O   0  0  0  0  0  0  0  0  0  0  0  0
    7.2689   -1.9297   -0.8948 C   0  0  0  0  0  0  0  0  0  0  0  0
    8.2843   -0.8940   -1.2445 C   0  0  0  0  0  0  0  0  0  0  0  0
    9.4967   -1.0358   -0.5698 O   0  0  0  0  0  0  0  0  0  0  0  0
    9.4041   -0.9630    0.7952 C   0  0  0  0  0  0  0  0  0  0  0  0
   10.8169   -1.1346    1.3415 C   0  0  0  0  0  0  0  0  0  0  0  0
   11.3658   -2.3323    0.9848 F   0  0  0  0  0  0  0  0  0  0  0  0
    5.5167    0.3765   -0.4476 C   0  0  0  0  0  0  0  0  0  0  0  0
    4.6881    1.4782   -0.2604 C   0  0  0  0  0  0  0  0  0  0  0  0
    0.4044    1.8941   -0.1341 C   0  0  0  0  0  0  0  0  0  0  0  0
   -0.2643    1.5057   -1.2925 C   0  0  0  0  0  0  0  0  0  0  0  0
   -1.5566    0.9775   -1.2362 C   0  0  0  0  0  0  0  0  0  0  0  0
   -2.1884    0.8337   -0.0276 C   0  0  0  0  0  0  0  0  0  0  0  0
   -3.8286    0.1776    0.1194 S   0  0  0  0  0  6  0  0  0  0  0  0
   -4.4513    0.8284    1.2961 O   0  0  0  0  0  0  0  0  0  0  0  0
   -4.5230    0.6235   -1.1653 O   0  0  0  0  0  0  0  0  0  0  0  0
   -3.7080   -1.5039    0.1990 N   0  0  0  0  0  0  0  0  0  0  0  0
   -2.9537   -1.9384    1.3403 C   0  0  0  0  0  0  0  0  0  0  0  0
   -4.0149   -2.3141    2.3864 C   0  0  0  0  0  0  0  0  0  0  0  0
   -5.1729   -2.8231    1.5547 C   0  0  0  0  0  0  0  0  0  0  0  0
   -4.8869   -2.2647    0.1997 C   0  0  1  0  0  0  0  0  0  0  0  0
   -6.1032   -1.6229   -0.4259 C   0  0  0  0  0  0  0  0  0  0  0  0
   -6.4894   -0.4422    0.2066 O   0  0  0  0  0  0  0  0  0  0  0  0
   -7.5877    0.2929   -0.2137 C   0  0  0  0  0  0  0  0  0  0  0  0
   -8.3696   -0.0712   -1.2639 C   0  0  0  0  0  0  0  0  0  0  0  0
   -9.4459    0.7397   -1.5990 C   0  0  0  0  0  0  0  0  0  0  0  0
   -9.7526    1.8963   -0.9111 C   0  0  0  0  0  0  0  0  0  0  0  0
   -8.9488    2.2524    0.1531 C   0  0  0  0  0  0  0  0  0  0  0  0
   -7.8832    1.4490    0.4844 C   0  0  0  0  0  0  0  0  0  0  0  0
   -1.5105    1.2238    1.1067 C   0  0  0  0  0  0  0  0  0  0  0  0
   -0.2348    1.7457    1.0558 C   0  0  0  0  0  0  0  0  0  0  0  0
    2.1894    3.0674   -1.8123 H   0  0  0  0  0  0  0  0  0  0  0  0
    3.2881    3.6454   -0.5077 H   0  0  0  0  0  0  0  0  0  0  0  0
    2.4359    0.7349   -2.6245 H   0  0  0  0  0  0  0  0  0  0  0  0
    3.9246   -1.1816   -2.9133 H   0  0  0  0  0  0  0  0  0  0  0  0
    7.6840   -2.9511   -1.1440 H   0  0  0  0  0  0  0  0  0  0  0  0
    7.0007   -1.9261    0.1903 H   0  0  0  0  0  0  0  0  0  0  0  0
    8.5854   -1.1653   -2.3313 H   0  0  0  0  0  0  0  0  0  0  0  0
    7.9247    0.1241   -1.3535 H   0  0  0  0  0  0  0  0  0  0  0  0
    8.6926   -1.6361    1.2718 H   0  0  0  0  0  0  0  0  0  0  0  0
    9.1008    0.0787    1.0950 H   0  0  0  0  0  0  0  0  0  0  0  0
   11.4236   -0.3326    0.8408 H   0  0  0  0  0  0  0  0  0  0  0  0
   10.8634   -1.0263    2.4275 H   0  0  0  0  0  0  0  0  0  0  0  0
    6.3864    0.2845    0.2266 H   0  0  0  0  0  0  0  0  0  0  0  0
    4.9603    2.1956    0.5074 H   0  0  0  0  0  0  0  0  0  0  0  0
    0.2545    1.6307   -2.2272 H   0  0  0  0  0  0  0  0  0  0  0  0
   -2.0631    0.6802   -2.1437 H   0  0  0  0  0  0  0  0  0  0  0  0
   -2.3647   -2.8618    1.0699 H   0  0  0  0  0  0  0  0  0  0  0  0
   -2.2214   -1.2323    1.7250 H   0  0  0  0  0  0  0  0  0  0  0  0
   -3.5650   -3.1499    2.9626 H   0  0  0  0  0  0  0  0  0  0  0  0
   -4.2788   -1.4655    3.0238 H   0  0  0  0  0  0  0  0  0  0  0  0
   -5.1777   -3.9377    1.5928 H   0  0  0  0  0  0  0  0  0  0  0  0
   -6.1515   -2.5076    1.9671 H   0  0  0  0  0  0  0  0  0  0  0  0
   -4.6878   -3.1669   -0.4603 H   0  0  0  0  0  0  0  0  0  0  0  0
   -6.9253   -2.3586   -0.3758 H   0  0  0  0  0  0  0  0  0  0  0  0
   -5.8678   -1.4048   -1.4751 H   0  0  0  0  0  0  0  0  0  0  0  0
   -8.1291   -0.9764   -1.8017 H   0  0  0  0  0  0  0  0  0  0  0  0
  -10.0632    0.4392   -2.4393 H   0  0  0  0  0  0  0  0  0  0  0  0
  -10.6113    2.5002   -1.2147 H   0  0  0  0  0  0  0  0  0  0  0  0
   -9.1661    3.1442    0.7019 H   0  0  0  0  0  0  0  0  0  0  0  0
   -7.2467    1.7367    1.3319 H   0  0  0  0  0  0  0  0  0  0  0  0
   -2.0071    1.1156    2.0695 H   0  0  0  0  0  0  0  0  0  0  0  0
  1  2  2  0
  2  3  1  0
  3  4  2  0
  3  5  1  0
  5  6  1  0
  6  7  1  0
  7  8  2  0
  8  9  1  0
  9 10  2  0
 10 11  1  0
 11 12  1  0
 12 13  1  0
 13 14  1  0
 14 15  1  0
 15 16  1  0
 16 17  1  0
 10 18  1  0
 18 19  2  0
  5 20  1  0
 20 21  2  0
 21 22  1  0
 22 23  2  0
 23 24  1  0
 24 25  2  0
 24 26  2  0
 24 27  1  0
 27 28  1  0
 28 29  1  0
 29 30  1  0
 30 31  1  0
 31 32  1  0
 32 33  1  0
 33 34  1  0
 34 35  2  0
 35 36  1  0
 36 37  2  0
 37 38  1  0
 38 39  2  0
 23 40  1  0
 40 41  2  0
 41  2  1  0
 19  7  1  0
 41 20  1  0
 31 27  1  0
 39 34  1  0
  6 42  1  0
  6 43  1  0
  8 44  1  0
  9 45  1  0
 12 46  1  0
 12 47  1  0
 13 48  1  0
 13 49  1  0
 15 50  1  0
 15 51  1  0
 16 52  1  0
 16 53  1  0
 18 54  1  0
 19 55  1  0
 21 56  1  0
 22 57  1  0
 28 58  1  0
 28 59  1  0
 29 60  1  0
 29 61  1  0
 30 62  1  0
 30 63  1  0
 31 64  1  6
 32 65  1  0
 32 66  1  0
 35 67  1  0
 36 68  1  0
 37 69  1  0
 38 70  1  0
 39 71  1  0
 40 72  1  0
M  END
$$$$
