
     RDKit          3D

 55 58  0  0  0  0  0  0  0  0999 V2000
   -2.0786    0.3589    0.0339 C   0  0  2  0  0  0  0  0  0  0  0  0
   -2.6035    1.5074   -0.7659 C   0  0  0  0  0  0  0  0  0  0  0  0
   -1.1252   -0.4017   -0.7359 N   0  0  0  0  0  0  0  0  0  0  0  0
   -1.3352   -1.0782   -1.9998 C   0  0  0  0  0  0  0  0  0  0  0  0
   -0.4284   -2.3134   -1.8948 C   0  0  0  0  0  0  0  0  0  0  0  0
    0.8249   -1.6614   -1.3759 C   0  0  2  0  0  0  0  0  0  0  0  0
    1.7206   -2.5149   -0.7069 N   0  0  0  0  0  0  0  0  0  0  0  0
    3.3271   -2.5280   -1.2861 S   0  0  0  0  0  0  0  0  0  0  0  0
    4.1434   -3.4354   -0.3991 O   0  0  0  0  0  0  0  0  0  0  0  0
    3.4437   -2.9230   -2.7110 O   0  0  0  0  0  0  0  0  0  0  0  0
    3.9784   -0.9125   -1.0972 C   0  0  0  0  0  0  0  0  0  0  0  0
    4.6308   -0.5345    0.0601 C   0  0  0  0  0  0  0  0  0  0  0  0
    5.1851    0.6990    0.3314 C   0  0  0  0  0  0  0  0  0  0  0  0
    5.8121    0.9515    1.5301 C   0  0  0  0  0  0  0  0  0  0  0  0
    6.3242    2.2262    1.6755 C   0  0  0  0  0  0  0  0  0  0  0  0
    6.2034    3.1707    0.6694 C   0  0  0  0  0  0  0  0  0  0  0  0
    6.8822    4.7638    0.9372 Cl  0  0  0  0  0  0  0  0  0  0  0  0
    5.5687    2.8875   -0.5225 C   0  0  0  0  0  0  0  0  0  0  0  0
    5.0484    1.6251   -0.6955 C   0  0  0  0  0  0  0  0  0  0  0  0
    4.4049    1.3073   -1.8800 C   0  0  0  0  0  0  0  0  0  0  0  0
    3.8848    0.0646   -2.0681 C   0  0  0  0  0  0  0  0  0  0  0  0
    0.2587   -0.6649   -0.4290 C   0  0  0  0  0  0  0  0  0  0  0  0
    0.8472   -0.0926    0.5271 O   0  0  0  0  0  0  0  0  0  0  0  0
   -3.1994   -0.5357    0.4291 C   0  0  0  0  0  0  0  0  0  0  0  0
   -3.0188   -1.7020   -0.0059 O   0  0  0  0  0  0  0  0  0  0  0  0
   -4.3092   -0.0883    1.1983 N   0  0  0  0  0  0  0  0  0  0  0  0
   -4.6696    1.1964    1.7695 C   0  0  0  0  0  0  0  0  0  0  0  0
   -5.6170    0.9201    2.9274 C   0  0  0  0  0  0  0  0  0  0  0  0
   -6.8306    0.4593    2.4232 O   0  0  0  0  0  0  0  0  0  0  0  0
   -6.6582   -0.4633    1.3953 C   0  0  0  0  0  0  0  0  0  0  0  0
   -5.2994   -1.1322    1.4789 C   0  0  0  0  0  0  0  0  0  0  0  0
   -1.6171    0.7599    0.9602 H   0  0  0  0  0  0  0  0  0  0  0  0
   -3.1564    1.1444   -1.6744 H   0  0  0  0  0  0  0  0  0  0  0  0
   -3.2252    2.1709   -0.1658 H   0  0  0  0  0  0  0  0  0  0  0  0
   -1.7197    2.1055   -1.1025 H   0  0  0  0  0  0  0  0  0  0  0  0
   -2.3726   -1.3237   -2.2159 H   0  0  0  0  0  0  0  0  0  0  0  0
   -0.9001   -0.4502   -2.8325 H   0  0  0  0  0  0  0  0  0  0  0  0
   -0.3282   -2.6966   -2.9234 H   0  0  0  0  0  0  0  0  0  0  0  0
   -0.9021   -2.9968   -1.1913 H   0  0  0  0  0  0  0  0  0  0  0  0
    1.2702   -1.0870   -2.2139 H   0  0  0  0  0  0  0  0  0  0  0  0
    1.7449   -2.2846    0.3100 H   0  0  0  0  0  0  0  0  0  0  0  0
    4.7124   -1.2921    0.8332 H   0  0  0  0  0  0  0  0  0  0  0  0
    5.8741    0.1729    2.2762 H   0  0  0  0  0  0  0  0  0  0  0  0
    6.8299    2.4833    2.6009 H   0  0  0  0  0  0  0  0  0  0  0  0
    5.4876    3.6397   -1.2900 H   0  0  0  0  0  0  0  0  0  0  0  0
    4.3453    2.0993   -2.6311 H   0  0  0  0  0  0  0  0  0  0  0  0
    3.3750   -0.1823   -3.0107 H   0  0  0  0  0  0  0  0  0  0  0  0
   -3.7938    1.7403    2.1582 H   0  0  0  0  0  0  0  0  0  0  0  0
   -5.2649    1.7565    1.0223 H   0  0  0  0  0  0  0  0  0  0  0  0
   -5.8703    1.9035    3.4213 H   0  0  0  0  0  0  0  0  0  0  0  0
   -5.1916    0.2514    3.6896 H   0  0  0  0  0  0  0  0  0  0  0  0
   -6.7211    0.0469    0.4127 H   0  0  0  0  0  0  0  0  0  0  0  0
   -7.4840   -1.2211    1.4562 H   0  0  0  0  0  0  0  0  0  0  0  0
   -5.1488   -1.5219    2.5125 H   0  0  0  0  0  0  0  0  0  0  0  0
   -5.2591   -1.9709    0.7856 H   0  0  0  0  0  0  0  0  0  0  0  0
  1  2  1  0
  1  3  1  0
  3  4  1  0
  4  5  1  0
  5  6  1  0
  6  7  1  0
  7  8  1  0
  8  9  2  0
  8 10  2  0
  8 11  1  0
 11 12  2  0
 12 13  1  0
 13 14  2  0
 14 15  1  0
 15 16  2  0
 16 17  1  0
 16 18  1  0
 18 19  2  0
 19 20  1  0
 20 21  2  0
  6 22  1  0
 22 23  2  0
  1 24  1  0
 24 25  2  0
 24 26  1  0
 26 27  1  0
 27 28  1  0
 28 29  1  0
 29 30  1  0
 30 31  1  0
 22  3  1  0
 31 26  1  0
 21 11  1  0
 19 13  1  0
  1 32  1  1
  2 33  1  0
  2 34  1  0
  2 35  1  0
  4 36  1  0
  4 37  1  0
  5 38  1  0
  5 39  1  0
  6 40  1  6
  7 41  1  0
 12 42  1  0
 14 43  1  0
 15 44  1  0
 18 45  1  0
 20 46  1  0
 21 47  1  0
 27 48  1  0
 27 49  1  0
 28 50  1  0
 28 51  1  0
 30 52  1  0
 30 53  1  0
 31 54  1  0
 31 55  1  0
M  END
$$$$
