
     RDKit          3D

 71 72  0  0  0  0  0  0  0  0999 V2000
   -7.5964    0.9740   -1.7921 C   0  0  0  0  0  0  0  0  0  0  0  0
   -6.8084    0.4266   -0.6351 C   0  0  0  0  0  0  0  0  0  0  0  0
   -7.3872    1.0126    0.6355 C   0  0  0  0  0  0  0  0  0  0  0  0
   -7.0271   -1.0660   -0.5933 C   0  0  0  0  0  0  0  0  0  0  0  0
   -5.4366    0.7615   -0.7243 O   0  0  0  0  0  0  0  0  0  0  0  0
   -4.4945    0.3906    0.1925 C   0  0  0  0  0  0  0  0  0  0  0  0
   -4.8183   -0.2862    1.1860 O   0  0  0  0  0  0  0  0  0  0  0  0
   -3.0980    0.7570    0.0607 N   0  0  0  0  0  0  0  0  0  0  0  0
   -2.1266    0.3680    1.0185 C   0  0  1  0  0  0  0  0  0  0  0  0
   -1.0194   -0.4703    0.5880 C   0  0  0  0  0  0  0  0  0  0  0  0
   -0.1703   -0.7849    1.4984 O   0  0  0  0  0  0  0  0  0  0  0  0
   -0.7770   -0.9750   -0.7219 N   0  0  0  0  0  0  0  0  0  0  0  0
   -1.6463   -0.7231   -1.8387 C   0  0  0  0  0  0  0  0  0  0  0  0
   -1.2006   -1.7255   -2.9273 C   0  0  0  0  0  0  0  0  0  0  0  0
    0.2821   -1.8195   -2.6465 C   0  0  0  0  0  0  0  0  0  0  0  0
    0.3147   -1.7867   -1.1544 C   0  0  1  0  0  0  0  0  0  0  0  0
    1.6417   -1.2365   -0.7677 C   0  0  0  0  0  0  0  0  0  0  0  0
    1.6908   -0.1275   -0.1972 O   0  0  0  0  0  0  0  0  0  0  0  0
    2.8101   -1.9564   -1.0422 N   0  0  0  0  0  0  0  0  0  0  0  0
    4.1527   -1.4763   -0.6913 C   0  0  2  0  0  0  0  0  0  0  0  0
    5.0058   -1.4175   -1.8921 C   0  0  0  0  0  0  0  0  0  0  0  0
    6.1632   -1.0713   -1.8808 O   0  0  0  0  0  0  0  0  0  0  0  0
    4.6735   -2.4564    0.3250 C   0  0  0  0  0  0  0  0  0  0  0  0
    6.0215   -2.1986    0.8733 C   0  0  0  0  0  0  0  0  0  0  0  0
    6.2284   -0.9433    1.6410 C   0  0  0  0  0  0  0  0  0  0  0  0
    5.9847    0.2525    0.8941 N   0  0  0  0  0  0  0  0  0  0  0  0
    6.9505    1.0382    0.5807 C   0  0  0  0  0  0  0  0  0  0  0  0
    6.6095    2.2074   -0.1662 N   0  0  0  0  0  0  0  0  0  0  0  0
    8.2974    0.8186    0.9238 N   0  0  0  0  0  0  0  0  0  0  0  0
   -1.6056    1.5963    1.7150 C   0  0  0  0  0  0  0  0  0  0  0  0
   -1.4401    1.6461    3.0769 C   0  0  0  0  0  0  0  0  0  0  0  0
   -0.9580    2.8018    3.6504 C   0  0  0  0  0  0  0  0  0  0  0  0
   -0.6266    3.9328    2.9129 C   0  0  0  0  0  0  0  0  0  0  0  0
   -0.1565    5.0466    3.5160 F   0  0  0  0  0  0  0  0  0  0  0  0
   -0.7935    3.8771    1.5585 C   0  0  0  0  0  0  0  0  0  0  0  0
   -1.2801    2.7111    0.9789 C   0  0  0  0  0  0  0  0  0  0  0  0
   -7.6017    0.2316   -2.6166 H   0  0  0  0  0  0  0  0  0  0  0  0
   -8.6767    1.0606   -1.4807 H   0  0  0  0  0  0  0  0  0  0  0  0
   -7.2854    1.9762   -2.1142 H   0  0  0  0  0  0  0  0  0  0  0  0
   -8.2822    1.6436    0.4475 H   0  0  0  0  0  0  0  0  0  0  0  0
   -7.7138    0.2204    1.3380 H   0  0  0  0  0  0  0  0  0  0  0  0
   -6.6255    1.6470    1.1313 H   0  0  0  0  0  0  0  0  0  0  0  0
   -6.6270   -1.5245    0.3278 H   0  0  0  0  0  0  0  0  0  0  0  0
   -6.6432   -1.5462   -1.5250 H   0  0  0  0  0  0  0  0  0  0  0  0
   -8.1248   -1.2283   -0.5955 H   0  0  0  0  0  0  0  0  0  0  0  0
   -2.9151    1.3344   -0.7987 H   0  0  0  0  0  0  0  0  0  0  0  0
   -2.6870   -0.2484    1.8008 H   0  0  0  0  0  0  0  0  0  0  0  0
   -1.4703    0.2633   -2.3139 H   0  0  0  0  0  0  0  0  0  0  0  0
   -2.7066   -0.9030   -1.5932 H   0  0  0  0  0  0  0  0  0  0  0  0
   -1.4296   -1.3546   -3.9275 H   0  0  0  0  0  0  0  0  0  0  0  0
   -1.6530   -2.7005   -2.6904 H   0  0  0  0  0  0  0  0  0  0  0  0
    0.7284   -2.7406   -3.0758 H   0  0  0  0  0  0  0  0  0  0  0  0
    0.8183   -0.9001   -3.0092 H   0  0  0  0  0  0  0  0  0  0  0  0
    0.1707   -2.8161   -0.7463 H   0  0  0  0  0  0  0  0  0  0  0  0
    2.7345   -2.8795   -1.5191 H   0  0  0  0  0  0  0  0  0  0  0  0
    4.1030   -0.4810   -0.2252 H   0  0  0  0  0  0  0  0  0  0  0  0
    4.6172   -1.6953   -2.8883 H   0  0  0  0  0  0  0  0  0  0  0  0
    3.9597   -2.5583    1.1874 H   0  0  0  0  0  0  0  0  0  0  0  0
    4.6998   -3.4964   -0.1291 H   0  0  0  0  0  0  0  0  0  0  0  0
    6.2612   -3.0588    1.5719 H   0  0  0  0  0  0  0  0  0  0  0  0
    6.8340   -2.2595    0.1116 H   0  0  0  0  0  0  0  0  0  0  0  0
    7.3161   -0.9223    1.9596 H   0  0  0  0  0  0  0  0  0  0  0  0
    5.6831   -0.9448    2.6220 H   0  0  0  0  0  0  0  0  0  0  0  0
    7.2137    2.4538   -0.9690 H   0  0  0  0  0  0  0  0  0  0  0  0
    5.7705    2.7414    0.1449 H   0  0  0  0  0  0  0  0  0  0  0  0
    8.5581    0.6934    1.9365 H   0  0  0  0  0  0  0  0  0  0  0  0
    9.0572    0.7744    0.2075 H   0  0  0  0  0  0  0  0  0  0  0  0
   -1.6944    0.7665    3.6807 H   0  0  0  0  0  0  0  0  0  0  0  0
   -0.8230    2.8534    4.7242 H   0  0  0  0  0  0  0  0  0  0  0  0
   -0.5441    4.7473    0.9395 H   0  0  0  0  0  0  0  0  0  0  0  0
   -1.3817    2.7529   -0.1028 H   0  0  0  0  0  0  0  0  0  0  0  0
  1  2  1  0
  2  3  1  0
  2  4  1  0
  2  5  1  0
  5  6  1  0
  6  7  2  0
  6  8  1  0
  8  9  1  0
  9 10  1  0
 10 11  2  0
 10 12  1  0
 12 13  1  0
 13 14  1  0
 14 15  1  0
 15 16  1  0
 16 17  1  0
 17 18  2  0
 17 19  1  0
 19 20  1  0
 20 21  1  0
 21 22  2  0
 20 23  1  0
 23 24  1  0
 24 25  1  0
 25 26  1  0
 26 27  2  3
 27 28  1  0
 27 29  1  0
  9 30  1  0
 30 31  2  0
 31 32  1  0
 32 33  2  0
 33 34  1  0
 33 35  1  0
 35 36  2  0
 16 12  1  0
 36 30  1  0
  1 37  1  0
  1 38  1  0
  1 39  1  0
  3 40  1  0
  3 41  1  0
  3 42  1  0
  4 43  1  0
  4 44  1  0
  4 45  1  0
  8 46  1  0
  9 47  1  1
 13 48  1  0
 13 49  1  0
 14 50  1  0
 14 51  1  0
 15 52  1  0
 15 53  1  0
 16 54  1  1
 19 55  1  0
 20 56  1  1
 21 57  1  0
 23 58  1  0
 23 59  1  0
 24 60  1  0
 24 61  1  0
 25 62  1  0
 25 63  1  0
 28 64  1  0
 28 65  1  0
 29 66  1  0
 29 67  1  0
 31 68  1  0
 32 69  1  0
 35 70  1  0
 36 71  1  0
M  END
$$$$
