
     RDKit          3D

 67 69  0  0  0  0  0  0  0  0999 V2000
   -0.3158    0.9353    2.0298 C   0  0  0  0  0  0  0  0  0  0  0  0
   -0.3577    1.5439    0.8037 O   0  0  0  0  0  0  0  0  0  0  0  0
   -1.0603    0.8600   -0.1807 C   0  0  2  0  0  0  0  0  0  0  0  0
   -0.0441    0.4027   -1.1890 C   0  0  1  0  0  0  0  0  0  0  0  0
    0.3624    1.3574   -2.2331 C   0  0  0  0  0  0  0  0  0  0  0  0
   -0.3618    2.6683   -2.0334 C   0  0  0  0  0  0  0  0  0  0  0  0
   -1.8335    2.3591   -2.0262 C   0  0  1  0  0  0  0  0  0  0  0  0
   -2.7100    3.4768   -2.4291 C   0  0  0  0  0  0  0  0  0  0  0  0
   -2.5973    2.2999   -3.1525 O   0  0  0  0  0  0  0  0  0  0  0  0
   -2.1755    1.6590   -0.7446 C   0  0  1  0  0  0  0  0  0  0  0  0
   -3.3839    0.7315   -0.9708 C   0  0  1  0  0  0  0  0  0  0  0  0
   -3.8859    0.1008    0.3135 C   0  0  0  0  0  0  0  0  0  0  0  0
   -4.2389    1.0322   -1.9977 O   0  0  0  0  0  0  0  0  0  0  0  0
   -3.4098   -0.0969   -2.1708 C   0  0  2  0  0  0  0  0  0  0  0  0
   -4.2026   -1.3460   -2.3528 C   0  0  0  0  0  0  0  0  0  0  0  0
   -5.6655   -1.1897   -2.2435 C   0  0  0  0  0  0  0  0  0  0  0  0
   -6.9432   -1.2773   -2.6720 C   0  0  0  0  0  0  0  0  0  0  0  0
   -7.4045   -1.8129   -4.0061 C   0  0  0  0  0  0  0  0  0  0  0  0
   -8.1182   -0.8620   -1.8999 C   0  0  0  0  0  0  0  0  0  0  0  0
    1.1203   -0.1135   -0.5444 O   0  0  0  0  0  0  0  0  0  0  0  0
    1.4887   -1.4421   -0.6489 C   0  0  0  0  0  0  0  0  0  0  0  0
    0.8813   -2.3101   -1.2945 O   0  0  0  0  0  0  0  0  0  0  0  0
    2.7103   -1.8359    0.0797 C   0  0  0  0  0  0  0  0  0  0  0  0
    3.4632   -1.0112    0.8180 C   0  0  0  0  0  0  0  0  0  0  0  0
    4.6604   -1.4880    1.5072 C   0  0  0  0  0  0  0  0  0  0  0  0
    5.3626   -0.6064    2.2284 C   0  0  0  0  0  0  0  0  0  0  0  0
    6.5621   -1.1196    2.9127 C   0  0  0  0  0  0  0  0  0  0  0  0
    7.3166   -0.3142    3.6514 C   0  0  0  0  0  0  0  0  0  0  0  0
    8.4986   -0.8549    4.3158 C   0  0  0  0  0  0  0  0  0  0  0  0
    9.3052   -0.1406    5.0610 C   0  0  0  0  0  0  0  0  0  0  0  0
   10.5079   -0.5881    5.7639 C   0  0  0  0  0  0  0  0  0  0  0  0
   11.3023    0.2609    6.5319 O   0  0  0  0  0  0  0  0  0  0  0  0
   10.7402   -1.8084    5.5975 O   0  0  0  0  0  0  0  0  0  0  0  0
    0.1852   -0.0660    1.8577 H   0  0  0  0  0  0  0  0  0  0  0  0
    0.3290    1.4322    2.7631 H   0  0  0  0  0  0  0  0  0  0  0  0
   -1.2708    0.7136    2.5080 H   0  0  0  0  0  0  0  0  0  0  0  0
   -1.4561   -0.0620    0.2848 H   0  0  0  0  0  0  0  0  0  0  0  0
   -0.4781   -0.5048   -1.7009 H   0  0  0  0  0  0  0  0  0  0  0  0
    0.1153    0.9792   -3.2581 H   0  0  0  0  0  0  0  0  0  0  0  0
    1.4684    1.5272   -2.1725 H   0  0  0  0  0  0  0  0  0  0  0  0
   -0.1173    3.0193   -1.0026 H   0  0  0  0  0  0  0  0  0  0  0  0
   -0.0882    3.4243   -2.7955 H   0  0  0  0  0  0  0  0  0  0  0  0
   -2.2585    4.3487   -2.9474 H   0  0  0  0  0  0  0  0  0  0  0  0
   -3.6330    3.7330   -1.8774 H   0  0  0  0  0  0  0  0  0  0  0  0
   -2.5429    2.4335   -0.0402 H   0  0  0  0  0  0  0  0  0  0  0  0
   -3.8736   -0.9942    0.2397 H   0  0  0  0  0  0  0  0  0  0  0  0
   -4.9291    0.4132    0.5729 H   0  0  0  0  0  0  0  0  0  0  0  0
   -3.2133    0.3574    1.1784 H   0  0  0  0  0  0  0  0  0  0  0  0
   -2.5423   -0.0078   -2.8627 H   0  0  0  0  0  0  0  0  0  0  0  0
   -3.8432   -2.2096   -1.7141 H   0  0  0  0  0  0  0  0  0  0  0  0
   -4.0327   -1.7420   -3.4063 H   0  0  0  0  0  0  0  0  0  0  0  0
   -5.6830   -0.7737   -1.2587 H   0  0  0  0  0  0  0  0  0  0  0  0
   -8.0279   -2.7214   -3.8259 H   0  0  0  0  0  0  0  0  0  0  0  0
   -6.5169   -2.0479   -4.6177 H   0  0  0  0  0  0  0  0  0  0  0  0
   -7.9778   -1.0160   -4.5117 H   0  0  0  0  0  0  0  0  0  0  0  0
   -7.8347   -0.4462   -0.9072 H   0  0  0  0  0  0  0  0  0  0  0  0
   -8.8028   -1.7282   -1.8080 H   0  0  0  0  0  0  0  0  0  0  0  0
   -8.6659   -0.0613   -2.4225 H   0  0  0  0  0  0  0  0  0  0  0  0
    3.0641   -2.8665    0.0431 H   0  0  0  0  0  0  0  0  0  0  0  0
    3.1290    0.0158    0.8678 H   0  0  0  0  0  0  0  0  0  0  0  0
    4.9224   -2.5287    1.4006 H   0  0  0  0  0  0  0  0  0  0  0  0
    5.1138    0.4356    2.3445 H   0  0  0  0  0  0  0  0  0  0  0  0
    6.8685   -2.1523    2.8533 H   0  0  0  0  0  0  0  0  0  0  0  0
    7.0851    0.7324    3.7825 H   0  0  0  0  0  0  0  0  0  0  0  0
    8.7526   -1.9059    4.2139 H   0  0  0  0  0  0  0  0  0  0  0  0
    9.0584    0.8969    5.1718 H   0  0  0  0  0  0  0  0  0  0  0  0
   12.1229   -0.0978    6.9941 H   0  0  0  0  0  0  0  0  0  0  0  0
  1  2  1  0
  2  3  1  0
  3  4  1  0
  4  5  1  0
  5  6  1  0
  6  7  1  0
  7  8  1  0
  8  9  1  0
  7 10  1  0
 10 11  1  0
 11 12  1  1
 11 13  1  0
 13 14  1  0
 14 15  1  0
 15 16  1  0
 16 17  2  3
 17 18  1  0
 17 19  1  0
  4 20  1  0
 20 21  1  0
 21 22  2  0
 21 23  1  0
 23 24  2  0
 24 25  1  0
 25 26  2  0
 26 27  1  0
 27 28  2  0
 28 29  1  0
 29 30  2  0
 30 31  1  0
 31 32  1  0
 31 33  2  0
 10  3  1  0
 14 11  1  0
  7  9  1  6
  1 34  1  0
  1 35  1  0
  1 36  1  0
  3 37  1  1
  4 38  1  6
  5 39  1  0
  5 40  1  0
  6 41  1  0
  6 42  1  0
  8 43  1  0
  8 44  1  0
 10 45  1  1
 12 46  1  0
 12 47  1  0
 12 48  1  0
 14 49  1  6
 15 50  1  0
 15 51  1  0
 16 52  1  0
 18 53  1  0
 18 54  1  0
 18 55  1  0
 19 56  1  0
 19 57  1  0
 19 58  1  0
 23 59  1  0
 24 60  1  0
 25 61  1  0
 26 62  1  0
 27 63  1  0
 28 64  1  0
 29 65  1  0
 30 66  1  0
 32 67  1  0
M  END
$$$$
