
     RDKit          3D

 41 44  0  0  0  0  0  0  0  0999 V2000
    5.5161   -1.3116    0.8965 O   0  0  0  0  0  0  0  0  0  0  0  0
    4.9921   -0.2765    0.4115 C   0  0  0  0  0  0  0  0  0  0  0  0
    5.7426    0.9130    0.4210 N   0  0  0  0  0  0  0  0  0  0  0  0
    7.0065    0.9682    0.9364 O   0  0  0  0  0  0  0  0  0  0  0  0
    3.6348   -0.3643   -0.1348 C   0  0  0  0  0  0  0  0  0  0  0  0
    2.9397   -1.5567   -0.1205 C   0  0  0  0  0  0  0  0  0  0  0  0
    1.6627   -1.6632   -0.6283 C   0  0  0  0  0  0  0  0  0  0  0  0
    1.0196   -0.5748   -1.1767 C   0  0  0  0  0  0  0  0  0  0  0  0
   -0.3650   -0.6406   -1.7381 C   0  0  0  0  0  0  0  0  0  0  0  0
   -1.3719   -0.3092   -0.7204 N   0  0  0  0  0  0  0  0  0  0  0  0
   -1.8591    0.9224   -0.4190 C   0  0  0  0  0  0  0  0  0  0  0  0
   -2.7622    0.7457    0.5719 C   0  0  0  0  0  0  0  0  0  0  0  0
   -2.8270   -0.5879    0.8756 C   0  0  0  0  0  0  0  0  0  0  0  0
   -3.5699   -1.3380    1.7952 C   0  0  0  0  0  0  0  0  0  0  0  0
   -3.4574   -2.6965    1.9121 C   0  0  0  0  0  0  0  0  0  0  0  0
   -2.5687   -3.3438    1.0807 C   0  0  0  0  0  0  0  0  0  0  0  0
   -1.8296   -2.6022    0.1665 C   0  0  0  0  0  0  0  0  0  0  0  0
   -1.9464   -1.2329    0.0526 C   0  0  0  0  0  0  0  0  0  0  0  0
   -3.3983    2.3255    0.9626 S   0  0  0  0  0  6  0  0  0  0  0  0
   -2.6598    2.8473    2.1357 O   0  0  0  0  0  0  0  0  0  0  0  0
   -4.8674    2.3455    1.0986 O   0  0  0  0  0  0  0  0  0  0  0  0
   -2.8559    3.1291   -0.5597 C   0  0  0  0  0  0  0  0  0  0  0  0
   -1.6602    2.2995   -0.8660 C   0  0  0  0  0  0  0  0  0  0  0  0
    1.7095    0.6288   -1.1961 C   0  0  0  0  0  0  0  0  0  0  0  0
    2.9926    0.7249   -0.6831 C   0  0  0  0  0  0  0  0  0  0  0  0
    5.3667    1.7878    0.0391 H   0  0  0  0  0  0  0  0  0  0  0  0
    7.5512    1.6543    0.4806 H   0  0  0  0  0  0  0  0  0  0  0  0
    3.4267   -2.4183    0.3044 H   0  0  0  0  0  0  0  0  0  0  0  0
    1.1794   -2.6225   -0.5865 H   0  0  0  0  0  0  0  0  0  0  0  0
   -0.5451   -1.6704   -2.1089 H   0  0  0  0  0  0  0  0  0  0  0  0
   -0.4802    0.0285   -2.6214 H   0  0  0  0  0  0  0  0  0  0  0  0
   -4.2559   -0.8238    2.4344 H   0  0  0  0  0  0  0  0  0  0  0  0
   -4.0518   -3.2526    2.6402 H   0  0  0  0  0  0  0  0  0  0  0  0
   -2.4628   -4.4181    1.1550 H   0  0  0  0  0  0  0  0  0  0  0  0
   -1.1425   -3.1393   -0.4740 H   0  0  0  0  0  0  0  0  0  0  0  0
   -2.5328    4.1760   -0.3348 H   0  0  0  0  0  0  0  0  0  0  0  0
   -3.6593    3.0844   -1.3013 H   0  0  0  0  0  0  0  0  0  0  0  0
   -1.5168    2.3379   -1.9807 H   0  0  0  0  0  0  0  0  0  0  0  0
   -0.7731    2.7583   -0.3668 H   0  0  0  0  0  0  0  0  0  0  0  0
    1.1906    1.4737   -1.6302 H   0  0  0  0  0  0  0  0  0  0  0  0
    3.4888    1.6924   -0.7232 H   0  0  0  0  0  0  0  0  0  0  0  0
  1  2  2  0
  2  3  1  0
  3  4  1  0
  2  5  1  0
  5  6  2  0
  6  7  1  0
  7  8  2  0
  8  9  1  0
  9 10  1  0
 10 11  1  0
 11 12  2  0
 12 13  1  0
 13 14  2  0
 14 15  1  0
 15 16  2  0
 16 17  1  0
 17 18  2  0
 12 19  1  0
 19 20  2  0
 19 21  2  0
 19 22  1  0
 22 23  1  0
  8 24  1  0
 24 25  2  0
 25  5  1  0
 18 10  1  0
 23 11  1  0
 18 13  1  0
  3 26  1  0
  4 27  1  0
  6 28  1  0
  7 29  1  0
  9 30  1  0
  9 31  1  0
 14 32  1  0
 15 33  1  0
 16 34  1  0
 17 35  1  0
 22 36  1  0
 22 37  1  0
 23 38  1  0
 23 39  1  0
 24 40  1  0
 25 41  1  0
M  END
$$$$
