
     RDKit          3D

 51 56  0  0  0  0  0  0  0  0999 V2000
   -4.1931    1.8324   -0.5135 C   0  0  0  0  0  0  0  0  0  0  0  0
   -3.6830    0.4906   -0.1156 C   0  0  0  0  0  0  0  0  0  0  0  0
   -4.2911   -0.5472    0.3986 N   0  0  0  0  0  0  0  0  0  0  0  0
   -3.4435   -1.5717    0.6080 N   0  0  0  0  0  0  0  0  0  0  0  0
   -3.7879   -2.8401    1.1549 C   0  0  0  0  0  0  0  0  0  0  0  0
   -3.2314   -4.1323    0.7007 C   0  0  0  0  0  0  0  0  0  0  0  0
   -2.9585   -3.6444    2.0479 C   0  0  0  0  0  0  0  0  0  0  0  0
   -2.2083   -1.1552    0.1976 C   0  0  0  0  0  0  0  0  0  0  0  0
   -2.3377    0.1322   -0.2583 C   0  0  0  0  0  0  0  0  0  0  0  0
   -1.0189    0.6020   -0.7060 C   0  0  1  0  0  0  0  0  0  0  0  0
   -0.6223    1.8787   -0.0664 C   0  0  0  0  0  0  0  0  0  0  0  0
   -0.7049    3.0731   -0.7495 C   0  0  0  0  0  0  0  0  0  0  0  0
   -0.3574    4.2882   -0.2254 C   0  0  0  0  0  0  0  0  0  0  0  0
    0.1103    4.3142    1.0858 C   0  0  0  0  0  0  0  0  0  0  0  0
    0.5565    5.8681    1.7609 Cl  0  0  0  0  0  0  0  0  0  0  0  0
    0.2056    3.1370    1.7983 C   0  0  0  0  0  0  0  0  0  0  0  0
   -0.1549    1.9308    1.2342 C   0  0  0  0  0  0  0  0  0  0  0  0
   -0.1184   -0.4614   -0.4923 N   0  0  0  0  0  0  0  0  0  0  0  0
    1.2887   -0.5360   -0.7536 C   0  0  0  0  0  0  0  0  0  0  0  0
    1.7807   -0.9751   -1.9561 C   0  0  0  0  0  0  0  0  0  0  0  0
    3.1505   -1.0390   -2.1873 C   0  0  0  0  0  0  0  0  0  0  0  0
    3.6862   -1.5070   -3.4696 C   0  0  0  0  0  0  0  0  0  0  0  0
    3.9816   -0.6470   -1.1686 C   0  0  0  0  0  0  0  0  0  0  0  0
    5.3309   -0.5934   -1.0828 N   0  0  0  0  0  0  0  0  0  0  0  0
    5.6399   -0.1486    0.1005 N   0  0  0  0  0  0  0  0  0  0  0  0
    4.5190    0.0899    0.7906 C   0  0  0  0  0  0  0  0  0  0  0  0
    4.4766    0.6050    2.1781 C   0  0  0  0  0  0  0  0  0  0  0  0
    3.4712   -0.2161    0.0128 N   0  0  0  0  0  0  0  0  0  0  0  0
    2.1447   -0.1677    0.2002 N   0  0  0  0  0  0  0  0  0  0  0  0
   -0.8191   -1.5662    0.0659 C   0  0  0  0  0  0  0  0  0  0  0  0
   -0.3629   -2.6870    0.3921 O   0  0  0  0  0  0  0  0  0  0  0  0
   -3.6290    2.6473    0.0153 H   0  0  0  0  0  0  0  0  0  0  0  0
   -4.1812    1.9910   -1.6018 H   0  0  0  0  0  0  0  0  0  0  0  0
   -5.2468    1.9237   -0.1529 H   0  0  0  0  0  0  0  0  0  0  0  0
   -4.9033   -2.9211    1.3802 H   0  0  0  0  0  0  0  0  0  0  0  0
   -3.9109   -5.0414    0.6170 H   0  0  0  0  0  0  0  0  0  0  0  0
   -2.5796   -4.0910   -0.1694 H   0  0  0  0  0  0  0  0  0  0  0  0
   -2.0436   -3.1896    2.4210 H   0  0  0  0  0  0  0  0  0  0  0  0
   -3.4651   -4.2219    2.8878 H   0  0  0  0  0  0  0  0  0  0  0  0
   -1.0411    0.8002   -1.8097 H   0  0  0  0  0  0  0  0  0  0  0  0
   -1.0787    3.0069   -1.7804 H   0  0  0  0  0  0  0  0  0  0  0  0
   -0.4384    5.2210   -0.8055 H   0  0  0  0  0  0  0  0  0  0  0  0
    0.5740    3.2059    2.8129 H   0  0  0  0  0  0  0  0  0  0  0  0
   -0.0847    1.0018    1.7822 H   0  0  0  0  0  0  0  0  0  0  0  0
    1.0979   -1.2715   -2.7242 H   0  0  0  0  0  0  0  0  0  0  0  0
    4.0160   -0.6783   -4.1386 H   0  0  0  0  0  0  0  0  0  0  0  0
    4.5578   -2.2044   -3.3499 H   0  0  0  0  0  0  0  0  0  0  0  0
    2.9293   -2.1082   -4.0422 H   0  0  0  0  0  0  0  0  0  0  0  0
    4.6904    1.6847    2.2347 H   0  0  0  0  0  0  0  0  0  0  0  0
    5.2044    0.0099    2.7772 H   0  0  0  0  0  0  0  0  0  0  0  0
    3.4831    0.4284    2.6640 H   0  0  0  0  0  0  0  0  0  0  0  0
  1  2  1  0
  2  3  2  0
  3  4  1  0
  4  5  1  0
  5  6  1  0
  6  7  1  0
  4  8  1  0
  8  9  2  0
  9 10  1  0
 10 11  1  0
 11 12  2  0
 12 13  1  0
 13 14  2  0
 14 15  1  0
 14 16  1  0
 16 17  2  0
 10 18  1  0
 18 19  1  0
 19 20  1  0
 20 21  2  0
 21 22  1  0
 21 23  1  0
 23 24  2  0
 24 25  1  0
 25 26  2  0
 26 27  1  0
 26 28  1  0
 28 29  1  0
 18 30  1  0
 30 31  2  0
  9  2  1  0
 17 11  1  0
 29 19  2  0
  7  5  1  0
 30  8  1  0
 28 23  1  0
  1 32  1  0
  1 33  1  0
  1 34  1  0
  5 35  1  0
  6 36  1  0
  6 37  1  0
  7 38  1  0
  7 39  1  0
 10 40  1  6
 12 41  1  0
 13 42  1  0
 16 43  1  0
 17 44  1  0
 20 45  1  0
 22 46  1  0
 22 47  1  0
 22 48  1  0
 27 49  1  0
 27 50  1  0
 27 51  1  0
M  END
$$$$
