
     RDKit          3D

 67 68  0  0  0  0  0  0  0  0999 V2000
   -8.5662   -1.0245    0.6500 C   0  0  0  0  0  0  0  0  0  0  0  0
   -8.6728   -0.9163   -0.8556 C   0  0  0  0  0  0  0  0  0  0  0  0
   -7.3504   -0.8857   -1.4815 N   0  0  0  0  0  0  0  0  0  0  0  0
   -6.4643    0.1558   -1.1359 C   0  0  0  0  0  0  0  0  0  0  0  0
   -7.0363    0.9150   -0.2866 O   0  0  0  0  0  0  0  0  0  0  0  0
   -5.1529    0.0772   -1.8380 C   0  0  0  0  0  0  0  0  0  0  0  0
   -4.2148    1.2008   -1.4556 C   0  0  0  0  0  0  0  0  0  0  0  0
   -3.9094    1.1970    0.0321 C   0  0  0  0  0  0  0  0  0  0  0  0
   -3.2718   -0.0583    0.4640 C   0  0  0  0  0  0  0  0  0  0  0  0
   -2.0665   -0.2542    1.0382 C   0  0  0  0  0  0  0  0  0  0  0  0
   -1.0785    0.7752    1.3765 C   0  0  0  0  0  0  0  0  0  0  0  0
    0.2607    0.6112    0.6889 C   0  0  1  0  0  0  0  0  0  0  0  0
    1.0989    1.7916    1.2006 C   0  0  1  0  0  0  0  0  0  0  0  0
    0.2749    2.8671    1.5290 O   0  0  0  0  0  0  0  0  0  0  0  0
    1.7043    1.2839    2.4912 C   0  0  0  0  0  0  0  0  0  0  0  0
    1.4360   -0.1900    2.5533 C   0  0  1  0  0  0  0  0  0  0  0  0
    0.6145   -0.5941    3.5753 O   0  0  0  0  0  0  0  0  0  0  0  0
    0.9351   -0.6175    1.1923 C   0  0  2  0  0  0  0  0  0  0  0  0
    2.0260   -1.1306    0.3311 C   0  0  0  0  0  0  0  0  0  0  0  0
    2.4749   -0.6421   -0.8176 C   0  0  0  0  0  0  0  0  0  0  0  0
    3.6024   -1.2573   -1.6114 C   0  0  1  0  0  0  0  0  0  0  0  0
    3.1457   -2.2139   -2.4896 O   0  0  0  0  0  0  0  0  0  0  0  0
    4.1929   -0.1214   -2.4148 C   0  0  0  0  0  0  0  0  0  0  0  0
    4.7195    0.9812   -1.5399 C   0  0  0  0  0  0  0  0  0  0  0  0
    5.7844    0.4165   -0.6710 C   0  0  0  0  0  0  0  0  0  0  0  0
    7.0706    0.4677   -1.2213 C   0  0  0  0  0  0  0  0  0  0  0  0
    8.1729   -0.0089   -0.5525 C   0  0  0  0  0  0  0  0  0  0  0  0
    8.0594   -0.5652    0.7051 C   0  0  0  0  0  0  0  0  0  0  0  0
    6.7841   -0.6109    1.2396 C   0  0  0  0  0  0  0  0  0  0  0  0
    5.6807   -0.1406    0.5852 C   0  0  0  0  0  0  0  0  0  0  0  0
   -9.4179   -1.6688    0.9918 H   0  0  0  0  0  0  0  0  0  0  0  0
   -8.6546   -0.0286    1.1144 H   0  0  0  0  0  0  0  0  0  0  0  0
   -7.6224   -1.5038    0.9785 H   0  0  0  0  0  0  0  0  0  0  0  0
   -9.1740    0.0205   -1.1535 H   0  0  0  0  0  0  0  0  0  0  0  0
   -9.2922   -1.7403   -1.2600 H   0  0  0  0  0  0  0  0  0  0  0  0
   -7.1316   -1.6615   -2.1699 H   0  0  0  0  0  0  0  0  0  0  0  0
   -4.6569   -0.8819   -1.6384 H   0  0  0  0  0  0  0  0  0  0  0  0
   -5.3201    0.2002   -2.9413 H   0  0  0  0  0  0  0  0  0  0  0  0
   -4.5871    2.1925   -1.7803 H   0  0  0  0  0  0  0  0  0  0  0  0
   -3.2551    0.9828   -1.9579 H   0  0  0  0  0  0  0  0  0  0  0  0
   -3.3524    2.0997    0.2957 H   0  0  0  0  0  0  0  0  0  0  0  0
   -4.8876    1.2734    0.5573 H   0  0  0  0  0  0  0  0  0  0  0  0
   -3.9226   -0.9255    0.2625 H   0  0  0  0  0  0  0  0  0  0  0  0
   -1.8252   -1.2869    1.2641 H   0  0  0  0  0  0  0  0  0  0  0  0
   -0.9002    0.8115    2.4839 H   0  0  0  0  0  0  0  0  0  0  0  0
   -1.4152    1.8067    1.1214 H   0  0  0  0  0  0  0  0  0  0  0  0
    0.1241    0.6703   -0.4044 H   0  0  0  0  0  0  0  0  0  0  0  0
    1.8181    2.1578    0.4702 H   0  0  0  0  0  0  0  0  0  0  0  0
    0.1324    3.4878    0.7877 H   0  0  0  0  0  0  0  0  0  0  0  0
    2.7698    1.5368    2.5059 H   0  0  0  0  0  0  0  0  0  0  0  0
    1.2148    1.7435    3.3859 H   0  0  0  0  0  0  0  0  0  0  0  0
    2.4281   -0.7129    2.6774 H   0  0  0  0  0  0  0  0  0  0  0  0
    0.7425   -0.0210    4.3713 H   0  0  0  0  0  0  0  0  0  0  0  0
    0.2049   -1.4106    1.3378 H   0  0  0  0  0  0  0  0  0  0  0  0
    2.5030   -2.0359    0.7278 H   0  0  0  0  0  0  0  0  0  0  0  0
    1.9706    0.2388   -1.1501 H   0  0  0  0  0  0  0  0  0  0  0  0
    4.3689   -1.6880   -0.9210 H   0  0  0  0  0  0  0  0  0  0  0  0
    2.9883   -1.8164   -3.3753 H   0  0  0  0  0  0  0  0  0  0  0  0
    4.9333   -0.4477   -3.1438 H   0  0  0  0  0  0  0  0  0  0  0  0
    3.3397    0.3318   -2.9935 H   0  0  0  0  0  0  0  0  0  0  0  0
    5.1201    1.8290   -2.1255 H   0  0  0  0  0  0  0  0  0  0  0  0
    3.8716    1.3265   -0.9001 H   0  0  0  0  0  0  0  0  0  0  0  0
    7.2768    0.8862   -2.2083 H   0  0  0  0  0  0  0  0  0  0  0  0
    9.1741    0.0341   -0.9877 H   0  0  0  0  0  0  0  0  0  0  0  0
    8.8569   -0.9622    1.3033 H   0  0  0  0  0  0  0  0  0  0  0  0
    6.6341   -1.0353    2.2207 H   0  0  0  0  0  0  0  0  0  0  0  0
    4.6887   -0.1616    0.9723 H   0  0  0  0  0  0  0  0  0  0  0  0
  1  2  1  0
  2  3  1  0
  3  4  1  0
  4  5  2  0
  4  6  1  0
  6  7  1  0
  7  8  1  0
  8  9  1  0
  9 10  2  0
 10 11  1  0
 11 12  1  0
 12 13  1  0
 13 14  1  0
 13 15  1  0
 15 16  1  0
 16 17  1  0
 16 18  1  0
 18 19  1  0
 19 20  2  0
 20 21  1  0
 21 22  1  0
 21 23  1  0
 23 24  1  0
 24 25  1  0
 25 26  2  0
 26 27  1  0
 27 28  2  0
 28 29  1  0
 29 30  2  0
 18 12  1  0
 30 25  1  0
  1 31  1  0
  1 32  1  0
  1 33  1  0
  2 34  1  0
  2 35  1  0
  3 36  1  0
  6 37  1  0
  6 38  1  0
  7 39  1  0
  7 40  1  0
  8 41  1  0
  8 42  1  0
  9 43  1  0
 10 44  1  0
 11 45  1  0
 11 46  1  0
 12 47  1  6
 13 48  1  6
 14 49  1  0
 15 50  1  0
 15 51  1  0
 16 52  1  1
 17 53  1  0
 18 54  1  1
 19 55  1  0
 20 56  1  0
 21 57  1  1
 22 58  1  0
 23 59  1  0
 23 60  1  0
 24 61  1  0
 24 62  1  0
 26 63  1  0
 27 64  1  0
 28 65  1  0
 29 66  1  0
 30 67  1  0
M  END
$$$$
