
     RDKit          3D

 59 61  0  0  0  0  0  0  0  0999 V2000
    2.3455    1.5207   -0.6190 C   0  0  0  0  0  0  0  0  0  0  0  0
    2.6753    0.1613   -0.1223 C   0  0  0  0  0  0  0  0  0  0  0  0
    3.0393   -0.0685    1.2979 C   0  0  0  0  0  0  0  0  0  0  0  0
    1.6026   -0.8137   -0.3980 C   0  0  0  0  0  0  0  0  0  0  0  0
    0.2432   -0.8495    0.0652 C   0  0  0  0  0  0  0  0  0  0  0  0
   -0.2932   -2.0514   -0.5444 O   0  0  0  0  0  0  0  0  0  0  0  0
   -0.6004    0.1929   -0.6438 C   0  0  0  0  0  0  0  0  0  0  0  0
   -2.0233    0.2605   -0.3169 C   0  0  0  0  0  0  0  0  0  0  0  0
   -3.0230   -0.4551   -0.9333 C   0  0  0  0  0  0  0  0  0  0  0  0
   -4.2463   -0.1137   -0.3693 C   0  0  0  0  0  0  0  0  0  0  0  0
   -5.5537   -0.5266   -0.6095 C   0  0  0  0  0  0  0  0  0  0  0  0
   -6.5882    0.0053    0.1306 C   0  0  0  0  0  0  0  0  0  0  0  0
   -8.2707   -0.4810   -0.1297 S   0  0  0  0  0  6  0  0  0  0  0  0
   -8.8414   -1.1708    1.4270 C   0  0  0  0  0  0  0  0  0  0  0  0
   -9.1339    0.7158   -0.4018 O   0  0  0  0  0  0  0  0  0  0  0  0
   -8.3712   -1.5317   -1.1667 O   0  0  0  0  0  0  0  0  0  0  0  0
   -6.2737    0.9158    1.0673 N   0  0  0  0  0  0  0  0  0  0  0  0
   -5.0175    1.3289    1.3159 C   0  0  0  0  0  0  0  0  0  0  0  0
   -3.9431    0.8197    0.5940 C   0  0  0  0  0  0  0  0  0  0  0  0
   -2.6169    1.0252    0.6067 N   0  0  0  0  0  0  0  0  0  0  0  0
   -0.2343   -0.9262    1.4200 C   0  0  0  0  0  0  0  0  0  0  0  0
    0.0384    0.0828    2.3090 F   0  0  0  0  0  0  0  0  0  0  0  0
   -1.6044   -1.0608    1.4311 F   0  0  0  0  0  0  0  0  0  0  0  0
    0.1122   -2.0989    2.1185 F   0  0  0  0  0  0  0  0  0  0  0  0
    3.8763   -0.2247   -0.9723 C   0  0  0  0  0  0  0  0  0  0  0  0
    3.8194   -1.2313   -1.8902 C   0  0  0  0  0  0  0  0  0  0  0  0
    4.9048   -1.4384   -2.7374 C   0  0  0  0  0  0  0  0  0  0  0  0
    6.0021   -0.6418   -2.6415 C   0  0  0  0  0  0  0  0  0  0  0  0
    6.0199    0.3551   -1.7040 C   0  0  0  0  0  0  0  0  0  0  0  0
    4.9709    0.6362   -0.8045 C   0  0  0  0  0  0  0  0  0  0  0  0
    5.2772    1.7835    0.3797 S   0  0  0  0  0  6  0  0  0  0  0  0
    5.9316    1.1424    1.9361 C   0  0  0  0  0  0  0  0  0  0  0  0
    4.3237    2.8328    0.7657 O   0  0  0  0  0  0  0  0  0  0  0  0
    6.4528    2.6564   -0.1113 O   0  0  0  0  0  0  0  0  0  0  0  0
    1.6536    1.3206   -1.5222 H   0  0  0  0  0  0  0  0  0  0  0  0
    3.1704    1.9856   -1.2704 H   0  0  0  0  0  0  0  0  0  0  0  0
    1.8483    2.2153    0.0156 H   0  0  0  0  0  0  0  0  0  0  0  0
    3.0529    0.7513    1.9774 H   0  0  0  0  0  0  0  0  0  0  0  0
    2.3947   -0.8560    1.8234 H   0  0  0  0  0  0  0  0  0  0  0  0
    3.9901   -0.6546    1.3182 H   0  0  0  0  0  0  0  0  0  0  0  0
    1.5241   -0.8325   -1.5559 H   0  0  0  0  0  0  0  0  0  0  0  0
    2.0938   -1.8260   -0.2207 H   0  0  0  0  0  0  0  0  0  0  0  0
   -1.2302   -2.1275   -0.2416 H   0  0  0  0  0  0  0  0  0  0  0  0
   -0.1740    1.2332   -0.3992 H   0  0  0  0  0  0  0  0  0  0  0  0
   -0.3911    0.0741   -1.7294 H   0  0  0  0  0  0  0  0  0  0  0  0
   -2.9655   -1.1868   -1.7348 H   0  0  0  0  0  0  0  0  0  0  0  0
   -5.7682   -1.2658   -1.3765 H   0  0  0  0  0  0  0  0  0  0  0  0
   -8.4978   -2.1965    1.5693 H   0  0  0  0  0  0  0  0  0  0  0  0
   -8.4868   -0.5541    2.2829 H   0  0  0  0  0  0  0  0  0  0  0  0
   -9.9558   -1.1582    1.4786 H   0  0  0  0  0  0  0  0  0  0  0  0
   -4.7808    2.0647    2.0757 H   0  0  0  0  0  0  0  0  0  0  0  0
   -2.1673    1.7133    1.2819 H   0  0  0  0  0  0  0  0  0  0  0  0
    2.9553   -1.8806   -1.9634 H   0  0  0  0  0  0  0  0  0  0  0  0
    4.7970   -2.2515   -3.4430 H   0  0  0  0  0  0  0  0  0  0  0  0
    6.8579   -0.8035   -3.3115 H   0  0  0  0  0  0  0  0  0  0  0  0
    6.9353    0.9812   -1.6581 H   0  0  0  0  0  0  0  0  0  0  0  0
    6.8128    1.7407    2.2791 H   0  0  0  0  0  0  0  0  0  0  0  0
    5.1643    1.3109    2.7040 H   0  0  0  0  0  0  0  0  0  0  0  0
    6.1670    0.0695    1.8718 H   0  0  0  0  0  0  0  0  0  0  0  0
  1  2  1  0
  2  3  1  0
  2  4  1  0
  4  5  1  0
  5  6  1  0
  5  7  1  0
  7  8  1  0
  8  9  2  0
  9 10  1  0
 10 11  2  0
 11 12  1  0
 12 13  1  0
 13 14  1  0
 13 15  2  0
 13 16  2  0
 12 17  2  0
 17 18  1  0
 18 19  2  0
 19 20  1  0
  5 21  1  0
 21 22  1  0
 21 23  1  0
 21 24  1  0
  2 25  1  0
 25 26  2  0
 26 27  1  0
 27 28  2  0
 28 29  1  0
 29 30  2  0
 30 31  1  0
 31 32  1  0
 31 33  2  0
 31 34  2  0
 20  8  1  0
 30 25  1  0
 19 10  1  0
  1 35  1  0
  1 36  1  0
  1 37  1  0
  3 38  1  0
  3 39  1  0
  3 40  1  0
  4 41  1  0
  4 42  1  0
  6 43  1  0
  7 44  1  0
  7 45  1  0
  9 46  1  0
 11 47  1  0
 14 48  1  0
 14 49  1  0
 14 50  1  0
 18 51  1  0
 20 52  1  0
 26 53  1  0
 27 54  1  0
 28 55  1  0
 29 56  1  0
 32 57  1  0
 32 58  1  0
 32 59  1  0
M  END
$$$$
