
     RDKit          3D

 55 59  0  0  0  0  0  0  0  0999 V2000
    4.1529    1.0057    0.4304 O   0  0  0  0  0  0  0  0  0  0  0  0
    4.1270   -0.1820    0.8232 C   0  0  0  0  0  0  0  0  0  0  0  0
    5.2742   -0.8073    1.3610 N   0  0  0  0  0  0  0  0  0  0  0  0
    6.5436   -0.1393    1.4940 C   0  0  0  0  0  0  0  0  0  0  0  0
    7.2813   -0.0668    0.2056 C   0  0  0  0  0  0  0  0  0  0  0  0
    8.0966   -1.1468   -0.1153 C   0  0  0  0  0  0  0  0  0  0  0  0
    8.8001   -1.1266   -1.2825 C   0  0  0  0  0  0  0  0  0  0  0  0
    8.7577   -0.0742   -2.1967 C   0  0  0  0  0  0  0  0  0  0  0  0
    7.9428    0.9784   -1.8507 C   0  0  0  0  0  0  0  0  0  0  0  0
    7.2090    0.9928   -0.6662 C   0  0  0  0  0  0  0  0  0  0  0  0
    2.9072   -0.8653    0.7057 O   0  0  0  0  0  0  0  0  0  0  0  0
    1.8034   -0.1979    0.1763 C   0  0  1  0  0  0  0  0  0  0  0  0
    1.2053   -0.8138   -1.0461 C   0  0  0  0  0  0  0  0  0  0  0  0
   -0.1319   -0.3508   -0.9931 O   0  0  0  0  0  0  0  0  0  0  0  0
   -0.5327   -0.6687    0.3003 C   0  0  2  0  0  0  0  0  0  0  0  0
   -1.6225    0.1969    0.8456 C   0  0  2  0  0  0  0  0  0  0  0  0
   -2.7442    0.3617    0.0600 O   0  0  0  0  0  0  0  0  0  0  0  0
   -4.0225    0.0965    0.6240 C   0  0  0  0  0  0  0  0  0  0  0  0
   -3.9585   -0.2659    1.8040 O   0  0  0  0  0  0  0  0  0  0  0  0
   -5.1973    0.2738   -0.2113 C   0  0  0  0  0  0  0  0  0  0  0  0
   -5.0051    0.6974   -1.5387 C   0  0  0  0  0  0  0  0  0  0  0  0
   -6.0554    0.8927   -2.4068 C   0  0  0  0  0  0  0  0  0  0  0  0
   -7.3444    0.6721   -1.9813 C   0  0  0  0  0  0  0  0  0  0  0  0
   -7.5622    0.2531   -0.6727 C   0  0  0  0  0  0  0  0  0  0  0  0
   -8.8686    0.0435   -0.2871 C   0  0  0  0  0  0  0  0  0  0  0  0
   -9.0915   -0.3719    1.0054 C   0  0  0  0  0  0  0  0  0  0  0  0
   -8.0463   -0.5698    1.8792 C   0  0  0  0  0  0  0  0  0  0  0  0
   -6.7205   -0.3602    1.4988 C   0  0  0  0  0  0  0  0  0  0  0  0
   -6.4865    0.0558    0.2064 C   0  0  0  0  0  0  0  0  0  0  0  0
   -0.8418    1.5078    1.0274 C   0  0  0  0  0  0  0  0  0  0  0  0
    0.3134    1.0615    1.6129 O   0  0  0  0  0  0  0  0  0  0  0  0
    0.6442   -0.1827    1.1547 C   0  0  2  0  0  0  0  0  0  0  0  0
    5.1660   -1.8194    1.6736 H   0  0  0  0  0  0  0  0  0  0  0  0
    6.3492    0.9225    1.7963 H   0  0  0  0  0  0  0  0  0  0  0  0
    7.1764   -0.6584    2.2516 H   0  0  0  0  0  0  0  0  0  0  0  0
    8.1640   -2.0034    0.5759 H   0  0  0  0  0  0  0  0  0  0  0  0
    9.4281   -1.9856   -1.5040 H   0  0  0  0  0  0  0  0  0  0  0  0
    9.3388   -0.1199   -3.1052 H   0  0  0  0  0  0  0  0  0  0  0  0
    7.8548    1.8405   -2.5128 H   0  0  0  0  0  0  0  0  0  0  0  0
    6.5754    1.8504   -0.4209 H   0  0  0  0  0  0  0  0  0  0  0  0
    2.0797    0.8504   -0.0916 H   0  0  0  0  0  0  0  0  0  0  0  0
    1.2523   -1.9060   -1.0460 H   0  0  0  0  0  0  0  0  0  0  0  0
    1.6694   -0.4254   -1.9765 H   0  0  0  0  0  0  0  0  0  0  0  0
   -0.7435   -1.7304    0.4229 H   0  0  0  0  0  0  0  0  0  0  0  0
   -1.8324   -0.1437    1.8819 H   0  0  0  0  0  0  0  0  0  0  0  0
   -4.0217    0.8808   -1.9106 H   0  0  0  0  0  0  0  0  0  0  0  0
   -5.8846    1.2217   -3.4308 H   0  0  0  0  0  0  0  0  0  0  0  0
   -8.1841    0.8243   -2.6605 H   0  0  0  0  0  0  0  0  0  0  0  0
   -9.6808    0.2078   -1.0000 H   0  0  0  0  0  0  0  0  0  0  0  0
  -10.1180   -0.5426    1.3257 H   0  0  0  0  0  0  0  0  0  0  0  0
   -8.1919   -0.8991    2.9100 H   0  0  0  0  0  0  0  0  0  0  0  0
   -5.9257   -0.5238    2.2049 H   0  0  0  0  0  0  0  0  0  0  0  0
   -0.6569    1.9901    0.0243 H   0  0  0  0  0  0  0  0  0  0  0  0
   -1.4600    2.1378    1.6899 H   0  0  0  0  0  0  0  0  0  0  0  0
    0.8183   -0.8680    2.0048 H   0  0  0  0  0  0  0  0  0  0  0  0
  1  2  2  0
  2  3  1  0
  3  4  1  0
  4  5  1  0
  5  6  2  0
  6  7  1  0
  7  8  2  0
  8  9  1  0
  9 10  2  0
  2 11  1  0
 11 12  1  0
 12 13  1  0
 13 14  1  0
 14 15  1  0
 15 16  1  0
 16 17  1  0
 17 18  1  0
 18 19  2  0
 18 20  1  0
 20 21  2  0
 21 22  1  0
 22 23  2  0
 23 24  1  0
 24 25  2  0
 25 26  1  0
 26 27  2  0
 27 28  1  0
 28 29  2  0
 16 30  1  0
 30 31  1  0
 31 32  1  0
 10  5  1  0
 32 12  1  0
 32 15  1  0
 29 20  1  0
 29 24  1  0
  3 33  1  0
  4 34  1  0
  4 35  1  0
  6 36  1  0
  7 37  1  0
  8 38  1  0
  9 39  1  0
 10 40  1  0
 12 41  1  6
 13 42  1  0
 13 43  1  0
 15 44  1  6
 16 45  1  1
 21 46  1  0
 22 47  1  0
 23 48  1  0
 25 49  1  0
 26 50  1  0
 27 51  1  0
 28 52  1  0
 30 53  1  0
 30 54  1  0
 32 55  1  1
M  END
$$$$
