
     RDKit          3D

 56 57  0  0  0  0  0  0  0  0999 V2000
   -6.1673    1.6830   -1.8483 C   0  0  0  0  0  0  0  0  0  0  0  0
   -5.8428    1.0760   -0.5221 C   0  0  0  0  0  0  0  0  0  0  0  0
   -4.5907    1.5942    0.1058 C   0  0  0  0  0  0  0  0  0  0  0  0
   -3.3590    1.3618   -0.7404 C   0  0  0  0  0  0  0  0  0  0  0  0
   -3.2145   -0.1299   -0.9464 C   0  0  0  0  0  0  0  0  0  0  0  0
   -1.9982   -0.4615   -1.7870 C   0  0  0  0  0  0  0  0  0  0  0  0
   -0.7462    0.0163   -1.1395 C   0  0  0  0  0  0  0  0  0  0  0  0
   -0.1488    1.1922   -1.2724 N   0  0  0  0  0  0  0  0  0  0  0  0
    0.9744    1.2431   -0.5158 C   0  0  0  0  0  0  0  0  0  0  0  0
    1.9444    2.1898   -0.2824 C   0  0  0  0  0  0  0  0  0  0  0  0
    3.0132    1.9229    0.5843 C   0  0  0  0  0  0  0  0  0  0  0  0
    4.0165    2.9611    0.7981 C   0  0  0  0  0  0  0  0  0  0  0  0
    5.0488    2.8349    1.5722 C   0  0  0  0  0  0  0  0  0  0  0  0
    5.9865    3.9437    1.7081 C   0  0  0  0  0  0  0  0  0  0  0  0
    5.7932    5.0243    1.0761 O   0  0  0  0  0  0  0  0  0  0  0  0
    7.1399    3.8462    2.5494 N   0  0  0  0  0  0  0  0  0  0  0  0
    7.9771    4.9169    2.6330 O   0  0  0  0  0  0  0  0  0  0  0  0
    3.0964    0.7020    1.2104 C   0  0  0  0  0  0  0  0  0  0  0  0
    2.1143   -0.2300    0.9621 C   0  0  0  0  0  0  0  0  0  0  0  0
    1.0523    0.0139    0.1106 C   0  0  0  0  0  0  0  0  0  0  0  0
   -0.0136   -0.7398   -0.2786 N   0  0  0  0  0  0  0  0  0  0  0  0
   -0.3056   -2.0766    0.1381 C   0  0  0  0  0  0  0  0  0  0  0  0
    0.2950   -3.1458   -0.7333 C   0  0  0  0  0  0  0  0  0  0  0  0
   -0.0841   -4.4276   -0.1924 N   0  0  0  0  0  0  0  0  0  0  0  0
    0.5137   -4.7325    1.0728 C   0  0  0  0  0  0  0  0  0  0  0  0
    0.1631   -5.5294   -1.1045 C   0  0  0  0  0  0  0  0  0  0  0  0
   -6.3957    2.7527   -1.6886 H   0  0  0  0  0  0  0  0  0  0  0  0
   -7.1027    1.2056   -2.2147 H   0  0  0  0  0  0  0  0  0  0  0  0
   -5.3699    1.5033   -2.5722 H   0  0  0  0  0  0  0  0  0  0  0  0
   -6.6814    1.3791    0.1720 H   0  0  0  0  0  0  0  0  0  0  0  0
   -5.8997   -0.0207   -0.5696 H   0  0  0  0  0  0  0  0  0  0  0  0
   -4.4830    1.0968    1.0929 H   0  0  0  0  0  0  0  0  0  0  0  0
   -4.7458    2.6876    0.3003 H   0  0  0  0  0  0  0  0  0  0  0  0
   -2.4950    1.8015   -0.2040 H   0  0  0  0  0  0  0  0  0  0  0  0
   -3.5418    1.8901   -1.7093 H   0  0  0  0  0  0  0  0  0  0  0  0
   -4.1026   -0.4815   -1.5027 H   0  0  0  0  0  0  0  0  0  0  0  0
   -3.1625   -0.5862    0.0478 H   0  0  0  0  0  0  0  0  0  0  0  0
   -1.9998   -1.5597   -1.9324 H   0  0  0  0  0  0  0  0  0  0  0  0
   -2.1022   -0.0123   -2.7986 H   0  0  0  0  0  0  0  0  0  0  0  0
    1.8736    3.1542   -0.7792 H   0  0  0  0  0  0  0  0  0  0  0  0
    3.8995    3.9087    0.2753 H   0  0  0  0  0  0  0  0  0  0  0  0
    5.2190    1.9213    2.1154 H   0  0  0  0  0  0  0  0  0  0  0  0
    7.3061    2.9637    3.0717 H   0  0  0  0  0  0  0  0  0  0  0  0
    8.5703    4.7815    3.4349 H   0  0  0  0  0  0  0  0  0  0  0  0
    3.8979    0.4417    1.8875 H   0  0  0  0  0  0  0  0  0  0  0  0
    2.1546   -1.2024    1.4410 H   0  0  0  0  0  0  0  0  0  0  0  0
   -0.0259   -2.2126    1.2030 H   0  0  0  0  0  0  0  0  0  0  0  0
   -1.4222   -2.2437    0.0985 H   0  0  0  0  0  0  0  0  0  0  0  0
    1.3791   -3.0368   -0.8712 H   0  0  0  0  0  0  0  0  0  0  0  0
   -0.1556   -3.0838   -1.7446 H   0  0  0  0  0  0  0  0  0  0  0  0
    1.2885   -5.5442    0.9289 H   0  0  0  0  0  0  0  0  0  0  0  0
    1.0997   -3.8818    1.5082 H   0  0  0  0  0  0  0  0  0  0  0  0
   -0.2263   -5.1246    1.7837 H   0  0  0  0  0  0  0  0  0  0  0  0
    1.1671   -5.9747   -0.9236 H   0  0  0  0  0  0  0  0  0  0  0  0
    0.0037   -5.2621   -2.1610 H   0  0  0  0  0  0  0  0  0  0  0  0
   -0.6054   -6.3096   -0.8473 H   0  0  0  0  0  0  0  0  0  0  0  0
  1  2  1  0
  2  3  1  0
  3  4  1  0
  4  5  1  0
  5  6  1  0
  6  7  1  0
  7  8  2  0
  8  9  1  0
  9 10  2  0
 10 11  1  0
 11 12  1  0
 12 13  2  0
 13 14  1  0
 14 15  2  0
 14 16  1  0
 16 17  1  0
 11 18  2  0
 18 19  1  0
 19 20  2  0
 20 21  1  0
 21 22  1  0
 22 23  1  0
 23 24  1  0
 24 25  1  0
 24 26  1  0
 21  7  1  0
 20  9  1  0
  1 27  1  0
  1 28  1  0
  1 29  1  0
  2 30  1  0
  2 31  1  0
  3 32  1  0
  3 33  1  0
  4 34  1  0
  4 35  1  0
  5 36  1  0
  5 37  1  0
  6 38  1  0
  6 39  1  0
 10 40  1  0
 12 41  1  0
 13 42  1  0
 16 43  1  0
 17 44  1  0
 18 45  1  0
 19 46  1  0
 22 47  1  0
 22 48  1  0
 23 49  1  0
 23 50  1  0
 25 51  1  0
 25 52  1  0
 25 53  1  0
 26 54  1  0
 26 55  1  0
 26 56  1  0
M  END
$$$$
