
     RDKit          3D

 52 56  0  0  0  0  0  0  0  0999 V2000
   -6.0225    3.6792   -0.2742 C   0  0  0  0  0  0  0  0  0  0  0  0
   -5.3388    2.5283    0.2664 N   0  0  0  0  0  0  0  0  0  0  0  0
   -3.9302    2.3748    0.1789 C   0  0  0  0  0  0  0  0  0  0  0  0
   -3.3062    3.3061   -0.4039 O   0  0  0  0  0  0  0  0  0  0  0  0
   -3.2147    1.2425    0.7084 C   0  0  0  0  0  0  0  0  0  0  0  0
   -3.6749    0.2523    1.5416 C   0  0  0  0  0  0  0  0  0  0  0  0
   -2.6525   -0.6012    1.7862 N   0  0  0  0  0  0  0  0  0  0  0  0
   -2.7787   -1.7542    2.6160 C   0  0  0  0  0  0  0  0  0  0  0  0
   -1.5454   -0.2081    1.1470 C   0  0  0  0  0  0  0  0  0  0  0  0
   -1.8947    0.9443    0.4727 C   0  0  0  0  0  0  0  0  0  0  0  0
   -0.6704    1.3657   -0.2203 C   0  0  0  0  0  0  0  0  0  0  0  0
   -0.6131    2.3944   -0.9473 O   0  0  0  0  0  0  0  0  0  0  0  0
    0.3981    0.4833    0.0345 N   0  0  0  0  0  0  0  0  0  0  0  0
    1.7576    0.5467   -0.4283 C   0  0  0  0  0  0  0  0  0  0  0  0
    2.0845   -0.0734   -1.6060 C   0  0  0  0  0  0  0  0  0  0  0  0
    3.3995   -0.0312   -2.0410 C   0  0  0  0  0  0  0  0  0  0  0  0
    3.8226   -0.6858   -3.3014 C   0  0  0  0  0  0  0  0  0  0  0  0
    4.2863    0.6457   -1.2365 C   0  0  0  0  0  0  0  0  0  0  0  0
    5.6056    0.8637   -1.3680 N   0  0  0  0  0  0  0  0  0  0  0  0
    6.0469    1.5702   -0.3357 N   0  0  0  0  0  0  0  0  0  0  0  0
    5.0177    1.8340    0.5018 C   0  0  0  0  0  0  0  0  0  0  0  0
    5.0569    2.5943    1.7712 C   0  0  0  0  0  0  0  0  0  0  0  0
    5.8963    2.0246    2.7208 F   0  0  0  0  0  0  0  0  0  0  0  0
    5.5529    3.8698    1.5301 F   0  0  0  0  0  0  0  0  0  0  0  0
    3.9449    1.2506   -0.0811 N   0  0  0  0  0  0  0  0  0  0  0  0
    2.6796    1.1978    0.3175 N   0  0  0  0  0  0  0  0  0  0  0  0
   -0.1301   -0.5709    0.9152 C   0  0  0  0  0  0  0  0  0  0  0  0
   -0.1017   -1.8792    0.2421 C   0  0  0  0  0  0  0  0  0  0  0  0
   -0.7440   -2.1547   -0.9351 C   0  0  0  0  0  0  0  0  0  0  0  0
   -0.6621   -3.4029   -1.5415 C   0  0  0  0  0  0  0  0  0  0  0  0
    0.0747   -4.3987   -0.9658 C   0  0  0  0  0  0  0  0  0  0  0  0
    0.2168   -6.0065   -1.6934 Cl  0  0  0  0  0  0  0  0  0  0  0  0
    0.7309   -4.1425    0.2208 C   0  0  0  0  0  0  0  0  0  0  0  0
    0.6472   -2.9020    0.8215 C   0  0  0  0  0  0  0  0  0  0  0  0
   -7.0588    3.3903   -0.5422 H   0  0  0  0  0  0  0  0  0  0  0  0
   -5.5073    3.9910   -1.2059 H   0  0  0  0  0  0  0  0  0  0  0  0
   -6.0030    4.5584    0.4109 H   0  0  0  0  0  0  0  0  0  0  0  0
   -5.8709    1.7464    0.7499 H   0  0  0  0  0  0  0  0  0  0  0  0
   -4.6685    0.1667    1.9317 H   0  0  0  0  0  0  0  0  0  0  0  0
   -1.8239   -1.9399    3.1676 H   0  0  0  0  0  0  0  0  0  0  0  0
   -3.5924   -1.6327    3.3600 H   0  0  0  0  0  0  0  0  0  0  0  0
   -3.0692   -2.6525    2.0204 H   0  0  0  0  0  0  0  0  0  0  0  0
    1.3132   -0.5735   -2.1610 H   0  0  0  0  0  0  0  0  0  0  0  0
    4.6758   -0.1620   -3.7240 H   0  0  0  0  0  0  0  0  0  0  0  0
    4.1574   -1.7214   -2.9937 H   0  0  0  0  0  0  0  0  0  0  0  0
    2.9973   -0.7478   -4.0414 H   0  0  0  0  0  0  0  0  0  0  0  0
    4.0663    2.6651    2.2252 H   0  0  0  0  0  0  0  0  0  0  0  0
    0.4584   -0.5800    1.8493 H   0  0  0  0  0  0  0  0  0  0  0  0
   -1.3273   -1.4153   -1.4192 H   0  0  0  0  0  0  0  0  0  0  0  0
   -1.1760   -3.5861   -2.4607 H   0  0  0  0  0  0  0  0  0  0  0  0
    1.3213   -4.9274    0.6786 H   0  0  0  0  0  0  0  0  0  0  0  0
    1.1683   -2.7362    1.7411 H   0  0  0  0  0  0  0  0  0  0  0  0
  1  2  1  0
  2  3  1  0
  3  4  2  0
  3  5  1  0
  5  6  2  0
  6  7  1  0
  7  8  1  0
  7  9  1  0
  9 10  2  0
 10 11  1  0
 11 12  2  0
 11 13  1  0
 13 14  1  0
 14 15  1  0
 15 16  2  0
 16 17  1  0
 16 18  1  0
 18 19  2  0
 19 20  1  0
 20 21  2  0
 21 22  1  0
 22 23  1  0
 22 24  1  0
 21 25  1  0
 25 26  1  0
 13 27  1  0
 27 28  1  0
 28 29  2  0
 29 30  1  0
 30 31  2  0
 31 32  1  0
 31 33  1  0
 33 34  2  0
 10  5  1  0
 26 14  2  0
 34 28  1  0
 27  9  1  0
 25 18  1  0
  1 35  1  0
  1 36  1  0
  1 37  1  0
  2 38  1  0
  6 39  1  0
  8 40  1  0
  8 41  1  0
  8 42  1  0
 15 43  1  0
 17 44  1  0
 17 45  1  0
 17 46  1  0
 22 47  1  0
 27 48  1  0
 29 49  1  0
 30 50  1  0
 33 51  1  0
 34 52  1  0
M  END
$$$$
