
     RDKit          3D

 47 49  0  0  0  0  0  0  0  0999 V2000
    8.0444   -1.8117    0.5516 N   0  0  0  0  0  0  0  0  0  0  0  0
    7.7068   -0.7327   -0.7511 S   0  0  0  0  0  0  0  0  0  0  0  0
    8.4496    0.5612   -0.5882 O   0  0  0  0  0  0  0  0  0  0  0  0
    8.0931   -1.3351   -2.0698 O   0  0  0  0  0  0  0  0  0  0  0  0
    5.9898   -0.3636   -0.8153 C   0  0  0  0  0  0  0  0  0  0  0  0
    5.1350   -1.1438   -1.5639 C   0  0  0  0  0  0  0  0  0  0  0  0
    3.7601   -0.9171   -1.6665 C   0  0  0  0  0  0  0  0  0  0  0  0
    3.2227    0.1433   -0.9842 C   0  0  0  0  0  0  0  0  0  0  0  0
    4.0800    0.9218   -0.2364 C   0  0  0  0  0  0  0  0  0  0  0  0
    5.4304    0.6953   -0.1385 C   0  0  0  0  0  0  0  0  0  0  0  0
    1.7904    0.3444   -1.1171 C   0  0  0  0  0  0  0  0  0  0  0  0
    1.1691   -0.4691   -1.8440 O   0  0  0  0  0  0  0  0  0  0  0  0
    0.9932    1.3447   -0.5310 N   0  0  0  0  0  0  0  0  0  0  0  0
   -0.3300    1.8309   -0.4179 C   0  0  0  0  0  0  0  0  0  0  0  0
   -1.3577    0.9494    0.2329 C   0  0  2  0  0  0  0  0  0  0  0  0
   -1.5396   -0.3221   -0.4964 C   0  0  0  0  0  0  0  0  0  0  0  0
   -2.6379    1.7373    0.4600 C   0  0  0  0  0  0  0  0  0  0  0  0
   -3.6938    1.0101    1.0655 N   0  0  0  0  0  0  0  0  0  0  0  0
   -3.7550    0.9343    2.4221 C   0  0  0  0  0  0  0  0  0  0  0  0
   -4.8259    0.1844    2.8470 C   0  0  0  0  0  0  0  0  0  0  0  0
   -5.4740   -0.2345    1.7089 C   0  0  0  0  0  0  0  0  0  0  0  0
   -6.5987   -0.9979    1.4770 C   0  0  0  0  0  0  0  0  0  0  0  0
   -6.9904   -1.2283    0.1846 C   0  0  0  0  0  0  0  0  0  0  0  0
   -6.2703   -0.7045   -0.8617 C   0  0  0  0  0  0  0  0  0  0  0  0
   -5.1398    0.0640   -0.6799 C   0  0  0  0  0  0  0  0  0  0  0  0
   -4.7671    0.2801    0.6416 C   0  0  0  0  0  0  0  0  0  0  0  0
    8.7441   -1.3541    1.1646 H   0  0  0  0  0  0  0  0  0  0  0  0
    7.1810   -1.9586    1.1325 H   0  0  0  0  0  0  0  0  0  0  0  0
    5.5559   -1.9811   -2.1033 H   0  0  0  0  0  0  0  0  0  0  0  0
    3.2003   -1.6010   -2.2853 H   0  0  0  0  0  0  0  0  0  0  0  0
    3.6720    1.7614    0.3073 H   0  0  0  0  0  0  0  0  0  0  0  0
    6.0696    1.3346    0.4629 H   0  0  0  0  0  0  0  0  0  0  0  0
    1.6822    1.9267    0.0247 H   0  0  0  0  0  0  0  0  0  0  0  0
   -0.7110    2.1790   -1.4386 H   0  0  0  0  0  0  0  0  0  0  0  0
   -0.3238    2.7904    0.1595 H   0  0  0  0  0  0  0  0  0  0  0  0
   -0.9535    0.7644    1.2801 H   0  0  0  0  0  0  0  0  0  0  0  0
   -0.7559   -1.0421   -0.1362 H   0  0  0  0  0  0  0  0  0  0  0  0
   -2.5006   -0.8504   -0.1786 H   0  0  0  0  0  0  0  0  0  0  0  0
   -1.4831   -0.2712   -1.5806 H   0  0  0  0  0  0  0  0  0  0  0  0
   -2.4088    2.6627    1.0013 H   0  0  0  0  0  0  0  0  0  0  0  0
   -2.9936    2.0768   -0.5552 H   0  0  0  0  0  0  0  0  0  0  0  0
   -3.0979    1.3691    3.1874 H   0  0  0  0  0  0  0  0  0  0  0  0
   -5.1567   -0.0685    3.8292 H   0  0  0  0  0  0  0  0  0  0  0  0
   -7.1714   -1.4138    2.2898 H   0  0  0  0  0  0  0  0  0  0  0  0
   -7.8801   -1.8321    0.0010 H   0  0  0  0  0  0  0  0  0  0  0  0
   -6.6041   -0.9027   -1.8911 H   0  0  0  0  0  0  0  0  0  0  0  0
   -4.5491    0.4925   -1.5008 H   0  0  0  0  0  0  0  0  0  0  0  0
  1  2  1  0
  2  3  2  0
  2  4  2  0
  2  5  1  0
  5  6  2  0
  6  7  1  0
  7  8  2  0
  8  9  1  0
  9 10  2  0
  8 11  1  0
 11 12  2  0
 11 13  1  0
 13 14  1  0
 14 15  1  0
 15 16  1  0
 15 17  1  0
 17 18  1  0
 18 19  1  0
 19 20  2  0
 20 21  1  0
 21 22  2  0
 22 23  1  0
 23 24  2  0
 24 25  1  0
 25 26  2  0
 10  5  1  0
 26 18  1  0
 26 21  1  0
  1 27  1  0
  1 28  1  0
  6 29  1  0
  7 30  1  0
  9 31  1  0
 10 32  1  0
 13 33  1  0
 14 34  1  0
 14 35  1  0
 15 36  1  1
 16 37  1  0
 16 38  1  0
 16 39  1  0
 17 40  1  0
 17 41  1  0
 19 42  1  0
 20 43  1  0
 22 44  1  0
 23 45  1  0
 24 46  1  0
 25 47  1  0
M  END
$$$$
