
     RDKit          3D

 27 29  0  0  0  0  0  0  0  0999 V2000
   -4.9717    2.4961    0.2382 O   0  0  0  0  0  0  0  0  0  0  0  0
   -4.0920    1.6225    0.0917 C   0  0  0  0  0  0  0  0  0  0  0  0
   -4.2671    0.2646   -0.2862 N   0  0  0  0  0  0  0  0  0  0  0  0
   -3.0090   -0.3923   -0.3383 C   0  0  0  0  0  0  0  0  0  0  0  0
   -2.6445   -1.7077   -0.6524 C   0  0  0  0  0  0  0  0  0  0  0  0
   -1.3223   -2.0976   -0.6273 C   0  0  0  0  0  0  0  0  0  0  0  0
   -0.3349   -1.1971   -0.2919 C   0  0  0  0  0  0  0  0  0  0  0  0
    0.9774   -1.6464   -0.2835 O   0  0  0  0  0  0  0  0  0  0  0  0
    2.0456   -0.8073    0.0435 C   0  0  0  0  0  0  0  0  0  0  0  0
    2.4837   -0.6778    1.3453 C   0  0  0  0  0  0  0  0  0  0  0  0
    3.5335    0.1389    1.7100 C   0  0  0  0  0  0  0  0  0  0  0  0
    4.1966    0.8738    0.7483 C   0  0  0  0  0  0  0  0  0  0  0  0
    5.5455    1.9324    1.1673 Cl  0  0  0  0  0  0  0  0  0  0  0  0
    3.7632    0.7489   -0.5564 C   0  0  0  0  0  0  0  0  0  0  0  0
    2.7118   -0.0706   -0.9134 C   0  0  0  0  0  0  0  0  0  0  0  0
   -0.7105    0.0910    0.0139 C   0  0  0  0  0  0  0  0  0  0  0  0
   -2.0237    0.5118   -0.0021 C   0  0  0  0  0  0  0  0  0  0  0  0
   -2.6562    1.7999    0.2786 C   0  0  0  0  0  0  0  0  0  0  0  0
   -2.0307    2.8456    0.6174 O   0  0  0  0  0  0  0  0  0  0  0  0
   -5.2082   -0.1773   -0.4952 H   0  0  0  0  0  0  0  0  0  0  0  0
   -3.4533   -2.3705   -0.9073 H   0  0  0  0  0  0  0  0  0  0  0  0
   -1.0836   -3.1423   -0.8817 H   0  0  0  0  0  0  0  0  0  0  0  0
    1.9515   -1.2648    2.1019 H   0  0  0  0  0  0  0  0  0  0  0  0
    3.8648    0.2297    2.7335 H   0  0  0  0  0  0  0  0  0  0  0  0
    4.2947    1.3351   -1.3114 H   0  0  0  0  0  0  0  0  0  0  0  0
    2.3925   -0.1472   -1.9584 H   0  0  0  0  0  0  0  0  0  0  0  0
    0.0470    0.8087    0.2783 H   0  0  0  0  0  0  0  0  0  0  0  0
  1  2  2  0
  2  3  1  0
  3  4  1  0
  4  5  2  0
  5  6  1  0
  6  7  2  0
  7  8  1  0
  8  9  1  0
  9 10  2  0
 10 11  1  0
 11 12  2  0
 12 13  1  0
 12 14  1  0
 14 15  2  0
  7 16  1  0
 16 17  2  0
 17 18  1  0
 18 19  2  0
 18  2  1  0
 17  4  1  0
 15  9  1  0
  3 20  1  0
  5 21  1  0
  6 22  1  0
 10 23  1  0
 11 24  1  0
 14 25  1  0
 15 26  1  0
 16 27  1  0
M  END
$$$$
