
     RDKit          3D

 36 37  0  0  0  0  0  0  0  0999 V2000
   -3.3640   -3.8507   -0.2104 C   0  0  0  0  0  0  0  0  0  0  0  0
   -2.9206   -2.9621    1.3221 S   0  0  0  0  0  0  0  0  0  0  0  0
   -1.7514   -1.6851    0.8464 C   0  0  0  0  0  0  0  0  0  0  0  0
   -0.4287   -1.8535    0.8060 N   0  0  0  0  0  0  0  0  0  0  0  0
    0.1293   -0.7030    0.4118 C   0  0  0  0  0  0  0  0  0  0  0  0
    1.5917   -0.5053    0.2485 C   0  0  0  0  0  0  0  0  0  0  0  0
    2.1561   -0.4877   -1.0062 C   0  0  0  0  0  0  0  0  0  0  0  0
    3.5275   -0.3034   -1.1841 C   0  0  0  0  0  0  0  0  0  0  0  0
    4.3570   -0.1330   -0.0968 C   0  0  0  0  0  0  0  0  0  0  0  0
    5.7195    0.0501   -0.2710 O   0  0  0  0  0  0  0  0  0  0  0  0
    6.2225    1.3500   -0.4168 C   0  0  0  0  0  0  0  0  0  0  0  0
    5.6686    1.9583   -1.5139 F   0  0  0  0  0  0  0  0  0  0  0  0
    6.0140    2.0462    0.7551 F   0  0  0  0  0  0  0  0  0  0  0  0
    7.6055    1.2742   -0.6189 F   0  0  0  0  0  0  0  0  0  0  0  0
    3.8008   -0.1491    1.1641 C   0  0  0  0  0  0  0  0  0  0  0  0
    2.4329   -0.3338    1.3239 C   0  0  0  0  0  0  0  0  0  0  0  0
   -0.8418    0.1710    0.2098 N   0  0  0  0  0  0  0  0  0  0  0  0
   -2.0003   -0.4235    0.4742 N   0  0  0  0  0  0  0  0  0  0  0  0
   -3.3004    0.1661    0.3829 C   0  0  0  0  0  0  0  0  0  0  0  0
   -4.2936   -0.5449    0.6720 O   0  0  0  0  0  0  0  0  0  0  0  0
   -3.4592    1.5254   -0.0260 N   0  0  0  0  0  0  0  0  0  0  0  0
   -4.7681    2.0979   -0.1113 C   0  0  0  0  0  0  0  0  0  0  0  0
   -2.3004    2.3260   -0.3544 C   0  0  0  0  0  0  0  0  0  0  0  0
   -3.8553   -4.7820    0.0999 H   0  0  0  0  0  0  0  0  0  0  0  0
   -2.4230   -4.0551   -0.7762 H   0  0  0  0  0  0  0  0  0  0  0  0
   -4.0525   -3.2232   -0.7888 H   0  0  0  0  0  0  0  0  0  0  0  0
    1.4919   -0.6238   -1.8682 H   0  0  0  0  0  0  0  0  0  0  0  0
    3.9190   -0.2983   -2.1967 H   0  0  0  0  0  0  0  0  0  0  0  0
    4.4455   -0.0148    2.0444 H   0  0  0  0  0  0  0  0  0  0  0  0
    2.0163   -0.3431    2.3229 H   0  0  0  0  0  0  0  0  0  0  0  0
   -4.8636    2.7969   -0.9514 H   0  0  0  0  0  0  0  0  0  0  0  0
   -5.5110    1.2724   -0.2093 H   0  0  0  0  0  0  0  0  0  0  0  0
   -5.0140    2.6147    0.8389 H   0  0  0  0  0  0  0  0  0  0  0  0
   -2.6086    3.3542   -0.6418 H   0  0  0  0  0  0  0  0  0  0  0  0
   -1.7090    1.8872   -1.1846 H   0  0  0  0  0  0  0  0  0  0  0  0
   -1.6327    2.3848    0.5528 H   0  0  0  0  0  0  0  0  0  0  0  0
  1  2  1  0
  2  3  1  0
  3  4  2  0
  4  5  1  0
  5  6  1  0
  6  7  2  0
  7  8  1  0
  8  9  2  0
  9 10  1  0
 10 11  1  0
 11 12  1  0
 11 13  1  0
 11 14  1  0
  9 15  1  0
 15 16  2  0
  5 17  2  0
 17 18  1  0
 18 19  1  0
 19 20  2  0
 19 21  1  0
 21 22  1  0
 21 23  1  0
 18  3  1  0
 16  6  1  0
  1 24  1  0
  1 25  1  0
  1 26  1  0
  7 27  1  0
  8 28  1  0
 15 29  1  0
 16 30  1  0
 22 31  1  0
 22 32  1  0
 22 33  1  0
 23 34  1  0
 23 35  1  0
 23 36  1  0
M  END
$$$$
