
     RDKit          3D

 22 22  0  0  0  0  0  0  0  0999 V2000
   -2.9022    0.3395    0.8442 C   0  0  0  0  0  0  0  0  0  0  0  0
   -2.3731   -0.8988   -0.3619 P   0  0  2  0  0  5  0  0  0  0  0  0
   -3.7116   -1.4668   -1.2081 O   0  0  0  0  0  0  0  0  0  0  0  0
   -1.7558   -2.0844    0.3643 O   0  0  0  0  0  0  0  0  0  0  0  0
   -1.2248   -0.2192   -1.4691 O   0  0  0  0  0  0  0  0  0  0  0  0
    0.0407    0.0083   -0.9038 C   0  0  0  0  0  0  0  0  0  0  0  0
    0.3752    1.3238   -0.5774 C   0  0  0  0  0  0  0  0  0  0  0  0
    1.6186    1.5623   -0.0198 C   0  0  0  0  0  0  0  0  0  0  0  0
    2.4692    0.4711    0.1847 C   0  0  0  0  0  0  0  0  0  0  0  0
    2.1371   -0.8287   -0.1385 C   0  0  0  0  0  0  0  0  0  0  0  0
    0.8930   -1.0380   -0.6923 C   0  0  0  0  0  0  0  0  0  0  0  0
    3.7558    0.7067    0.7600 N   0  0  0  0  0  4  0  0  0  0  0  0
    4.5844   -0.3529    0.9597 O   0  0  0  0  0  1  0  0  0  0  0  0
    4.1108    1.8667    1.0732 O   0  0  0  0  0  0  0  0  0  0  0  0
   -2.4032    0.1187    1.8243 H   0  0  0  0  0  0  0  0  0  0  0  0
   -3.9914    0.3415    1.0284 H   0  0  0  0  0  0  0  0  0  0  0  0
   -2.6414    1.3763    0.4990 H   0  0  0  0  0  0  0  0  0  0  0  0
   -4.0596   -2.2747   -0.7659 H   0  0  0  0  0  0  0  0  0  0  0  0
   -0.2809    2.1709   -0.7344 H   0  0  0  0  0  0  0  0  0  0  0  0
    1.9925    2.5387    0.2754 H   0  0  0  0  0  0  0  0  0  0  0  0
    2.8199   -1.6428    0.0343 H   0  0  0  0  0  0  0  0  0  0  0  0
    0.5470   -2.0183   -0.9763 H   0  0  0  0  0  0  0  0  0  0  0  0
  1  2  1  0
  2  3  1  6
  2  4  2  0
  2  5  1  0
  5  6  1  0
  6  7  2  0
  7  8  1  0
  8  9  2  0
  9 10  1  0
 10 11  2  0
  9 12  1  0
 12 13  1  0
 12 14  2  0
 11  6  1  0
  1 15  1  0
  1 16  1  0
  1 17  1  0
  3 18  1  0
  7 19  1  0
  8 20  1  0
 10 21  1  0
 11 22  1  0
M  CHG  2  12   1  13  -1
M  END
$$$$
