
     RDKit          3D

 27 29  0  0  0  0  0  0  0  0999 V2000
   -2.3026   -0.7474    0.2543 C   0  0  2  0  0  0  0  0  0  0  0  0
   -2.7336    0.0405   -0.9451 C   0  0  0  0  0  0  0  0  0  0  0  0
   -2.0899    1.4215   -0.7469 C   0  0  0  0  0  0  0  0  0  0  0  0
   -1.0215    1.0254    0.2843 C   0  0  1  0  0  0  0  0  0  0  0  0
   -1.9238    0.3079    1.1950 N   0  0  0  0  0  0  0  0  0  0  0  0
   -0.1769   -0.0248   -0.3005 C   0  0  2  0  0  0  0  0  0  0  0  0
   -0.9156   -1.3300    0.0374 C   0  0  0  0  0  0  0  0  0  0  0  0
    1.2385   -0.0579    0.0358 C   0  0  0  0  0  0  0  0  0  0  0  0
    2.1931   -0.0406   -0.9887 C   0  0  0  0  0  0  0  0  0  0  0  0
    3.5605   -0.0717   -0.6927 C   0  0  0  0  0  0  0  0  0  0  0  0
    3.9040   -0.1196    0.6445 C   0  0  0  0  0  0  0  0  0  0  0  0
    5.6286   -0.1584    1.0032 Cl  0  0  0  0  0  0  0  0  0  0  0  0
    2.9771   -0.1360    1.6218 N   0  0  0  0  0  0  0  0  0  0  0  0
    1.6563   -0.1068    1.3646 C   0  0  0  0  0  0  0  0  0  0  0  0
   -3.0229   -1.4573    0.6574 H   0  0  0  0  0  0  0  0  0  0  0  0
   -2.2401   -0.3889   -1.8409 H   0  0  0  0  0  0  0  0  0  0  0  0
   -3.8311    0.1142   -1.0726 H   0  0  0  0  0  0  0  0  0  0  0  0
   -1.5523    1.7732   -1.6278 H   0  0  0  0  0  0  0  0  0  0  0  0
   -2.7967    2.1381   -0.2965 H   0  0  0  0  0  0  0  0  0  0  0  0
   -0.5448    1.8945    0.7351 H   0  0  0  0  0  0  0  0  0  0  0  0
   -1.4247   -0.1252    1.9948 H   0  0  0  0  0  0  0  0  0  0  0  0
   -0.2439    0.0121   -1.4265 H   0  0  0  0  0  0  0  0  0  0  0  0
   -0.8869   -2.0568   -0.7760 H   0  0  0  0  0  0  0  0  0  0  0  0
   -0.5772   -1.7241    1.0245 H   0  0  0  0  0  0  0  0  0  0  0  0
    1.8775   -0.0021   -2.0429 H   0  0  0  0  0  0  0  0  0  0  0  0
    4.2820   -0.0576   -1.5003 H   0  0  0  0  0  0  0  0  0  0  0  0
    0.9670   -0.1222    2.1939 H   0  0  0  0  0  0  0  0  0  0  0  0
  1  2  1  0
  2  3  1  0
  3  4  1  0
  4  5  1  0
  4  6  1  0
  6  7  1  0
  6  8  1  0
  8  9  2  0
  9 10  1  0
 10 11  2  0
 11 12  1  0
 11 13  1  0
 13 14  2  0
  5  1  1  0
 14  8  1  0
  7  1  1  0
  1 15  1  1
  2 16  1  0
  2 17  1  0
  3 18  1  0
  3 19  1  0
  4 20  1  1
  5 21  1  0
  6 22  1  6
  7 23  1  0
  7 24  1  0
  9 25  1  0
 10 26  1  0
 14 27  1  0
M  END
$$$$
