
     RDKit          3D

 68 73  0  0  0  0  0  0  0  0999 V2000
   -6.3395    0.8518    0.4516 C   0  0  0  0  0  0  0  0  0  0  0  0
   -5.5085    2.0641    0.6626 C   0  0  0  0  0  0  0  0  0  0  0  0
   -5.8290    2.9260    1.6904 C   0  0  0  0  0  0  0  0  0  0  0  0
   -5.0660    4.0579    1.9021 C   0  0  0  0  0  0  0  0  0  0  0  0
   -3.9946    4.2637    1.0439 C   0  0  0  0  0  0  0  0  0  0  0  0
   -3.7053    3.3991    0.0437 N   0  0  0  0  0  0  0  0  0  0  0  0
   -4.4339    2.2929   -0.1796 C   0  0  0  0  0  0  0  0  0  0  0  0
   -4.0918    1.3673   -1.2857 C   0  0  0  0  0  0  0  0  0  0  0  0
   -3.4508    0.1737   -0.8438 N   0  0  0  0  0  0  0  0  0  0  0  0
   -3.1343   -0.7562   -1.8635 C   0  0  0  0  0  0  0  0  0  0  0  0
   -1.6917   -0.9893   -2.1311 C   0  0  0  0  0  0  0  0  0  0  0  0
   -0.8243   -1.1046   -0.9306 C   0  0  0  0  0  0  0  0  0  0  0  0
   -1.4508   -0.6583    0.3511 C   0  0  0  0  0  0  0  0  0  0  0  0
   -2.5718    0.2971    0.2501 C   0  0  0  0  0  0  0  0  0  0  0  0
    0.3459   -0.1760   -1.1494 C   0  0  0  0  0  0  0  0  0  0  0  0
    0.3050    0.8838   -1.8187 O   0  0  0  0  0  0  0  0  0  0  0  0
    1.4723   -0.7036   -0.4788 N   0  0  0  0  0  0  0  0  0  0  0  0
    2.6614   -0.0293   -0.1038 C   0  0  0  0  0  0  0  0  0  0  0  0
    2.7168    0.5741    1.1329 C   0  0  0  0  0  0  0  0  0  0  0  0
    3.8505    1.2531    1.5729 C   0  0  0  0  0  0  0  0  0  0  0  0
    4.9484    1.3136    0.7260 C   0  0  0  0  0  0  0  0  0  0  0  0
    6.1176    2.0337    1.2194 C   0  0  0  0  0  0  0  0  0  0  0  0
    5.9947    3.1119    2.0633 C   0  0  0  0  0  0  0  0  0  0  0  0
    7.0790    3.8141    2.5488 C   0  0  0  0  0  0  0  0  0  0  0  0
    8.3715    3.4415    2.1885 C   0  0  0  0  0  0  0  0  0  0  0  0
    8.5041    2.3651    1.3455 C   0  0  0  0  0  0  0  0  0  0  0  0
    7.4049    1.6671    0.8641 C   0  0  0  0  0  0  0  0  0  0  0  0
    4.9202    0.7189   -0.5168 C   0  0  0  0  0  0  0  0  0  0  0  0
    3.7721    0.0522   -0.9176 C   0  0  0  0  0  0  0  0  0  0  0  0
    1.1362   -2.0837   -0.2657 C   0  0  0  0  0  0  0  0  0  0  0  0
    1.9554   -2.8540    0.3274 O   0  0  0  0  0  0  0  0  0  0  0  0
   -0.1479   -2.3856   -0.7883 N   0  0  0  0  0  0  0  0  0  0  0  0
   -0.6460   -3.6820   -1.0994 C   0  0  0  0  0  0  0  0  0  0  0  0
    0.0862   -4.8394   -0.9649 C   0  0  0  0  0  0  0  0  0  0  0  0
   -0.4357   -6.0815   -1.2650 C   0  0  0  0  0  0  0  0  0  0  0  0
    0.3092   -7.2315   -1.1254 O   0  0  0  0  0  0  0  0  0  0  0  0
   -1.7299   -6.1840   -1.7151 C   0  0  0  0  0  0  0  0  0  0  0  0
   -2.4652   -5.0257   -1.8505 C   0  0  0  0  0  0  0  0  0  0  0  0
   -1.9086   -3.8643   -1.5467 N   0  0  0  0  0  0  0  0  0  0  0  0
   -7.2909    0.9135    1.0218 H   0  0  0  0  0  0  0  0  0  0  0  0
   -5.8066   -0.0364    0.8553 H   0  0  0  0  0  0  0  0  0  0  0  0
   -6.5934    0.7581   -0.6099 H   0  0  0  0  0  0  0  0  0  0  0  0
   -6.6659    2.7540    2.3496 H   0  0  0  0  0  0  0  0  0  0  0  0
   -5.3124    4.7464    2.7130 H   0  0  0  0  0  0  0  0  0  0  0  0
   -3.3898    5.1478    1.2013 H   0  0  0  0  0  0  0  0  0  0  0  0
   -3.4247    1.8885   -2.0064 H   0  0  0  0  0  0  0  0  0  0  0  0
   -5.0374    1.1626   -1.8597 H   0  0  0  0  0  0  0  0  0  0  0  0
   -3.5631   -0.3327   -2.8246 H   0  0  0  0  0  0  0  0  0  0  0  0
   -3.6601   -1.7210   -1.6406 H   0  0  0  0  0  0  0  0  0  0  0  0
   -1.5963   -1.8831   -2.7813 H   0  0  0  0  0  0  0  0  0  0  0  0
   -1.3169   -0.1503   -2.7940 H   0  0  0  0  0  0  0  0  0  0  0  0
   -0.6621   -0.2496    1.0394 H   0  0  0  0  0  0  0  0  0  0  0  0
   -1.8232   -1.5903    0.8694 H   0  0  0  0  0  0  0  0  0  0  0  0
   -3.1915    0.3106    1.1909 H   0  0  0  0  0  0  0  0  0  0  0  0
   -2.1316    1.3387    0.2208 H   0  0  0  0  0  0  0  0  0  0  0  0
    1.8405    0.5100    1.7761 H   0  0  0  0  0  0  0  0  0  0  0  0
    3.8657    1.7164    2.5482 H   0  0  0  0  0  0  0  0  0  0  0  0
    4.9809    3.4102    2.3510 H   0  0  0  0  0  0  0  0  0  0  0  0
    6.9129    4.6664    3.2199 H   0  0  0  0  0  0  0  0  0  0  0  0
    9.2136    3.9925    2.5700 H   0  0  0  0  0  0  0  0  0  0  0  0
    9.5082    2.0741    1.0643 H   0  0  0  0  0  0  0  0  0  0  0  0
    7.5071    0.8226    0.2028 H   0  0  0  0  0  0  0  0  0  0  0  0
    5.7890    0.7775   -1.1633 H   0  0  0  0  0  0  0  0  0  0  0  0
    3.7213   -0.4226   -1.8848 H   0  0  0  0  0  0  0  0  0  0  0  0
    1.1205   -4.7546   -0.6081 H   0  0  0  0  0  0  0  0  0  0  0  0
    0.1650   -7.9158   -0.3958 H   0  0  0  0  0  0  0  0  0  0  0  0
   -2.2078   -7.1170   -1.9693 H   0  0  0  0  0  0  0  0  0  0  0  0
   -3.4768   -5.0901   -2.1996 H   0  0  0  0  0  0  0  0  0  0  0  0
  1  2  1  0
  2  3  2  0
  3  4  1  0
  4  5  2  0
  5  6  1  0
  6  7  2  0
  7  8  1  0
  8  9  1  0
  9 10  1  0
 10 11  1  0
 11 12  1  0
 12 13  1  0
 13 14  1  0
 12 15  1  0
 15 16  2  0
 15 17  1  0
 17 18  1  0
 18 19  2  0
 19 20  1  0
 20 21  2  0
 21 22  1  0
 22 23  2  0
 23 24  1  0
 24 25  2  0
 25 26  1  0
 26 27  2  0
 21 28  1  0
 28 29  2  0
 17 30  1  0
 30 31  2  0
 30 32  1  0
 32 33  1  0
 33 34  2  0
 34 35  1  0
 35 36  1  0
 35 37  2  0
 37 38  1  0
 38 39  2  0
  7  2  1  0
 14  9  1  0
 29 18  1  0
 39 33  1  0
 32 12  1  0
 27 22  1  0
  1 40  1  0
  1 41  1  0
  1 42  1  0
  3 43  1  0
  4 44  1  0
  5 45  1  0
  8 46  1  0
  8 47  1  0
 10 48  1  0
 10 49  1  0
 11 50  1  0
 11 51  1  0
 13 52  1  0
 13 53  1  0
 14 54  1  0
 14 55  1  0
 19 56  1  0
 20 57  1  0
 23 58  1  0
 24 59  1  0
 25 60  1  0
 26 61  1  0
 27 62  1  0
 28 63  1  0
 29 64  1  0
 34 65  1  0
 36 66  1  0
 37 67  1  0
 38 68  1  0
M  END
$$$$
