
     RDKit          3D

 35 36  0  0  0  0  0  0  0  0999 V2000
    1.2057    0.1370    0.4580 C   0  0  1  0  0  0  0  0  0  0  0  0
    2.5277    0.5524   -0.0899 C   0  0  0  0  0  0  0  0  0  0  0  0
    3.4587   -0.3638    0.3993 O   0  0  0  0  0  0  0  0  0  0  0  0
    5.0132   -0.0760   -0.0989 P   0  0  0  0  0  0  0  0  0  0  0  0
    5.6939    1.0474    0.9806 O   0  0  0  0  0  0  0  0  0  0  0  0
    5.1489    0.4083   -1.6939 O   0  0  0  0  0  0  0  0  0  0  0  0
    5.8008   -1.3678    0.1424 O   0  0  0  0  0  0  0  0  0  0  0  0
    0.1392    0.9361    0.0799 O   0  0  0  0  0  0  0  0  0  0  0  0
   -0.9275    0.2762    0.7045 C   0  0  1  0  0  0  0  0  0  0  0  0
   -2.1849    0.4380    0.0425 N   0  0  0  0  0  0  0  0  0  0  0  0
   -3.2214   -0.1088    0.7088 C   0  0  0  0  0  0  0  0  0  0  0  0
   -3.1496   -0.7815    1.9289 O   0  0  0  0  0  0  0  0  0  0  0  0
   -4.5097   -0.0322    0.1896 C   0  0  0  0  0  0  0  0  0  0  0  0
   -4.6411    0.6281   -1.0260 C   0  0  0  0  0  0  0  0  0  0  0  0
   -5.8973    0.7420   -1.6024 O   0  0  0  0  0  0  0  0  0  0  0  0
   -3.5593    1.1459   -1.6273 N   0  0  0  0  0  0  0  0  0  0  0  0
   -2.3216    1.0662   -1.1176 C   0  0  0  0  0  0  0  0  0  0  0  0
   -1.3068    1.5533   -1.6840 O   0  0  0  0  0  0  0  0  0  0  0  0
   -0.5940   -1.2072    0.6942 C   0  0  2  0  0  0  0  0  0  0  0  0
   -0.2185   -1.5676    1.9827 O   0  0  0  0  0  0  0  0  0  0  0  0
    0.7111   -1.1777   -0.1112 C   0  0  2  0  0  0  0  0  0  0  0  0
    1.5482   -2.2364    0.1924 O   0  0  0  0  0  0  0  0  0  0  0  0
    1.2304    0.1086    1.5607 H   0  0  0  0  0  0  0  0  0  0  0  0
    2.4856    0.5424   -1.2063 H   0  0  0  0  0  0  0  0  0  0  0  0
    2.7539    1.5985    0.1969 H   0  0  0  0  0  0  0  0  0  0  0  0
    5.2807    1.9234    0.7657 H   0  0  0  0  0  0  0  0  0  0  0  0
    4.4401    1.0565   -1.8799 H   0  0  0  0  0  0  0  0  0  0  0  0
   -1.0221    0.6598    1.7521 H   0  0  0  0  0  0  0  0  0  0  0  0
   -2.7658   -0.3061    2.7313 H   0  0  0  0  0  0  0  0  0  0  0  0
   -5.4127   -0.4305    0.6310 H   0  0  0  0  0  0  0  0  0  0  0  0
   -6.6834    0.9199   -0.9832 H   0  0  0  0  0  0  0  0  0  0  0  0
   -1.3473   -1.8364    0.2387 H   0  0  0  0  0  0  0  0  0  0  0  0
   -0.2877   -0.8135    2.6203 H   0  0  0  0  0  0  0  0  0  0  0  0
    0.4994   -1.0628   -1.1865 H   0  0  0  0  0  0  0  0  0  0  0  0
    2.1132   -2.3721   -0.6297 H   0  0  0  0  0  0  0  0  0  0  0  0
  1  2  1  0
  2  3  1  0
  3  4  1  0
  4  5  1  0
  4  6  1  0
  4  7  2  0
  1  8  1  0
  8  9  1  0
  9 10  1  0
 10 11  1  0
 11 12  1  0
 11 13  2  0
 13 14  1  0
 14 15  1  0
 14 16  2  0
 16 17  1  0
 17 18  2  0
  9 19  1  0
 19 20  1  0
 19 21  1  0
 21 22  1  0
 21  1  1  0
 17 10  1  0
  1 23  1  1
  2 24  1  0
  2 25  1  0
  5 26  1  0
  6 27  1  0
  9 28  1  1
 12 29  1  0
 13 30  1  0
 15 31  1  0
 19 32  1  6
 20 33  1  0
 21 34  1  6
 22 35  1  0
M  END
$$$$
