
     RDKit          3D

 55 55  0  0  0  0  0  0  0  0999 V2000
    8.7748   -0.2094   -0.0713 C   0  0  0  0  0  0  0  0  0  0  0  0
    7.4153    0.4222    0.0025 C   0  0  0  0  0  0  0  0  0  0  0  0
    6.2878   -0.5796   -0.2635 C   0  0  0  0  0  0  0  0  0  0  0  0
    4.9884    0.1976   -0.1556 C   0  0  0  0  0  0  0  0  0  0  0  0
    3.7883   -0.6588   -0.3937 C   0  0  0  0  0  0  0  0  0  0  0  0
    2.5259    0.1540   -0.2765 C   0  0  0  0  0  0  0  0  0  0  0  0
    2.3547    0.7844    1.0759 C   0  0  0  0  0  0  0  0  0  0  0  0
    1.0552    1.5751    1.0784 C   0  0  0  0  0  0  0  0  0  0  0  0
   -0.1293    0.7440    0.8071 C   0  0  0  0  0  0  0  0  0  0  0  0
   -0.7381    0.1917    1.9208 C   0  0  0  0  0  0  0  0  0  0  0  0
   -1.8596   -0.6038    1.7515 C   0  0  0  0  0  0  0  0  0  0  0  0
   -2.4268   -0.8902    0.5048 C   0  0  0  0  0  0  0  0  0  0  0  0
   -3.6215   -1.7595    0.4763 C   0  0  0  0  0  0  0  0  0  0  0  0
   -4.9237   -1.0493    0.6094 C   0  0  0  0  0  0  0  0  0  0  0  0
   -5.2236   -0.0367   -0.4423 C   0  0  0  0  0  0  0  0  0  0  0  0
   -4.2572    1.0375   -0.5084 N   0  0  0  0  0  0  0  0  0  0  0  0
   -6.5694    0.6423   -0.1562 C   0  0  0  0  0  0  0  0  0  0  0  0
   -7.5945   -0.2804   -0.0669 O   0  0  0  0  0  0  0  0  0  0  0  0
   -5.3678   -0.6447   -1.8195 C   0  0  0  0  0  0  0  0  0  0  0  0
   -5.8077    0.3622   -2.6942 O   0  0  0  0  0  0  0  0  0  0  0  0
   -1.7897   -0.3206   -0.5788 C   0  0  0  0  0  0  0  0  0  0  0  0
   -0.6721    0.4745   -0.4321 C   0  0  0  0  0  0  0  0  0  0  0  0
    9.0662   -0.2878   -1.1316 H   0  0  0  0  0  0  0  0  0  0  0  0
    9.4755    0.4875    0.4555 H   0  0  0  0  0  0  0  0  0  0  0  0
    8.7698   -1.1913    0.4428 H   0  0  0  0  0  0  0  0  0  0  0  0
    7.3395    1.1374   -0.8687 H   0  0  0  0  0  0  0  0  0  0  0  0
    7.2210    1.0217    0.8898 H   0  0  0  0  0  0  0  0  0  0  0  0
    6.3452   -1.3509    0.5313 H   0  0  0  0  0  0  0  0  0  0  0  0
    6.4116   -1.0661   -1.2297 H   0  0  0  0  0  0  0  0  0  0  0  0
    5.0071    0.9685   -0.9548 H   0  0  0  0  0  0  0  0  0  0  0  0
    4.9273    0.6384    0.8565 H   0  0  0  0  0  0  0  0  0  0  0  0
    3.8445   -0.9932   -1.4630 H   0  0  0  0  0  0  0  0  0  0  0  0
    3.7550   -1.5699    0.2180 H   0  0  0  0  0  0  0  0  0  0  0  0
    2.5353    0.9587   -1.0378 H   0  0  0  0  0  0  0  0  0  0  0  0
    1.6639   -0.5088   -0.4467 H   0  0  0  0  0  0  0  0  0  0  0  0
    2.3782    0.0316    1.8874 H   0  0  0  0  0  0  0  0  0  0  0  0
    3.1473    1.5669    1.2591 H   0  0  0  0  0  0  0  0  0  0  0  0
    1.2000    2.3834    0.3332 H   0  0  0  0  0  0  0  0  0  0  0  0
    0.9403    2.1070    2.0550 H   0  0  0  0  0  0  0  0  0  0  0  0
   -0.3679    0.3594    2.9263 H   0  0  0  0  0  0  0  0  0  0  0  0
   -2.3194   -1.0254    2.6378 H   0  0  0  0  0  0  0  0  0  0  0  0
   -3.6200   -2.3368   -0.4715 H   0  0  0  0  0  0  0  0  0  0  0  0
   -3.5001   -2.4990    1.2881 H   0  0  0  0  0  0  0  0  0  0  0  0
   -4.9617   -0.5155    1.6047 H   0  0  0  0  0  0  0  0  0  0  0  0
   -5.7469   -1.7836    0.6448 H   0  0  0  0  0  0  0  0  0  0  0  0
   -4.1960    1.4865   -1.4301 H   0  0  0  0  0  0  0  0  0  0  0  0
   -4.2567    1.6560    0.3125 H   0  0  0  0  0  0  0  0  0  0  0  0
   -6.4344    1.2469    0.7664 H   0  0  0  0  0  0  0  0  0  0  0  0
   -6.7743    1.3293   -0.9832 H   0  0  0  0  0  0  0  0  0  0  0  0
   -8.2454   -0.0491    0.6450 H   0  0  0  0  0  0  0  0  0  0  0  0
   -4.4367   -1.0913   -2.1845 H   0  0  0  0  0  0  0  0  0  0  0  0
   -6.1970   -1.3936   -1.7524 H   0  0  0  0  0  0  0  0  0  0  0  0
   -6.7931    0.3473   -2.7823 H   0  0  0  0  0  0  0  0  0  0  0  0
   -2.1988   -0.5258   -1.5364 H   0  0  0  0  0  0  0  0  0  0  0  0
   -0.1884    0.9094   -1.2776 H   0  0  0  0  0  0  0  0  0  0  0  0
  1  2  1  0
  2  3  1  0
  3  4  1  0
  4  5  1  0
  5  6  1  0
  6  7  1  0
  7  8  1  0
  8  9  1  0
  9 10  2  0
 10 11  1  0
 11 12  2  0
 12 13  1  0
 13 14  1  0
 14 15  1  0
 15 16  1  0
 15 17  1  0
 17 18  1  0
 15 19  1  0
 19 20  1  0
 12 21  1  0
 21 22  2  0
 22  9  1  0
  1 23  1  0
  1 24  1  0
  1 25  1  0
  2 26  1  0
  2 27  1  0
  3 28  1  0
  3 29  1  0
  4 30  1  0
  4 31  1  0
  5 32  1  0
  5 33  1  0
  6 34  1  0
  6 35  1  0
  7 36  1  0
  7 37  1  0
  8 38  1  0
  8 39  1  0
 10 40  1  0
 11 41  1  0
 13 42  1  0
 13 43  1  0
 14 44  1  0
 14 45  1  0
 16 46  1  0
 16 47  1  0
 17 48  1  0
 17 49  1  0
 18 50  1  0
 19 51  1  0
 19 52  1  0
 20 53  1  0
 21 54  1  0
 22 55  1  0
M  END
$$$$
