
     RDKit          3D

104107  0  0  0  0  0  0  0  0999 V2000
   -3.8077    1.0788    0.6659 C   0  0  2  0  0  0  0  0  0  0  0  0
   -4.7474    0.4191    1.5697 C   0  0  0  0  0  0  0  0  0  0  0  0
   -2.5979    1.5818    1.1888 N   0  0  0  0  0  0  0  0  0  0  0  0
   -1.5002    0.4763    1.9120 P   0  0  0  0  0  0  0  0  0  0  0  0
   -1.9000   -0.0068    3.4694 O   0  0  0  0  0  0  0  0  0  0  0  0
   -0.2154    1.3012    2.1392 O   0  0  0  0  0  0  0  0  0  0  0  0
   -0.9736   -0.8429    0.8256 C   0  0  2  0  0  0  0  0  0  0  0  0
   -1.8028   -2.0746    0.8121 C   0  0  0  0  0  0  0  0  0  0  0  0
   -1.9451   -2.8079    2.0633 C   0  0  0  0  0  0  0  0  0  0  0  0
   -2.9161   -2.6980    3.0378 C   0  0  0  0  0  0  0  0  0  0  0  0
   -2.9492   -3.4439    4.1943 C   0  0  0  0  0  0  0  0  0  0  0  0
   -1.9623   -4.3780    4.4361 C   0  0  0  0  0  0  0  0  0  0  0  0
   -0.9892   -4.5112    3.4939 C   0  0  0  0  0  0  0  0  0  0  0  0
   -0.9543   -3.7656    2.3363 C   0  0  0  0  0  0  0  0  0  0  0  0
    0.4111   -1.2111    1.0455 N   0  0  0  0  0  0  0  0  0  0  0  0
    1.1474   -1.5777    0.0285 C   0  0  0  0  0  0  0  0  0  0  0  0
    1.7826   -1.5768    1.2575 O   0  0  0  0  0  0  0  0  0  0  0  0
    0.9688   -1.7486   -1.4359 C   0  0  2  0  0  0  0  0  0  0  0  0
    1.0752   -3.2099   -1.8287 C   0  0  0  0  0  0  0  0  0  0  0  0
    2.3556   -3.8700   -1.4837 C   0  0  0  0  0  0  0  0  0  0  0  0
    3.5925   -3.2803   -2.0766 C   0  0  0  0  0  0  0  0  0  0  0  0
    4.8410   -4.0697   -1.6485 C   0  0  0  0  0  0  0  0  0  0  0  0
    4.9657   -4.0575   -0.2017 N   0  0  0  0  0  4  0  0  0  0  0  0
    1.8397   -0.9116   -2.1586 N   0  0  0  0  0  0  0  0  0  0  0  0
    2.2359    0.2516   -2.0111 C   0  0  0  0  0  0  0  0  0  0  0  0
    1.8926    1.1229   -0.9905 O   0  0  0  0  0  0  0  0  0  0  0  0
    3.1923    0.7820   -3.0508 C   0  0  2  0  0  0  0  0  0  0  0  0
    3.4603   -0.2336   -4.1269 C   0  0  0  0  0  0  0  0  0  0  0  0
    4.9423   -0.4804   -4.1846 C   0  0  0  0  0  0  0  0  0  0  0  0
    5.5307    0.0380   -2.8979 C   0  0  0  0  0  0  0  0  0  0  0  0
    4.4978    0.9908   -2.4622 N   0  0  0  0  0  0  0  0  0  0  0  0
    4.7910    2.0484   -1.5227 C   0  0  0  0  0  0  0  0  0  0  0  0
    3.8728    2.8231   -1.1942 O   0  0  0  0  0  0  0  0  0  0  0  0
    6.0534    2.1983   -1.0039 O   0  0  0  0  0  0  0  0  0  0  0  0
    6.4043    3.1983   -0.0919 C   0  0  0  0  0  0  0  0  0  0  0  0
    5.6545    3.1439    1.1701 C   0  0  0  0  0  0  0  0  0  0  0  0
    6.1697    2.2676    2.1202 C   0  0  0  0  0  0  0  0  0  0  0  0
    5.6390    2.0706    3.3686 C   0  0  0  0  0  0  0  0  0  0  0  0
    4.5149    2.8063    3.6784 C   0  0  0  0  0  0  0  0  0  0  0  0
    3.9297    3.7031    2.8000 C   0  0  0  0  0  0  0  0  0  0  0  0
    4.5473    3.8259    1.5632 C   0  0  0  0  0  0  0  0  0  0  0  0
   -4.4866    2.2071   -0.0270 C   0  0  0  0  0  0  0  0  0  0  0  0
   -3.7441    3.2032    0.1299 O   0  0  0  0  0  0  0  0  0  0  0  0
   -5.7492    2.0154   -0.6983 N   0  0  0  0  0  0  0  0  0  0  0  0
   -6.5794    0.8344   -0.8617 C   0  0  0  0  0  0  0  0  0  0  0  0
   -6.9532    0.9610   -2.3310 C   0  0  0  0  0  0  0  0  0  0  0  0
   -7.3447    2.4171   -2.4085 C   0  0  0  0  0  0  0  0  0  0  0  0
   -6.4555    3.0700   -1.3818 C   0  0  1  0  0  0  0  0  0  0  0  0
   -7.2139    3.9621   -0.4837 C   0  0  0  0  0  0  0  0  0  0  0  0
   -7.9430    4.9602   -0.5960 O   0  0  0  0  0  0  0  0  0  0  0  0
   -7.3332    3.9258    0.8858 O   0  0  0  0  0  0  0  0  0  0  0  0
   -8.1176    4.8770    1.6082 C   0  0  0  0  0  0  0  0  0  0  0  0
   -3.5349    0.3626   -0.1496 H   0  0  0  0  0  0  0  0  0  0  0  0
   -5.7646    0.8976    1.5331 H   0  0  0  0  0  0  0  0  0  0  0  0
   -4.9384   -0.6379    1.2926 H   0  0  0  0  0  0  0  0  0  0  0  0
   -4.4926    0.4114    2.6405 H   0  0  0  0  0  0  0  0  0  0  0  0
   -2.0743    2.2045    0.5392 H   0  0  0  0  0  0  0  0  0  0  0  0
   -2.3178    0.7659    3.9248 H   0  0  0  0  0  0  0  0  0  0  0  0
   -1.0202   -0.4210   -0.2126 H   0  0  0  0  0  0  0  0  0  0  0  0
   -2.8448   -1.8958    0.4236 H   0  0  0  0  0  0  0  0  0  0  0  0
   -1.3556   -2.7465    0.0518 H   0  0  0  0  0  0  0  0  0  0  0  0
   -3.6826   -1.9654    2.8319 H   0  0  0  0  0  0  0  0  0  0  0  0
   -3.7959   -3.2306    4.8693 H   0  0  0  0  0  0  0  0  0  0  0  0
   -2.0808   -4.9078    5.3701 H   0  0  0  0  0  0  0  0  0  0  0  0
   -0.2371   -5.2645    3.7397 H   0  0  0  0  0  0  0  0  0  0  0  0
   -0.1160   -4.0022    1.7064 H   0  0  0  0  0  0  0  0  0  0  0  0
    2.7755   -1.7667    1.3211 H   0  0  0  0  0  0  0  0  0  0  0  0
   -0.0937   -1.4445   -1.6721 H   0  0  0  0  0  0  0  0  0  0  0  0
    0.2458   -3.7736   -1.3852 H   0  0  0  0  0  0  0  0  0  0  0  0
    0.9551   -3.2535   -2.9339 H   0  0  0  0  0  0  0  0  0  0  0  0
    2.4747   -4.0619   -0.3837 H   0  0  0  0  0  0  0  0  0  0  0  0
    2.2905   -4.9215   -1.9063 H   0  0  0  0  0  0  0  0  0  0  0  0
    3.6059   -3.3129   -3.1723 H   0  0  0  0  0  0  0  0  0  0  0  0
    3.7938   -2.2460   -1.7499 H   0  0  0  0  0  0  0  0  0  0  0  0
    5.7065   -3.5550   -2.0734 H   0  0  0  0  0  0  0  0  0  0  0  0
    4.8141   -5.0967   -2.0200 H   0  0  0  0  0  0  0  0  0  0  0  0
    4.3306   -4.8060    0.1811 H   0  0  0  0  0  0  0  0  0  0  0  0
    5.9402   -4.2212    0.1278 H   0  0  0  0  0  0  0  0  0  0  0  0
    4.6667   -3.1318    0.1764 H   0  0  0  0  0  0  0  0  0  0  0  0
    1.8255    0.8395   -0.0350 H   0  0  0  0  0  0  0  0  0  0  0  0
    2.7819    1.7302   -3.4711 H   0  0  0  0  0  0  0  0  0  0  0  0
    2.8815   -1.1734   -3.9020 H   0  0  0  0  0  0  0  0  0  0  0  0
    3.0774    0.1976   -5.0831 H   0  0  0  0  0  0  0  0  0  0  0  0
    5.3753    0.1476   -5.0086 H   0  0  0  0  0  0  0  0  0  0  0  0
    5.1760   -1.5525   -4.3562 H   0  0  0  0  0  0  0  0  0  0  0  0
    6.4775    0.5951   -3.0702 H   0  0  0  0  0  0  0  0  0  0  0  0
    5.6365   -0.7821   -2.1904 H   0  0  0  0  0  0  0  0  0  0  0  0
    7.5023    3.1500    0.1720 H   0  0  0  0  0  0  0  0  0  0  0  0
    6.2217    4.1818   -0.6076 H   0  0  0  0  0  0  0  0  0  0  0  0
    7.0649    1.6578    1.9228 H   0  0  0  0  0  0  0  0  0  0  0  0
    6.0488    1.3955    4.0781 H   0  0  0  0  0  0  0  0  0  0  0  0
    4.0344    2.7133    4.6372 H   0  0  0  0  0  0  0  0  0  0  0  0
    3.0542    4.2842    3.0259 H   0  0  0  0  0  0  0  0  0  0  0  0
    4.1330    4.5223    0.8573 H   0  0  0  0  0  0  0  0  0  0  0  0
   -6.0347   -0.1125   -0.7616 H   0  0  0  0  0  0  0  0  0  0  0  0
   -7.5000    0.9014   -0.2601 H   0  0  0  0  0  0  0  0  0  0  0  0
   -7.8278    0.2971   -2.5540 H   0  0  0  0  0  0  0  0  0  0  0  0
   -6.0973    0.8214   -2.9870 H   0  0  0  0  0  0  0  0  0  0  0  0
   -7.1991    2.8260   -3.4178 H   0  0  0  0  0  0  0  0  0  0  0  0
   -8.4285    2.4804   -2.1043 H   0  0  0  0  0  0  0  0  0  0  0  0
   -5.6832    3.6763   -1.9454 H   0  0  0  0  0  0  0  0  0  0  0  0
   -9.1465    4.9115    1.2106 H   0  0  0  0  0  0  0  0  0  0  0  0
   -8.0976    4.6435    2.6827 H   0  0  0  0  0  0  0  0  0  0  0  0
   -7.6523    5.8637    1.4552 H   0  0  0  0  0  0  0  0  0  0  0  0
  1  2  1  0
  1  3  1  0
  3  4  1  0
  4  5  1  0
  4  6  2  0
  4  7  1  0
  7  8  1  0
  8  9  1  0
  9 10  2  0
 10 11  1  0
 11 12  2  0
 12 13  1  0
 13 14  2  0
  7 15  1  0
 15 16  2  3
 16 17  1  0
 16 18  1  0
 18 19  1  0
 19 20  1  0
 20 21  1  0
 21 22  1  0
 22 23  1  0
 18 24  1  0
 24 25  2  3
 25 26  1  0
 25 27  1  0
 27 28  1  0
 28 29  1  0
 29 30  1  0
 30 31  1  0
 31 32  1  0
 32 33  2  0
 32 34  1  0
 34 35  1  0
 35 36  1  0
 36 37  2  0
 37 38  1  0
 38 39  2  0
 39 40  1  0
 40 41  2  0
  1 42  1  0
 42 43  2  0
 42 44  1  0
 44 45  1  0
 45 46  1  0
 46 47  1  0
 47 48  1  0
 48 49  1  0
 49 50  2  0
 49 51  1  0
 51 52  1  0
 14  9  1  0
 31 27  1  0
 41 36  1  0
 48 44  1  0
  1 53  1  6
  2 54  1  0
  2 55  1  0
  2 56  1  0
  3 57  1  0
  5 58  1  0
  7 59  1  6
  8 60  1  0
  8 61  1  0
 10 62  1  0
 11 63  1  0
 12 64  1  0
 13 65  1  0
 14 66  1  0
 17 67  1  0
 18 68  1  1
 19 69  1  0
 19 70  1  0
 20 71  1  0
 20 72  1  0
 21 73  1  0
 21 74  1  0
 22 75  1  0
 22 76  1  0
 23 77  1  0
 23 78  1  0
 23 79  1  0
 26 80  1  0
 27 81  1  6
 28 82  1  0
 28 83  1  0
 29 84  1  0
 29 85  1  0
 30 86  1  0
 30 87  1  0
 35 88  1  0
 35 89  1  0
 37 90  1  0
 38 91  1  0
 39 92  1  0
 40 93  1  0
 41 94  1  0
 45 95  1  0
 45 96  1  0
 46 97  1  0
 46 98  1  0
 47 99  1  0
 47100  1  0
 48101  1  6
 52102  1  0
 52103  1  0
 52104  1  0
M  CHG  1  23   1
M  END
$$$$
