
     RDKit          3D

 73 78  0  0  0  0  0  0  0  0999 V2000
   -1.4124    7.1690   -3.7101 C   0  0  0  0  0  0  0  0  0  0  0  0
   -0.7860    6.0402   -3.1786 O   0  0  0  0  0  0  0  0  0  0  0  0
   -1.5333    5.1068   -2.4751 C   0  0  0  0  0  0  0  0  0  0  0  0
   -0.9287    3.9631   -1.9294 C   0  0  0  0  0  0  0  0  0  0  0  0
   -1.6352    3.0182   -1.2279 C   0  0  0  0  0  0  0  0  0  0  0  0
   -0.9606    1.8784   -0.7233 N   0  0  0  0  0  0  0  0  0  0  0  0
    0.4247    1.5566   -0.9890 C   0  0  0  0  0  0  0  0  0  0  0  0
    1.0747    1.8778   -2.0139 O   0  0  0  0  0  0  0  0  0  0  0  0
    0.9458    0.7965    0.1246 N   0  0  0  0  0  0  0  0  0  0  0  0
    2.2684    0.2838    0.2726 C   0  0  0  0  0  0  0  0  0  0  0  0
    3.2123    1.0614    0.8813 C   0  0  0  0  0  0  0  0  0  0  0  0
    4.5206    0.6158    1.0549 C   0  0  0  0  0  0  0  0  0  0  0  0
    4.8420   -0.6240    0.6004 C   0  0  0  0  0  0  0  0  0  0  0  0
    6.2007   -1.1121    0.7713 C   0  0  0  0  0  0  0  0  0  0  0  0
    6.9778   -0.7511    1.8482 C   0  0  0  0  0  0  0  0  0  0  0  0
    8.2781   -1.2236    2.0060 C   0  0  0  0  0  0  0  0  0  0  0  0
    8.7865   -2.0745    1.0505 C   0  0  0  0  0  0  0  0  0  0  0  0
   10.1375   -2.5844    1.1856 C   0  0  0  0  0  0  0  0  0  0  0  0
   10.6475   -3.3641    0.3284 O   0  0  0  0  0  0  0  0  0  0  0  0
   10.9209   -2.2275    2.2738 O   0  0  0  0  0  0  0  0  0  0  0  0
    8.0203   -2.4510   -0.0430 C   0  0  0  0  0  0  0  0  0  0  0  0
    8.6594   -3.5328   -1.2627 Cl  0  0  0  0  0  0  0  0  0  0  0  0
    6.7248   -1.9541   -0.1602 C   0  0  0  0  0  0  0  0  0  0  0  0
    3.9103   -1.4267   -0.0158 C   0  0  0  0  0  0  0  0  0  0  0  0
    2.5978   -0.9734   -0.1872 C   0  0  0  0  0  0  0  0  0  0  0  0
   -0.1461    0.6859    1.0227 C   0  0  0  0  0  0  0  0  0  0  0  0
   -0.0818    0.5369    2.2552 O   0  0  0  0  0  0  0  0  0  0  0  0
   -1.3735    0.7910    0.1318 C   0  0  0  0  0  0  0  0  0  0  0  0
   -2.5832    0.9596    0.9402 C   0  0  0  0  0  0  0  0  0  0  0  0
   -3.5275   -0.1935    1.0013 C   0  0  0  0  0  0  0  0  0  0  0  0
   -3.6436   -0.9845   -0.1686 N   0  0  0  0  0  0  0  0  0  0  0  0
   -3.7752   -2.4017    0.0909 C   0  0  0  0  0  0  0  0  0  0  0  0
   -4.9449   -2.7239    0.9171 C   0  0  0  0  0  0  0  0  0  0  0  0
   -4.7896   -3.0359    2.2383 N   0  0  0  0  0  0  0  0  0  0  0  0
   -5.8179   -3.3357    3.0319 C   0  0  0  0  0  0  0  0  0  0  0  0
   -7.1047   -3.3408    2.5333 C   0  0  0  0  0  0  0  0  0  0  0  0
   -7.2805   -3.0296    1.2069 C   0  0  0  0  0  0  0  0  0  0  0  0
   -6.2091   -2.7203    0.3921 C   0  0  0  0  0  0  0  0  0  0  0  0
   -6.4903   -2.4006   -1.0125 C   0  0  0  0  0  0  0  0  0  0  0  0
   -2.7410   -0.6818   -1.2296 C   0  0  0  0  0  0  0  0  0  0  0  0
   -1.3549   -0.5340   -0.6500 C   0  0  0  0  0  0  0  0  0  0  0  0
   -2.9445    3.2592   -1.0966 N   0  0  0  0  0  0  0  0  0  0  0  0
   -3.5714    4.3250   -1.5917 C   0  0  0  0  0  0  0  0  0  0  0  0
   -2.8473    5.2363   -2.2775 N   0  0  0  0  0  0  0  0  0  0  0  0
   -1.1304    7.3360   -4.7739 H   0  0  0  0  0  0  0  0  0  0  0  0
   -1.1537    8.1091   -3.1810 H   0  0  0  0  0  0  0  0  0  0  0  0
   -2.5104    7.0668   -3.6690 H   0  0  0  0  0  0  0  0  0  0  0  0
    0.1354    3.9024   -2.1061 H   0  0  0  0  0  0  0  0  0  0  0  0
    2.9621    2.0349    1.2387 H   0  0  0  0  0  0  0  0  0  0  0  0
    5.2555    1.2205    1.5286 H   0  0  0  0  0  0  0  0  0  0  0  0
    6.5789   -0.0782    2.6061 H   0  0  0  0  0  0  0  0  0  0  0  0
    8.8532   -0.9179    2.8622 H   0  0  0  0  0  0  0  0  0  0  0  0
   11.7279   -2.7720    2.5565 H   0  0  0  0  0  0  0  0  0  0  0  0
    6.1339   -2.2534   -1.0154 H   0  0  0  0  0  0  0  0  0  0  0  0
    4.1912   -2.4052   -0.3666 H   0  0  0  0  0  0  0  0  0  0  0  0
    1.8875   -1.6044   -0.6667 H   0  0  0  0  0  0  0  0  0  0  0  0
   -3.1217    1.8768    0.6666 H   0  0  0  0  0  0  0  0  0  0  0  0
   -2.2497    1.1726    2.0100 H   0  0  0  0  0  0  0  0  0  0  0  0
   -4.5423    0.1782    1.2633 H   0  0  0  0  0  0  0  0  0  0  0  0
   -3.2285   -0.8599    1.8399 H   0  0  0  0  0  0  0  0  0  0  0  0
   -3.7683   -2.9713   -0.8718 H   0  0  0  0  0  0  0  0  0  0  0  0
   -2.8643   -2.7192    0.6380 H   0  0  0  0  0  0  0  0  0  0  0  0
   -5.6044   -3.5693    4.0607 H   0  0  0  0  0  0  0  0  0  0  0  0
   -7.9282   -3.5856    3.1867 H   0  0  0  0  0  0  0  0  0  0  0  0
   -8.3098   -3.0357    0.8139 H   0  0  0  0  0  0  0  0  0  0  0  0
   -5.6700   -2.5890   -1.7088 H   0  0  0  0  0  0  0  0  0  0  0  0
   -6.9185   -1.3701   -1.1531 H   0  0  0  0  0  0  0  0  0  0  0  0
   -7.3304   -3.0822   -1.3377 H   0  0  0  0  0  0  0  0  0  0  0  0
   -3.0150    0.2018   -1.8269 H   0  0  0  0  0  0  0  0  0  0  0  0
   -2.7092   -1.5497   -1.9273 H   0  0  0  0  0  0  0  0  0  0  0  0
   -1.1276   -1.3488    0.0342 H   0  0  0  0  0  0  0  0  0  0  0  0
   -0.5819   -0.3910   -1.4303 H   0  0  0  0  0  0  0  0  0  0  0  0
   -4.6285    4.5240   -1.4875 H   0  0  0  0  0  0  0  0  0  0  0  0
  1  2  1  0
  2  3  1  0
  3  4  2  0
  4  5  1  0
  5  6  1  0
  6  7  1  0
  7  8  2  0
  7  9  1  0
  9 10  1  0
 10 11  2  0
 11 12  1  0
 12 13  2  0
 13 14  1  0
 14 15  2  0
 15 16  1  0
 16 17  2  0
 17 18  1  0
 18 19  2  0
 18 20  1  0
 17 21  1  0
 21 22  1  0
 21 23  2  0
 13 24  1  0
 24 25  2  0
  9 26  1  0
 26 27  2  0
 26 28  1  0
 28 29  1  0
 29 30  1  0
 30 31  1  0
 31 32  1  0
 32 33  1  0
 33 34  2  0
 34 35  1  0
 35 36  2  0
 36 37  1  0
 37 38  2  0
 38 39  1  0
 31 40  1  0
 40 41  1  0
  5 42  2  0
 42 43  1  0
 43 44  2  0
 44  3  1  0
 28  6  1  0
 38 33  1  0
 25 10  1  0
 41 28  1  0
 23 14  1  0
  1 45  1  0
  1 46  1  0
  1 47  1  0
  4 48  1  0
 11 49  1  0
 12 50  1  0
 15 51  1  0
 16 52  1  0
 20 53  1  0
 23 54  1  0
 24 55  1  0
 25 56  1  0
 29 57  1  0
 29 58  1  0
 30 59  1  0
 30 60  1  0
 32 61  1  0
 32 62  1  0
 35 63  1  0
 36 64  1  0
 37 65  1  0
 39 66  1  0
 39 67  1  0
 39 68  1  0
 40 69  1  0
 40 70  1  0
 41 71  1  0
 41 72  1  0
 43 73  1  0
M  END
$$$$
