
     RDKit          3D

 70 73  0  0  0  0  0  0  0  0999 V2000
    8.7306    3.1253   -0.1067 C   0  0  0  0  0  0  0  0  0  0  0  0
    7.5901    2.4098    0.2370 O   0  0  0  0  0  0  0  0  0  0  0  0
    7.5747    1.2041   -0.4631 C   0  0  0  0  0  0  0  0  0  0  0  0
    6.3259    0.3914   -0.1000 C   0  0  2  0  0  0  0  0  0  0  0  0
    6.4989    0.0159    1.3608 C   0  0  0  0  0  0  0  0  0  0  0  0
    7.0566   -1.4016    1.2506 C   0  0  0  0  0  0  0  0  0  0  0  0
    6.2461   -1.9214    0.0547 C   0  0  0  0  0  0  0  0  0  0  0  0
    6.3860   -0.8143   -0.8523 N   0  0  0  0  0  0  0  0  0  0  0  0
    5.2070   -0.8186   -2.0944 S   0  0  0  0  0  6  0  0  0  0  0  0
    5.2489   -2.1019   -2.8960 O   0  0  0  0  0  0  0  0  0  0  0  0
    5.4180    0.3274   -3.0588 O   0  0  0  0  0  0  0  0  0  0  0  0
    3.6257   -0.6849   -1.3793 C   0  0  0  0  0  0  0  0  0  0  0  0
    3.0185   -1.8384   -0.9310 C   0  0  0  0  0  0  0  0  0  0  0  0
    1.7477   -1.7124   -0.3687 C   0  0  0  0  0  0  0  0  0  0  0  0
    1.1059   -0.4935   -0.2557 C   0  0  0  0  0  0  0  0  0  0  0  0
    1.7672    0.6221   -0.7233 C   0  0  0  0  0  0  0  0  0  0  0  0
    3.0269    0.5481   -1.2885 C   0  0  0  0  0  0  0  0  0  0  0  0
    0.9006    1.7763   -0.4978 C   0  0  0  0  0  0  0  0  0  0  0  0
    1.1581    2.9906   -0.7953 O   0  0  0  0  0  0  0  0  0  0  0  0
   -0.3109    1.2608    0.1325 C   0  0  0  0  0  0  0  0  0  0  0  0
   -1.3132    1.9673    0.4863 O   0  0  0  0  0  0  0  0  0  0  0  0
   -0.1673   -0.1488    0.2755 N   0  0  0  0  0  0  0  0  0  0  0  0
   -1.1629   -1.0526    0.8646 C   0  0  0  0  0  0  0  0  0  0  0  0
   -2.0584   -1.5175   -0.2597 C   0  0  0  0  0  0  0  0  0  0  0  0
   -3.1314   -2.4524    0.1985 C   0  0  0  0  0  0  0  0  0  0  0  0
   -4.0620   -1.8786    1.2178 C   0  0  0  0  0  0  0  0  0  0  0  0
   -4.8067   -0.6601    0.7496 C   0  0  0  0  0  0  0  0  0  0  0  0
   -5.6964   -0.2075    1.8872 C   0  0  0  0  0  0  0  0  0  0  0  0
   -6.4959    1.0079    1.5485 C   0  0  0  0  0  0  0  0  0  0  0  0
   -7.4237    0.8226    0.3655 C   0  0  0  0  0  0  0  0  0  0  0  0
   -8.1459    2.1383    0.1692 C   0  0  0  0  0  0  0  0  0  0  0  0
   -9.1067    2.0974   -0.9807 C   0  0  0  0  0  0  0  0  0  0  0  0
   -8.7112    1.8214   -2.3477 C   0  0  0  0  0  0  0  0  0  0  0  0
   -9.4071    0.8284   -1.4793 O   0  0  0  0  0  0  0  0  0  0  0  0
    9.6631    2.5446    0.1493 H   0  0  0  0  0  0  0  0  0  0  0  0
    8.7951    4.0826    0.4181 H   0  0  0  0  0  0  0  0  0  0  0  0
    8.6990    3.2844   -1.2198 H   0  0  0  0  0  0  0  0  0  0  0  0
    7.6241    1.3431   -1.5533 H   0  0  0  0  0  0  0  0  0  0  0  0
    8.4367    0.5509   -0.1791 H   0  0  0  0  0  0  0  0  0  0  0  0
    5.4124    0.9806   -0.2551 H   0  0  0  0  0  0  0  0  0  0  0  0
    7.2318    0.6412    1.8757 H   0  0  0  0  0  0  0  0  0  0  0  0
    5.5154   -0.0490    1.8671 H   0  0  0  0  0  0  0  0  0  0  0  0
    8.1052   -1.4001    0.9516 H   0  0  0  0  0  0  0  0  0  0  0  0
    6.8373   -1.9987    2.1517 H   0  0  0  0  0  0  0  0  0  0  0  0
    5.2058   -2.0307    0.4575 H   0  0  0  0  0  0  0  0  0  0  0  0
    6.6593   -2.8562   -0.3430 H   0  0  0  0  0  0  0  0  0  0  0  0
    3.4660   -2.8207   -0.9908 H   0  0  0  0  0  0  0  0  0  0  0  0
    1.2183   -2.5820    0.0021 H   0  0  0  0  0  0  0  0  0  0  0  0
    3.5664    1.4004   -1.6683 H   0  0  0  0  0  0  0  0  0  0  0  0
   -0.6397   -1.9400    1.2555 H   0  0  0  0  0  0  0  0  0  0  0  0
   -1.6815   -0.4833    1.6385 H   0  0  0  0  0  0  0  0  0  0  0  0
   -2.4579   -0.6616   -0.8578 H   0  0  0  0  0  0  0  0  0  0  0  0
   -1.4103   -2.0834   -0.9643 H   0  0  0  0  0  0  0  0  0  0  0  0
   -2.6359   -3.3354    0.6526 H   0  0  0  0  0  0  0  0  0  0  0  0
   -3.6595   -2.8278   -0.7013 H   0  0  0  0  0  0  0  0  0  0  0  0
   -4.8176   -2.6551    1.4574 H   0  0  0  0  0  0  0  0  0  0  0  0
   -3.5066   -1.6755    2.1542 H   0  0  0  0  0  0  0  0  0  0  0  0
   -5.4499   -0.8750   -0.1279 H   0  0  0  0  0  0  0  0  0  0  0  0
   -4.1609    0.1801    0.4741 H   0  0  0  0  0  0  0  0  0  0  0  0
   -5.1267    0.0110    2.8037 H   0  0  0  0  0  0  0  0  0  0  0  0
   -6.4189   -1.0253    2.1787 H   0  0  0  0  0  0  0  0  0  0  0  0
   -7.0532    1.3061    2.4581 H   0  0  0  0  0  0  0  0  0  0  0  0
   -5.7528    1.8292    1.3250 H   0  0  0  0  0  0  0  0  0  0  0  0
   -8.1581    0.0414    0.6503 H   0  0  0  0  0  0  0  0  0  0  0  0
   -6.9087    0.4787   -0.5290 H   0  0  0  0  0  0  0  0  0  0  0  0
   -7.4113    2.9656    0.0711 H   0  0  0  0  0  0  0  0  0  0  0  0
   -8.7109    2.3382    1.1164 H   0  0  0  0  0  0  0  0  0  0  0  0
  -10.0135    2.7221   -0.8295 H   0  0  0  0  0  0  0  0  0  0  0  0
   -9.3541    2.1636   -3.1739 H   0  0  0  0  0  0  0  0  0  0  0  0
   -7.7414    1.4108   -2.6353 H   0  0  0  0  0  0  0  0  0  0  0  0
  1  2  1  0
  2  3  1  0
  3  4  1  0
  4  5  1  0
  5  6  1  0
  6  7  1  0
  7  8  1  0
  8  9  1  0
  9 10  2  0
  9 11  2  0
  9 12  1  0
 12 13  2  0
 13 14  1  0
 14 15  2  0
 15 16  1  0
 16 17  2  0
 16 18  1  0
 18 19  2  0
 18 20  1  0
 20 21  2  0
 20 22  1  0
 22 23  1  0
 23 24  1  0
 24 25  1  0
 25 26  1  0
 26 27  1  0
 27 28  1  0
 28 29  1  0
 29 30  1  0
 30 31  1  0
 31 32  1  0
 32 33  1  0
 33 34  1  0
  8  4  1  0
 17 12  1  0
 34 32  1  0
 22 15  1  0
  1 35  1  0
  1 36  1  0
  1 37  1  0
  3 38  1  0
  3 39  1  0
  4 40  1  1
  5 41  1  0
  5 42  1  0
  6 43  1  0
  6 44  1  0
  7 45  1  0
  7 46  1  0
 13 47  1  0
 14 48  1  0
 17 49  1  0
 23 50  1  0
 23 51  1  0
 24 52  1  0
 24 53  1  0
 25 54  1  0
 25 55  1  0
 26 56  1  0
 26 57  1  0
 27 58  1  0
 27 59  1  0
 28 60  1  0
 28 61  1  0
 29 62  1  0
 29 63  1  0
 30 64  1  0
 30 65  1  0
 31 66  1  0
 31 67  1  0
 32 68  1  0
 33 69  1  0
 33 70  1  0
M  END
$$$$
