
     RDKit          3D

 67 71  0  0  0  0  0  0  0  0999 V2000
    5.0006    1.6676   -3.2864 C   0  0  0  0  0  0  0  0  0  0  0  0
    3.7333    1.4388   -2.5397 C   0  0  0  0  0  0  0  0  0  0  0  0
    2.5520    1.7464   -3.1887 C   0  0  0  0  0  0  0  0  0  0  0  0
    1.3432    1.5637   -2.5559 C   0  0  0  0  0  0  0  0  0  0  0  0
    1.3121    1.0736   -1.2740 C   0  0  0  0  0  0  0  0  0  0  0  0
    0.0951    0.8717   -0.5898 N   0  0  0  0  0  0  0  0  0  0  0  0
   -0.6451   -0.3240   -0.6192 C   0  0  0  0  0  0  0  0  0  0  0  0
   -0.1892   -1.2809   -1.3043 O   0  0  0  0  0  0  0  0  0  0  0  0
   -1.9034   -0.5085    0.0984 C   0  0  0  0  0  0  0  0  0  0  0  0
   -2.4854    0.4696    0.8725 C   0  0  0  0  0  0  0  0  0  0  0  0
   -3.6886    0.2558    1.5432 C   0  0  0  0  0  0  0  0  0  0  0  0
   -4.3537   -0.9483    1.4623 C   0  0  0  0  0  0  0  0  0  0  0  0
   -5.6204   -1.1677    2.1710 C   0  0  0  0  0  0  0  0  0  0  0  0
   -6.7901   -0.8355    1.4492 N   0  0  0  0  0  0  0  0  0  0  0  0
   -6.9979   -1.5396    0.2307 C   0  0  0  0  0  0  0  0  0  0  0  0
   -8.4820   -1.4336   -0.1071 C   0  0  0  0  0  0  0  0  0  0  0  0
   -8.9612   -0.0880   -0.0888 N   0  0  0  0  0  0  0  0  0  0  0  0
   -8.8242    0.6075   -1.3301 C   0  0  0  0  0  0  0  0  0  0  0  0
   -8.5959    0.6683    1.0679 C   0  0  0  0  0  0  0  0  0  0  0  0
   -7.0960    0.5650    1.3774 C   0  0  0  0  0  0  0  0  0  0  0  0
   -3.7729   -1.9310    0.6870 C   0  0  0  0  0  0  0  0  0  0  0  0
   -2.5801   -1.7259    0.0192 C   0  0  0  0  0  0  0  0  0  0  0  0
    2.4989    0.7713   -0.6396 C   0  0  0  0  0  0  0  0  0  0  0  0
    3.7168    0.9477   -1.2576 C   0  0  0  0  0  0  0  0  0  0  0  0
    4.9328    0.6110   -0.5526 C   0  0  0  0  0  0  0  0  0  0  0  0
    5.9563   -0.1275   -1.0987 C   0  0  0  0  0  0  0  0  0  0  0  0
    7.0974   -0.4192   -0.3882 C   0  0  0  0  0  0  0  0  0  0  0  0
    7.2586    0.0189    0.9021 C   0  0  0  0  0  0  0  0  0  0  0  0
    8.4838   -0.2816    1.6971 C   0  0  0  0  0  0  0  0  0  0  0  0
    8.6242    0.1625    2.9756 C   0  0  0  0  0  0  0  0  0  0  0  0
   10.2529   -0.4759    3.4391 S   0  0  0  0  0  0  0  0  0  0  0  0
   10.5198   -1.2680    1.8090 C   0  0  0  0  0  0  0  0  0  0  0  0
   11.7180   -1.9956    1.5100 N   0  0  0  0  0  0  0  0  0  0  0  0
    9.4702   -0.9666    1.2373 N   0  0  0  0  0  0  0  0  0  0  0  0
    6.2311    0.7562    1.4405 C   0  0  0  0  0  0  0  0  0  0  0  0
    5.0826    1.0625    0.7567 C   0  0  0  0  0  0  0  0  0  0  0  0
    5.1933    0.8406   -3.9954 H   0  0  0  0  0  0  0  0  0  0  0  0
    4.8458    2.5686   -3.9197 H   0  0  0  0  0  0  0  0  0  0  0  0
    5.8663    1.8491   -2.6359 H   0  0  0  0  0  0  0  0  0  0  0  0
    2.5771    2.1321   -4.1977 H   0  0  0  0  0  0  0  0  0  0  0  0
    0.4461    1.8207   -3.1099 H   0  0  0  0  0  0  0  0  0  0  0  0
   -0.2496    1.7038   -0.0268 H   0  0  0  0  0  0  0  0  0  0  0  0
   -1.9911    1.4335    0.9613 H   0  0  0  0  0  0  0  0  0  0  0  0
   -4.1452    1.0250    2.1513 H   0  0  0  0  0  0  0  0  0  0  0  0
   -5.6513   -0.6397    3.1526 H   0  0  0  0  0  0  0  0  0  0  0  0
   -5.6836   -2.2623    2.4420 H   0  0  0  0  0  0  0  0  0  0  0  0
   -6.7424   -2.5938    0.3707 H   0  0  0  0  0  0  0  0  0  0  0  0
   -6.4619   -1.0773   -0.6378 H   0  0  0  0  0  0  0  0  0  0  0  0
   -9.0479   -2.0163    0.6563 H   0  0  0  0  0  0  0  0  0  0  0  0
   -8.6836   -1.8468   -1.1246 H   0  0  0  0  0  0  0  0  0  0  0  0
   -9.7656    1.1664   -1.5411 H   0  0  0  0  0  0  0  0  0  0  0  0
   -8.7549   -0.1718   -2.1369 H   0  0  0  0  0  0  0  0  0  0  0  0
   -7.9861    1.3125   -1.3635 H   0  0  0  0  0  0  0  0  0  0  0  0
   -8.7674    1.7562    0.8252 H   0  0  0  0  0  0  0  0  0  0  0  0
   -9.1759    0.4135    1.9664 H   0  0  0  0  0  0  0  0  0  0  0  0
   -6.8986    1.0308    2.3422 H   0  0  0  0  0  0  0  0  0  0  0  0
   -6.5890    1.0767    0.5322 H   0  0  0  0  0  0  0  0  0  0  0  0
   -4.2677   -2.8950    0.5985 H   0  0  0  0  0  0  0  0  0  0  0  0
   -2.1159   -2.4877   -0.5906 H   0  0  0  0  0  0  0  0  0  0  0  0
    2.5145    0.3810    0.3761 H   0  0  0  0  0  0  0  0  0  0  0  0
    5.8441   -0.4823   -2.1119 H   0  0  0  0  0  0  0  0  0  0  0  0
    7.8599   -1.0000   -0.8711 H   0  0  0  0  0  0  0  0  0  0  0  0
    7.9488    0.7880    3.6786 H   0  0  0  0  0  0  0  0  0  0  0  0
   12.3879   -1.6509    0.7922 H   0  0  0  0  0  0  0  0  0  0  0  0
   11.9443   -2.8849    2.0044 H   0  0  0  0  0  0  0  0  0  0  0  0
    6.3301    1.1219    2.4729 H   0  0  0  0  0  0  0  0  0  0  0  0
    4.3259    1.6480    1.2587 H   0  0  0  0  0  0  0  0  0  0  0  0
  1  2  1  0
  2  3  2  0
  3  4  1  0
  4  5  2  0
  5  6  1  0
  6  7  1  0
  7  8  2  0
  7  9  1  0
  9 10  2  0
 10 11  1  0
 11 12  2  0
 12 13  1  0
 13 14  1  0
 14 15  1  0
 15 16  1  0
 16 17  1  0
 17 18  1  0
 17 19  1  0
 19 20  1  0
 12 21  1  0
 21 22  2  0
  5 23  1  0
 23 24  2  0
 24 25  1  0
 25 26  2  0
 26 27  1  0
 27 28  2  0
 28 29  1  0
 29 30  2  0
 30 31  1  0
 31 32  1  0
 32 33  1  0
 32 34  2  0
 28 35  1  0
 35 36  2  0
 24  2  1  0
 36 25  1  0
 22  9  1  0
 34 29  1  0
 20 14  1  0
  1 37  1  0
  1 38  1  0
  1 39  1  0
  3 40  1  0
  4 41  1  0
  6 42  1  0
 10 43  1  0
 11 44  1  0
 13 45  1  0
 13 46  1  0
 15 47  1  0
 15 48  1  0
 16 49  1  0
 16 50  1  0
 18 51  1  0
 18 52  1  0
 18 53  1  0
 19 54  1  0
 19 55  1  0
 20 56  1  0
 20 57  1  0
 21 58  1  0
 22 59  1  0
 23 60  1  0
 26 61  1  0
 27 62  1  0
 30 63  1  0
 33 64  1  0
 33 65  1  0
 35 66  1  0
 36 67  1  0
M  END
$$$$
