
     RDKit          3D

 60 63  0  0  0  0  0  0  0  0999 V2000
    6.7111    2.2701   -1.3055 C   0  0  0  0  0  0  0  0  0  0  0  0
    6.4063    0.8454   -0.9925 C   0  0  0  0  0  0  0  0  0  0  0  0
    7.2522   -0.1820   -0.9589 N   0  0  0  0  0  0  0  0  0  0  0  0
    6.6141   -1.3169   -0.6371 C   0  0  0  0  0  0  0  0  0  0  0  0
    6.9670   -2.5855   -0.4481 N   0  0  0  0  0  0  0  0  0  0  0  0
    6.0781   -3.5215   -0.0968 C   0  0  0  0  0  0  0  0  0  0  0  0
    4.7821   -3.2384    0.0842 N   0  0  0  0  0  0  0  0  0  0  0  0
    4.3554   -1.9458   -0.0979 C   0  0  0  0  0  0  0  0  0  0  0  0
    2.9416   -1.6437    0.0997 C   0  0  0  0  0  0  0  0  0  0  0  0
    2.3155   -1.8966    1.3167 C   0  0  0  0  0  0  0  0  0  0  0  0
    0.9619   -1.6557    1.3916 C   0  0  0  0  0  0  0  0  0  0  0  0
    0.2371   -1.1853    0.3230 C   0  0  0  0  0  0  0  0  0  0  0  0
   -1.1727   -0.9387    0.4212 N   0  0  0  0  0  0  0  0  0  0  0  0
   -1.5858    0.3804    0.8244 C   0  0  0  0  0  0  0  0  0  0  0  0
   -0.6767    1.2222    1.0588 O   0  0  0  0  0  0  0  0  0  0  0  0
   -2.9510    0.6795    0.9380 N   0  0  0  0  0  0  0  0  0  0  0  0
   -3.8974   -0.4327    0.7266 C   0  0  0  0  0  0  0  0  0  0  0  0
   -4.2709   -0.5268   -0.7279 C   0  0  0  0  0  0  0  0  0  0  0  0
   -5.2019   -1.6028   -0.9790 N   0  0  0  0  0  0  0  0  0  0  0  0
   -4.5550   -2.8762   -0.7725 C   0  0  0  0  0  0  0  0  0  0  0  0
   -5.7876   -1.4874   -2.2790 C   0  0  0  0  0  0  0  0  0  0  0  0
   -3.4582    1.9651    1.2723 C   0  0  0  0  0  0  0  0  0  0  0  0
   -2.6989    3.0314    1.6534 C   0  0  0  0  0  0  0  0  0  0  0  0
   -3.2901    4.2790    1.9431 C   0  0  0  0  0  0  0  0  0  0  0  0
   -4.6418    4.4823    1.8578 C   0  0  0  0  0  0  0  0  0  0  0  0
   -5.3724    6.0346    2.2189 Cl  0  0  0  0  0  0  0  0  0  0  0  0
   -5.4117    3.4196    1.4769 C   0  0  0  0  0  0  0  0  0  0  0  0
   -4.8307    2.1924    1.1917 C   0  0  0  0  0  0  0  0  0  0  0  0
    0.8630   -0.9394   -0.8725 C   0  0  0  0  0  0  0  0  0  0  0  0
    0.1544   -0.4681   -1.9593 F   0  0  0  0  0  0  0  0  0  0  0  0
    2.2149   -1.1736   -0.9680 C   0  0  0  0  0  0  0  0  0  0  0  0
    5.2623   -0.9722   -0.4567 C   0  0  0  0  0  0  0  0  0  0  0  0
    5.1193    0.3757   -0.6738 C   0  0  0  0  0  0  0  0  0  0  0  0
    3.9134    1.2333   -0.5705 C   0  0  0  0  0  0  0  0  0  0  0  0
    5.7875    2.7668   -1.6843 H   0  0  0  0  0  0  0  0  0  0  0  0
    6.9999    2.8191   -0.3830 H   0  0  0  0  0  0  0  0  0  0  0  0
    7.4738    2.3333   -2.1035 H   0  0  0  0  0  0  0  0  0  0  0  0
    8.2857   -0.1158   -1.1587 H   0  0  0  0  0  0  0  0  0  0  0  0
    6.3933   -4.5661    0.0564 H   0  0  0  0  0  0  0  0  0  0  0  0
    2.9134   -2.2648    2.1352 H   0  0  0  0  0  0  0  0  0  0  0  0
    0.4870   -1.8615    2.3622 H   0  0  0  0  0  0  0  0  0  0  0  0
   -1.8093   -1.7163    0.1914 H   0  0  0  0  0  0  0  0  0  0  0  0
   -3.4213   -1.3464    1.0871 H   0  0  0  0  0  0  0  0  0  0  0  0
   -4.7992   -0.3100    1.3685 H   0  0  0  0  0  0  0  0  0  0  0  0
   -3.3532   -0.7616   -1.3318 H   0  0  0  0  0  0  0  0  0  0  0  0
   -4.6806    0.4247   -1.0913 H   0  0  0  0  0  0  0  0  0  0  0  0
   -3.7512   -2.9778   -1.5300 H   0  0  0  0  0  0  0  0  0  0  0  0
   -5.3201   -3.6531   -1.0648 H   0  0  0  0  0  0  0  0  0  0  0  0
   -4.1810   -3.0237    0.2380 H   0  0  0  0  0  0  0  0  0  0  0  0
   -5.4061   -2.2625   -2.9773 H   0  0  0  0  0  0  0  0  0  0  0  0
   -6.8954   -1.4989   -2.2622 H   0  0  0  0  0  0  0  0  0  0  0  0
   -5.4960   -0.4906   -2.7038 H   0  0  0  0  0  0  0  0  0  0  0  0
   -1.6268    2.9401    1.7493 H   0  0  0  0  0  0  0  0  0  0  0  0
   -2.6382    5.0901    2.2408 H   0  0  0  0  0  0  0  0  0  0  0  0
   -6.4764    3.5653    1.4065 H   0  0  0  0  0  0  0  0  0  0  0  0
   -5.4908    1.4059    0.8937 H   0  0  0  0  0  0  0  0  0  0  0  0
    2.7148   -0.9826   -1.9314 H   0  0  0  0  0  0  0  0  0  0  0  0
    3.3331    1.3389   -1.4831 H   0  0  0  0  0  0  0  0  0  0  0  0
    3.2967    1.0380    0.3308 H   0  0  0  0  0  0  0  0  0  0  0  0
    4.3137    2.2874   -0.3643 H   0  0  0  0  0  0  0  0  0  0  0  0
  1  2  1  0
  2  3  1  0
  3  4  1  0
  4  5  2  0
  5  6  1  0
  6  7  2  0
  7  8  1  0
  8  9  1  0
  9 10  2  0
 10 11  1  0
 11 12  2  0
 12 13  1  0
 13 14  1  0
 14 15  2  0
 14 16  1  0
 16 17  1  0
 17 18  1  0
 18 19  1  0
 19 20  1  0
 19 21  1  0
 16 22  1  0
 22 23  2  0
 23 24  1  0
 24 25  2  0
 25 26  1  0
 25 27  1  0
 27 28  2  0
 12 29  1  0
 29 30  1  0
 29 31  2  0
  8 32  2  0
 32 33  1  0
 33 34  1  0
 33  2  2  0
 32  4  1  0
 31  9  1  0
 28 22  1  0
  1 35  1  0
  1 36  1  0
  1 37  1  0
  3 38  1  0
  6 39  1  0
 10 40  1  0
 11 41  1  0
 13 42  1  0
 17 43  1  0
 17 44  1  0
 18 45  1  0
 18 46  1  0
 20 47  1  0
 20 48  1  0
 20 49  1  0
 21 50  1  0
 21 51  1  0
 21 52  1  0
 23 53  1  0
 24 54  1  0
 27 55  1  0
 28 56  1  0
 31 57  1  0
 34 58  1  0
 34 59  1  0
 34 60  1  0
M  END
$$$$
