
     RDKit          3D

 68 70  0  0  0  0  0  0  0  0999 V2000
   -3.4999    1.6680    0.1441 C   0  0  0  0  0  0  0  0  0  0  0  0
   -3.3529    1.2145    1.5589 C   0  0  0  0  0  0  0  0  0  0  0  0
   -3.2639   -0.2682    1.7434 C   0  0  0  0  0  0  0  0  0  0  0  0
   -3.1247   -0.5150    3.2383 C   0  0  0  0  0  0  0  0  0  0  0  0
   -4.5621   -0.9044    1.3059 C   0  0  0  0  0  0  0  0  0  0  0  0
   -2.1360   -0.8945    1.0036 C   0  0  0  0  0  0  0  0  0  0  0  0
   -1.2575   -1.5330    1.6787 O   0  0  0  0  0  0  0  0  0  0  0  0
   -1.9520   -0.8489   -0.3464 O   0  0  0  0  0  0  0  0  0  0  0  0
   -0.8589   -1.4653   -1.0043 C   0  0  1  0  0  0  0  0  0  0  0  0
   -1.2621   -2.5645   -1.9101 C   0  0  0  0  0  0  0  0  0  0  0  0
   -0.5356   -2.4243   -3.2239 C   0  0  1  0  0  0  0  0  0  0  0  0
   -0.9641   -3.5206   -4.1760 C   0  0  0  0  0  0  0  0  0  0  0  0
   -0.8500   -1.0789   -3.7439 C   0  0  0  0  0  0  0  0  0  0  0  0
   -0.5672   -0.0600   -2.9679 C   0  0  0  0  0  0  0  0  0  0  0  0
   -0.8308    1.3034   -3.3707 C   0  0  0  0  0  0  0  0  0  0  0  0
   -0.2920    2.2819   -2.6778 C   0  0  0  0  0  0  0  0  0  0  0  0
    0.5531    2.0184   -1.5299 C   0  0  2  0  0  0  0  0  0  0  0  0
    2.0106    2.0370   -2.0130 C   0  0  0  0  0  0  0  0  0  0  0  0
    0.2782    0.7515   -0.7723 C   0  0  2  0  0  0  0  0  0  0  0  0
    1.3669    0.4696    0.2365 C   0  0  0  0  0  0  0  0  0  0  0  0
    1.4884    1.5669    1.2391 C   0  0  0  0  0  0  0  0  0  0  0  0
    2.5709    1.2992    2.2521 C   0  0  2  0  0  0  0  0  0  0  0  0
    3.9228    1.1482    1.6458 C   0  0  0  0  0  0  0  0  0  0  0  0
    4.4371   -0.2621    1.8265 C   0  0  1  0  0  0  0  0  0  0  0  0
    5.6614   -0.4260    1.1809 O   0  0  0  0  0  0  0  0  0  0  0  0
    4.6161   -0.4327    3.3426 C   0  0  0  0  0  0  0  0  0  0  0  0
    3.2450   -0.3166    3.9032 C   0  0  0  0  0  0  0  0  0  0  0  0
    3.0391   -0.6941    5.0874 O   0  0  0  0  0  0  0  0  0  0  0  0
    2.2577    0.2042    3.0874 O   0  0  0  0  0  0  0  0  0  0  0  0
    0.0397   -0.4407   -1.6537 C   0  0  1  0  0  0  0  0  0  0  0  0
   -2.6223    2.2857   -0.1255 H   0  0  0  0  0  0  0  0  0  0  0  0
   -4.3781    2.3550    0.0218 H   0  0  0  0  0  0  0  0  0  0  0  0
   -3.5679    0.8139   -0.5622 H   0  0  0  0  0  0  0  0  0  0  0  0
   -2.4897    1.7415    2.0441 H   0  0  0  0  0  0  0  0  0  0  0  0
   -4.2758    1.5380    2.1156 H   0  0  0  0  0  0  0  0  0  0  0  0
   -3.4990   -1.5308    3.4416 H   0  0  0  0  0  0  0  0  0  0  0  0
   -3.8539    0.1826    3.7278 H   0  0  0  0  0  0  0  0  0  0  0  0
   -2.1054   -0.3622    3.5963 H   0  0  0  0  0  0  0  0  0  0  0  0
   -4.3207   -1.9578    1.0051 H   0  0  0  0  0  0  0  0  0  0  0  0
   -5.3030   -0.9700    2.1150 H   0  0  0  0  0  0  0  0  0  0  0  0
   -4.9567   -0.3888    0.3983 H   0  0  0  0  0  0  0  0  0  0  0  0
   -0.2534   -1.9507   -0.1767 H   0  0  0  0  0  0  0  0  0  0  0  0
   -1.0150   -3.5754   -1.5188 H   0  0  0  0  0  0  0  0  0  0  0  0
   -2.3608   -2.5185   -2.1865 H   0  0  0  0  0  0  0  0  0  0  0  0
    0.5656   -2.4705   -3.0293 H   0  0  0  0  0  0  0  0  0  0  0  0
   -1.2377   -4.3952   -3.5808 H   0  0  0  0  0  0  0  0  0  0  0  0
   -0.1975   -3.7461   -4.9234 H   0  0  0  0  0  0  0  0  0  0  0  0
   -1.8786   -3.1765   -4.6971 H   0  0  0  0  0  0  0  0  0  0  0  0
   -1.2833   -0.9562   -4.7004 H   0  0  0  0  0  0  0  0  0  0  0  0
   -1.4747    1.4978   -4.2469 H   0  0  0  0  0  0  0  0  0  0  0  0
   -0.4911    3.2961   -2.9811 H   0  0  0  0  0  0  0  0  0  0  0  0
    0.4701    2.8914   -0.8290 H   0  0  0  0  0  0  0  0  0  0  0  0
    2.0648    2.4832   -3.0424 H   0  0  0  0  0  0  0  0  0  0  0  0
    2.6580    2.6467   -1.3871 H   0  0  0  0  0  0  0  0  0  0  0  0
    2.3592    0.9852   -2.1507 H   0  0  0  0  0  0  0  0  0  0  0  0
   -0.6525    0.9286   -0.1935 H   0  0  0  0  0  0  0  0  0  0  0  0
    1.1080   -0.4636    0.7878 H   0  0  0  0  0  0  0  0  0  0  0  0
    2.3419    0.2600   -0.2466 H   0  0  0  0  0  0  0  0  0  0  0  0
    1.6634    2.5629    0.7871 H   0  0  0  0  0  0  0  0  0  0  0  0
    0.5318    1.6320    1.8016 H   0  0  0  0  0  0  0  0  0  0  0  0
    2.5730    2.2092    2.9238 H   0  0  0  0  0  0  0  0  0  0  0  0
    3.9748    1.4784    0.5873 H   0  0  0  0  0  0  0  0  0  0  0  0
    4.6602    1.8078    2.1860 H   0  0  0  0  0  0  0  0  0  0  0  0
    3.7029   -1.0328    1.5332 H   0  0  0  0  0  0  0  0  0  0  0  0
    6.0177    0.4737    1.0116 H   0  0  0  0  0  0  0  0  0  0  0  0
    5.2589    0.4042    3.7224 H   0  0  0  0  0  0  0  0  0  0  0  0
    5.0606   -1.4179    3.5872 H   0  0  0  0  0  0  0  0  0  0  0  0
    1.0292   -0.8738   -1.8998 H   0  0  0  0  0  0  0  0  0  0  0  0
  1  2  1  0
  2  3  1  0
  3  4  1  0
  3  5  1  0
  3  6  1  0
  6  7  2  0
  6  8  1  0
  8  9  1  0
  9 10  1  0
 10 11  1  0
 11 12  1  0
 11 13  1  0
 13 14  2  0
 14 15  1  0
 15 16  2  0
 16 17  1  0
 17 18  1  0
 17 19  1  0
 19 20  1  0
 20 21  1  0
 21 22  1  0
 22 23  1  0
 23 24  1  0
 24 25  1  0
 24 26  1  0
 26 27  1  0
 27 28  2  0
 27 29  1  0
 19 30  1  0
 30  9  1  0
 30 14  1  0
 29 22  1  0
  1 31  1  0
  1 32  1  0
  1 33  1  0
  2 34  1  0
  2 35  1  0
  4 36  1  0
  4 37  1  0
  4 38  1  0
  5 39  1  0
  5 40  1  0
  5 41  1  0
  9 42  1  1
 10 43  1  0
 10 44  1  0
 11 45  1  1
 12 46  1  0
 12 47  1  0
 12 48  1  0
 13 49  1  0
 15 50  1  0
 16 51  1  0
 17 52  1  1
 18 53  1  0
 18 54  1  0
 18 55  1  0
 19 56  1  1
 20 57  1  0
 20 58  1  0
 21 59  1  0
 21 60  1  0
 22 61  1  1
 23 62  1  0
 23 63  1  0
 24 64  1  6
 25 65  1  0
 26 66  1  0
 26 67  1  0
 30 68  1  6
M  END
$$$$
