
     RDKit          3D

 62 64  0  0  0  0  0  0  0  0999 V2000
    8.3284   -0.1781   -0.5373 C   0  0  0  0  0  0  0  0  0  0  0  0
    7.4018   -0.6193    0.5685 C   0  0  0  0  0  0  0  0  0  0  0  0
    6.4280    0.3953    0.8872 N   0  0  0  0  0  0  0  0  0  0  0  0
    6.4860    1.3921    1.7679 N   0  0  0  0  0  0  0  0  0  0  0  0
    5.3720    2.1025    1.7505 N   0  0  0  0  0  0  0  0  0  0  0  0
    4.5230    1.6015    0.8501 N   0  0  0  0  0  0  0  0  0  0  0  0
    3.1943    1.9472    0.4030 C   0  0  0  0  0  0  0  0  0  0  0  0
    2.1335    1.2437    1.2131 C   0  0  0  0  0  0  0  0  0  0  0  0
    0.7907    1.5988    0.7447 N   0  0  0  0  0  0  0  0  0  0  0  0
    0.6809    0.9940   -0.5904 C   0  0  0  0  0  0  0  0  0  0  0  0
   -0.7948    0.8494   -0.8849 C   0  0  0  0  0  0  0  0  0  0  0  0
   -1.2716   -0.3898   -0.1585 C   0  0  0  0  0  0  0  0  0  0  0  0
   -0.8340   -1.5944   -0.9691 C   0  0  0  0  0  0  0  0  0  0  0  0
   -1.3740   -1.5712   -2.2513 O   0  0  0  0  0  0  0  0  0  0  0  0
   -0.9900   -2.6554   -3.0042 C   0  0  0  0  0  0  0  0  0  0  0  0
   -0.6268   -0.3541    1.1955 C   0  0  0  0  0  0  0  0  0  0  0  0
   -0.2283    1.0587    1.5942 C   0  0  0  0  0  0  0  0  0  0  0  0
   -2.7255   -0.4273   -0.0704 N   0  0  0  0  0  0  0  0  0  0  0  0
   -3.2983   -1.5691    0.6023 C   0  0  0  0  0  0  0  0  0  0  0  0
   -2.8741   -2.6059    1.1763 O   0  0  0  0  0  0  0  0  0  0  0  0
   -4.7795   -1.6908    0.7290 C   0  0  0  0  0  0  0  0  0  0  0  0
   -5.0827   -2.9708    1.4557 C   0  0  0  0  0  0  0  0  0  0  0  0
   -3.5767    0.5913   -0.6073 C   0  0  0  0  0  0  0  0  0  0  0  0
   -4.0464    0.4934   -1.8973 C   0  0  0  0  0  0  0  0  0  0  0  0
   -4.8584    1.5170   -2.3399 C   0  0  0  0  0  0  0  0  0  0  0  0
   -5.2454    2.6273   -1.6186 C   0  0  0  0  0  0  0  0  0  0  0  0
   -4.7547    2.6952   -0.3225 C   0  0  0  0  0  0  0  0  0  0  0  0
   -3.9325    1.6847    0.1652 C   0  0  0  0  0  0  0  0  0  0  0  0
    5.2089    0.5528    0.3405 C   0  0  0  0  0  0  0  0  0  0  0  0
    4.7886   -0.2371   -0.5664 O   0  0  0  0  0  0  0  0  0  0  0  0
    7.6759    0.0334   -1.4254 H   0  0  0  0  0  0  0  0  0  0  0  0
    9.0329   -0.9910   -0.7801 H   0  0  0  0  0  0  0  0  0  0  0  0
    8.8981    0.7150   -0.1983 H   0  0  0  0  0  0  0  0  0  0  0  0
    8.0224   -0.8878    1.4428 H   0  0  0  0  0  0  0  0  0  0  0  0
    6.8503   -1.5164    0.2186 H   0  0  0  0  0  0  0  0  0  0  0  0
    3.0342    3.0500    0.5838 H   0  0  0  0  0  0  0  0  0  0  0  0
    3.1072    1.7134   -0.6688 H   0  0  0  0  0  0  0  0  0  0  0  0
    2.2491    1.4638    2.2832 H   0  0  0  0  0  0  0  0  0  0  0  0
    2.3097    0.1541    1.0867 H   0  0  0  0  0  0  0  0  0  0  0  0
    1.1925    1.6278   -1.3467 H   0  0  0  0  0  0  0  0  0  0  0  0
    1.2199    0.0284   -0.5256 H   0  0  0  0  0  0  0  0  0  0  0  0
   -1.3061    1.7646   -0.5053 H   0  0  0  0  0  0  0  0  0  0  0  0
   -0.9054    0.7464   -1.9881 H   0  0  0  0  0  0  0  0  0  0  0  0
   -1.2598   -2.5360   -0.5062 H   0  0  0  0  0  0  0  0  0  0  0  0
    0.2539   -1.6649   -1.0279 H   0  0  0  0  0  0  0  0  0  0  0  0
   -1.4800   -2.5312   -4.0087 H   0  0  0  0  0  0  0  0  0  0  0  0
    0.0903   -2.7288   -3.1713 H   0  0  0  0  0  0  0  0  0  0  0  0
   -1.4454   -3.5574   -2.5787 H   0  0  0  0  0  0  0  0  0  0  0  0
   -1.3739   -0.6691    1.9486 H   0  0  0  0  0  0  0  0  0  0  0  0
    0.2653   -0.9787    1.2502 H   0  0  0  0  0  0  0  0  0  0  0  0
   -1.0993    1.7477    1.6607 H   0  0  0  0  0  0  0  0  0  0  0  0
    0.1866    0.9905    2.6202 H   0  0  0  0  0  0  0  0  0  0  0  0
   -5.2142   -0.8475    1.3231 H   0  0  0  0  0  0  0  0  0  0  0  0
   -5.2660   -1.6205   -0.2773 H   0  0  0  0  0  0  0  0  0  0  0  0
   -4.9708   -2.8000    2.5359 H   0  0  0  0  0  0  0  0  0  0  0  0
   -6.1609   -3.1916    1.2536 H   0  0  0  0  0  0  0  0  0  0  0  0
   -4.4186   -3.7644    1.0815 H   0  0  0  0  0  0  0  0  0  0  0  0
   -3.8071   -0.3329   -2.5525 H   0  0  0  0  0  0  0  0  0  0  0  0
   -5.2223    1.4221   -3.3733 H   0  0  0  0  0  0  0  0  0  0  0  0
   -5.8890    3.3472   -2.1047 H   0  0  0  0  0  0  0  0  0  0  0  0
   -5.0469    3.5629    0.2605 H   0  0  0  0  0  0  0  0  0  0  0  0
   -3.5651    1.7691    1.1849 H   0  0  0  0  0  0  0  0  0  0  0  0
  1  2  1  0
  2  3  1  0
  3  4  1  0
  4  5  2  0
  5  6  1  0
  6  7  1  0
  7  8  1  0
  8  9  1  0
  9 10  1  0
 10 11  1  0
 11 12  1  0
 12 13  1  0
 13 14  1  0
 14 15  1  0
 12 16  1  0
 16 17  1  0
 12 18  1  0
 18 19  1  0
 19 20  2  0
 19 21  1  0
 21 22  1  0
 18 23  1  0
 23 24  2  0
 24 25  1  0
 25 26  2  0
 26 27  1  0
 27 28  2  0
  6 29  1  0
 29 30  2  0
 29  3  1  0
 17  9  1  0
 28 23  1  0
  1 31  1  0
  1 32  1  0
  1 33  1  0
  2 34  1  0
  2 35  1  0
  7 36  1  0
  7 37  1  0
  8 38  1  0
  8 39  1  0
 10 40  1  0
 10 41  1  0
 11 42  1  0
 11 43  1  0
 13 44  1  0
 13 45  1  0
 15 46  1  0
 15 47  1  0
 15 48  1  0
 16 49  1  0
 16 50  1  0
 17 51  1  0
 17 52  1  0
 21 53  1  0
 21 54  1  0
 22 55  1  0
 22 56  1  0
 22 57  1  0
 24 58  1  0
 25 59  1  0
 26 60  1  0
 27 61  1  0
 28 62  1  0
M  END
$$$$
