
     RDKit          3D

 54 57  0  0  0  0  0  0  0  0999 V2000
   -2.6815   -1.3053   -0.2698 C   0  0  0  0  0  0  0  0  0  0  0  0
   -2.6762    0.1984   -0.4123 C   0  0  1  0  0  0  0  0  0  0  0  0
   -3.9880    0.8496   -0.1601 C   0  0  1  0  0  0  0  0  0  0  0  0
   -5.1208   -0.1268    0.0694 C   0  0  0  0  0  0  0  0  0  0  0  0
   -4.0000    1.7669    0.8707 O   0  0  0  0  0  0  0  0  0  0  0  0
   -3.1059    2.8169    0.6605 C   0  0  0  0  0  0  0  0  0  0  0  0
   -3.3849    3.5718   -0.6079 C   0  0  0  0  0  0  0  0  0  0  0  0
   -3.1630    3.6969    1.8985 C   0  0  0  0  0  0  0  0  0  0  0  0
   -1.7518    2.2043    0.6587 C   0  0  0  0  0  0  0  0  0  0  0  0
   -0.6826    2.8638    0.8286 O   0  0  0  0  0  0  0  0  0  0  0  0
   -1.6576    0.8015    0.4564 N   0  0  0  0  0  0  0  0  0  0  0  0
   -0.6371    0.0118    1.0472 C   0  0  0  0  0  0  0  0  0  0  0  0
    0.5399   -0.1688    0.3577 C   0  0  0  0  0  0  0  0  0  0  0  0
    1.5558   -0.9542    0.8954 C   0  0  0  0  0  0  0  0  0  0  0  0
    2.8192   -1.1548    0.1634 C   0  0  0  0  0  0  0  0  0  0  0  0
    4.0970   -1.1693    0.6386 C   0  0  0  0  0  0  0  0  0  0  0  0
    4.9788   -1.3889   -0.4294 C   0  0  0  0  0  0  0  0  0  0  0  0
    6.4443   -1.4769   -0.3691 C   0  0  0  0  0  0  0  0  0  0  0  0
    6.8563   -1.3302    0.9580 F   0  0  0  0  0  0  0  0  0  0  0  0
    6.9944   -0.3720   -1.0217 F   0  0  0  0  0  0  0  0  0  0  0  0
    6.9540   -2.6602   -0.8079 F   0  0  0  0  0  0  0  0  0  0  0  0
    4.2071   -1.5043   -1.5504 C   0  0  0  0  0  0  0  0  0  0  0  0
    4.5436   -1.7244   -2.8935 C   0  0  0  0  0  0  0  0  0  0  0  0
    5.8844   -1.8868   -3.3109 N   0  0  0  0  0  0  0  0  0  0  0  0
    3.5196   -1.7801   -3.7615 N   0  0  0  0  0  0  0  0  0  0  0  0
    2.2431   -1.6327   -3.3612 C   0  0  0  0  0  0  0  0  0  0  0  0
    1.9450   -1.4223   -2.0579 N   0  0  0  0  0  0  0  0  0  0  0  0
    2.9207   -1.3625   -1.1839 N   0  0  0  0  0  0  0  0  0  0  0  0
    1.3196   -1.5247    2.1234 C   0  0  0  0  0  0  0  0  0  0  0  0
    0.1351   -1.3405    2.8122 C   0  0  0  0  0  0  0  0  0  0  0  0
   -0.8721   -0.5569    2.2727 C   0  0  0  0  0  0  0  0  0  0  0  0
   -2.0839   -0.3721    3.0092 C   0  0  0  0  0  0  0  0  0  0  0  0
   -3.0798   -0.2052    3.6122 N   0  0  0  0  0  0  0  0  0  0  0  0
   -2.9870   -1.7530   -1.2143 H   0  0  0  0  0  0  0  0  0  0  0  0
   -3.2014   -1.6627    0.6307 H   0  0  0  0  0  0  0  0  0  0  0  0
   -1.6024   -1.6056   -0.1146 H   0  0  0  0  0  0  0  0  0  0  0  0
   -2.3205    0.4051   -1.4643 H   0  0  0  0  0  0  0  0  0  0  0  0
   -4.2913    1.4252   -1.0863 H   0  0  0  0  0  0  0  0  0  0  0  0
   -6.0891    0.2392   -0.3608 H   0  0  0  0  0  0  0  0  0  0  0  0
   -5.3026   -0.1998    1.1698 H   0  0  0  0  0  0  0  0  0  0  0  0
   -4.9355   -1.1349   -0.3036 H   0  0  0  0  0  0  0  0  0  0  0  0
   -2.6172    3.3743   -1.3932 H   0  0  0  0  0  0  0  0  0  0  0  0
   -3.2652    4.6638   -0.3650 H   0  0  0  0  0  0  0  0  0  0  0  0
   -4.4142    3.4555   -0.9893 H   0  0  0  0  0  0  0  0  0  0  0  0
   -4.2003    3.8842    2.2442 H   0  0  0  0  0  0  0  0  0  0  0  0
   -2.5926    3.1412    2.6961 H   0  0  0  0  0  0  0  0  0  0  0  0
   -2.5992    4.6167    1.6711 H   0  0  0  0  0  0  0  0  0  0  0  0
    0.7221    0.2837   -0.6148 H   0  0  0  0  0  0  0  0  0  0  0  0
    4.4074   -1.0350    1.6766 H   0  0  0  0  0  0  0  0  0  0  0  0
    6.3388   -2.8138   -3.4041 H   0  0  0  0  0  0  0  0  0  0  0  0
    6.4379   -1.0409   -3.5410 H   0  0  0  0  0  0  0  0  0  0  0  0
    1.4232   -1.6761   -4.0558 H   0  0  0  0  0  0  0  0  0  0  0  0
    2.0789   -2.1405    2.5782 H   0  0  0  0  0  0  0  0  0  0  0  0
   -0.0624   -1.7889    3.7856 H   0  0  0  0  0  0  0  0  0  0  0  0
  1  2  1  0
  2  3  1  0
  3  4  1  0
  3  5  1  0
  5  6  1  0
  6  7  1  0
  6  8  1  0
  6  9  1  0
  9 10  2  0
  9 11  1  0
 11 12  1  0
 12 13  2  0
 13 14  1  0
 14 15  1  0
 15 16  2  0
 16 17  1  0
 17 18  1  0
 18 19  1  0
 18 20  1  0
 18 21  1  0
 17 22  2  0
 22 23  1  0
 23 24  1  0
 23 25  2  0
 25 26  1  0
 26 27  2  0
 27 28  1  0
 14 29  2  0
 29 30  1  0
 30 31  2  0
 31 32  1  0
 32 33  3  0
 11  2  1  0
 31 12  1  0
 28 15  1  0
 28 22  1  0
  1 34  1  0
  1 35  1  0
  1 36  1  0
  2 37  1  6
  3 38  1  6
  4 39  1  0
  4 40  1  0
  4 41  1  0
  7 42  1  0
  7 43  1  0
  7 44  1  0
  8 45  1  0
  8 46  1  0
  8 47  1  0
 13 48  1  0
 16 49  1  0
 24 50  1  0
 24 51  1  0
 26 52  1  0
 29 53  1  0
 30 54  1  0
M  END
$$$$
