
     RDKit          3D

 62 66  0  0  0  0  0  0  0  0999 V2000
   -2.3397    2.5707   -0.5868 O   0  0  0  0  0  0  0  0  0  0  0  0
   -3.1220    1.5671   -0.4196 C   0  0  0  0  0  0  0  0  0  0  0  0
   -2.5780    0.2430   -0.2567 C   0  0  0  0  0  0  0  0  0  0  0  0
   -1.3512   -0.1534   -0.4010 C   0  0  0  0  0  0  0  0  0  0  0  0
   -0.9221   -1.5468   -0.2039 C   0  0  0  0  0  0  0  0  0  0  0  0
   -1.5799   -2.7173   -0.5032 C   0  0  0  0  0  0  0  0  0  0  0  0
   -0.8043   -3.7521   -0.1495 N   0  0  0  0  0  0  0  0  0  0  0  0
   -1.1152   -5.1380   -0.2896 C   0  0  0  0  0  0  0  0  0  0  0  0
   -0.3285   -6.0867    0.2995 C   0  0  0  0  0  0  0  0  0  0  0  0
   -0.6491   -7.4238    0.1508 C   0  0  0  0  0  0  0  0  0  0  0  0
   -1.7416   -7.8374   -0.5753 C   0  0  0  0  0  0  0  0  0  0  0  0
   -2.5413   -6.8778   -1.1739 C   0  0  0  0  0  0  0  0  0  0  0  0
   -2.2108   -5.5481   -1.0181 C   0  0  0  0  0  0  0  0  0  0  0  0
    0.3174   -3.2525    0.3613 N   0  0  0  0  0  0  0  0  0  0  0  0
    0.2849   -1.9047    0.3461 C   0  0  0  0  0  0  0  0  0  0  0  0
    1.2896   -0.9582    0.8026 C   0  0  0  0  0  0  0  0  0  0  0  0
    2.6091   -1.1336    0.4819 C   0  0  0  0  0  0  0  0  0  0  0  0
    3.6045   -0.2533    0.8995 C   0  0  0  0  0  0  0  0  0  0  0  0
    3.2953    0.8463    1.6634 C   0  0  0  0  0  0  0  0  0  0  0  0
    4.1999    1.7240    2.0909 O   0  0  0  0  0  0  0  0  0  0  0  0
    5.5216    1.9494    2.0118 C   0  0  0  0  0  0  0  0  0  0  0  0
    6.0330    2.1963    0.6479 C   0  0  0  0  0  0  0  0  0  0  0  0
    6.6378    1.2626   -0.1429 C   0  0  0  0  0  0  0  0  0  0  0  0
    7.0728    1.5791   -1.4135 C   0  0  0  0  0  0  0  0  0  0  0  0
    6.8814    2.8720   -1.8708 C   0  0  0  0  0  0  0  0  0  0  0  0
    7.4292    3.2940   -3.4871 Cl  0  0  0  0  0  0  0  0  0  0  0  0
    6.2781    3.8403   -1.1070 C   0  0  0  0  0  0  0  0  0  0  0  0
    5.8571    3.4889    0.1542 C   0  0  0  0  0  0  0  0  0  0  0  0
    1.9254    1.0091    1.9841 C   0  0  0  0  0  0  0  0  0  0  0  0
    0.9634    0.1392    1.5684 C   0  0  0  0  0  0  0  0  0  0  0  0
   -3.9612   -0.7797    0.1944 S   0  0  0  0  0  0  0  0  0  0  0  0
   -5.2193    0.4507   -0.1885 C   0  0  0  0  0  0  0  0  0  0  0  0
   -6.8351    0.1963   -0.2850 S   0  0  0  0  0  0  0  0  0  0  0  0
   -4.5013    1.6525   -0.3806 N   0  0  0  0  0  0  0  0  0  0  0  0
   -5.2378    2.9235   -0.5280 C   0  0  0  0  0  0  0  0  0  0  0  0
   -5.4496    3.5647    0.8219 C   0  0  0  0  0  0  0  0  0  0  0  0
   -6.3342    5.0861    0.6329 S   0  0  0  0  0  6  0  0  0  0  0  0
   -6.5756    5.7271    1.9639 O   0  0  0  0  0  0  0  0  0  0  0  0
   -7.7069    4.8334    0.0346 O   0  0  0  0  0  0  0  0  0  0  0  0
   -5.5225    6.1763   -0.3251 O   0  0  0  0  0  0  0  0  0  0  0  0
   -0.5893    0.5802   -0.6843 H   0  0  0  0  0  0  0  0  0  0  0  0
   -2.5583   -2.7568   -0.9490 H   0  0  0  0  0  0  0  0  0  0  0  0
    0.5401   -5.8056    0.8795 H   0  0  0  0  0  0  0  0  0  0  0  0
   -0.0401   -8.1974    0.6087 H   0  0  0  0  0  0  0  0  0  0  0  0
   -1.9807   -8.8963   -0.6827 H   0  0  0  0  0  0  0  0  0  0  0  0
   -3.4084   -7.1819   -1.7514 H   0  0  0  0  0  0  0  0  0  0  0  0
   -2.8520   -4.8029   -1.4973 H   0  0  0  0  0  0  0  0  0  0  0  0
    2.8567   -1.9992   -0.1214 H   0  0  0  0  0  0  0  0  0  0  0  0
    4.5905   -0.5123    0.5898 H   0  0  0  0  0  0  0  0  0  0  0  0
    6.1034    1.0713    2.4144 H   0  0  0  0  0  0  0  0  0  0  0  0
    5.8076    2.8541    2.6172 H   0  0  0  0  0  0  0  0  0  0  0  0
    6.7836    0.2468    0.2562 H   0  0  0  0  0  0  0  0  0  0  0  0
    7.5461    0.8210   -2.0148 H   0  0  0  0  0  0  0  0  0  0  0  0
    6.1565    4.8289   -1.5153 H   0  0  0  0  0  0  0  0  0  0  0  0
    5.3782    4.2314    0.7793 H   0  0  0  0  0  0  0  0  0  0  0  0
    1.7022    1.8771    2.5842 H   0  0  0  0  0  0  0  0  0  0  0  0
   -0.0647    0.3179    1.8461 H   0  0  0  0  0  0  0  0  0  0  0  0
   -6.2283    2.7527   -0.9918 H   0  0  0  0  0  0  0  0  0  0  0  0
   -4.6846    3.6183   -1.1796 H   0  0  0  0  0  0  0  0  0  0  0  0
   -6.0497    2.9181    1.4856 H   0  0  0  0  0  0  0  0  0  0  0  0
   -4.5138    3.7895    1.3428 H   0  0  0  0  0  0  0  0  0  0  0  0
   -6.0680    6.4161   -1.1145 H   0  0  0  0  0  0  0  0  0  0  0  0
  1  2  2  0
  2  3  1  0
  3  4  2  0
  4  5  1  0
  5  6  2  0
  6  7  1  0
  7  8  1  0
  8  9  2  0
  9 10  1  0
 10 11  2  0
 11 12  1  0
 12 13  2  0
  7 14  1  0
 14 15  2  0
 15 16  1  0
 16 17  2  0
 17 18  1  0
 18 19  2  0
 19 20  1  0
 20 21  1  0
 21 22  1  0
 22 23  2  0
 23 24  1  0
 24 25  2  0
 25 26  1  0
 25 27  1  0
 27 28  2  0
 19 29  1  0
 29 30  2  0
  3 31  1  0
 31 32  1  0
 32 33  2  0
 32 34  1  0
 34 35  1  0
 35 36  1  0
 36 37  1  0
 37 38  2  0
 37 39  2  0
 37 40  1  0
 34  2  1  0
 15  5  1  0
 30 16  1  0
 13  8  1  0
 28 22  1  0
  4 41  1  0
  6 42  1  0
  9 43  1  0
 10 44  1  0
 11 45  1  0
 12 46  1  0
 13 47  1  0
 17 48  1  0
 18 49  1  0
 21 50  1  0
 21 51  1  0
 23 52  1  0
 24 53  1  0
 27 54  1  0
 28 55  1  0
 29 56  1  0
 30 57  1  0
 35 58  1  0
 35 59  1  0
 36 60  1  0
 36 61  1  0
 40 62  1  0
M  END
$$$$
