
     RDKit          3D

 41 42  0  0  0  0  0  0  0  0999 V2000
    9.1267    0.2456    0.0766 O   0  0  0  0  0  0  0  0  0  0  0  0
    8.2502    0.2091    1.1679 C   0  0  0  0  0  0  0  0  0  0  0  0
    8.6039   -0.3644    2.2230 O   0  0  0  0  0  0  0  0  0  0  0  0
    6.9050    0.8374    1.1031 C   0  0  0  0  0  0  0  0  0  0  0  0
    5.9090   -0.2560    0.9110 C   0  0  0  0  0  0  0  0  0  0  0  0
    4.5434    0.2409    0.8326 N   0  0  0  0  0  0  0  0  0  0  0  0
    3.6418   -0.8438    0.6497 C   0  0  0  0  0  0  0  0  0  0  0  0
    4.2659   -1.9580    0.6028 O   0  0  0  0  0  0  0  0  0  0  0  0
    2.1931   -0.7023    0.5310 C   0  0  0  0  0  0  0  0  0  0  0  0
    1.5376    0.5098    0.5858 C   0  0  0  0  0  0  0  0  0  0  0  0
    0.1615    0.4722    0.4573 C   0  0  0  0  0  0  0  0  0  0  0  0
   -0.5533   -0.6980    0.2819 C   0  0  0  0  0  0  0  0  0  0  0  0
    0.1269   -1.8980    0.2304 C   0  0  0  0  0  0  0  0  0  0  0  0
    1.5003   -1.8814    0.3567 C   0  0  0  0  0  0  0  0  0  0  0  0
   -1.9691   -0.6066    0.1623 N   0  0  0  0  0  0  0  0  0  0  0  0
   -2.6008   -0.4076   -0.9015 N   0  0  0  0  0  0  0  0  0  0  0  0
   -4.0398   -0.3289   -0.9326 C   0  0  0  0  0  0  0  0  0  0  0  0
   -4.6011   -1.4600   -0.3353 C   0  0  0  0  0  0  0  0  0  0  0  0
   -5.9960   -1.5458   -0.2807 C   0  0  0  0  0  0  0  0  0  0  0  0
   -6.7401   -0.5149   -0.8163 C   0  0  0  0  0  0  0  0  0  0  0  0
   -8.1470   -0.5641   -0.7808 O   0  0  0  0  0  0  0  0  0  0  0  0
   -6.1754    0.5998   -1.4050 C   0  0  0  0  0  0  0  0  0  0  0  0
   -4.7974    0.6859   -1.4597 C   0  0  0  0  0  0  0  0  0  0  0  0
   -6.9435    1.6863   -1.9697 C   0  0  0  0  0  0  0  0  0  0  0  0
   -8.3488    1.6273   -1.9289 O   0  0  0  0  0  0  0  0  0  0  0  0
   -6.4381    2.7065   -2.5083 O   0  0  0  0  0  0  0  0  0  0  0  0
    9.8953   -0.4074   -0.0055 H   0  0  0  0  0  0  0  0  0  0  0  0
    6.6545    1.3387    2.0663 H   0  0  0  0  0  0  0  0  0  0  0  0
    6.8464    1.5353    0.2567 H   0  0  0  0  0  0  0  0  0  0  0  0
    6.0224   -1.0217    1.7029 H   0  0  0  0  0  0  0  0  0  0  0  0
    6.1125   -0.7771   -0.0430 H   0  0  0  0  0  0  0  0  0  0  0  0
    4.1395    1.2204    0.8866 H   0  0  0  0  0  0  0  0  0  0  0  0
    2.1164    1.4128    0.7236 H   0  0  0  0  0  0  0  0  0  0  0  0
   -0.3457    1.4358    0.5022 H   0  0  0  0  0  0  0  0  0  0  0  0
   -0.4473   -2.8193    0.0911 H   0  0  0  0  0  0  0  0  0  0  0  0
    2.0125   -2.8550    0.3112 H   0  0  0  0  0  0  0  0  0  0  0  0
   -4.0881   -2.2821    0.0925 H   0  0  0  0  0  0  0  0  0  0  0  0
   -6.5310   -2.3770    0.1590 H   0  0  0  0  0  0  0  0  0  0  0  0
   -8.6614   -0.6607    0.0854 H   0  0  0  0  0  0  0  0  0  0  0  0
   -4.2249    1.4987   -1.8900 H   0  0  0  0  0  0  0  0  0  0  0  0
   -8.9160    2.4544   -1.7922 H   0  0  0  0  0  0  0  0  0  0  0  0
  1  2  1  0
  2  3  2  0
  2  4  1  0
  4  5  1  0
  5  6  1  0
  6  7  1  0
  7  8  2  0
  7  9  1  0
  9 10  2  0
 10 11  1  0
 11 12  2  0
 12 13  1  0
 13 14  2  0
 12 15  1  0
 15 16  2  0
 16 17  1  0
 17 18  2  0
 18 19  1  0
 19 20  2  0
 20 21  1  0
 20 22  1  0
 22 23  2  0
 22 24  1  0
 24 25  1  0
 24 26  2  0
 14  9  1  0
 23 17  1  0
  1 27  1  0
  4 28  1  0
  4 29  1  0
  5 30  1  0
  5 31  1  0
  6 32  1  0
 10 33  1  0
 11 34  1  0
 13 35  1  0
 14 36  1  0
 18 37  1  0
 19 38  1  0
 21 39  1  0
 23 40  1  0
 25 41  1  0
M  END
$$$$
