
     RDKit          3D

 39 41  0  0  0  0  0  0  0  0999 V2000
    1.1542   -0.8108   -0.4780 C   0  0  2  0  0  0  0  0  0  0  0  0
    1.9288   -0.6279    0.7872 C   0  0  0  0  0  0  0  0  0  0  0  0
    3.3755   -0.6575    0.4375 C   0  0  0  0  0  0  0  0  0  0  0  0
    3.8088    0.0753   -0.6511 C   0  0  0  0  0  0  0  0  0  0  0  0
    2.7207    0.8227   -1.3500 C   0  0  0  0  0  0  0  0  0  0  0  0
    1.7030   -0.1722   -1.6381 N   0  0  0  0  0  0  0  0  0  0  0  0
    5.1393    0.0634   -0.9930 C   0  0  0  0  0  0  0  0  0  0  0  0
    5.9936   -0.6960   -0.2153 C   0  0  0  0  0  0  0  0  0  0  0  0
    5.5882   -1.4371    0.8769 C   0  0  0  0  0  0  0  0  0  0  0  0
    4.2485   -1.4201    1.2145 C   0  0  0  0  0  0  0  0  0  0  0  0
   -0.2525   -0.3374   -0.2451 C   0  0  0  0  0  0  0  0  0  0  0  0
   -0.8645    0.7795   -0.2560 N   0  0  0  0  0  0  0  0  0  0  0  0
   -2.1519    0.7540    0.0123 C   0  0  0  0  0  0  0  0  0  0  0  0
   -2.7127    2.0885   -0.0476 C   0  0  0  0  0  0  0  0  0  0  0  0
   -3.7734    2.9330    0.0539 O   0  0  0  0  0  0  0  0  0  0  0  0
   -2.1928    3.2067   -0.2941 O   0  0  0  0  0  0  0  0  0  0  0  0
   -2.8835   -0.3509    0.2991 C   0  0  0  0  0  0  0  0  0  0  0  0
   -1.5770   -1.6293    0.1865 S   0  0  0  0  0  0  0  0  0  0  0  0
   -4.2316   -0.6598    0.6256 C   0  0  0  0  0  0  0  0  0  0  0  0
   -5.0725   -0.7837   -0.6355 C   0  0  0  0  0  0  0  0  0  0  0  0
   -4.8507    0.3923    1.5103 C   0  0  0  0  0  0  0  0  0  0  0  0
    1.1370   -1.9212   -0.6882 H   0  0  0  0  0  0  0  0  0  0  0  0
    1.7367    0.4042    1.1958 H   0  0  0  0  0  0  0  0  0  0  0  0
    1.6560   -1.4071    1.5101 H   0  0  0  0  0  0  0  0  0  0  0  0
    2.3119    1.6519   -0.7566 H   0  0  0  0  0  0  0  0  0  0  0  0
    3.0721    1.1709   -2.3592 H   0  0  0  0  0  0  0  0  0  0  0  0
    2.1527   -0.8518   -2.2831 H   0  0  0  0  0  0  0  0  0  0  0  0
    5.4164    0.6466   -1.8411 H   0  0  0  0  0  0  0  0  0  0  0  0
    7.0383   -0.6890   -0.5054 H   0  0  0  0  0  0  0  0  0  0  0  0
    6.2749   -2.0247    1.4718 H   0  0  0  0  0  0  0  0  0  0  0  0
    3.8374   -1.9699    2.0543 H   0  0  0  0  0  0  0  0  0  0  0  0
   -4.5964    2.9967   -0.5289 H   0  0  0  0  0  0  0  0  0  0  0  0
   -4.2779   -1.6515    1.1404 H   0  0  0  0  0  0  0  0  0  0  0  0
   -5.8409    0.0122   -0.6660 H   0  0  0  0  0  0  0  0  0  0  0  0
   -5.5358   -1.7901   -0.7310 H   0  0  0  0  0  0  0  0  0  0  0  0
   -4.4287   -0.6191   -1.5344 H   0  0  0  0  0  0  0  0  0  0  0  0
   -5.4014   -0.0788    2.3702 H   0  0  0  0  0  0  0  0  0  0  0  0
   -5.5517    1.0745    0.9564 H   0  0  0  0  0  0  0  0  0  0  0  0
   -4.0981    1.0471    1.9947 H   0  0  0  0  0  0  0  0  0  0  0  0
  1  2  1  0
  2  3  1  0
  3  4  2  0
  4  5  1  0
  5  6  1  0
  4  7  1  0
  7  8  2  0
  8  9  1  0
  9 10  2  0
  1 11  1  0
 11 12  2  0
 12 13  1  0
 13 14  1  0
 14 15  1  0
 14 16  2  0
 13 17  2  0
 17 18  1  0
 17 19  1  0
 19 20  1  0
 19 21  1  0
  6  1  1  0
 18 11  1  0
 10  3  1  0
  1 22  1  6
  2 23  1  0
  2 24  1  0
  5 25  1  0
  5 26  1  0
  6 27  1  0
  7 28  1  0
  8 29  1  0
  9 30  1  0
 10 31  1  0
 15 32  1  0
 19 33  1  0
 20 34  1  0
 20 35  1  0
 20 36  1  0
 21 37  1  0
 21 38  1  0
 21 39  1  0
M  END
$$$$
