
     RDKit          3D

 67 71  0  0  0  0  0  0  0  0999 V2000
    8.8803   -2.7004   -2.8869 C   0  0  0  0  0  0  0  0  0  0  0  0
    7.9574   -2.3348   -1.8786 O   0  0  0  0  0  0  0  0  0  0  0  0
    8.0409   -1.1057   -1.2362 C   0  0  0  0  0  0  0  0  0  0  0  0
    8.9091   -0.1002   -1.3939 N   0  0  0  0  0  0  0  0  0  0  0  0
    8.6666    0.9014   -0.6045 N   0  0  0  0  0  0  0  0  0  0  0  0
    9.4216    2.1294   -0.5333 C   0  0  0  0  0  0  0  0  0  0  0  0
    7.5815    0.5600    0.1263 C   0  0  0  0  0  0  0  0  0  0  0  0
    7.1575   -0.7017   -0.2457 C   0  0  0  0  0  0  0  0  0  0  0  0
    6.0614   -1.4253    0.3020 N   0  0  0  0  0  0  0  0  0  0  0  0
    5.2375   -0.8452    1.3086 C   0  0  0  0  0  0  0  0  0  0  0  0
    5.7377   -0.6248    2.5457 N   0  0  0  0  0  0  0  0  0  0  0  0
    5.0246   -0.1161    3.5433 C   0  0  0  0  0  0  0  0  0  0  0  0
    3.6867    0.2020    3.2837 C   0  0  0  0  0  0  0  0  0  0  0  0
    3.1424   -0.0098    2.0321 C   0  0  0  0  0  0  0  0  0  0  0  0
    1.7461    0.3411    1.7948 C   0  0  0  0  0  0  0  0  0  0  0  0
    0.8153    0.7891    2.6999 C   0  0  0  0  0  0  0  0  0  0  0  0
   -0.3707    1.0250    2.1223 N   0  0  0  0  0  0  0  0  0  0  0  0
   -0.2222    0.7265    0.7981 C   0  0  0  0  0  0  0  0  0  0  0  0
   -1.1531    0.8146   -0.2161 C   0  0  0  0  0  0  0  0  0  0  0  0
   -2.4761    1.2641    0.0514 N   0  0  0  0  0  0  0  0  0  0  0  0
   -3.5174    0.3877    0.3667 C   0  0  0  0  0  0  0  0  0  0  0  0
   -3.2565   -0.8652    0.4094 O   0  0  0  0  0  0  0  0  0  0  0  0
   -4.9135    0.8119    0.6539 C   0  0  1  0  0  0  0  0  0  0  0  0
   -5.3762    1.9675   -0.1918 C   0  0  0  0  0  0  0  0  0  0  0  0
   -5.7777   -0.2966    0.7090 N   0  0  0  0  0  0  0  0  0  0  0  0
   -5.9409   -1.0961   -0.4384 C   0  0  0  0  0  0  0  0  0  0  0  0
   -7.1690   -0.8093   -1.2699 C   0  0  0  0  0  0  0  0  0  0  0  0
   -8.2926   -0.6564   -0.4474 N   0  0  0  0  0  0  0  0  0  0  0  0
   -9.5382   -1.1631   -0.8674 C   0  0  0  0  0  0  0  0  0  0  0  0
   -8.2055    0.0820    0.7421 C   0  0  0  0  0  0  0  0  0  0  0  0
   -6.9388   -0.1406    1.5322 C   0  0  0  0  0  0  0  0  0  0  0  0
   -0.7325    0.4557   -1.4871 C   0  0  0  0  0  0  0  0  0  0  0  0
    0.5608    0.0289   -1.7298 C   0  0  0  0  0  0  0  0  0  0  0  0
    1.4771   -0.0487   -0.6881 C   0  0  0  0  0  0  0  0  0  0  0  0
    1.0762    0.3038    0.5856 C   0  0  0  0  0  0  0  0  0  0  0  0
    3.9452   -0.5272    1.0911 N   0  0  0  0  0  0  0  0  0  0  0  0
    8.3202   -2.8439   -3.8565 H   0  0  0  0  0  0  0  0  0  0  0  0
    9.6706   -1.9394   -3.0123 H   0  0  0  0  0  0  0  0  0  0  0  0
    9.3031   -3.7177   -2.6642 H   0  0  0  0  0  0  0  0  0  0  0  0
    8.7478    2.9860   -0.7615 H   0  0  0  0  0  0  0  0  0  0  0  0
   10.2957    2.0822   -1.2203 H   0  0  0  0  0  0  0  0  0  0  0  0
    9.7660    2.3016    0.5279 H   0  0  0  0  0  0  0  0  0  0  0  0
    7.1081    1.1618    0.8826 H   0  0  0  0  0  0  0  0  0  0  0  0
    5.8265   -2.3901   -0.0077 H   0  0  0  0  0  0  0  0  0  0  0  0
    5.4857    0.0349    4.5064 H   0  0  0  0  0  0  0  0  0  0  0  0
    3.0688    0.6154    4.0539 H   0  0  0  0  0  0  0  0  0  0  0  0
    1.0124    0.9334    3.7496 H   0  0  0  0  0  0  0  0  0  0  0  0
   -1.2579    1.3735    2.5808 H   0  0  0  0  0  0  0  0  0  0  0  0
   -2.7185    2.2908    0.0243 H   0  0  0  0  0  0  0  0  0  0  0  0
   -4.8587    1.2328    1.7093 H   0  0  0  0  0  0  0  0  0  0  0  0
   -5.5949    1.7384   -1.2285 H   0  0  0  0  0  0  0  0  0  0  0  0
   -6.3257    2.4118    0.2270 H   0  0  0  0  0  0  0  0  0  0  0  0
   -4.6640    2.8155   -0.1773 H   0  0  0  0  0  0  0  0  0  0  0  0
   -5.0177   -1.0839   -1.0492 H   0  0  0  0  0  0  0  0  0  0  0  0
   -6.0567   -2.1675   -0.0940 H   0  0  0  0  0  0  0  0  0  0  0  0
   -7.3227   -1.7279   -1.9018 H   0  0  0  0  0  0  0  0  0  0  0  0
   -7.0309    0.0019   -2.0137 H   0  0  0  0  0  0  0  0  0  0  0  0
   -9.4998   -2.2379   -1.1857 H   0  0  0  0  0  0  0  0  0  0  0  0
  -10.3253   -1.0292   -0.1222 H   0  0  0  0  0  0  0  0  0  0  0  0
   -9.8643   -0.5749   -1.7795 H   0  0  0  0  0  0  0  0  0  0  0  0
   -8.3698    1.1899    0.5758 H   0  0  0  0  0  0  0  0  0  0  0  0
   -9.0606   -0.2041    1.4165 H   0  0  0  0  0  0  0  0  0  0  0  0
   -6.7685    0.6980    2.2295 H   0  0  0  0  0  0  0  0  0  0  0  0
   -7.0611   -1.0598    2.1405 H   0  0  0  0  0  0  0  0  0  0  0  0
   -1.4283    0.5035   -2.3261 H   0  0  0  0  0  0  0  0  0  0  0  0
    0.8746   -0.2466   -2.7245 H   0  0  0  0  0  0  0  0  0  0  0  0
    2.5006   -0.3720   -0.8087 H   0  0  0  0  0  0  0  0  0  0  0  0
  1  2  1  0
  2  3  1  0
  3  4  2  0
  4  5  1  0
  5  6  1  0
  5  7  1  0
  7  8  2  0
  8  9  1  0
  9 10  1  0
 10 11  2  0
 11 12  1  0
 12 13  2  0
 13 14  1  0
 14 15  1  0
 15 16  2  0
 16 17  1  0
 17 18  1  0
 18 19  2  0
 19 20  1  0
 20 21  1  0
 21 22  2  0
 21 23  1  0
 23 24  1  0
 23 25  1  0
 25 26  1  0
 26 27  1  0
 27 28  1  0
 28 29  1  0
 28 30  1  0
 30 31  1  0
 19 32  1  0
 32 33  2  0
 33 34  1  0
 34 35  2  0
 14 36  2  0
  8  3  1  0
 36 10  1  0
 35 15  1  0
 35 18  1  0
 31 25  1  0
  1 37  1  0
  1 38  1  0
  1 39  1  0
  6 40  1  0
  6 41  1  0
  6 42  1  0
  7 43  1  0
  9 44  1  0
 12 45  1  0
 13 46  1  0
 16 47  1  0
 17 48  1  0
 20 49  1  0
 23 50  1  1
 24 51  1  0
 24 52  1  0
 24 53  1  0
 26 54  1  0
 26 55  1  0
 27 56  1  0
 27 57  1  0
 29 58  1  0
 29 59  1  0
 29 60  1  0
 30 61  1  0
 30 62  1  0
 31 63  1  0
 31 64  1  0
 32 65  1  0
 33 66  1  0
 34 67  1  0
M  END
$$$$
