
     RDKit          3D

 67 69  0  0  0  0  0  0  0  0999 V2000
   -0.0571    1.5928   -0.6122 C   0  0  0  0  0  0  0  0  0  0  0  0
    0.4996    0.1958   -0.7044 C   0  0  2  0  0  0  0  0  0  0  0  0
   -0.4533   -0.7428   -1.3054 C   0  0  0  0  0  0  0  0  0  0  0  0
   -1.7734   -0.9491   -0.7135 C   0  0  0  0  0  0  0  0  0  0  0  0
   -2.7695   -0.0923   -1.2152 C   0  0  0  0  0  0  0  0  0  0  0  0
   -4.0952   -0.1401   -0.8468 C   0  0  0  0  0  0  0  0  0  0  0  0
   -4.4643   -1.0879    0.0635 C   0  0  0  0  0  0  0  0  0  0  0  0
   -5.8538   -0.9744    0.2141 N   0  0  0  0  0  0  0  0  0  0  0  0
   -6.8509   -1.8669    0.7331 C   0  0  0  0  0  0  0  0  0  0  0  0
   -7.5966   -1.3810    1.9245 C   0  0  0  0  0  0  0  0  0  0  0  0
   -6.7372   -1.1075    3.1004 C   0  0  0  0  0  0  0  0  0  0  0  0
   -5.7383   -0.1582    2.8729 O   0  0  0  0  0  0  0  0  0  0  0  0
   -6.3358    0.2886   -0.3394 C   0  0  0  0  0  0  0  0  0  0  0  0
   -5.2458    0.6914   -1.2938 C   0  0  0  0  0  0  0  0  0  0  0  0
   -3.5195   -1.9347    0.5675 C   0  0  0  0  0  0  0  0  0  0  0  0
   -2.1928   -1.8830    0.2010 C   0  0  0  0  0  0  0  0  0  0  0  0
   -3.8851   -2.9365    1.5220 C   0  0  0  0  0  0  0  0  0  0  0  0
   -2.9050   -3.8694    1.9545 N   0  0  0  0  0  0  0  0  0  0  0  0
   -4.6029   -3.5716    2.2925 O   0  0  0  0  0  0  0  0  0  0  0  0
    1.2380   -0.1911    0.4657 N   0  0  0  0  0  0  0  0  0  0  0  0
    2.6751   -0.1132    0.1887 C   0  0  0  0  0  0  0  0  0  0  0  0
    3.1827    1.2762   -0.0415 C   0  0  0  0  0  0  0  0  0  0  0  0
    4.5118    1.3579   -0.3346 O   0  0  0  0  0  0  0  0  0  0  0  0
    5.6664    1.0669    0.3184 C   0  0  0  0  0  0  0  0  0  0  0  0
    5.8612    0.5884    1.6043 C   0  0  0  0  0  0  0  0  0  0  0  0
    7.1508    0.3387    2.0958 C   0  0  0  0  0  0  0  0  0  0  0  0
    8.2517    0.5685    1.2976 C   0  0  0  0  0  0  0  0  0  0  0  0
    8.0540    1.0431    0.0206 C   0  0  0  0  0  0  0  0  0  0  0  0
    6.7924    1.3016   -0.4953 C   0  0  0  0  0  0  0  0  0  0  0  0
    6.6901    1.7496   -1.7051 O   0  0  0  0  0  0  0  0  0  0  0  0
    7.1940    2.1338   -2.8780 C   0  0  0  0  0  0  0  0  0  0  0  0
    8.1663    3.2933   -2.9069 C   0  0  0  0  0  0  0  0  0  0  0  0
    7.6285    4.4478   -2.4096 F   0  0  0  0  0  0  0  0  0  0  0  0
    9.3754    3.0564   -2.3322 F   0  0  0  0  0  0  0  0  0  0  0  0
    8.4057    3.5602   -4.2740 F   0  0  0  0  0  0  0  0  0  0  0  0
    0.4440    2.1623    0.2305 H   0  0  0  0  0  0  0  0  0  0  0  0
   -1.1322    1.5563   -0.2804 H   0  0  0  0  0  0  0  0  0  0  0  0
    0.0523    2.1873   -1.5386 H   0  0  0  0  0  0  0  0  0  0  0  0
    1.3535    0.2630   -1.5246 H   0  0  0  0  0  0  0  0  0  0  0  0
   -0.6016   -0.4909   -2.4017 H   0  0  0  0  0  0  0  0  0  0  0  0
    0.0544   -1.7637   -1.3941 H   0  0  0  0  0  0  0  0  0  0  0  0
   -2.5235    0.6710   -1.9552 H   0  0  0  0  0  0  0  0  0  0  0  0
   -7.6578   -1.9552   -0.1127 H   0  0  0  0  0  0  0  0  0  0  0  0
   -6.4909   -2.8978    0.7944 H   0  0  0  0  0  0  0  0  0  0  0  0
   -8.3559   -2.1421    2.2253 H   0  0  0  0  0  0  0  0  0  0  0  0
   -8.2185   -0.4771    1.6922 H   0  0  0  0  0  0  0  0  0  0  0  0
   -6.2780   -1.9966    3.5345 H   0  0  0  0  0  0  0  0  0  0  0  0
   -7.4479   -0.7015    3.9112 H   0  0  0  0  0  0  0  0  0  0  0  0
   -6.0713    0.7343    3.1652 H   0  0  0  0  0  0  0  0  0  0  0  0
   -7.2554    0.1318   -0.9510 H   0  0  0  0  0  0  0  0  0  0  0  0
   -6.4870    1.0576    0.4427 H   0  0  0  0  0  0  0  0  0  0  0  0
   -5.5279    0.4614   -2.3450 H   0  0  0  0  0  0  0  0  0  0  0  0
   -4.9832    1.7795   -1.1817 H   0  0  0  0  0  0  0  0  0  0  0  0
   -1.4340   -2.5204    0.5653 H   0  0  0  0  0  0  0  0  0  0  0  0
   -2.6019   -4.8782    1.8905 H   0  0  0  0  0  0  0  0  0  0  0  0
   -2.1386   -3.5146    2.5778 H   0  0  0  0  0  0  0  0  0  0  0  0
    1.0665   -1.2276    0.6302 H   0  0  0  0  0  0  0  0  0  0  0  0
    2.9268   -0.7331   -0.7163 H   0  0  0  0  0  0  0  0  0  0  0  0
    3.2284   -0.5720    1.0269 H   0  0  0  0  0  0  0  0  0  0  0  0
    3.0096    1.8172    0.9387 H   0  0  0  0  0  0  0  0  0  0  0  0
    2.5349    1.8486   -0.7550 H   0  0  0  0  0  0  0  0  0  0  0  0
    4.9686    0.4366    2.1898 H   0  0  0  0  0  0  0  0  0  0  0  0
    7.1143   -0.0354    3.1167 H   0  0  0  0  0  0  0  0  0  0  0  0
    9.1280    0.3185    1.8629 H   0  0  0  0  0  0  0  0  0  0  0  0
    9.0192    1.1673   -0.4673 H   0  0  0  0  0  0  0  0  0  0  0  0
    6.3457    2.4475   -3.5703 H   0  0  0  0  0  0  0  0  0  0  0  0
    7.6921    1.3148   -3.4803 H   0  0  0  0  0  0  0  0  0  0  0  0
  1  2  1  0
  2  3  1  0
  3  4  1  0
  4  5  2  0
  5  6  1  0
  6  7  2  0
  7  8  1  0
  8  9  1  0
  9 10  1  0
 10 11  1  0
 11 12  1  0
  8 13  1  0
 13 14  1  0
  7 15  1  0
 15 16  2  0
 15 17  1  0
 17 18  1  0
 17 19  2  0
  2 20  1  0
 20 21  1  0
 21 22  1  0
 22 23  1  0
 23 24  1  0
 24 25  2  0
 25 26  1  0
 26 27  2  0
 27 28  1  0
 28 29  2  0
 29 30  1  0
 30 31  1  0
 31 32  1  0
 32 33  1  0
 32 34  1  0
 32 35  1  0
 16  4  1  0
 29 24  1  0
 14  6  1  0
  1 36  1  0
  1 37  1  0
  1 38  1  0
  2 39  1  6
  3 40  1  0
  3 41  1  0
  5 42  1  0
  9 43  1  0
  9 44  1  0
 10 45  1  0
 10 46  1  0
 11 47  1  0
 11 48  1  0
 12 49  1  0
 13 50  1  0
 13 51  1  0
 14 52  1  0
 14 53  1  0
 16 54  1  0
 18 55  1  0
 18 56  1  0
 20 57  1  0
 21 58  1  0
 21 59  1  0
 22 60  1  0
 22 61  1  0
 25 62  1  0
 26 63  1  0
 27 64  1  0
 28 65  1  0
 31 66  1  0
 31 67  1  0
M  END
$$$$
