
     RDKit          3D

 22 22  0  0  0  0  0  0  0  0999 V2000
   -3.0064    0.9962   -0.5852 C   0  0  0  0  0  0  0  0  0  0  0  0
   -1.8321    0.1308   -0.6475 N   0  0  0  0  0  0  0  0  0  0  0  0
   -1.5572   -0.3130    0.7236 C   0  0  0  0  0  0  0  0  0  0  0  0
   -0.3732   -1.2078    0.7988 C   0  0  0  0  0  0  0  0  0  0  0  0
    0.8850   -0.6123    0.3318 C   0  0  0  0  0  0  0  0  0  0  0  0
    1.0599    0.6593   -0.1536 C   0  0  0  0  0  0  0  0  0  0  0  0
    2.2872    1.1483   -0.5766 C   0  0  0  0  0  0  0  0  0  0  0  0
    3.3413    0.2584   -0.4767 C   0  0  0  0  0  0  0  0  0  0  0  0
    3.1873   -1.0248    0.0084 C   0  0  0  0  0  0  0  0  0  0  0  0
    1.9582   -1.4519    0.4099 N   0  0  0  0  0  0  0  0  0  0  0  0
   -2.7171    2.0629   -0.4625 H   0  0  0  0  0  0  0  0  0  0  0  0
   -3.5864    0.9110   -1.5106 H   0  0  0  0  0  0  0  0  0  0  0  0
   -3.6292    0.6911    0.2708 H   0  0  0  0  0  0  0  0  0  0  0  0
   -2.1235   -0.6719   -1.2481 H   0  0  0  0  0  0  0  0  0  0  0  0
   -2.4474   -0.9397    0.9963 H   0  0  0  0  0  0  0  0  0  0  0  0
   -1.5722    0.5354    1.4264 H   0  0  0  0  0  0  0  0  0  0  0  0
   -0.5751   -2.0828    0.1504 H   0  0  0  0  0  0  0  0  0  0  0  0
   -0.2400   -1.5176    1.8464 H   0  0  0  0  0  0  0  0  0  0  0  0
    0.2001    1.2853   -0.1997 H   0  0  0  0  0  0  0  0  0  0  0  0
    2.3571    2.1529   -0.9461 H   0  0  0  0  0  0  0  0  0  0  0  0
    4.3096    0.6137   -0.7997 H   0  0  0  0  0  0  0  0  0  0  0  0
    4.0744   -1.6236    0.0394 H   0  0  0  0  0  0  0  0  0  0  0  0
  1  2  1  0
  2  3  1  0
  3  4  1  0
  4  5  1  0
  5  6  2  0
  6  7  1  0
  7  8  2  0
  8  9  1  0
  9 10  2  0
 10  5  1  0
  1 11  1  0
  1 12  1  0
  1 13  1  0
  2 14  1  0
  3 15  1  0
  3 16  1  0
  4 17  1  0
  4 18  1  0
  6 19  1  0
  7 20  1  0
  8 21  1  0
  9 22  1  0
M  END
$$$$
