
     RDKit          3D

 61 63  0  0  0  0  0  0  0  0999 V2000
   -7.9983   -3.1436   -2.0910 C   0  0  0  0  0  0  0  0  0  0  0  0
   -8.1273   -2.0638   -1.2271 O   0  0  0  0  0  0  0  0  0  0  0  0
   -7.2024   -1.0681   -1.0257 C   0  0  0  0  0  0  0  0  0  0  0  0
   -6.0175   -1.0919   -1.7192 C   0  0  0  0  0  0  0  0  0  0  0  0
   -5.0642   -0.0853   -1.5265 C   0  0  0  0  0  0  0  0  0  0  0  0
   -5.2806    0.9455   -0.6488 C   0  0  0  0  0  0  0  0  0  0  0  0
   -4.3201    2.0141   -0.4172 C   0  0  0  0  0  0  0  0  0  0  0  0
   -4.6234    2.9253    0.4134 O   0  0  0  0  0  0  0  0  0  0  0  0
   -3.0627    2.0986   -1.0658 N   0  0  0  0  0  0  0  0  0  0  0  0
   -2.1038    3.1388   -0.8531 C   0  0  0  0  0  0  0  0  0  0  0  0
   -1.3252    3.0201    0.4004 C   0  0  0  0  0  0  0  0  0  0  0  0
   -1.7048    3.6355    1.5591 C   0  0  0  0  0  0  0  0  0  0  0  0
   -0.9088    3.4537    2.6845 C   0  0  0  0  0  0  0  0  0  0  0  0
    0.2242    2.6794    2.6333 C   0  0  0  0  0  0  0  0  0  0  0  0
    0.6278    2.0461    1.4676 C   0  0  0  0  0  0  0  0  0  0  0  0
    1.8505    1.2257    1.4676 C   0  0  0  0  0  0  0  0  0  0  0  0
    2.4329    1.1366    2.5689 O   0  0  0  0  0  0  0  0  0  0  0  0
    2.3666    0.5699    0.3371 N   0  0  0  0  0  0  0  0  0  0  0  0
    3.5365   -0.2292    0.2984 C   0  0  0  0  0  0  0  0  0  0  0  0
    4.3499   -0.5149    1.3516 C   0  0  0  0  0  0  0  0  0  0  0  0
    5.4998   -1.3204    1.2310 C   0  0  0  0  0  0  0  0  0  0  0  0
    5.8563   -1.8626    0.0212 C   0  0  0  0  0  0  0  0  0  0  0  0
    7.0542   -2.7209   -0.1610 C   0  0  0  0  0  0  0  0  0  0  0  0
    8.1835   -1.8654   -0.4801 N   0  0  0  0  0  0  0  0  0  0  0  0
    8.4534   -0.9191    0.5746 C   0  0  0  0  0  0  0  0  0  0  0  0
    9.3423   -2.5917   -0.9193 C   0  0  0  0  0  0  0  0  0  0  0  0
    5.0362   -1.5758   -1.0460 C   0  0  0  0  0  0  0  0  0  0  0  0
    3.9147   -0.7920   -0.9356 C   0  0  0  0  0  0  0  0  0  0  0  0
   -0.1697    2.2350    0.3619 C   0  0  0  0  0  0  0  0  0  0  0  0
   -6.4850    0.9325    0.0291 C   0  0  0  0  0  0  0  0  0  0  0  0
   -7.4347   -0.0223   -0.1275 C   0  0  0  0  0  0  0  0  0  0  0  0
   -8.7100    0.0057    0.6246 C   0  0  0  0  0  0  0  0  0  0  0  0
   -9.0081   -3.5085   -2.3913 H   0  0  0  0  0  0  0  0  0  0  0  0
   -7.4890   -3.9846   -1.5617 H   0  0  0  0  0  0  0  0  0  0  0  0
   -7.4947   -2.8438   -3.0260 H   0  0  0  0  0  0  0  0  0  0  0  0
   -5.8006   -1.8971   -2.4308 H   0  0  0  0  0  0  0  0  0  0  0  0
   -4.1459   -0.1319   -2.0846 H   0  0  0  0  0  0  0  0  0  0  0  0
   -2.8383    1.3239   -1.7528 H   0  0  0  0  0  0  0  0  0  0  0  0
   -1.3611    3.1081   -1.7040 H   0  0  0  0  0  0  0  0  0  0  0  0
   -2.5616    4.1552   -0.9363 H   0  0  0  0  0  0  0  0  0  0  0  0
   -2.6023    4.2605    1.6092 H   0  0  0  0  0  0  0  0  0  0  0  0
   -1.2353    3.9499    3.5763 H   0  0  0  0  0  0  0  0  0  0  0  0
    0.8115    2.5722    3.5498 H   0  0  0  0  0  0  0  0  0  0  0  0
    1.7985    0.7102   -0.5544 H   0  0  0  0  0  0  0  0  0  0  0  0
    4.1326   -0.1266    2.3263 H   0  0  0  0  0  0  0  0  0  0  0  0
    6.1171   -1.5232    2.0856 H   0  0  0  0  0  0  0  0  0  0  0  0
    7.2572   -3.3236    0.7723 H   0  0  0  0  0  0  0  0  0  0  0  0
    6.8616   -3.4593   -0.9592 H   0  0  0  0  0  0  0  0  0  0  0  0
    7.6417   -0.1903    0.6131 H   0  0  0  0  0  0  0  0  0  0  0  0
    8.5490   -1.4041    1.5686 H   0  0  0  0  0  0  0  0  0  0  0  0
    9.4061   -0.4072    0.3664 H   0  0  0  0  0  0  0  0  0  0  0  0
   10.2786   -2.2836   -0.4464 H   0  0  0  0  0  0  0  0  0  0  0  0
    9.4119   -2.4504   -2.0347 H   0  0  0  0  0  0  0  0  0  0  0  0
    9.1306   -3.6767   -0.7600 H   0  0  0  0  0  0  0  0  0  0  0  0
    5.3278   -2.0122   -2.0070 H   0  0  0  0  0  0  0  0  0  0  0  0
    3.2866   -0.5849   -1.8024 H   0  0  0  0  0  0  0  0  0  0  0  0
    0.1307    1.7465   -0.5590 H   0  0  0  0  0  0  0  0  0  0  0  0
   -6.6700    1.7395    0.7250 H   0  0  0  0  0  0  0  0  0  0  0  0
   -8.6774    0.8012    1.4010 H   0  0  0  0  0  0  0  0  0  0  0  0
   -9.5593    0.1945   -0.0712 H   0  0  0  0  0  0  0  0  0  0  0  0
   -8.8880   -0.9495    1.1727 H   0  0  0  0  0  0  0  0  0  0  0  0
  1  2  1  0
  2  3  1  0
  3  4  2  0
  4  5  1  0
  5  6  2  0
  6  7  1  0
  7  8  2  0
  7  9  1  0
  9 10  1  0
 10 11  1  0
 11 12  2  0
 12 13  1  0
 13 14  2  0
 14 15  1  0
 15 16  1  0
 16 17  2  0
 16 18  1  0
 18 19  1  0
 19 20  2  0
 20 21  1  0
 21 22  2  0
 22 23  1  0
 23 24  1  0
 24 25  1  0
 24 26  1  0
 22 27  1  0
 27 28  2  0
 15 29  2  0
  6 30  1  0
 30 31  2  0
 31 32  1  0
 31  3  1  0
 29 11  1  0
 28 19  1  0
  1 33  1  0
  1 34  1  0
  1 35  1  0
  4 36  1  0
  5 37  1  0
  9 38  1  0
 10 39  1  0
 10 40  1  0
 12 41  1  0
 13 42  1  0
 14 43  1  0
 18 44  1  0
 20 45  1  0
 21 46  1  0
 23 47  1  0
 23 48  1  0
 25 49  1  0
 25 50  1  0
 25 51  1  0
 26 52  1  0
 26 53  1  0
 26 54  1  0
 27 55  1  0
 28 56  1  0
 29 57  1  0
 30 58  1  0
 32 59  1  0
 32 60  1  0
 32 61  1  0
M  END
$$$$
