
     RDKit          3D

 29 29  0  0  0  0  0  0  0  0999 V2000
   -2.9172    1.3982    0.0321 N   0  0  0  0  0  0  0  0  0  0  0  0
   -3.1505   -0.0187   -0.0213 C   0  0  1  0  0  0  0  0  0  0  0  0
   -2.2821   -0.7279   -1.0239 C   0  0  0  0  0  0  0  0  0  0  0  0
   -0.8432   -0.5970   -0.7813 C   0  0  0  0  0  0  0  0  0  0  0  0
   -0.0658    0.4146   -1.3009 C   0  0  0  0  0  0  0  0  0  0  0  0
    1.2748    0.5291   -1.0697 C   0  0  0  0  0  0  0  0  0  0  0  0
    1.9255   -0.3993   -0.2769 C   0  0  0  0  0  0  0  0  0  0  0  0
    3.2680   -0.4675    0.0811 O   0  0  0  0  0  0  0  0  0  0  0  0
    4.0596    0.6909    1.0449 P   0  0  0  0  0  0  0  0  0  0  0  0
    3.6239    2.2640    0.6422 O   0  0  0  0  0  0  0  0  0  0  0  0
    5.7237    0.5295    0.7603 O   0  0  0  0  0  0  0  0  0  0  0  0
    3.8098    0.4751    2.5258 O   0  0  0  0  0  0  0  0  0  0  0  0
    1.1600   -1.4363    0.2630 C   0  0  0  0  0  0  0  0  0  0  0  0
   -0.1865   -1.5176    0.0075 C   0  0  0  0  0  0  0  0  0  0  0  0
   -3.1187   -0.6059    1.3274 C   0  0  0  0  0  0  0  0  0  0  0  0
   -2.8931    0.0989    2.5259 O   0  0  0  0  0  0  0  0  0  0  0  0
   -3.2844   -1.8272    1.6578 O   0  0  0  0  0  0  0  0  0  0  0  0
   -3.2873    1.8818   -0.8262 H   0  0  0  0  0  0  0  0  0  0  0  0
   -1.9625    1.6724    0.2872 H   0  0  0  0  0  0  0  0  0  0  0  0
   -4.2052   -0.1566   -0.3876 H   0  0  0  0  0  0  0  0  0  0  0  0
   -2.5251   -0.2991   -2.0176 H   0  0  0  0  0  0  0  0  0  0  0  0
   -2.5932   -1.7886   -1.0507 H   0  0  0  0  0  0  0  0  0  0  0  0
   -0.5307    1.1726   -1.9329 H   0  0  0  0  0  0  0  0  0  0  0  0
    1.9358    1.2907   -1.4435 H   0  0  0  0  0  0  0  0  0  0  0  0
    3.8626    2.4006   -0.3262 H   0  0  0  0  0  0  0  0  0  0  0  0
    5.9295   -0.4185    0.5591 H   0  0  0  0  0  0  0  0  0  0  0  0
    1.5748   -2.2191    0.9005 H   0  0  0  0  0  0  0  0  0  0  0  0
   -0.7888   -2.3321    0.4315 H   0  0  0  0  0  0  0  0  0  0  0  0
   -3.5137   -0.0071    3.3249 H   0  0  0  0  0  0  0  0  0  0  0  0
  1  2  1  0
  2  3  1  0
  3  4  1  0
  4  5  2  0
  5  6  1  0
  6  7  2  0
  7  8  1  0
  8  9  1  0
  9 10  1  0
  9 11  1  0
  9 12  2  0
  7 13  1  0
 13 14  2  0
  2 15  1  0
 15 16  1  0
 15 17  2  0
 14  4  1  0
  1 18  1  0
  1 19  1  0
  2 20  1  6
  3 21  1  0
  3 22  1  0
  5 23  1  0
  6 24  1  0
 10 25  1  0
 11 26  1  0
 13 27  1  0
 14 28  1  0
 16 29  1  0
M  END
$$$$
