
     RDKit          3D

 34 36  0  0  0  0  0  0  0  0999 V2000
   -3.9680    1.9789   -0.6238 C   0  0  0  0  0  0  0  0  0  0  0  0
   -4.3511    1.0952    0.4160 O   0  0  0  0  0  0  0  0  0  0  0  0
   -3.4116    0.2218    0.9392 C   0  0  0  0  0  0  0  0  0  0  0  0
   -2.1195    0.2019    0.4648 C   0  0  0  0  0  0  0  0  0  0  0  0
   -1.1588   -0.6655    0.9738 C   0  0  0  0  0  0  0  0  0  0  0  0
    0.2134   -0.6359    0.4188 C   0  0  0  0  0  0  0  0  0  0  0  0
    1.2227   -1.4552    0.8607 C   0  0  0  0  0  0  0  0  0  0  0  0
    2.5011   -1.4285    0.3445 C   0  0  0  0  0  0  0  0  0  0  0  0
    3.4247   -2.1644    0.7348 O   0  0  0  0  0  0  0  0  0  0  0  0
    2.7529   -0.5162   -0.6738 C   0  0  0  0  0  0  0  0  0  0  0  0
    4.0087   -0.4255   -1.2460 C   0  0  0  0  0  0  0  0  0  0  0  0
    5.0017   -1.2794   -0.7631 O   0  0  0  0  0  0  0  0  0  0  0  0
    4.2572    0.4645   -2.2406 C   0  0  0  0  0  0  0  0  0  0  0  0
    3.2182    1.2763   -2.6634 C   0  0  0  0  0  0  0  0  0  0  0  0
    3.4855    2.1794   -3.6784 O   0  0  0  0  0  0  0  0  0  0  0  0
    1.9609    1.2052   -2.1104 C   0  0  0  0  0  0  0  0  0  0  0  0
    1.7099    0.2856   -1.0851 C   0  0  0  0  0  0  0  0  0  0  0  0
    0.5155    0.2028   -0.5443 O   0  0  0  0  0  0  0  0  0  0  0  0
   -1.5488   -1.5107    1.9774 C   0  0  0  0  0  0  0  0  0  0  0  0
   -2.8589   -1.5025    2.4704 C   0  0  0  0  0  0  0  0  0  0  0  0
   -3.7967   -0.6343    1.9518 C   0  0  0  0  0  0  0  0  0  0  0  0
   -5.0898   -0.6002    2.4122 O   0  0  0  0  0  0  0  0  0  0  0  0
   -3.0161    2.5079   -0.3695 H   0  0  0  0  0  0  0  0  0  0  0  0
   -4.7439    2.7848   -0.6489 H   0  0  0  0  0  0  0  0  0  0  0  0
   -3.9130    1.4676   -1.6071 H   0  0  0  0  0  0  0  0  0  0  0  0
   -1.7953    0.8624   -0.3268 H   0  0  0  0  0  0  0  0  0  0  0  0
    1.0143   -2.1645    1.6572 H   0  0  0  0  0  0  0  0  0  0  0  0
    5.5979   -0.8838   -0.0230 H   0  0  0  0  0  0  0  0  0  0  0  0
    5.2543    0.5377   -2.6960 H   0  0  0  0  0  0  0  0  0  0  0  0
    4.3370    2.1981   -4.1918 H   0  0  0  0  0  0  0  0  0  0  0  0
    1.1417    1.8534   -2.4520 H   0  0  0  0  0  0  0  0  0  0  0  0
   -0.8350   -2.1994    2.4002 H   0  0  0  0  0  0  0  0  0  0  0  0
   -3.1488   -2.1821    3.2681 H   0  0  0  0  0  0  0  0  0  0  0  0
   -5.8624   -1.0755    1.9693 H   0  0  0  0  0  0  0  0  0  0  0  0
  1  2  1  0
  2  3  1  0
  3  4  2  0
  4  5  1  0
  5  6  1  0
  6  7  2  0
  7  8  1  0
  8  9  2  0
  8 10  1  0
 10 11  2  0
 11 12  1  0
 11 13  1  0
 13 14  2  0
 14 15  1  0
 14 16  1  0
 16 17  2  0
 17 18  1  0
  5 19  2  0
 19 20  1  0
 20 21  2  0
 21 22  1  0
 21  3  1  0
 18  6  1  0
 17 10  1  0
  1 23  1  0
  1 24  1  0
  1 25  1  0
  4 26  1  0
  7 27  1  0
 12 28  1  0
 13 29  1  0
 15 30  1  0
 16 31  1  0
 19 32  1  0
 20 33  1  0
 22 34  1  0
M  END
$$$$
