
     RDKit          3D

 56 58  0  0  0  0  0  0  0  0999 V2000
    9.9194    2.4561    0.2163 C   0  0  0  0  0  0  0  0  0  0  0  0
    9.1830    1.4027    0.4715 C   0  0  0  0  0  0  0  0  0  0  0  0
    7.7123    1.5400    0.3069 C   0  0  0  0  0  0  0  0  0  0  0  0
    7.2271    2.6333   -0.0626 O   0  0  0  0  0  0  0  0  0  0  0  0
    6.8511    0.4565    0.5606 N   0  0  0  0  0  0  0  0  0  0  0  0
    5.4512    0.4396    0.4484 C   0  0  0  0  0  0  0  0  0  0  0  0
    4.6533    1.4825    0.0682 C   0  0  0  0  0  0  0  0  0  0  0  0
    3.2919    1.3677   -0.0110 C   0  0  0  0  0  0  0  0  0  0  0  0
    2.6360    0.1628    0.2966 C   0  0  0  0  0  0  0  0  0  0  0  0
    0.9206    0.0949    0.2078 S   0  0  0  0  0  6  0  0  0  0  0  0
    0.2942   -0.0681    1.5881 O   0  0  0  0  0  0  0  0  0  0  0  0
    0.4162    1.4651   -0.2474 O   0  0  0  0  0  0  0  0  0  0  0  0
    0.2561   -1.0357   -0.8751 N   0  0  0  0  0  0  0  0  0  0  0  0
   -0.5466   -2.0553   -0.2702 C   0  0  0  0  0  0  0  0  0  0  0  0
   -1.9912   -1.9985   -0.7459 C   0  0  0  0  0  0  0  0  0  0  0  0
   -2.3921   -0.6047   -0.9031 N   0  0  0  0  0  0  0  0  0  0  0  0
   -3.4672   -0.0448   -0.1862 C   0  0  0  0  0  0  0  0  0  0  0  0
   -3.7798    1.1448   -0.3457 O   0  0  0  0  0  0  0  0  0  0  0  0
   -4.1693   -0.8097    0.6870 O   0  0  0  0  0  0  0  0  0  0  0  0
   -5.2620   -0.4421    1.4869 C   0  0  0  0  0  0  0  0  0  0  0  0
   -6.4353    0.0298    0.7457 C   0  0  0  0  0  0  0  0  0  0  0  0
   -6.6521    1.3595    0.5053 C   0  0  0  0  0  0  0  0  0  0  0  0
   -7.7639    1.8189   -0.2101 C   0  0  0  0  0  0  0  0  0  0  0  0
   -8.6570    0.9073   -0.6803 C   0  0  0  0  0  0  0  0  0  0  0  0
   -8.4443   -0.4319   -0.4412 C   0  0  0  0  0  0  0  0  0  0  0  0
   -7.3659   -0.8858    0.2532 C   0  0  0  0  0  0  0  0  0  0  0  0
   -1.6489    0.2123   -1.8299 C   0  0  0  0  0  0  0  0  0  0  0  0
   -0.3062   -0.4429   -2.0574 C   0  0  0  0  0  0  0  0  0  0  0  0
    3.4142   -0.8949    0.6785 C   0  0  0  0  0  0  0  0  0  0  0  0
    2.7643   -2.2023    0.9839 C   0  0  0  0  0  0  0  0  0  0  0  0
    1.8145   -2.1414    1.9530 F   0  0  0  0  0  0  0  0  0  0  0  0
    3.8010   -2.9871    1.5662 F   0  0  0  0  0  0  0  0  0  0  0  0
    2.4342   -2.9066   -0.1465 F   0  0  0  0  0  0  0  0  0  0  0  0
    4.7830   -0.7479    0.7491 C   0  0  0  0  0  0  0  0  0  0  0  0
    9.4790    3.3739   -0.0967 H   0  0  0  0  0  0  0  0  0  0  0  0
   10.9835    2.3959    0.3236 H   0  0  0  0  0  0  0  0  0  0  0  0
    9.5944    0.4583    0.7900 H   0  0  0  0  0  0  0  0  0  0  0  0
    7.3484   -0.4360    0.8708 H   0  0  0  0  0  0  0  0  0  0  0  0
    5.0794    2.4246   -0.1794 H   0  0  0  0  0  0  0  0  0  0  0  0
    2.6849    2.2321   -0.3216 H   0  0  0  0  0  0  0  0  0  0  0  0
   -0.6047   -1.8770    0.8351 H   0  0  0  0  0  0  0  0  0  0  0  0
   -0.2045   -3.0803   -0.5204 H   0  0  0  0  0  0  0  0  0  0  0  0
   -2.1289   -2.5365   -1.6976 H   0  0  0  0  0  0  0  0  0  0  0  0
   -2.6218   -2.4418    0.0237 H   0  0  0  0  0  0  0  0  0  0  0  0
   -4.9331    0.3817    2.1758 H   0  0  0  0  0  0  0  0  0  0  0  0
   -5.4855   -1.3225    2.1386 H   0  0  0  0  0  0  0  0  0  0  0  0
   -5.9846    2.1350    0.8591 H   0  0  0  0  0  0  0  0  0  0  0  0
   -7.9003    2.8822   -0.3802 H   0  0  0  0  0  0  0  0  0  0  0  0
   -9.5240    1.2769   -1.2392 H   0  0  0  0  0  0  0  0  0  0  0  0
   -9.1629   -1.1479   -0.8207 H   0  0  0  0  0  0  0  0  0  0  0  0
   -7.1734   -1.9310    0.4560 H   0  0  0  0  0  0  0  0  0  0  0  0
   -2.1638    0.2563   -2.8165 H   0  0  0  0  0  0  0  0  0  0  0  0
   -1.5508    1.2624   -1.4783 H   0  0  0  0  0  0  0  0  0  0  0  0
   -0.4715   -1.2346   -2.8209 H   0  0  0  0  0  0  0  0  0  0  0  0
    0.4191    0.2719   -2.4848 H   0  0  0  0  0  0  0  0  0  0  0  0
    5.3792   -1.6180    1.0599 H   0  0  0  0  0  0  0  0  0  0  0  0
  1  2  2  3
  2  3  1  0
  3  4  2  0
  3  5  1  0
  5  6  1  0
  6  7  2  0
  7  8  1  0
  8  9  2  0
  9 10  1  0
 10 11  2  0
 10 12  2  0
 10 13  1  0
 13 14  1  0
 14 15  1  0
 15 16  1  0
 16 17  1  0
 17 18  2  0
 17 19  1  0
 19 20  1  0
 20 21  1  0
 21 22  2  0
 22 23  1  0
 23 24  2  0
 24 25  1  0
 25 26  2  0
 16 27  1  0
 27 28  1  0
  9 29  1  0
 29 30  1  0
 30 31  1  0
 30 32  1  0
 30 33  1  0
 29 34  2  0
 34  6  1  0
 28 13  1  0
 26 21  1  0
  1 35  1  0
  1 36  1  0
  2 37  1  0
  5 38  1  0
  7 39  1  0
  8 40  1  0
 14 41  1  0
 14 42  1  0
 15 43  1  0
 15 44  1  0
 20 45  1  0
 20 46  1  0
 22 47  1  0
 23 48  1  0
 24 49  1  0
 25 50  1  0
 26 51  1  0
 27 52  1  0
 27 53  1  0
 28 54  1  0
 28 55  1  0
 34 56  1  0
M  END
$$$$
