
     RDKit          3D

 50 54  0  0  0  0  0  0  0  0999 V2000
   -5.8762   -2.5670   -2.1533 C   0  0  0  0  0  0  0  0  0  0  0  0
   -5.3623   -2.3153   -0.7640 C   0  0  0  0  0  0  0  0  0  0  0  0
   -5.5278   -3.2961    0.1851 C   0  0  0  0  0  0  0  0  0  0  0  0
   -5.0922   -3.1206    1.4507 N   0  0  0  0  0  0  0  0  0  0  0  0
   -4.4859   -1.9360    1.7446 C   0  0  0  0  0  0  0  0  0  0  0  0
   -4.3024   -0.9327    0.8239 C   0  0  0  0  0  0  0  0  0  0  0  0
   -3.6469    0.2950    1.2557 C   0  0  0  0  0  0  0  0  0  0  0  0
   -4.0178    1.0881    2.3052 N   0  0  0  0  0  0  0  0  0  0  0  0
   -3.1799    2.1085    2.3562 N   0  0  0  0  0  0  0  0  0  0  0  0
   -2.2716    2.0205    1.3845 C   0  0  0  0  0  0  0  0  0  0  0  0
   -2.5619    0.9039    0.7111 N   0  0  0  0  0  0  0  0  0  0  0  0
   -1.7755    0.4771   -0.4187 C   0  0  0  0  0  0  0  0  0  0  0  0
   -0.3494    0.9012   -0.4238 C   0  0  0  0  0  0  0  0  0  0  0  0
   -0.0823    1.9822    0.4821 N   0  0  0  0  0  0  0  0  0  0  0  0
    1.2677    2.1457    0.8881 C   0  0  0  0  0  0  0  0  0  0  0  0
    1.5466    3.0922    1.6791 O   0  0  0  0  0  0  0  0  0  0  0  0
    2.3380    1.2623    0.4230 C   0  0  0  0  0  0  0  0  0  0  0  0
    2.4907    0.0133    0.9707 C   0  0  0  0  0  0  0  0  0  0  0  0
    3.5191   -0.8351    0.5367 C   0  0  0  0  0  0  0  0  0  0  0  0
    4.3885   -0.4171   -0.4497 C   0  0  0  0  0  0  0  0  0  0  0  0
    5.4413   -1.3066   -0.8885 C   0  0  0  0  0  0  0  0  0  0  0  0
    6.4180   -1.1766   -1.7957 C   0  0  0  0  0  0  0  0  0  0  0  0
    7.2988   -2.1464   -2.0359 C   0  0  0  0  0  0  0  0  0  0  0  0
    7.1602   -3.3349   -1.2837 C   0  0  0  0  0  0  0  0  0  0  0  0
    5.7268   -2.9589   -0.2538 S   0  0  0  0  0  0  0  0  0  0  0  0
    4.2083    0.8383   -0.9782 C   0  0  0  0  0  0  0  0  0  0  0  0
    3.1886    1.6804   -0.5480 C   0  0  0  0  0  0  0  0  0  0  0  0
   -1.1129    2.8511    0.9355 C   0  0  2  0  0  0  0  0  0  0  0  0
   -0.7186    3.8142    2.0314 C   0  0  0  0  0  0  0  0  0  0  0  0
   -4.7540   -1.1571   -0.4243 N   0  0  0  0  0  0  0  0  0  0  0  0
   -6.9641   -2.8024   -2.1306 H   0  0  0  0  0  0  0  0  0  0  0  0
   -5.6990   -1.6382   -2.7279 H   0  0  0  0  0  0  0  0  0  0  0  0
   -5.2642   -3.3639   -2.5745 H   0  0  0  0  0  0  0  0  0  0  0  0
   -6.0132   -4.2222   -0.0752 H   0  0  0  0  0  0  0  0  0  0  0  0
   -4.1344   -1.7861    2.7588 H   0  0  0  0  0  0  0  0  0  0  0  0
   -1.7517   -0.6684   -0.4620 H   0  0  0  0  0  0  0  0  0  0  0  0
   -2.3216    0.7298   -1.3616 H   0  0  0  0  0  0  0  0  0  0  0  0
   -0.1307    1.2203   -1.4897 H   0  0  0  0  0  0  0  0  0  0  0  0
    0.3104    0.0222   -0.1733 H   0  0  0  0  0  0  0  0  0  0  0  0
    1.8190   -0.3206    1.7323 H   0  0  0  0  0  0  0  0  0  0  0  0
    3.5754   -1.8067    1.0171 H   0  0  0  0  0  0  0  0  0  0  0  0
    6.4708   -0.1893   -2.3684 H   0  0  0  0  0  0  0  0  0  0  0  0
    8.1303   -2.0586   -2.7992 H   0  0  0  0  0  0  0  0  0  0  0  0
    7.7599   -4.2634   -1.3010 H   0  0  0  0  0  0  0  0  0  0  0  0
    4.8859    1.1674   -1.7540 H   0  0  0  0  0  0  0  0  0  0  0  0
    3.1306    2.6488   -1.0242 H   0  0  0  0  0  0  0  0  0  0  0  0
   -1.5147    3.4545    0.0810 H   0  0  0  0  0  0  0  0  0  0  0  0
   -0.2986    3.3410    2.9170 H   0  0  0  0  0  0  0  0  0  0  0  0
   -1.7058    4.2622    2.3782 H   0  0  0  0  0  0  0  0  0  0  0  0
   -0.1591    4.6543    1.6108 H   0  0  0  0  0  0  0  0  0  0  0  0
  1  2  1  0
  2  3  2  0
  3  4  1  0
  4  5  2  0
  5  6  1  0
  6  7  1  0
  7  8  2  0
  8  9  1  0
  9 10  2  0
 10 11  1  0
 11 12  1  0
 12 13  1  0
 13 14  1  0
 14 15  1  0
 15 16  2  0
 15 17  1  0
 17 18  2  0
 18 19  1  0
 19 20  2  0
 20 21  1  0
 21 22  2  0
 22 23  1  0
 23 24  2  0
 24 25  1  0
 20 26  1  0
 26 27  2  0
 14 28  1  0
 28 29  1  0
  6 30  2  0
 30  2  1  0
 11  7  1  0
 27 17  1  0
 28 10  1  0
 25 21  1  0
  1 31  1  0
  1 32  1  0
  1 33  1  0
  3 34  1  0
  5 35  1  0
 12 36  1  0
 12 37  1  0
 13 38  1  0
 13 39  1  0
 18 40  1  0
 19 41  1  0
 22 42  1  0
 23 43  1  0
 24 44  1  0
 26 45  1  0
 27 46  1  0
 28 47  1  6
 29 48  1  0
 29 49  1  0
 29 50  1  0
M  END
$$$$
