
     RDKit          3D

 52 51  0  0  0  0  0  0  0  0999 V2000
   -0.7813   -1.2050   -0.4671 C   0  0  1  0  0  0  0  0  0  0  0  0
   -0.3636   -2.3010    0.2629 O   0  0  0  0  0  0  0  0  0  0  0  0
   -1.6882   -0.3503    0.3908 C   0  0  0  0  0  0  0  0  0  0  0  0
   -2.8650   -1.1675    0.8016 C   0  0  0  0  0  0  0  0  0  0  0  0
   -4.1731   -0.9737    0.5713 C   0  0  0  0  0  0  0  0  0  0  0  0
   -4.7679    0.1587   -0.1843 C   0  0  0  0  0  0  0  0  0  0  0  0
   -5.7035    0.9180    0.7269 C   0  0  0  0  0  0  0  0  0  0  0  0
   -6.7958    0.0316    1.2218 C   0  0  0  0  0  0  0  0  0  0  0  0
   -7.5763   -0.4919    0.0386 C   0  0  0  0  0  0  0  0  0  0  0  0
   -8.1521    0.6981   -0.7097 C   0  0  0  0  0  0  0  0  0  0  0  0
    0.3944   -0.3255   -0.8066 C   0  0  0  0  0  0  0  0  0  0  0  0
    1.5233   -0.2513   -0.1363 C   0  0  0  0  0  0  0  0  0  0  0  0
    2.6292    0.6478   -0.5484 C   0  0  0  0  0  0  0  0  0  0  0  0
    3.8628   -0.0924   -0.8385 C   0  0  0  0  0  0  0  0  0  0  0  0
    3.1065   -1.0036   -0.5278 O   0  0  0  0  0  0  0  0  0  0  0  0
    5.1970   -0.6045   -1.1804 C   0  0  0  0  0  0  0  0  0  0  0  0
    6.1582    0.4997   -1.5709 C   0  0  0  0  0  0  0  0  0  0  0  0
    6.3504    1.4944   -0.4592 C   0  0  0  0  0  0  0  0  0  0  0  0
    6.8980    0.9173    0.8083 C   0  0  0  0  0  0  0  0  0  0  0  0
    8.2157    0.3130    0.6066 C   0  0  0  0  0  0  0  0  0  0  0  0
    9.4196   -0.3213    0.7445 O   0  0  0  0  0  0  0  0  0  0  0  0
    8.9082    0.2405   -0.4610 O   0  0  0  0  0  0  0  0  0  0  0  0
   -1.2294   -1.4934   -1.4154 H   0  0  0  0  0  0  0  0  0  0  0  0
    0.4266   -2.7438   -0.1273 H   0  0  0  0  0  0  0  0  0  0  0  0
   -1.1408   -0.0231    1.2961 H   0  0  0  0  0  0  0  0  0  0  0  0
   -2.0212    0.5623   -0.1294 H   0  0  0  0  0  0  0  0  0  0  0  0
   -2.5003   -2.0104    1.3575 H   0  0  0  0  0  0  0  0  0  0  0  0
   -4.8083   -1.7341    0.9909 H   0  0  0  0  0  0  0  0  0  0  0  0
   -3.9990    0.8945   -0.5033 H   0  0  0  0  0  0  0  0  0  0  0  0
   -5.2288   -0.2099   -1.1088 H   0  0  0  0  0  0  0  0  0  0  0  0
   -6.1094    1.7479    0.1131 H   0  0  0  0  0  0  0  0  0  0  0  0
   -5.0755    1.3233    1.5521 H   0  0  0  0  0  0  0  0  0  0  0  0
   -6.3892   -0.7839    1.8449 H   0  0  0  0  0  0  0  0  0  0  0  0
   -7.4818    0.6700    1.8371 H   0  0  0  0  0  0  0  0  0  0  0  0
   -6.9739   -1.1176   -0.6297 H   0  0  0  0  0  0  0  0  0  0  0  0
   -8.4005   -1.1472    0.4216 H   0  0  0  0  0  0  0  0  0  0  0  0
   -9.1958    0.5326   -1.0347 H   0  0  0  0  0  0  0  0  0  0  0  0
   -7.4960    0.9185   -1.5960 H   0  0  0  0  0  0  0  0  0  0  0  0
   -8.1392    1.6098   -0.0783 H   0  0  0  0  0  0  0  0  0  0  0  0
    0.3289    0.3177   -1.6829 H   0  0  0  0  0  0  0  0  0  0  0  0
    1.6089   -0.8879    0.7452 H   0  0  0  0  0  0  0  0  0  0  0  0
    2.3175    1.1624   -1.4910 H   0  0  0  0  0  0  0  0  0  0  0  0
    2.7986    1.3591    0.2853 H   0  0  0  0  0  0  0  0  0  0  0  0
    5.1012   -1.3445   -1.9982 H   0  0  0  0  0  0  0  0  0  0  0  0
    5.5653   -1.1562   -0.2952 H   0  0  0  0  0  0  0  0  0  0  0  0
    5.7656    1.0880   -2.4362 H   0  0  0  0  0  0  0  0  0  0  0  0
    7.1117    0.0773   -1.9133 H   0  0  0  0  0  0  0  0  0  0  0  0
    7.1195    2.2235   -0.8461 H   0  0  0  0  0  0  0  0  0  0  0  0
    5.4159    2.0536   -0.2936 H   0  0  0  0  0  0  0  0  0  0  0  0
    6.1700    0.2026    1.2571 H   0  0  0  0  0  0  0  0  0  0  0  0
    6.9744    1.7509    1.5357 H   0  0  0  0  0  0  0  0  0  0  0  0
    9.6885   -0.6731    1.6747 H   0  0  0  0  0  0  0  0  0  0  0  0
  1  2  1  0
  1  3  1  0
  3  4  1  0
  4  5  2  0
  5  6  1  0
  6  7  1  0
  7  8  1  0
  8  9  1  0
  9 10  1  0
  1 11  1  0
 11 12  2  0
 12 13  1  0
 13 14  1  0
 14 15  2  0
 14 16  1  0
 16 17  1  0
 17 18  1  0
 18 19  1  0
 19 20  1  0
 20 21  1  0
 20 22  2  0
  1 23  1  6
  2 24  1  0
  3 25  1  0
  3 26  1  0
  4 27  1  0
  5 28  1  0
  6 29  1  0
  6 30  1  0
  7 31  1  0
  7 32  1  0
  8 33  1  0
  8 34  1  0
  9 35  1  0
  9 36  1  0
 10 37  1  0
 10 38  1  0
 10 39  1  0
 11 40  1  0
 12 41  1  0
 13 42  1  0
 13 43  1  0
 16 44  1  0
 16 45  1  0
 17 46  1  0
 17 47  1  0
 18 48  1  0
 18 49  1  0
 19 50  1  0
 19 51  1  0
 21 52  1  0
M  END
$$$$
