
     RDKit          3D

 62 64  0  0  0  0  0  0  0  0999 V2000
    4.5707   -1.1974   -0.1855 O   0  0  0  0  0  0  0  0  0  0  0  0
    4.0628   -1.0370    0.9461 C   0  0  0  0  0  0  0  0  0  0  0  0
    4.9067   -0.8614    2.0992 C   0  0  0  0  0  0  0  0  0  0  0  0
    6.3547   -0.7712    1.9809 C   0  0  0  0  0  0  0  0  0  0  0  0
    6.8433    0.3614    1.1677 C   0  0  0  0  0  0  0  0  0  0  0  0
    7.1822    0.2516   -0.1534 C   0  0  0  0  0  0  0  0  0  0  0  0
    7.6168    1.3783   -0.8650 C   0  0  0  0  0  0  0  0  0  0  0  0
    7.7212    2.6201   -0.2802 C   0  0  0  0  0  0  0  0  0  0  0  0
    7.3803    2.7191    1.0433 C   0  0  0  0  0  0  0  0  0  0  0  0
    6.9541    1.6303    1.7521 C   0  0  0  0  0  0  0  0  0  0  0  0
    2.6509   -1.0363    1.0320 N   0  0  0  0  0  0  0  0  0  0  0  0
    1.7389   -1.2021   -0.0586 C   0  0  0  0  0  0  0  0  0  0  0  0
    1.9177   -0.1320   -1.0860 C   0  0  0  0  0  0  0  0  0  0  0  0
    0.9774   -0.2422   -2.2411 C   0  0  0  0  0  0  0  0  0  0  0  0
   -0.4758   -0.1553   -1.9018 C   0  0  2  0  0  0  0  0  0  0  0  0
   -1.2078   -0.2910   -3.1445 N   0  0  0  0  0  0  0  0  0  0  0  0
   -2.3985   -1.5282   -3.1194 S   0  0  0  0  0  6  0  0  0  0  0  0
   -3.0447   -1.5661   -4.4751 O   0  0  0  0  0  0  0  0  0  0  0  0
   -1.8148   -2.8865   -2.8681 O   0  0  0  0  0  0  0  0  0  0  0  0
   -3.5495   -1.1133   -1.8946 C   0  0  0  0  0  0  0  0  0  0  0  0
   -4.6052   -0.2953   -2.1990 C   0  0  0  0  0  0  0  0  0  0  0  0
   -5.5494    0.0580   -1.2316 C   0  0  0  0  0  0  0  0  0  0  0  0
   -5.3953   -0.4353    0.0397 C   0  0  0  0  0  0  0  0  0  0  0  0
   -6.3757   -0.0682    1.0490 C   0  0  0  0  0  0  0  0  0  0  0  0
   -7.6877    0.1512    0.6582 C   0  0  0  0  0  0  0  0  0  0  0  0
   -8.6482    0.5023    1.5749 C   0  0  0  0  0  0  0  0  0  0  0  0
   -8.3248    0.6439    2.9082 C   0  0  0  0  0  0  0  0  0  0  0  0
   -9.6589    1.1327    4.1851 Br  0  0  0  0  0  0  0  0  0  0  0  0
   -7.0026    0.4227    3.3021 C   0  0  0  0  0  0  0  0  0  0  0  0
   -6.0498    0.0721    2.3769 C   0  0  0  0  0  0  0  0  0  0  0  0
   -4.3440   -1.2615    0.3807 C   0  0  0  0  0  0  0  0  0  0  0  0
   -3.4172   -1.5925   -0.6213 C   0  0  0  0  0  0  0  0  0  0  0  0
   -0.7326    1.1631   -1.2653 C   0  0  0  0  0  0  0  0  0  0  0  0
   -0.2272    1.4952   -0.1704 O   0  0  0  0  0  0  0  0  0  0  0  0
   -1.5639    2.0777   -1.8955 O   0  0  0  0  0  0  0  0  0  0  0  0
    4.5438    0.0808    2.6231 H   0  0  0  0  0  0  0  0  0  0  0  0
    4.6026   -1.6596    2.8501 H   0  0  0  0  0  0  0  0  0  0  0  0
    6.8841   -1.6936    1.6669 H   0  0  0  0  0  0  0  0  0  0  0  0
    6.7724   -0.5796    3.0173 H   0  0  0  0  0  0  0  0  0  0  0  0
    7.1383   -0.6929   -0.6723 H   0  0  0  0  0  0  0  0  0  0  0  0
    7.8810    1.2770   -1.9067 H   0  0  0  0  0  0  0  0  0  0  0  0
    8.0569    3.4934   -0.8287 H   0  0  0  0  0  0  0  0  0  0  0  0
    7.4683    3.7184    1.5006 H   0  0  0  0  0  0  0  0  0  0  0  0
    6.6867    1.7189    2.7951 H   0  0  0  0  0  0  0  0  0  0  0  0
    2.2810   -0.8960    2.0250 H   0  0  0  0  0  0  0  0  0  0  0  0
    1.8491   -2.2139   -0.5526 H   0  0  0  0  0  0  0  0  0  0  0  0
    0.6979   -1.2319    0.3550 H   0  0  0  0  0  0  0  0  0  0  0  0
    2.9470   -0.2820   -1.5312 H   0  0  0  0  0  0  0  0  0  0  0  0
    1.9423    0.8833   -0.6606 H   0  0  0  0  0  0  0  0  0  0  0  0
    1.1905    0.6393   -2.9147 H   0  0  0  0  0  0  0  0  0  0  0  0
    1.2246   -1.1245   -2.8697 H   0  0  0  0  0  0  0  0  0  0  0  0
   -0.8509   -0.9290   -1.2101 H   0  0  0  0  0  0  0  0  0  0  0  0
   -0.6037   -0.3123   -3.9734 H   0  0  0  0  0  0  0  0  0  0  0  0
   -4.7275    0.0939   -3.2007 H   0  0  0  0  0  0  0  0  0  0  0  0
   -6.3771    0.6963   -1.4575 H   0  0  0  0  0  0  0  0  0  0  0  0
   -7.9739    0.0481   -0.3751 H   0  0  0  0  0  0  0  0  0  0  0  0
   -9.6561    0.6658    1.2425 H   0  0  0  0  0  0  0  0  0  0  0  0
   -6.7492    0.5336    4.3420 H   0  0  0  0  0  0  0  0  0  0  0  0
   -5.0260   -0.0964    2.6938 H   0  0  0  0  0  0  0  0  0  0  0  0
   -4.2658   -1.6236    1.3923 H   0  0  0  0  0  0  0  0  0  0  0  0
   -2.6210   -2.2426   -0.2959 H   0  0  0  0  0  0  0  0  0  0  0  0
   -2.1196    2.7220   -1.3500 H   0  0  0  0  0  0  0  0  0  0  0  0
  1  2  2  0
  2  3  1  0
  3  4  1  0
  4  5  1  0
  5  6  2  0
  6  7  1  0
  7  8  2  0
  8  9  1  0
  9 10  2  0
  2 11  1  0
 11 12  1  0
 12 13  1  0
 13 14  1  0
 14 15  1  0
 15 16  1  0
 16 17  1  0
 17 18  2  0
 17 19  2  0
 17 20  1  0
 20 21  2  0
 21 22  1  0
 22 23  2  0
 23 24  1  0
 24 25  2  0
 25 26  1  0
 26 27  2  0
 27 28  1  0
 27 29  1  0
 29 30  2  0
 23 31  1  0
 31 32  2  0
 15 33  1  0
 33 34  2  0
 33 35  1  0
 10  5  1  0
 32 20  1  0
 30 24  1  0
  3 36  1  0
  3 37  1  0
  4 38  1  0
  4 39  1  0
  6 40  1  0
  7 41  1  0
  8 42  1  0
  9 43  1  0
 10 44  1  0
 11 45  1  0
 12 46  1  0
 12 47  1  0
 13 48  1  0
 13 49  1  0
 14 50  1  0
 14 51  1  0
 15 52  1  1
 16 53  1  0
 21 54  1  0
 22 55  1  0
 25 56  1  0
 26 57  1  0
 29 58  1  0
 30 59  1  0
 31 60  1  0
 32 61  1  0
 35 62  1  0
M  END
$$$$
