
     RDKit          3D

 73 77  0  0  0  0  0  0  0  0999 V2000
   -9.1794   -2.0488   -3.2114 N   0  0  0  0  0  0  0  0  0  0  0  0
   -8.3124   -1.8263   -2.1058 C   0  0  0  0  0  0  0  0  0  0  0  0
   -7.9604   -2.8594   -1.4409 O   0  0  0  0  0  0  0  0  0  0  0  0
   -7.8232   -0.5110   -1.7107 C   0  0  0  0  0  0  0  0  0  0  0  0
   -7.0239   -0.4623   -0.6615 C   0  0  0  0  0  0  0  0  0  0  0  0
   -6.5516    0.8098   -0.2804 N   0  0  0  0  0  0  0  0  0  0  0  0
   -6.9393    1.9638   -1.0157 C   0  0  0  0  0  0  0  0  0  0  0  0
   -7.7298    1.9290   -2.0560 C   0  0  0  0  0  0  0  0  0  0  0  0
   -8.2791    0.6371   -2.5352 C   0  0  0  0  0  0  0  0  0  0  0  0
   -5.6684    0.9556    0.8612 C   0  0  2  0  0  0  0  0  0  0  0  0
   -4.4877    0.2348    0.7386 O   0  0  0  0  0  0  0  0  0  0  0  0
   -4.0857    0.0115    2.0546 C   0  0  2  0  0  0  0  0  0  0  0  0
   -2.9420   -0.9711    2.1309 C   0  0  0  0  0  0  0  0  0  0  0  0
   -1.8808   -0.4312    1.4063 O   0  0  0  0  0  0  0  0  0  0  0  0
   -0.5310   -1.4181    1.4014 P   0  0  2  0  0  5  0  0  0  0  0  0
   -1.0431   -3.0275    1.4736 O   0  0  0  0  0  0  0  0  0  0  0  0
    0.3809   -1.1279    2.5957 O   0  0  0  0  0  0  0  0  0  0  0  0
    0.3827   -1.0894    0.0171 O   0  0  0  0  0  0  0  0  0  0  0  0
    0.2646    0.5600   -0.3355 P   0  0  2  0  0  5  0  0  0  0  0  0
   -0.8465    1.3413    0.7010 O   0  0  0  0  0  0  0  0  0  0  0  0
   -0.2596    0.7662   -1.7522 O   0  0  0  0  0  0  0  0  0  0  0  0
    1.7806    1.3016   -0.2331 O   0  0  0  0  0  0  0  0  0  0  0  0
    2.7076    0.3437    0.1136 C   0  0  0  0  0  0  0  0  0  0  0  0
    4.0446    1.0039    0.2020 C   0  0  1  0  0  0  0  0  0  0  0  0
    5.0462    0.1026    0.5497 O   0  0  0  0  0  0  0  0  0  0  0  0
    6.2531    0.7142    0.2399 C   0  0  2  0  0  0  0  0  0  0  0  0
    6.0012    1.5782   -0.9704 C   0  0  2  0  0  0  0  0  0  0  0  0
    6.3806    2.8773   -0.6311 O   0  0  0  0  0  0  0  0  0  0  0  0
    4.5092    1.4669   -1.1562 C   0  0  2  0  0  0  0  0  0  0  0  0
    3.9246    2.6888   -1.5036 O   0  0  0  0  0  0  0  0  0  0  0  0
    7.1885   -0.3286   -0.1340 N   0  0  0  0  0  0  0  0  0  0  0  0
    7.0420   -1.6073   -0.5390 C   0  0  0  0  0  0  0  0  0  0  0  0
    8.2452   -2.1615   -0.7671 N   0  0  0  0  0  0  0  0  0  0  0  0
    9.2040   -1.2554   -0.5156 C   0  0  0  0  0  0  0  0  0  0  0  0
   10.5723   -1.3450   -0.6011 C   0  0  0  0  0  0  0  0  0  0  0  0
   11.2534   -2.5212   -1.0075 N   0  0  0  0  0  0  0  0  0  0  0  0
   11.2667   -0.2265   -0.2704 N   0  0  0  0  0  0  0  0  0  0  0  0
   10.6177    0.8926    0.1163 C   0  0  0  0  0  0  0  0  0  0  0  0
    9.2847    0.9771    0.1988 N   0  0  0  0  0  0  0  0  0  0  0  0
    8.5371   -0.1190   -0.1226 C   0  0  0  0  0  0  0  0  0  0  0  0
   -5.3732   -0.5866    2.6162 C   0  0  1  0  0  0  0  0  0  0  0  0
   -5.3401   -0.6871    3.9865 O   0  0  0  0  0  0  0  0  0  0  0  0
   -6.3618    0.4454    2.0996 C   0  0  1  0  0  0  0  0  0  0  0  0
   -6.3628    1.4808    3.0449 O   0  0  0  0  0  0  0  0  0  0  0  0
  -10.2167   -1.8231   -3.2027 H   0  0  0  0  0  0  0  0  0  0  0  0
   -9.1417   -2.4199   -4.1942 H   0  0  0  0  0  0  0  0  0  0  0  0
   -6.7451   -1.3560   -0.1204 H   0  0  0  0  0  0  0  0  0  0  0  0
   -6.5701    2.9454   -0.7154 H   0  0  0  0  0  0  0  0  0  0  0  0
   -8.0327    2.7857   -2.6219 H   0  0  0  0  0  0  0  0  0  0  0  0
   -8.0209    0.4806   -3.6150 H   0  0  0  0  0  0  0  0  0  0  0  0
   -9.3999    0.7137   -2.4530 H   0  0  0  0  0  0  0  0  0  0  0  0
   -5.3587    2.0192    0.9727 H   0  0  0  0  0  0  0  0  0  0  0  0
   -3.8363    0.9804    2.5010 H   0  0  0  0  0  0  0  0  0  0  0  0
   -3.2237   -1.9765    1.8247 H   0  0  0  0  0  0  0  0  0  0  0  0
   -2.6058   -1.0023    3.1967 H   0  0  0  0  0  0  0  0  0  0  0  0
   -0.3372   -3.5722    1.0671 H   0  0  0  0  0  0  0  0  0  0  0  0
   -0.5177    2.2255    1.0055 H   0  0  0  0  0  0  0  0  0  0  0  0
    2.4455    0.0122    1.1587 H   0  0  0  0  0  0  0  0  0  0  0  0
    2.6868   -0.5498   -0.5218 H   0  0  0  0  0  0  0  0  0  0  0  0
    3.9531    1.8577    0.9065 H   0  0  0  0  0  0  0  0  0  0  0  0
    6.6851    1.2648    1.0922 H   0  0  0  0  0  0  0  0  0  0  0  0
    6.5613    1.2085   -1.8544 H   0  0  0  0  0  0  0  0  0  0  0  0
    6.5316    2.9867    0.3497 H   0  0  0  0  0  0  0  0  0  0  0  0
    4.2707    0.6735   -1.9029 H   0  0  0  0  0  0  0  0  0  0  0  0
    4.3930    3.0028   -2.3326 H   0  0  0  0  0  0  0  0  0  0  0  0
    6.0307   -2.0092   -0.6262 H   0  0  0  0  0  0  0  0  0  0  0  0
   11.1600   -2.5053   -2.0568 H   0  0  0  0  0  0  0  0  0  0  0  0
   11.5459   -2.8803   -0.0716 H   0  0  0  0  0  0  0  0  0  0  0  0
   11.2651    1.7198    0.3553 H   0  0  0  0  0  0  0  0  0  0  0  0
   -5.5124   -1.5475    2.0833 H   0  0  0  0  0  0  0  0  0  0  0  0
   -4.5012   -1.1630    4.2197 H   0  0  0  0  0  0  0  0  0  0  0  0
   -7.3711    0.0417    1.9248 H   0  0  0  0  0  0  0  0  0  0  0  0
   -6.0437    2.3452    2.6401 H   0  0  0  0  0  0  0  0  0  0  0  0
  1  2  1  0
  2  3  2  0
  2  4  1  0
  4  5  2  0
  5  6  1  0
  6  7  1  0
  7  8  2  0
  8  9  1  0
  6 10  1  0
 10 11  1  0
 11 12  1  0
 12 13  1  0
 13 14  1  0
 15 14  1  1
 15 16  1  0
 15 17  2  0
 15 18  1  0
 19 18  1  1
 19 20  1  0
 19 21  2  0
 19 22  1  0
 22 23  1  0
 23 24  1  0
 24 25  1  0
 25 26  1  0
 26 27  1  0
 27 28  1  0
 27 29  1  0
 29 30  1  0
 26 31  1  0
 31 32  1  0
 32 33  2  0
 33 34  1  0
 34 35  2  0
 35 36  1  0
 35 37  1  0
 37 38  2  0
 38 39  1  0
 39 40  2  0
 12 41  1  0
 41 42  1  0
 41 43  1  0
 43 44  1  0
  9  4  1  0
 43 10  1  0
 29 24  1  0
 40 31  1  0
 40 34  1  0
  1 45  1  0
  1 46  1  0
  5 47  1  0
  7 48  1  0
  8 49  1  0
  9 50  1  0
  9 51  1  0
 10 52  1  1
 12 53  1  1
 13 54  1  0
 13 55  1  0
 16 56  1  0
 20 57  1  0
 23 58  1  0
 23 59  1  0
 24 60  1  1
 26 61  1  1
 27 62  1  6
 28 63  1  0
 29 64  1  6
 30 65  1  0
 32 66  1  0
 36 67  1  0
 36 68  1  0
 38 69  1  0
 41 70  1  6
 42 71  1  0
 43 72  1  6
 44 73  1  0
M  END
$$$$
