
     RDKit          3D

 58 60  0  0  0  0  0  0  0  0999 V2000
   -4.9311   -3.1121   -1.0370 C   0  0  0  0  0  0  0  0  0  0  0  0
   -4.2696   -2.7056    0.2453 C   0  0  0  0  0  0  0  0  0  0  0  0
   -3.2453   -3.2935    0.6246 O   0  0  0  0  0  0  0  0  0  0  0  0
   -4.8258   -1.6502    1.0106 N   0  0  0  0  0  0  0  0  0  0  0  0
   -4.2735   -1.1765    2.2561 C   0  0  0  0  0  0  0  0  0  0  0  0
   -2.8613   -0.6526    2.1147 C   0  0  0  0  0  0  0  0  0  0  0  0
   -2.8339    0.4686    1.1667 N   0  0  0  0  0  0  0  0  0  0  0  0
   -1.6259    1.1367    0.8567 C   0  0  0  0  0  0  0  0  0  0  0  0
   -0.6082    0.7128    1.4329 O   0  0  0  0  0  0  0  0  0  0  0  0
   -1.5160    2.2520   -0.0687 C   0  0  0  0  0  0  0  0  0  0  0  0
   -2.6999    2.8637   -0.5229 C   0  0  0  0  0  0  0  0  0  0  0  0
   -2.6838    3.9325   -1.3289 N   0  0  0  0  0  0  0  0  0  0  0  0
   -1.5260    4.4808   -1.7490 C   0  0  0  0  0  0  0  0  0  0  0  0
   -0.3444    3.9411   -1.3503 C   0  0  0  0  0  0  0  0  0  0  0  0
   -0.3436    2.7980   -0.4899 C   0  0  0  0  0  0  0  0  0  0  0  0
    0.9134    2.3126   -0.1615 N   0  0  0  0  0  0  0  0  0  0  0  0
    1.5954    1.1067   -0.3230 C   0  0  0  0  0  0  0  0  0  0  0  0
    2.2133    0.4404    0.7345 C   0  0  0  0  0  0  0  0  0  0  0  0
    2.8917   -0.7186    0.5997 C   0  0  0  0  0  0  0  0  0  0  0  0
    3.5459   -1.4443    1.6596 C   0  0  0  0  0  0  0  0  0  0  0  0
    3.5181   -0.9716    2.9454 C   0  0  0  0  0  0  0  0  0  0  0  0
    4.1491   -1.6646    3.9907 C   0  0  0  0  0  0  0  0  0  0  0  0
    4.0813   -1.0131    5.6164 Cl  0  0  0  0  0  0  0  0  0  0  0  0
    4.8163   -2.8453    3.7458 C   0  0  0  0  0  0  0  0  0  0  0  0
    4.8442   -3.3197    2.4555 C   0  0  0  0  0  0  0  0  0  0  0  0
    4.2200   -2.6277    1.4409 C   0  0  0  0  0  0  0  0  0  0  0  0
    4.2427   -3.0934    0.1509 F   0  0  0  0  0  0  0  0  0  0  0  0
    2.9670   -1.2528   -0.6448 N   0  0  0  0  0  0  0  0  0  0  0  0
    2.4163   -0.7001   -1.7086 C   0  0  0  0  0  0  0  0  0  0  0  0
    1.7139    0.5049   -1.5499 C   0  0  0  0  0  0  0  0  0  0  0  0
    1.0637    1.1235   -2.7295 C   0  0  0  0  0  0  0  0  0  0  0  0
    1.9452    2.2546   -3.2117 C   0  0  0  0  0  0  0  0  0  0  0  0
    1.0743    0.1047   -3.8705 C   0  0  0  0  0  0  0  0  0  0  0  0
   -6.0182   -3.1788   -0.8164 H   0  0  0  0  0  0  0  0  0  0  0  0
   -4.8156   -2.3351   -1.8081 H   0  0  0  0  0  0  0  0  0  0  0  0
   -4.5014   -4.0543   -1.3912 H   0  0  0  0  0  0  0  0  0  0  0  0
   -5.6850   -1.1982    0.6396 H   0  0  0  0  0  0  0  0  0  0  0  0
   -4.9125   -0.3527    2.6320 H   0  0  0  0  0  0  0  0  0  0  0  0
   -4.3159   -1.9895    3.0114 H   0  0  0  0  0  0  0  0  0  0  0  0
   -2.4429   -0.3878    3.0847 H   0  0  0  0  0  0  0  0  0  0  0  0
   -2.2609   -1.4623    1.6580 H   0  0  0  0  0  0  0  0  0  0  0  0
   -3.7109    0.7502    0.7347 H   0  0  0  0  0  0  0  0  0  0  0  0
   -3.6264    2.4406   -0.1945 H   0  0  0  0  0  0  0  0  0  0  0  0
   -1.5126    5.3522   -2.4051 H   0  0  0  0  0  0  0  0  0  0  0  0
    0.6136    4.3665   -1.6752 H   0  0  0  0  0  0  0  0  0  0  0  0
    1.5316    3.0671    0.3581 H   0  0  0  0  0  0  0  0  0  0  0  0
    2.1204    0.9110    1.6970 H   0  0  0  0  0  0  0  0  0  0  0  0
    3.0108   -0.0521    3.1970 H   0  0  0  0  0  0  0  0  0  0  0  0
    5.3037   -3.3757    4.5677 H   0  0  0  0  0  0  0  0  0  0  0  0
    5.3572   -4.2384    2.2348 H   0  0  0  0  0  0  0  0  0  0  0  0
    2.4897   -1.1468   -2.7083 H   0  0  0  0  0  0  0  0  0  0  0  0
    0.0542    1.4772   -2.5318 H   0  0  0  0  0  0  0  0  0  0  0  0
    2.8007    1.7727   -3.7690 H   0  0  0  0  0  0  0  0  0  0  0  0
    2.3346    2.8472   -2.3485 H   0  0  0  0  0  0  0  0  0  0  0  0
    1.4209    2.8764   -3.9614 H   0  0  0  0  0  0  0  0  0  0  0  0
    0.3620    0.5451   -4.6313 H   0  0  0  0  0  0  0  0  0  0  0  0
    2.0784    0.0480   -4.2791 H   0  0  0  0  0  0  0  0  0  0  0  0
    0.7013   -0.8744   -3.5963 H   0  0  0  0  0  0  0  0  0  0  0  0
  1  2  1  0
  2  3  2  0
  2  4  1  0
  4  5  1  0
  5  6  1  0
  6  7  1  0
  7  8  1  0
  8  9  2  0
  8 10  1  0
 10 11  2  0
 11 12  1  0
 12 13  2  0
 13 14  1  0
 14 15  2  0
 15 16  1  0
 16 17  1  0
 17 18  2  0
 18 19  1  0
 19 20  1  0
 20 21  2  0
 21 22  1  0
 22 23  1  0
 22 24  2  0
 24 25  1  0
 25 26  2  0
 26 27  1  0
 19 28  2  0
 28 29  1  0
 29 30  2  0
 30 31  1  0
 31 32  1  0
 31 33  1  0
 15 10  1  0
 30 17  1  0
 26 20  1  0
  1 34  1  0
  1 35  1  0
  1 36  1  0
  4 37  1  0
  5 38  1  0
  5 39  1  0
  6 40  1  0
  6 41  1  0
  7 42  1  0
 11 43  1  0
 13 44  1  0
 14 45  1  0
 16 46  1  0
 18 47  1  0
 21 48  1  0
 24 49  1  0
 25 50  1  0
 29 51  1  0
 31 52  1  0
 32 53  1  0
 32 54  1  0
 32 55  1  0
 33 56  1  0
 33 57  1  0
 33 58  1  0
M  END
$$$$
