
     RDKit          3D

 54 55  0  0  0  0  0  0  0  0999 V2000
   -0.3585    1.7293    3.5530 C   0  0  0  0  0  0  0  0  0  0  0  0
   -0.8423    0.6996    2.7102 O   0  0  0  0  0  0  0  0  0  0  0  0
    0.1011   -0.1272    2.1139 C   0  0  0  0  0  0  0  0  0  0  0  0
    1.4696    0.0066    2.3020 C   0  0  0  0  0  0  0  0  0  0  0  0
    2.3851   -0.8233    1.7014 C   0  0  0  0  0  0  0  0  0  0  0  0
    3.8076   -0.6295    1.9277 C   0  0  0  0  0  0  0  0  0  0  0  0
    4.5442    0.1121    0.8790 C   0  0  0  0  0  0  0  0  0  0  0  0
    5.3477   -0.5650   -0.0317 C   0  0  0  0  0  0  0  0  0  0  0  0
    6.0127    0.1079   -0.9850 N   0  0  0  0  0  0  0  0  0  0  0  0
    5.9539    1.4422   -1.1260 C   0  0  0  0  0  0  0  0  0  0  0  0
    6.6825    2.1220   -2.1607 N   0  0  0  0  0  0  0  0  0  0  0  0
    5.1838    2.1143   -0.2566 N   0  0  0  0  0  0  0  0  0  0  0  0
    4.4867    1.4745    0.7319 C   0  0  0  0  0  0  0  0  0  0  0  0
    3.6916    2.2434    1.6243 N   0  0  0  0  0  0  0  0  0  0  0  0
    1.9721   -1.8428    0.8717 C   0  0  0  0  0  0  0  0  0  0  0  0
    0.6142   -1.9835    0.6789 C   0  0  0  0  0  0  0  0  0  0  0  0
    0.1918   -3.0226   -0.1669 O   0  0  0  0  0  0  0  0  0  0  0  0
    1.0957   -3.8895   -0.7968 C   0  0  0  0  0  0  0  0  0  0  0  0
   -0.3025   -1.1494    1.2824 C   0  0  0  0  0  0  0  0  0  0  0  0
   -1.6694   -1.3263    1.0601 O   0  0  0  0  0  0  0  0  0  0  0  0
   -2.2567   -0.6371   -0.0249 C   0  0  0  0  0  0  0  0  0  0  0  0
   -3.7368   -0.9260   -0.1380 C   0  0  0  0  0  0  0  0  0  0  0  0
   -4.2329   -0.1239   -1.3394 C   0  0  0  0  0  0  0  0  0  0  0  0
   -5.6951   -0.3551   -1.5187 C   0  0  0  0  0  0  0  0  0  0  0  0
   -6.2592    0.3988   -2.6846 C   0  0  0  0  0  0  0  0  0  0  0  0
   -6.1495    1.8498   -2.5709 C   0  0  0  0  0  0  0  0  0  0  0  0
   -5.6862    2.3987   -1.5405 O   0  0  0  0  0  0  0  0  0  0  0  0
   -6.5743    2.6636   -3.6459 O   0  0  0  0  0  0  0  0  0  0  0  0
   -1.2043    2.2224    4.0873 H   0  0  0  0  0  0  0  0  0  0  0  0
    0.1580    2.5359    2.9976 H   0  0  0  0  0  0  0  0  0  0  0  0
    0.3363    1.3656    4.3292 H   0  0  0  0  0  0  0  0  0  0  0  0
    1.7521    0.8194    2.9694 H   0  0  0  0  0  0  0  0  0  0  0  0
    4.0200   -0.0793    2.8925 H   0  0  0  0  0  0  0  0  0  0  0  0
    4.2804   -1.6361    2.0976 H   0  0  0  0  0  0  0  0  0  0  0  0
    5.3968   -1.6392    0.0800 H   0  0  0  0  0  0  0  0  0  0  0  0
    7.3738    2.8810   -1.9547 H   0  0  0  0  0  0  0  0  0  0  0  0
    6.4881    1.8206   -3.1404 H   0  0  0  0  0  0  0  0  0  0  0  0
    2.9323    2.8412    1.2243 H   0  0  0  0  0  0  0  0  0  0  0  0
    3.8296    2.2399    2.6596 H   0  0  0  0  0  0  0  0  0  0  0  0
    2.6785   -2.5194    0.3798 H   0  0  0  0  0  0  0  0  0  0  0  0
    0.5366   -4.4652   -1.5611 H   0  0  0  0  0  0  0  0  0  0  0  0
    1.5676   -4.6182   -0.0921 H   0  0  0  0  0  0  0  0  0  0  0  0
    1.8779   -3.3091   -1.3283 H   0  0  0  0  0  0  0  0  0  0  0  0
   -1.7988   -0.8940   -0.9948 H   0  0  0  0  0  0  0  0  0  0  0  0
   -2.1675    0.4548    0.2119 H   0  0  0  0  0  0  0  0  0  0  0  0
   -4.3095   -0.6752    0.7566 H   0  0  0  0  0  0  0  0  0  0  0  0
   -3.8209   -2.0161   -0.3869 H   0  0  0  0  0  0  0  0  0  0  0  0
   -3.6911   -0.4837   -2.2508 H   0  0  0  0  0  0  0  0  0  0  0  0
   -3.9975    0.9423   -1.2331 H   0  0  0  0  0  0  0  0  0  0  0  0
   -5.8080   -1.4505   -1.7591 H   0  0  0  0  0  0  0  0  0  0  0  0
   -6.2442   -0.1039   -0.5851 H   0  0  0  0  0  0  0  0  0  0  0  0
   -7.3635    0.1513   -2.7084 H   0  0  0  0  0  0  0  0  0  0  0  0
   -5.8914    0.0124   -3.6598 H   0  0  0  0  0  0  0  0  0  0  0  0
   -6.7086    3.6413   -3.4153 H   0  0  0  0  0  0  0  0  0  0  0  0
  1  2  1  0
  2  3  1  0
  3  4  2  0
  4  5  1  0
  5  6  1  0
  6  7  1  0
  7  8  2  0
  8  9  1  0
  9 10  2  0
 10 11  1  0
 10 12  1  0
 12 13  2  0
 13 14  1  0
  5 15  2  0
 15 16  1  0
 16 17  1  0
 17 18  1  0
 16 19  2  0
 19 20  1  0
 20 21  1  0
 21 22  1  0
 22 23  1  0
 23 24  1  0
 24 25  1  0
 25 26  1  0
 26 27  2  0
 26 28  1  0
 19  3  1  0
 13  7  1  0
  1 29  1  0
  1 30  1  0
  1 31  1  0
  4 32  1  0
  6 33  1  0
  6 34  1  0
  8 35  1  0
 11 36  1  0
 11 37  1  0
 14 38  1  0
 14 39  1  0
 15 40  1  0
 18 41  1  0
 18 42  1  0
 18 43  1  0
 21 44  1  0
 21 45  1  0
 22 46  1  0
 22 47  1  0
 23 48  1  0
 23 49  1  0
 24 50  1  0
 24 51  1  0
 25 52  1  0
 25 53  1  0
 28 54  1  0
M  END
$$$$
