
     RDKit          3D

 70 73  0  0  0  0  0  0  0  0999 V2000
    1.0336    2.6540   -0.3624 O   0  0  0  0  0  0  0  0  0  0  0  0
    1.3298    1.4166   -0.2736 C   0  0  0  0  0  0  0  0  0  0  0  0
    0.2598    0.5042   -0.3142 N   0  0  0  0  0  0  0  0  0  0  0  0
   -1.1257    0.9438   -0.4509 C   0  0  2  0  0  0  0  0  0  0  0  0
   -1.8770    0.5881    0.8045 C   0  0  0  0  0  0  0  0  0  0  0  0
   -2.4639   -0.5846    0.9776 C   0  0  0  0  0  0  0  0  0  0  0  0
   -3.3206   -0.9666    2.4301 S   0  0  0  0  0  6  0  0  0  0  0  0
   -2.5482   -0.5464    3.6619 O   0  0  0  0  0  0  0  0  0  0  0  0
   -4.6697   -0.2753    2.4516 O   0  0  0  0  0  0  0  0  0  0  0  0
   -3.6217   -2.6855    2.5754 C   0  0  0  0  0  0  0  0  0  0  0  0
   -4.7664   -3.2629    2.0609 C   0  0  0  0  0  0  0  0  0  0  0  0
   -5.0145   -4.6007    2.1678 C   0  0  0  0  0  0  0  0  0  0  0  0
   -4.1172   -5.4377    2.8033 C   0  0  0  0  0  0  0  0  0  0  0  0
   -2.9726   -4.8484    3.3156 C   0  0  0  0  0  0  0  0  0  0  0  0
   -2.7121   -3.5017    3.2138 C   0  0  0  0  0  0  0  0  0  0  0  0
   -1.7767    0.3806   -1.6661 C   0  0  0  0  0  0  0  0  0  0  0  0
   -3.1942    0.8664   -1.7782 C   0  0  0  0  0  0  0  0  0  0  0  0
   -3.3393    2.3234   -1.9020 C   0  0  0  0  0  0  0  0  0  0  0  0
   -3.5238    3.1335   -0.8160 C   0  0  0  0  0  0  0  0  0  0  0  0
   -3.6523    4.5215   -0.9606 C   0  0  0  0  0  0  0  0  0  0  0  0
   -3.5926    5.0814   -2.2148 C   0  0  0  0  0  0  0  0  0  0  0  0
   -3.4096    4.2883   -3.3063 C   0  0  0  0  0  0  0  0  0  0  0  0
   -3.2826    2.9044   -3.1484 C   0  0  0  0  0  0  0  0  0  0  0  0
    2.7519    1.0625   -0.1380 C   0  0  2  0  0  0  0  0  0  0  0  0
    3.6476    2.2835   -0.1362 C   0  0  0  0  0  0  0  0  0  0  0  0
    3.7640    2.9678   -1.4472 C   0  0  0  0  0  0  0  0  0  0  0  0
    3.4732    2.1504   -2.6416 C   0  0  0  0  0  0  0  0  0  0  0  0
    3.5782    0.6759   -2.4833 C   0  0  0  0  0  0  0  0  0  0  0  0
    3.2643    0.1150   -1.1583 C   0  0  1  0  0  0  0  0  0  0  0  0
    4.4523   -0.5833   -0.6011 C   0  0  0  0  0  0  0  0  0  0  0  0
    5.5729   -0.2826   -1.1481 O   0  0  0  0  0  0  0  0  0  0  0  0
    4.4523   -1.5394    0.4664 C   0  0  0  0  0  0  0  0  0  0  0  0
    5.6335   -2.0697    0.9282 C   0  0  0  0  0  0  0  0  0  0  0  0
    5.6822   -3.0064    1.9441 C   0  0  0  0  0  0  0  0  0  0  0  0
    4.5229   -3.4508    2.5422 C   0  0  0  0  0  0  0  0  0  0  0  0
    4.5716   -4.6491    3.8435 Cl  0  0  0  0  0  0  0  0  0  0  0  0
    3.3318   -2.9315    2.0931 C   0  0  0  0  0  0  0  0  0  0  0  0
    3.3003   -1.9858    1.0654 C   0  0  0  0  0  0  0  0  0  0  0  0
    0.4867   -0.5162   -0.2437 H   0  0  0  0  0  0  0  0  0  0  0  0
   -1.1295    2.0445   -0.5181 H   0  0  0  0  0  0  0  0  0  0  0  0
   -1.9460    1.3167    1.6086 H   0  0  0  0  0  0  0  0  0  0  0  0
   -2.3960   -1.3112    0.1802 H   0  0  0  0  0  0  0  0  0  0  0  0
   -5.4722   -2.5827    1.5580 H   0  0  0  0  0  0  0  0  0  0  0  0
   -5.9150   -5.0531    1.7625 H   0  0  0  0  0  0  0  0  0  0  0  0
   -4.2764   -6.5079    2.9103 H   0  0  0  0  0  0  0  0  0  0  0  0
   -2.2734   -5.5166    3.8147 H   0  0  0  0  0  0  0  0  0  0  0  0
   -1.8050   -3.0805    3.6279 H   0  0  0  0  0  0  0  0  0  0  0  0
   -1.1770    0.6871   -2.5616 H   0  0  0  0  0  0  0  0  0  0  0  0
   -1.8097   -0.7299   -1.6750 H   0  0  0  0  0  0  0  0  0  0  0  0
   -3.7941    0.5796   -0.8641 H   0  0  0  0  0  0  0  0  0  0  0  0
   -3.7322    0.3454   -2.6116 H   0  0  0  0  0  0  0  0  0  0  0  0
   -3.5863    2.7777    0.1832 H   0  0  0  0  0  0  0  0  0  0  0  0
   -3.7984    5.1579   -0.0907 H   0  0  0  0  0  0  0  0  0  0  0  0
   -3.6931    6.1587   -2.3253 H   0  0  0  0  0  0  0  0  0  0  0  0
   -3.3672    4.7555   -4.2711 H   0  0  0  0  0  0  0  0  0  0  0  0
   -3.1401    2.3416   -4.0620 H   0  0  0  0  0  0  0  0  0  0  0  0
    2.8883    0.6160    0.8646 H   0  0  0  0  0  0  0  0  0  0  0  0
    3.2497    2.9745    0.6488 H   0  0  0  0  0  0  0  0  0  0  0  0
    4.6409    1.9588    0.2117 H   0  0  0  0  0  0  0  0  0  0  0  0
    3.0960    3.8796   -1.4102 H   0  0  0  0  0  0  0  0  0  0  0  0
    4.8018    3.4140   -1.5006 H   0  0  0  0  0  0  0  0  0  0  0  0
    2.4467    2.4232   -3.0105 H   0  0  0  0  0  0  0  0  0  0  0  0
    4.1552    2.4760   -3.4686 H   0  0  0  0  0  0  0  0  0  0  0  0
    4.5967    0.3525   -2.8494 H   0  0  0  0  0  0  0  0  0  0  0  0
    2.8746    0.2177   -3.2336 H   0  0  0  0  0  0  0  0  0  0  0  0
    2.4818   -0.7096   -1.2285 H   0  0  0  0  0  0  0  0  0  0  0  0
    6.6083   -1.7814    0.5181 H   0  0  0  0  0  0  0  0  0  0  0  0
    6.6137   -3.4231    2.3071 H   0  0  0  0  0  0  0  0  0  0  0  0
    2.4117   -3.2692    2.5516 H   0  0  0  0  0  0  0  0  0  0  0  0
    2.3181   -1.6485    0.7792 H   0  0  0  0  0  0  0  0  0  0  0  0
  1  2  2  0
  2  3  1  0
  3  4  1  0
  4  5  1  0
  5  6  2  3
  6  7  1  0
  7  8  2  0
  7  9  2  0
  7 10  1  0
 10 11  2  0
 11 12  1  0
 12 13  2  0
 13 14  1  0
 14 15  2  0
  4 16  1  0
 16 17  1  0
 17 18  1  0
 18 19  2  0
 19 20  1  0
 20 21  2  0
 21 22  1  0
 22 23  2  0
  2 24  1  0
 24 25  1  0
 25 26  1  0
 26 27  1  0
 27 28  1  0
 28 29  1  0
 29 30  1  0
 30 31  2  0
 30 32  1  0
 32 33  2  0
 33 34  1  0
 34 35  2  0
 35 36  1  0
 35 37  1  0
 37 38  2  0
 15 10  1  0
 23 18  1  0
 29 24  1  0
 38 32  1  0
  3 39  1  0
  4 40  1  6
  5 41  1  0
  6 42  1  0
 11 43  1  0
 12 44  1  0
 13 45  1  0
 14 46  1  0
 15 47  1  0
 16 48  1  0
 16 49  1  0
 17 50  1  0
 17 51  1  0
 19 52  1  0
 20 53  1  0
 21 54  1  0
 22 55  1  0
 23 56  1  0
 24 57  1  1
 25 58  1  0
 25 59  1  0
 26 60  1  0
 26 61  1  0
 27 62  1  0
 27 63  1  0
 28 64  1  0
 28 65  1  0
 29 66  1  6
 33 67  1  0
 34 68  1  0
 37 69  1  0
 38 70  1  0
M  END
$$$$
