
     RDKit          3D

 69 72  0  0  0  0  0  0  0  0999 V2000
    8.5830    0.9277   -0.8885 C   0  0  0  0  0  0  0  0  0  0  0  0
    7.8839    1.0671    0.4652 C   0  0  0  0  0  0  0  0  0  0  0  0
    8.0723   -0.2494    1.1896 C   0  0  0  0  0  0  0  0  0  0  0  0
    7.4806   -1.2965    0.4538 N   0  0  0  0  0  0  0  0  0  0  0  0
    6.1046   -1.3678    0.4395 N   0  0  0  0  0  0  0  0  0  0  0  0
    5.1827   -0.7125    1.2624 C   0  0  0  0  0  0  0  0  0  0  0  0
    5.5814    0.0493    2.1710 O   0  0  0  0  0  0  0  0  0  0  0  0
    3.7461   -0.8849    1.1024 C   0  0  0  0  0  0  0  0  0  0  0  0
    3.1561   -1.5327    0.0466 C   0  0  0  0  0  0  0  0  0  0  0  0
    1.7667   -1.6810   -0.0276 C   0  0  0  0  0  0  0  0  0  0  0  0
    0.9434   -1.1949    0.9355 C   0  0  0  0  0  0  0  0  0  0  0  0
   -0.4742   -1.3386    0.9063 N   0  0  0  0  0  0  0  0  0  0  0  0
   -1.2530   -0.3283    0.2650 C   0  0  0  0  0  0  0  0  0  0  0  0
   -0.6023    0.6371   -0.2722 O   0  0  0  0  0  0  0  0  0  0  0  0
   -2.7138   -0.3872    0.2348 C   0  0  2  0  0  0  0  0  0  0  0  0
   -3.3751   -1.4136   -0.6054 C   0  0  0  0  0  0  0  0  0  0  0  0
   -3.0842   -2.8228   -0.3427 C   0  0  0  0  0  0  0  0  0  0  0  0
   -3.8160   -3.6385    0.5129 C   0  0  0  0  0  0  0  0  0  0  0  0
   -3.2471   -4.8420    0.5358 N   0  0  0  0  0  0  0  0  0  0  0  0
   -2.1602   -4.8901   -0.2656 C   0  0  0  0  0  0  0  0  0  0  0  0
   -1.2673   -5.8559   -0.6039 C   0  0  0  0  0  0  0  0  0  0  0  0
   -0.2665   -5.5387   -1.5068 C   0  0  0  0  0  0  0  0  0  0  0  0
   -0.1676   -4.2956   -2.0491 C   0  0  0  0  0  0  0  0  0  0  0  0
   -1.0717   -3.2875   -1.7173 C   0  0  0  0  0  0  0  0  0  0  0  0
   -2.0644   -3.6068   -0.8199 C   0  0  0  0  0  0  0  0  0  0  0  0
   -3.2181    0.9082   -0.2911 N   0  0  0  0  0  0  0  0  0  0  0  0
   -3.9583    1.7907    0.4936 C   0  0  0  0  0  0  0  0  0  0  0  0
   -4.1799    1.4193    1.6991 O   0  0  0  0  0  0  0  0  0  0  0  0
   -4.4819    3.0713    0.0470 C   0  0  0  0  0  0  0  0  0  0  0  0
   -5.1542    3.8935    0.9067 C   0  0  0  0  0  0  0  0  0  0  0  0
   -5.6762    5.1185    0.5467 C   0  0  0  0  0  0  0  0  0  0  0  0
   -5.5275    5.5636   -0.7437 C   0  0  0  0  0  0  0  0  0  0  0  0
   -6.0310    6.7815   -1.1462 O   0  0  0  0  0  0  0  0  0  0  0  0
   -6.7058    7.5869   -0.2057 C   0  0  0  0  0  0  0  0  0  0  0  0
   -4.8416    4.7342   -1.6413 C   0  0  0  0  0  0  0  0  0  0  0  0
   -4.3214    3.5073   -1.2709 C   0  0  0  0  0  0  0  0  0  0  0  0
    1.5095   -0.5309    2.0185 C   0  0  0  0  0  0  0  0  0  0  0  0
    2.8692   -0.3962    2.0722 C   0  0  0  0  0  0  0  0  0  0  0  0
    9.5653    1.4868   -0.8602 H   0  0  0  0  0  0  0  0  0  0  0  0
    7.9185    1.2623   -1.6859 H   0  0  0  0  0  0  0  0  0  0  0  0
    8.8463   -0.1293   -1.0928 H   0  0  0  0  0  0  0  0  0  0  0  0
    8.3821    1.8404    1.0820 H   0  0  0  0  0  0  0  0  0  0  0  0
    6.8607    1.3799    0.3009 H   0  0  0  0  0  0  0  0  0  0  0  0
    7.8355   -0.2012    2.2691 H   0  0  0  0  0  0  0  0  0  0  0  0
    9.2004   -0.4139    1.1840 H   0  0  0  0  0  0  0  0  0  0  0  0
    7.9115   -2.2395    0.6874 H   0  0  0  0  0  0  0  0  0  0  0  0
    5.7113   -2.0194   -0.3066 H   0  0  0  0  0  0  0  0  0  0  0  0
    3.7839   -1.9380   -0.7551 H   0  0  0  0  0  0  0  0  0  0  0  0
    1.3985   -2.2022   -0.8970 H   0  0  0  0  0  0  0  0  0  0  0  0
   -0.9282   -2.1497    1.3460 H   0  0  0  0  0  0  0  0  0  0  0  0
   -3.0606   -0.5110    1.2849 H   0  0  0  0  0  0  0  0  0  0  0  0
   -4.5024   -1.3218   -0.5679 H   0  0  0  0  0  0  0  0  0  0  0  0
   -3.1670   -1.2238   -1.7084 H   0  0  0  0  0  0  0  0  0  0  0  0
   -4.7032   -3.2921    1.0475 H   0  0  0  0  0  0  0  0  0  0  0  0
   -3.5844   -5.6710    1.1078 H   0  0  0  0  0  0  0  0  0  0  0  0
   -1.3414   -6.8571   -0.1718 H   0  0  0  0  0  0  0  0  0  0  0  0
    0.4459   -6.3186   -1.7780 H   0  0  0  0  0  0  0  0  0  0  0  0
    0.6474   -4.1144   -2.7551 H   0  0  0  0  0  0  0  0  0  0  0  0
   -1.0090   -2.3067   -2.1329 H   0  0  0  0  0  0  0  0  0  0  0  0
   -2.9917    1.1362   -1.2758 H   0  0  0  0  0  0  0  0  0  0  0  0
   -5.2989    3.5853    1.9440 H   0  0  0  0  0  0  0  0  0  0  0  0
   -6.2057    5.7560    1.2417 H   0  0  0  0  0  0  0  0  0  0  0  0
   -6.0730    7.7454    0.7142 H   0  0  0  0  0  0  0  0  0  0  0  0
   -7.6945    7.1949    0.0145 H   0  0  0  0  0  0  0  0  0  0  0  0
   -6.8205    8.6151   -0.6606 H   0  0  0  0  0  0  0  0  0  0  0  0
   -4.7231    5.0799   -2.6618 H   0  0  0  0  0  0  0  0  0  0  0  0
   -3.7986    2.8658   -1.9426 H   0  0  0  0  0  0  0  0  0  0  0  0
    0.8478   -0.1317    2.7986 H   0  0  0  0  0  0  0  0  0  0  0  0
    3.3268    0.1295    2.9245 H   0  0  0  0  0  0  0  0  0  0  0  0
  1  2  1  0
  2  3  1  0
  3  4  1  0
  4  5  1  0
  5  6  1  0
  6  7  2  0
  6  8  1  0
  8  9  2  0
  9 10  1  0
 10 11  2  0
 11 12  1  0
 12 13  1  0
 13 14  2  0
 13 15  1  0
 15 16  1  0
 16 17  1  0
 17 18  2  0
 18 19  1  0
 19 20  1  0
 20 21  2  0
 21 22  1  0
 22 23  2  0
 23 24  1  0
 24 25  2  0
 15 26  1  0
 26 27  1  0
 27 28  2  0
 27 29  1  0
 29 30  2  0
 30 31  1  0
 31 32  2  0
 32 33  1  0
 33 34  1  0
 32 35  1  0
 35 36  2  0
 11 37  1  0
 37 38  2  0
 38  8  1  0
 25 17  1  0
 36 29  1  0
 25 20  1  0
  1 39  1  0
  1 40  1  0
  1 41  1  0
  2 42  1  0
  2 43  1  0
  3 44  1  0
  3 45  1  0
  4 46  1  0
  5 47  1  0
  9 48  1  0
 10 49  1  0
 12 50  1  0
 15 51  1  1
 16 52  1  0
 16 53  1  0
 18 54  1  0
 19 55  1  0
 21 56  1  0
 22 57  1  0
 23 58  1  0
 24 59  1  0
 26 60  1  0
 30 61  1  0
 31 62  1  0
 34 63  1  0
 34 64  1  0
 34 65  1  0
 35 66  1  0
 36 67  1  0
 37 68  1  0
 38 69  1  0
M  END
$$$$
