
     RDKit          3D

 49 52  0  0  0  0  0  0  0  0999 V2000
   -4.2307    3.8246    0.3704 C   0  0  0  0  0  0  0  0  0  0  0  0
   -4.9053    2.7672    1.1662 C   0  0  0  0  0  0  0  0  0  0  0  0
   -6.0858    2.8644    1.8179 N   0  0  0  0  0  0  0  0  0  0  0  0
   -6.3758    1.7193    2.4223 N   0  0  0  0  0  0  0  0  0  0  0  0
   -5.3946    0.8149    2.1936 C   0  0  0  0  0  0  0  0  0  0  0  0
   -5.1995   -0.4982    2.5787 C   0  0  0  0  0  0  0  0  0  0  0  0
   -4.0615   -1.1674    2.1691 C   0  0  0  0  0  0  0  0  0  0  0  0
   -3.1316   -0.5270    1.3832 C   0  0  0  0  0  0  0  0  0  0  0  0
   -1.9419   -1.2909    0.9793 C   0  0  0  0  0  0  0  0  0  0  0  0
   -1.4458   -2.2520    1.8279 C   0  0  0  0  0  0  0  0  0  0  0  0
   -0.3606   -2.9188    1.4126 N   0  0  0  0  0  0  0  0  0  0  0  0
    0.2349   -2.6637    0.2020 C   0  0  0  0  0  0  0  0  0  0  0  0
   -0.2322   -1.7160   -0.6623 C   0  0  0  0  0  0  0  0  0  0  0  0
    0.3033   -1.4111   -1.8598 O   0  0  0  0  0  0  0  0  0  0  0  0
    1.3903   -1.8388   -2.5801 C   0  0  0  0  0  0  0  0  0  0  0  0
    2.6878   -1.5071   -1.8887 C   0  0  1  0  0  0  0  0  0  0  0  0
    3.8352   -1.9612   -2.6576 N   0  0  0  0  0  0  0  0  0  0  0  0
    2.7025    0.0024   -1.7281 C   0  0  0  0  0  0  0  0  0  0  0  0
    3.9381    0.4708   -1.0545 C   0  0  0  0  0  0  0  0  0  0  0  0
    5.0775    0.8086   -1.7536 C   0  0  0  0  0  0  0  0  0  0  0  0
    6.2292    1.2445   -1.1338 C   0  0  0  0  0  0  0  0  0  0  0  0
    6.2885    1.3624    0.2392 C   0  0  0  0  0  0  0  0  0  0  0  0
    5.1597    1.0295    0.9573 C   0  0  0  0  0  0  0  0  0  0  0  0
    4.0027    0.5915    0.3326 C   0  0  0  0  0  0  0  0  0  0  0  0
   -1.3659   -1.0143   -0.2378 C   0  0  0  0  0  0  0  0  0  0  0  0
   -3.3458    0.7716    1.0147 C   0  0  0  0  0  0  0  0  0  0  0  0
   -4.4845    1.4783    1.4106 C   0  0  0  0  0  0  0  0  0  0  0  0
   -4.5019    4.8422    0.7161 H   0  0  0  0  0  0  0  0  0  0  0  0
   -3.1088    3.7584    0.4658 H   0  0  0  0  0  0  0  0  0  0  0  0
   -4.4467    3.6644   -0.7080 H   0  0  0  0  0  0  0  0  0  0  0  0
   -7.2282    1.5139    2.9977 H   0  0  0  0  0  0  0  0  0  0  0  0
   -5.9170   -1.0174    3.1947 H   0  0  0  0  0  0  0  0  0  0  0  0
   -3.9459   -2.1956    2.4921 H   0  0  0  0  0  0  0  0  0  0  0  0
   -1.9384   -2.4270    2.7719 H   0  0  0  0  0  0  0  0  0  0  0  0
    1.0945   -3.2650   -0.0655 H   0  0  0  0  0  0  0  0  0  0  0  0
    1.3381   -2.9416   -2.8068 H   0  0  0  0  0  0  0  0  0  0  0  0
    1.4179   -1.3051   -3.5861 H   0  0  0  0  0  0  0  0  0  0  0  0
    2.7283   -2.0029   -0.9181 H   0  0  0  0  0  0  0  0  0  0  0  0
    3.8613   -3.0006   -2.5925 H   0  0  0  0  0  0  0  0  0  0  0  0
    3.7290   -1.7460   -3.6828 H   0  0  0  0  0  0  0  0  0  0  0  0
    2.5443    0.4836   -2.7172 H   0  0  0  0  0  0  0  0  0  0  0  0
    1.7934    0.2542   -1.1271 H   0  0  0  0  0  0  0  0  0  0  0  0
    5.0168    0.7108   -2.8405 H   0  0  0  0  0  0  0  0  0  0  0  0
    7.1169    1.5065   -1.6960 H   0  0  0  0  0  0  0  0  0  0  0  0
    7.1906    1.7048    0.7386 H   0  0  0  0  0  0  0  0  0  0  0  0
    5.2272    1.1292    2.0353 H   0  0  0  0  0  0  0  0  0  0  0  0
    3.1137    0.3306    0.9158 H   0  0  0  0  0  0  0  0  0  0  0  0
   -1.7647   -0.2518   -0.9042 H   0  0  0  0  0  0  0  0  0  0  0  0
   -2.6090    1.2709    0.3953 H   0  0  0  0  0  0  0  0  0  0  0  0
  1  2  1  0
  2  3  2  0
  3  4  1  0
  4  5  1  0
  5  6  2  0
  6  7  1  0
  7  8  2  0
  8  9  1  0
  9 10  2  0
 10 11  1  0
 11 12  2  0
 12 13  1  0
 13 14  1  0
 14 15  1  0
 15 16  1  0
 16 17  1  0
 16 18  1  0
 18 19  1  0
 19 20  2  0
 20 21  1  0
 21 22  2  0
 22 23  1  0
 23 24  2  0
 13 25  2  0
  8 26  1  0
 26 27  2  0
 27  2  1  0
 27  5  1  0
 25  9  1  0
 24 19  1  0
  1 28  1  0
  1 29  1  0
  1 30  1  0
  4 31  1  0
  6 32  1  0
  7 33  1  0
 10 34  1  0
 12 35  1  0
 15 36  1  0
 15 37  1  0
 16 38  1  1
 17 39  1  0
 17 40  1  0
 18 41  1  0
 18 42  1  0
 20 43  1  0
 21 44  1  0
 22 45  1  0
 23 46  1  0
 24 47  1  0
 25 48  1  0
 26 49  1  0
M  END
$$$$
