
     RDKit          3D

 29 30  0  0  0  0  0  0  0  0999 V2000
   -2.5245   -0.8931    2.3524 O   0  0  0  0  0  0  0  0  0  0  0  0
   -2.7609    0.3752    1.8411 C   0  0  0  0  0  0  0  0  0  0  0  0
   -1.9665    0.5793    0.5770 C   0  0  1  0  0  0  0  0  0  0  0  0
   -0.6305    0.4356    0.9034 O   0  0  0  0  0  0  0  0  0  0  0  0
   -0.0327    0.4584   -0.3790 C   0  0  2  0  0  0  0  0  0  0  0  0
   -0.8355   -0.4610   -1.2019 C   0  0  2  0  0  0  0  0  0  0  0  0
   -1.1089    0.1306   -2.4305 O   0  0  0  0  0  0  0  0  0  0  0  0
   -2.1723   -0.4766   -0.4573 C   0  0  2  0  0  0  0  0  0  0  0  0
   -3.2386   -0.1243   -1.2547 O   0  0  0  0  0  0  0  0  0  0  0  0
    1.3445    0.1958   -0.1946 N   0  0  0  0  0  0  0  0  0  0  0  0
    1.9625    0.6730    0.9194 C   0  0  0  0  0  0  0  0  0  0  0  0
    3.3138    0.4417    1.1463 C   0  0  0  0  0  0  0  0  0  0  0  0
    4.0327   -0.2816    0.2265 C   0  0  0  0  0  0  0  0  0  0  0  0
    5.2519   -0.4654    0.4742 O   0  0  0  0  0  0  0  0  0  0  0  0
    3.4256   -0.7532   -0.8727 N   0  0  0  0  0  0  0  0  0  0  0  0
    2.1155   -0.4953   -1.0341 C   0  0  0  0  0  0  0  0  0  0  0  0
    1.6068   -0.9647   -2.0840 O   0  0  0  0  0  0  0  0  0  0  0  0
   -1.5855   -1.1303    2.1446 H   0  0  0  0  0  0  0  0  0  0  0  0
   -3.8339    0.5421    1.6297 H   0  0  0  0  0  0  0  0  0  0  0  0
   -2.4431    1.1702    2.5420 H   0  0  0  0  0  0  0  0  0  0  0  0
   -2.1213    1.5813    0.1725 H   0  0  0  0  0  0  0  0  0  0  0  0
   -0.2179    1.5115   -0.7286 H   0  0  0  0  0  0  0  0  0  0  0  0
   -0.5196   -1.5004   -1.2718 H   0  0  0  0  0  0  0  0  0  0  0  0
   -0.8420   -0.3871   -3.2120 H   0  0  0  0  0  0  0  0  0  0  0  0
   -2.3856   -1.4707   -0.0068 H   0  0  0  0  0  0  0  0  0  0  0  0
   -2.9499    0.5082   -1.9480 H   0  0  0  0  0  0  0  0  0  0  0  0
    1.3785    1.2448    1.6393 H   0  0  0  0  0  0  0  0  0  0  0  0
    3.7368    0.8525    2.0545 H   0  0  0  0  0  0  0  0  0  0  0  0
    4.0004   -1.2964   -1.5471 H   0  0  0  0  0  0  0  0  0  0  0  0
  1  2  1  0
  2  3  1  0
  3  4  1  0
  4  5  1  0
  5  6  1  0
  6  7  1  0
  6  8  1  0
  8  9  1  0
  5 10  1  0
 10 11  1  0
 11 12  2  0
 12 13  1  0
 13 14  2  0
 13 15  1  0
 15 16  1  0
 16 17  2  0
  8  3  1  0
 16 10  1  0
  1 18  1  0
  2 19  1  0
  2 20  1  0
  3 21  1  6
  5 22  1  6
  6 23  1  6
  7 24  1  0
  8 25  1  1
  9 26  1  0
 11 27  1  0
 12 28  1  0
 15 29  1  0
M  END
$$$$
