
     RDKit          3D

 36 37  0  0  0  0  0  0  0  0999 V2000
   -4.7178    1.0436   -1.3726 C   0  0  0  0  0  0  0  0  0  0  0  0
   -4.2467   -0.3683   -1.5569 C   0  0  0  0  0  0  0  0  0  0  0  0
   -3.0075   -0.6395   -0.9805 O   0  0  0  0  0  0  0  0  0  0  0  0
   -2.6914   -0.5236    0.3615 C   0  0  0  0  0  0  0  0  0  0  0  0
   -3.7412   -0.1300    0.9302 O   0  0  0  0  0  0  0  0  0  0  0  0
   -1.2940   -0.8903    0.6188 C   0  0  0  0  0  0  0  0  0  0  0  0
   -0.2755    0.0492    0.5725 C   0  0  0  0  0  0  0  0  0  0  0  0
   -0.4028    1.5179    0.2709 C   0  0  0  0  0  0  0  0  0  0  0  0
    0.8389   -0.6479    0.8562 N   0  0  0  0  0  0  0  0  0  0  0  0
    0.5260   -1.9065    1.0584 N   0  0  0  0  0  0  0  0  0  0  0  0
   -0.7854   -2.1313    0.9271 C   0  0  0  0  0  0  0  0  0  0  0  0
   -1.5764   -3.3829    1.0643 C   0  0  0  0  0  0  0  0  0  0  0  0
    2.1145   -0.0135    0.9033 C   0  0  0  0  0  0  0  0  0  0  0  0
    2.7720    0.5578    1.9729 C   0  0  0  0  0  0  0  0  0  0  0  0
    4.0161    1.1195    1.7750 C   0  0  0  0  0  0  0  0  0  0  0  0
    4.6091    1.1203    0.5393 C   0  0  0  0  0  0  0  0  0  0  0  0
    5.8929    1.7020    0.3443 N   0  0  0  0  0  0  0  0  0  0  0  0
    3.9649    0.5520   -0.5452 C   0  0  0  0  0  0  0  0  0  0  0  0
    2.7024   -0.0216   -0.3595 C   0  0  0  0  0  0  0  0  0  0  0  0
   -5.2702    1.1923   -0.4253 H   0  0  0  0  0  0  0  0  0  0  0  0
   -5.4667    1.2285   -2.1857 H   0  0  0  0  0  0  0  0  0  0  0  0
   -3.8908    1.7529   -1.5405 H   0  0  0  0  0  0  0  0  0  0  0  0
   -4.9971   -1.0668   -1.1402 H   0  0  0  0  0  0  0  0  0  0  0  0
   -4.1097   -0.5071   -2.6651 H   0  0  0  0  0  0  0  0  0  0  0  0
   -0.0061    1.7123   -0.7457 H   0  0  0  0  0  0  0  0  0  0  0  0
    0.0441    2.1319    1.0509 H   0  0  0  0  0  0  0  0  0  0  0  0
   -1.4877    1.7504    0.2270 H   0  0  0  0  0  0  0  0  0  0  0  0
   -2.0395   -3.6369    0.0736 H   0  0  0  0  0  0  0  0  0  0  0  0
   -0.9361   -4.1985    1.4405 H   0  0  0  0  0  0  0  0  0  0  0  0
   -2.3958   -3.2257    1.8137 H   0  0  0  0  0  0  0  0  0  0  0  0
    2.2075    0.4969    2.8919 H   0  0  0  0  0  0  0  0  0  0  0  0
    4.4807    1.5493    2.6424 H   0  0  0  0  0  0  0  0  0  0  0  0
    6.5409    0.9905   -0.1062 H   0  0  0  0  0  0  0  0  0  0  0  0
    5.8674    2.6844    0.6962 H   0  0  0  0  0  0  0  0  0  0  0  0
    4.4687    0.5744   -1.5018 H   0  0  0  0  0  0  0  0  0  0  0  0
    2.2922   -0.4358   -1.2740 H   0  0  0  0  0  0  0  0  0  0  0  0
  1  2  1  0
  2  3  1  0
  3  4  1  0
  4  5  2  0
  4  6  1  0
  6  7  2  0
  7  8  1  0
  7  9  1  0
  9 10  1  0
 10 11  2  0
 11 12  1  0
  9 13  1  0
 13 14  2  0
 14 15  1  0
 15 16  2  0
 16 17  1  0
 16 18  1  0
 18 19  2  0
 11  6  1  0
 19 13  1  0
  1 20  1  0
  1 21  1  0
  1 22  1  0
  2 23  1  0
  2 24  1  0
  8 25  1  0
  8 26  1  0
  8 27  1  0
 12 28  1  0
 12 29  1  0
 12 30  1  0
 14 31  1  0
 15 32  1  0
 17 33  1  0
 17 34  1  0
 18 35  1  0
 19 36  1  0
M  END
$$$$
