
     RDKit          3D

 97100  0  0  0  0  0  0  0  0999 V2000
   -3.9552   -5.5247   -1.2777 C   0  0  0  0  0  0  0  0  0  0  0  0
   -3.1028   -4.5950   -1.8573 O   0  0  0  0  0  0  0  0  0  0  0  0
   -2.4523   -3.8154   -0.8564 C   0  0  1  0  0  0  0  0  0  0  0  0
   -0.9669   -4.1569   -0.8093 C   0  0  0  0  0  0  0  0  0  0  0  0
   -0.1204   -4.6548   -1.6187 C   0  0  0  0  0  0  0  0  0  0  0  0
    1.3221   -4.9333   -1.4472 O   0  0  0  0  0  0  0  0  0  0  0  0
    2.2126   -3.9942   -1.1201 C   0  0  1  0  0  0  0  0  0  0  0  0
    1.8343   -3.3332    0.2209 C   0  0  0  0  0  0  0  0  0  0  0  0
    3.6035   -4.1814   -1.1117 O   0  0  0  0  0  0  0  0  0  0  0  0
    3.9968   -2.8001   -0.7515 C   0  0  0  0  0  0  0  0  0  0  0  0
    4.9769   -2.3327    0.0649 C   0  0  0  0  0  0  0  0  0  0  0  0
    5.9733   -3.2200    0.7607 C   0  0  0  0  0  0  0  0  0  0  0  0
    5.0238   -0.9597    0.2307 C   0  0  0  0  0  0  0  0  0  0  0  0
    6.0386   -0.4680    1.0800 O   0  0  0  0  0  0  0  0  0  0  0  0
    4.1452   -0.0614   -0.3800 C   0  0  0  0  0  0  0  0  0  0  0  0
    4.1774    1.3035    0.0802 C   0  0  0  0  0  0  0  0  0  0  0  0
    5.3640    1.4185    0.9065 O   0  0  0  0  0  0  0  0  0  0  0  0
    3.2228    2.1937   -0.2969 C   0  0  0  0  0  0  0  0  0  0  0  0
    2.2723    1.6499   -1.1899 C   0  0  0  0  0  0  0  0  0  0  0  0
    2.2327    0.3384   -1.6441 C   0  0  0  0  0  0  0  0  0  0  0  0
    1.0968    0.1838   -2.5625 O   0  0  0  0  0  0  0  0  0  0  0  0
    3.1593   -0.5563   -1.2334 C   0  0  0  0  0  0  0  0  0  0  0  0
    3.1212   -1.9324   -1.4009 C   0  0  0  0  0  0  0  0  0  0  0  0
    2.2545   -2.8004   -2.1279 C   0  0  0  0  0  0  0  0  0  0  0  0
    1.5725   -3.0053   -3.1363 O   0  0  0  0  0  0  0  0  0  0  0  0
    2.7823    3.4284    0.4008 N   0  0  0  0  0  0  0  0  0  0  0  0
    2.7925    3.6197    1.7959 C   0  0  0  0  0  0  0  0  0  0  0  0
    3.5393    2.6277    2.2704 O   0  0  0  0  0  0  0  0  0  0  0  0
    2.2975    4.3550    2.9111 C   0  0  0  0  0  0  0  0  0  0  0  0
    3.2042    4.5920    4.1481 C   0  0  0  0  0  0  0  0  0  0  0  0
    1.0769    4.8502    2.9773 C   0  0  0  0  0  0  0  0  0  0  0  0
   -0.0643    4.7644    2.0570 C   0  0  0  0  0  0  0  0  0  0  0  0
   -0.4175    4.2519    0.9511 C   0  0  0  0  0  0  0  0  0  0  0  0
   -1.6270    4.1783    0.0328 C   0  0  2  0  0  0  0  0  0  0  0  0
   -2.8354    4.9305    0.2487 C   0  0  0  0  0  0  0  0  0  0  0  0
   -1.9585    2.6665   -0.0600 C   0  0  2  0  0  0  0  0  0  0  0  0
   -0.8023    2.0466   -0.5703 O   0  0  0  0  0  0  0  0  0  0  0  0
   -3.1296    2.2589   -0.8410 C   0  0  1  0  0  0  0  0  0  0  0  0
   -3.0864    2.9530   -2.2138 C   0  0  0  0  0  0  0  0  0  0  0  0
   -3.0173    0.7322   -1.2187 C   0  0  1  0  0  0  0  0  0  0  0  0
   -1.8212    0.5853   -1.8557 O   0  0  0  0  0  0  0  0  0  0  0  0
   -3.3544   -0.1048   -0.0958 C   0  0  1  0  0  0  0  0  0  0  0  0
   -4.7749   -0.0363    0.3761 C   0  0  0  0  0  0  0  0  0  0  0  0
   -2.7284   -1.4942    0.0575 C   0  0  2  0  0  0  0  0  0  0  0  0
   -1.3378   -1.2720    0.4027 O   0  0  0  0  0  0  0  0  0  0  0  0
   -0.9624   -1.3952    1.7453 C   0  0  0  0  0  0  0  0  0  0  0  0
    0.4013   -1.1679    2.2553 C   0  0  0  0  0  0  0  0  0  0  0  0
   -1.8631   -1.7162    2.5632 O   0  0  0  0  0  0  0  0  0  0  0  0
   -2.8761   -2.4283   -1.0409 C   0  0  2  0  0  0  0  0  0  0  0  0
   -4.3590   -2.4827   -1.4663 C   0  0  0  0  0  0  0  0  0  0  0  0
   -3.3641   -6.2173   -0.6229 H   0  0  0  0  0  0  0  0  0  0  0  0
   -4.4758   -6.0798   -2.0649 H   0  0  0  0  0  0  0  0  0  0  0  0
   -4.7120   -5.0831   -0.5935 H   0  0  0  0  0  0  0  0  0  0  0  0
   -2.9406   -4.2192    0.0871 H   0  0  0  0  0  0  0  0  0  0  0  0
   -0.7686   -3.8600    0.2954 H   0  0  0  0  0  0  0  0  0  0  0  0
   -0.2454   -5.0224   -2.6884 H   0  0  0  0  0  0  0  0  0  0  0  0
    1.0937   -2.5600   -0.0795 H   0  0  0  0  0  0  0  0  0  0  0  0
    2.6969   -2.7971    0.6024 H   0  0  0  0  0  0  0  0  0  0  0  0
    1.4399   -4.0497    0.9414 H   0  0  0  0  0  0  0  0  0  0  0  0
    6.9643   -2.7272    0.7550 H   0  0  0  0  0  0  0  0  0  0  0  0
    5.9850   -4.2207    0.3257 H   0  0  0  0  0  0  0  0  0  0  0  0
    5.6682   -3.2989    1.8297 H   0  0  0  0  0  0  0  0  0  0  0  0
    6.9999   -0.6941    0.9452 H   0  0  0  0  0  0  0  0  0  0  0  0
    6.2384    1.7249    0.4882 H   0  0  0  0  0  0  0  0  0  0  0  0
    1.4507    2.1602   -1.7804 H   0  0  0  0  0  0  0  0  0  0  0  0
    1.1473    0.7931   -3.3868 H   0  0  0  0  0  0  0  0  0  0  0  0
    2.5923    4.3708   -0.2018 H   0  0  0  0  0  0  0  0  0  0  0  0
    2.5088    4.4837    4.9978 H   0  0  0  0  0  0  0  0  0  0  0  0
    3.9783    3.8079    4.1537 H   0  0  0  0  0  0  0  0  0  0  0  0
    3.6035    5.6005    4.1057 H   0  0  0  0  0  0  0  0  0  0  0  0
    0.9107    5.4553    3.9326 H   0  0  0  0  0  0  0  0  0  0  0  0
   -0.8497    5.4259    2.6490 H   0  0  0  0  0  0  0  0  0  0  0  0
    0.2696    3.5803    0.2977 H   0  0  0  0  0  0  0  0  0  0  0  0
   -1.2773    4.4419   -1.0252 H   0  0  0  0  0  0  0  0  0  0  0  0
   -3.2117    5.3892   -0.6693 H   0  0  0  0  0  0  0  0  0  0  0  0
   -3.6663    4.3728    0.7841 H   0  0  0  0  0  0  0  0  0  0  0  0
   -2.6673    5.8121    0.9462 H   0  0  0  0  0  0  0  0  0  0  0  0
   -1.9933    2.3368    1.0169 H   0  0  0  0  0  0  0  0  0  0  0  0
   -0.6677    2.4883   -1.4578 H   0  0  0  0  0  0  0  0  0  0  0  0
   -4.0999    2.4654   -0.4109 H   0  0  0  0  0  0  0  0  0  0  0  0
   -2.1095    3.3532   -2.4728 H   0  0  0  0  0  0  0  0  0  0  0  0
   -3.8472    3.7612   -2.2834 H   0  0  0  0  0  0  0  0  0  0  0  0
   -3.3520    2.2242   -3.0150 H   0  0  0  0  0  0  0  0  0  0  0  0
   -3.7865    0.6505   -2.0795 H   0  0  0  0  0  0  0  0  0  0  0  0
   -1.8743    0.1668   -2.7371 H   0  0  0  0  0  0  0  0  0  0  0  0
   -2.7985    0.4346    0.8109 H   0  0  0  0  0  0  0  0  0  0  0  0
   -5.5410   -0.0280   -0.4011 H   0  0  0  0  0  0  0  0  0  0  0  0
   -4.9598   -0.9517    1.0150 H   0  0  0  0  0  0  0  0  0  0  0  0
   -4.9536    0.8043    1.1148 H   0  0  0  0  0  0  0  0  0  0  0  0
   -3.2367   -1.8764    0.9826 H   0  0  0  0  0  0  0  0  0  0  0  0
    1.0824   -0.7528    1.4789 H   0  0  0  0  0  0  0  0  0  0  0  0
    0.8788   -2.0824    2.6605 H   0  0  0  0  0  0  0  0  0  0  0  0
    0.3358   -0.4649    3.1274 H   0  0  0  0  0  0  0  0  0  0  0  0
   -2.3243   -2.0639   -1.9858 H   0  0  0  0  0  0  0  0  0  0  0  0
   -4.5113   -3.3444   -2.1858 H   0  0  0  0  0  0  0  0  0  0  0  0
   -5.0268   -2.6773   -0.6162 H   0  0  0  0  0  0  0  0  0  0  0  0
   -4.6646   -1.5381   -1.9390 H   0  0  0  0  0  0  0  0  0  0  0  0
  1  2  1  0
  2  3  1  0
  3  4  1  0
  4  5  2  0
  5  6  1  0
  6  7  1  0
  7  8  1  1
  7  9  1  0
  9 10  1  0
 10 11  2  0
 11 12  1  0
 11 13  1  0
 13 14  1  0
 13 15  2  0
 15 16  1  0
 16 17  1  0
 16 18  2  0
 18 19  1  0
 19 20  2  0
 20 21  1  0
 20 22  1  0
 22 23  2  0
 23 24  1  0
 24 25  2  0
 18 26  1  0
 26 27  1  0
 27 28  2  0
 27 29  1  0
 29 30  1  0
 29 31  2  0
 31 32  1  0
 32 33  2  0
 33 34  1  0
 34 35  1  0
 34 36  1  0
 36 37  1  0
 36 38  1  0
 38 39  1  0
 38 40  1  0
 40 41  1  0
 40 42  1  0
 42 43  1  0
 42 44  1  0
 44 45  1  0
 45 46  1  0
 46 47  1  0
 46 48  2  0
 44 49  1  0
 49 50  1  0
 49  3  1  0
 24  7  1  0
 23 10  1  0
 22 15  1  0
  1 51  1  0
  1 52  1  0
  1 53  1  0
  3 54  1  1
  4 55  1  0
  5 56  1  0
  8 57  1  0
  8 58  1  0
  8 59  1  0
 12 60  1  0
 12 61  1  0
 12 62  1  0
 14 63  1  0
 17 64  1  0
 19 65  1  0
 21 66  1  0
 26 67  1  0
 30 68  1  0
 30 69  1  0
 30 70  1  0
 31 71  1  0
 32 72  1  0
 33 73  1  0
 34 74  1  6
 35 75  1  0
 35 76  1  0
 35 77  1  0
 36 78  1  1
 37 79  1  0
 38 80  1  1
 39 81  1  0
 39 82  1  0
 39 83  1  0
 40 84  1  6
 41 85  1  0
 42 86  1  1
 43 87  1  0
 43 88  1  0
 43 89  1  0
 44 90  1  1
 47 91  1  0
 47 92  1  0
 47 93  1  0
 49 94  1  6
 50 95  1  0
 50 96  1  0
 50 97  1  0
M  END
$$$$
