
     RDKit          3D

 40 42  0  0  0  0  0  0  0  0999 V2000
   -1.3095    3.7040    0.6587 O   0  0  0  0  0  0  0  0  0  0  0  0
   -0.8605    2.6841   -0.1807 C   0  0  0  0  0  0  0  0  0  0  0  0
   -0.2878    2.9659   -1.2741 O   0  0  0  0  0  0  0  0  0  0  0  0
   -1.0314    1.2640    0.1647 C   0  0  0  0  0  0  0  0  0  0  0  0
   -2.1434    0.5367   -0.1994 C   0  0  0  0  0  0  0  0  0  0  0  0
   -3.1867    1.2825   -0.9791 C   0  0  0  0  0  0  0  0  0  0  0  0
   -3.7198    0.2334   -1.9634 C   0  0  0  0  0  0  0  0  0  0  0  0
   -4.4152   -0.8187   -1.1473 C   0  0  0  0  0  0  0  0  0  0  0  0
   -3.4787   -1.5949   -0.2507 C   0  0  0  0  0  0  0  0  0  0  0  0
   -2.2889   -0.7938    0.1320 C   0  0  0  0  0  0  0  0  0  0  0  0
   -1.2971   -1.4235    0.8489 C   0  0  0  0  0  0  0  0  0  0  0  0
   -0.2049   -0.6523    1.1892 C   0  0  0  0  0  0  0  0  0  0  0  0
    0.0116    0.6788    0.8949 C   0  0  0  0  0  0  0  0  0  0  0  0
    1.1881    1.3436    1.3188 N   0  0  0  0  0  0  0  0  0  0  0  0
    2.6343    0.6675    1.9225 S   0  0  0  0  0  0  0  0  0  0  0  0
    2.3437   -0.1446    3.1751 O   0  0  0  0  0  0  0  0  0  0  0  0
    3.5877    1.7988    2.2565 O   0  0  0  0  0  0  0  0  0  0  0  0
    3.4192   -0.3702    0.7583 C   0  0  0  0  0  0  0  0  0  0  0  0
    3.2958   -1.7368    0.6204 C   0  0  0  0  0  0  0  0  0  0  0  0
    3.9913   -2.4029   -0.3674 C   0  0  0  0  0  0  0  0  0  0  0  0
    4.8322   -1.7808   -1.2604 C   0  0  0  0  0  0  0  0  0  0  0  0
    4.9646   -0.4099   -1.1324 C   0  0  0  0  0  0  0  0  0  0  0  0
    4.2676    0.2479   -0.1446 C   0  0  0  0  0  0  0  0  0  0  0  0
   -1.2814    4.6671    0.3077 H   0  0  0  0  0  0  0  0  0  0  0  0
   -4.0384    1.5493   -0.3290 H   0  0  0  0  0  0  0  0  0  0  0  0
   -2.7538    2.1309   -1.5145 H   0  0  0  0  0  0  0  0  0  0  0  0
   -4.4167    0.6381   -2.6924 H   0  0  0  0  0  0  0  0  0  0  0  0
   -2.7878   -0.1971   -2.4318 H   0  0  0  0  0  0  0  0  0  0  0  0
   -5.1527   -0.3085   -0.4983 H   0  0  0  0  0  0  0  0  0  0  0  0
   -4.9268   -1.4962   -1.8776 H   0  0  0  0  0  0  0  0  0  0  0  0
   -4.0208   -1.9634    0.6628 H   0  0  0  0  0  0  0  0  0  0  0  0
   -3.1682   -2.5246   -0.7726 H   0  0  0  0  0  0  0  0  0  0  0  0
   -1.3473   -2.4636    1.1415 H   0  0  0  0  0  0  0  0  0  0  0  0
    0.5672   -1.1551    1.7565 H   0  0  0  0  0  0  0  0  0  0  0  0
    1.0875    2.3919    1.2221 H   0  0  0  0  0  0  0  0  0  0  0  0
    2.6454   -2.2106    1.3182 H   0  0  0  0  0  0  0  0  0  0  0  0
    3.8526   -3.4787   -0.4256 H   0  0  0  0  0  0  0  0  0  0  0  0
    5.3786   -2.2796   -2.0314 H   0  0  0  0  0  0  0  0  0  0  0  0
    5.6208    0.0997   -1.8241 H   0  0  0  0  0  0  0  0  0  0  0  0
    4.4297    1.3217   -0.1153 H   0  0  0  0  0  0  0  0  0  0  0  0
  1  2  1  0
  2  3  2  0
  2  4  1  0
  4  5  2  0
  5  6  1  0
  6  7  1  0
  7  8  1  0
  8  9  1  0
  9 10  1  0
 10 11  2  0
 11 12  1  0
 12 13  2  0
 13 14  1  0
 14 15  1  0
 15 16  2  0
 15 17  2  0
 15 18  1  0
 18 19  2  0
 19 20  1  0
 20 21  2  0
 21 22  1  0
 22 23  2  0
 13  4  1  0
 23 18  1  0
 10  5  1  0
  1 24  1  0
  6 25  1  0
  6 26  1  0
  7 27  1  0
  7 28  1  0
  8 29  1  0
  8 30  1  0
  9 31  1  0
  9 32  1  0
 11 33  1  0
 12 34  1  0
 14 35  1  0
 19 36  1  0
 20 37  1  0
 21 38  1  0
 22 39  1  0
 23 40  1  0
M  END
$$$$
