
     RDKit          3D

 30 30  0  0  0  0  0  0  0  0999 V2000
   -4.2411   -0.9920    1.2405 O   0  0  0  0  0  0  0  0  0  0  0  0
   -3.4086    0.0855    0.5826 P   0  0  0  0  0  5  0  0  0  0  0  0
   -3.1879    1.3222    1.6835 O   0  0  0  0  0  0  0  0  0  0  0  0
   -4.2953    0.6044   -0.7864 O   0  0  0  0  0  0  0  0  0  0  0  0
   -1.8203   -0.6303    0.0396 C   0  0  0  0  0  0  0  0  0  0  0  0
   -0.7279    0.2834    0.3043 N   0  0  0  0  0  0  0  0  0  0  0  0
    0.6318   -0.0084    0.0772 C   0  0  0  0  0  0  0  0  0  0  0  0
    1.0751   -1.2145   -0.4071 C   0  0  0  0  0  0  0  0  0  0  0  0
    2.4375   -1.4560   -0.6222 C   0  0  0  0  0  0  0  0  0  0  0  0
    3.3625   -0.4708   -0.3457 C   0  0  0  0  0  0  0  0  0  0  0  0
    2.9275    0.7402    0.1398 C   0  0  0  0  0  0  0  0  0  0  0  0
    3.9212    1.7997    0.4373 C   0  0  0  0  0  0  0  0  0  0  0  0
    4.6989    1.3681    1.4945 F   0  0  0  0  0  0  0  0  0  0  0  0
    3.3374    2.9969    0.7160 F   0  0  0  0  0  0  0  0  0  0  0  0
    4.7287    1.9329   -0.6833 F   0  0  0  0  0  0  0  0  0  0  0  0
    1.5794    0.9529    0.3429 C   0  0  0  0  0  0  0  0  0  0  0  0
   -1.9018   -1.1229   -1.6993 P   0  0  0  0  0  5  0  0  0  0  0  0
   -3.2238   -0.6303   -2.2489 O   0  0  0  0  0  0  0  0  0  0  0  0
   -1.9173   -2.8008   -1.8388 O   0  0  0  0  0  0  0  0  0  0  0  0
   -0.6720   -0.3950   -2.5722 O   0  0  0  0  0  0  0  0  0  0  0  0
   -2.9738    2.1931    1.2941 H   0  0  0  0  0  0  0  0  0  0  0  0
   -4.0759    1.5493   -0.9805 H   0  0  0  0  0  0  0  0  0  0  0  0
   -1.6504   -1.5385    0.6436 H   0  0  0  0  0  0  0  0  0  0  0  0
   -0.9892    1.2194    0.6906 H   0  0  0  0  0  0  0  0  0  0  0  0
    0.3913   -1.9919   -0.6248 H   0  0  0  0  0  0  0  0  0  0  0  0
    2.7892   -2.3951   -1.0001 H   0  0  0  0  0  0  0  0  0  0  0  0
    4.4219   -0.6433   -0.5074 H   0  0  0  0  0  0  0  0  0  0  0  0
    1.3158    1.9422    0.7311 H   0  0  0  0  0  0  0  0  0  0  0  0
   -2.1282   -3.1760   -0.9660 H   0  0  0  0  0  0  0  0  0  0  0  0
   -0.4046    0.4753   -2.2373 H   0  0  0  0  0  0  0  0  0  0  0  0
  1  2  2  0
  2  3  1  0
  2  4  1  0
  2  5  1  0
  5  6  1  0
  6  7  1  0
  7  8  2  0
  8  9  1  0
  9 10  2  0
 10 11  1  0
 11 12  1  0
 12 13  1  0
 12 14  1  0
 12 15  1  0
 11 16  2  0
  5 17  1  0
 17 18  2  0
 17 19  1  0
 17 20  1  0
 16  7  1  0
  3 21  1  0
  4 22  1  0
  5 23  1  0
  6 24  1  0
  8 25  1  0
  9 26  1  0
 10 27  1  0
 16 28  1  0
 19 29  1  0
 20 30  1  0
M  END
$$$$
