
     RDKit          3D

 36 38  0  0  0  0  0  0  0  0999 V2000
   -5.5351    1.5002   -0.5586 C   0  0  0  0  0  0  0  0  0  0  0  0
   -4.7506    0.3915   -0.1281 O   0  0  0  0  0  0  0  0  0  0  0  0
   -3.3648    0.4240   -0.2292 C   0  0  0  0  0  0  0  0  0  0  0  0
   -2.7516    1.5371   -0.7490 C   0  0  0  0  0  0  0  0  0  0  0  0
   -1.3851    1.5486   -0.8398 C   0  0  0  0  0  0  0  0  0  0  0  0
   -0.7178    2.5957   -1.3331 N   0  0  0  0  0  0  0  0  0  0  0  0
    0.6186    2.6457   -1.4374 C   0  0  0  0  0  0  0  0  0  0  0  0
    1.3327    1.5940   -1.0279 N   0  0  0  0  0  0  0  0  0  0  0  0
    0.7433    0.4953   -0.5172 C   0  0  0  0  0  0  0  0  0  0  0  0
    1.5062   -0.6191   -0.0831 N   0  0  0  0  0  0  0  0  0  0  0  0
    2.9233   -0.5145   -0.0858 C   0  0  0  0  0  0  0  0  0  0  0  0
    3.6648   -1.6807   -0.3066 C   0  0  0  0  0  0  0  0  0  0  0  0
    5.0425   -1.6874   -0.3064 C   0  0  0  0  0  0  0  0  0  0  0  0
    5.7361   -0.5206   -0.0840 C   0  0  0  0  0  0  0  0  0  0  0  0
    5.0292    0.6391    0.1359 C   0  0  0  0  0  0  0  0  0  0  0  0
    6.0097    2.2376    0.4409 Br  0  0  0  0  0  0  0  0  0  0  0  0
    3.6249    0.6368    0.1344 C   0  0  0  0  0  0  0  0  0  0  0  0
   -0.6293    0.4487   -0.4119 C   0  0  0  0  0  0  0  0  0  0  0  0
   -1.2836   -0.6469    0.1029 C   0  0  0  0  0  0  0  0  0  0  0  0
   -2.6836   -0.6790    0.2048 C   0  0  0  0  0  0  0  0  0  0  0  0
   -3.3237   -1.7906    0.7255 O   0  0  0  0  0  0  0  0  0  0  0  0
   -2.5887   -2.9255    1.1694 C   0  0  0  0  0  0  0  0  0  0  0  0
   -5.1062    2.3878   -0.0490 H   0  0  0  0  0  0  0  0  0  0  0  0
   -5.4222    1.6116   -1.6426 H   0  0  0  0  0  0  0  0  0  0  0  0
   -6.5769    1.2950   -0.2391 H   0  0  0  0  0  0  0  0  0  0  0  0
   -3.2839    2.4045   -1.0908 H   0  0  0  0  0  0  0  0  0  0  0  0
    1.1050    3.5422   -1.8544 H   0  0  0  0  0  0  0  0  0  0  0  0
    1.0985   -1.5241    0.2398 H   0  0  0  0  0  0  0  0  0  0  0  0
    3.1707   -2.6269   -0.4868 H   0  0  0  0  0  0  0  0  0  0  0  0
    5.6270   -2.5853   -0.4764 H   0  0  0  0  0  0  0  0  0  0  0  0
    6.8328   -0.5092   -0.0809 H   0  0  0  0  0  0  0  0  0  0  0  0
    3.1403    1.5762    0.3273 H   0  0  0  0  0  0  0  0  0  0  0  0
   -0.7598   -1.5105    0.4450 H   0  0  0  0  0  0  0  0  0  0  0  0
   -1.9355   -2.6842    2.0246 H   0  0  0  0  0  0  0  0  0  0  0  0
   -3.2268   -3.7924    1.3303 H   0  0  0  0  0  0  0  0  0  0  0  0
   -1.8806   -3.2146    0.3377 H   0  0  0  0  0  0  0  0  0  0  0  0
  1  2  1  0
  2  3  1  0
  3  4  2  0
  4  5  1  0
  5  6  2  0
  6  7  1  0
  7  8  2  0
  8  9  1  0
  9 10  1  0
 10 11  1  0
 11 12  2  0
 12 13  1  0
 13 14  2  0
 14 15  1  0
 15 16  1  0
 15 17  2  0
  9 18  2  0
 18 19  1  0
 19 20  2  0
 20 21  1  0
 21 22  1  0
 20  3  1  0
 18  5  1  0
 17 11  1  0
  1 23  1  0
  1 24  1  0
  1 25  1  0
  4 26  1  0
  7 27  1  0
 10 28  1  0
 12 29  1  0
 13 30  1  0
 14 31  1  0
 17 32  1  0
 19 33  1  0
 22 34  1  0
 22 35  1  0
 22 36  1  0
M  END
$$$$
