
     RDKit          3D

 56 59  0  0  0  0  0  0  0  0999 V2000
   -7.9558   -0.9690   -1.0316 C   0  0  0  0  0  0  0  0  0  0  0  0
   -7.1232   -2.3396   -0.2263 S   0  0  0  0  0  6  0  0  0  0  0  0
   -7.3987   -3.5999   -0.9972 O   0  0  0  0  0  0  0  0  0  0  0  0
   -7.6144   -2.4497    1.1951 O   0  0  0  0  0  0  0  0  0  0  0  0
   -5.4121   -1.9656   -0.2564 C   0  0  0  0  0  0  0  0  0  0  0  0
   -4.8134   -1.2647    0.7685 C   0  0  0  0  0  0  0  0  0  0  0  0
   -3.4653   -0.9687    0.7470 C   0  0  0  0  0  0  0  0  0  0  0  0
   -2.6509   -1.3622   -0.3056 C   0  0  0  0  0  0  0  0  0  0  0  0
   -1.2276   -1.0440   -0.3178 C   0  0  0  0  0  0  0  0  0  0  0  0
   -0.2704   -1.9748   -0.6609 C   0  0  0  0  0  0  0  0  0  0  0  0
    1.0885   -1.6915   -0.6785 C   0  0  0  0  0  0  0  0  0  0  0  0
    1.5307   -0.4319   -0.3428 C   0  0  0  0  0  0  0  0  0  0  0  0
    2.9431   -0.0840   -0.3456 C   0  0  0  0  0  0  0  0  0  0  0  0
    3.2702    1.0942   -0.0250 O   0  0  0  0  0  0  0  0  0  0  0  0
    4.0008   -0.9609   -0.6805 N   0  0  0  0  0  0  0  0  0  0  0  0
    5.3755   -0.5166   -0.6523 C   0  0  0  0  0  0  0  0  0  0  0  0
    6.0043    0.0393   -1.7337 C   0  0  0  0  0  0  0  0  0  0  0  0
    7.3180    0.4349   -1.6166 C   0  0  0  0  0  0  0  0  0  0  0  0
    8.0002    0.2783   -0.4326 C   0  0  0  0  0  0  0  0  0  0  0  0
    7.3878   -0.2773    0.6644 C   0  0  0  0  0  0  0  0  0  0  0  0
    6.0621   -0.6740    0.5386 C   0  0  0  0  0  0  0  0  0  0  0  0
    5.4039   -1.2619    1.6829 C   0  0  0  0  0  0  0  0  0  0  0  0
    6.0180   -1.4047    2.7576 O   0  0  0  0  0  0  0  0  0  0  0  0
    4.0906   -1.6702    1.5956 O   0  0  0  0  0  0  0  0  0  0  0  0
    0.5618    0.5119    0.0049 C   0  0  0  0  0  0  0  0  0  0  0  0
   -0.7837    0.2149    0.0176 C   0  0  0  0  0  0  0  0  0  0  0  0
   -1.7498    1.1491    0.3623 O   0  0  0  0  0  0  0  0  0  0  0  0
   -1.3665    2.4312    0.7090 C   0  0  0  0  0  0  0  0  0  0  0  0
   -1.2720    3.3815   -0.3032 C   0  0  0  0  0  0  0  0  0  0  0  0
   -0.8917    4.6650    0.0213 C   0  0  0  0  0  0  0  0  0  0  0  0
   -0.6008    5.0424    1.3145 C   0  0  0  0  0  0  0  0  0  0  0  0
   -0.7025    4.0782    2.3027 C   0  0  0  0  0  0  0  0  0  0  0  0
   -1.0816    2.7857    2.0025 C   0  0  0  0  0  0  0  0  0  0  0  0
   -3.2650   -2.0631   -1.3241 C   0  0  0  0  0  0  0  0  0  0  0  0
   -4.6119   -2.3612   -1.3070 C   0  0  0  0  0  0  0  0  0  0  0  0
   -7.7838   -1.0907   -2.1196 H   0  0  0  0  0  0  0  0  0  0  0  0
   -9.0213   -0.9568   -0.8087 H   0  0  0  0  0  0  0  0  0  0  0  0
   -7.4969   -0.0234   -0.6932 H   0  0  0  0  0  0  0  0  0  0  0  0
   -5.4521   -0.9509    1.6034 H   0  0  0  0  0  0  0  0  0  0  0  0
   -3.0131   -0.4186    1.5589 H   0  0  0  0  0  0  0  0  0  0  0  0
   -0.5748   -2.9740   -0.9306 H   0  0  0  0  0  0  0  0  0  0  0  0
    1.8205   -2.4439   -0.9528 H   0  0  0  0  0  0  0  0  0  0  0  0
    3.7616   -1.9374   -0.9485 H   0  0  0  0  0  0  0  0  0  0  0  0
    5.4499    0.1548   -2.6595 H   0  0  0  0  0  0  0  0  0  0  0  0
    7.8075    0.8724   -2.4734 H   0  0  0  0  0  0  0  0  0  0  0  0
    9.0470    0.5907   -0.3306 H   0  0  0  0  0  0  0  0  0  0  0  0
    7.9489   -0.3880    1.5822 H   0  0  0  0  0  0  0  0  0  0  0  0
    3.6980   -2.4051    2.1797 H   0  0  0  0  0  0  0  0  0  0  0  0
    0.9128    1.4908    0.2653 H   0  0  0  0  0  0  0  0  0  0  0  0
   -1.5013    3.0939   -1.3399 H   0  0  0  0  0  0  0  0  0  0  0  0
   -0.8125    5.4143   -0.7451 H   0  0  0  0  0  0  0  0  0  0  0  0
   -0.3063    6.0607    1.5236 H   0  0  0  0  0  0  0  0  0  0  0  0
   -0.4696    4.3854    3.3296 H   0  0  0  0  0  0  0  0  0  0  0  0
   -1.1565    2.0380    2.7950 H   0  0  0  0  0  0  0  0  0  0  0  0
   -2.6205   -2.3721   -2.1526 H   0  0  0  0  0  0  0  0  0  0  0  0
   -5.0356   -2.9110   -2.1301 H   0  0  0  0  0  0  0  0  0  0  0  0
  1  2  1  0
  2  3  2  0
  2  4  2  0
  2  5  1  0
  5  6  2  0
  6  7  1  0
  7  8  2  0
  8  9  1  0
  9 10  2  0
 10 11  1  0
 11 12  2  0
 12 13  1  0
 13 14  2  0
 13 15  1  0
 15 16  1  0
 16 17  2  0
 17 18  1  0
 18 19  2  0
 19 20  1  0
 20 21  2  0
 21 22  1  0
 22 23  2  0
 22 24  1  0
 12 25  1  0
 25 26  2  0
 26 27  1  0
 27 28  1  0
 28 29  2  0
 29 30  1  0
 30 31  2  0
 31 32  1  0
 32 33  2  0
  8 34  1  0
 34 35  2  0
 35  5  1  0
 26  9  1  0
 33 28  1  0
 21 16  1  0
  1 36  1  0
  1 37  1  0
  1 38  1  0
  6 39  1  0
  7 40  1  0
 10 41  1  0
 11 42  1  0
 15 43  1  0
 17 44  1  0
 18 45  1  0
 19 46  1  0
 20 47  1  0
 24 48  1  0
 25 49  1  0
 29 50  1  0
 30 51  1  0
 31 52  1  0
 32 53  1  0
 33 54  1  0
 34 55  1  0
 35 56  1  0
M  END
$$$$
