
     RDKit          3D

 49 51  0  0  0  0  0  0  0  0999 V2000
   -3.2980   -2.8646    1.2062 C   0  0  0  0  0  0  0  0  0  0  0  0
   -3.6987   -1.7799    0.3558 N   0  0  0  0  0  0  0  0  0  0  0  0
   -3.0036   -0.5397    0.6541 C   0  0  0  0  0  0  0  0  0  0  0  0
   -1.5584   -0.7618    0.2530 C   0  0  1  0  0  0  0  0  0  0  0  0
   -1.5690   -1.0579   -1.0956 O   0  0  0  0  0  0  0  0  0  0  0  0
   -0.7149    0.4620    0.4930 C   0  0  2  0  0  0  0  0  0  0  0  0
   -1.3116    1.6442   -0.1842 C   0  0  0  0  0  0  0  0  0  0  0  0
   -1.2320    1.8740   -1.5393 C   0  0  0  0  0  0  0  0  0  0  0  0
   -1.8209    3.0011   -2.0685 C   0  0  0  0  0  0  0  0  0  0  0  0
   -2.4921    3.9194   -1.3017 C   0  0  0  0  0  0  0  0  0  0  0  0
   -2.5742    3.6936    0.0573 C   0  0  0  0  0  0  0  0  0  0  0  0
   -1.9918    2.5747    0.5946 C   0  0  0  0  0  0  0  0  0  0  0  0
    0.6390    0.1858    0.0688 N   0  0  0  0  0  0  0  0  0  0  0  0
    1.1975   -0.2214   -1.1982 C   0  0  0  0  0  0  0  0  0  0  0  0
    2.3700   -1.1253   -0.8191 C   0  0  0  0  0  0  0  0  0  0  0  0
    3.4049   -1.0654   -1.8922 C   0  0  0  0  0  0  0  0  0  0  0  0
    1.8544   -2.5134   -0.5715 C   0  0  0  0  0  0  0  0  0  0  0  0
    2.8232   -0.4755    0.4557 C   0  0  0  0  0  0  0  0  0  0  0  0
    4.0117   -0.5191    1.1502 C   0  0  0  0  0  0  0  0  0  0  0  0
    4.1767    0.1808    2.3098 C   0  0  0  0  0  0  0  0  0  0  0  0
    3.1697    0.9590    2.8377 C   0  0  0  0  0  0  0  0  0  0  0  0
    1.9666    0.9960    2.1248 C   0  0  0  0  0  0  0  0  0  0  0  0
    0.9778    1.7616    2.6343 F   0  0  0  0  0  0  0  0  0  0  0  0
    1.7906    0.2922    0.9525 C   0  0  0  0  0  0  0  0  0  0  0  0
   -3.0752   -2.5886    2.2364 H   0  0  0  0  0  0  0  0  0  0  0  0
   -2.3801   -3.3762    0.7927 H   0  0  0  0  0  0  0  0  0  0  0  0
   -4.1040   -3.6477    1.1246 H   0  0  0  0  0  0  0  0  0  0  0  0
   -3.5810   -2.0753   -0.6363 H   0  0  0  0  0  0  0  0  0  0  0  0
   -3.4962    0.2539    0.0458 H   0  0  0  0  0  0  0  0  0  0  0  0
   -3.1212   -0.3656    1.7551 H   0  0  0  0  0  0  0  0  0  0  0  0
   -1.1608   -1.5693    0.8916 H   0  0  0  0  0  0  0  0  0  0  0  0
   -2.3493   -0.7098   -1.5649 H   0  0  0  0  0  0  0  0  0  0  0  0
   -0.7159    0.6999    1.5999 H   0  0  0  0  0  0  0  0  0  0  0  0
   -0.7106    1.1664   -2.1551 H   0  0  0  0  0  0  0  0  0  0  0  0
   -1.7613    3.1905   -3.1455 H   0  0  0  0  0  0  0  0  0  0  0  0
   -2.9448    4.8000   -1.7731 H   0  0  0  0  0  0  0  0  0  0  0  0
   -3.1120    4.4353    0.6537 H   0  0  0  0  0  0  0  0  0  0  0  0
   -2.0947    2.4539    1.6810 H   0  0  0  0  0  0  0  0  0  0  0  0
    0.5480   -0.8057   -1.8405 H   0  0  0  0  0  0  0  0  0  0  0  0
    1.5845    0.6993   -1.6896 H   0  0  0  0  0  0  0  0  0  0  0  0
    3.5781   -2.1122   -2.2627 H   0  0  0  0  0  0  0  0  0  0  0  0
    3.0611   -0.4951   -2.8026 H   0  0  0  0  0  0  0  0  0  0  0  0
    4.3268   -0.5726   -1.5563 H   0  0  0  0  0  0  0  0  0  0  0  0
    1.3493   -2.5165    0.4213 H   0  0  0  0  0  0  0  0  0  0  0  0
    1.1306   -2.7901   -1.3476 H   0  0  0  0  0  0  0  0  0  0  0  0
    2.6892   -3.2205   -0.5399 H   0  0  0  0  0  0  0  0  0  0  0  0
    4.8141   -1.1334    0.7403 H   0  0  0  0  0  0  0  0  0  0  0  0
    5.1235    0.1346    2.8486 H   0  0  0  0  0  0  0  0  0  0  0  0
    3.2851    1.5243    3.7607 H   0  0  0  0  0  0  0  0  0  0  0  0
  1  2  1  0
  2  3  1  0
  3  4  1  0
  4  5  1  0
  4  6  1  0
  6  7  1  0
  7  8  2  0
  8  9  1  0
  9 10  2  0
 10 11  1  0
 11 12  2  0
  6 13  1  0
 13 14  1  0
 14 15  1  0
 15 16  1  0
 15 17  1  0
 15 18  1  0
 18 19  2  0
 19 20  1  0
 20 21  2  0
 21 22  1  0
 22 23  1  0
 22 24  2  0
 12  7  1  0
 24 13  1  0
 24 18  1  0
  1 25  1  0
  1 26  1  0
  1 27  1  0
  2 28  1  0
  3 29  1  0
  3 30  1  0
  4 31  1  1
  5 32  1  0
  6 33  1  1
  8 34  1  0
  9 35  1  0
 10 36  1  0
 11 37  1  0
 12 38  1  0
 14 39  1  0
 14 40  1  0
 16 41  1  0
 16 42  1  0
 16 43  1  0
 17 44  1  0
 17 45  1  0
 17 46  1  0
 19 47  1  0
 20 48  1  0
 21 49  1  0
M  END
$$$$
