
     RDKit          3D

 50 50  0  0  0  0  0  0  0  0999 V2000
   -0.2528   -0.8406   -3.3985 C   0  0  0  0  0  0  0  0  0  0  0  0
    0.5442   -0.7946   -2.1439 C   0  0  0  0  0  0  0  0  0  0  0  0
   -0.0792   -0.0485   -1.0429 C   0  0  0  0  0  0  0  0  0  0  0  0
   -1.2046    0.5986   -0.9335 C   0  0  0  0  0  0  0  0  0  0  0  0
   -2.0577    1.3785   -0.0722 C   0  0  0  0  0  0  0  0  0  0  0  0
   -1.8899    1.7584    1.1861 C   0  0  0  0  0  0  0  0  0  0  0  0
   -0.6262    1.3274    1.8527 C   0  0  0  0  0  0  0  0  0  0  0  0
   -2.9164    2.5797    1.9084 C   0  0  0  0  0  0  0  0  0  0  0  0
   -4.2893    2.0463    1.6768 C   0  0  0  0  0  0  0  0  0  0  0  0
   -4.4661    1.4580    0.3175 C   0  0  0  0  0  0  0  0  0  0  0  0
   -3.3615    1.8697   -0.6249 C   0  0  0  0  0  0  0  0  0  0  0  0
   -3.4102    3.3502   -0.8142 C   0  0  0  0  0  0  0  0  0  0  0  0
   -3.6686    1.1826   -1.9475 C   0  0  0  0  0  0  0  0  0  0  0  0
    1.7110   -1.3241   -1.8746 C   0  0  0  0  0  0  0  0  0  0  0  0
    2.4755   -1.2678   -0.6390 C   0  0  0  0  0  0  0  0  0  0  0  0
    3.6396   -1.8721   -0.5636 C   0  0  0  0  0  0  0  0  0  0  0  0
    4.4742   -1.8706    0.6289 C   0  0  0  0  0  0  0  0  0  0  0  0
    4.2135   -1.2305    1.9400 C   0  0  0  0  0  0  0  0  0  0  0  0
    5.6418   -2.5232    0.5833 C   0  0  0  0  0  0  0  0  0  0  0  0
    6.5847   -2.6151    1.6837 C   0  0  0  0  0  0  0  0  0  0  0  0
    7.7836   -3.2917    1.6306 O   0  0  0  0  0  0  0  0  0  0  0  0
    6.4487   -2.1011    2.8239 O   0  0  0  0  0  0  0  0  0  0  0  0
    0.2939   -1.2597   -4.2519 H   0  0  0  0  0  0  0  0  0  0  0  0
   -0.6392    0.1629   -3.7051 H   0  0  0  0  0  0  0  0  0  0  0  0
   -1.0949   -1.5653   -3.2108 H   0  0  0  0  0  0  0  0  0  0  0  0
    0.3951    0.0639   -0.0590 H   0  0  0  0  0  0  0  0  0  0  0  0
   -1.6214    0.4492   -1.9473 H   0  0  0  0  0  0  0  0  0  0  0  0
   -0.7263    1.7482    2.9060 H   0  0  0  0  0  0  0  0  0  0  0  0
    0.2734    1.8004    1.4611 H   0  0  0  0  0  0  0  0  0  0  0  0
   -0.5669    0.2390    2.0260 H   0  0  0  0  0  0  0  0  0  0  0  0
   -2.7753    3.6530    1.7404 H   0  0  0  0  0  0  0  0  0  0  0  0
   -2.6946    2.3941    3.0064 H   0  0  0  0  0  0  0  0  0  0  0  0
   -4.5910    1.2704    2.4143 H   0  0  0  0  0  0  0  0  0  0  0  0
   -5.0046    2.8938    1.8037 H   0  0  0  0  0  0  0  0  0  0  0  0
   -5.4529    1.7500   -0.1105 H   0  0  0  0  0  0  0  0  0  0  0  0
   -4.4921    0.3310    0.3892 H   0  0  0  0  0  0  0  0  0  0  0  0
   -4.1823    3.8470   -0.1658 H   0  0  0  0  0  0  0  0  0  0  0  0
   -2.4512    3.8664   -0.6006 H   0  0  0  0  0  0  0  0  0  0  0  0
   -3.6771    3.5689   -1.8815 H   0  0  0  0  0  0  0  0  0  0  0  0
   -3.0751    1.5957   -2.7616 H   0  0  0  0  0  0  0  0  0  0  0  0
   -4.7509    1.4182   -2.1475 H   0  0  0  0  0  0  0  0  0  0  0  0
   -3.5914    0.0996   -1.7922 H   0  0  0  0  0  0  0  0  0  0  0  0
    2.1149   -1.8697   -2.7294 H   0  0  0  0  0  0  0  0  0  0  0  0
    2.1779   -0.7617    0.2631 H   0  0  0  0  0  0  0  0  0  0  0  0
    3.9806   -2.3959   -1.4446 H   0  0  0  0  0  0  0  0  0  0  0  0
    4.1377   -2.0347    2.7141 H   0  0  0  0  0  0  0  0  0  0  0  0
    4.9476   -0.4380    2.1969 H   0  0  0  0  0  0  0  0  0  0  0  0
    3.2271   -0.7245    1.9732 H   0  0  0  0  0  0  0  0  0  0  0  0
    5.9231   -3.0298   -0.3335 H   0  0  0  0  0  0  0  0  0  0  0  0
    8.6218   -2.9234    2.0701 H   0  0  0  0  0  0  0  0  0  0  0  0
  1  2  1  0
  2  3  1  0
  3  4  2  0
  4  5  1  0
  5  6  2  0
  6  7  1  0
  6  8  1  0
  8  9  1  0
  9 10  1  0
 10 11  1  0
 11 12  1  0
 11 13  1  0
  2 14  2  0
 14 15  1  0
 15 16  2  0
 16 17  1  0
 17 18  1  0
 17 19  2  0
 19 20  1  0
 20 21  1  0
 20 22  2  0
 11  5  1  0
  1 23  1  0
  1 24  1  0
  1 25  1  0
  3 26  1  0
  4 27  1  0
  7 28  1  0
  7 29  1  0
  7 30  1  0
  8 31  1  0
  8 32  1  0
  9 33  1  0
  9 34  1  0
 10 35  1  0
 10 36  1  0
 12 37  1  0
 12 38  1  0
 12 39  1  0
 13 40  1  0
 13 41  1  0
 13 42  1  0
 14 43  1  0
 15 44  1  0
 16 45  1  0
 18 46  1  0
 18 47  1  0
 18 48  1  0
 19 49  1  0
 21 50  1  0
M  END
$$$$
