
     RDKit          3D

 57 61  0  0  0  0  0  0  0  0999 V2000
    3.5184    0.9322   -0.5415 O   0  0  0  0  0  0  0  0  0  0  0  0
    3.9740   -0.1174   -1.0324 C   0  0  0  0  0  0  0  0  0  0  0  0
    2.9875   -0.9158   -1.7389 N   0  0  0  0  0  0  0  0  0  0  0  0
    1.6392   -0.4834   -1.8266 C   0  0  0  0  0  0  0  0  0  0  0  0
    1.2853    0.3070   -2.8979 C   0  0  0  0  0  0  0  0  0  0  0  0
   -0.0260    0.7258   -2.9804 C   0  0  0  0  0  0  0  0  0  0  0  0
   -0.9651    0.3662   -2.0183 C   0  0  0  0  0  0  0  0  0  0  0  0
   -0.6130   -0.4249   -0.9453 C   0  0  0  0  0  0  0  0  0  0  0  0
   -1.6444   -0.7687    0.0323 C   0  0  0  0  0  0  0  0  0  0  0  0
   -1.4113   -1.5507    1.1428 C   0  0  0  0  0  0  0  0  0  0  0  0
   -2.3674   -1.8620    2.0374 N   0  0  0  0  0  0  0  0  0  0  0  0
   -2.3842   -2.5959    3.1812 C   0  0  0  0  0  0  0  0  0  0  0  0
   -3.6619   -2.5749    3.7001 C   0  0  0  0  0  0  0  0  0  0  0  0
   -4.4172   -1.8302    2.8730 N   0  0  0  0  0  0  0  0  0  0  0  0
   -3.6212   -1.4059    1.8723 C   0  0  0  0  0  0  0  0  0  0  0  0
   -3.8849   -0.6204    0.7698 C   0  0  0  0  0  0  0  0  0  0  0  0
   -5.2241   -0.1417    0.6066 N   0  0  0  0  0  0  0  0  0  0  0  0
   -5.5396    0.6855   -0.5381 C   0  0  0  0  0  0  0  0  0  0  0  0
   -6.9696    1.0745   -0.5232 C   0  0  0  0  0  0  0  0  0  0  0  0
   -7.3824    2.2271    0.1083 C   0  0  0  0  0  0  0  0  0  0  0  0
   -8.7200    2.5726    0.1111 C   0  0  0  0  0  0  0  0  0  0  0  0
   -9.6328    1.7958   -0.4975 N   0  0  0  0  0  0  0  0  0  0  0  0
   -9.2588    0.6532   -1.1290 C   0  0  0  0  0  0  0  0  0  0  0  0
   -7.9246    0.2974   -1.1385 C   0  0  0  0  0  0  0  0  0  0  0  0
   -2.9164   -0.3209   -0.1120 N   0  0  0  0  0  0  0  0  0  0  0  0
    0.6859   -0.8391   -0.8644 C   0  0  0  0  0  0  0  0  0  0  0  0
    5.3134   -0.5498   -0.9468 N   0  0  0  0  0  0  0  0  0  0  0  0
    6.2962    0.1834   -0.2788 C   0  0  0  0  0  0  0  0  0  0  0  0
    6.1437    1.3829    0.3744 C   0  0  0  0  0  0  0  0  0  0  0  0
    7.2074    2.0308    1.0135 C   0  0  0  0  0  0  0  0  0  0  0  0
    8.4612    1.4698    1.0033 C   0  0  0  0  0  0  0  0  0  0  0  0
    8.6524    0.2484    0.3471 C   0  0  0  0  0  0  0  0  0  0  0  0
   10.0138   -0.3432    0.3462 C   0  0  0  0  0  0  0  0  0  0  0  0
   10.1435   -1.1397   -0.7908 F   0  0  0  0  0  0  0  0  0  0  0  0
   10.1007   -1.1792    1.4457 F   0  0  0  0  0  0  0  0  0  0  0  0
   10.9798    0.6212    0.3351 F   0  0  0  0  0  0  0  0  0  0  0  0
    7.5849   -0.3614   -0.2709 C   0  0  0  0  0  0  0  0  0  0  0  0
    3.3145   -1.8081   -2.1713 H   0  0  0  0  0  0  0  0  0  0  0  0
    2.0141    0.5918   -3.6534 H   0  0  0  0  0  0  0  0  0  0  0  0
   -0.3377    1.3531   -3.8174 H   0  0  0  0  0  0  0  0  0  0  0  0
   -1.9835    0.7019   -2.0986 H   0  0  0  0  0  0  0  0  0  0  0  0
   -0.4209   -1.9410    1.3196 H   0  0  0  0  0  0  0  0  0  0  0  0
   -1.4906   -3.0919    3.5635 H   0  0  0  0  0  0  0  0  0  0  0  0
   -3.9819   -3.0780    4.6174 H   0  0  0  0  0  0  0  0  0  0  0  0
   -5.9812   -0.3628    1.2757 H   0  0  0  0  0  0  0  0  0  0  0  0
   -4.9340    1.6284   -0.5424 H   0  0  0  0  0  0  0  0  0  0  0  0
   -5.2681    0.1684   -1.4895 H   0  0  0  0  0  0  0  0  0  0  0  0
   -6.6682    2.8791    0.6112 H   0  0  0  0  0  0  0  0  0  0  0  0
   -8.9929    3.4856    0.6197 H   0  0  0  0  0  0  0  0  0  0  0  0
   -9.9920    0.0185   -1.6244 H   0  0  0  0  0  0  0  0  0  0  0  0
   -7.5953   -0.6194   -1.6407 H   0  0  0  0  0  0  0  0  0  0  0  0
    0.9982   -1.4588   -0.0395 H   0  0  0  0  0  0  0  0  0  0  0  0
    5.5657   -1.4683   -1.4130 H   0  0  0  0  0  0  0  0  0  0  0  0
    5.1878    1.8687    0.4156 H   0  0  0  0  0  0  0  0  0  0  0  0
    7.0439    2.9665    1.5119 H   0  0  0  0  0  0  0  0  0  0  0  0
    9.3243    1.9140    1.4748 H   0  0  0  0  0  0  0  0  0  0  0  0
    7.7754   -1.2964   -0.7622 H   0  0  0  0  0  0  0  0  0  0  0  0
  1  2  2  0
  2  3  1  0
  3  4  1  0
  4  5  2  0
  5  6  1  0
  6  7  2  0
  7  8  1  0
  8  9  1  0
  9 10  2  0
 10 11  1  0
 11 12  1  0
 12 13  2  0
 13 14  1  0
 14 15  2  0
 15 16  1  0
 16 17  1  0
 17 18  1  0
 18 19  1  0
 19 20  2  0
 20 21  1  0
 21 22  2  0
 22 23  1  0
 23 24  2  0
 16 25  2  0
  8 26  2  0
  2 27  1  0
 27 28  1  0
 28 29  2  0
 29 30  1  0
 30 31  2  0
 31 32  1  0
 32 33  1  0
 33 34  1  0
 33 35  1  0
 33 36  1  0
 32 37  2  0
 26  4  1  0
 37 28  1  0
 25  9  1  0
 15 11  1  0
 24 19  1  0
  3 38  1  0
  5 39  1  0
  6 40  1  0
  7 41  1  0
 10 42  1  0
 12 43  1  0
 13 44  1  0
 17 45  1  0
 18 46  1  0
 18 47  1  0
 20 48  1  0
 21 49  1  0
 23 50  1  0
 24 51  1  0
 26 52  1  0
 27 53  1  0
 29 54  1  0
 30 55  1  0
 31 56  1  0
 37 57  1  0
M  END
$$$$
