
     RDKit          3D

 50 53  0  0  0  0  0  0  0  0999 V2000
    7.7928    2.0437   -0.2361 C   0  0  0  0  0  0  0  0  0  0  0  0
    7.3406    0.7048   -0.1371 O   0  0  0  0  0  0  0  0  0  0  0  0
    5.9678    0.4716   -0.1973 C   0  0  0  0  0  0  0  0  0  0  0  0
    5.0486    1.4885   -0.3482 C   0  0  0  0  0  0  0  0  0  0  0  0
    3.6883    1.2652   -0.4087 C   0  0  0  0  0  0  0  0  0  0  0  0
    2.8068    2.2268   -0.5521 O   0  0  0  0  0  0  0  0  0  0  0  0
    1.5117    1.9724   -0.6057 C   0  0  0  0  0  0  0  0  0  0  0  0
    1.0290    0.6683   -0.5118 C   0  0  0  0  0  0  0  0  0  0  0  0
   -0.3960    0.4583   -0.5773 C   0  0  0  0  0  0  0  0  0  0  0  0
   -1.0295   -0.4926   -1.3044 C   0  0  0  0  0  0  0  0  0  0  0  0
   -2.4020   -0.6228   -1.3092 C   0  0  0  0  0  0  0  0  0  0  0  0
   -3.2232    0.2304   -0.5541 C   0  0  0  0  0  0  0  0  0  0  0  0
   -4.6176    0.0671   -0.5667 N   0  0  0  0  0  0  0  0  0  0  0  0
   -5.4749    1.1280   -0.0946 C   0  0  0  0  0  0  0  0  0  0  0  0
   -6.1424    0.5678    1.1710 C   0  0  0  0  0  0  0  0  0  0  0  0
   -7.0998   -0.5047    0.6365 C   0  0  0  0  0  0  0  0  0  0  0  0
   -6.2809   -1.6021    0.0426 C   0  0  0  0  0  0  0  0  0  0  0  0
   -5.3055   -1.1400   -1.0219 C   0  0  0  0  0  0  0  0  0  0  0  0
   -2.5971    1.1843    0.1763 C   0  0  0  0  0  0  0  0  0  0  0  0
   -1.2042    1.2979    0.1657 C   0  0  0  0  0  0  0  0  0  0  0  0
    1.9206   -0.3460   -0.3628 C   0  0  0  0  0  0  0  0  0  0  0  0
    1.4640   -1.5062   -0.2808 O   0  0  0  0  0  0  0  0  0  0  0  0
    3.2804   -0.0624   -0.3080 C   0  0  0  0  0  0  0  0  0  0  0  0
    4.1464   -1.0980   -0.1586 C   0  0  0  0  0  0  0  0  0  0  0  0
    5.5009   -0.8441   -0.1014 C   0  0  0  0  0  0  0  0  0  0  0  0
    6.4224   -1.8749    0.0510 O   0  0  0  0  0  0  0  0  0  0  0  0
    5.9424   -3.2031    0.1474 C   0  0  0  0  0  0  0  0  0  0  0  0
    7.3169    2.5092   -1.1404 H   0  0  0  0  0  0  0  0  0  0  0  0
    8.8982    1.9796   -0.4436 H   0  0  0  0  0  0  0  0  0  0  0  0
    7.6230    2.6235    0.6722 H   0  0  0  0  0  0  0  0  0  0  0  0
    5.4051    2.5253   -0.4245 H   0  0  0  0  0  0  0  0  0  0  0  0
    0.8394    2.8158   -0.7254 H   0  0  0  0  0  0  0  0  0  0  0  0
   -0.4638   -1.1670   -1.8951 H   0  0  0  0  0  0  0  0  0  0  0  0
   -2.8493   -1.4136   -1.9237 H   0  0  0  0  0  0  0  0  0  0  0  0
   -6.2897    1.2091   -0.8855 H   0  0  0  0  0  0  0  0  0  0  0  0
   -5.0019    2.0885    0.0507 H   0  0  0  0  0  0  0  0  0  0  0  0
   -6.6568    1.3400    1.7404 H   0  0  0  0  0  0  0  0  0  0  0  0
   -5.3529    0.0255    1.7295 H   0  0  0  0  0  0  0  0  0  0  0  0
   -7.6979   -0.9199    1.4491 H   0  0  0  0  0  0  0  0  0  0  0  0
   -7.7303   -0.0539   -0.1736 H   0  0  0  0  0  0  0  0  0  0  0  0
   -6.9680   -2.3376   -0.4654 H   0  0  0  0  0  0  0  0  0  0  0  0
   -5.7449   -2.1143    0.8543 H   0  0  0  0  0  0  0  0  0  0  0  0
   -5.8050   -0.9062   -1.9655 H   0  0  0  0  0  0  0  0  0  0  0  0
   -4.6247   -1.9915   -1.1914 H   0  0  0  0  0  0  0  0  0  0  0  0
   -3.1917    1.8699    0.7865 H   0  0  0  0  0  0  0  0  0  0  0  0
   -0.8050    2.0918    0.7823 H   0  0  0  0  0  0  0  0  0  0  0  0
    3.7518   -2.1225   -0.0857 H   0  0  0  0  0  0  0  0  0  0  0  0
    6.7227   -3.9300    0.3638 H   0  0  0  0  0  0  0  0  0  0  0  0
    5.1537   -3.1781    0.9541 H   0  0  0  0  0  0  0  0  0  0  0  0
    5.3818   -3.4219   -0.7966 H   0  0  0  0  0  0  0  0  0  0  0  0
  1  2  1  0
  2  3  1  0
  3  4  2  0
  4  5  1  0
  5  6  1  0
  6  7  1  0
  7  8  2  0
  8  9  1  0
  9 10  2  0
 10 11  1  0
 11 12  2  0
 12 13  1  0
 13 14  1  0
 14 15  1  0
 15 16  1  0
 16 17  1  0
 17 18  1  0
 12 19  1  0
 19 20  2  0
  8 21  1  0
 21 22  2  0
 21 23  1  0
 23 24  1  0
 24 25  2  0
 25 26  1  0
 26 27  1  0
 25  3  1  0
 23  5  2  0
 20  9  1  0
 18 13  1  0
  1 28  1  0
  1 29  1  0
  1 30  1  0
  4 31  1  0
  7 32  1  0
 10 33  1  0
 11 34  1  0
 14 35  1  0
 14 36  1  0
 15 37  1  0
 15 38  1  0
 16 39  1  0
 16 40  1  0
 17 41  1  0
 17 42  1  0
 18 43  1  0
 18 44  1  0
 19 45  1  0
 20 46  1  0
 24 47  1  0
 27 48  1  0
 27 49  1  0
 27 50  1  0
M  END
$$$$
