
     RDKit          3D

 83 85  0  0  0  0  0  0  0  0999 V2000
    5.5619    4.3705    1.1086 C   0  0  0  0  0  0  0  0  0  0  0  0
    6.2374    3.0298    0.9255 C   0  0  0  0  0  0  0  0  0  0  0  0
    6.6516    2.8387   -0.5249 C   0  0  0  0  0  0  0  0  0  0  0  0
    7.3135    1.5494   -0.7458 C   0  0  0  0  0  0  0  0  0  0  0  0
    6.6433    0.2747   -0.4926 C   0  0  0  0  0  0  0  0  0  0  0  0
    5.4448   -0.1231   -1.2567 C   0  0  0  0  0  0  0  0  0  0  0  0
    4.1972    0.6211   -1.0773 C   0  0  0  0  0  0  0  0  0  0  0  0
    3.6525    0.5155    0.3145 C   0  0  0  0  0  0  0  0  0  0  0  0
    4.2263   -0.1036    1.1826 O   0  0  0  0  0  0  0  0  0  0  0  0
    2.0910    1.3420    0.6814 S   0  0  0  0  0  0  0  0  0  0  0  0
    1.5601    0.8856    2.3700 C   0  0  0  0  0  0  0  0  0  0  0  0
    1.2900   -0.5699    2.4824 C   0  0  0  0  0  0  0  0  0  0  0  0
    0.2123   -1.0310    1.5686 C   0  0  0  0  0  0  0  0  0  0  0  0
    0.4672   -1.9331    0.6325 C   0  0  0  0  0  0  0  0  0  0  0  0
   -0.5216   -2.4501   -0.3031 C   0  0  2  0  0  0  0  0  0  0  0  0
   -0.3177   -2.0712   -1.7560 C   0  0  0  0  0  0  0  0  0  0  0  0
   -0.2035   -0.6314   -1.9792 C   0  0  0  0  0  0  0  0  0  0  0  0
   -0.4449    0.0680   -0.9082 O   0  0  0  0  0  0  0  0  0  0  0  0
    0.0943    0.2670   -2.9928 N   0  0  0  0  0  0  0  0  0  0  0  0
    0.1378    1.6978   -2.7826 C   0  0  0  0  0  0  0  0  0  0  0  0
   -1.0932    2.3869   -2.4223 C   0  0  0  0  0  0  0  0  0  0  0  0
   -2.0821    2.1352   -1.7615 N   0  0  0  0  0  0  0  0  0  0  0  0
   -3.1288    2.8856   -1.5098 C   0  0  0  0  0  0  0  0  0  0  0  0
   -3.1308    4.1384   -2.0590 C   0  0  0  0  0  0  0  0  0  0  0  0
   -1.5146    4.1274   -2.9544 S   0  0  0  0  0  0  0  0  0  0  0  0
   -4.2385    2.3729   -0.6716 C   0  0  0  0  0  0  0  0  0  0  0  0
   -4.4471    1.1177   -0.6694 N   0  0  0  0  0  0  0  0  0  0  0  0
   -4.5488    0.6909    0.7167 C   0  0  1  0  0  0  0  0  0  0  0  0
   -3.5402    1.5237    1.5591 C   0  0  0  0  0  0  0  0  0  0  0  0
   -5.8684    1.2804    1.1360 C   0  0  0  0  0  0  0  0  0  0  0  0
   -5.4776    2.9803    0.4322 S   0  0  0  0  0  0  0  0  0  0  0  0
   -4.3243   -0.7204    0.9505 C   0  0  0  0  0  0  0  0  0  0  0  0
   -3.8364   -1.0332    2.1033 O   0  0  0  0  0  0  0  0  0  0  0  0
   -4.4769   -1.9238    0.2798 N   0  0  0  0  0  0  0  0  0  0  0  0
   -4.0608   -3.2418    0.7881 C   0  0  1  0  0  0  0  0  0  0  0  0
   -4.8871   -4.3815    0.4262 C   0  0  0  0  0  0  0  0  0  0  0  0
   -6.3236   -4.3144    0.8954 C   0  0  0  0  0  0  0  0  0  0  0  0
   -4.8041   -4.7815   -1.0422 C   0  0  0  0  0  0  0  0  0  0  0  0
   -2.6213   -3.4662    0.4769 C   0  0  0  0  0  0  0  0  0  0  0  0
   -2.0703   -4.5550    0.5960 O   0  0  0  0  0  0  0  0  0  0  0  0
   -1.8650   -2.3782    0.0310 O   0  0  0  0  0  0  0  0  0  0  0  0
    6.0667    5.1359    0.4674 H   0  0  0  0  0  0  0  0  0  0  0  0
    5.6894    4.7002    2.1564 H   0  0  0  0  0  0  0  0  0  0  0  0
    4.4817    4.3397    0.8859 H   0  0  0  0  0  0  0  0  0  0  0  0
    7.1635    3.0789    1.5651 H   0  0  0  0  0  0  0  0  0  0  0  0
    5.6337    2.2284    1.3422 H   0  0  0  0  0  0  0  0  0  0  0  0
    5.8631    3.0889   -1.2418 H   0  0  0  0  0  0  0  0  0  0  0  0
    7.4370    3.6873   -0.7288 H   0  0  0  0  0  0  0  0  0  0  0  0
    7.7467    1.5597   -1.8251 H   0  0  0  0  0  0  0  0  0  0  0  0
    8.3101    1.5654   -0.1645 H   0  0  0  0  0  0  0  0  0  0  0  0
    7.4211   -0.5596   -0.5939 H   0  0  0  0  0  0  0  0  0  0  0  0
    6.4135    0.2616    0.6342 H   0  0  0  0  0  0  0  0  0  0  0  0
    5.6951   -0.1559   -2.3703 H   0  0  0  0  0  0  0  0  0  0  0  0
    5.2244   -1.2343   -1.0321 H   0  0  0  0  0  0  0  0  0  0  0  0
    4.2414    1.6484   -1.4428 H   0  0  0  0  0  0  0  0  0  0  0  0
    3.3824    0.1017   -1.7140 H   0  0  0  0  0  0  0  0  0  0  0  0
    0.6950    1.5277    2.6115 H   0  0  0  0  0  0  0  0  0  0  0  0
    2.3916    1.1809    3.0398 H   0  0  0  0  0  0  0  0  0  0  0  0
    2.2639   -1.0891    2.2356 H   0  0  0  0  0  0  0  0  0  0  0  0
    1.0749   -0.8263    3.5527 H   0  0  0  0  0  0  0  0  0  0  0  0
   -0.8073   -0.6638    1.6348 H   0  0  0  0  0  0  0  0  0  0  0  0
    1.4994   -2.3148    0.5600 H   0  0  0  0  0  0  0  0  0  0  0  0
   -0.3167   -3.6151   -0.2269 H   0  0  0  0  0  0  0  0  0  0  0  0
    0.5102   -2.7032   -2.1526 H   0  0  0  0  0  0  0  0  0  0  0  0
   -1.2426   -2.4963   -2.2618 H   0  0  0  0  0  0  0  0  0  0  0  0
    0.3014    0.0199   -3.9642 H   0  0  0  0  0  0  0  0  0  0  0  0
    0.8751    1.9648   -1.9705 H   0  0  0  0  0  0  0  0  0  0  0  0
    0.5754    2.1685   -3.6868 H   0  0  0  0  0  0  0  0  0  0  0  0
   -3.8160    4.9754   -2.0405 H   0  0  0  0  0  0  0  0  0  0  0  0
   -3.9187    1.4068    2.6006 H   0  0  0  0  0  0  0  0  0  0  0  0
   -3.6377    2.5670    1.2852 H   0  0  0  0  0  0  0  0  0  0  0  0
   -2.5475    1.0809    1.5267 H   0  0  0  0  0  0  0  0  0  0  0  0
   -6.7378    0.9170    0.6008 H   0  0  0  0  0  0  0  0  0  0  0  0
   -5.9779    1.3829    2.2277 H   0  0  0  0  0  0  0  0  0  0  0  0
   -4.9153   -2.0905   -0.6386 H   0  0  0  0  0  0  0  0  0  0  0  0
   -4.0540   -3.1184    1.8906 H   0  0  0  0  0  0  0  0  0  0  0  0
   -4.4488   -5.2635    0.9763 H   0  0  0  0  0  0  0  0  0  0  0  0
   -6.4017   -4.4460    1.9989 H   0  0  0  0  0  0  0  0  0  0  0  0
   -6.9077   -5.2103    0.5088 H   0  0  0  0  0  0  0  0  0  0  0  0
   -6.8867   -3.4475    0.4999 H   0  0  0  0  0  0  0  0  0  0  0  0
   -5.6578   -5.4684   -1.3110 H   0  0  0  0  0  0  0  0  0  0  0  0
   -4.7449   -3.8962   -1.7122 H   0  0  0  0  0  0  0  0  0  0  0  0
   -3.8919   -5.3787   -1.2612 H   0  0  0  0  0  0  0  0  0  0  0  0
  1  2  1  0
  2  3  1  0
  3  4  1  0
  4  5  1  0
  5  6  1  0
  6  7  1  0
  7  8  1  0
  8  9  2  0
  8 10  1  0
 10 11  1  0
 11 12  1  0
 12 13  1  0
 13 14  2  0
 14 15  1  0
 15 16  1  0
 16 17  1  0
 17 18  2  0
 17 19  1  0
 19 20  1  0
 20 21  1  0
 21 22  2  0
 22 23  1  0
 23 24  2  0
 24 25  1  0
 23 26  1  0
 26 27  2  0
 27 28  1  0
 28 29  1  1
 28 30  1  0
 30 31  1  0
 28 32  1  0
 32 33  2  0
 32 34  1  0
 34 35  1  0
 35 36  1  0
 36 37  1  0
 36 38  1  0
 35 39  1  0
 39 40  2  0
 39 41  1  0
 41 15  1  0
 25 21  1  0
 31 26  1  0
  1 42  1  0
  1 43  1  0
  1 44  1  0
  2 45  1  0
  2 46  1  0
  3 47  1  0
  3 48  1  0
  4 49  1  0
  4 50  1  0
  5 51  1  0
  5 52  1  0
  6 53  1  0
  6 54  1  0
  7 55  1  0
  7 56  1  0
 11 57  1  0
 11 58  1  0
 12 59  1  0
 12 60  1  0
 13 61  1  0
 14 62  1  0
 15 63  1  6
 16 64  1  0
 16 65  1  0
 19 66  1  0
 20 67  1  0
 20 68  1  0
 24 69  1  0
 29 70  1  0
 29 71  1  0
 29 72  1  0
 30 73  1  0
 30 74  1  0
 34 75  1  0
 35 76  1  1
 36 77  1  0
 37 78  1  0
 37 79  1  0
 37 80  1  0
 38 81  1  0
 38 82  1  0
 38 83  1  0
M  END
$$$$
