
     RDKit          3D

 56 60  0  0  0  0  0  0  0  0999 V2000
   -0.6564   -1.0601   -2.9020 O   0  0  0  0  0  0  0  0  0  0  0  0
   -0.5244   -1.1435   -1.6573 C   0  0  0  0  0  0  0  0  0  0  0  0
   -1.2264   -2.1744   -0.8798 C   0  0  0  0  0  0  0  0  0  0  0  0
   -2.2009   -3.0013   -1.6674 C   0  0  0  0  0  0  0  0  0  0  0  0
   -3.2742   -2.1106   -2.2356 C   0  0  0  0  0  0  0  0  0  0  0  0
   -3.9924   -1.4163   -1.1368 C   0  0  0  0  0  0  0  0  0  0  0  0
   -3.6053   -0.2231   -0.6571 N   0  0  0  0  0  0  0  0  0  0  0  0
   -4.2676    0.3945    0.3416 C   0  0  0  0  0  0  0  0  0  0  0  0
   -3.8751    1.6200    0.8389 C   0  0  0  0  0  0  0  0  0  0  0  0
   -4.6053    2.2069    1.8758 C   0  0  0  0  0  0  0  0  0  0  0  0
   -5.6990    1.5680    2.3899 C   0  0  0  0  0  0  0  0  0  0  0  0
   -6.0938    0.3365    1.8906 C   0  0  0  0  0  0  0  0  0  0  0  0
   -5.3816   -0.2657    0.8590 C   0  0  0  0  0  0  0  0  0  0  0  0
   -5.7889   -1.4850    0.3790 C   0  0  0  0  0  0  0  0  0  0  0  0
   -6.7927   -2.0281    0.8805 O   0  0  0  0  0  0  0  0  0  0  0  0
   -5.0814   -2.0386   -0.6154 N   0  0  0  0  0  0  0  0  0  0  0  0
    0.3327   -0.2117   -0.9756 N   0  0  0  0  0  0  0  0  0  0  0  0
    0.5032   -0.2853    0.4575 C   0  0  0  0  0  0  0  0  0  0  0  0
    1.9900   -0.1436    0.8588 C   0  0  0  0  0  0  0  0  0  0  0  0
    2.4744    1.0812    0.1324 C   0  0  0  0  0  0  0  0  0  0  0  0
    3.6511    1.7209    0.7468 N   0  0  0  0  0  0  0  0  0  0  0  0
    3.4594    2.9843    1.3880 C   0  0  0  0  0  0  0  0  0  0  0  0
    2.4374    3.6342    1.5109 O   0  0  0  0  0  0  0  0  0  0  0  0
    5.0993    3.3855    1.9728 S   0  0  0  0  0  0  0  0  0  0  0  0
    5.8666    1.9698    1.3784 C   0  0  0  0  0  0  0  0  0  0  0  0
    7.2216    1.5507    1.4556 C   0  0  0  0  0  0  0  0  0  0  0  0
    7.6051    0.3580    0.8963 C   0  0  0  0  0  0  0  0  0  0  0  0
    6.6167   -0.3525    0.2901 C   0  0  0  0  0  0  0  0  0  0  0  0
    5.3259    0.0546    0.2208 C   0  0  0  0  0  0  0  0  0  0  0  0
    4.8847    1.2833    0.7866 C   0  0  0  0  0  0  0  0  0  0  0  0
    2.5086    0.8173   -1.2992 C   0  0  0  0  0  0  0  0  0  0  0  0
    1.0206    0.8051   -1.7670 C   0  0  0  0  0  0  0  0  0  0  0  0
   -0.5048   -2.8298   -0.3065 H   0  0  0  0  0  0  0  0  0  0  0  0
   -1.8199   -1.6776   -0.0663 H   0  0  0  0  0  0  0  0  0  0  0  0
   -1.6911   -3.5828   -2.4681 H   0  0  0  0  0  0  0  0  0  0  0  0
   -2.6902   -3.7645   -1.0213 H   0  0  0  0  0  0  0  0  0  0  0  0
   -2.9247   -1.3657   -2.9511 H   0  0  0  0  0  0  0  0  0  0  0  0
   -3.9932   -2.8054   -2.7656 H   0  0  0  0  0  0  0  0  0  0  0  0
   -3.0084    2.1084    0.4192 H   0  0  0  0  0  0  0  0  0  0  0  0
   -4.3017    3.1682    2.2695 H   0  0  0  0  0  0  0  0  0  0  0  0
   -6.2582    2.0327    3.1945 H   0  0  0  0  0  0  0  0  0  0  0  0
   -6.9629   -0.1174    2.3360 H   0  0  0  0  0  0  0  0  0  0  0  0
   -5.3934   -2.9712   -0.9822 H   0  0  0  0  0  0  0  0  0  0  0  0
    0.1088   -1.2402    0.8094 H   0  0  0  0  0  0  0  0  0  0  0  0
   -0.0060    0.5609    0.9544 H   0  0  0  0  0  0  0  0  0  0  0  0
    2.4924   -1.0290    0.4400 H   0  0  0  0  0  0  0  0  0  0  0  0
    2.0875   -0.0787    1.9449 H   0  0  0  0  0  0  0  0  0  0  0  0
    1.6056    1.8097    0.2748 H   0  0  0  0  0  0  0  0  0  0  0  0
    7.8768    2.2229    1.9664 H   0  0  0  0  0  0  0  0  0  0  0  0
    8.6230    0.0241    0.9440 H   0  0  0  0  0  0  0  0  0  0  0  0
    6.8826   -1.3138   -0.1704 H   0  0  0  0  0  0  0  0  0  0  0  0
    4.6491   -0.5846   -0.2760 H   0  0  0  0  0  0  0  0  0  0  0  0
    2.7671   -0.2616   -1.4987 H   0  0  0  0  0  0  0  0  0  0  0  0
    2.9960    1.5234   -1.9552 H   0  0  0  0  0  0  0  0  0  0  0  0
    0.5765    1.8073   -1.6344 H   0  0  0  0  0  0  0  0  0  0  0  0
    0.9575    0.5339   -2.8169 H   0  0  0  0  0  0  0  0  0  0  0  0
  1  2  2  0
  2  3  1  0
  3  4  1  0
  4  5  1  0
  5  6  1  0
  6  7  2  0
  7  8  1  0
  8  9  2  0
  9 10  1  0
 10 11  2  0
 11 12  1  0
 12 13  2  0
 13 14  1  0
 14 15  2  0
 14 16  1  0
  2 17  1  0
 17 18  1  0
 18 19  1  0
 19 20  1  0
 20 21  1  0
 21 22  1  0
 22 23  2  0
 22 24  1  0
 24 25  1  0
 25 26  2  0
 26 27  1  0
 27 28  2  0
 28 29  1  0
 29 30  2  0
 20 31  1  0
 31 32  1  0
 16  6  1  0
 32 17  1  0
 13  8  1  0
 30 21  1  0
 30 25  1  0
  3 33  1  0
  3 34  1  0
  4 35  1  0
  4 36  1  0
  5 37  1  0
  5 38  1  0
  9 39  1  0
 10 40  1  0
 11 41  1  0
 12 42  1  0
 16 43  1  0
 18 44  1  0
 18 45  1  0
 19 46  1  0
 19 47  1  0
 20 48  1  0
 26 49  1  0
 27 50  1  0
 28 51  1  0
 29 52  1  0
 31 53  1  0
 31 54  1  0
 32 55  1  0
 32 56  1  0
M  END
$$$$
