
     RDKit          3D

 43 46  0  0  0  0  0  0  0  0999 V2000
   -6.3271    2.0864   -1.3176 O   0  0  0  0  0  0  0  0  0  0  0  0
   -5.1952    2.8634   -1.3549 N   0  0  0  0  0  0  0  0  0  0  0  0
   -5.1611    3.8879   -2.0603 O   0  0  0  0  0  0  0  0  0  0  0  0
   -4.0750    2.4762   -0.5786 C   0  0  0  0  0  0  0  0  0  0  0  0
   -2.9198    3.2346   -0.5924 C   0  0  0  0  0  0  0  0  0  0  0  0
   -1.8802    2.7818    0.1938 C   0  0  0  0  0  0  0  0  0  0  0  0
   -1.9325    1.6549    0.9630 C   0  0  0  0  0  0  0  0  0  0  0  0
   -3.0864    0.8924    0.9803 C   0  0  0  0  0  0  0  0  0  0  0  0
   -4.1385    1.3352    0.1955 C   0  0  0  0  0  0  0  0  0  0  0  0
   -3.2781   -0.3036    1.7354 N   0  0  0  0  0  0  0  0  0  0  0  0
   -2.3666   -1.1781    1.7042 C   0  0  0  0  0  0  0  0  0  0  0  0
   -2.6266   -2.3371    2.4771 N   0  0  0  0  0  0  0  0  0  0  0  0
   -1.7519   -3.2953    2.5117 C   0  0  0  0  0  0  0  0  0  0  0  0
   -0.4465   -3.3356    1.8094 C   0  0  0  0  0  0  0  0  0  0  0  0
   -0.3020   -2.0733    1.0446 C   0  0  0  0  0  0  0  0  0  0  0  0
   -1.1467   -1.0853    0.9772 N   0  0  0  0  0  0  0  0  0  0  0  0
    0.9246   -1.9038    0.2723 C   0  0  0  0  0  0  0  0  0  0  0  0
    1.9277   -2.8533    0.2309 C   0  0  0  0  0  0  0  0  0  0  0  0
    3.0963   -2.7181   -0.4906 C   0  0  0  0  0  0  0  0  0  0  0  0
    3.3017   -1.5775   -1.2232 C   0  0  0  0  0  0  0  0  0  0  0  0
    2.3385   -0.5905   -1.2243 C   0  0  0  0  0  0  0  0  0  0  0  0
    2.5689    0.6520   -2.0260 C   0  0  0  0  0  0  0  0  0  0  0  0
    3.2445    1.6603   -1.2236 N   0  0  0  0  0  0  0  0  0  0  0  0
    4.5986    1.7882   -1.1379 C   0  0  0  0  0  0  0  0  0  0  0  0
    4.8763    2.8310   -0.3027 N   0  0  0  0  0  0  0  0  0  0  0  0
    3.6772    3.3086    0.0966 C   0  0  0  0  0  0  0  0  0  0  0  0
    2.6780    2.5908   -0.4680 N   0  0  0  0  0  0  0  0  0  0  0  0
    1.2117   -0.7909   -0.4906 C   0  0  0  0  0  0  0  0  0  0  0  0
   -2.8916    4.1267   -1.2073 H   0  0  0  0  0  0  0  0  0  0  0  0
   -0.9646    3.3606    0.1986 H   0  0  0  0  0  0  0  0  0  0  0  0
   -1.1128    1.3082    1.5757 H   0  0  0  0  0  0  0  0  0  0  0  0
   -5.0715    0.7543    0.1844 H   0  0  0  0  0  0  0  0  0  0  0  0
   -1.8398   -4.2213    3.0627 H   0  0  0  0  0  0  0  0  0  0  0  0
   -0.4857   -4.1972    1.0807 H   0  0  0  0  0  0  0  0  0  0  0  0
    0.4125   -3.5297    2.4786 H   0  0  0  0  0  0  0  0  0  0  0  0
    1.8099   -3.7818    0.7999 H   0  0  0  0  0  0  0  0  0  0  0  0
    3.8458   -3.5102   -0.4766 H   0  0  0  0  0  0  0  0  0  0  0  0
    4.2243   -1.5207   -1.7658 H   0  0  0  0  0  0  0  0  0  0  0  0
    3.2236    0.4014   -2.8715 H   0  0  0  0  0  0  0  0  0  0  0  0
    1.6301    1.1196   -2.3683 H   0  0  0  0  0  0  0  0  0  0  0  0
    5.3080    1.1572   -1.6545 H   0  0  0  0  0  0  0  0  0  0  0  0
    3.6355    4.1563    0.7791 H   0  0  0  0  0  0  0  0  0  0  0  0
    0.4665    0.0200   -0.5171 H   0  0  0  0  0  0  0  0  0  0  0  0
  1  2  1  0
  2  3  2  0
  2  4  1  0
  4  5  2  0
  5  6  1  0
  6  7  2  0
  7  8  1  0
  8  9  2  0
  8 10  1  0
 10 11  2  0
 11 12  1  0
 12 13  2  0
 13 14  1  0
 14 15  1  0
 15 16  2  0
 15 17  1  0
 17 18  2  0
 18 19  1  0
 19 20  2  0
 20 21  1  0
 21 22  1  0
 22 23  1  0
 23 24  1  0
 24 25  2  0
 25 26  1  0
 26 27  2  0
 21 28  2  0
  9  4  1  0
 16 11  1  0
 28 17  1  0
 27 23  1  0
  5 29  1  0
  6 30  1  0
  7 31  1  0
  9 32  1  0
 13 33  1  0
 14 34  1  0
 14 35  1  0
 18 36  1  0
 19 37  1  0
 20 38  1  0
 22 39  1  0
 22 40  1  0
 24 41  1  0
 26 42  1  0
 28 43  1  0
M  CHG  2   1  -1   2   1
M  END
$$$$
