
     RDKit          3D

139138  0  0  0  0  0  0  0  0999 V2000
   -6.7102    4.0394    1.4756 C   0  0  0  0  0  0  0  0  0  0  0  0
   -5.8119    4.3837    2.6278 C   0  0  0  0  0  0  0  0  0  0  0  0
   -4.5309    5.0431    2.2179 C   0  0  0  0  0  0  0  0  0  0  0  0
   -3.6996    4.1870    1.3022 C   0  0  0  0  0  0  0  0  0  0  0  0
   -3.3079    2.8750    1.9238 C   0  0  0  0  0  0  0  0  0  0  0  0
   -2.4829    2.0365    1.0074 C   0  0  0  0  0  0  0  0  0  0  0  0
   -1.1917    2.6420    0.5615 C   0  0  0  0  0  0  0  0  0  0  0  0
   -0.3342    2.9305    1.7619 C   0  0  0  0  0  0  0  0  0  0  0  0
    0.9842    3.5250    1.4159 C   0  0  0  0  0  0  0  0  0  0  0  0
    1.3322    4.7445    1.8761 C   0  0  0  0  0  0  0  0  0  0  0  0
    0.7247    5.7884    2.7186 C   0  0  0  0  0  0  0  0  0  0  0  0
    1.4587    6.1737    3.9356 C   0  0  0  0  0  0  0  0  0  0  0  0
    1.7178    5.1940    5.0022 C   0  0  0  0  0  0  0  0  0  0  0  0
    2.5173    3.9854    4.6888 C   0  0  0  0  0  0  0  0  0  0  0  0
    2.6879    3.1422    5.9518 C   0  0  0  0  0  0  0  0  0  0  0  0
    3.4949    1.9079    5.6782 C   0  0  0  0  0  0  0  0  0  0  0  0
    2.9298    0.9738    4.6722 C   0  0  0  0  0  0  0  0  0  0  0  0
    1.5991    0.4151    5.0131 C   0  0  0  0  0  0  0  0  0  0  0  0
    0.5635    0.2196    5.6770 O   0  0  0  0  0  0  0  0  0  0  0  0
    1.1547   -0.4297    4.0348 O   0  0  0  0  0  0  0  0  0  0  0  0
   -0.0373   -1.1500    3.9888 C   0  0  0  0  0  0  0  0  0  0  0  0
   -0.0145   -1.9055    2.6571 C   0  0  2  0  0  0  0  0  0  0  0  0
   -1.2812   -2.6376    2.3741 C   0  0  0  0  0  0  0  0  0  0  0  0
   -2.3650   -1.7672    2.4437 O   0  0  0  0  0  0  0  0  0  0  0  0
   -3.8129   -2.5867    2.1200 P   0  0  0  0  0  0  0  0  0  0  0  0
   -3.6467   -3.4988    0.9150 O   0  0  0  0  0  0  0  0  0  0  0  0
   -4.2827   -3.5495    3.4274 O   0  0  0  0  0  0  0  0  0  0  0  0
   -5.0125   -1.4726    1.8158 O   0  0  0  0  0  0  0  0  0  0  0  0
   -5.3195   -1.4357    0.4341 C   0  0  0  0  0  0  0  0  0  0  0  0
   -6.5467   -0.5937    0.2841 C   0  0  0  0  0  0  0  0  0  0  0  0
   -6.9995   -0.4493   -1.0738 N   0  0  0  0  0  4  0  0  0  0  0  0
   -7.8319   -1.5686   -1.4907 C   0  0  0  0  0  0  0  0  0  0  0  0
   -7.8385    0.7363   -1.1009 C   0  0  0  0  0  0  0  0  0  0  0  0
   -5.9694   -0.2838   -2.0490 C   0  0  0  0  0  0  0  0  0  0  0  0
    1.1205   -2.7575    2.5892 O   0  0  0  0  0  0  0  0  0  0  0  0
    2.1389   -2.4891    1.6720 C   0  0  0  0  0  0  0  0  0  0  0  0
    1.9954   -1.4887    0.9518 O   0  0  0  0  0  0  0  0  0  0  0  0
    3.4154   -3.2605    1.4258 C   0  0  0  0  0  0  0  0  0  0  0  0
    3.4393   -4.5313    2.1776 C   0  0  0  0  0  0  0  0  0  0  0  0
    2.3963   -5.5144    1.9417 C   0  0  0  0  0  0  0  0  0  0  0  0
    2.1912   -6.3570    0.7780 C   0  0  0  0  0  0  0  0  0  0  0  0
    2.1272   -5.8997   -0.6081 C   0  0  0  0  0  0  0  0  0  0  0  0
    3.4051   -5.5329   -1.2723 C   0  0  0  0  0  0  0  0  0  0  0  0
    3.1398   -5.0005   -2.6777 C   0  0  0  0  0  0  0  0  0  0  0  0
    2.2812   -3.8067   -2.6730 C   0  0  0  0  0  0  0  0  0  0  0  0
    2.6289   -2.5917   -3.1363 C   0  0  0  0  0  0  0  0  0  0  0  0
    3.8835   -2.0682   -3.7580 C   0  0  0  0  0  0  0  0  0  0  0  0
    3.5316   -1.5695   -5.1142 C   0  0  0  0  0  0  0  0  0  0  0  0
    4.7432   -1.0197   -5.8499 C   0  0  0  0  0  0  0  0  0  0  0  0
    5.3060    0.1179   -5.0541 C   0  0  0  0  0  0  0  0  0  0  0  0
    6.5130    0.6899   -5.7375 C   0  0  0  0  0  0  0  0  0  0  0  0
    6.1667    1.2183   -7.0867 C   0  0  0  0  0  0  0  0  0  0  0  0
    7.3784    1.8204   -7.7885 C   0  0  0  0  0  0  0  0  0  0  0  0
    6.9464    2.3385   -9.1504 C   0  0  0  0  0  0  0  0  0  0  0  0
   -6.6996    4.8145    0.7022 H   0  0  0  0  0  0  0  0  0  0  0  0
   -7.7537    3.8954    1.8097 H   0  0  0  0  0  0  0  0  0  0  0  0
   -6.3689    3.0861    1.0157 H   0  0  0  0  0  0  0  0  0  0  0  0
   -5.5662    3.5366    3.2666 H   0  0  0  0  0  0  0  0  0  0  0  0
   -6.3427    5.1304    3.2851 H   0  0  0  0  0  0  0  0  0  0  0  0
   -4.7839    5.9764    1.6817 H   0  0  0  0  0  0  0  0  0  0  0  0
   -3.9574    5.3128    3.1112 H   0  0  0  0  0  0  0  0  0  0  0  0
   -2.7888    4.7796    1.0329 H   0  0  0  0  0  0  0  0  0  0  0  0
   -4.2457    4.0475    0.3523 H   0  0  0  0  0  0  0  0  0  0  0  0
   -4.2621    2.3161    2.1015 H   0  0  0  0  0  0  0  0  0  0  0  0
   -2.8086    3.0394    2.8789 H   0  0  0  0  0  0  0  0  0  0  0  0
   -3.0467    1.7189    0.1060 H   0  0  0  0  0  0  0  0  0  0  0  0
   -2.2338    1.0772    1.5408 H   0  0  0  0  0  0  0  0  0  0  0  0
   -1.3227    3.5268   -0.0914 H   0  0  0  0  0  0  0  0  0  0  0  0
   -0.6926    1.8656   -0.0842 H   0  0  0  0  0  0  0  0  0  0  0  0
   -0.1578    1.9385    2.2584 H   0  0  0  0  0  0  0  0  0  0  0  0
   -0.9051    3.5428    2.4645 H   0  0  0  0  0  0  0  0  0  0  0  0
    1.6736    2.9763    0.7889 H   0  0  0  0  0  0  0  0  0  0  0  0
    2.3378    5.0767    1.5538 H   0  0  0  0  0  0  0  0  0  0  0  0
   -0.3652    5.5902    2.9038 H   0  0  0  0  0  0  0  0  0  0  0  0
    0.6873    6.7137    2.0564 H   0  0  0  0  0  0  0  0  0  0  0  0
    2.4232    6.6790    3.5836 H   0  0  0  0  0  0  0  0  0  0  0  0
    0.9363    7.0601    4.4308 H   0  0  0  0  0  0  0  0  0  0  0  0
    0.7565    4.8631    5.5004 H   0  0  0  0  0  0  0  0  0  0  0  0
    2.2225    5.7662    5.8457 H   0  0  0  0  0  0  0  0  0  0  0  0
    3.5129    4.2564    4.3468 H   0  0  0  0  0  0  0  0  0  0  0  0
    1.9326    3.3274    4.0122 H   0  0  0  0  0  0  0  0  0  0  0  0
    1.7079    2.9617    6.4098 H   0  0  0  0  0  0  0  0  0  0  0  0
    3.2796    3.7572    6.6606 H   0  0  0  0  0  0  0  0  0  0  0  0
    3.6824    1.4151    6.6455 H   0  0  0  0  0  0  0  0  0  0  0  0
    4.4868    2.2381    5.3068 H   0  0  0  0  0  0  0  0  0  0  0  0
    2.8668    1.4140    3.6631 H   0  0  0  0  0  0  0  0  0  0  0  0
    3.6268    0.1074    4.6015 H   0  0  0  0  0  0  0  0  0  0  0  0
   -0.9434   -0.5138    3.9309 H   0  0  0  0  0  0  0  0  0  0  0  0
   -0.1894   -1.8378    4.8485 H   0  0  0  0  0  0  0  0  0  0  0  0
    0.1251   -1.1181    1.8922 H   0  0  0  0  0  0  0  0  0  0  0  0
   -1.2170   -2.9447    1.2898 H   0  0  0  0  0  0  0  0  0  0  0  0
   -1.4451   -3.5160    3.0177 H   0  0  0  0  0  0  0  0  0  0  0  0
   -3.8622   -4.4432    3.3811 H   0  0  0  0  0  0  0  0  0  0  0  0
   -5.4942   -2.4910    0.1406 H   0  0  0  0  0  0  0  0  0  0  0  0
   -4.4212   -0.9828   -0.0316 H   0  0  0  0  0  0  0  0  0  0  0  0
   -7.3823   -1.1428    0.8171 H   0  0  0  0  0  0  0  0  0  0  0  0
   -6.4313    0.3661    0.8234 H   0  0  0  0  0  0  0  0  0  0  0  0
   -8.7282   -1.5558   -0.8456 H   0  0  0  0  0  0  0  0  0  0  0  0
   -8.1609   -1.3208   -2.5228 H   0  0  0  0  0  0  0  0  0  0  0  0
   -7.2872   -2.5301   -1.4765 H   0  0  0  0  0  0  0  0  0  0  0  0
   -8.0997    1.0134   -2.1505 H   0  0  0  0  0  0  0  0  0  0  0  0
   -7.3237    1.6054   -0.6613 H   0  0  0  0  0  0  0  0  0  0  0  0
   -8.8032    0.5472   -0.5823 H   0  0  0  0  0  0  0  0  0  0  0  0
   -5.3225    0.5512   -1.7657 H   0  0  0  0  0  0  0  0  0  0  0  0
   -5.4420   -1.2242   -2.3037 H   0  0  0  0  0  0  0  0  0  0  0  0
   -6.4781    0.0315   -2.9945 H   0  0  0  0  0  0  0  0  0  0  0  0
    4.2458   -2.5862    1.8542 H   0  0  0  0  0  0  0  0  0  0  0  0
    3.5904   -3.2930    0.3908 H   0  0  0  0  0  0  0  0  0  0  0  0
    3.6346   -4.3632    3.2834 H   0  0  0  0  0  0  0  0  0  0  0  0
    4.4318   -5.0326    1.8763 H   0  0  0  0  0  0  0  0  0  0  0  0
    2.4903   -6.2701    2.8428 H   0  0  0  0  0  0  0  0  0  0  0  0
    1.3554   -5.0191    2.2262 H   0  0  0  0  0  0  0  0  0  0  0  0
    3.0460   -7.1531    0.8159 H   0  0  0  0  0  0  0  0  0  0  0  0
    1.3055   -7.0862    0.9669 H   0  0  0  0  0  0  0  0  0  0  0  0
    1.3491   -5.0820   -0.7169 H   0  0  0  0  0  0  0  0  0  0  0  0
    1.6702   -6.7359   -1.2337 H   0  0  0  0  0  0  0  0  0  0  0  0
    3.8906   -6.5664   -1.5032 H   0  0  0  0  0  0  0  0  0  0  0  0
    4.1286   -4.9369   -0.7594 H   0  0  0  0  0  0  0  0  0  0  0  0
    2.6037   -5.8062   -3.2222 H   0  0  0  0  0  0  0  0  0  0  0  0
    4.0951   -4.8534   -3.2083 H   0  0  0  0  0  0  0  0  0  0  0  0
    1.2731   -3.8525   -2.2811 H   0  0  0  0  0  0  0  0  0  0  0  0
    1.9039   -1.7716   -3.0862 H   0  0  0  0  0  0  0  0  0  0  0  0
    4.6897   -2.8278   -3.7508 H   0  0  0  0  0  0  0  0  0  0  0  0
    4.2095   -1.2377   -3.1033 H   0  0  0  0  0  0  0  0  0  0  0  0
    3.1253   -2.4161   -5.7040 H   0  0  0  0  0  0  0  0  0  0  0  0
    2.7388   -0.7928   -4.9814 H   0  0  0  0  0  0  0  0  0  0  0  0
    5.4635   -1.8788   -5.8922 H   0  0  0  0  0  0  0  0  0  0  0  0
    4.4788   -0.7863   -6.8835 H   0  0  0  0  0  0  0  0  0  0  0  0
    4.5558    0.9459   -4.9297 H   0  0  0  0  0  0  0  0  0  0  0  0
    5.6332   -0.2122   -4.0419 H   0  0  0  0  0  0  0  0  0  0  0  0
    7.2927   -0.1191   -5.8302 H   0  0  0  0  0  0  0  0  0  0  0  0
    6.9192    1.5189   -5.1167 H   0  0  0  0  0  0  0  0  0  0  0  0
    5.8119    0.3739   -7.7416 H   0  0  0  0  0  0  0  0  0  0  0  0
    5.3371    1.9269   -6.9977 H   0  0  0  0  0  0  0  0  0  0  0  0
    8.1191    1.0158   -7.9441 H   0  0  0  0  0  0  0  0  0  0  0  0
    7.8215    2.6457   -7.1987 H   0  0  0  0  0  0  0  0  0  0  0  0
    6.1255    3.0754   -9.0607 H   0  0  0  0  0  0  0  0  0  0  0  0
    6.5501    1.5215   -9.7782 H   0  0  0  0  0  0  0  0  0  0  0  0
    7.8105    2.7491   -9.6969 H   0  0  0  0  0  0  0  0  0  0  0  0
  1  2  1  0
  2  3  1  0
  3  4  1  0
  4  5  1  0
  5  6  1  0
  6  7  1  0
  7  8  1  0
  8  9  1  0
  9 10  2  0
 10 11  1  0
 11 12  1  0
 12 13  1  0
 13 14  1  0
 14 15  1  0
 15 16  1  0
 16 17  1  0
 17 18  1  0
 18 19  2  0
 18 20  1  0
 20 21  1  0
 21 22  1  0
 22 23  1  0
 23 24  1  0
 24 25  1  0
 25 26  2  0
 25 27  1  0
 25 28  1  0
 28 29  1  0
 29 30  1  0
 30 31  1  0
 31 32  1  0
 31 33  1  0
 31 34  1  0
 22 35  1  0
 35 36  1  0
 36 37  2  0
 36 38  1  0
 38 39  1  0
 39 40  1  0
 40 41  1  0
 41 42  1  0
 42 43  1  0
 43 44  1  0
 44 45  1  0
 45 46  2  0
 46 47  1  0
 47 48  1  0
 48 49  1  0
 49 50  1  0
 50 51  1  0
 51 52  1  0
 52 53  1  0
 53 54  1  0
  1 55  1  0
  1 56  1  0
  1 57  1  0
  2 58  1  0
  2 59  1  0
  3 60  1  0
  3 61  1  0
  4 62  1  0
  4 63  1  0
  5 64  1  0
  5 65  1  0
  6 66  1  0
  6 67  1  0
  7 68  1  0
  7 69  1  0
  8 70  1  0
  8 71  1  0
  9 72  1  0
 10 73  1  0
 11 74  1  0
 11 75  1  0
 12 76  1  0
 12 77  1  0
 13 78  1  0
 13 79  1  0
 14 80  1  0
 14 81  1  0
 15 82  1  0
 15 83  1  0
 16 84  1  0
 16 85  1  0
 17 86  1  0
 17 87  1  0
 21 88  1  0
 21 89  1  0
 22 90  1  6
 23 91  1  0
 23 92  1  0
 27 93  1  0
 29 94  1  0
 29 95  1  0
 30 96  1  0
 30 97  1  0
 32 98  1  0
 32 99  1  0
 32100  1  0
 33101  1  0
 33102  1  0
 33103  1  0
 34104  1  0
 34105  1  0
 34106  1  0
 38107  1  0
 38108  1  0
 39109  1  0
 39110  1  0
 40111  1  0
 40112  1  0
 41113  1  0
 41114  1  0
 42115  1  0
 42116  1  0
 43117  1  0
 43118  1  0
 44119  1  0
 44120  1  0
 45121  1  0
 46122  1  0
 47123  1  0
 47124  1  0
 48125  1  0
 48126  1  0
 49127  1  0
 49128  1  0
 50129  1  0
 50130  1  0
 51131  1  0
 51132  1  0
 52133  1  0
 52134  1  0
 53135  1  0
 53136  1  0
 54137  1  0
 54138  1  0
 54139  1  0
M  CHG  1  31   1
M  END
$$$$
