
     RDKit          3D

 48 49  0  0  0  0  0  0  0  0999 V2000
    5.4368    0.0789    0.4407 C   0  0  0  0  0  0  0  0  0  0  0  0
    3.9660    0.2632    0.8233 C   0  0  0  0  0  0  0  0  0  0  0  0
    3.1863   -0.0262   -0.3200 N   0  0  0  0  0  0  0  0  0  0  0  0
    3.2524    0.8473   -1.4142 C   0  0  0  0  0  0  0  0  0  0  0  0
    2.6581    2.2153   -1.1741 C   0  0  0  0  0  0  0  0  0  0  0  0
    2.7872   -1.3611   -0.5108 C   0  0  0  0  0  0  0  0  0  0  0  0
    1.7763   -1.8710    0.4925 C   0  0  0  0  0  0  0  0  0  0  0  0
    0.5447   -1.0036    0.3508 C   0  0  0  0  0  0  0  0  0  0  0  0
   -0.5527   -1.3825    1.2846 C   0  0  0  0  0  0  0  0  0  0  0  0
   -1.0609   -2.7857    1.1513 C   0  0  0  0  0  0  0  0  0  0  0  0
   -1.6210   -0.4159    1.1784 N   0  0  0  0  0  0  0  0  0  0  0  0
   -2.5136   -0.2458    0.1142 C   0  0  0  0  0  0  0  0  0  0  0  0
   -2.4506   -1.0895   -0.9767 C   0  0  0  0  0  0  0  0  0  0  0  0
   -3.3423   -0.9458   -2.0337 C   0  0  0  0  0  0  0  0  0  0  0  0
   -4.2652    0.0083   -1.9992 N   0  0  0  0  0  0  0  0  0  0  0  0
   -4.3951    0.8714   -0.9741 C   0  0  0  0  0  0  0  0  0  0  0  0
   -5.3778    1.8448   -0.9967 C   0  0  0  0  0  0  0  0  0  0  0  0
   -5.4943    2.7147    0.0568 C   0  0  0  0  0  0  0  0  0  0  0  0
   -6.7384    3.9642    0.0506 Cl  0  0  0  0  0  0  0  0  0  0  0  0
   -4.6203    2.5882    1.1119 C   0  0  0  0  0  0  0  0  0  0  0  0
   -3.6176    1.6028    1.1455 C   0  0  0  0  0  0  0  0  0  0  0  0
   -3.5048    0.7343    0.0885 C   0  0  0  0  0  0  0  0  0  0  0  0
    5.4895   -0.5785   -0.4561 H   0  0  0  0  0  0  0  0  0  0  0  0
    5.8897    1.0333    0.1436 H   0  0  0  0  0  0  0  0  0  0  0  0
    6.0113   -0.3717    1.2749 H   0  0  0  0  0  0  0  0  0  0  0  0
    3.8749    1.2572    1.2541 H   0  0  0  0  0  0  0  0  0  0  0  0
    3.7470   -0.4863    1.6150 H   0  0  0  0  0  0  0  0  0  0  0  0
    4.3221    1.0110   -1.7090 H   0  0  0  0  0  0  0  0  0  0  0  0
    2.7721    0.3499   -2.2985 H   0  0  0  0  0  0  0  0  0  0  0  0
    1.7696    2.3170   -1.8302 H   0  0  0  0  0  0  0  0  0  0  0  0
    2.2647    2.2911   -0.1293 H   0  0  0  0  0  0  0  0  0  0  0  0
    3.3476    3.0313   -1.4270 H   0  0  0  0  0  0  0  0  0  0  0  0
    2.3060   -1.4477   -1.5166 H   0  0  0  0  0  0  0  0  0  0  0  0
    3.6802   -2.0228   -0.5454 H   0  0  0  0  0  0  0  0  0  0  0  0
    1.5274   -2.9100    0.2015 H   0  0  0  0  0  0  0  0  0  0  0  0
    2.1654   -1.8866    1.5288 H   0  0  0  0  0  0  0  0  0  0  0  0
    0.8812    0.0236    0.6929 H   0  0  0  0  0  0  0  0  0  0  0  0
    0.2404   -0.9962   -0.6923 H   0  0  0  0  0  0  0  0  0  0  0  0
   -0.1672   -1.2970    2.3591 H   0  0  0  0  0  0  0  0  0  0  0  0
   -0.5919   -3.3450    0.3279 H   0  0  0  0  0  0  0  0  0  0  0  0
   -2.1646   -2.7437    1.0458 H   0  0  0  0  0  0  0  0  0  0  0  0
   -0.9122   -3.3310    2.1356 H   0  0  0  0  0  0  0  0  0  0  0  0
   -1.7357    0.2456    2.0104 H   0  0  0  0  0  0  0  0  0  0  0  0
   -1.7563   -1.8963   -1.0991 H   0  0  0  0  0  0  0  0  0  0  0  0
   -3.2953   -1.6054   -2.8920 H   0  0  0  0  0  0  0  0  0  0  0  0
   -6.0439    1.9171   -1.8346 H   0  0  0  0  0  0  0  0  0  0  0  0
   -4.7080    3.2681    1.9405 H   0  0  0  0  0  0  0  0  0  0  0  0
   -2.9671    1.5668    2.0103 H   0  0  0  0  0  0  0  0  0  0  0  0
  1  2  1  0
  2  3  1  0
  3  4  1  0
  4  5  1  0
  3  6  1  0
  6  7  1  0
  7  8  1  0
  8  9  1  0
  9 10  1  0
  9 11  1  0
 11 12  1  0
 12 13  2  0
 13 14  1  0
 14 15  2  0
 15 16  1  0
 16 17  2  0
 17 18  1  0
 18 19  1  0
 18 20  2  0
 20 21  1  0
 21 22  2  0
 22 12  1  0
 22 16  1  0
  1 23  1  0
  1 24  1  0
  1 25  1  0
  2 26  1  0
  2 27  1  0
  4 28  1  0
  4 29  1  0
  5 30  1  0
  5 31  1  0
  5 32  1  0
  6 33  1  0
  6 34  1  0
  7 35  1  0
  7 36  1  0
  8 37  1  0
  8 38  1  0
  9 39  1  0
 10 40  1  0
 10 41  1  0
 10 42  1  0
 11 43  1  0
 13 44  1  0
 14 45  1  0
 17 46  1  0
 20 47  1  0
 21 48  1  0
M  END
$$$$
