
     RDKit          3D

 30 32  0  0  0  0  0  0  0  0999 V2000
   -0.7232   -1.9305   -3.7230 O   0  0  0  0  0  0  0  0  0  0  0  0
   -0.8542   -1.4842   -2.5414 C   0  0  0  0  0  0  0  0  0  0  0  0
   -2.0283   -0.7259   -2.3025 N   0  0  0  0  0  0  0  0  0  0  0  0
   -2.1671   -0.2283   -0.9660 C   0  0  0  0  0  0  0  0  0  0  0  0
   -3.3119    0.5436   -0.7258 C   0  0  0  0  0  0  0  0  0  0  0  0
   -3.5164    1.0823    0.5249 C   0  0  0  0  0  0  0  0  0  0  0  0
   -2.5605    0.8228    1.4849 C   0  0  0  0  0  0  0  0  0  0  0  0
   -2.8208    1.5122    3.0863 Cl  0  0  0  0  0  0  0  0  0  0  0  0
   -1.4481    0.0718    1.2493 C   0  0  0  0  0  0  0  0  0  0  0  0
   -1.2161   -0.4872   -0.0106 C   0  0  0  0  0  0  0  0  0  0  0  0
   -0.0299   -1.3086   -0.2597 C   0  0  1  0  0  0  0  0  0  0  0  0
    1.1352   -0.5242    0.1861 C   0  0  0  0  0  0  0  0  0  0  0  0
    2.0999    0.1212    0.5444 C   0  0  0  0  0  0  0  0  0  0  0  0
    3.2688    0.8982    0.9650 C   0  0  0  0  0  0  0  0  0  0  0  0
    3.2856    2.3489    0.7701 C   0  0  0  0  0  0  0  0  0  0  0  0
    4.1057    1.5216   -0.1963 C   0  0  0  0  0  0  0  0  0  0  0  0
   -0.1192   -2.6008    0.5815 C   0  0  0  0  0  0  0  0  0  0  0  0
   -1.2578   -3.2669    0.1975 F   0  0  0  0  0  0  0  0  0  0  0  0
    1.0103   -3.3417    0.2083 F   0  0  0  0  0  0  0  0  0  0  0  0
   -0.0935   -2.3082    1.9222 F   0  0  0  0  0  0  0  0  0  0  0  0
    0.0876   -1.7296   -1.5743 O   0  0  0  0  0  0  0  0  0  0  0  0
   -2.7528   -0.5247   -3.0104 H   0  0  0  0  0  0  0  0  0  0  0  0
   -4.0438    0.7280   -1.5040 H   0  0  0  0  0  0  0  0  0  0  0  0
   -4.3764    1.6834    0.7698 H   0  0  0  0  0  0  0  0  0  0  0  0
   -0.7053   -0.1208    2.0116 H   0  0  0  0  0  0  0  0  0  0  0  0
    3.8736    0.4971    1.8113 H   0  0  0  0  0  0  0  0  0  0  0  0
    3.9142    2.9962    1.4191 H   0  0  0  0  0  0  0  0  0  0  0  0
    2.4095    2.9110    0.3601 H   0  0  0  0  0  0  0  0  0  0  0  0
    5.1911    1.4433   -0.0734 H   0  0  0  0  0  0  0  0  0  0  0  0
    3.6438    1.4001   -1.2049 H   0  0  0  0  0  0  0  0  0  0  0  0
  1  2  2  0
  2  3  1  0
  3  4  1  0
  4  5  2  0
  5  6  1  0
  6  7  2  0
  7  8  1  0
  7  9  1  0
  9 10  2  0
 10 11  1  0
 11 12  1  1
 12 13  3  0
 13 14  1  0
 14 15  1  0
 15 16  1  0
 11 17  1  0
 17 18  1  0
 17 19  1  0
 17 20  1  0
 11 21  1  0
 21  2  1  0
 10  4  1  0
 16 14  1  0
  3 22  1  0
  5 23  1  0
  6 24  1  0
  9 25  1  0
 14 26  1  0
 15 27  1  0
 15 28  1  0
 16 29  1  0
 16 30  1  0
M  END
$$$$
