
     RDKit          3D

 48 52  0  0  0  0  0  0  0  0999 V2000
   -4.9633   -2.5248   -1.6891 C   0  0  0  0  0  0  0  0  0  0  0  0
   -3.8775   -2.3839   -0.6556 C   0  0  0  0  0  0  0  0  0  0  0  0
   -4.0046   -3.0457    0.5481 C   0  0  0  0  0  0  0  0  0  0  0  0
   -3.0089   -2.9186    1.4985 C   0  0  0  0  0  0  0  0  0  0  0  0
   -1.9108   -2.1228    1.2017 C   0  0  0  0  0  0  0  0  0  0  0  0
   -1.7915   -1.4640   -0.0047 C   0  0  0  0  0  0  0  0  0  0  0  0
   -0.6166   -0.6220   -0.3076 C   0  0  0  0  0  0  0  0  0  0  0  0
    0.6532   -1.0700   -0.3783 N   0  0  0  0  0  0  0  0  0  0  0  0
    1.4616   -0.0359   -0.6741 C   0  0  0  0  0  0  0  0  0  0  0  0
    2.9145   -0.1509   -0.8303 C   0  0  0  0  0  0  0  0  0  0  0  0
    3.6525    0.0530    0.3943 N   0  0  0  0  0  0  0  0  0  0  0  0
    5.0580   -0.0348    0.3686 C   0  0  0  0  0  0  0  0  0  0  0  0
    5.7088   -0.3116   -0.8072 C   0  0  0  0  0  0  0  0  0  0  0  0
    7.0893   -0.4102   -0.8909 C   0  0  0  0  0  0  0  0  0  0  0  0
    7.8671   -0.2286    0.2317 C   0  0  0  0  0  0  0  0  0  0  0  0
    7.2309    0.0498    1.4201 C   0  0  0  0  0  0  0  0  0  0  0  0
    5.8523    0.1443    1.4843 C   0  0  0  0  0  0  0  0  0  0  0  0
    5.2004    0.4207    2.6562 F   0  0  0  0  0  0  0  0  0  0  0  0
    0.6914    1.0377   -0.7836 N   0  0  0  0  0  0  0  0  0  0  0  0
   -0.6033    0.7327   -0.5667 C   0  0  0  0  0  0  0  0  0  0  0  0
   -1.7496    1.6314   -0.5954 C   0  0  0  0  0  0  0  0  0  0  0  0
   -2.1277    2.3360   -1.7195 C   0  0  0  0  0  0  0  0  0  0  0  0
   -3.2142    3.1832   -1.7326 C   0  0  0  0  0  0  0  0  0  0  0  0
   -3.9185    3.2921   -0.5385 C   0  0  0  0  0  0  0  0  0  0  0  0
   -4.9896    4.0065   -0.2216 N   0  0  0  0  0  0  0  0  0  0  0  0
   -5.2932    3.7723    1.0609 C   0  0  0  0  0  0  0  0  0  0  0  0
   -4.4005    2.9074    1.5330 N   0  0  0  0  0  0  0  0  0  0  0  0
   -3.5670    2.6184    0.5573 N   0  0  0  0  0  0  0  0  0  0  0  0
   -2.4902    1.7834    0.5577 C   0  0  0  0  0  0  0  0  0  0  0  0
   -2.7897   -1.6231   -0.8930 N   0  0  0  0  0  0  0  0  0  0  0  0
   -4.8983   -1.6636   -2.3861 H   0  0  0  0  0  0  0  0  0  0  0  0
   -4.7202   -3.4683   -2.2339 H   0  0  0  0  0  0  0  0  0  0  0  0
   -5.9494   -2.6182   -1.2317 H   0  0  0  0  0  0  0  0  0  0  0  0
   -4.8421   -3.6632    0.7962 H   0  0  0  0  0  0  0  0  0  0  0  0
   -3.0670   -3.4278    2.4721 H   0  0  0  0  0  0  0  0  0  0  0  0
   -1.1361   -2.0364    1.9677 H   0  0  0  0  0  0  0  0  0  0  0  0
    0.9099   -2.0889   -0.2162 H   0  0  0  0  0  0  0  0  0  0  0  0
    3.2855    0.6101   -1.5524 H   0  0  0  0  0  0  0  0  0  0  0  0
    3.1755   -1.1780   -1.1896 H   0  0  0  0  0  0  0  0  0  0  0  0
    3.1500    0.2615    1.2809 H   0  0  0  0  0  0  0  0  0  0  0  0
    5.1124   -0.4542   -1.6873 H   0  0  0  0  0  0  0  0  0  0  0  0
    7.6008   -0.6278   -1.8142 H   0  0  0  0  0  0  0  0  0  0  0  0
    8.9551   -0.3046    0.1735 H   0  0  0  0  0  0  0  0  0  0  0  0
    7.7996    0.1995    2.3241 H   0  0  0  0  0  0  0  0  0  0  0  0
   -1.5635    2.2370   -2.6433 H   0  0  0  0  0  0  0  0  0  0  0  0
   -3.5291    3.7451   -2.6001 H   0  0  0  0  0  0  0  0  0  0  0  0
   -6.1016    4.1960    1.6149 H   0  0  0  0  0  0  0  0  0  0  0  0
   -2.2451    1.2596    1.4696 H   0  0  0  0  0  0  0  0  0  0  0  0
  1  2  1  0
  2  3  2  0
  3  4  1  0
  4  5  2  0
  5  6  1  0
  6  7  1  0
  7  8  1  0
  8  9  1  0
  9 10  1  0
 10 11  1  0
 11 12  1  0
 12 13  2  0
 13 14  1  0
 14 15  2  0
 15 16  1  0
 16 17  2  0
 17 18  1  0
  9 19  2  0
 19 20  1  0
 20 21  1  0
 21 22  1  0
 22 23  2  0
 23 24  1  0
 24 25  2  0
 25 26  1  0
 26 27  2  0
 27 28  1  0
 28 29  1  0
  6 30  2  0
 30  2  1  0
 20  7  2  0
 29 21  2  0
 17 12  1  0
 28 24  1  0
  1 31  1  0
  1 32  1  0
  1 33  1  0
  3 34  1  0
  4 35  1  0
  5 36  1  0
  8 37  1  0
 10 38  1  0
 10 39  1  0
 11 40  1  0
 13 41  1  0
 14 42  1  0
 15 43  1  0
 16 44  1  0
 22 45  1  0
 23 46  1  0
 26 47  1  0
 29 48  1  0
M  END
$$$$
