
     RDKit          3D

 62 65  0  0  0  0  0  0  0  0999 V2000
    7.7047    3.2569    0.3172 C   0  0  0  0  0  0  0  0  0  0  0  0
    7.2629    3.9852   -0.9260 C   0  0  0  0  0  0  0  0  0  0  0  0
    5.7491    4.1656   -0.9075 C   0  0  0  0  0  0  0  0  0  0  0  0
    5.1934    2.8622   -0.8606 O   0  0  0  0  0  0  0  0  0  0  0  0
    3.8461    2.5963   -0.8317 C   0  0  0  0  0  0  0  0  0  0  0  0
    3.0445    3.5639   -0.8474 O   0  0  0  0  0  0  0  0  0  0  0  0
    3.3327    1.2171   -0.7833 C   0  0  0  0  0  0  0  0  0  0  0  0
    1.9971    0.8739   -0.7524 C   0  0  0  0  0  0  0  0  0  0  0  0
    1.9443   -0.5035   -0.7113 C   0  0  0  0  0  0  0  0  0  0  0  0
    0.7465   -1.3140   -0.6688 C   0  0  0  0  0  0  0  0  0  0  0  0
    0.6378   -2.4276   -1.4834 C   0  0  0  0  0  0  0  0  0  0  0  0
   -0.5143   -3.1728   -1.4155 C   0  0  0  0  0  0  0  0  0  0  0  0
   -1.5526   -2.8447   -0.5677 C   0  0  0  0  0  0  0  0  0  0  0  0
   -1.4541   -1.7280    0.2550 C   0  0  0  0  0  0  0  0  0  0  0  0
   -2.5152   -1.4236    1.0971 O   0  0  0  0  0  0  0  0  0  0  0  0
   -3.5699   -0.6181    0.7646 C   0  0  0  0  0  0  0  0  0  0  0  0
   -3.5727   -0.1146   -0.4020 O   0  0  0  0  0  0  0  0  0  0  0  0
   -4.6490   -0.3239    1.6567 N   0  0  0  0  0  0  0  0  0  0  0  0
   -5.7049    0.5304    1.2123 C   0  0  0  0  0  0  0  0  0  0  0  0
   -5.8070    1.8121    2.0472 C   0  0  0  0  0  0  0  0  0  0  0  0
   -6.6914    2.7543    1.2256 C   0  0  0  0  0  0  0  0  0  0  0  0
   -8.0592    2.1691    1.0113 C   0  0  0  0  0  0  0  0  0  0  0  0
   -8.0271    0.7608    0.5065 C   0  0  0  0  0  0  0  0  0  0  0  0
   -7.0606   -0.1200    1.2627 C   0  0  0  0  0  0  0  0  0  0  0  0
   -0.3004   -0.9957    0.1762 C   0  0  0  0  0  0  0  0  0  0  0  0
    3.2052   -0.9852   -0.7169 N   0  0  0  0  0  0  0  0  0  0  0  0
    3.6067   -2.3542   -0.6832 C   0  0  0  0  0  0  0  0  0  0  0  0
    3.2143   -3.1705    0.3570 C   0  0  0  0  0  0  0  0  0  0  0  0
    3.5886   -4.5052    0.4175 C   0  0  0  0  0  0  0  0  0  0  0  0
    4.3714   -5.0679   -0.5657 C   0  0  0  0  0  0  0  0  0  0  0  0
    4.7679   -4.2581   -1.6091 C   0  0  0  0  0  0  0  0  0  0  0  0
    4.3902   -2.9130   -1.6694 C   0  0  0  0  0  0  0  0  0  0  0  0
    3.9978    0.0723   -0.7603 N   0  0  0  0  0  0  0  0  0  0  0  0
    8.6825    2.7569    0.2033 H   0  0  0  0  0  0  0  0  0  0  0  0
    7.8093    3.9639    1.1652 H   0  0  0  0  0  0  0  0  0  0  0  0
    6.9688    2.4772    0.6285 H   0  0  0  0  0  0  0  0  0  0  0  0
    7.8003    4.9357   -0.9955 H   0  0  0  0  0  0  0  0  0  0  0  0
    7.5459    3.3648   -1.7976 H   0  0  0  0  0  0  0  0  0  0  0  0
    5.4193    4.7342   -1.7853 H   0  0  0  0  0  0  0  0  0  0  0  0
    5.4686    4.7025   -0.0006 H   0  0  0  0  0  0  0  0  0  0  0  0
    1.1289    1.5215   -0.7577 H   0  0  0  0  0  0  0  0  0  0  0  0
    1.4724   -2.6652   -2.1442 H   0  0  0  0  0  0  0  0  0  0  0  0
   -0.5736   -4.0415   -2.0654 H   0  0  0  0  0  0  0  0  0  0  0  0
   -2.4595   -3.4458   -0.5258 H   0  0  0  0  0  0  0  0  0  0  0  0
   -4.6638   -0.7205    2.6004 H   0  0  0  0  0  0  0  0  0  0  0  0
   -5.5481    0.8826    0.1642 H   0  0  0  0  0  0  0  0  0  0  0  0
   -6.2646    1.6081    3.0389 H   0  0  0  0  0  0  0  0  0  0  0  0
   -4.8123    2.3117    2.1307 H   0  0  0  0  0  0  0  0  0  0  0  0
   -6.1848    2.8735    0.2454 H   0  0  0  0  0  0  0  0  0  0  0  0
   -6.7974    3.7347    1.7056 H   0  0  0  0  0  0  0  0  0  0  0  0
   -8.5544    2.7896    0.2246 H   0  0  0  0  0  0  0  0  0  0  0  0
   -8.6717    2.2309    1.9223 H   0  0  0  0  0  0  0  0  0  0  0  0
   -7.7170    0.7568   -0.5541 H   0  0  0  0  0  0  0  0  0  0  0  0
   -9.0570    0.3539    0.5692 H   0  0  0  0  0  0  0  0  0  0  0  0
   -7.0896   -1.1229    0.8140 H   0  0  0  0  0  0  0  0  0  0  0  0
   -7.4442   -0.2037    2.3124 H   0  0  0  0  0  0  0  0  0  0  0  0
   -0.2436   -0.1177    0.8348 H   0  0  0  0  0  0  0  0  0  0  0  0
    2.6011   -2.7231    1.1239 H   0  0  0  0  0  0  0  0  0  0  0  0
    3.2760   -5.1348    1.2357 H   0  0  0  0  0  0  0  0  0  0  0  0
    4.6802   -6.1113   -0.5445 H   0  0  0  0  0  0  0  0  0  0  0  0
    5.3893   -4.7032   -2.3904 H   0  0  0  0  0  0  0  0  0  0  0  0
    4.7160   -2.2957   -2.5027 H   0  0  0  0  0  0  0  0  0  0  0  0
  1  2  1  0
  2  3  1  0
  3  4  1  0
  4  5  1  0
  5  6  2  0
  5  7  1  0
  7  8  1  0
  8  9  2  0
  9 10  1  0
 10 11  2  0
 11 12  1  0
 12 13  2  0
 13 14  1  0
 14 15  1  0
 15 16  1  0
 16 17  2  0
 16 18  1  0
 18 19  1  0
 19 20  1  0
 20 21  1  0
 21 22  1  0
 22 23  1  0
 23 24  1  0
 14 25  2  0
  9 26  1  0
 26 27  1  0
 27 28  2  0
 28 29  1  0
 29 30  2  0
 30 31  1  0
 31 32  2  0
 26 33  1  0
 33  7  2  0
 25 10  1  0
 32 27  1  0
 24 19  1  0
  1 34  1  0
  1 35  1  0
  1 36  1  0
  2 37  1  0
  2 38  1  0
  3 39  1  0
  3 40  1  0
  8 41  1  0
 11 42  1  0
 12 43  1  0
 13 44  1  0
 18 45  1  0
 19 46  1  0
 20 47  1  0
 20 48  1  0
 21 49  1  0
 21 50  1  0
 22 51  1  0
 22 52  1  0
 23 53  1  0
 23 54  1  0
 24 55  1  0
 24 56  1  0
 25 57  1  0
 28 58  1  0
 29 59  1  0
 30 60  1  0
 31 61  1  0
 32 62  1  0
M  END
$$$$
