
     RDKit          3D

 54 58  0  0  0  0  0  0  0  0999 V2000
   -3.6475   -0.2549   -2.1287 C   0  0  0  0  0  0  0  0  0  0  0  0
   -3.0021    0.7948   -1.2401 C   0  0  0  0  0  0  0  0  0  0  0  0
   -2.2072    0.2096   -0.2057 N   0  0  0  0  0  0  0  0  0  0  0  0
   -0.8969   -0.0822   -0.4273 C   0  0  0  0  0  0  0  0  0  0  0  0
   -0.4479    0.1922   -1.5700 O   0  0  0  0  0  0  0  0  0  0  0  0
   -0.0628   -0.6433    0.5016 C   0  0  0  0  0  0  0  0  0  0  0  0
    1.3344   -0.9441    0.2356 C   0  0  0  0  0  0  0  0  0  0  0  0
    2.3419   -0.0573    0.4648 C   0  0  0  0  0  0  0  0  0  0  0  0
    3.6825   -0.3227    0.2184 C   0  0  0  0  0  0  0  0  0  0  0  0
    4.6869    0.6798    0.4921 C   0  0  0  0  0  0  0  0  0  0  0  0
    4.3024    1.7977    0.9600 O   0  0  0  0  0  0  0  0  0  0  0  0
    6.0456    0.4425    0.2546 N   0  0  0  0  0  0  0  0  0  0  0  0
    7.0634    1.4668    0.5351 C   0  0  0  0  0  0  0  0  0  0  0  0
    8.1330    1.5975   -0.5297 C   0  0  0  0  0  0  0  0  0  0  0  0
    8.4627    1.0155    0.8058 C   0  0  0  0  0  0  0  0  0  0  0  0
    3.9566   -1.5717   -0.2876 C   0  0  0  0  0  0  0  0  0  0  0  0
    2.9513   -2.5022   -0.5337 C   0  0  0  0  0  0  0  0  0  0  0  0
    1.6449   -2.1938   -0.2747 C   0  0  0  0  0  0  0  0  0  0  0  0
    0.5572   -3.1776   -0.5322 C   0  0  0  0  0  0  0  0  0  0  0  0
   -0.6022   -0.9237    1.7343 C   0  0  0  0  0  0  0  0  0  0  0  0
   -1.9200   -0.6275    1.9506 C   0  0  0  0  0  0  0  0  0  0  0  0
   -2.6350   -0.8157    3.0716 N   0  0  0  0  0  0  0  0  0  0  0  0
   -3.8484   -0.4012    2.8747 N   0  0  0  0  0  0  0  0  0  0  0  0
   -3.8981    0.0641    1.5844 C   0  0  0  0  0  0  0  0  0  0  0  0
   -5.0954    0.6202    0.9901 C   0  0  0  0  0  0  0  0  0  0  0  0
   -5.3304    1.9852    1.1568 C   0  0  0  0  0  0  0  0  0  0  0  0
   -4.4408    2.7703    1.8410 F   0  0  0  0  0  0  0  0  0  0  0  0
   -6.4491    2.5629    0.6422 C   0  0  0  0  0  0  0  0  0  0  0  0
   -7.3805    1.8171   -0.0574 C   0  0  0  0  0  0  0  0  0  0  0  0
   -7.1402    0.4753   -0.2154 C   0  0  0  0  0  0  0  0  0  0  0  0
   -6.0146   -0.1162    0.3006 C   0  0  0  0  0  0  0  0  0  0  0  0
   -5.7818   -1.8477    0.0858 Cl  0  0  0  0  0  0  0  0  0  0  0  0
   -2.7062   -0.0676    0.9874 N   0  0  0  0  0  0  0  0  0  0  0  0
   -3.4544   -1.2490   -1.6762 H   0  0  0  0  0  0  0  0  0  0  0  0
   -4.7224   -0.1233   -2.2698 H   0  0  0  0  0  0  0  0  0  0  0  0
   -3.1610   -0.3135   -3.1443 H   0  0  0  0  0  0  0  0  0  0  0  0
   -3.6703    1.5999   -0.9718 H   0  0  0  0  0  0  0  0  0  0  0  0
   -2.2481    1.3012   -1.9366 H   0  0  0  0  0  0  0  0  0  0  0  0
    2.0841    0.9185    0.8649 H   0  0  0  0  0  0  0  0  0  0  0  0
    6.3556   -0.4663   -0.1255 H   0  0  0  0  0  0  0  0  0  0  0  0
    6.6906    2.4298    0.9427 H   0  0  0  0  0  0  0  0  0  0  0  0
    8.5390    2.6143   -0.7115 H   0  0  0  0  0  0  0  0  0  0  0  0
    8.0896    0.9328   -1.4191 H   0  0  0  0  0  0  0  0  0  0  0  0
    9.0633    1.6328    1.5334 H   0  0  0  0  0  0  0  0  0  0  0  0
    8.6677   -0.0689    0.8510 H   0  0  0  0  0  0  0  0  0  0  0  0
    4.9641   -1.8585   -0.5061 H   0  0  0  0  0  0  0  0  0  0  0  0
    3.1655   -3.4876   -0.9328 H   0  0  0  0  0  0  0  0  0  0  0  0
    0.5394   -3.9733    0.2297 H   0  0  0  0  0  0  0  0  0  0  0  0
    0.6747   -3.6039   -1.5541 H   0  0  0  0  0  0  0  0  0  0  0  0
   -0.4359   -2.6650   -0.5387 H   0  0  0  0  0  0  0  0  0  0  0  0
   -0.0019   -1.3740    2.5342 H   0  0  0  0  0  0  0  0  0  0  0  0
   -6.6408    3.6320    0.7683 H   0  0  0  0  0  0  0  0  0  0  0  0
   -8.2760    2.2754   -0.4706 H   0  0  0  0  0  0  0  0  0  0  0  0
   -7.8784   -0.0954   -0.7653 H   0  0  0  0  0  0  0  0  0  0  0  0
  1  2  1  0
  2  3  1  0
  3  4  1  0
  4  5  2  0
  4  6  1  0
  6  7  1  0
  7  8  2  0
  8  9  1  0
  9 10  1  0
 10 11  2  0
 10 12  1  0
 12 13  1  0
 13 14  1  0
 14 15  1  0
  9 16  2  0
 16 17  1  0
 17 18  2  0
 18 19  1  0
  6 20  2  0
 20 21  1  0
 21 22  2  0
 22 23  1  0
 23 24  2  0
 24 25  1  0
 25 26  2  0
 26 27  1  0
 26 28  1  0
 28 29  2  0
 29 30  1  0
 30 31  2  0
 31 32  1  0
 24 33  1  0
 33  3  1  0
 18  7  1  0
 33 21  1  0
 15 13  1  0
 31 25  1  0
  1 34  1  0
  1 35  1  0
  1 36  1  0
  2 37  1  0
  2 38  1  0
  8 39  1  0
 12 40  1  0
 13 41  1  0
 14 42  1  0
 14 43  1  0
 15 44  1  0
 15 45  1  0
 16 46  1  0
 17 47  1  0
 19 48  1  0
 19 49  1  0
 19 50  1  0
 20 51  1  0
 28 52  1  0
 29 53  1  0
 30 54  1  0
M  END
$$$$
