
     RDKit          3D

 48 50  0  0  0  0  0  0  0  0999 V2000
    4.7047    1.5759   -0.5712 C   0  0  0  0  0  0  0  0  0  0  0  0
    4.5454    0.2034   -0.2964 N   0  0  0  0  0  0  0  0  0  0  0  0
    5.7870   -0.3688    0.1715 C   0  0  0  0  0  0  0  0  0  0  0  0
    3.4791   -0.1811    0.5492 C   0  0  0  0  0  0  0  0  0  0  0  0
    2.1070    0.0045   -0.0584 C   0  0  0  0  0  0  0  0  0  0  0  0
    1.0819   -0.4291    0.9597 C   0  0  0  0  0  0  0  0  0  0  0  0
   -0.2836   -0.3019    0.4910 N   0  0  0  0  0  0  0  0  0  0  0  0
   -0.8464    1.0027    0.4132 C   0  0  0  0  0  0  0  0  0  0  0  0
   -0.2195    2.1615    0.7783 C   0  0  0  0  0  0  0  0  0  0  0  0
   -0.8591    3.3777    0.6627 C   0  0  0  0  0  0  0  0  0  0  0  0
   -2.1534    3.4969    0.1793 C   0  0  0  0  0  0  0  0  0  0  0  0
   -2.7832    2.3039   -0.1895 C   0  0  0  0  0  0  0  0  0  0  0  0
   -2.1253    1.0780   -0.0685 C   0  0  0  0  0  0  0  0  0  0  0  0
   -3.0038   -0.0258   -0.5109 C   0  0  0  0  0  0  0  0  0  0  0  0
   -3.4441    0.1370   -1.9502 C   0  0  0  0  0  0  0  0  0  0  0  0
   -4.2674    0.0207    0.3418 C   0  0  0  0  0  0  0  0  0  0  0  0
   -2.3205   -1.3316   -0.3931 C   0  0  0  0  0  0  0  0  0  0  0  0
   -3.0388   -2.4646   -0.7962 C   0  0  0  0  0  0  0  0  0  0  0  0
   -2.4724   -3.7377   -0.7227 C   0  0  0  0  0  0  0  0  0  0  0  0
   -1.1695   -3.8772   -0.2408 C   0  0  0  0  0  0  0  0  0  0  0  0
   -0.5257   -2.7219    0.1352 C   0  0  0  0  0  0  0  0  0  0  0  0
   -1.0327   -1.4424    0.0858 C   0  0  0  0  0  0  0  0  0  0  0  0
    5.5284    2.0370    0.0543 H   0  0  0  0  0  0  0  0  0  0  0  0
    5.0096    1.7429   -1.6272 H   0  0  0  0  0  0  0  0  0  0  0  0
    3.8299    2.2219   -0.3773 H   0  0  0  0  0  0  0  0  0  0  0  0
    6.5913   -0.0640   -0.5367 H   0  0  0  0  0  0  0  0  0  0  0  0
    5.7319   -1.4928    0.2057 H   0  0  0  0  0  0  0  0  0  0  0  0
    6.0743   -0.0528    1.1933 H   0  0  0  0  0  0  0  0  0  0  0  0
    3.6242   -1.2861    0.7550 H   0  0  0  0  0  0  0  0  0  0  0  0
    3.5714    0.3017    1.5433 H   0  0  0  0  0  0  0  0  0  0  0  0
    2.0710   -0.6901   -0.9590 H   0  0  0  0  0  0  0  0  0  0  0  0
    1.9476    0.9956   -0.4910 H   0  0  0  0  0  0  0  0  0  0  0  0
    1.3527   -1.4237    1.3470 H   0  0  0  0  0  0  0  0  0  0  0  0
    1.2234    0.2312    1.8862 H   0  0  0  0  0  0  0  0  0  0  0  0
    0.7619    2.1099    1.1646 H   0  0  0  0  0  0  0  0  0  0  0  0
   -0.3366    4.2792    0.9578 H   0  0  0  0  0  0  0  0  0  0  0  0
   -2.5997    4.4691    0.1136 H   0  0  0  0  0  0  0  0  0  0  0  0
   -3.7881    2.4722   -0.5564 H   0  0  0  0  0  0  0  0  0  0  0  0
   -4.0649   -0.7435   -2.2202 H   0  0  0  0  0  0  0  0  0  0  0  0
   -2.5506    0.1443   -2.6061 H   0  0  0  0  0  0  0  0  0  0  0  0
   -4.0464    1.0681   -2.0523 H   0  0  0  0  0  0  0  0  0  0  0  0
   -5.0179    0.6306   -0.1985 H   0  0  0  0  0  0  0  0  0  0  0  0
   -4.7193   -0.9569    0.4861 H   0  0  0  0  0  0  0  0  0  0  0  0
   -4.0441    0.4308    1.3518 H   0  0  0  0  0  0  0  0  0  0  0  0
   -4.0343   -2.4845   -1.1779 H   0  0  0  0  0  0  0  0  0  0  0  0
   -3.0011   -4.6419   -1.0247 H   0  0  0  0  0  0  0  0  0  0  0  0
   -0.7482   -4.8620   -0.1902 H   0  0  0  0  0  0  0  0  0  0  0  0
    0.4738   -2.9165    0.4933 H   0  0  0  0  0  0  0  0  0  0  0  0
  1  2  1  0
  2  3  1  0
  2  4  1  0
  4  5  1  0
  5  6  1  0
  6  7  1  0
  7  8  1  0
  8  9  2  0
  9 10  1  0
 10 11  2  0
 11 12  1  0
 12 13  2  0
 13 14  1  0
 14 15  1  0
 14 16  1  0
 14 17  1  0
 17 18  2  0
 18 19  1  0
 19 20  2  0
 20 21  1  0
 21 22  2  0
 22  7  1  0
 13  8  1  0
 22 17  1  0
  1 23  1  0
  1 24  1  0
  1 25  1  0
  3 26  1  0
  3 27  1  0
  3 28  1  0
  4 29  1  0
  4 30  1  0
  5 31  1  0
  5 32  1  0
  6 33  1  0
  6 34  1  0
  9 35  1  0
 10 36  1  0
 11 37  1  0
 12 38  1  0
 15 39  1  0
 15 40  1  0
 15 41  1  0
 16 42  1  0
 16 43  1  0
 16 44  1  0
 18 45  1  0
 19 46  1  0
 20 47  1  0
 21 48  1  0
M  END
$$$$
