
     RDKit          3D

 64 69  0  0  0  0  0  0  0  0999 V2000
    5.5332   -0.1958    0.4221 O   0  0  0  0  0  0  0  0  0  0  0  0
    5.7765   -0.3667   -0.7969 C   0  0  0  0  0  0  0  0  0  0  0  0
    7.1093   -0.5252   -1.2600 N   0  0  0  0  0  0  0  0  0  0  0  0
    8.1654   -0.4832   -0.2880 C   0  0  0  0  0  0  0  0  0  0  0  0
    8.5670   -1.6468    0.3119 C   0  0  0  0  0  0  0  0  0  0  0  0
    9.5760   -1.6140    1.2419 C   0  0  0  0  0  0  0  0  0  0  0  0
   10.1869   -0.4613    1.5839 N   0  0  0  0  0  0  0  0  0  0  0  0
    9.7821    0.6597    0.9894 C   0  0  0  0  0  0  0  0  0  0  0  0
    8.7835    0.7028    0.0542 C   0  0  0  0  0  0  0  0  0  0  0  0
    4.7256   -0.4065   -1.7477 N   0  0  0  0  0  0  0  0  0  0  0  0
    3.3666   -0.2601   -1.3975 C   0  0  0  0  0  0  0  0  0  0  0  0
    2.5488   -1.3266   -1.0658 C   0  0  0  0  0  0  0  0  0  0  0  0
    1.2135   -1.1343   -0.7268 C   0  0  0  0  0  0  0  0  0  0  0  0
    0.6712    0.1314   -0.7136 C   0  0  0  0  0  0  0  0  0  0  0  0
   -0.7364    0.3427   -0.3570 C   0  0  0  0  0  0  0  0  0  0  0  0
   -1.2854    1.5653   -0.3375 N   0  0  0  0  0  0  0  0  0  0  0  0
   -2.5773    1.7361   -0.0078 C   0  0  0  0  0  0  0  0  0  0  0  0
   -3.1920    3.0082    0.0242 N   0  0  0  0  0  0  0  0  0  0  0  0
   -2.4854    4.2357   -0.2941 C   0  0  0  0  0  0  0  0  0  0  0  0
   -3.3079    5.0024   -1.3077 C   0  0  0  0  0  0  0  0  0  0  0  0
   -4.5850    5.1682   -0.7919 O   0  0  0  0  0  0  0  0  0  0  0  0
   -5.2450    3.9260   -0.7573 C   0  0  0  0  0  0  0  0  0  0  0  0
   -4.5891    3.1421    0.3855 C   0  0  0  0  0  0  0  0  0  0  0  0
   -3.3031    0.6511    0.3013 N   0  0  0  0  0  0  0  0  0  0  0  0
   -2.8099   -0.6135    0.3013 C   0  0  0  0  0  0  0  0  0  0  0  0
   -3.5955   -1.7311    0.6301 N   0  0  0  0  0  0  0  0  0  0  0  0
   -4.9871   -1.7043    1.0024 C   0  0  0  0  0  0  0  0  0  0  0  0
   -4.9196   -2.5321    2.2965 C   0  0  0  0  0  0  0  0  0  0  0  0
   -3.8300   -3.5324    2.0076 C   0  0  0  0  0  0  0  0  0  0  0  0
   -3.2014   -3.1140    0.6686 C   0  0  0  0  0  0  0  0  0  0  0  0
   -3.9642   -3.7957   -0.4681 C   0  0  0  0  0  0  0  0  0  0  0  0
   -5.3117   -3.8028   -0.0586 O   0  0  0  0  0  0  0  0  0  0  0  0
   -5.7642   -2.4879   -0.0520 C   0  0  0  0  0  0  0  0  0  0  0  0
   -1.5004   -0.7155   -0.0404 N   0  0  0  0  0  0  0  0  0  0  0  0
    1.4769    1.2001   -1.0423 C   0  0  0  0  0  0  0  0  0  0  0  0
    2.7977    0.9896   -1.3755 C   0  0  0  0  0  0  0  0  0  0  0  0
    7.3211   -0.6679   -2.2721 H   0  0  0  0  0  0  0  0  0  0  0  0
    8.0713   -2.5896    0.0358 H   0  0  0  0  0  0  0  0  0  0  0  0
    9.8962   -2.5349    1.7188 H   0  0  0  0  0  0  0  0  0  0  0  0
   10.2610    1.5863    1.2530 H   0  0  0  0  0  0  0  0  0  0  0  0
    8.4687    1.6178   -0.4166 H   0  0  0  0  0  0  0  0  0  0  0  0
    4.9804   -0.5506   -2.7460 H   0  0  0  0  0  0  0  0  0  0  0  0
    3.0003   -2.3033   -1.0848 H   0  0  0  0  0  0  0  0  0  0  0  0
    0.6071   -2.0051   -0.4724 H   0  0  0  0  0  0  0  0  0  0  0  0
   -1.4652    4.0113   -0.6607 H   0  0  0  0  0  0  0  0  0  0  0  0
   -2.4052    4.8765    0.6096 H   0  0  0  0  0  0  0  0  0  0  0  0
   -3.2848    4.4587   -2.2652 H   0  0  0  0  0  0  0  0  0  0  0  0
   -2.8803    6.0385   -1.4361 H   0  0  0  0  0  0  0  0  0  0  0  0
   -6.3198    4.0761   -0.5891 H   0  0  0  0  0  0  0  0  0  0  0  0
   -5.0264    3.3427   -1.6852 H   0  0  0  0  0  0  0  0  0  0  0  0
   -4.7190    3.7311    1.3130 H   0  0  0  0  0  0  0  0  0  0  0  0
   -5.1186    2.1632    0.4126 H   0  0  0  0  0  0  0  0  0  0  0  0
   -5.3977   -0.7100    1.1683 H   0  0  0  0  0  0  0  0  0  0  0  0
   -5.8808   -2.9739    2.5538 H   0  0  0  0  0  0  0  0  0  0  0  0
   -4.5416   -1.8043    3.0693 H   0  0  0  0  0  0  0  0  0  0  0  0
   -4.1813   -4.5660    1.9658 H   0  0  0  0  0  0  0  0  0  0  0  0
   -3.0094   -3.4882    2.7570 H   0  0  0  0  0  0  0  0  0  0  0  0
   -2.1303   -3.2939    0.6349 H   0  0  0  0  0  0  0  0  0  0  0  0
   -3.6606   -4.8480   -0.5953 H   0  0  0  0  0  0  0  0  0  0  0  0
   -3.8186   -3.1753   -1.3724 H   0  0  0  0  0  0  0  0  0  0  0  0
   -5.5155   -2.0363   -1.0319 H   0  0  0  0  0  0  0  0  0  0  0  0
   -6.8347   -2.4265    0.1831 H   0  0  0  0  0  0  0  0  0  0  0  0
    1.0568    2.2176   -1.0360 H   0  0  0  0  0  0  0  0  0  0  0  0
    3.4372    1.8427   -1.6369 H   0  0  0  0  0  0  0  0  0  0  0  0
  1  2  2  0
  2  3  1  0
  3  4  1  0
  4  5  2  0
  5  6  1  0
  6  7  2  0
  7  8  1  0
  8  9  2  0
  2 10  1  0
 10 11  1  0
 11 12  2  0
 12 13  1  0
 13 14  2  0
 14 15  1  0
 15 16  2  0
 16 17  1  0
 17 18  1  0
 18 19  1  0
 19 20  1  0
 20 21  1  0
 21 22  1  0
 22 23  1  0
 17 24  2  0
 24 25  1  0
 25 26  1  0
 26 27  1  0
 27 28  1  0
 28 29  1  0
 29 30  1  0
 30 31  1  0
 31 32  1  0
 32 33  1  0
 25 34  2  0
 14 35  1  0
 35 36  2  0
  9  4  1  0
 36 11  1  0
 34 15  1  0
 23 18  1  0
 30 26  1  0
 33 27  1  0
  3 37  1  0
  5 38  1  0
  6 39  1  0
  8 40  1  0
  9 41  1  0
 10 42  1  0
 12 43  1  0
 13 44  1  0
 19 45  1  0
 19 46  1  0
 20 47  1  0
 20 48  1  0
 22 49  1  0
 22 50  1  0
 23 51  1  0
 23 52  1  0
 27 53  1  0
 28 54  1  0
 28 55  1  0
 29 56  1  0
 29 57  1  0
 30 58  1  0
 31 59  1  0
 31 60  1  0
 33 61  1  0
 33 62  1  0
 35 63  1  0
 36 64  1  0
M  END
$$$$
