
     RDKit          3D

 67 71  0  0  0  0  0  0  0  0999 V2000
    7.7878   -3.5476   -0.5856 N   0  0  0  0  0  0  0  0  0  0  0  0
    6.7431   -2.5386   -0.5223 C   0  0  0  0  0  0  0  0  0  0  0  0
    5.6384   -2.9292    0.4330 C   0  0  0  0  0  0  0  0  0  0  0  0
    4.5565   -1.8848    0.3140 C   0  0  0  0  0  0  0  0  0  0  0  0
    4.9954   -0.4845    0.5065 C   0  0  0  0  0  0  0  0  0  0  0  0
    4.4970    0.0562    1.7830 N   0  0  0  0  0  0  0  0  0  0  0  0
    3.0549    0.0685    1.6971 C   0  0  1  0  0  0  0  0  0  0  0  0
    2.2157    0.5366    2.8268 C   0  0  0  0  0  0  0  0  0  0  0  0
    2.4616    1.5086    1.7624 C   0  0  2  0  0  0  0  0  0  0  0  0
    1.4596    1.8309    0.7321 C   0  0  0  0  0  0  0  0  0  0  0  0
    1.5700    2.9970    0.0115 C   0  0  0  0  0  0  0  0  0  0  0  0
    0.6801    3.3683   -0.9508 C   0  0  0  0  0  0  0  0  0  0  0  0
   -0.4390    2.5552   -1.2731 C   0  0  0  0  0  0  0  0  0  0  0  0
   -1.2869    2.9722   -2.2371 O   0  0  0  0  0  0  0  0  0  0  0  0
   -2.4155    2.4945   -2.7716 C   0  0  0  0  0  0  0  0  0  0  0  0
   -3.6157    2.3411   -1.8976 C   0  0  0  0  0  0  0  0  0  0  0  0
   -4.4044    3.4308   -1.5710 C   0  0  0  0  0  0  0  0  0  0  0  0
   -5.5336    3.3103   -0.8023 C   0  0  0  0  0  0  0  0  0  0  0  0
   -5.8824    2.0350   -0.3428 C   0  0  0  0  0  0  0  0  0  0  0  0
   -5.1418    0.9235   -0.6341 C   0  0  0  0  0  0  0  0  0  0  0  0
   -5.4510   -0.3936   -0.1833 N   0  0  0  0  0  0  0  0  0  0  0  0
   -4.7683   -1.5553   -0.7601 C   0  0  0  0  0  0  0  0  0  0  0  0
   -5.7269   -2.7305   -0.6221 C   0  0  0  0  0  0  0  0  0  0  0  0
   -7.0954   -2.2850   -0.8571 N   0  0  0  0  0  0  0  0  0  0  0  0
   -7.5557   -1.4686    0.2548 C   0  0  0  0  0  0  0  0  0  0  0  0
   -6.4232   -0.6397    0.8485 C   0  0  0  0  0  0  0  0  0  0  0  0
   -4.0045    1.1212   -1.4223 C   0  0  0  0  0  0  0  0  0  0  0  0
   -0.5209    1.3979   -0.5365 C   0  0  0  0  0  0  0  0  0  0  0  0
    0.3918    1.0252    0.4446 C   0  0  0  0  0  0  0  0  0  0  0  0
    6.4212   -0.1647    0.2747 C   0  0  0  0  0  0  0  0  0  0  0  0
    7.3537   -1.2884    0.0351 C   0  0  0  0  0  0  0  0  0  0  0  0
    7.4053   -4.5032   -0.5981 H   0  0  0  0  0  0  0  0  0  0  0  0
    8.4065   -3.3753   -1.3829 H   0  0  0  0  0  0  0  0  0  0  0  0
    6.3370   -2.3980   -1.5364 H   0  0  0  0  0  0  0  0  0  0  0  0
    5.2049   -3.8828    0.0612 H   0  0  0  0  0  0  0  0  0  0  0  0
    6.0084   -3.0558    1.4514 H   0  0  0  0  0  0  0  0  0  0  0  0
    4.0131   -2.0668   -0.6259 H   0  0  0  0  0  0  0  0  0  0  0  0
    3.8258   -2.1358    1.1450 H   0  0  0  0  0  0  0  0  0  0  0  0
    4.4109    0.1262   -0.2560 H   0  0  0  0  0  0  0  0  0  0  0  0
    4.8729   -0.4611    2.5952 H   0  0  0  0  0  0  0  0  0  0  0  0
    2.5483   -0.5958    0.9596 H   0  0  0  0  0  0  0  0  0  0  0  0
    1.2154    0.0476    2.9400 H   0  0  0  0  0  0  0  0  0  0  0  0
    2.6959    0.6732    3.8278 H   0  0  0  0  0  0  0  0  0  0  0  0
    3.2001    2.3123    1.9772 H   0  0  0  0  0  0  0  0  0  0  0  0
    2.4339    3.6492    0.2426 H   0  0  0  0  0  0  0  0  0  0  0  0
    0.7891    4.2861   -1.5015 H   0  0  0  0  0  0  0  0  0  0  0  0
   -2.7665    3.2184   -3.5811 H   0  0  0  0  0  0  0  0  0  0  0  0
   -2.2925    1.5120   -3.3242 H   0  0  0  0  0  0  0  0  0  0  0  0
   -4.0878    4.4026   -1.9526 H   0  0  0  0  0  0  0  0  0  0  0  0
   -6.1363    4.1734   -0.5619 H   0  0  0  0  0  0  0  0  0  0  0  0
   -6.7713    1.9554    0.2573 H   0  0  0  0  0  0  0  0  0  0  0  0
   -3.7828   -1.7338   -0.3327 H   0  0  0  0  0  0  0  0  0  0  0  0
   -4.7110   -1.3284   -1.8611 H   0  0  0  0  0  0  0  0  0  0  0  0
   -5.6481   -3.1564    0.3947 H   0  0  0  0  0  0  0  0  0  0  0  0
   -5.5084   -3.5122   -1.3732 H   0  0  0  0  0  0  0  0  0  0  0  0
   -7.0662   -1.6680   -1.7128 H   0  0  0  0  0  0  0  0  0  0  0  0
   -8.3729   -0.8273   -0.1244 H   0  0  0  0  0  0  0  0  0  0  0  0
   -7.9490   -2.1765    1.0217 H   0  0  0  0  0  0  0  0  0  0  0  0
   -6.7898    0.2638    1.3429 H   0  0  0  0  0  0  0  0  0  0  0  0
   -5.9325   -1.2767    1.6408 H   0  0  0  0  0  0  0  0  0  0  0  0
   -3.4401    0.2064   -1.6428 H   0  0  0  0  0  0  0  0  0  0  0  0
   -1.3430    0.7264   -0.7416 H   0  0  0  0  0  0  0  0  0  0  0  0
    0.2588    0.0827    0.9957 H   0  0  0  0  0  0  0  0  0  0  0  0
    6.7923    0.3610    1.2098 H   0  0  0  0  0  0  0  0  0  0  0  0
    6.5713    0.6317   -0.5153 H   0  0  0  0  0  0  0  0  0  0  0  0
    7.9104   -1.5779    0.9567 H   0  0  0  0  0  0  0  0  0  0  0  0
    8.1362   -0.9590   -0.7007 H   0  0  0  0  0  0  0  0  0  0  0  0
  1  2  1  0
  2  3  1  0
  3  4  1  0
  4  5  1  0
  5  6  1  0
  6  7  1  0
  7  8  1  0
  8  9  1  0
  9 10  1  0
 10 11  2  0
 11 12  1  0
 12 13  2  0
 13 14  1  0
 14 15  1  0
 15 16  1  0
 16 17  2  0
 17 18  1  0
 18 19  2  0
 19 20  1  0
 20 21  1  0
 21 22  1  0
 22 23  1  0
 23 24  1  0
 24 25  1  0
 25 26  1  0
 20 27  2  0
 13 28  1  0
 28 29  2  0
  5 30  1  0
 30 31  1  0
 31  2  1  0
  9  7  1  0
 29 10  1  0
 27 16  1  0
 26 21  1  0
  1 32  1  0
  1 33  1  0
  2 34  1  0
  3 35  1  0
  3 36  1  0
  4 37  1  0
  4 38  1  0
  5 39  1  0
  6 40  1  0
  7 41  1  6
  8 42  1  0
  8 43  1  0
  9 44  1  1
 11 45  1  0
 12 46  1  0
 15 47  1  0
 15 48  1  0
 17 49  1  0
 18 50  1  0
 19 51  1  0
 22 52  1  0
 22 53  1  0
 23 54  1  0
 23 55  1  0
 24 56  1  0
 25 57  1  0
 25 58  1  0
 26 59  1  0
 26 60  1  0
 27 61  1  0
 28 62  1  0
 29 63  1  0
 30 64  1  0
 30 65  1  0
 31 66  1  0
 31 67  1  0
M  END
$$$$
