
     RDKit          3D

 13  9  0  0  0  0  0  0  0  0999 V2000
    0.0000    0.0000    0.0000 Ga  0  0  0  0  0 15  0  0  0  0  0  0
   -0.6346    1.1764   -0.0063 O   0  0  0  0  0  1  0  0  0  0  0  0
    0.0570   -0.0021    0.0004 N   0  0  0  0  0  4  0  0  0  0  0  0
   -0.7234   -1.1468   -0.0031 O   0  0  0  0  0  1  0  0  0  0  0  0
    1.3010   -0.0275    0.0091 O   0  0  0  0  0  0  0  0  0  0  0  0
   -0.6346    1.1764   -0.0063 O   0  0  0  0  0  1  0  0  0  0  0  0
    0.0570   -0.0021    0.0004 N   0  0  0  0  0  4  0  0  0  0  0  0
   -0.7234   -1.1468   -0.0031 O   0  0  0  0  0  1  0  0  0  0  0  0
    1.3010   -0.0275    0.0091 O   0  0  0  0  0  0  0  0  0  0  0  0
   -0.6346    1.1764   -0.0063 O   0  0  0  0  0  1  0  0  0  0  0  0
    0.0570   -0.0021    0.0004 N   0  0  0  0  0  4  0  0  0  0  0  0
   -0.7234   -1.1468   -0.0031 O   0  0  0  0  0  1  0  0  0  0  0  0
    1.3010   -0.0275    0.0091 O   0  0  0  0  0  0  0  0  0  0  0  0
  2  3  1  0
  3  4  1  0
  3  5  2  0
  6  7  1  0
  7  8  1  0
  7  9  2  0
 10 11  1  0
 11 12  1  0
 11 13  2  0
M  CHG  8   1   3   2  -1   3   1   4  -1   6  -1   7   1   8  -1  10  -1
M  CHG  2  11   1  12  -1
M  END
$$$$
