
     RDKit          3D

 60 64  0  0  0  0  0  0  0  0999 V2000
    4.4370   -0.6739   -2.8813 O   0  0  0  0  0  0  0  0  0  0  0  0
    5.1988   -0.9391   -1.9153 C   0  0  0  0  0  0  0  0  0  0  0  0
    6.4018   -1.5655   -2.2088 O   0  0  0  0  0  0  0  0  0  0  0  0
    4.8502   -0.6068   -0.5085 C   0  0  0  0  0  0  0  0  0  0  0  0
    3.5265    0.0443   -0.5136 C   0  0  0  0  0  0  0  0  0  0  0  0
    2.3440   -0.6228   -0.6751 C   0  0  0  0  0  0  0  0  0  0  0  0
    1.3665    0.2951   -0.6238 N   0  0  0  0  0  0  0  0  0  0  0  0
    1.9184    1.5280   -0.4322 C   0  0  0  0  0  0  0  0  0  0  0  0
    1.3158    2.7702   -0.3163 C   0  0  0  0  0  0  0  0  0  0  0  0
    2.0862    3.8936   -0.1252 C   0  0  0  0  0  0  0  0  0  0  0  0
    3.4675    3.7762   -0.0493 C   0  0  0  0  0  0  0  0  0  0  0  0
    4.0537    2.5076   -0.1696 C   0  0  0  0  0  0  0  0  0  0  0  0
    3.2894    1.3871   -0.3599 C   0  0  0  0  0  0  0  0  0  0  0  0
    0.0081   -0.1709   -0.7842 C   0  0  0  0  0  0  0  0  0  0  0  0
   -0.3228   -1.4769   -0.1362 C   0  0  2  0  0  0  0  0  0  0  0  0
   -1.3654   -1.4079    0.8372 N   0  0  0  0  0  0  0  0  0  0  0  0
   -1.0557   -1.1710    2.1749 C   0  0  0  0  0  0  0  0  0  0  0  0
   -1.3606    0.2085    2.6694 C   0  0  0  0  0  0  0  0  0  0  0  0
   -0.4317    1.2276    2.4999 C   0  0  0  0  0  0  0  0  0  0  0  0
   -0.7175    2.4786    2.9690 C   0  0  0  0  0  0  0  0  0  0  0  0
   -1.9228    2.7562    3.6153 C   0  0  0  0  0  0  0  0  0  0  0  0
   -2.1702    3.9993    4.0640 F   0  0  0  0  0  0  0  0  0  0  0  0
   -2.8463    1.7633    3.7896 C   0  0  0  0  0  0  0  0  0  0  0  0
   -2.5421    0.4873    3.3054 C   0  0  0  0  0  0  0  0  0  0  0  0
   -2.7895   -2.2040    0.4709 S   0  0  0  0  0  6  0  0  0  0  0  0
   -3.7653   -2.0619    1.5923 O   0  0  0  0  0  0  0  0  0  0  0  0
   -2.6057   -3.7124    0.3126 O   0  0  0  0  0  0  0  0  0  0  0  0
   -3.5827   -1.5712   -0.9800 C   0  0  0  0  0  0  0  0  0  0  0  0
   -3.3210   -2.0709   -2.2370 C   0  0  0  0  0  0  0  0  0  0  0  0
   -3.9355   -1.5813   -3.3725 C   0  0  0  0  0  0  0  0  0  0  0  0
   -4.8511   -0.5541   -3.2849 C   0  0  0  0  0  0  0  0  0  0  0  0
   -5.4575   -0.0717   -4.4056 F   0  0  0  0  0  0  0  0  0  0  0  0
   -5.1213   -0.0459   -2.0326 C   0  0  0  0  0  0  0  0  0  0  0  0
   -4.4994   -0.5445   -0.9020 C   0  0  0  0  0  0  0  0  0  0  0  0
    0.8925   -2.2302    0.2600 C   0  0  0  0  0  0  0  0  0  0  0  0
    1.9245   -2.0312   -0.8711 C   0  0  0  0  0  0  0  0  0  0  0  0
    6.6631   -1.8023   -3.1639 H   0  0  0  0  0  0  0  0  0  0  0  0
    5.6489    0.0159   -0.0691 H   0  0  0  0  0  0  0  0  0  0  0  0
    4.8301   -1.5656    0.0463 H   0  0  0  0  0  0  0  0  0  0  0  0
    0.2461    2.8989   -0.3706 H   0  0  0  0  0  0  0  0  0  0  0  0
    1.6389    4.8955   -0.0296 H   0  0  0  0  0  0  0  0  0  0  0  0
    4.0655    4.6659    0.1015 H   0  0  0  0  0  0  0  0  0  0  0  0
    5.1311    2.3923   -0.1133 H   0  0  0  0  0  0  0  0  0  0  0  0
   -0.1092   -0.2333   -1.9168 H   0  0  0  0  0  0  0  0  0  0  0  0
   -0.7297    0.6320   -0.5323 H   0  0  0  0  0  0  0  0  0  0  0  0
   -0.7901   -2.1187   -0.9683 H   0  0  0  0  0  0  0  0  0  0  0  0
   -0.0397   -1.4926    2.5041 H   0  0  0  0  0  0  0  0  0  0  0  0
   -1.7291   -1.8459    2.7946 H   0  0  0  0  0  0  0  0  0  0  0  0
    0.4842    1.0145    2.0107 H   0  0  0  0  0  0  0  0  0  0  0  0
   -0.0293    3.3162    2.8653 H   0  0  0  0  0  0  0  0  0  0  0  0
   -3.7890    1.9453    4.2858 H   0  0  0  0  0  0  0  0  0  0  0  0
   -3.2892   -0.2573    3.4748 H   0  0  0  0  0  0  0  0  0  0  0  0
   -2.5997   -2.8868   -2.3436 H   0  0  0  0  0  0  0  0  0  0  0  0
   -3.7324   -1.9717   -4.3653 H   0  0  0  0  0  0  0  0  0  0  0  0
   -5.8331    0.7561   -1.9429 H   0  0  0  0  0  0  0  0  0  0  0  0
   -4.6988   -0.1570    0.0950 H   0  0  0  0  0  0  0  0  0  0  0  0
    0.7567   -3.3247    0.3266 H   0  0  0  0  0  0  0  0  0  0  0  0
    1.4174   -1.8586    1.1635 H   0  0  0  0  0  0  0  0  0  0  0  0
    2.7339   -2.7527   -0.8147 H   0  0  0  0  0  0  0  0  0  0  0  0
    1.3366   -2.0747   -1.8132 H   0  0  0  0  0  0  0  0  0  0  0  0
  1  2  2  0
  2  3  1  0
  2  4  1  0
  4  5  1  0
  5  6  2  0
  6  7  1  0
  7  8  1  0
  8  9  2  0
  9 10  1  0
 10 11  2  0
 11 12  1  0
 12 13  2  0
  7 14  1  0
 14 15  1  0
 15 16  1  0
 16 17  1  0
 17 18  1  0
 18 19  2  0
 19 20  1  0
 20 21  2  0
 21 22  1  0
 21 23  1  0
 23 24  2  0
 16 25  1  0
 25 26  2  0
 25 27  2  0
 25 28  1  0
 28 29  2  0
 29 30  1  0
 30 31  2  0
 31 32  1  0
 31 33  1  0
 33 34  2  0
 15 35  1  0
 35 36  1  0
 13  5  1  0
 24 18  1  0
 34 28  1  0
 36  6  1  0
 13  8  1  0
  3 37  1  0
  4 38  1  0
  4 39  1  0
  9 40  1  0
 10 41  1  0
 11 42  1  0
 12 43  1  0
 14 44  1  0
 14 45  1  0
 15 46  1  6
 17 47  1  0
 17 48  1  0
 19 49  1  0
 20 50  1  0
 23 51  1  0
 24 52  1  0
 29 53  1  0
 30 54  1  0
 33 55  1  0
 34 56  1  0
 35 57  1  0
 35 58  1  0
 36 59  1  0
 36 60  1  0
M  END
$$$$
