
     RDKit          3D

 50 52  0  0  0  0  0  0  0  0999 V2000
    8.6480   -0.1500    1.3940 C   0  0  0  0  0  0  0  0  0  0  0  0
    7.6830   -1.0787    0.9732 O   0  0  0  0  0  0  0  0  0  0  0  0
    6.3906   -0.7400    0.5913 C   0  0  0  0  0  0  0  0  0  0  0  0
    5.5472   -1.7552    0.2002 C   0  0  0  0  0  0  0  0  0  0  0  0
    4.2791   -1.4380   -0.1763 N   0  0  0  0  0  0  0  0  0  0  0  0
    3.8346   -0.1794   -0.1764 C   0  0  0  0  0  0  0  0  0  0  0  0
    2.4795    0.1491   -0.5799 C   0  0  0  0  0  0  0  0  0  0  0  0
    2.0532    1.3416   -0.5818 O   0  0  0  0  0  0  0  0  0  0  0  0
    1.5446   -0.8539   -0.9994 N   0  0  0  0  0  0  0  0  0  0  0  0
    0.2281   -0.4786   -1.3849 C   0  0  0  0  0  0  0  0  0  0  0  0
   -0.0322   -0.1671   -2.7127 C   0  0  0  0  0  0  0  0  0  0  0  0
   -1.3071    0.1936   -3.0717 C   0  0  0  0  0  0  0  0  0  0  0  0
   -1.6980    0.6001   -4.7427 Cl  0  0  0  0  0  0  0  0  0  0  0  0
   -2.2792    0.2291   -2.0815 C   0  0  0  0  0  0  0  0  0  0  0  0
   -3.5216    0.5897   -2.4756 F   0  0  0  0  0  0  0  0  0  0  0  0
   -2.0240   -0.0787   -0.7671 C   0  0  0  0  0  0  0  0  0  0  0  0
   -3.1100   -0.0262    0.2656 C   0  0  2  0  0  0  0  0  0  0  0  0
   -2.4388   -0.2633    1.6316 C   0  0  0  0  0  0  0  0  0  0  0  0
   -4.1085   -1.1144    0.0573 C   0  0  0  0  0  0  0  0  0  0  0  0
   -5.5068   -0.6475   -0.1806 C   0  0  1  0  0  0  0  0  0  0  0  0
   -6.4733   -1.7825    0.1335 C   0  0  0  0  0  0  0  0  0  0  0  0
   -7.7432   -1.3201   -0.0951 F   0  0  0  0  0  0  0  0  0  0  0  0
   -6.2828   -2.2719    1.3974 F   0  0  0  0  0  0  0  0  0  0  0  0
   -6.2308   -2.7796   -0.8068 F   0  0  0  0  0  0  0  0  0  0  0  0
   -5.7439    0.4645    0.6629 O   0  0  0  0  0  0  0  0  0  0  0  0
   -4.8842    1.5409    0.5185 C   0  0  0  0  0  0  0  0  0  0  0  0
   -5.3716    2.9053    0.5779 N   0  0  0  0  0  0  0  0  0  0  0  0
   -3.6405    1.3051    0.3305 N   0  0  0  0  0  0  0  0  0  0  0  0
   -0.7388   -0.4384   -0.4258 C   0  0  0  0  0  0  0  0  0  0  0  0
    4.6685    0.8432    0.2124 C   0  0  0  0  0  0  0  0  0  0  0  0
    4.2576    2.2584    0.2411 C   0  0  0  0  0  0  0  0  0  0  0  0
    5.9387    0.5192    0.5887 N   0  0  0  0  0  0  0  0  0  0  0  0
    8.3640    0.8889    1.1919 H   0  0  0  0  0  0  0  0  0  0  0  0
    9.5917   -0.3970    0.8278 H   0  0  0  0  0  0  0  0  0  0  0  0
    8.8889   -0.2369    2.4851 H   0  0  0  0  0  0  0  0  0  0  0  0
    5.8681   -2.7878    0.1861 H   0  0  0  0  0  0  0  0  0  0  0  0
    1.8619   -1.8512   -1.0106 H   0  0  0  0  0  0  0  0  0  0  0  0
    0.7525   -0.2058   -3.4590 H   0  0  0  0  0  0  0  0  0  0  0  0
   -1.6858    0.5097    1.7912 H   0  0  0  0  0  0  0  0  0  0  0  0
   -2.1075   -1.2933    1.7516 H   0  0  0  0  0  0  0  0  0  0  0  0
   -3.2561   -0.0956    2.3753 H   0  0  0  0  0  0  0  0  0  0  0  0
   -4.1502   -1.8094    0.9492 H   0  0  0  0  0  0  0  0  0  0  0  0
   -3.7288   -1.7675   -0.7674 H   0  0  0  0  0  0  0  0  0  0  0  0
   -5.7129   -0.4113   -1.2662 H   0  0  0  0  0  0  0  0  0  0  0  0
   -5.5667    3.4168   -0.3018 H   0  0  0  0  0  0  0  0  0  0  0  0
   -5.5288    3.3790    1.4823 H   0  0  0  0  0  0  0  0  0  0  0  0
   -0.5197   -0.6866    0.6187 H   0  0  0  0  0  0  0  0  0  0  0  0
    3.4247    2.4449    0.9561 H   0  0  0  0  0  0  0  0  0  0  0  0
    5.1021    2.8829    0.5903 H   0  0  0  0  0  0  0  0  0  0  0  0
    3.9854    2.6439   -0.7665 H   0  0  0  0  0  0  0  0  0  0  0  0
  1  2  1  0
  2  3  1  0
  3  4  2  0
  4  5  1  0
  5  6  2  0
  6  7  1  0
  7  8  2  0
  7  9  1  0
  9 10  1  0
 10 11  2  0
 11 12  1  0
 12 13  1  0
 12 14  2  0
 14 15  1  0
 14 16  1  0
 16 17  1  0
 17 18  1  1
 17 19  1  0
 19 20  1  0
 20 21  1  0
 21 22  1  0
 21 23  1  0
 21 24  1  0
 20 25  1  0
 25 26  1  0
 26 27  1  0
 26 28  2  0
 16 29  2  0
  6 30  1  0
 30 31  1  0
 30 32  2  0
 32  3  1  0
 29 10  1  0
 28 17  1  0
  1 33  1  0
  1 34  1  0
  1 35  1  0
  4 36  1  0
  9 37  1  0
 11 38  1  0
 18 39  1  0
 18 40  1  0
 18 41  1  0
 19 42  1  0
 19 43  1  0
 20 44  1  6
 27 45  1  0
 27 46  1  0
 29 47  1  0
 31 48  1  0
 31 49  1  0
 31 50  1  0
M  END
$$$$
