
     RDKit          3D

 68 72  0  0  0  0  0  0  0  0999 V2000
    8.0876   -1.2404   -0.2631 C   0  0  0  0  0  0  0  0  0  0  0  0
    7.2649    0.0323   -0.0279 C   0  0  0  0  0  0  0  0  0  0  0  0
    7.8324    0.6648    1.2371 C   0  0  0  0  0  0  0  0  0  0  0  0
    7.5006    0.9192   -1.2225 C   0  0  0  0  0  0  0  0  0  0  0  0
    5.9354   -0.3660    0.1225 O   0  0  0  0  0  0  0  0  0  0  0  0
    4.9029    0.5289    0.3519 C   0  0  0  0  0  0  0  0  0  0  0  0
    5.2162    1.7463    0.4216 O   0  0  0  0  0  0  0  0  0  0  0  0
    3.5895    0.0501    0.4925 N   0  0  0  0  0  0  0  0  0  0  0  0
    3.3147   -1.3563    0.3998 C   0  0  0  0  0  0  0  0  0  0  0  0
    2.1409   -1.6381   -0.4928 C   0  0  0  0  0  0  0  0  0  0  0  0
    1.0575   -0.6138   -0.4193 C   0  0  0  0  0  0  0  0  0  0  0  0
   -0.2656   -1.1909   -0.5849 N   0  0  0  0  0  0  0  0  0  0  0  0
   -0.4906   -2.4143   -0.9791 N   0  0  0  0  0  0  0  0  0  0  0  0
   -1.8278   -2.6201   -1.0237 C   0  0  0  0  0  0  0  0  0  0  0  0
   -2.4436   -1.4551   -0.6344 C   0  0  0  0  0  0  0  0  0  0  0  0
   -3.7765   -1.0998   -0.4964 C   0  0  0  0  0  0  0  0  0  0  0  0
   -4.8334   -1.9906   -0.7689 N   0  0  0  0  0  0  0  0  0  0  0  0
   -5.0531   -2.6039   -2.0793 C   0  0  0  0  0  0  0  0  0  0  0  0
   -5.3764   -4.0706   -1.8974 C   0  0  0  0  0  0  0  0  0  0  0  0
   -6.4446   -4.2875   -1.0675 O   0  0  0  0  0  0  0  0  0  0  0  0
   -6.9057   -3.1286   -0.4497 C   0  0  0  0  0  0  0  0  0  0  0  0
   -5.8041   -2.3717    0.2613 C   0  0  0  0  0  0  0  0  0  0  0  0
   -4.0217    0.1740   -0.0778 N   0  0  0  0  0  0  0  0  0  0  0  0
   -3.0647    1.0515    0.1916 C   0  0  0  0  0  0  0  0  0  0  0  0
   -3.3515    2.4096    0.6384 C   0  0  0  0  0  0  0  0  0  0  0  0
   -2.3273    3.2916    0.9083 C   0  0  0  0  0  0  0  0  0  0  0  0
   -2.5769    4.5847    1.3334 C   0  0  0  0  0  0  0  0  0  0  0  0
   -3.8968    4.9574    1.4768 C   0  0  0  0  0  0  0  0  0  0  0  0
   -4.2077    6.2851    1.9142 N   0  0  0  0  0  0  0  0  0  0  0  0
   -4.9415    4.0861    1.2107 C   0  0  0  0  0  0  0  0  0  0  0  0
   -4.6836    2.7998    0.7877 C   0  0  0  0  0  0  0  0  0  0  0  0
   -1.7881    0.6625    0.0436 N   0  0  0  0  0  0  0  0  0  0  0  0
   -1.4308   -0.5612   -0.3605 C   0  0  0  0  0  0  0  0  0  0  0  0
    1.1775    0.2133    0.8330 C   0  0  0  0  0  0  0  0  0  0  0  0
    2.5072    0.9669    0.7310 C   0  0  0  0  0  0  0  0  0  0  0  0
    8.2963   -1.7723    0.6646 H   0  0  0  0  0  0  0  0  0  0  0  0
    7.5423   -1.9466   -0.9322 H   0  0  0  0  0  0  0  0  0  0  0  0
    9.0496   -1.0123   -0.7623 H   0  0  0  0  0  0  0  0  0  0  0  0
    8.8859    0.9264    1.0072 H   0  0  0  0  0  0  0  0  0  0  0  0
    7.8628   -0.0986    2.0424 H   0  0  0  0  0  0  0  0  0  0  0  0
    7.2446    1.5337    1.5713 H   0  0  0  0  0  0  0  0  0  0  0  0
    8.5290    1.3505   -1.1032 H   0  0  0  0  0  0  0  0  0  0  0  0
    7.4736    0.3370   -2.1666 H   0  0  0  0  0  0  0  0  0  0  0  0
    6.7978    1.7511   -1.3078 H   0  0  0  0  0  0  0  0  0  0  0  0
    3.1653   -1.8118    1.4225 H   0  0  0  0  0  0  0  0  0  0  0  0
    4.1859   -1.9177   -0.0236 H   0  0  0  0  0  0  0  0  0  0  0  0
    1.7063   -2.6166   -0.1606 H   0  0  0  0  0  0  0  0  0  0  0  0
    2.5153   -1.7706   -1.5319 H   0  0  0  0  0  0  0  0  0  0  0  0
    1.1796    0.0968   -1.2879 H   0  0  0  0  0  0  0  0  0  0  0  0
   -2.3628   -3.5172   -1.3065 H   0  0  0  0  0  0  0  0  0  0  0  0
   -4.1052   -2.5406   -2.6350 H   0  0  0  0  0  0  0  0  0  0  0  0
   -5.8483   -2.0851   -2.6361 H   0  0  0  0  0  0  0  0  0  0  0  0
   -4.4673   -4.6373   -1.6216 H   0  0  0  0  0  0  0  0  0  0  0  0
   -5.6565   -4.4482   -2.9216 H   0  0  0  0  0  0  0  0  0  0  0  0
   -7.6716   -3.3589    0.3170 H   0  0  0  0  0  0  0  0  0  0  0  0
   -7.3382   -2.4794   -1.2218 H   0  0  0  0  0  0  0  0  0  0  0  0
   -5.2625   -3.0087    0.9813 H   0  0  0  0  0  0  0  0  0  0  0  0
   -6.2640   -1.4767    0.7060 H   0  0  0  0  0  0  0  0  0  0  0  0
   -1.3031    2.9478    0.7792 H   0  0  0  0  0  0  0  0  0  0  0  0
   -1.7691    5.2770    1.5451 H   0  0  0  0  0  0  0  0  0  0  0  0
   -4.4313    6.4967    2.9076 H   0  0  0  0  0  0  0  0  0  0  0  0
   -4.2031    7.0425    1.1973 H   0  0  0  0  0  0  0  0  0  0  0  0
   -5.9680    4.4361    1.3419 H   0  0  0  0  0  0  0  0  0  0  0  0
   -5.4972    2.1225    0.5809 H   0  0  0  0  0  0  0  0  0  0  0  0
    1.2370   -0.4570    1.7186 H   0  0  0  0  0  0  0  0  0  0  0  0
    0.4015    0.9725    0.9201 H   0  0  0  0  0  0  0  0  0  0  0  0
    2.6617    1.6314    1.5875 H   0  0  0  0  0  0  0  0  0  0  0  0
    2.3983    1.6182   -0.1817 H   0  0  0  0  0  0  0  0  0  0  0  0
  1  2  1  0
  2  3  1  0
  2  4  1  0
  2  5  1  0
  5  6  1  0
  6  7  2  0
  6  8  1  0
  8  9  1  0
  9 10  1  0
 10 11  1  0
 11 12  1  0
 12 13  1  0
 13 14  2  0
 14 15  1  0
 15 16  2  0
 16 17  1  0
 17 18  1  0
 18 19  1  0
 19 20  1  0
 20 21  1  0
 21 22  1  0
 16 23  1  0
 23 24  2  0
 24 25  1  0
 25 26  2  0
 26 27  1  0
 27 28  2  0
 28 29  1  0
 28 30  1  0
 30 31  2  0
 24 32  1  0
 32 33  2  0
 11 34  1  0
 34 35  1  0
 35  8  1  0
 33 12  1  0
 33 15  1  0
 22 17  1  0
 31 25  1  0
  1 36  1  0
  1 37  1  0
  1 38  1  0
  3 39  1  0
  3 40  1  0
  3 41  1  0
  4 42  1  0
  4 43  1  0
  4 44  1  0
  9 45  1  0
  9 46  1  0
 10 47  1  0
 10 48  1  0
 11 49  1  0
 14 50  1  0
 18 51  1  0
 18 52  1  0
 19 53  1  0
 19 54  1  0
 21 55  1  0
 21 56  1  0
 22 57  1  0
 22 58  1  0
 26 59  1  0
 27 60  1  0
 29 61  1  0
 29 62  1  0
 30 63  1  0
 31 64  1  0
 34 65  1  0
 34 66  1  0
 35 67  1  0
 35 68  1  0
M  END
$$$$
