
     RDKit          3D

 32 35  0  0  0  0  0  0  0  0999 V2000
    0.2702    3.6719   -0.9831 O   0  0  0  0  0  0  0  0  0  0  0  0
    0.2380    2.5000   -0.5529 C   0  0  0  0  0  0  0  0  0  0  0  0
   -0.9497    1.9283   -0.2936 N   0  0  0  0  0  0  0  0  0  0  0  0
   -1.0654    0.6717    0.1710 C   0  0  0  0  0  0  0  0  0  0  0  0
   -2.4072    0.1367    0.4234 C   0  0  2  0  0  0  0  0  0  0  0  0
   -2.4798   -1.3553    0.4313 C   0  0  0  0  0  0  0  0  0  0  0  0
   -3.9171   -1.6015   -0.0362 C   0  0  0  0  0  0  0  0  0  0  0  0
   -4.4618   -0.2346   -0.3953 C   0  0  0  0  0  0  0  0  0  0  0  0
   -3.2435    0.4881   -0.7155 N   0  0  0  0  0  0  0  0  0  0  0  0
    0.0639   -0.0617    0.3917 N   0  0  0  0  0  0  0  0  0  0  0  0
    1.2802    0.4525    0.1522 C   0  0  0  0  0  0  0  0  0  0  0  0
    1.3771    1.7544   -0.3282 C   0  0  0  0  0  0  0  0  0  0  0  0
    2.6538    2.0012   -0.4724 O   0  0  0  0  0  0  0  0  0  0  0  0
    3.3899    0.9917   -0.1341 C   0  0  0  0  0  0  0  0  0  0  0  0
    4.7480    0.7829   -0.1150 C   0  0  0  0  0  0  0  0  0  0  0  0
    5.2511   -0.4323    0.3084 C   0  0  0  0  0  0  0  0  0  0  0  0
    4.4380   -1.4706    0.7226 C   0  0  0  0  0  0  0  0  0  0  0  0
    5.1233   -2.9937    1.2510 Cl  0  0  0  0  0  0  0  0  0  0  0  0
    3.0778   -1.2627    0.7040 C   0  0  0  0  0  0  0  0  0  0  0  0
    2.5688   -0.0512    0.2822 C   0  0  0  0  0  0  0  0  0  0  0  0
   -1.8195    2.4752   -0.4570 H   0  0  0  0  0  0  0  0  0  0  0  0
   -2.8825    0.5403    1.3398 H   0  0  0  0  0  0  0  0  0  0  0  0
   -2.3446   -1.7461    1.4643 H   0  0  0  0  0  0  0  0  0  0  0  0
   -1.7790   -1.8545   -0.2420 H   0  0  0  0  0  0  0  0  0  0  0  0
   -4.4987   -2.0056    0.8247 H   0  0  0  0  0  0  0  0  0  0  0  0
   -3.9344   -2.2824   -0.9114 H   0  0  0  0  0  0  0  0  0  0  0  0
   -5.1586   -0.2763   -1.2550 H   0  0  0  0  0  0  0  0  0  0  0  0
   -4.9090    0.2520    0.4925 H   0  0  0  0  0  0  0  0  0  0  0  0
   -2.7732    0.0544   -1.5565 H   0  0  0  0  0  0  0  0  0  0  0  0
    5.4048    1.5728   -0.4318 H   0  0  0  0  0  0  0  0  0  0  0  0
    6.3307   -0.6051    0.3261 H   0  0  0  0  0  0  0  0  0  0  0  0
    2.4084   -2.0405    1.0168 H   0  0  0  0  0  0  0  0  0  0  0  0
  1  2  2  0
  2  3  1  0
  3  4  1  0
  4  5  1  0
  5  6  1  0
  6  7  1  0
  7  8  1  0
  8  9  1  0
  4 10  2  0
 10 11  1  0
 11 12  2  0
 12 13  1  0
 13 14  1  0
 14 15  2  0
 15 16  1  0
 16 17  2  0
 17 18  1  0
 17 19  1  0
 19 20  2  0
 12  2  1  0
 20 14  1  0
  9  5  1  0
 20 11  1  0
  3 21  1  0
  5 22  1  1
  6 23  1  0
  6 24  1  0
  7 25  1  0
  7 26  1  0
  8 27  1  0
  8 28  1  0
  9 29  1  0
 15 30  1  0
 16 31  1  0
 19 32  1  0
M  END
$$$$
