
     RDKit          3D

 64 67  0  0  0  0  0  0  0  0999 V2000
   -5.5278    2.3085    2.9157 C   0  0  0  0  0  0  0  0  0  0  0  0
   -6.7681    1.9283    2.3008 O   0  0  0  0  0  0  0  0  0  0  0  0
   -6.7776    1.0460    1.2419 C   0  0  0  0  0  0  0  0  0  0  0  0
   -5.5959    0.4958    0.7337 C   0  0  0  0  0  0  0  0  0  0  0  0
   -5.5592   -0.3791   -0.3105 C   0  0  0  0  0  0  0  0  0  0  0  0
   -4.3982   -0.9698   -0.8698 N   0  0  0  0  0  0  0  0  0  0  0  0
   -3.0740   -0.7761   -0.4675 C   0  0  0  0  0  0  0  0  0  0  0  0
   -2.8348    0.0000    0.4940 O   0  0  0  0  0  0  0  0  0  0  0  0
   -1.9410   -1.4530   -1.1337 C   0  0  0  0  0  0  0  0  0  0  0  0
   -2.0672   -2.3160   -2.1848 C   0  0  0  0  0  0  0  0  0  0  0  0
   -0.9726   -2.9252   -2.7746 C   0  0  0  0  0  0  0  0  0  0  0  0
    0.2949   -2.6850   -2.3238 C   0  0  0  0  0  0  0  0  0  0  0  0
    0.4421   -1.8161   -1.2629 C   0  0  0  0  0  0  0  0  0  0  0  0
    1.7563   -1.5273   -0.7476 N   0  0  0  0  0  0  0  0  0  0  0  0
    2.5269   -0.4977   -1.1014 C   0  0  0  0  0  0  0  0  0  0  0  0
    3.7253   -0.5442   -0.3953 C   0  0  0  0  0  0  0  0  0  0  0  0
    4.7799    0.3941   -0.5204 N   0  0  0  0  0  0  0  0  0  0  0  0
    5.9961    0.3529    0.1918 C   0  0  0  0  0  0  0  0  0  0  0  0
    6.1844   -0.5777    1.0070 O   0  0  0  0  0  0  0  0  0  0  0  0
    7.0278    1.3199    0.0319 N   0  0  0  0  0  0  0  0  0  0  0  0
    8.2481    1.2630    0.7585 C   0  0  0  0  0  0  0  0  0  0  0  0
    8.3930    1.8903    1.9925 C   0  0  0  0  0  0  0  0  0  0  0  0
    9.6069    1.7740    2.6072 C   0  0  0  0  0  0  0  0  0  0  0  0
   10.6598    1.0727    2.0534 C   0  0  0  0  0  0  0  0  0  0  0  0
   10.5258    0.4559    0.8457 C   0  0  0  0  0  0  0  0  0  0  0  0
   11.6554   -0.3025    0.2406 C   0  0  0  0  0  0  0  0  0  0  0  0
    9.2956    0.5614    0.2004 C   0  0  0  0  0  0  0  0  0  0  0  0
    3.6288   -1.6595    0.4014 C   0  0  0  0  0  0  0  0  0  0  0  0
    2.4200   -2.2067    0.1420 N   0  0  0  0  0  0  0  0  0  0  0  0
   -0.6515   -1.2116   -0.6785 C   0  0  0  0  0  0  0  0  0  0  0  0
   -6.7977   -0.7084   -0.8642 C   0  0  0  0  0  0  0  0  0  0  0  0
   -7.9807   -0.1715   -0.3721 C   0  0  0  0  0  0  0  0  0  0  0  0
   -9.2002   -0.5123   -0.9371 O   0  0  0  0  0  0  0  0  0  0  0  0
   -9.3170   -1.4103   -2.0287 C   0  0  0  0  0  0  0  0  0  0  0  0
   -7.9890    0.7098    0.6834 C   0  0  0  0  0  0  0  0  0  0  0  0
   -9.1691    1.2489    1.1785 O   0  0  0  0  0  0  0  0  0  0  0  0
   -9.7102    2.4591    0.6808 C   0  0  0  0  0  0  0  0  0  0  0  0
   -5.7084    3.0779    3.6864 H   0  0  0  0  0  0  0  0  0  0  0  0
   -5.1054    1.3673    3.3213 H   0  0  0  0  0  0  0  0  0  0  0  0
   -4.9011    2.7048    2.0861 H   0  0  0  0  0  0  0  0  0  0  0  0
   -4.7031    0.8147    1.2305 H   0  0  0  0  0  0  0  0  0  0  0  0
   -4.5086   -1.6468   -1.6959 H   0  0  0  0  0  0  0  0  0  0  0  0
   -3.0278   -2.5556   -2.5956 H   0  0  0  0  0  0  0  0  0  0  0  0
   -1.0916   -3.6143   -3.6163 H   0  0  0  0  0  0  0  0  0  0  0  0
    1.1809   -3.1412   -2.7569 H   0  0  0  0  0  0  0  0  0  0  0  0
    2.2310    0.2523   -1.8391 H   0  0  0  0  0  0  0  0  0  0  0  0
    4.6472    1.1964   -1.2067 H   0  0  0  0  0  0  0  0  0  0  0  0
    6.8444    2.0836   -0.6532 H   0  0  0  0  0  0  0  0  0  0  0  0
    7.5524    2.4167    2.3741 H   0  0  0  0  0  0  0  0  0  0  0  0
    9.7446    2.2514    3.5651 H   0  0  0  0  0  0  0  0  0  0  0  0
   11.6004    1.0260    2.6083 H   0  0  0  0  0  0  0  0  0  0  0  0
   11.6094   -1.3805    0.4536 H   0  0  0  0  0  0  0  0  0  0  0  0
   12.6358    0.1017    0.5453 H   0  0  0  0  0  0  0  0  0  0  0  0
   11.6109   -0.1809   -0.8768 H   0  0  0  0  0  0  0  0  0  0  0  0
    9.2308    0.0570   -0.7568 H   0  0  0  0  0  0  0  0  0  0  0  0
    4.3839   -2.0200    1.0989 H   0  0  0  0  0  0  0  0  0  0  0  0
   -0.5394   -0.5190    0.1665 H   0  0  0  0  0  0  0  0  0  0  0  0
   -6.7927   -1.3992   -1.6917 H   0  0  0  0  0  0  0  0  0  0  0  0
  -10.3469   -1.3537   -2.4234 H   0  0  0  0  0  0  0  0  0  0  0  0
   -8.5524   -1.1764   -2.7756 H   0  0  0  0  0  0  0  0  0  0  0  0
   -9.1288   -2.4445   -1.6648 H   0  0  0  0  0  0  0  0  0  0  0  0
  -10.2161    2.2966   -0.3047 H   0  0  0  0  0  0  0  0  0  0  0  0
  -10.5360    2.7452    1.3799 H   0  0  0  0  0  0  0  0  0  0  0  0
   -8.9487    3.2655    0.6133 H   0  0  0  0  0  0  0  0  0  0  0  0
  1  2  1  0
  2  3  1  0
  3  4  2  0
  4  5  1  0
  5  6  1  0
  6  7  1  0
  7  8  2  0
  7  9  1  0
  9 10  2  0
 10 11  1  0
 11 12  2  0
 12 13  1  0
 13 14  1  0
 14 15  1  0
 15 16  2  0
 16 17  1  0
 17 18  1  0
 18 19  2  0
 18 20  1  0
 20 21  1  0
 21 22  2  0
 22 23  1  0
 23 24  2  0
 24 25  1  0
 25 26  1  0
 25 27  2  0
 16 28  1  0
 28 29  2  0
 13 30  2  0
  5 31  2  0
 31 32  1  0
 32 33  1  0
 33 34  1  0
 32 35  2  0
 35 36  1  0
 36 37  1  0
 35  3  1  0
 30  9  1  0
 29 14  1  0
 27 21  1  0
  1 38  1  0
  1 39  1  0
  1 40  1  0
  4 41  1  0
  6 42  1  0
 10 43  1  0
 11 44  1  0
 12 45  1  0
 15 46  1  0
 17 47  1  0
 20 48  1  0
 22 49  1  0
 23 50  1  0
 24 51  1  0
 26 52  1  0
 26 53  1  0
 26 54  1  0
 27 55  1  0
 28 56  1  0
 30 57  1  0
 31 58  1  0
 34 59  1  0
 34 60  1  0
 34 61  1  0
 37 62  1  0
 37 63  1  0
 37 64  1  0
M  END
$$$$
