
     RDKit          3D

 44 47  0  0  0  0  0  0  0  0999 V2000
   -6.4026   -1.3285   -0.7254 C   0  0  0  0  0  0  0  0  0  0  0  0
   -5.8168   -0.5468    0.1331 O   0  0  0  0  0  0  0  0  0  0  0  0
   -5.2390    0.2304    0.9935 C   0  0  0  0  0  0  0  0  0  0  0  0
   -5.6019    0.5949    2.2485 C   0  0  0  0  0  0  0  0  0  0  0  0
   -4.8808    1.4686    3.0554 C   0  0  0  0  0  0  0  0  0  0  0  0
   -3.7304    2.0021    2.5502 C   0  0  0  0  0  0  0  0  0  0  0  0
   -3.3084    1.6559    1.2677 C   0  0  0  0  0  0  0  0  0  0  0  0
   -4.0227    0.8064    0.5059 C   0  0  0  0  0  0  0  0  0  0  0  0
   -3.4566    0.1601   -0.6473 N   0  0  0  0  0  0  0  0  0  0  0  0
   -2.0748   -0.2761   -0.3462 C   0  0  0  0  0  0  0  0  0  0  0  0
   -1.2676   -0.6375   -1.3512 C   0  0  0  0  0  0  0  0  0  0  0  0
    0.0939   -0.7514   -1.0074 C   0  0  0  0  0  0  0  0  0  0  0  0
    1.1650   -0.8506   -1.8031 N   0  0  0  0  0  0  0  0  0  0  0  0
    2.2539   -0.6581   -1.0378 C   0  0  0  0  0  0  0  0  0  0  0  0
    3.6146   -0.5170   -1.5038 C   0  0  0  0  0  0  0  0  0  0  0  0
    4.2617   -0.9015   -2.6359 C   0  0  0  0  0  0  0  0  0  0  0  0
    5.4984   -0.4067   -2.5432 N   0  0  0  0  0  0  0  0  0  0  0  0
    5.7365    0.2657   -1.4697 N   0  0  0  0  0  0  0  0  0  0  0  0
    6.9665    0.7107   -0.7914 C   0  0  0  0  0  0  0  0  0  0  0  0
    6.7294    0.6582    0.7352 C   0  0  0  0  0  0  0  0  0  0  0  0
    6.2762   -0.5673    1.0717 F   0  0  0  0  0  0  0  0  0  0  0  0
    8.0130    0.7686    1.3485 F   0  0  0  0  0  0  0  0  0  0  0  0
    5.9757    1.7236    1.0757 F   0  0  0  0  0  0  0  0  0  0  0  0
    4.5628    0.2249   -0.7740 C   0  0  0  0  0  0  0  0  0  0  0  0
    1.8564   -0.4544    0.2670 C   0  0  0  0  0  0  0  0  0  0  0  0
    0.4849   -0.5085    0.2811 C   0  0  0  0  0  0  0  0  0  0  0  0
   -0.3687   -0.1571    1.3176 C   0  0  0  0  0  0  0  0  0  0  0  0
   -1.6668   -0.0500    0.9231 N   0  0  0  0  0  0  0  0  0  0  0  0
   -5.8043   -1.4293   -1.7214 H   0  0  0  0  0  0  0  0  0  0  0  0
   -6.5847   -2.3788   -0.4921 H   0  0  0  0  0  0  0  0  0  0  0  0
   -7.4076   -0.9120   -1.1081 H   0  0  0  0  0  0  0  0  0  0  0  0
   -6.5022    0.1460    2.7234 H   0  0  0  0  0  0  0  0  0  0  0  0
   -5.2336    1.7080    4.0809 H   0  0  0  0  0  0  0  0  0  0  0  0
   -3.1305    2.7094    3.0906 H   0  0  0  0  0  0  0  0  0  0  0  0
   -2.4053    2.1158    0.8243 H   0  0  0  0  0  0  0  0  0  0  0  0
   -3.8392    0.0849   -1.5279 H   0  0  0  0  0  0  0  0  0  0  0  0
   -1.5565   -0.8830   -2.3461 H   0  0  0  0  0  0  0  0  0  0  0  0
    1.1468   -1.0683   -2.8138 H   0  0  0  0  0  0  0  0  0  0  0  0
    3.7823   -1.4868   -3.4275 H   0  0  0  0  0  0  0  0  0  0  0  0
    7.7214   -0.1533   -0.9199 H   0  0  0  0  0  0  0  0  0  0  0  0
    7.3627    1.6107   -1.1502 H   0  0  0  0  0  0  0  0  0  0  0  0
    4.3583    0.6850    0.1946 H   0  0  0  0  0  0  0  0  0  0  0  0
    2.4782   -0.2676    1.1240 H   0  0  0  0  0  0  0  0  0  0  0  0
   -0.0375    0.0043    2.3316 H   0  0  0  0  0  0  0  0  0  0  0  0
  1  2  1  0
  2  3  1  0
  3  4  2  0
  4  5  1  0
  5  6  2  0
  6  7  1  0
  7  8  2  0
  8  9  1  0
  9 10  1  0
 10 11  2  0
 11 12  1  0
 12 13  1  0
 13 14  1  0
 14 15  1  0
 15 16  1  0
 16 17  2  0
 17 18  1  0
 18 19  1  0
 19 20  1  0
 20 21  1  0
 20 22  1  0
 20 23  1  0
 18 24  1  0
 14 25  2  0
 25 26  1  0
 26 27  1  0
 27 28  2  0
  8  3  1  0
 28 10  1  0
 26 12  2  0
 24 15  2  0
  1 29  1  0
  1 30  1  0
  1 31  1  0
  4 32  1  0
  5 33  1  0
  6 34  1  0
  7 35  1  0
  9 36  1  0
 11 37  1  0
 13 38  1  0
 16 39  1  0
 19 40  1  0
 19 41  1  0
 24 42  1  0
 25 43  1  0
 27 44  1  0
M  END
$$$$
