
     RDKit          3D

 63 67  0  0  0  0  0  0  0  0999 V2000
    0.5279   -1.1621   -0.5574 O   0  0  0  0  0  0  0  0  0  0  0  0
    0.1109   -0.1260   -0.0264 C   0  0  0  0  0  0  0  0  0  0  0  0
    1.1144    0.5855    0.7377 N   0  0  0  0  0  0  0  0  0  0  0  0
    2.4436    0.1150    0.8480 C   0  0  0  0  0  0  0  0  0  0  0  0
    2.8193   -0.7704    1.8396 C   0  0  0  0  0  0  0  0  0  0  0  0
    4.1217   -1.2257    1.9575 C   0  0  0  0  0  0  0  0  0  0  0  0
    5.1077   -0.8158    1.0887 C   0  0  0  0  0  0  0  0  0  0  0  0
    6.4228   -1.2780    1.2105 O   0  0  0  0  0  0  0  0  0  0  0  0
    7.4166   -0.7988    0.3875 C   0  0  0  0  0  0  0  0  0  0  0  0
    7.6504   -1.4304   -0.8096 C   0  0  0  0  0  0  0  0  0  0  0  0
    8.6338   -0.9527   -1.6190 C   0  0  0  0  0  0  0  0  0  0  0  0
    9.4045    0.1417   -1.2828 C   0  0  0  0  0  0  0  0  0  0  0  0
   10.3606    0.5263   -2.1781 F   0  0  0  0  0  0  0  0  0  0  0  0
    9.1825    0.7815   -0.0920 C   0  0  0  0  0  0  0  0  0  0  0  0
    8.1913    0.3110    0.7389 C   0  0  0  0  0  0  0  0  0  0  0  0
    4.7403    0.0684    0.0953 C   0  0  0  0  0  0  0  0  0  0  0  0
    3.4405    0.5225   -0.0222 C   0  0  0  0  0  0  0  0  0  0  0  0
   -1.2250    0.4537   -0.0696 C   0  0  2  0  0  0  0  0  0  0  0  0
   -1.7767    0.4000    1.3997 C   0  0  0  0  0  0  0  0  0  0  0  0
   -3.2653    0.6072    1.2258 C   0  0  1  0  0  0  0  0  0  0  0  0
   -3.6135    1.8660    1.9876 C   0  0  0  0  0  0  0  0  0  0  0  0
   -5.0145    2.2385    1.9416 C   0  0  0  0  0  0  0  0  0  0  0  0
   -5.5027    3.0641    0.9587 C   0  0  0  0  0  0  0  0  0  0  0  0
   -6.8498    3.4268    0.9106 C   0  0  0  0  0  0  0  0  0  0  0  0
   -7.7145    2.9522    1.8637 C   0  0  0  0  0  0  0  0  0  0  0  0
   -9.0280    3.3202    1.7982 F   0  0  0  0  0  0  0  0  0  0  0  0
   -7.2476    2.1273    2.8525 C   0  0  0  0  0  0  0  0  0  0  0  0
   -5.8975    1.7733    2.8873 C   0  0  0  0  0  0  0  0  0  0  0  0
   -3.4482    0.7132   -0.2502 C   0  0  0  0  0  0  0  0  0  0  0  0
   -2.2975   -0.1337   -0.7287 N   0  0  0  0  0  0  0  0  0  0  0  0
   -2.5094   -1.1700   -1.6131 C   0  0  0  0  0  0  0  0  0  0  0  0
   -3.7765   -1.3052   -1.9637 O   0  0  0  0  0  0  0  0  0  0  0  0
   -1.5788   -2.1287   -2.2188 C   0  0  0  0  0  0  0  0  0  0  0  0
   -2.3702   -2.9795   -3.1512 N   0  0  0  0  0  0  0  0  0  0  0  0
   -2.6008   -2.7490   -4.4482 C   0  0  0  0  0  0  0  0  0  0  0  0
   -3.3631   -3.7448   -4.9621 N   0  0  0  0  0  0  0  0  0  0  0  0
   -3.6018   -4.6042   -3.9475 C   0  0  0  0  0  0  0  0  0  0  0  0
   -2.9893   -4.1132   -2.8713 N   0  0  0  0  0  0  0  0  0  0  0  0
    0.8257    1.4601    1.2074 H   0  0  0  0  0  0  0  0  0  0  0  0
    2.0468   -1.1127    2.5475 H   0  0  0  0  0  0  0  0  0  0  0  0
    4.4188   -1.9250    2.7409 H   0  0  0  0  0  0  0  0  0  0  0  0
    7.0467   -2.3005   -1.0895 H   0  0  0  0  0  0  0  0  0  0  0  0
    8.8138   -1.4636   -2.5735 H   0  0  0  0  0  0  0  0  0  0  0  0
    9.8029    1.6509    0.1639 H   0  0  0  0  0  0  0  0  0  0  0  0
    8.0021    0.8041    1.6836 H   0  0  0  0  0  0  0  0  0  0  0  0
    5.5123    0.4021   -0.6016 H   0  0  0  0  0  0  0  0  0  0  0  0
    3.1335    1.2166   -0.7962 H   0  0  0  0  0  0  0  0  0  0  0  0
   -1.1283    1.5725   -0.3076 H   0  0  0  0  0  0  0  0  0  0  0  0
   -1.6145   -0.5996    1.8030 H   0  0  0  0  0  0  0  0  0  0  0  0
   -1.2738    1.2096    1.9225 H   0  0  0  0  0  0  0  0  0  0  0  0
   -3.8591   -0.2505    1.6163 H   0  0  0  0  0  0  0  0  0  0  0  0
   -3.2322    1.7002    3.0318 H   0  0  0  0  0  0  0  0  0  0  0  0
   -2.9277    2.6635    1.5749 H   0  0  0  0  0  0  0  0  0  0  0  0
   -4.8585    3.4587    0.1920 H   0  0  0  0  0  0  0  0  0  0  0  0
   -7.2441    4.0750    0.1434 H   0  0  0  0  0  0  0  0  0  0  0  0
   -7.9473    1.7670    3.5905 H   0  0  0  0  0  0  0  0  0  0  0  0
   -5.5886    1.1084    3.7071 H   0  0  0  0  0  0  0  0  0  0  0  0
   -4.3970    0.3370   -0.6224 H   0  0  0  0  0  0  0  0  0  0  0  0
   -3.1762    1.7263   -0.5709 H   0  0  0  0  0  0  0  0  0  0  0  0
   -0.7541   -1.6798   -2.7975 H   0  0  0  0  0  0  0  0  0  0  0  0
   -1.1787   -2.8740   -1.4727 H   0  0  0  0  0  0  0  0  0  0  0  0
   -2.2607   -1.9192   -5.0473 H   0  0  0  0  0  0  0  0  0  0  0  0
   -4.1801   -5.5330   -3.9631 H   0  0  0  0  0  0  0  0  0  0  0  0
  1  2  2  0
  2  3  1  0
  3  4  1  0
  4  5  2  0
  5  6  1  0
  6  7  2  0
  7  8  1  0
  8  9  1  0
  9 10  2  0
 10 11  1  0
 11 12  2  0
 12 13  1  0
 12 14  1  0
 14 15  2  0
  7 16  1  0
 16 17  2  0
  2 18  1  0
 18 19  1  0
 19 20  1  0
 20 21  1  0
 21 22  1  0
 22 23  2  0
 23 24  1  0
 24 25  2  0
 25 26  1  0
 25 27  1  0
 27 28  2  0
 20 29  1  0
 29 30  1  0
 30 31  1  0
 31 32  2  0
 31 33  1  0
 33 34  1  0
 34 35  1  0
 35 36  2  0
 36 37  1  0
 37 38  2  0
 17  4  1  0
 30 18  1  0
 38 34  1  0
 15  9  1  0
 28 22  1  0
  3 39  1  0
  5 40  1  0
  6 41  1  0
 10 42  1  0
 11 43  1  0
 14 44  1  0
 15 45  1  0
 16 46  1  0
 17 47  1  0
 18 48  1  6
 19 49  1  0
 19 50  1  0
 20 51  1  1
 21 52  1  0
 21 53  1  0
 23 54  1  0
 24 55  1  0
 27 56  1  0
 28 57  1  0
 29 58  1  0
 29 59  1  0
 33 60  1  0
 33 61  1  0
 35 62  1  0
 37 63  1  0
M  END
$$$$
