
     RDKit          3D

 13 12  0  0  0  0  0  0  0  0999 V2000
    1.5284    0.2713   -0.2826 C   0  0  0  0  0  0  0  0  0  0  0  0
    0.4926   -0.7302    0.2077 C   0  0  0  0  0  0  0  0  0  0  0  0
   -0.7760   -0.5670   -0.4445 N   0  0  0  0  0  0  0  0  0  0  0  0
   -1.4890    0.6145   -0.0939 C   0  0  0  0  0  0  0  0  0  0  0  0
    2.5121   -0.0917    0.0887 H   0  0  0  0  0  0  0  0  0  0  0  0
    1.2958    1.3015    0.0234 H   0  0  0  0  0  0  0  0  0  0  0  0
    1.5950    0.2205   -1.3899 H   0  0  0  0  0  0  0  0  0  0  0  0
    0.8755   -1.7445   -0.0638 H   0  0  0  0  0  0  0  0  0  0  0  0
    0.4328   -0.6719    1.3123 H   0  0  0  0  0  0  0  0  0  0  0  0
   -1.3341   -1.4311   -0.5173 H   0  0  0  0  0  0  0  0  0  0  0  0
   -1.4828    1.3498   -0.9333 H   0  0  0  0  0  0  0  0  0  0  0  0
   -2.5683    0.3609    0.0642 H   0  0  0  0  0  0  0  0  0  0  0  0
   -1.0820    1.1179    0.8189 H   0  0  0  0  0  0  0  0  0  0  0  0
  1  2  1  0
  2  3  1  0
  3  4  1  0
  1  5  1  0
  1  6  1  0
  1  7  1  0
  2  8  1  0
  2  9  1  0
  3 10  1  0
  4 11  1  0
  4 12  1  0
  4 13  1  0
M  END
$$$$
