
     RDKit          3D

 64 66  0  0  0  0  0  0  0  0999 V2000
   -5.1083   -3.6684    1.5669 C   0  0  0  0  0  0  0  0  0  0  0  0
   -4.2140   -3.1668    0.4349 C   0  0  0  0  0  0  0  0  0  0  0  0
   -3.7198   -1.8164    0.7659 N   0  0  0  0  0  0  0  0  0  0  0  0
   -2.5432   -1.7087    1.5186 C   0  0  0  0  0  0  0  0  0  0  0  0
   -1.2158   -1.5136    0.8949 C   0  0  0  0  0  0  0  0  0  0  0  0
   -1.1106   -0.3541    0.1542 O   0  0  0  0  0  0  0  0  0  0  0  0
   -0.1671   -1.4403    2.0199 C   0  0  0  0  0  0  0  0  0  0  0  0
    1.1728   -1.3326    1.6173 N   0  0  0  0  0  0  0  0  0  0  0  0
    1.8049   -0.2779    0.9073 C   0  0  0  0  0  0  0  0  0  0  0  0
    1.1404    0.7203    0.5778 O   0  0  0  0  0  0  0  0  0  0  0  0
    3.2167   -0.3300    0.5511 C   0  0  0  0  0  0  0  0  0  0  0  0
    4.1363   -1.3247    0.8095 C   0  0  0  0  0  0  0  0  0  0  0  0
    5.3072   -0.9358    0.2934 N   0  0  0  0  0  0  0  0  0  0  0  0
    5.1965    0.2575   -0.2858 N   0  0  0  0  0  0  0  0  0  0  0  0
    6.2020    1.0051   -0.9401 C   0  0  0  0  0  0  0  0  0  0  0  0
    7.3935    1.3073   -0.3124 C   0  0  0  0  0  0  0  0  0  0  0  0
    8.3768    2.0386   -0.9528 C   0  0  0  0  0  0  0  0  0  0  0  0
    8.1939    2.4863   -2.2367 C   0  0  0  0  0  0  0  0  0  0  0  0
    9.1548    3.2032   -2.8677 F   0  0  0  0  0  0  0  0  0  0  0  0
    6.9946    2.1799   -2.8631 C   0  0  0  0  0  0  0  0  0  0  0  0
    6.0203    1.4537   -2.2249 C   0  0  0  0  0  0  0  0  0  0  0  0
    3.9027    0.6440   -0.1322 C   0  0  0  0  0  0  0  0  0  0  0  0
    3.3424    1.8609   -0.6014 N   0  0  0  0  0  0  0  0  0  0  0  0
   -0.7470   -2.6937    0.0350 C   0  0  0  0  0  0  0  0  0  0  0  0
    0.5196   -2.3423   -0.4463 F   0  0  0  0  0  0  0  0  0  0  0  0
   -0.6198   -3.8084    0.7976 F   0  0  0  0  0  0  0  0  0  0  0  0
   -1.4999   -2.8831   -1.0846 F   0  0  0  0  0  0  0  0  0  0  0  0
   -4.5715   -0.7300    0.3436 C   0  0  0  0  0  0  0  0  0  0  0  0
   -5.6330   -1.0210   -0.2077 O   0  0  0  0  0  0  0  0  0  0  0  0
   -4.2251    0.6740    0.5508 C   0  0  0  0  0  0  0  0  0  0  0  0
   -4.2895    1.2758    1.7724 C   0  0  0  0  0  0  0  0  0  0  0  0
   -3.8749    2.5740    1.9287 C   0  0  0  0  0  0  0  0  0  0  0  0
   -3.3786    3.3333    0.8832 C   0  0  0  0  0  0  0  0  0  0  0  0
   -3.3196    2.7153   -0.3476 C   0  0  0  0  0  0  0  0  0  0  0  0
   -3.7372    1.4019   -0.5214 C   0  0  0  0  0  0  0  0  0  0  0  0
   -3.7414    0.6988   -2.1414 S   0  0  0  0  0  6  0  0  0  0  0  0
   -2.9924    1.8926   -3.2262 C   0  0  0  0  0  0  0  0  0  0  0  0
   -5.1768    0.5835   -2.6356 O   0  0  0  0  0  0  0  0  0  0  0  0
   -3.0163   -0.5704   -2.2508 O   0  0  0  0  0  0  0  0  0  0  0  0
   -4.4481   -3.9669    2.4021 H   0  0  0  0  0  0  0  0  0  0  0  0
   -5.7953   -2.8759    1.9263 H   0  0  0  0  0  0  0  0  0  0  0  0
   -5.6558   -4.5655    1.2201 H   0  0  0  0  0  0  0  0  0  0  0  0
   -3.3558   -3.8598    0.4368 H   0  0  0  0  0  0  0  0  0  0  0  0
   -4.8236   -3.1764   -0.4811 H   0  0  0  0  0  0  0  0  0  0  0  0
   -2.6891   -0.7985    2.2020 H   0  0  0  0  0  0  0  0  0  0  0  0
   -2.4822   -2.6199    2.1800 H   0  0  0  0  0  0  0  0  0  0  0  0
   -0.7864   -0.5743   -0.7586 H   0  0  0  0  0  0  0  0  0  0  0  0
   -0.4873   -0.6635    2.7635 H   0  0  0  0  0  0  0  0  0  0  0  0
   -0.3130   -2.4020    2.5766 H   0  0  0  0  0  0  0  0  0  0  0  0
    1.8554   -2.1338    1.8557 H   0  0  0  0  0  0  0  0  0  0  0  0
    3.9696   -2.2503    1.3273 H   0  0  0  0  0  0  0  0  0  0  0  0
    7.5406    0.9581    0.6942 H   0  0  0  0  0  0  0  0  0  0  0  0
    9.3077    2.2586   -0.4235 H   0  0  0  0  0  0  0  0  0  0  0  0
    6.8561    2.5383   -3.8821 H   0  0  0  0  0  0  0  0  0  0  0  0
    5.0762    1.2110   -2.7146 H   0  0  0  0  0  0  0  0  0  0  0  0
    3.0300    1.9220   -1.5830 H   0  0  0  0  0  0  0  0  0  0  0  0
    3.2431    2.6844    0.0242 H   0  0  0  0  0  0  0  0  0  0  0  0
   -4.6802    0.6770    2.5938 H   0  0  0  0  0  0  0  0  0  0  0  0
   -3.9267    3.0592    2.9135 H   0  0  0  0  0  0  0  0  0  0  0  0
   -3.0490    4.3594    1.0043 H   0  0  0  0  0  0  0  0  0  0  0  0
   -2.9314    3.2805   -1.2105 H   0  0  0  0  0  0  0  0  0  0  0  0
   -1.9550    2.1279   -2.9475 H   0  0  0  0  0  0  0  0  0  0  0  0
   -3.5793    2.8326   -3.1243 H   0  0  0  0  0  0  0  0  0  0  0  0
   -3.0938    1.5900   -4.2943 H   0  0  0  0  0  0  0  0  0  0  0  0
  1  2  1  0
  2  3  1  0
  3  4  1  0
  4  5  1  0
  5  6  1  0
  5  7  1  0
  7  8  1  0
  8  9  1  0
  9 10  2  0
  9 11  1  0
 11 12  1  0
 12 13  2  0
 13 14  1  0
 14 15  1  0
 15 16  2  0
 16 17  1  0
 17 18  2  0
 18 19  1  0
 18 20  1  0
 20 21  2  0
 14 22  1  0
 22 23  1  0
  5 24  1  0
 24 25  1  0
 24 26  1  0
 24 27  1  0
  3 28  1  0
 28 29  2  0
 28 30  1  0
 30 31  2  0
 31 32  1  0
 32 33  2  0
 33 34  1  0
 34 35  2  0
 35 36  1  0
 36 37  1  0
 36 38  2  0
 36 39  2  0
 22 11  2  0
 35 30  1  0
 21 15  1  0
  1 40  1  0
  1 41  1  0
  1 42  1  0
  2 43  1  0
  2 44  1  0
  4 45  1  0
  4 46  1  0
  6 47  1  0
  7 48  1  0
  7 49  1  0
  8 50  1  0
 12 51  1  0
 16 52  1  0
 17 53  1  0
 20 54  1  0
 21 55  1  0
 23 56  1  0
 23 57  1  0
 31 58  1  0
 32 59  1  0
 33 60  1  0
 34 61  1  0
 37 62  1  0
 37 63  1  0
 37 64  1  0
M  END
$$$$
