
     RDKit          3D

 62 64  0  0  0  0  0  0  0  0999 V2000
   -3.5030   -0.5637    0.3480 C   0  0  1  0  0  0  0  0  0  0  0  0
   -4.1126    0.3802   -0.6524 C   0  0  0  0  0  0  0  0  0  0  0  0
   -5.3000    1.0464   -0.0631 C   0  0  0  0  0  0  0  0  0  0  0  0
   -6.6099    0.6302   -0.1193 C   0  0  0  0  0  0  0  0  0  0  0  0
   -7.6450    1.3214    0.4670 C   0  0  0  0  0  0  0  0  0  0  0  0
   -7.4013    2.4976    1.1568 C   0  0  0  0  0  0  0  0  0  0  0  0
   -6.0951    2.9189    1.2166 C   0  0  0  0  0  0  0  0  0  0  0  0
   -5.0572    2.2192    0.6247 C   0  0  0  0  0  0  0  0  0  0  0  0
   -4.4388   -1.5705    0.7313 N   0  0  0  0  0  0  0  0  0  0  0  0
   -4.9009   -2.4347   -0.3035 C   0  0  0  0  0  0  0  0  0  0  0  0
   -2.2250   -1.0951   -0.1237 C   0  0  0  0  0  0  0  0  0  0  0  0
   -2.5891   -2.2884    0.0332 O   0  0  0  0  0  0  0  0  0  0  0  0
   -0.9670   -0.7029   -0.6032 N   0  0  0  0  0  0  0  0  0  0  0  0
   -0.3172    0.5695   -0.8644 C   0  0  0  0  0  0  0  0  0  0  0  0
    0.3844    0.3356   -2.1868 C   0  0  0  0  0  0  0  0  0  0  0  0
    0.5757   -1.1566   -2.2909 C   0  0  0  0  0  0  0  0  0  0  0  0
    0.0529   -1.6512   -0.9782 C   0  0  1  0  0  0  0  0  0  0  0  0
    1.0776   -1.7049    0.1059 C   0  0  0  0  0  0  0  0  0  0  0  0
    0.3416   -2.0551    1.2449 O   0  0  0  0  0  0  0  0  0  0  0  0
    2.3024   -1.5828    0.4796 N   0  0  0  0  0  0  0  0  0  0  0  0
    3.3252   -1.2270   -0.4654 C   0  0  0  0  0  0  0  0  0  0  0  0
    4.6720   -1.0278    0.2474 C   0  0  1  0  0  0  0  0  0  0  0  0
    5.7532   -0.6510   -0.7500 C   0  0  0  0  0  0  0  0  0  0  0  0
    6.7964    0.2445   -0.0933 C   0  0  0  0  0  0  0  0  0  0  0  0
    6.1951    1.5927    0.1709 C   0  0  2  0  0  0  0  0  0  0  0  0
    6.6716    2.1971    1.4001 N   0  0  0  0  0  0  0  0  0  0  0  0
    4.6934    1.4032    0.3485 C   0  0  0  0  0  0  0  0  0  0  0  0
    4.5036    0.1518    1.1807 C   0  0  0  0  0  0  0  0  0  0  0  0
   -3.2674    0.0118    1.2936 H   0  0  0  0  0  0  0  0  0  0  0  0
   -4.4823   -0.1476   -1.5557 H   0  0  0  0  0  0  0  0  0  0  0  0
   -3.4132    1.1604   -0.9985 H   0  0  0  0  0  0  0  0  0  0  0  0
   -6.7934   -0.2780   -0.6563 H   0  0  0  0  0  0  0  0  0  0  0  0
   -8.6421    0.9262    0.3757 H   0  0  0  0  0  0  0  0  0  0  0  0
   -8.2416    3.0139    1.6050 H   0  0  0  0  0  0  0  0  0  0  0  0
   -5.9798    3.8580    1.7791 H   0  0  0  0  0  0  0  0  0  0  0  0
   -4.0509    2.6492    0.7360 H   0  0  0  0  0  0  0  0  0  0  0  0
   -4.2292   -2.0501    1.6282 H   0  0  0  0  0  0  0  0  0  0  0  0
   -6.0199   -2.4967   -0.2310 H   0  0  0  0  0  0  0  0  0  0  0  0
   -4.5738   -3.4962   -0.0958 H   0  0  0  0  0  0  0  0  0  0  0  0
   -4.6452   -2.1556   -1.3231 H   0  0  0  0  0  0  0  0  0  0  0  0
    0.4344    0.8516   -0.1229 H   0  0  0  0  0  0  0  0  0  0  0  0
   -1.0397    1.3691   -1.0335 H   0  0  0  0  0  0  0  0  0  0  0  0
    1.3603    0.8384   -2.2542 H   0  0  0  0  0  0  0  0  0  0  0  0
   -0.2264    0.6675   -3.0650 H   0  0  0  0  0  0  0  0  0  0  0  0
    1.5898   -1.4320   -2.5473 H   0  0  0  0  0  0  0  0  0  0  0  0
   -0.0734   -1.5807   -3.1045 H   0  0  0  0  0  0  0  0  0  0  0  0
   -0.3981   -2.6523   -1.1123 H   0  0  0  0  0  0  0  0  0  0  0  0
    0.7406   -2.2486    2.1441 H   0  0  0  0  0  0  0  0  0  0  0  0
    3.4781   -2.0254   -1.2411 H   0  0  0  0  0  0  0  0  0  0  0  0
    3.0308   -0.3149   -1.0038 H   0  0  0  0  0  0  0  0  0  0  0  0
    4.9659   -1.9457    0.7808 H   0  0  0  0  0  0  0  0  0  0  0  0
    6.2406   -1.5698   -1.1665 H   0  0  0  0  0  0  0  0  0  0  0  0
    5.3536   -0.1218   -1.6365 H   0  0  0  0  0  0  0  0  0  0  0  0
    7.1919   -0.2506    0.8167 H   0  0  0  0  0  0  0  0  0  0  0  0
    7.6442    0.3316   -0.7962 H   0  0  0  0  0  0  0  0  0  0  0  0
    6.4298    2.2305   -0.7273 H   0  0  0  0  0  0  0  0  0  0  0  0
    6.6031    3.2424    1.3167 H   0  0  0  0  0  0  0  0  0  0  0  0
    7.6911    1.9917    1.5072 H   0  0  0  0  0  0  0  0  0  0  0  0
    4.2353    2.2915    0.8301 H   0  0  0  0  0  0  0  0  0  0  0  0
    4.2502    1.2801   -0.6520 H   0  0  0  0  0  0  0  0  0  0  0  0
    5.2123    0.1137    2.0310 H   0  0  0  0  0  0  0  0  0  0  0  0
    3.4412    0.1421    1.5385 H   0  0  0  0  0  0  0  0  0  0  0  0
  1  2  1  0
  2  3  1  0
  3  4  2  0
  4  5  1  0
  5  6  2  0
  6  7  1  0
  7  8  2  0
  1  9  1  0
  9 10  1  0
  1 11  1  0
 11 12  2  0
 11 13  1  0
 13 14  1  0
 14 15  1  0
 15 16  1  0
 16 17  1  0
 17 18  1  0
 18 19  1  0
 18 20  2  3
 20 21  1  0
 21 22  1  0
 22 23  1  0
 23 24  1  0
 24 25  1  0
 25 26  1  0
 25 27  1  0
 27 28  1  0
  8  3  1  0
 17 13  1  0
 28 22  1  0
  1 29  1  1
  2 30  1  0
  2 31  1  0
  4 32  1  0
  5 33  1  0
  6 34  1  0
  7 35  1  0
  8 36  1  0
  9 37  1  0
 10 38  1  0
 10 39  1  0
 10 40  1  0
 14 41  1  0
 14 42  1  0
 15 43  1  0
 15 44  1  0
 16 45  1  0
 16 46  1  0
 17 47  1  6
 19 48  1  0
 21 49  1  0
 21 50  1  0
 22 51  1  1
 23 52  1  0
 23 53  1  0
 24 54  1  0
 24 55  1  0
 25 56  1  6
 26 57  1  0
 26 58  1  0
 27 59  1  0
 27 60  1  0
 28 61  1  0
 28 62  1  0
M  END
$$$$
