
     RDKit          3D

 44 47  0  0  0  0  0  0  0  0999 V2000
   -2.7821    1.1825    0.3976 C   0  0  0  0  0  0  0  0  0  0  0  0
   -2.5265    0.2728    1.5467 C   0  0  0  0  0  0  0  0  0  0  0  0
   -1.4337    0.7269    2.4877 C   0  0  0  0  0  0  0  0  0  0  0  0
   -1.9551    2.0899    3.0219 C   0  0  0  0  0  0  0  0  0  0  0  0
   -3.1717    1.8867    3.6537 F   0  0  0  0  0  0  0  0  0  0  0  0
   -0.1586    0.9680    1.8910 N   0  0  0  0  0  0  0  0  0  0  0  0
    0.7331    1.8063    2.5201 C   0  0  0  0  0  0  0  0  0  0  0  0
    1.8307    1.8838    1.7648 N   0  0  0  0  0  0  0  0  0  0  0  0
    1.6538    1.1175    0.6793 C   0  0  0  0  0  0  0  0  0  0  0  0
    2.5657    0.9446   -0.4251 C   0  0  0  0  0  0  0  0  0  0  0  0
    3.1201    2.1306   -0.9353 C   0  0  0  0  0  0  0  0  0  0  0  0
    3.9896    2.1256   -2.0026 C   0  0  0  0  0  0  0  0  0  0  0  0
    4.3361    0.9505   -2.5988 C   0  0  0  0  0  0  0  0  0  0  0  0
    5.1942    0.9160   -3.6559 F   0  0  0  0  0  0  0  0  0  0  0  0
    3.7778   -0.2294   -2.0838 C   0  0  0  0  0  0  0  0  0  0  0  0
    2.9145   -0.2273   -1.0240 C   0  0  0  0  0  0  0  0  0  0  0  0
    0.3940    0.5329    0.7558 C   0  0  0  0  0  0  0  0  0  0  0  0
   -0.1309   -0.3858   -0.2102 C   0  0  0  0  0  0  0  0  0  0  0  0
   -0.3941   -0.0619   -1.5219 C   0  0  0  0  0  0  0  0  0  0  0  0
   -0.8965   -0.9698   -2.4365 C   0  0  0  0  0  0  0  0  0  0  0  0
   -1.1475   -2.2647   -2.0218 C   0  0  0  0  0  0  0  0  0  0  0  0
   -1.6352   -3.3595   -2.6503 N   0  0  0  0  0  0  0  0  0  0  0  0
   -1.6676   -4.3582   -1.7173 C   0  0  0  0  0  0  0  0  0  0  0  0
   -1.2006   -3.8876   -0.5061 C   0  0  0  0  0  0  0  0  0  0  0  0
   -1.0618   -4.6097    0.7276 C   0  0  0  0  0  0  0  0  0  0  0  0
   -0.9308   -5.2159    1.7388 N   0  0  0  0  0  0  0  0  0  0  0  0
   -0.8855   -2.5718   -0.7391 N   0  0  0  0  0  0  0  0  0  0  0  0
   -0.4142   -1.6896    0.0904 N   0  0  0  0  0  0  0  0  0  0  0  0
   -1.9107    1.8671    0.1907 H   0  0  0  0  0  0  0  0  0  0  0  0
   -3.0225    0.5695   -0.4940 H   0  0  0  0  0  0  0  0  0  0  0  0
   -3.6528    1.8703    0.5198 H   0  0  0  0  0  0  0  0  0  0  0  0
   -3.4851    0.4156    2.2022 H   0  0  0  0  0  0  0  0  0  0  0  0
   -2.4969   -0.7999    1.3599 H   0  0  0  0  0  0  0  0  0  0  0  0
   -1.4471    0.0588    3.3498 H   0  0  0  0  0  0  0  0  0  0  0  0
   -2.0155    2.7900    2.1915 H   0  0  0  0  0  0  0  0  0  0  0  0
   -1.2572    2.4675    3.7836 H   0  0  0  0  0  0  0  0  0  0  0  0
    0.6318    2.3307    3.4597 H   0  0  0  0  0  0  0  0  0  0  0  0
    2.8641    3.0840   -0.4823 H   0  0  0  0  0  0  0  0  0  0  0  0
    4.3904    3.0610   -2.3592 H   0  0  0  0  0  0  0  0  0  0  0  0
    4.0923   -1.1252   -2.6013 H   0  0  0  0  0  0  0  0  0  0  0  0
    2.4949   -1.1595   -0.6383 H   0  0  0  0  0  0  0  0  0  0  0  0
   -0.1871    0.9482   -1.8489 H   0  0  0  0  0  0  0  0  0  0  0  0
   -1.0979   -0.7054   -3.4688 H   0  0  0  0  0  0  0  0  0  0  0  0
   -2.0178   -5.3763   -1.9112 H   0  0  0  0  0  0  0  0  0  0  0  0
  1  2  1  0
  2  3  1  0
  3  4  1  0
  4  5  1  0
  3  6  1  0
  6  7  1  0
  7  8  2  0
  8  9  1  0
  9 10  1  0
 10 11  2  0
 11 12  1  0
 12 13  2  0
 13 14  1  0
 13 15  1  0
 15 16  2  0
  9 17  2  0
 17 18  1  0
 18 19  1  0
 19 20  2  0
 20 21  1  0
 21 22  2  0
 22 23  1  0
 23 24  2  0
 24 25  1  0
 25 26  3  0
 24 27  1  0
 27 28  1  0
 17  6  1  0
 28 18  2  0
 16 10  1  0
 27 21  1  0
  1 29  1  0
  1 30  1  0
  1 31  1  0
  2 32  1  0
  2 33  1  0
  3 34  1  0
  4 35  1  0
  4 36  1  0
  7 37  1  0
 11 38  1  0
 12 39  1  0
 15 40  1  0
 16 41  1  0
 19 42  1  0
 20 43  1  0
 23 44  1  0
M  END
$$$$
