
     RDKit          3D

 69 71  0  0  0  0  0  0  0  0999 V2000
   -7.1312   -3.2272   -2.8198 C   0  0  0  0  0  0  0  0  0  0  0  0
   -6.1599   -3.8039   -2.1837 C   0  0  0  0  0  0  0  0  0  0  0  0
   -5.5268   -3.1325   -1.0457 C   0  0  0  0  0  0  0  0  0  0  0  0
   -5.9177   -1.9842   -0.6684 O   0  0  0  0  0  0  0  0  0  0  0  0
   -4.4618   -3.7591   -0.3445 N   0  0  0  0  0  0  0  0  0  0  0  0
   -3.8180   -3.1329    0.7677 C   0  0  0  0  0  0  0  0  0  0  0  0
   -3.1397   -1.8098    0.4307 C   0  0  0  0  0  0  0  0  0  0  0  0
   -2.0735   -2.0125   -0.6277 C   0  0  0  0  0  0  0  0  0  0  0  0
   -1.4306   -0.7027   -0.9351 C   0  0  0  0  0  0  0  0  0  0  0  0
   -0.7600   -0.0879    0.2681 C   0  0  2  0  0  0  0  0  0  0  0  0
   -0.2058    1.1864   -0.1782 N   0  0  0  0  0  0  0  0  0  0  0  0
   -0.4855    2.3920    0.5507 C   0  0  0  0  0  0  0  0  0  0  0  0
   -1.2038    2.3428    1.5663 O   0  0  0  0  0  0  0  0  0  0  0  0
    0.0541    3.5561    0.0945 O   0  0  0  0  0  0  0  0  0  0  0  0
   -0.0987    4.8139    0.6544 C   0  0  0  0  0  0  0  0  0  0  0  0
   -1.5227    5.2157    0.6839 C   0  0  0  0  0  0  0  0  0  0  0  0
   -2.3524    5.0692    1.7706 C   0  0  0  0  0  0  0  0  0  0  0  0
   -3.6929    5.4519    1.7337 C   0  0  0  0  0  0  0  0  0  0  0  0
   -4.2456    5.9982    0.5962 C   0  0  0  0  0  0  0  0  0  0  0  0
   -3.4160    6.1454   -0.4903 C   0  0  0  0  0  0  0  0  0  0  0  0
   -2.0925    5.7731   -0.4707 C   0  0  0  0  0  0  0  0  0  0  0  0
    0.2724   -0.9607    0.7865 C   0  0  0  0  0  0  0  0  0  0  0  0
   -0.1719   -2.0508    1.3517 O   0  0  0  0  0  0  0  0  0  0  0  0
    1.6541   -0.8425    0.7892 N   0  0  0  0  0  0  0  0  0  0  0  0
    2.4122    0.2167    0.2294 C   0  0  0  0  0  0  0  0  0  0  0  0
    3.8997    0.0801    0.5670 C   0  0  0  0  0  0  0  0  0  0  0  0
    4.3683   -1.2578    0.2707 N   0  0  0  0  0  0  0  0  0  0  0  0
    5.7202   -1.4059   -0.1160 C   0  0  0  0  0  0  0  0  0  0  0  0
    6.6483   -0.4315    0.2814 C   0  0  0  0  0  0  0  0  0  0  0  0
    7.9777   -0.5636   -0.0478 C   0  0  0  0  0  0  0  0  0  0  0  0
    8.4291   -1.6455   -0.7693 C   0  0  0  0  0  0  0  0  0  0  0  0
    7.5431   -2.6204   -1.1754 C   0  0  0  0  0  0  0  0  0  0  0  0
    6.1876   -2.4714   -0.8320 C   0  0  0  0  0  0  0  0  0  0  0  0
    5.0541   -3.6950   -1.3809 Cl  0  0  0  0  0  0  0  0  0  0  0  0
    3.4461   -2.3593    0.4102 C   0  0  0  0  0  0  0  0  0  0  0  0
    2.4221   -1.9263    1.4607 C   0  0  0  0  0  0  0  0  0  0  0  0
   -7.4833   -2.2621   -2.5281 H   0  0  0  0  0  0  0  0  0  0  0  0
   -7.5921   -3.7246   -3.6537 H   0  0  0  0  0  0  0  0  0  0  0  0
   -5.7911   -4.7742   -2.4610 H   0  0  0  0  0  0  0  0  0  0  0  0
   -4.1483   -4.7289   -0.6759 H   0  0  0  0  0  0  0  0  0  0  0  0
   -3.0051   -3.8127    1.1305 H   0  0  0  0  0  0  0  0  0  0  0  0
   -4.4892   -2.9983    1.6368 H   0  0  0  0  0  0  0  0  0  0  0  0
   -3.8927   -1.1379   -0.0377 H   0  0  0  0  0  0  0  0  0  0  0  0
   -2.7662   -1.3336    1.3436 H   0  0  0  0  0  0  0  0  0  0  0  0
   -1.3990   -2.8078   -0.3059 H   0  0  0  0  0  0  0  0  0  0  0  0
   -2.5739   -2.3750   -1.5842 H   0  0  0  0  0  0  0  0  0  0  0  0
   -0.6192   -0.8171   -1.7113 H   0  0  0  0  0  0  0  0  0  0  0  0
   -2.1792    0.0382   -1.3167 H   0  0  0  0  0  0  0  0  0  0  0  0
   -1.4656    0.1412    1.1035 H   0  0  0  0  0  0  0  0  0  0  0  0
    0.3650    1.2307   -1.0292 H   0  0  0  0  0  0  0  0  0  0  0  0
    0.4480    5.5835    0.0577 H   0  0  0  0  0  0  0  0  0  0  0  0
    0.2651    4.8394    1.7219 H   0  0  0  0  0  0  0  0  0  0  0  0
   -1.9514    4.6529    2.6948 H   0  0  0  0  0  0  0  0  0  0  0  0
   -4.3224    5.3252    2.6016 H   0  0  0  0  0  0  0  0  0  0  0  0
   -5.2813    6.2826    0.6006 H   0  0  0  0  0  0  0  0  0  0  0  0
   -3.8215    6.5778   -1.4150 H   0  0  0  0  0  0  0  0  0  0  0  0
   -1.4383    5.8930   -1.3386 H   0  0  0  0  0  0  0  0  0  0  0  0
    2.0719    1.1840    0.6115 H   0  0  0  0  0  0  0  0  0  0  0  0
    2.3988    0.2479   -0.8794 H   0  0  0  0  0  0  0  0  0  0  0  0
    4.5029    0.7902   -0.0140 H   0  0  0  0  0  0  0  0  0  0  0  0
    4.0471    0.2738    1.6349 H   0  0  0  0  0  0  0  0  0  0  0  0
    6.2761    0.4106    0.8513 H   0  0  0  0  0  0  0  0  0  0  0  0
    8.6535    0.2205    0.2854 H   0  0  0  0  0  0  0  0  0  0  0  0
    9.4610   -1.7523   -1.0269 H   0  0  0  0  0  0  0  0  0  0  0  0
    7.8657   -3.4968   -1.7515 H   0  0  0  0  0  0  0  0  0  0  0  0
    3.9701   -3.2789    0.7616 H   0  0  0  0  0  0  0  0  0  0  0  0
    2.9524   -2.5143   -0.5650 H   0  0  0  0  0  0  0  0  0  0  0  0
    2.9835   -1.4960    2.3035 H   0  0  0  0  0  0  0  0  0  0  0  0
    1.7764   -2.7395    1.7767 H   0  0  0  0  0  0  0  0  0  0  0  0
  1  2  2  3
  2  3  1  0
  3  4  2  0
  3  5  1  0
  5  6  1  0
  6  7  1  0
  7  8  1  0
  8  9  1  0
  9 10  1  0
 10 11  1  0
 11 12  1  0
 12 13  2  0
 12 14  1  0
 14 15  1  0
 15 16  1  0
 16 17  2  0
 17 18  1  0
 18 19  2  0
 19 20  1  0
 20 21  2  0
 10 22  1  0
 22 23  2  0
 22 24  1  0
 24 25  1  0
 25 26  1  0
 26 27  1  0
 27 28  1  0
 28 29  2  0
 29 30  1  0
 30 31  2  0
 31 32  1  0
 32 33  2  0
 33 34  1  0
 27 35  1  0
 35 36  1  0
 21 16  1  0
 36 24  1  0
 33 28  1  0
  1 37  1  0
  1 38  1  0
  2 39  1  0
  5 40  1  0
  6 41  1  0
  6 42  1  0
  7 43  1  0
  7 44  1  0
  8 45  1  0
  8 46  1  0
  9 47  1  0
  9 48  1  0
 10 49  1  1
 11 50  1  0
 15 51  1  0
 15 52  1  0
 17 53  1  0
 18 54  1  0
 19 55  1  0
 20 56  1  0
 21 57  1  0
 25 58  1  0
 25 59  1  0
 26 60  1  0
 26 61  1  0
 29 62  1  0
 30 63  1  0
 31 64  1  0
 32 65  1  0
 35 66  1  0
 35 67  1  0
 36 68  1  0
 36 69  1  0
M  END
$$$$
