
     RDKit          3D

 26 26  0  0  0  0  0  0  0  0999 V2000
   -1.9397   -1.4372   -0.4520 O   0  0  0  0  0  0  0  0  0  0  0  0
   -0.8519   -0.5837   -0.1542 C   0  0  0  0  0  0  0  0  0  0  0  0
    0.4564   -1.2766   -0.3670 C   0  0  0  0  0  0  0  0  0  0  0  0
    1.6233   -0.4989   -0.0932 N   0  0  0  0  0  0  0  0  0  0  0  0
    2.3049   -0.3653    1.0618 C   0  0  0  0  0  0  0  0  0  0  0  0
    3.3834    0.4971    0.8692 C   0  0  0  0  0  0  0  0  0  0  0  0
    3.3316    0.8755   -0.4248 N   0  0  0  0  0  0  0  0  0  0  0  0
    2.2577    0.2650   -1.0034 C   0  0  0  0  0  0  0  0  0  0  0  0
   -1.0897   -0.1148    1.5835 P   0  0  0  0  0  0  0  0  0  0  0  0
   -0.1710    1.2277    2.0192 O   0  0  0  0  0  0  0  0  0  0  0  0
   -2.7197    0.2195    1.8933 O   0  0  0  0  0  0  0  0  0  0  0  0
   -0.7092   -1.3245    2.4368 O   0  0  0  0  0  0  0  0  0  0  0  0
   -1.0831    0.8722   -1.1735 P   0  0  0  0  0  0  0  0  0  0  0  0
   -1.2514    0.3907   -2.7999 O   0  0  0  0  0  0  0  0  0  0  0  0
   -2.5934    1.5453   -0.7287 O   0  0  0  0  0  0  0  0  0  0  0  0
   -0.0251    1.9157   -1.0021 O   0  0  0  0  0  0  0  0  0  0  0  0
   -1.7582   -1.8411   -1.3317 H   0  0  0  0  0  0  0  0  0  0  0  0
    0.4365   -2.2142    0.2273 H   0  0  0  0  0  0  0  0  0  0  0  0
    0.4376   -1.6538   -1.4298 H   0  0  0  0  0  0  0  0  0  0  0  0
    2.0508   -0.8587    2.0085 H   0  0  0  0  0  0  0  0  0  0  0  0
    4.0614    0.7414    1.6723 H   0  0  0  0  0  0  0  0  0  0  0  0
    2.0679    0.4617   -2.0513 H   0  0  0  0  0  0  0  0  0  0  0  0
    0.0845    1.2381    2.9569 H   0  0  0  0  0  0  0  0  0  0  0  0
   -3.2895   -0.4044    1.3586 H   0  0  0  0  0  0  0  0  0  0  0  0
   -1.6927    1.1019   -3.3539 H   0  0  0  0  0  0  0  0  0  0  0  0
   -3.3214    1.2215   -1.3153 H   0  0  0  0  0  0  0  0  0  0  0  0
  1  2  1  0
  2  3  1  0
  3  4  1  0
  4  5  1  0
  5  6  2  0
  6  7  1  0
  7  8  2  0
  2  9  1  0
  9 10  1  0
  9 11  1  0
  9 12  2  0
  2 13  1  0
 13 14  1  0
 13 15  1  0
 13 16  2  0
  8  4  1  0
  1 17  1  0
  3 18  1  0
  3 19  1  0
  5 20  1  0
  6 21  1  0
  8 22  1  0
 10 23  1  0
 11 24  1  0
 14 25  1  0
 15 26  1  0
M  END
$$$$
