
     RDKit          3D

 35 38  0  0  0  0  0  0  0  0999 V2000
   -0.9586    0.2861    0.3988 C   0  0  2  0  0  0  0  0  0  0  0  0
   -1.6825   -0.8761   -0.2631 C   0  0  0  0  0  0  0  0  0  0  0  0
   -3.1451   -0.6734   -0.1558 C   0  0  0  0  0  0  0  0  0  0  0  0
   -3.7774    0.5436   -0.0096 C   0  0  0  0  0  0  0  0  0  0  0  0
   -2.9388    1.7078    0.0421 N   0  0  0  0  0  0  0  0  0  0  0  0
   -1.5262    1.5936   -0.0543 C   0  0  0  0  0  0  0  0  0  0  0  0
   -0.9236    2.6051   -0.5089 O   0  0  0  0  0  0  0  0  0  0  0  0
   -5.1561    0.5981    0.0794 C   0  0  0  0  0  0  0  0  0  0  0  0
   -5.9372   -0.5379    0.0267 C   0  0  0  0  0  0  0  0  0  0  0  0
   -5.3381   -1.7680   -0.1187 C   0  0  0  0  0  0  0  0  0  0  0  0
   -3.9517   -1.8065   -0.2067 C   0  0  0  0  0  0  0  0  0  0  0  0
    0.4528    0.2694    0.0710 N   0  0  0  0  0  0  0  0  0  0  0  0
    1.4083    0.1824    1.1165 C   0  0  0  0  0  0  0  0  0  0  0  0
    0.9252    0.1243    2.2980 O   0  0  0  0  0  0  0  0  0  0  0  0
    2.8414    0.1638    0.8099 C   0  0  0  0  0  0  0  0  0  0  0  0
    3.4807    0.2202   -0.4102 C   0  0  0  0  0  0  0  0  0  0  0  0
    4.8427    0.1731   -0.2071 C   0  0  0  0  0  0  0  0  0  0  0  0
    4.9541    0.0894    1.1481 C   0  0  0  0  0  0  0  0  0  0  0  0
    3.7569    0.0819    1.7890 N   0  0  0  0  0  0  0  0  0  0  0  0
    6.7463    0.0238    1.4756 S   0  0  0  0  0  0  0  0  0  0  0  0
    7.1867    0.1238   -0.3917 C   0  0  0  0  0  0  0  0  0  0  0  0
    8.8226    0.1102   -0.8680 Cl  0  0  0  0  0  0  0  0  0  0  0  0
    5.9623    0.1892   -0.9601 C   0  0  0  0  0  0  0  0  0  0  0  0
   -1.1286    0.2254    1.4872 H   0  0  0  0  0  0  0  0  0  0  0  0
   -1.3752   -0.9574   -1.3356 H   0  0  0  0  0  0  0  0  0  0  0  0
   -1.4489   -1.7985    0.3087 H   0  0  0  0  0  0  0  0  0  0  0  0
   -3.4661    2.6037    0.1535 H   0  0  0  0  0  0  0  0  0  0  0  0
   -5.6248    1.5490    0.1921 H   0  0  0  0  0  0  0  0  0  0  0  0
   -7.0171   -0.4499    0.1004 H   0  0  0  0  0  0  0  0  0  0  0  0
   -5.8905   -2.6883   -0.1663 H   0  0  0  0  0  0  0  0  0  0  0  0
   -3.4779   -2.7914   -0.3228 H   0  0  0  0  0  0  0  0  0  0  0  0
    0.7148    0.3228   -0.9374 H   0  0  0  0  0  0  0  0  0  0  0  0
    2.8985    0.2894   -1.3196 H   0  0  0  0  0  0  0  0  0  0  0  0
    3.7249    0.0202    2.8382 H   0  0  0  0  0  0  0  0  0  0  0  0
    6.0462    0.2512   -2.0355 H   0  0  0  0  0  0  0  0  0  0  0  0
  1  2  1  0
  2  3  1  0
  3  4  2  0
  4  5  1  0
  5  6  1  0
  6  7  2  0
  4  8  1  0
  8  9  2  0
  9 10  1  0
 10 11  2  0
  1 12  1  0
 12 13  1  0
 13 14  2  0
 13 15  1  0
 15 16  2  0
 16 17  1  0
 17 18  2  0
 18 19  1  0
 18 20  1  0
 20 21  1  0
 21 22  1  0
 21 23  2  0
  6  1  1  0
 19 15  1  0
 11  3  1  0
 23 17  1  0
  1 24  1  1
  2 25  1  0
  2 26  1  0
  5 27  1  0
  8 28  1  0
  9 29  1  0
 10 30  1  0
 11 31  1  0
 12 32  1  0
 16 33  1  0
 19 34  1  0
 23 35  1  0
M  END
$$$$
