
     RDKit          3D

 57 62  0  0  0  0  0  0  0  0999 V2000
   -6.2024   -1.0640    1.7958 C   0  0  0  0  0  0  0  0  0  0  0  0
   -5.0790   -0.9717    0.9531 O   0  0  0  0  0  0  0  0  0  0  0  0
   -4.5438   -2.0989    0.3535 C   0  0  0  0  0  0  0  0  0  0  0  0
   -5.1026   -3.2879    0.5793 N   0  0  0  0  0  0  0  0  0  0  0  0
   -4.6389   -4.4294    0.0319 C   0  0  0  0  0  0  0  0  0  0  0  0
   -3.5368   -4.3765   -0.8012 C   0  0  0  0  0  0  0  0  0  0  0  0
   -2.9320   -3.1538   -1.0566 C   0  0  0  0  0  0  0  0  0  0  0  0
   -3.4342   -2.0099   -0.4793 C   0  0  0  0  0  0  0  0  0  0  0  0
   -2.8646   -0.7314   -0.6983 N   0  0  0  0  0  0  0  0  0  0  0  0
   -3.4442    0.4011   -1.0434 N   0  0  0  0  0  0  0  0  0  0  0  0
   -2.5799    1.3915   -1.1538 C   0  0  0  0  0  0  0  0  0  0  0  0
   -2.8182    2.8062   -1.5173 C   0  0  0  0  0  0  0  0  0  0  0  0
   -1.3062    0.8744   -0.8554 C   0  0  0  0  0  0  0  0  0  0  0  0
   -1.5342   -0.4451   -0.5796 C   0  0  0  0  0  0  0  0  0  0  0  0
   -0.2450   -1.0438   -0.2661 C   0  0  0  0  0  0  0  0  0  0  0  0
   -0.0836   -2.2677    0.0410 O   0  0  0  0  0  0  0  0  0  0  0  0
    0.7557   -0.0374   -0.3656 N   0  0  0  0  0  0  0  0  0  0  0  0
    2.1280   -0.3296   -0.1354 C   0  0  0  0  0  0  0  0  0  0  0  0
    2.6471   -0.2430    1.1259 C   0  0  0  0  0  0  0  0  0  0  0  0
    4.0021   -0.5356    1.3082 C   0  0  0  0  0  0  0  0  0  0  0  0
    4.5994   -0.4508    2.6701 C   0  0  0  0  0  0  0  0  0  0  0  0
    4.8025   -0.9039    0.2447 C   0  0  0  0  0  0  0  0  0  0  0  0
    6.1218   -1.2353    0.1434 N   0  0  0  0  0  0  0  0  0  0  0  0
    6.3386   -1.5008   -1.1377 N   0  0  0  0  0  0  0  0  0  0  0  0
    5.2110   -1.3481   -1.8339 N   0  0  0  0  0  0  0  0  0  0  0  0
    5.0834   -1.5551   -3.2565 C   0  0  0  0  0  0  0  0  0  0  0  0
    4.2211   -0.9729   -0.9996 C   0  0  0  0  0  0  0  0  0  0  0  0
    2.8975   -0.6859   -1.1712 N   0  0  0  0  0  0  0  0  0  0  0  0
    0.1144    1.1759   -0.7222 C   0  0  0  0  0  0  0  0  0  0  0  0
    0.3902    2.3259    0.1599 C   0  0  0  0  0  0  0  0  0  0  0  0
    0.7150    3.5425   -0.4232 C   0  0  0  0  0  0  0  0  0  0  0  0
    0.9861    4.6815    0.3068 C   0  0  0  0  0  0  0  0  0  0  0  0
    0.9352    4.6220    1.6859 C   0  0  0  0  0  0  0  0  0  0  0  0
    1.2758    6.0560    2.6271 Cl  0  0  0  0  0  0  0  0  0  0  0  0
    0.6140    3.4227    2.2937 C   0  0  0  0  0  0  0  0  0  0  0  0
    0.3469    2.2944    1.5169 C   0  0  0  0  0  0  0  0  0  0  0  0
   -5.9302   -1.4327    2.8094 H   0  0  0  0  0  0  0  0  0  0  0  0
   -6.9385   -1.7405    1.2869 H   0  0  0  0  0  0  0  0  0  0  0  0
   -6.7070   -0.0638    1.8368 H   0  0  0  0  0  0  0  0  0  0  0  0
   -5.1307   -5.3808    0.2467 H   0  0  0  0  0  0  0  0  0  0  0  0
   -3.1248   -5.2568   -1.2650 H   0  0  0  0  0  0  0  0  0  0  0  0
   -2.0679   -3.0445   -1.6983 H   0  0  0  0  0  0  0  0  0  0  0  0
   -3.9051    2.9701   -1.5431 H   0  0  0  0  0  0  0  0  0  0  0  0
   -2.3523    3.0967   -2.4768 H   0  0  0  0  0  0  0  0  0  0  0  0
   -2.4366    3.4446   -0.6706 H   0  0  0  0  0  0  0  0  0  0  0  0
    2.0761    0.0357    1.9958 H   0  0  0  0  0  0  0  0  0  0  0  0
    5.0770    0.5630    2.7766 H   0  0  0  0  0  0  0  0  0  0  0  0
    5.4099   -1.1775    2.7673 H   0  0  0  0  0  0  0  0  0  0  0  0
    3.8493   -0.5764    3.4720 H   0  0  0  0  0  0  0  0  0  0  0  0
    4.2857   -0.8991   -3.6449 H   0  0  0  0  0  0  0  0  0  0  0  0
    6.0557   -1.2922   -3.7229 H   0  0  0  0  0  0  0  0  0  0  0  0
    4.8337   -2.6313   -3.4203 H   0  0  0  0  0  0  0  0  0  0  0  0
    0.4779    1.4244   -1.7674 H   0  0  0  0  0  0  0  0  0  0  0  0
    0.7658    3.6309   -1.5126 H   0  0  0  0  0  0  0  0  0  0  0  0
    1.2389    5.6246   -0.1859 H   0  0  0  0  0  0  0  0  0  0  0  0
    0.5815    3.4036    3.3597 H   0  0  0  0  0  0  0  0  0  0  0  0
    0.1013    1.3864    2.0155 H   0  0  0  0  0  0  0  0  0  0  0  0
  1  2  1  0
  2  3  1  0
  3  4  2  0
  4  5  1  0
  5  6  2  0
  6  7  1  0
  7  8  2  0
  8  9  1  0
  9 10  1  0
 10 11  2  0
 11 12  1  0
 11 13  1  0
 13 14  2  0
 14 15  1  0
 15 16  2  0
 15 17  1  0
 17 18  1  0
 18 19  2  0
 19 20  1  0
 20 21  1  0
 20 22  2  0
 22 23  1  0
 23 24  2  0
 24 25  1  0
 25 26  1  0
 25 27  1  0
 27 28  2  0
 17 29  1  0
 29 30  1  0
 30 31  2  0
 31 32  1  0
 32 33  2  0
 33 34  1  0
 33 35  1  0
 35 36  2  0
  8  3  1  0
 14  9  1  0
 28 18  1  0
 36 30  1  0
 29 13  1  0
 27 22  1  0
  1 37  1  0
  1 38  1  0
  1 39  1  0
  5 40  1  0
  6 41  1  0
  7 42  1  0
 12 43  1  0
 12 44  1  0
 12 45  1  0
 19 46  1  0
 21 47  1  0
 21 48  1  0
 21 49  1  0
 26 50  1  0
 26 51  1  0
 26 52  1  0
 29 53  1  0
 31 54  1  0
 32 55  1  0
 35 56  1  0
 36 57  1  0
M  END
$$$$
