
     RDKit          3D

 73 78  0  0  0  0  0  0  0  0999 V2000
    8.5742   -3.1367   -0.9498 C   0  0  0  0  0  0  0  0  0  0  0  0
    7.4070   -2.5181   -0.4137 N   0  0  0  0  0  0  0  0  0  0  0  0
    6.6137   -1.8174   -1.3942 C   0  0  1  0  0  0  0  0  0  0  0  0
    6.1158   -2.7156   -2.4918 C   0  0  0  0  0  0  0  0  0  0  0  0
    5.4416   -1.1625   -0.7577 C   0  0  0  0  0  0  0  0  0  0  0  0
    5.2452   -1.2613    0.4821 O   0  0  0  0  0  0  0  0  0  0  0  0
    4.5162   -0.4107   -1.5317 N   0  0  0  0  0  0  0  0  0  0  0  0
    3.3833    0.2277   -0.9482 C   0  0  0  0  0  0  0  0  0  0  0  0
    3.5075    1.5284   -0.4887 C   0  0  0  0  0  0  0  0  0  0  0  0
    2.4337    2.2006    0.0910 C   0  0  0  0  0  0  0  0  0  0  0  0
    1.2167    1.5612    0.2129 C   0  0  0  0  0  0  0  0  0  0  0  0
    0.0367    2.1884    0.8091 C   0  0  0  0  0  0  0  0  0  0  0  0
   -0.9715    2.7913    0.0796 C   0  0  0  0  0  0  0  0  0  0  0  0
   -1.0590    2.9232   -1.3626 C   0  0  0  0  0  0  0  0  0  0  0  0
   -2.1028    2.3506   -2.0486 C   0  0  0  0  0  0  0  0  0  0  0  0
   -2.1522    2.4967   -3.4093 N   0  0  0  0  0  0  0  0  0  0  0  0
   -1.2235    3.1732   -4.0818 C   0  0  0  0  0  0  0  0  0  0  0  0
   -1.2482    3.3508   -5.5630 C   0  0  0  0  0  0  0  0  0  0  0  0
   -0.1894    3.7433   -3.4269 N   0  0  0  0  0  0  0  0  0  0  0  0
   -0.1165    3.6151   -2.0867 C   0  0  0  0  0  0  0  0  0  0  0  0
   -1.8696    3.2398    1.0040 N   0  0  0  0  0  0  0  0  0  0  0  0
   -1.4630    2.9433    2.2473 C   0  0  0  0  0  0  0  0  0  0  0  0
   -1.9612    3.1488    3.5189 C   0  0  0  0  0  0  0  0  0  0  0  0
   -1.3113    2.7220    4.6567 C   0  0  0  0  0  0  0  0  0  0  0  0
   -1.8620    2.9510    6.0262 C   0  0  0  0  0  0  0  0  0  0  0  0
   -0.1129    2.0647    4.4711 C   0  0  0  0  0  0  0  0  0  0  0  0
    0.3801    1.8617    3.2042 C   0  0  0  0  0  0  0  0  0  0  0  0
   -0.2849    2.2944    2.1119 N   0  0  0  0  0  0  0  0  0  0  0  0
    1.1176    0.2664   -0.2516 C   0  0  0  0  0  0  0  0  0  0  0  0
   -0.1525   -0.4026   -0.1214 C   0  0  0  0  0  0  0  0  0  0  0  0
   -1.2176   -0.9659   -0.0310 C   0  0  0  0  0  0  0  0  0  0  0  0
   -2.4999   -1.6389    0.1027 C   0  0  0  0  0  0  0  0  0  0  0  0
   -2.7276   -2.8629   -0.5019 C   0  0  0  0  0  0  0  0  0  0  0  0
   -3.9326   -3.5295   -0.3939 C   0  0  0  0  0  0  0  0  0  0  0  0
   -4.9555   -2.9699    0.3380 C   0  0  0  0  0  0  0  0  0  0  0  0
   -6.1688   -3.6191    0.4592 C   0  0  0  0  0  0  0  0  0  0  0  0
   -6.3868   -4.9430   -0.2078 C   0  0  0  0  0  0  0  0  0  0  0  0
   -7.1614   -3.0658    1.1755 N   0  0  0  0  0  0  0  0  0  0  0  0
   -6.9591   -1.8888    1.7636 C   0  0  0  0  0  0  0  0  0  0  0  0
   -5.7640   -1.2036    1.6702 C   0  0  0  0  0  0  0  0  0  0  0  0
   -4.7332   -1.7527    0.9409 C   0  0  0  0  0  0  0  0  0  0  0  0
   -3.5225   -1.0826    0.8327 C   0  0  0  0  0  0  0  0  0  0  0  0
    2.1896   -0.3647   -0.8153 N   0  0  0  0  0  0  0  0  0  0  0  0
    8.9863   -3.8067   -0.1390 H   0  0  0  0  0  0  0  0  0  0  0  0
    9.3540   -2.3489   -1.1064 H   0  0  0  0  0  0  0  0  0  0  0  0
    8.4056   -3.7775   -1.8108 H   0  0  0  0  0  0  0  0  0  0  0  0
    7.5488   -1.9956    0.4535 H   0  0  0  0  0  0  0  0  0  0  0  0
    7.2695   -1.0566   -1.8639 H   0  0  0  0  0  0  0  0  0  0  0  0
    6.9413   -3.1541   -3.0875 H   0  0  0  0  0  0  0  0  0  0  0  0
    5.5276   -2.0910   -3.1922 H   0  0  0  0  0  0  0  0  0  0  0  0
    5.4103   -3.4943   -2.1177 H   0  0  0  0  0  0  0  0  0  0  0  0
    4.6935   -0.3379   -2.5612 H   0  0  0  0  0  0  0  0  0  0  0  0
    4.4774    2.0229   -0.5921 H   0  0  0  0  0  0  0  0  0  0  0  0
    2.5305    3.2137    0.4487 H   0  0  0  0  0  0  0  0  0  0  0  0
   -2.8813    1.7970   -1.5848 H   0  0  0  0  0  0  0  0  0  0  0  0
   -0.3935    2.8120   -6.0511 H   0  0  0  0  0  0  0  0  0  0  0  0
   -1.1532    4.4303   -5.8489 H   0  0  0  0  0  0  0  0  0  0  0  0
   -2.1832    2.9217   -5.9806 H   0  0  0  0  0  0  0  0  0  0  0  0
    0.7188    4.0773   -1.5648 H   0  0  0  0  0  0  0  0  0  0  0  0
   -2.8946    3.6620    3.6322 H   0  0  0  0  0  0  0  0  0  0  0  0
   -1.3775    2.2431    6.7009 H   0  0  0  0  0  0  0  0  0  0  0  0
   -1.6150    3.9996    6.2873 H   0  0  0  0  0  0  0  0  0  0  0  0
   -2.9782    2.8198    6.0054 H   0  0  0  0  0  0  0  0  0  0  0  0
    0.4149    1.7204    5.3679 H   0  0  0  0  0  0  0  0  0  0  0  0
    1.3187    1.3447    3.0882 H   0  0  0  0  0  0  0  0  0  0  0  0
   -1.9222   -3.3069   -1.0808 H   0  0  0  0  0  0  0  0  0  0  0  0
   -4.1140   -4.4812   -0.8633 H   0  0  0  0  0  0  0  0  0  0  0  0
   -6.2765   -4.7478   -1.3077 H   0  0  0  0  0  0  0  0  0  0  0  0
   -5.6647   -5.6961    0.1224 H   0  0  0  0  0  0  0  0  0  0  0  0
   -7.4445   -5.2460   -0.0723 H   0  0  0  0  0  0  0  0  0  0  0  0
   -7.7843   -1.4651    2.3385 H   0  0  0  0  0  0  0  0  0  0  0  0
   -5.6427   -0.2603    2.1581 H   0  0  0  0  0  0  0  0  0  0  0  0
   -3.3410   -0.1290    1.3018 H   0  0  0  0  0  0  0  0  0  0  0  0
  1  2  1  0
  2  3  1  0
  3  4  1  0
  3  5  1  0
  5  6  2  0
  5  7  1  0
  7  8  1  0
  8  9  2  0
  9 10  1  0
 10 11  2  0
 11 12  1  0
 12 13  2  0
 13 14  1  0
 14 15  2  0
 15 16  1  0
 16 17  2  0
 17 18  1  0
 17 19  1  0
 19 20  2  0
 13 21  1  0
 21 22  2  0
 22 23  1  0
 23 24  2  0
 24 25  1  0
 24 26  1  0
 26 27  2  0
 27 28  1  0
 11 29  1  0
 29 30  1  0
 30 31  3  0
 31 32  1  0
 32 33  2  0
 33 34  1  0
 34 35  2  0
 35 36  1  0
 36 37  1  0
 36 38  2  0
 38 39  1  0
 39 40  2  0
 40 41  1  0
 41 42  2  0
 29 43  2  0
 43  8  1  0
 28 12  1  0
 42 32  1  0
 20 14  1  0
 28 22  1  0
 41 35  1  0
  1 44  1  0
  1 45  1  0
  1 46  1  0
  2 47  1  0
  3 48  1  6
  4 49  1  0
  4 50  1  0
  4 51  1  0
  7 52  1  0
  9 53  1  0
 10 54  1  0
 15 55  1  0
 18 56  1  0
 18 57  1  0
 18 58  1  0
 20 59  1  0
 23 60  1  0
 25 61  1  0
 25 62  1  0
 25 63  1  0
 26 64  1  0
 27 65  1  0
 33 66  1  0
 34 67  1  0
 37 68  1  0
 37 69  1  0
 37 70  1  0
 39 71  1  0
 40 72  1  0
 42 73  1  0
M  END
$$$$
