
     RDKit          3D

 39 40  0  0  0  0  0  0  0  0999 V2000
   -4.0523    2.7041    0.1554 C   0  0  0  0  0  0  0  0  0  0  0  0
   -3.1437    1.6462    0.3802 O   0  0  0  0  0  0  0  0  0  0  0  0
   -3.6643    0.3729    0.5529 N   0  0  0  0  0  0  0  0  0  0  0  0
   -2.9507   -0.6694    0.6350 C   0  0  0  0  0  0  0  0  0  0  0  0
   -1.5020   -0.5606    0.5473 C   0  0  0  0  0  0  0  0  0  0  0  0
   -0.9215    0.5507    0.3900 O   0  0  0  0  0  0  0  0  0  0  0  0
   -0.6575   -1.6837    0.6318 N   0  0  0  0  0  0  0  0  0  0  0  0
    0.7525   -1.6877    0.5578 C   0  0  0  0  0  0  0  0  0  0  0  0
    1.5030   -1.0840   -0.9321 P   0  0  0  0  0  5  0  0  0  0  0  0
    1.5570   -2.1668   -2.0165 O   0  0  0  0  0  0  0  0  0  0  0  0
    0.8677    0.3411   -1.5143 O   0  0  0  0  0  0  0  0  0  0  0  0
    3.1726   -0.7839   -0.5628 O   0  0  0  0  0  0  0  0  0  0  0  0
    3.7016    0.4888   -0.5412 C   0  0  0  0  0  0  0  0  0  0  0  0
    4.1972    0.9841   -1.7388 C   0  0  0  0  0  0  0  0  0  0  0  0
    4.7444    2.2596   -1.7881 C   0  0  0  0  0  0  0  0  0  0  0  0
    4.8131    3.0630   -0.6696 C   0  0  0  0  0  0  0  0  0  0  0  0
    5.3857    4.3990   -0.7190 C   0  0  0  0  0  0  0  0  0  0  0  0
    5.8526    5.4454   -0.7477 N   0  0  0  0  0  0  0  0  0  0  0  0
    4.3182    2.5616    0.5149 C   0  0  0  0  0  0  0  0  0  0  0  0
    4.3595    3.3153    1.6604 F   0  0  0  0  0  0  0  0  0  0  0  0
    3.7725    1.2898    0.5639 C   0  0  0  0  0  0  0  0  0  0  0  0
   -3.5134   -2.0183    0.8186 C   0  0  0  0  0  0  0  0  0  0  0  0
   -4.3032   -2.7599    0.0627 C   0  0  0  0  0  0  0  0  0  0  0  0
   -4.6915   -3.9922    0.4545 C   0  0  0  0  0  0  0  0  0  0  0  0
   -4.2142   -4.4209    1.6827 C   0  0  0  0  0  0  0  0  0  0  0  0
   -3.2172   -2.9958    2.2066 S   0  0  0  0  0  0  0  0  0  0  0  0
   -5.0513    2.3390   -0.1544 H   0  0  0  0  0  0  0  0  0  0  0  0
   -4.2168    3.3287    1.0556 H   0  0  0  0  0  0  0  0  0  0  0  0
   -3.6313    3.4059   -0.6201 H   0  0  0  0  0  0  0  0  0  0  0  0
   -1.1481   -2.6187    0.7650 H   0  0  0  0  0  0  0  0  0  0  0  0
    1.1774   -2.6866    0.7839 H   0  0  0  0  0  0  0  0  0  0  0  0
    1.1254   -1.0401    1.4083 H   0  0  0  0  0  0  0  0  0  0  0  0
    1.2929    1.1596   -1.1232 H   0  0  0  0  0  0  0  0  0  0  0  0
    4.1664    0.3861   -2.6562 H   0  0  0  0  0  0  0  0  0  0  0  0
    5.1314    2.6523   -2.7132 H   0  0  0  0  0  0  0  0  0  0  0  0
    3.3799    0.8850    1.4914 H   0  0  0  0  0  0  0  0  0  0  0  0
   -4.6668   -2.3712   -0.9275 H   0  0  0  0  0  0  0  0  0  0  0  0
   -5.3691   -4.6759   -0.1521 H   0  0  0  0  0  0  0  0  0  0  0  0
   -4.3561   -5.3624    2.2580 H   0  0  0  0  0  0  0  0  0  0  0  0
  1  2  1  0
  2  3  1  0
  3  4  2  0
  4  5  1  0
  5  6  2  0
  5  7  1  0
  7  8  1  0
  8  9  1  0
  9 10  2  0
  9 11  1  0
  9 12  1  0
 12 13  1  0
 13 14  2  0
 14 15  1  0
 15 16  2  0
 16 17  1  0
 17 18  3  0
 16 19  1  0
 19 20  1  0
 19 21  2  0
  4 22  1  0
 22 23  2  0
 23 24  1  0
 24 25  2  0
 25 26  1  0
 21 13  1  0
 26 22  1  0
  1 27  1  0
  1 28  1  0
  1 29  1  0
  7 30  1  0
  8 31  1  0
  8 32  1  0
 11 33  1  0
 14 34  1  0
 15 35  1  0
 21 36  1  0
 23 37  1  0
 24 38  1  0
 25 39  1  0
M  END
$$$$
