
     RDKit          3D

 55 58  0  0  0  0  0  0  0  0999 V2000
   -3.2113   -0.8635    3.2111 C   0  0  0  0  0  0  0  0  0  0  0  0
   -4.2995   -0.6141    2.3801 O   0  0  0  0  0  0  0  0  0  0  0  0
   -4.2146   -0.0135    1.1302 C   0  0  0  0  0  0  0  0  0  0  0  0
   -2.9433    0.3681    0.6768 C   0  0  0  0  0  0  0  0  0  0  0  0
   -2.8426    0.9683   -0.5686 C   0  0  0  0  0  0  0  0  0  0  0  0
   -1.5613    1.3909   -1.0728 N   0  0  0  0  0  0  0  0  0  0  0  0
   -0.4957    1.0409   -0.2196 C   0  0  0  0  0  0  0  0  0  0  0  0
    0.3436    0.0141   -0.3436 N   0  0  0  0  0  0  0  0  0  0  0  0
    1.3317   -0.3054    0.4973 C   0  0  0  0  0  0  0  0  0  0  0  0
    1.5197    0.5088    1.6259 C   0  0  0  0  0  0  0  0  0  0  0  0
    0.6451    1.5678    1.7394 C   0  0  0  0  0  0  0  0  0  0  0  0
   -0.3508    1.8583    0.8582 N   0  0  0  0  0  0  0  0  0  0  0  0
    2.2230   -1.3998    0.3364 N   0  0  0  0  0  0  0  0  0  0  0  0
    1.7734   -2.7254    0.7134 C   0  0  0  0  0  0  0  0  0  0  0  0
    3.5266   -1.1490   -0.1672 C   0  0  0  0  0  0  0  0  0  0  0  0
    3.8981    0.1324   -0.5132 C   0  0  0  0  0  0  0  0  0  0  0  0
    5.1774    0.3274   -0.9759 C   0  0  0  0  0  0  0  0  0  0  0  0
    6.1668   -0.6395   -1.1406 C   0  0  0  0  0  0  0  0  0  0  0  0
    5.7327   -1.9204   -0.7745 C   0  0  0  0  0  0  0  0  0  0  0  0
    4.4479   -2.1899   -0.2975 C   0  0  0  0  0  0  0  0  0  0  0  0
    7.3155   -0.0979   -1.6153 C   0  0  0  0  0  0  0  0  0  0  0  0
    8.5737   -0.8262   -1.9061 C   0  0  0  0  0  0  0  0  0  0  0  0
    7.0569    1.2317   -1.7552 N   0  0  0  0  0  0  0  0  0  0  0  0
    5.8208    1.4611   -1.3838 N   0  0  0  0  0  0  0  0  0  0  0  0
   -3.9630    1.1808   -1.3355 C   0  0  0  0  0  0  0  0  0  0  0  0
   -5.2115    0.8070   -0.8912 C   0  0  0  0  0  0  0  0  0  0  0  0
   -6.4482    0.9312   -1.5026 O   0  0  0  0  0  0  0  0  0  0  0  0
   -6.5383    1.5241   -2.7813 C   0  0  0  0  0  0  0  0  0  0  0  0
   -5.3440    0.1991    0.3623 C   0  0  0  0  0  0  0  0  0  0  0  0
   -6.5395   -0.2343    0.9493 O   0  0  0  0  0  0  0  0  0  0  0  0
   -7.1996    0.7441    1.7537 C   0  0  0  0  0  0  0  0  0  0  0  0
   -3.5380   -1.6989    3.9012 H   0  0  0  0  0  0  0  0  0  0  0  0
   -2.3152   -1.2763    2.7085 H   0  0  0  0  0  0  0  0  0  0  0  0
   -2.9709   -0.0110    3.8975 H   0  0  0  0  0  0  0  0  0  0  0  0
   -2.1074    0.1816    1.3053 H   0  0  0  0  0  0  0  0  0  0  0  0
   -1.5048    1.8987   -1.9815 H   0  0  0  0  0  0  0  0  0  0  0  0
    2.2752    0.3760    2.3921 H   0  0  0  0  0  0  0  0  0  0  0  0
    0.7527    2.2322    2.6040 H   0  0  0  0  0  0  0  0  0  0  0  0
    1.5222   -3.3701   -0.1296 H   0  0  0  0  0  0  0  0  0  0  0  0
    2.5638   -3.2486    1.3223 H   0  0  0  0  0  0  0  0  0  0  0  0
    0.8299   -2.6430    1.3272 H   0  0  0  0  0  0  0  0  0  0  0  0
    3.2204    0.9550   -0.4306 H   0  0  0  0  0  0  0  0  0  0  0  0
    6.4661   -2.7187   -0.8844 H   0  0  0  0  0  0  0  0  0  0  0  0
    4.2060   -3.2225   -0.0400 H   0  0  0  0  0  0  0  0  0  0  0  0
    9.3430   -0.0442   -2.1868 H   0  0  0  0  0  0  0  0  0  0  0  0
    8.9271   -1.3184   -0.9726 H   0  0  0  0  0  0  0  0  0  0  0  0
    8.4852   -1.5922   -2.6885 H   0  0  0  0  0  0  0  0  0  0  0  0
    5.3360    2.4029   -1.3815 H   0  0  0  0  0  0  0  0  0  0  0  0
   -3.9532    1.6375   -2.3099 H   0  0  0  0  0  0  0  0  0  0  0  0
   -5.7652    2.2914   -2.8640 H   0  0  0  0  0  0  0  0  0  0  0  0
   -7.5171    2.0637   -2.9179 H   0  0  0  0  0  0  0  0  0  0  0  0
   -6.5345    0.7489   -3.5767 H   0  0  0  0  0  0  0  0  0  0  0  0
   -7.8414    0.2868    2.5305 H   0  0  0  0  0  0  0  0  0  0  0  0
   -7.8285    1.4051    1.1220 H   0  0  0  0  0  0  0  0  0  0  0  0
   -6.4411    1.3870    2.2638 H   0  0  0  0  0  0  0  0  0  0  0  0
  1  2  1  0
  2  3  1  0
  3  4  2  0
  4  5  1  0
  5  6  1  0
  6  7  1  0
  7  8  2  0
  8  9  1  0
  9 10  2  0
 10 11  1  0
 11 12  2  0
  9 13  1  0
 13 14  1  0
 13 15  1  0
 15 16  2  0
 16 17  1  0
 17 18  2  0
 18 19  1  0
 19 20  2  0
 18 21  1  0
 21 22  1  0
 21 23  2  0
 23 24  1  0
  5 25  2  0
 25 26  1  0
 26 27  1  0
 27 28  1  0
 26 29  2  0
 29 30  1  0
 30 31  1  0
 29  3  1  0
 12  7  1  0
 20 15  1  0
 24 17  1  0
  1 32  1  0
  1 33  1  0
  1 34  1  0
  4 35  1  0
  6 36  1  0
 10 37  1  0
 11 38  1  0
 14 39  1  0
 14 40  1  0
 14 41  1  0
 16 42  1  0
 19 43  1  0
 20 44  1  0
 22 45  1  0
 22 46  1  0
 22 47  1  0
 24 48  1  0
 25 49  1  0
 28 50  1  0
 28 51  1  0
 28 52  1  0
 31 53  1  0
 31 54  1  0
 31 55  1  0
M  END
$$$$
