
     RDKit          3D

 63 66  0  0  0  0  0  0  0  0999 V2000
   -7.4056   -0.1884    2.1092 C   0  0  0  0  0  0  0  0  0  0  0  0
   -6.0438   -0.2303    2.6403 C   0  0  0  0  0  0  0  0  0  0  0  0
   -4.8757   -0.7188    1.8876 C   0  0  0  0  0  0  0  0  0  0  0  0
   -4.5684   -0.0181    0.6496 C   0  0  0  0  0  0  0  0  0  0  0  0
   -5.4285   -0.0503   -0.5279 C   0  0  0  0  0  0  0  0  0  0  0  0
   -6.4624   -0.9376   -0.7170 C   0  0  0  0  0  0  0  0  0  0  0  0
   -7.3021   -0.7674   -1.7787 C   0  0  0  0  0  0  0  0  0  0  0  0
   -7.1533    0.2651   -2.6773 C   0  0  0  0  0  0  0  0  0  0  0  0
   -6.1211    1.1545   -2.5048 C   0  0  0  0  0  0  0  0  0  0  0  0
   -5.2540    0.9912   -1.4284 C   0  0  0  0  0  0  0  0  0  0  0  0
   -3.9850    1.7419   -1.4166 C   0  0  0  0  0  0  0  0  0  0  0  0
   -3.0738    1.3845   -0.5881 N   0  0  0  0  0  0  0  0  0  0  0  0
   -3.2282    0.2889    0.3091 N   0  0  0  0  0  0  0  0  0  0  0  0
   -2.0595   -0.3715    0.7580 C   0  0  0  0  0  0  0  0  0  0  0  0
   -2.0718   -1.3466    1.5416 O   0  0  0  0  0  0  0  0  0  0  0  0
   -0.7221    0.0830    0.3005 C   0  0  0  0  0  0  0  0  0  0  0  0
    0.3681   -0.4852    0.6802 C   0  0  0  0  0  0  0  0  0  0  0  0
    1.7380   -0.1692    0.3266 C   0  0  0  0  0  0  0  0  0  0  0  0
    2.7765   -0.8235    1.0136 C   0  0  0  0  0  0  0  0  0  0  0  0
    4.0865   -0.6003    0.7575 C   0  0  0  0  0  0  0  0  0  0  0  0
    5.1818   -1.2921    1.5025 C   0  0  0  0  0  0  0  0  0  0  0  0
    6.5036   -0.7165    1.1804 C   0  0  0  0  0  0  0  0  0  0  0  0
    7.1246    0.1703    2.0324 C   0  0  0  0  0  0  0  0  0  0  0  0
    8.3241    0.6993    1.7357 N   0  0  0  0  0  0  0  0  0  0  0  0
    8.9884    0.3933    0.5887 C   0  0  0  0  0  0  0  0  0  0  0  0
   10.2509    0.9572    0.2873 N   0  0  0  0  0  0  0  0  0  0  0  0
    8.3802   -0.4723   -0.2406 N   0  0  0  0  0  0  0  0  0  0  0  0
    7.1805   -1.0327    0.0052 C   0  0  0  0  0  0  0  0  0  0  0  0
    6.5596   -1.9415   -0.8676 N   0  0  0  0  0  0  0  0  0  0  0  0
    4.4011    0.3097   -0.2205 C   0  0  0  0  0  0  0  0  0  0  0  0
    3.4192    0.9706   -0.9173 C   0  0  0  0  0  0  0  0  0  0  0  0
    3.7152    1.8913   -1.9071 O   0  0  0  0  0  0  0  0  0  0  0  0
    2.0638    0.7250   -0.6388 C   0  0  0  0  0  0  0  0  0  0  0  0
    1.1217    1.4421   -1.4126 O   0  0  0  0  0  0  0  0  0  0  0  0
    0.8129    0.7712   -2.6581 C   0  0  0  0  0  0  0  0  0  0  0  0
   -8.1221    0.1965    2.9254 H   0  0  0  0  0  0  0  0  0  0  0  0
   -7.8393   -1.1491    1.7688 H   0  0  0  0  0  0  0  0  0  0  0  0
   -7.5972    0.5644    1.3035 H   0  0  0  0  0  0  0  0  0  0  0  0
   -6.1142   -0.7576    3.6645 H   0  0  0  0  0  0  0  0  0  0  0  0
   -5.8392    0.8462    3.0241 H   0  0  0  0  0  0  0  0  0  0  0  0
   -3.9781   -0.5511    2.5842 H   0  0  0  0  0  0  0  0  0  0  0  0
   -4.8634   -1.8447    1.7920 H   0  0  0  0  0  0  0  0  0  0  0  0
   -4.8872    1.1297    1.0410 H   0  0  0  0  0  0  0  0  0  0  0  0
   -6.5416   -1.7701   -0.0212 H   0  0  0  0  0  0  0  0  0  0  0  0
   -8.1171   -1.4854   -1.9063 H   0  0  0  0  0  0  0  0  0  0  0  0
   -7.8474    0.3596   -3.5006 H   0  0  0  0  0  0  0  0  0  0  0  0
   -5.9505    1.9857   -3.1763 H   0  0  0  0  0  0  0  0  0  0  0  0
   -3.8699    2.5649   -2.1063 H   0  0  0  0  0  0  0  0  0  0  0  0
   -0.6766    0.9306   -0.3462 H   0  0  0  0  0  0  0  0  0  0  0  0
    0.2143   -1.3469    1.3811 H   0  0  0  0  0  0  0  0  0  0  0  0
    2.5283   -1.5405    1.7849 H   0  0  0  0  0  0  0  0  0  0  0  0
    5.1287   -2.3651    1.1545 H   0  0  0  0  0  0  0  0  0  0  0  0
    4.9861   -1.3364    2.5874 H   0  0  0  0  0  0  0  0  0  0  0  0
    6.5966    0.4183    2.9516 H   0  0  0  0  0  0  0  0  0  0  0  0
   11.1207    0.4789    0.5813 H   0  0  0  0  0  0  0  0  0  0  0  0
   10.3251    1.8514   -0.2287 H   0  0  0  0  0  0  0  0  0  0  0  0
    6.1876   -1.6048   -1.7737 H   0  0  0  0  0  0  0  0  0  0  0  0
    6.4603   -2.9457   -0.6340 H   0  0  0  0  0  0  0  0  0  0  0  0
    5.4274    0.5640   -0.4946 H   0  0  0  0  0  0  0  0  0  0  0  0
    3.7875    2.8743   -1.7766 H   0  0  0  0  0  0  0  0  0  0  0  0
    0.8715   -0.3197   -2.5504 H   0  0  0  0  0  0  0  0  0  0  0  0
   -0.2083    1.0768   -2.9409 H   0  0  0  0  0  0  0  0  0  0  0  0
    1.5771    1.0991   -3.3895 H   0  0  0  0  0  0  0  0  0  0  0  0
  1  2  1  0
  2  3  1  0
  3  4  1  0
  4  5  1  0
  5  6  2  0
  6  7  1  0
  7  8  2  0
  8  9  1  0
  9 10  2  0
 10 11  1  0
 11 12  2  0
 12 13  1  0
 13 14  1  0
 14 15  2  0
 14 16  1  0
 16 17  2  0
 17 18  1  0
 18 19  2  0
 19 20  1  0
 20 21  1  0
 21 22  1  0
 22 23  2  0
 23 24  1  0
 24 25  2  0
 25 26  1  0
 25 27  1  0
 27 28  2  0
 28 29  1  0
 20 30  2  0
 30 31  1  0
 31 32  1  0
 31 33  2  0
 33 34  1  0
 34 35  1  0
 13  4  1  0
 33 18  1  0
 10  5  1  0
 28 22  1  0
  1 36  1  0
  1 37  1  0
  1 38  1  0
  2 39  1  0
  2 40  1  0
  3 41  1  0
  3 42  1  0
  4 43  1  0
  6 44  1  0
  7 45  1  0
  8 46  1  0
  9 47  1  0
 11 48  1  0
 16 49  1  0
 17 50  1  0
 19 51  1  0
 21 52  1  0
 21 53  1  0
 23 54  1  0
 26 55  1  0
 26 56  1  0
 29 57  1  0
 29 58  1  0
 30 59  1  0
 32 60  1  0
 35 61  1  0
 35 62  1  0
 35 63  1  0
M  END
$$$$
