
     RDKit          3D

 54 57  0  0  0  0  0  0  0  0999 V2000
   -2.7786   -4.5303   -1.0735 C   0  0  0  0  0  0  0  0  0  0  0  0
   -1.4574   -3.7973   -1.0736 C   0  0  0  0  0  0  0  0  0  0  0  0
   -0.4952   -4.2049   -1.7277 O   0  0  0  0  0  0  0  0  0  0  0  0
   -1.3844   -2.6117   -0.2783 N   0  0  0  0  0  0  0  0  0  0  0  0
   -0.1261   -1.9251   -0.2244 C   0  0  0  0  0  0  0  0  0  0  0  0
    1.0672   -2.6060   -0.2176 C   0  0  0  0  0  0  0  0  0  0  0  0
    2.2124   -1.8461   -0.1876 C   0  0  0  0  0  0  0  0  0  0  0  0
    2.2445   -0.4720   -0.1642 C   0  0  0  0  0  0  0  0  0  0  0  0
    3.4948    0.2857   -0.1337 C   0  0  0  0  0  0  0  0  0  0  0  0
    3.5718    1.5111    0.4998 C   0  0  0  0  0  0  0  0  0  0  0  0
    4.7588    2.2142    0.5192 C   0  0  0  0  0  0  0  0  0  0  0  0
    5.9110    1.7498   -0.0764 C   0  0  0  0  0  0  0  0  0  0  0  0
    7.1540    2.5127   -0.0421 C   0  0  0  0  0  0  0  0  0  0  0  0
    7.1399    3.6193    0.5550 O   0  0  0  0  0  0  0  0  0  0  0  0
    8.3211    2.0811   -0.6248 O   0  0  0  0  0  0  0  0  0  0  0  0
    5.8358    0.5190   -0.7133 C   0  0  0  0  0  0  0  0  0  0  0  0
    4.6476   -0.1805   -0.7304 C   0  0  0  0  0  0  0  0  0  0  0  0
    1.0104    0.1905   -0.1712 C   0  0  0  0  0  0  0  0  0  0  0  0
   -0.1593   -0.5150   -0.2000 C   0  0  0  0  0  0  0  0  0  0  0  0
   -1.5320    0.0739   -0.1935 C   0  0  2  0  0  0  0  0  0  0  0  0
   -1.5074    1.4517    0.2137 N   0  0  0  0  0  0  0  0  0  0  0  0
   -2.7061    2.2349    0.1118 C   0  0  0  0  0  0  0  0  0  0  0  0
   -2.7033    3.5627    0.5312 C   0  0  0  0  0  0  0  0  0  0  0  0
   -3.8324    4.3506    0.4399 C   0  0  0  0  0  0  0  0  0  0  0  0
   -5.0121    3.8517   -0.0723 C   0  0  0  0  0  0  0  0  0  0  0  0
   -6.4406    4.8495   -0.1874 Cl  0  0  0  0  0  0  0  0  0  0  0  0
   -5.0245    2.5422   -0.4889 C   0  0  0  0  0  0  0  0  0  0  0  0
   -3.8888    1.7599   -0.3940 C   0  0  0  0  0  0  0  0  0  0  0  0
   -2.2832   -0.7004    0.9176 C   0  0  0  0  0  0  0  0  0  0  0  0
   -2.5219   -2.0956    0.4416 C   0  0  2  0  0  0  0  0  0  0  0  0
   -2.7480   -3.0315    1.6368 C   0  0  0  0  0  0  0  0  0  0  0  0
   -3.5552   -3.7802   -1.3093 H   0  0  0  0  0  0  0  0  0  0  0  0
   -2.7102   -5.3191   -1.8623 H   0  0  0  0  0  0  0  0  0  0  0  0
   -2.9626   -5.0302   -0.1055 H   0  0  0  0  0  0  0  0  0  0  0  0
    1.0485   -3.6835   -0.2296 H   0  0  0  0  0  0  0  0  0  0  0  0
    3.1643   -2.3647   -0.1821 H   0  0  0  0  0  0  0  0  0  0  0  0
    2.6652    1.8827    0.9719 H   0  0  0  0  0  0  0  0  0  0  0  0
    4.8076    3.1742    1.0189 H   0  0  0  0  0  0  0  0  0  0  0  0
    9.1277    2.6869   -0.7956 H   0  0  0  0  0  0  0  0  0  0  0  0
    6.7380    0.1512   -1.1820 H   0  0  0  0  0  0  0  0  0  0  0  0
    4.5824   -1.1504   -1.2305 H   0  0  0  0  0  0  0  0  0  0  0  0
    1.0043    1.2507   -0.1604 H   0  0  0  0  0  0  0  0  0  0  0  0
   -2.0650   -0.0601   -1.1442 H   0  0  0  0  0  0  0  0  0  0  0  0
   -0.6640    1.9229    0.5905 H   0  0  0  0  0  0  0  0  0  0  0  0
   -1.7942    3.9834    0.9373 H   0  0  0  0  0  0  0  0  0  0  0  0
   -3.8137    5.3928    0.7740 H   0  0  0  0  0  0  0  0  0  0  0  0
   -5.9377    2.1364   -0.8916 H   0  0  0  0  0  0  0  0  0  0  0  0
   -3.9483    0.7461   -0.7390 H   0  0  0  0  0  0  0  0  0  0  0  0
   -3.1541   -0.1697    1.2850 H   0  0  0  0  0  0  0  0  0  0  0  0
   -1.5173   -0.7782    1.7504 H   0  0  0  0  0  0  0  0  0  0  0  0
   -3.4465   -2.1057   -0.1901 H   0  0  0  0  0  0  0  0  0  0  0  0
   -3.7416   -3.4924    1.5510 H   0  0  0  0  0  0  0  0  0  0  0  0
   -2.6329   -2.4234    2.5595 H   0  0  0  0  0  0  0  0  0  0  0  0
   -1.9629   -3.8135    1.6917 H   0  0  0  0  0  0  0  0  0  0  0  0
  1  2  1  0
  2  3  2  0
  2  4  1  0
  4  5  1  0
  5  6  2  0
  6  7  1  0
  7  8  2  0
  8  9  1  0
  9 10  2  0
 10 11  1  0
 11 12  2  0
 12 13  1  0
 13 14  2  0
 13 15  1  0
 12 16  1  0
 16 17  2  0
  8 18  1  0
 18 19  2  0
 19 20  1  0
 20 21  1  0
 21 22  1  0
 22 23  2  0
 23 24  1  0
 24 25  2  0
 25 26  1  0
 25 27  1  0
 27 28  2  0
 20 29  1  0
 29 30  1  0
 30 31  1  0
 30  4  1  0
 19  5  1  0
 28 22  1  0
 17  9  1  0
  1 32  1  0
  1 33  1  0
  1 34  1  0
  6 35  1  0
  7 36  1  0
 10 37  1  0
 11 38  1  0
 15 39  1  0
 16 40  1  0
 17 41  1  0
 18 42  1  0
 20 43  1  6
 21 44  1  0
 23 45  1  0
 24 46  1  0
 27 47  1  0
 28 48  1  0
 29 49  1  0
 29 50  1  0
 30 51  1  6
 31 52  1  0
 31 53  1  0
 31 54  1  0
M  END
$$$$
