
     RDKit          3D

 37 40  0  0  0  0  0  0  0  0999 V2000
    0.5412   -1.0307    1.4292 O   0  0  0  0  0  0  0  0  0  0  0  0
    0.2301   -0.0318    0.6899 C   0  0  0  0  0  0  0  0  0  0  0  0
   -0.9770    0.7128    1.0651 C   0  0  0  0  0  0  0  0  0  0  0  0
   -2.2246    0.0097    0.7292 C   0  0  0  0  0  0  0  0  0  0  0  0
   -2.8894   -0.8367    1.6249 C   0  0  0  0  0  0  0  0  0  0  0  0
   -4.0170   -1.5223    1.2446 C   0  0  0  0  0  0  0  0  0  0  0  0
   -4.5345   -1.4089   -0.0117 C   0  0  0  0  0  0  0  0  0  0  0  0
   -3.9054   -0.5819   -0.9215 C   0  0  0  0  0  0  0  0  0  0  0  0
   -4.4328   -0.4484   -2.1810 C   0  0  0  0  0  0  0  0  0  0  0  0
   -3.8126    0.3864   -3.0534 N   0  0  0  0  0  0  0  0  0  0  0  0
   -2.7109    1.0648   -2.6941 C   0  0  0  0  0  0  0  0  0  0  0  0
   -2.1441    0.9658   -1.4497 C   0  0  0  0  0  0  0  0  0  0  0  0
   -2.7607    0.1125   -0.5298 C   0  0  0  0  0  0  0  0  0  0  0  0
    1.0998    0.2151   -0.3964 N   0  0  0  0  0  0  0  0  0  0  0  0
    2.2491   -0.6161   -0.6314 C   0  0  0  0  0  0  0  0  0  0  0  0
    2.1971   -2.1334   -1.5531 S   0  0  0  0  0  0  0  0  0  0  0  0
    3.9001   -2.5264   -1.3830 C   0  0  0  0  0  0  0  0  0  0  0  0
    4.4024   -1.4823   -0.6374 C   0  0  0  0  0  0  0  0  0  0  0  0
    6.3024   -1.5228   -0.1949 Br  0  0  0  0  0  0  0  0  0  0  0  0
    3.5383   -0.5124   -0.2639 C   0  0  0  0  0  0  0  0  0  0  0  0
    3.9773    0.7030    0.4995 C   0  0  0  0  0  0  0  0  0  0  0  0
    5.2228    0.9193    0.9329 N   0  0  0  0  0  0  0  0  0  0  0  0
    5.2590    2.1188    1.5468 N   0  0  0  0  0  0  0  0  0  0  0  0
    4.0328    2.6626    1.5008 C   0  0  0  0  0  0  0  0  0  0  0  0
    3.2584    1.7582    0.8437 N   0  0  0  0  0  0  0  0  0  0  0  0
   -0.9126    1.7556    0.7046 H   0  0  0  0  0  0  0  0  0  0  0  0
   -1.0006    0.8533    2.2019 H   0  0  0  0  0  0  0  0  0  0  0  0
   -2.4699   -0.9218    2.6105 H   0  0  0  0  0  0  0  0  0  0  0  0
   -4.5520   -2.1960    1.9375 H   0  0  0  0  0  0  0  0  0  0  0  0
   -5.4233   -1.9421   -0.3422 H   0  0  0  0  0  0  0  0  0  0  0  0
   -5.3113   -0.9546   -2.5520 H   0  0  0  0  0  0  0  0  0  0  0  0
   -2.2028    1.7410   -3.3953 H   0  0  0  0  0  0  0  0  0  0  0  0
   -1.2790    1.5460   -1.2293 H   0  0  0  0  0  0  0  0  0  0  0  0
    0.9188    0.9889   -1.0433 H   0  0  0  0  0  0  0  0  0  0  0  0
    4.4154   -3.3956   -1.7761 H   0  0  0  0  0  0  0  0  0  0  0  0
    3.7596    3.6151    1.8960 H   0  0  0  0  0  0  0  0  0  0  0  0
    2.2558    1.9348    0.6714 H   0  0  0  0  0  0  0  0  0  0  0  0
  1  2  2  0
  2  3  1  0
  3  4  1  0
  4  5  2  0
  5  6  1  0
  6  7  2  0
  7  8  1  0
  8  9  2  0
  9 10  1  0
 10 11  2  0
 11 12  1  0
 12 13  2  0
  2 14  1  0
 14 15  1  0
 15 16  1  0
 16 17  1  0
 17 18  2  0
 18 19  1  0
 18 20  1  0
 20 21  1  0
 21 22  2  0
 22 23  1  0
 23 24  2  0
 24 25  1  0
 13  4  1  0
 20 15  2  0
 25 21  1  0
 13  8  1  0
  3 26  1  0
  3 27  1  0
  5 28  1  0
  6 29  1  0
  7 30  1  0
  9 31  1  0
 11 32  1  0
 12 33  1  0
 14 34  1  0
 17 35  1  0
 24 36  1  0
 25 37  1  0
M  END
$$$$
