
     RDKit          3D

 44 46  0  0  0  0  0  0  0  0999 V2000
   -6.1419    1.0347    1.0613 C   0  0  0  0  0  0  0  0  0  0  0  0
   -5.2810    0.4530    2.0128 O   0  0  0  0  0  0  0  0  0  0  0  0
   -3.9561    0.2152    1.7254 C   0  0  0  0  0  0  0  0  0  0  0  0
   -3.1499   -0.3645    2.7102 C   0  0  0  0  0  0  0  0  0  0  0  0
   -1.8254   -0.5878    2.3842 C   0  0  0  0  0  0  0  0  0  0  0  0
   -1.2857   -0.2679    1.1562 C   0  0  0  0  0  0  0  0  0  0  0  0
   -2.1122    0.3024    0.2113 C   0  0  0  0  0  0  0  0  0  0  0  0
   -3.4434    0.5442    0.4923 C   0  0  0  0  0  0  0  0  0  0  0  0
   -1.3351    0.5140   -0.8926 C   0  0  0  0  0  0  0  0  0  0  0  0
   -1.8069    1.1176   -2.1687 C   0  0  0  0  0  0  0  0  0  0  0  0
   -2.5987    0.1280   -2.9391 C   0  0  0  0  0  0  0  0  0  0  0  0
   -2.7676   -1.0205   -2.4665 O   0  0  0  0  0  0  0  0  0  0  0  0
   -3.1579    0.4370   -4.1676 O   0  0  0  0  0  0  0  0  0  0  0  0
   -0.0293    0.0768   -0.6383 C   0  0  0  0  0  0  0  0  0  0  0  0
    1.0076    0.1197   -1.7024 C   0  0  0  0  0  0  0  0  0  0  0  0
   -0.0214   -0.3929    0.6148 N   0  0  0  0  0  0  0  0  0  0  0  0
    1.0981   -0.8629    1.3336 C   0  0  0  0  0  0  0  0  0  0  0  0
    0.8118   -1.4885    2.4364 O   0  0  0  0  0  0  0  0  0  0  0  0
    2.4772   -0.7215    0.9798 C   0  0  0  0  0  0  0  0  0  0  0  0
    3.3940   -1.7577    1.1770 C   0  0  0  0  0  0  0  0  0  0  0  0
    4.7366   -1.6211    0.9431 C   0  0  0  0  0  0  0  0  0  0  0  0
    5.2493   -0.4265    0.4929 C   0  0  0  0  0  0  0  0  0  0  0  0
    6.7069   -0.2746    0.2383 C   0  0  0  0  0  0  0  0  0  0  0  0
    7.4847    0.2781    1.7424 Cl  0  0  0  0  0  0  0  0  0  0  0  0
    4.3645    0.6023    0.2940 C   0  0  0  0  0  0  0  0  0  0  0  0
    2.9922    0.4604    0.5344 C   0  0  0  0  0  0  0  0  0  0  0  0
   -6.1343    0.3857    0.1505 H   0  0  0  0  0  0  0  0  0  0  0  0
   -5.8901    2.0687    0.8075 H   0  0  0  0  0  0  0  0  0  0  0  0
   -7.1739    0.9378    1.4779 H   0  0  0  0  0  0  0  0  0  0  0  0
   -3.5718   -0.6156    3.6714 H   0  0  0  0  0  0  0  0  0  0  0  0
   -1.2302   -1.0307    3.1565 H   0  0  0  0  0  0  0  0  0  0  0  0
   -4.0697    0.9897   -0.2592 H   0  0  0  0  0  0  0  0  0  0  0  0
   -0.9481    1.4793   -2.7654 H   0  0  0  0  0  0  0  0  0  0  0  0
   -2.4317    2.0230   -1.9649 H   0  0  0  0  0  0  0  0  0  0  0  0
   -3.3176   -0.2498   -4.8844 H   0  0  0  0  0  0  0  0  0  0  0  0
    1.4933    1.1057   -1.7853 H   0  0  0  0  0  0  0  0  0  0  0  0
    1.7365   -0.6853   -1.6641 H   0  0  0  0  0  0  0  0  0  0  0  0
    0.4940    0.0004   -2.7238 H   0  0  0  0  0  0  0  0  0  0  0  0
    2.9820   -2.6904    1.5314 H   0  0  0  0  0  0  0  0  0  0  0  0
    5.4235   -2.4254    1.1000 H   0  0  0  0  0  0  0  0  0  0  0  0
    7.1745   -1.2076   -0.1395 H   0  0  0  0  0  0  0  0  0  0  0  0
    6.9076    0.5147   -0.5219 H   0  0  0  0  0  0  0  0  0  0  0  0
    4.7398    1.5484   -0.0581 H   0  0  0  0  0  0  0  0  0  0  0  0
    2.4056    1.3547    0.3686 H   0  0  0  0  0  0  0  0  0  0  0  0
  1  2  1  0
  2  3  1  0
  3  4  2  0
  4  5  1  0
  5  6  2  0
  6  7  1  0
  7  8  2  0
  7  9  1  0
  9 10  1  0
 10 11  1  0
 11 12  2  0
 11 13  1  0
  9 14  2  0
 14 15  1  0
 14 16  1  0
 16 17  1  0
 17 18  2  0
 17 19  1  0
 19 20  2  0
 20 21  1  0
 21 22  2  0
 22 23  1  0
 23 24  1  0
 22 25  1  0
 25 26  2  0
  8  3  1  0
 26 19  1  0
 16  6  1  0
  1 27  1  0
  1 28  1  0
  1 29  1  0
  4 30  1  0
  5 31  1  0
  8 32  1  0
 10 33  1  0
 10 34  1  0
 13 35  1  0
 15 36  1  0
 15 37  1  0
 15 38  1  0
 20 39  1  0
 21 40  1  0
 23 41  1  0
 23 42  1  0
 25 43  1  0
 26 44  1  0
M  END
$$$$
