
     RDKit          3D

 47 49  0  0  0  0  0  0  0  0999 V2000
   -5.6887   -1.1485   -0.4562 C   0  0  0  0  0  0  0  0  0  0  0  0
   -4.2360   -0.8641   -0.9212 C   0  0  0  0  0  0  0  0  0  0  0  0
   -4.3584    0.1087   -2.0316 C   0  0  0  0  0  0  0  0  0  0  0  0
   -3.4272   -0.4650    0.2618 C   0  0  2  0  0  0  0  0  0  0  0  0
   -3.8456    0.7380    0.9745 C   0  0  0  0  0  0  0  0  0  0  0  0
   -4.7548    1.4722    0.5870 O   0  0  0  0  0  0  0  0  0  0  0  0
   -3.1395    1.0351    2.1682 N   0  0  0  0  0  0  0  0  0  0  0  0
   -3.5324    1.9296    3.0709 O   0  0  0  0  0  0  0  0  0  0  0  0
   -1.9102    0.3096    2.4060 C   0  0  0  0  0  0  0  0  0  0  0  0
   -1.1421    0.6407    3.3417 O   0  0  0  0  0  0  0  0  0  0  0  0
   -1.5441   -0.8311    1.5492 C   0  0  0  0  0  0  0  0  0  0  0  0
   -2.0165   -0.5287    0.1737 N   0  0  0  0  0  0  0  0  0  0  0  0
   -1.1833    0.8517   -0.3484 S   0  0  0  0  0  6  0  0  0  0  0  0
   -1.3839    2.0727    0.4926 O   0  0  0  0  0  0  0  0  0  0  0  0
   -1.5619    1.2245   -1.7493 O   0  0  0  0  0  0  0  0  0  0  0  0
    0.5609    0.5711   -0.3971 C   0  0  0  0  0  0  0  0  0  0  0  0
    1.3248    0.8623    0.7061 C   0  0  0  0  0  0  0  0  0  0  0  0
    2.6926    0.6601    0.7185 C   0  0  0  0  0  0  0  0  0  0  0  0
    3.2971    0.1516   -0.4141 C   0  0  0  0  0  0  0  0  0  0  0  0
    4.7546   -0.0561   -0.3829 C   0  0  0  0  0  0  0  0  0  0  0  0
    5.5700    0.7726    0.3632 C   0  0  0  0  0  0  0  0  0  0  0  0
    6.9359    0.5846    0.3989 C   0  0  0  0  0  0  0  0  0  0  0  0
    7.5348   -0.4360   -0.3081 C   0  0  0  0  0  0  0  0  0  0  0  0
    6.7154   -1.2599   -1.0512 C   0  0  0  0  0  0  0  0  0  0  0  0
    5.3470   -1.0826   -1.0955 C   0  0  0  0  0  0  0  0  0  0  0  0
    2.5334   -0.1351   -1.5051 C   0  0  0  0  0  0  0  0  0  0  0  0
    1.1467    0.0655   -1.5292 C   0  0  0  0  0  0  0  0  0  0  0  0
   -6.1823   -0.2377   -0.1042 H   0  0  0  0  0  0  0  0  0  0  0  0
   -5.6205   -1.8714    0.3828 H   0  0  0  0  0  0  0  0  0  0  0  0
   -6.2542   -1.6514   -1.2616 H   0  0  0  0  0  0  0  0  0  0  0  0
   -3.8592   -1.8320   -1.2917 H   0  0  0  0  0  0  0  0  0  0  0  0
   -3.6157   -0.1342   -2.8240 H   0  0  0  0  0  0  0  0  0  0  0  0
   -5.3551   -0.0621   -2.5429 H   0  0  0  0  0  0  0  0  0  0  0  0
   -4.2523    1.1634   -1.7779 H   0  0  0  0  0  0  0  0  0  0  0  0
   -3.6853   -1.3118    1.0349 H   0  0  0  0  0  0  0  0  0  0  0  0
   -4.2771    1.5682    3.5879 H   0  0  0  0  0  0  0  0  0  0  0  0
   -2.1107   -1.7353    1.8502 H   0  0  0  0  0  0  0  0  0  0  0  0
   -0.4554   -1.0250    1.5456 H   0  0  0  0  0  0  0  0  0  0  0  0
    0.8929    1.2628    1.6128 H   0  0  0  0  0  0  0  0  0  0  0  0
    3.2620    0.8996    1.6014 H   0  0  0  0  0  0  0  0  0  0  0  0
    5.1415    1.5971    0.9415 H   0  0  0  0  0  0  0  0  0  0  0  0
    7.5964    1.2334    0.9860 H   0  0  0  0  0  0  0  0  0  0  0  0
    8.6153   -0.5916   -0.2852 H   0  0  0  0  0  0  0  0  0  0  0  0
    7.1703   -2.0688   -1.6144 H   0  0  0  0  0  0  0  0  0  0  0  0
    4.7130   -1.7385   -1.6843 H   0  0  0  0  0  0  0  0  0  0  0  0
    3.0083   -0.5282   -2.3781 H   0  0  0  0  0  0  0  0  0  0  0  0
    0.5798   -0.1800   -2.4283 H   0  0  0  0  0  0  0  0  0  0  0  0
  1  2  1  0
  2  3  1  0
  2  4  1  0
  4  5  1  0
  5  6  2  0
  5  7  1  0
  7  8  1  0
  7  9  1  0
  9 10  2  0
  9 11  1  0
 11 12  1  0
 12 13  1  0
 13 14  2  0
 13 15  2  0
 13 16  1  0
 16 17  2  0
 17 18  1  0
 18 19  2  0
 19 20  1  0
 20 21  2  0
 21 22  1  0
 22 23  2  0
 23 24  1  0
 24 25  2  0
 19 26  1  0
 26 27  2  0
 12  4  1  0
 27 16  1  0
 25 20  1  0
  1 28  1  0
  1 29  1  0
  1 30  1  0
  2 31  1  0
  3 32  1  0
  3 33  1  0
  3 34  1  0
  4 35  1  1
  8 36  1  0
 11 37  1  0
 11 38  1  0
 17 39  1  0
 18 40  1  0
 21 41  1  0
 22 42  1  0
 23 43  1  0
 24 44  1  0
 25 45  1  0
 26 46  1  0
 27 47  1  0
M  END
$$$$
