
     RDKit          3D

 43 45  0  0  0  0  0  0  0  0999 V2000
   -0.5403    1.7029   -2.7350 C   0  0  0  0  0  0  0  0  0  0  0  0
   -1.0948    0.9903   -1.6566 O   0  0  0  0  0  0  0  0  0  0  0  0
   -0.2674    0.2357   -0.8177 C   0  0  0  0  0  0  0  0  0  0  0  0
    1.0798    0.1724   -1.0210 C   0  0  0  0  0  0  0  0  0  0  0  0
    1.8876   -0.5714   -0.1924 C   0  0  0  0  0  0  0  0  0  0  0  0
    3.3128   -0.5944   -0.4668 C   0  0  0  0  0  0  0  0  0  0  0  0
    3.7543    0.0593   -1.4413 O   0  0  0  0  0  0  0  0  0  0  0  0
    4.2263   -1.3201    0.3145 N   0  0  0  0  0  0  0  0  0  0  0  0
    5.6258   -1.3180    0.0120 C   0  0  0  0  0  0  0  0  0  0  0  0
    6.2551    0.0484    0.0537 C   0  0  0  0  0  0  0  0  0  0  0  0
    7.6205   -0.1263   -0.2644 O   0  0  0  0  0  0  0  0  0  0  0  0
    1.3146   -1.2593    0.8566 C   0  0  0  0  0  0  0  0  0  0  0  0
   -0.0576   -1.2041    1.0762 C   0  0  0  0  0  0  0  0  0  0  0  0
   -0.8285   -0.4555    0.2332 C   0  0  0  0  0  0  0  0  0  0  0  0
   -2.2905   -0.3887    0.4564 C   0  0  0  0  0  0  0  0  0  0  0  0
   -3.1534   -1.2838   -0.1233 C   0  0  0  0  0  0  0  0  0  0  0  0
   -4.5145   -1.2210    0.0851 C   0  0  0  0  0  0  0  0  0  0  0  0
   -5.4302   -2.1903   -0.5449 C   0  0  0  0  0  0  0  0  0  0  0  0
   -6.4636   -2.5347    0.2908 F   0  0  0  0  0  0  0  0  0  0  0  0
   -4.7593   -3.3331   -0.8995 F   0  0  0  0  0  0  0  0  0  0  0  0
   -5.9087   -1.6158   -1.7113 F   0  0  0  0  0  0  0  0  0  0  0  0
   -5.0140   -0.2292    0.8990 C   0  0  0  0  0  0  0  0  0  0  0  0
   -4.1845    0.6959    1.5054 C   0  0  0  0  0  0  0  0  0  0  0  0
   -4.4235    1.7374    2.3265 N   0  0  0  0  0  0  0  0  0  0  0  0
   -3.2557    2.2876    2.6076 N   0  0  0  0  0  0  0  0  0  0  0  0
   -2.2567    1.6324    1.9910 C   0  0  0  0  0  0  0  0  0  0  0  0
   -2.8189    0.5939    1.2668 C   0  0  0  0  0  0  0  0  0  0  0  0
   -1.3238    2.0600   -3.4184 H   0  0  0  0  0  0  0  0  0  0  0  0
    0.0259    2.5605   -2.3400 H   0  0  0  0  0  0  0  0  0  0  0  0
    0.0883    0.9939   -3.3238 H   0  0  0  0  0  0  0  0  0  0  0  0
    1.4860    0.7318   -1.8613 H   0  0  0  0  0  0  0  0  0  0  0  0
    3.8991   -1.8706    1.1256 H   0  0  0  0  0  0  0  0  0  0  0  0
    5.8063   -1.7151   -1.0232 H   0  0  0  0  0  0  0  0  0  0  0  0
    6.2122   -1.9707    0.6821 H   0  0  0  0  0  0  0  0  0  0  0  0
    5.8635    0.7440   -0.7063 H   0  0  0  0  0  0  0  0  0  0  0  0
    6.2226    0.5114    1.0570 H   0  0  0  0  0  0  0  0  0  0  0  0
    7.7735   -0.9882   -0.7051 H   0  0  0  0  0  0  0  0  0  0  0  0
    1.9552   -1.8468    1.5106 H   0  0  0  0  0  0  0  0  0  0  0  0
   -0.4866   -1.7527    1.9068 H   0  0  0  0  0  0  0  0  0  0  0  0
   -2.7290   -2.0653   -0.7682 H   0  0  0  0  0  0  0  0  0  0  0  0
   -6.0761   -0.1784    1.0630 H   0  0  0  0  0  0  0  0  0  0  0  0
   -5.3398    2.0805    2.6958 H   0  0  0  0  0  0  0  0  0  0  0  0
   -1.1921    1.8155    2.0049 H   0  0  0  0  0  0  0  0  0  0  0  0
  1  2  1  0
  2  3  1  0
  3  4  2  0
  4  5  1  0
  5  6  1  0
  6  7  2  0
  6  8  1  0
  8  9  1  0
  9 10  1  0
 10 11  1  0
  5 12  2  0
 12 13  1  0
 13 14  2  0
 14 15  1  0
 15 16  2  0
 16 17  1  0
 17 18  1  0
 18 19  1  0
 18 20  1  0
 18 21  1  0
 17 22  2  0
 22 23  1  0
 23 24  1  0
 24 25  1  0
 25 26  2  0
 26 27  1  0
 14  3  1  0
 27 15  1  0
 27 23  2  0
  1 28  1  0
  1 29  1  0
  1 30  1  0
  4 31  1  0
  8 32  1  0
  9 33  1  0
  9 34  1  0
 10 35  1  0
 10 36  1  0
 11 37  1  0
 12 38  1  0
 13 39  1  0
 16 40  1  0
 22 41  1  0
 24 42  1  0
 26 43  1  0
M  END
$$$$
