
     RDKit          3D

 28 28  0  0  0  0  0  0  0  0999 V2000
   -4.8085    0.2119    1.1032 N   0  0  0  0  0  0  0  0  0  0  0  0
   -4.0079   -0.4199    0.3530 C   0  0  0  0  0  0  0  0  0  0  0  0
   -4.3872   -1.6172   -0.2617 N   0  0  0  0  0  0  0  0  0  0  0  0
   -2.6725    0.0983    0.1205 C   0  0  0  0  0  0  0  0  0  0  0  0
   -2.4148    1.4652    0.1442 C   0  0  0  0  0  0  0  0  0  0  0  0
   -1.1518    1.9581   -0.0755 C   0  0  0  0  0  0  0  0  0  0  0  0
   -0.0811    1.1217   -0.3298 C   0  0  0  0  0  0  0  0  0  0  0  0
   -0.3038   -0.2373   -0.3599 C   0  0  0  0  0  0  0  0  0  0  0  0
    0.7210   -1.2208   -0.6132 C   0  0  0  0  0  0  0  0  0  0  0  0
    1.9377   -1.0334   -0.8405 N   0  0  0  0  0  0  0  0  0  0  0  0
    2.5942    0.1405   -0.9050 N   0  0  0  0  0  0  0  0  0  0  0  0
    3.7326    0.4437   -0.3863 C   0  0  0  0  0  0  0  0  0  0  0  0
    4.2519    1.7558   -0.5769 N   0  0  0  0  0  0  0  0  0  0  0  0
    4.4390   -0.5426    0.3630 N   0  0  0  0  0  0  0  0  0  0  0  0
    4.2746   -1.8625    0.1046 O   0  0  0  0  0  0  0  0  0  0  0  0
   -1.6018   -0.7211   -0.1329 C   0  0  0  0  0  0  0  0  0  0  0  0
   -5.7694   -0.0288    1.3562 H   0  0  0  0  0  0  0  0  0  0  0  0
   -5.0305   -1.6168   -1.0665 H   0  0  0  0  0  0  0  0  0  0  0  0
   -4.0195   -2.5123    0.0936 H   0  0  0  0  0  0  0  0  0  0  0  0
   -3.2557    2.1148    0.3435 H   0  0  0  0  0  0  0  0  0  0  0  0
   -0.9616    3.0371   -0.0541 H   0  0  0  0  0  0  0  0  0  0  0  0
    0.9126    1.5355   -0.5013 H   0  0  0  0  0  0  0  0  0  0  0  0
    0.4099   -2.2867   -0.6103 H   0  0  0  0  0  0  0  0  0  0  0  0
    4.1192    2.2779   -1.4620 H   0  0  0  0  0  0  0  0  0  0  0  0
    4.7731    2.1943    0.1883 H   0  0  0  0  0  0  0  0  0  0  0  0
    5.0844   -0.2105    1.1143 H   0  0  0  0  0  0  0  0  0  0  0  0
    5.0394   -2.2477   -0.3671 H   0  0  0  0  0  0  0  0  0  0  0  0
   -1.8235   -1.7972   -0.1479 H   0  0  0  0  0  0  0  0  0  0  0  0
  1  2  2  3
  2  3  1  0
  2  4  1  0
  4  5  2  0
  5  6  1  0
  6  7  2  0
  7  8  1  0
  8  9  1  0
  9 10  2  3
 10 11  1  0
 11 12  2  3
 12 13  1  0
 12 14  1  0
 14 15  1  0
  8 16  2  0
 16  4  1  0
  1 17  1  0
  3 18  1  0
  3 19  1  0
  5 20  1  0
  6 21  1  0
  7 22  1  0
  9 23  1  0
 13 24  1  0
 13 25  1  0
 14 26  1  0
 15 27  1  0
 16 28  1  0
M  END
$$$$
