
     RDKit          3D

 44 47  0  0  0  0  0  0  0  0999 V2000
    4.0630   -1.9678    3.2143 C   0  0  0  0  0  0  0  0  0  0  0  0
    4.0847   -1.5602    1.7557 C   0  0  0  0  0  0  0  0  0  0  0  0
    5.1183   -1.7526    1.0690 O   0  0  0  0  0  0  0  0  0  0  0  0
    2.9452   -0.9635    1.1639 N   0  0  0  0  0  0  0  0  0  0  0  0
    2.8822   -0.5548   -0.1874 C   0  0  0  0  0  0  0  0  0  0  0  0
    3.8164   -0.6202   -1.1885 C   0  0  0  0  0  0  0  0  0  0  0  0
    3.2840   -0.0954   -2.3318 N   0  0  0  0  0  0  0  0  0  0  0  0
    2.0322    0.2945   -2.0527 C   0  0  0  0  0  0  0  0  0  0  0  0
    1.0579    0.8890   -2.8595 C   0  0  0  0  0  0  0  0  0  0  0  0
   -0.1531    1.1668   -2.2411 C   0  0  0  0  0  0  0  0  0  0  0  0
   -0.3849    0.8765   -0.9147 C   0  0  0  0  0  0  0  0  0  0  0  0
   -1.6898    1.2095   -0.3600 C   0  0  0  0  0  0  0  0  0  0  0  0
   -2.6378    0.3150    0.1261 C   0  0  0  0  0  0  0  0  0  0  0  0
   -2.4669   -1.1122    0.1537 C   0  0  0  0  0  0  0  0  0  0  0  0
   -2.4812   -1.7912    1.3541 C   0  0  0  0  0  0  0  0  0  0  0  0
   -2.3128   -3.1609    1.3301 C   0  0  0  0  0  0  0  0  0  0  0  0
   -2.1368   -3.8261    0.1519 C   0  0  0  0  0  0  0  0  0  0  0  0
   -1.9756   -5.1671    0.1732 F   0  0  0  0  0  0  0  0  0  0  0  0
   -2.1256   -3.1351   -1.0282 C   0  0  0  0  0  0  0  0  0  0  0  0
   -2.2897   -1.7742   -1.0438 C   0  0  0  0  0  0  0  0  0  0  0  0
   -3.6940    1.0142    0.5454 N   0  0  0  0  0  0  0  0  0  0  0  0
   -3.4602    2.3368    0.3462 C   0  0  0  0  0  0  0  0  0  0  0  0
   -2.2386    2.4247   -0.2033 N   0  0  0  0  0  0  0  0  0  0  0  0
   -1.6202    3.6848   -0.5639 C   0  0  0  0  0  0  0  0  0  0  0  0
   -0.8390    4.2020    0.6234 C   0  0  0  0  0  0  0  0  0  0  0  0
   -1.6973    4.3851    1.6789 F   0  0  0  0  0  0  0  0  0  0  0  0
    0.1096    3.2746    0.9563 F   0  0  0  0  0  0  0  0  0  0  0  0
    0.6014    0.3038   -0.2004 N   0  0  0  0  0  0  0  0  0  0  0  0
    1.7836    0.0202   -0.7612 N   0  0  0  0  0  0  0  0  0  0  0  0
    4.7552   -1.3058    3.7362 H   0  0  0  0  0  0  0  0  0  0  0  0
    3.0441   -2.0020    3.5979 H   0  0  0  0  0  0  0  0  0  0  0  0
    4.4825   -2.9996    3.2731 H   0  0  0  0  0  0  0  0  0  0  0  0
    2.1191   -0.8415    1.8238 H   0  0  0  0  0  0  0  0  0  0  0  0
    4.8223   -1.0283   -1.0789 H   0  0  0  0  0  0  0  0  0  0  0  0
    1.2735    1.0972   -3.8755 H   0  0  0  0  0  0  0  0  0  0  0  0
   -0.9514    1.6264   -2.8137 H   0  0  0  0  0  0  0  0  0  0  0  0
   -2.6222   -1.2307    2.2558 H   0  0  0  0  0  0  0  0  0  0  0  0
   -2.3252   -3.6818    2.2679 H   0  0  0  0  0  0  0  0  0  0  0  0
   -1.9836   -3.6941   -1.9439 H   0  0  0  0  0  0  0  0  0  0  0  0
   -2.2841   -1.2076   -1.9699 H   0  0  0  0  0  0  0  0  0  0  0  0
   -4.1599    3.1233    0.6008 H   0  0  0  0  0  0  0  0  0  0  0  0
   -0.9996    3.6000   -1.4703 H   0  0  0  0  0  0  0  0  0  0  0  0
   -2.3968    4.4651   -0.8153 H   0  0  0  0  0  0  0  0  0  0  0  0
   -0.3487    5.1632    0.4180 H   0  0  0  0  0  0  0  0  0  0  0  0
  1  2  1  0
  2  3  2  0
  2  4  1  0
  4  5  1  0
  5  6  2  0
  6  7  1  0
  7  8  2  0
  8  9  1  0
  9 10  2  0
 10 11  1  0
 11 12  1  0
 12 13  2  0
 13 14  1  0
 14 15  2  0
 15 16  1  0
 16 17  2  0
 17 18  1  0
 17 19  1  0
 19 20  2  0
 13 21  1  0
 21 22  2  0
 22 23  1  0
 23 24  1  0
 24 25  1  0
 25 26  1  0
 25 27  1  0
 11 28  2  0
 28 29  1  0
 29  5  1  0
 29  8  1  0
 23 12  1  0
 20 14  1  0
  1 30  1  0
  1 31  1  0
  1 32  1  0
  4 33  1  0
  6 34  1  0
  9 35  1  0
 10 36  1  0
 15 37  1  0
 16 38  1  0
 19 39  1  0
 20 40  1  0
 22 41  1  0
 24 42  1  0
 24 43  1  0
 25 44  1  0
M  END
$$$$
