
     RDKit          3D

 28 28  0  0  0  0  0  0  0  0999 V2000
    4.1445    1.2710   -1.7512 N   0  0  0  0  0  0  0  0  0  0  0  0
    3.5552    0.3606   -0.8322 C   0  0  0  0  0  0  0  0  0  0  0  0
    4.2456   -0.6842   -0.5292 N   0  0  0  0  0  4  0  0  0  0  0  0
    2.2872    0.4542   -0.1962 N   0  0  0  0  0  0  0  0  0  0  0  0
    1.9744   -0.6460    0.6948 C   0  0  0  0  0  0  0  0  0  0  0  0
    0.6045   -0.4011    1.2876 C   0  0  0  0  0  0  0  0  0  0  0  0
   -0.3851   -0.3328    0.1525 C   0  0  0  0  0  0  0  0  0  0  0  0
   -1.6811   -0.1046    0.6656 O   0  0  0  0  0  0  0  0  0  0  0  0
   -2.6514   -0.0377   -0.4438 B   0  0  0  0  0  0  0  0  0  0  0  0
   -3.6861   -1.0852   -0.5637 O   0  0  0  0  0  0  0  0  0  0  0  0
   -4.9132   -0.4148   -0.5888 C   0  0  0  0  0  0  0  0  0  0  0  0
   -4.5574    0.8991    0.0801 C   0  0  0  0  0  0  0  0  0  0  0  0
   -3.4020    1.2182   -0.6673 O   0  0  0  0  0  0  0  0  0  0  0  0
    4.0572    1.4768   -2.7910 H   0  0  0  0  0  0  0  0  0  0  0  0
    4.8178    1.8327   -1.1500 H   0  0  0  0  0  0  0  0  0  0  0  0
    5.1076   -1.2419   -0.6387 H   0  0  0  0  0  0  0  0  0  0  0  0
    4.0504   -1.4771    0.0964 H   0  0  0  0  0  0  0  0  0  0  0  0
    1.7330    1.3180   -0.4558 H   0  0  0  0  0  0  0  0  0  0  0  0
    2.0050   -1.6250    0.1912 H   0  0  0  0  0  0  0  0  0  0  0  0
    2.6858   -0.6747    1.5631 H   0  0  0  0  0  0  0  0  0  0  0  0
    0.3433   -1.1375    2.0453 H   0  0  0  0  0  0  0  0  0  0  0  0
    0.6429    0.6232    1.7548 H   0  0  0  0  0  0  0  0  0  0  0  0
   -0.1558    0.5502   -0.4785 H   0  0  0  0  0  0  0  0  0  0  0  0
   -0.3635   -1.2636   -0.4411 H   0  0  0  0  0  0  0  0  0  0  0  0
   -5.7035   -0.9624   -0.0443 H   0  0  0  0  0  0  0  0  0  0  0  0
   -5.1467   -0.2414   -1.6685 H   0  0  0  0  0  0  0  0  0  0  0  0
   -4.2819    0.6595    1.1232 H   0  0  0  0  0  0  0  0  0  0  0  0
   -5.3268    1.6664   -0.0194 H   0  0  0  0  0  0  0  0  0  0  0  0
  1  2  1  0
  2  3  2  0
  2  4  1  0
  4  5  1  0
  5  6  1  0
  6  7  1  0
  7  8  1  0
  8  9  1  0
  9 10  1  0
 10 11  1  0
 11 12  1  0
 12 13  1  0
 13  9  1  0
  1 14  1  0
  1 15  1  0
  3 16  1  0
  3 17  1  0
  4 18  1  0
  5 19  1  0
  5 20  1  0
  6 21  1  0
  6 22  1  0
  7 23  1  0
  7 24  1  0
 11 25  1  0
 11 26  1  0
 12 27  1  0
 12 28  1  0
M  CHG  1   3   1
M  END
$$$$
