
     RDKit          3D

 43 47  0  0  0  0  0  0  0  0999 V2000
   -5.7012    1.9303   -2.0803 C   0  0  0  0  0  0  0  0  0  0  0  0
   -6.2227    0.8903   -1.3129 O   0  0  0  0  0  0  0  0  0  0  0  0
   -5.4199    0.0725   -0.5508 C   0  0  0  0  0  0  0  0  0  0  0  0
   -4.0435    0.1903   -0.4671 C   0  0  0  0  0  0  0  0  0  0  0  0
   -3.2713   -0.6673    0.3239 C   0  0  0  0  0  0  0  0  0  0  0  0
   -1.8309   -0.5560    0.4187 C   0  0  0  0  0  0  0  0  0  0  0  0
   -1.0006   -0.1280   -0.5903 C   0  0  0  0  0  0  0  0  0  0  0  0
    0.3884   -0.0474   -0.4132 C   0  0  0  0  0  0  0  0  0  0  0  0
    0.9721   -0.3939    0.7781 C   0  0  0  0  0  0  0  0  0  0  0  0
    2.2315   -0.4278    1.2549 C   0  0  0  0  0  0  0  0  0  0  0  0
    3.4921   -0.0813    0.6168 C   0  0  0  0  0  0  0  0  0  0  0  0
    4.7027   -0.1710    1.2612 N   0  0  0  0  0  0  0  0  0  0  0  0
    5.6804    0.2062    0.4519 C   0  0  0  0  0  0  0  0  0  0  0  0
    7.0783    0.2979    0.6197 C   0  0  0  0  0  0  0  0  0  0  0  0
    7.8735    0.7296   -0.4085 C   0  0  0  0  0  0  0  0  0  0  0  0
    7.2837    1.0715   -1.6043 C   0  0  0  0  0  0  0  0  0  0  0  0
    5.9102    0.9877   -1.7869 C   0  0  0  0  0  0  0  0  0  0  0  0
    5.1204    0.5517   -0.7455 C   0  0  0  0  0  0  0  0  0  0  0  0
    3.7809    0.3632   -0.6076 N   0  0  0  0  0  0  0  0  0  0  0  0
    2.1518   -0.8727    2.5394 N   0  0  0  0  0  0  0  0  0  0  0  0
    0.9280   -1.1153    2.8856 N   0  0  0  0  0  0  0  0  0  0  0  0
    0.1435   -0.8303    1.8125 C   0  0  0  0  0  0  0  0  0  0  0  0
   -1.2149   -0.8970    1.6035 C   0  0  0  0  0  0  0  0  0  0  0  0
   -3.9641   -1.6412    1.0183 C   0  0  0  0  0  0  0  0  0  0  0  0
   -5.3137   -1.7953    0.9673 C   0  0  0  0  0  0  0  0  0  0  0  0
   -6.0473   -0.9272    0.1729 C   0  0  0  0  0  0  0  0  0  0  0  0
   -7.4311   -1.0611    0.1012 O   0  0  0  0  0  0  0  0  0  0  0  0
   -5.3199    1.6281   -3.0777 H   0  0  0  0  0  0  0  0  0  0  0  0
   -4.8764    2.4056   -1.5294 H   0  0  0  0  0  0  0  0  0  0  0  0
   -6.4879    2.7329   -2.1795 H   0  0  0  0  0  0  0  0  0  0  0  0
   -3.5496    0.9533   -1.0180 H   0  0  0  0  0  0  0  0  0  0  0  0
   -1.4376    0.1473   -1.5284 H   0  0  0  0  0  0  0  0  0  0  0  0
    1.0196    0.2867   -1.2061 H   0  0  0  0  0  0  0  0  0  0  0  0
    7.4879    0.0171    1.5790 H   0  0  0  0  0  0  0  0  0  0  0  0
    8.9512    0.7915   -0.2521 H   0  0  0  0  0  0  0  0  0  0  0  0
    7.9235    1.4093   -2.4032 H   0  0  0  0  0  0  0  0  0  0  0  0
    5.4291    1.2540   -2.7262 H   0  0  0  0  0  0  0  0  0  0  0  0
    3.1313    0.5570   -1.3869 H   0  0  0  0  0  0  0  0  0  0  0  0
    0.5362   -1.4601    3.7819 H   0  0  0  0  0  0  0  0  0  0  0  0
   -1.8414   -1.2386    2.4237 H   0  0  0  0  0  0  0  0  0  0  0  0
   -3.3765   -2.3144    1.6360 H   0  0  0  0  0  0  0  0  0  0  0  0
   -5.8017   -2.5775    1.5346 H   0  0  0  0  0  0  0  0  0  0  0  0
   -8.0642   -0.2703    0.1106 H   0  0  0  0  0  0  0  0  0  0  0  0
  1  2  1  0
  2  3  1  0
  3  4  2  0
  4  5  1  0
  5  6  1  0
  6  7  2  0
  7  8  1  0
  8  9  2  0
  9 10  1  0
 10 11  1  0
 11 12  2  0
 12 13  1  0
 13 14  2  0
 14 15  1  0
 15 16  2  0
 16 17  1  0
 17 18  2  0
 18 19  1  0
 10 20  2  0
 20 21  1  0
 21 22  1  0
 22 23  2  0
  5 24  2  0
 24 25  1  0
 25 26  2  0
 26 27  1  0
 26  3  1  0
 23  6  1  0
 22  9  1  0
 19 11  1  0
 18 13  1  0
  1 28  1  0
  1 29  1  0
  1 30  1  0
  4 31  1  0
  7 32  1  0
  8 33  1  0
 14 34  1  0
 15 35  1  0
 16 36  1  0
 17 37  1  0
 19 38  1  0
 21 39  1  0
 23 40  1  0
 24 41  1  0
 25 42  1  0
 27 43  1  0
M  END
$$$$
