
     RDKit          3D

 23 24  0  0  0  0  0  0  0  0999 V2000
    3.1980    0.8444    1.3666 N   0  0  0  0  0  0  0  0  0  0  0  0
    2.3166    0.3465    0.3549 C   0  0  0  0  0  0  0  0  0  0  0  0
    0.9503    0.4077    0.6407 C   0  0  0  0  0  0  0  0  0  0  0  0
    0.0942   -0.0704   -0.3236 C   0  0  0  0  0  0  0  0  0  0  0  0
    0.6393   -0.5646   -1.4809 C   0  0  0  0  0  0  0  0  0  0  0  0
    1.9803   -0.5904   -1.6855 N   0  0  0  0  0  0  0  0  0  0  0  0
    2.8853   -0.1458   -0.7964 C   0  0  0  0  0  0  0  0  0  0  0  0
    4.1191   -0.1606   -0.9651 O   0  0  0  0  0  0  0  0  0  0  0  0
   -1.3205    0.0091    0.0109 C   0  0  0  0  0  0  0  0  0  0  0  0
   -1.8870    1.0020    0.7782 C   0  0  0  0  0  0  0  0  0  0  0  0
   -3.2429    0.8959    0.9952 C   0  0  0  0  0  0  0  0  0  0  0  0
   -3.9654   -0.1150    0.4888 N   0  0  0  0  0  0  0  0  0  0  0  0
   -3.4384   -1.0867   -0.2570 C   0  0  0  0  0  0  0  0  0  0  0  0
   -2.0730   -1.0387   -0.5138 C   0  0  0  0  0  0  0  0  0  0  0  0
    3.5625    1.5190    2.0540 H   0  0  0  0  0  0  0  0  0  0  0  0
    3.9576    0.1450    1.6025 H   0  0  0  0  0  0  0  0  0  0  0  0
    0.6068    0.8183    1.5816 H   0  0  0  0  0  0  0  0  0  0  0  0
   -0.0705   -0.9292   -2.2101 H   0  0  0  0  0  0  0  0  0  0  0  0
    2.3117   -0.9892   -2.5926 H   0  0  0  0  0  0  0  0  0  0  0  0
   -1.2107    1.7680    1.1331 H   0  0  0  0  0  0  0  0  0  0  0  0
   -3.6826    1.6733    1.5965 H   0  0  0  0  0  0  0  0  0  0  0  0
   -4.0633   -1.8919   -0.6486 H   0  0  0  0  0  0  0  0  0  0  0  0
   -1.6676   -1.8467   -1.1293 H   0  0  0  0  0  0  0  0  0  0  0  0
  1  2  1  0
  2  3  2  0
  3  4  1  0
  4  5  2  0
  5  6  1  0
  6  7  1  0
  7  8  2  0
  4  9  1  0
  9 10  2  0
 10 11  1  0
 11 12  2  0
 12 13  1  0
 13 14  2  0
  7  2  1  0
 14  9  1  0
  1 15  1  0
  1 16  1  0
  3 17  1  0
  5 18  1  0
  6 19  1  0
 10 20  1  0
 11 21  1  0
 13 22  1  0
 14 23  1  0
M  END
$$$$
