
     RDKit          3D

 33 34  0  0  0  0  0  0  0  0999 V2000
    4.5476    0.0244    1.3810 O   0  0  0  0  0  0  0  0  0  0  0  0
    4.6319    0.6067    0.2905 C   0  0  0  0  0  0  0  0  0  0  0  0
    5.7422    1.3723    0.0234 O   0  0  0  0  0  0  0  0  0  0  0  0
    3.5658    0.5136   -0.7644 C   0  0  0  0  0  0  0  0  0  0  0  0
    2.4745   -0.3313   -0.3134 N   0  0  0  0  0  0  0  0  0  0  0  0
    2.5637   -1.6446   -0.5932 C   0  0  0  0  0  0  0  0  0  0  0  0
    1.5292   -2.4579   -0.1675 C   0  0  0  0  0  0  0  0  0  0  0  0
    0.4629   -1.8904    0.5180 C   0  0  0  0  0  0  0  0  0  0  0  0
   -0.4462   -2.6957    0.8764 O   0  0  0  0  0  0  0  0  0  0  0  0
    0.3996   -0.5762    0.7836 N   0  0  0  0  0  0  0  0  0  0  0  0
   -0.7155    0.0012    1.4977 C   0  0  0  0  0  0  0  0  0  0  0  0
   -1.8227    0.4472    0.6267 C   0  0  0  0  0  0  0  0  0  0  0  0
   -1.8459    1.7317    0.1184 C   0  0  0  0  0  0  0  0  0  0  0  0
   -2.8678    2.1959   -0.7053 C   0  0  0  0  0  0  0  0  0  0  0  0
   -3.8784    1.3166   -1.0055 C   0  0  0  0  0  0  0  0  0  0  0  0
   -5.2181    1.8165   -2.0440 Cl  0  0  0  0  0  0  0  0  0  0  0  0
   -3.8598    0.0313   -0.4997 C   0  0  0  0  0  0  0  0  0  0  0  0
   -4.9454   -0.8493   -0.8473 N   0  0  0  0  0  4  0  0  0  0  0  0
   -4.6879   -2.0650   -0.8543 O   0  0  0  0  0  0  0  0  0  0  0  0
   -6.1920   -0.4204   -1.1563 O   0  0  0  0  0  1  0  0  0  0  0  0
   -2.8447   -0.4252    0.3168 C   0  0  0  0  0  0  0  0  0  0  0  0
    1.4130    0.1954    0.3624 C   0  0  0  0  0  0  0  0  0  0  0  0
    1.4597    1.4367    0.5549 O   0  0  0  0  0  0  0  0  0  0  0  0
    6.6251    1.2982    0.5116 H   0  0  0  0  0  0  0  0  0  0  0  0
    3.2082    1.5475   -0.9497 H   0  0  0  0  0  0  0  0  0  0  0  0
    4.0529    0.1378   -1.6721 H   0  0  0  0  0  0  0  0  0  0  0  0
    3.4021   -2.0798   -1.1301 H   0  0  0  0  0  0  0  0  0  0  0  0
    1.5977   -3.5033   -0.3888 H   0  0  0  0  0  0  0  0  0  0  0  0
   -0.4155    0.8481    2.1255 H   0  0  0  0  0  0  0  0  0  0  0  0
   -1.1029   -0.7821    2.1850 H   0  0  0  0  0  0  0  0  0  0  0  0
   -1.0727    2.4608    0.3276 H   0  0  0  0  0  0  0  0  0  0  0  0
   -2.8791    3.1948   -1.0966 H   0  0  0  0  0  0  0  0  0  0  0  0
   -2.8812   -1.4557    0.6910 H   0  0  0  0  0  0  0  0  0  0  0  0
  1  2  2  0
  2  3  1  0
  2  4  1  0
  4  5  1  0
  5  6  1  0
  6  7  2  0
  7  8  1  0
  8  9  2  0
  8 10  1  0
 10 11  1  0
 11 12  1  0
 12 13  2  0
 13 14  1  0
 14 15  2  0
 15 16  1  0
 15 17  1  0
 17 18  1  0
 18 19  2  0
 18 20  1  0
 17 21  2  0
 10 22  1  0
 22 23  2  0
 22  5  1  0
 21 12  1  0
  3 24  1  0
  4 25  1  0
  4 26  1  0
  6 27  1  0
  7 28  1  0
 11 29  1  0
 11 30  1  0
 13 31  1  0
 14 32  1  0
 21 33  1  0
M  CHG  2  18   1  20  -1
M  END
$$$$
