
     RDKit          3D

 35 36  0  0  0  0  0  0  0  0999 V2000
    6.7397    0.1865    0.2940 N   0  0  0  0  0  0  0  0  0  0  0  0
    5.7640   -0.3529    1.6049 S   0  0  0  0  0  0  0  0  0  0  0  0
    6.0095   -1.8006    1.8864 O   0  0  0  0  0  0  0  0  0  0  0  0
    6.0701    0.4165    2.8712 O   0  0  0  0  0  0  0  0  0  0  0  0
    4.0754   -0.1799    1.1672 C   0  0  0  0  0  0  0  0  0  0  0  0
    3.3668    0.9731    1.4264 C   0  0  0  0  0  0  0  0  0  0  0  0
    2.0296    1.1591    1.0999 C   0  0  0  0  0  0  0  0  0  0  0  0
    1.4379    0.0973    0.4863 C   0  0  0  0  0  0  0  0  0  0  0  0
    0.0755    0.2096    0.1220 N   0  0  0  0  0  0  0  0  0  0  0  0
   -0.7730   -0.7336   -0.5203 C   0  0  0  0  0  0  0  0  0  0  0  0
   -0.7108   -2.2484   -1.1226 S   0  0  0  0  0  0  0  0  0  0  0  0
   -2.1069   -0.6668   -0.8947 O   0  0  0  0  0  0  0  0  0  0  0  0
   -2.5509    0.2889   -1.8538 C   0  0  0  0  0  0  0  0  0  0  0  0
   -4.0345    0.0834   -2.0199 C   0  0  0  0  0  0  0  0  0  0  0  0
   -4.7680    0.2792   -0.7437 C   0  0  0  0  0  0  0  0  0  0  0  0
   -5.2695    1.5743   -0.3702 C   0  0  0  0  0  0  0  0  0  0  0  0
   -6.1027    1.2548    1.2985 S   0  0  0  0  0  0  0  0  0  0  0  0
   -5.6870   -0.5012    1.2787 C   0  0  0  0  0  0  0  0  0  0  0  0
   -5.0177   -0.7236    0.1415 C   0  0  0  0  0  0  0  0  0  0  0  0
    2.1070   -1.0753    0.2072 C   0  0  0  0  0  0  0  0  0  0  0  0
    3.4361   -1.2314    0.5435 C   0  0  0  0  0  0  0  0  0  0  0  0
    7.7383    0.1389    0.5328 H   0  0  0  0  0  0  0  0  0  0  0  0
    6.4082    1.1165   -0.0271 H   0  0  0  0  0  0  0  0  0  0  0  0
    3.8764    1.8127    1.9241 H   0  0  0  0  0  0  0  0  0  0  0  0
    1.4732    2.0502    1.2976 H   0  0  0  0  0  0  0  0  0  0  0  0
   -0.4939    1.0630    0.3003 H   0  0  0  0  0  0  0  0  0  0  0  0
   -2.2877    1.3059   -1.5483 H   0  0  0  0  0  0  0  0  0  0  0  0
   -2.0134    0.0407   -2.7868 H   0  0  0  0  0  0  0  0  0  0  0  0
   -4.4049    0.8074   -2.7696 H   0  0  0  0  0  0  0  0  0  0  0  0
   -4.2333   -0.9155   -2.4422 H   0  0  0  0  0  0  0  0  0  0  0  0
   -5.1111    2.4888   -1.0495 H   0  0  0  0  0  0  0  0  0  0  0  0
   -6.0063   -1.0970    2.1191 H   0  0  0  0  0  0  0  0  0  0  0  0
   -4.7046   -1.7462   -0.0006 H   0  0  0  0  0  0  0  0  0  0  0  0
    1.6743   -1.9395   -0.2775 H   0  0  0  0  0  0  0  0  0  0  0  0
    3.9943   -2.1351    0.3412 H   0  0  0  0  0  0  0  0  0  0  0  0
  1  2  1  0
  2  3  2  0
  2  4  2  0
  2  5  1  0
  5  6  2  0
  6  7  1  0
  7  8  2  0
  8  9  1  0
  9 10  1  0
 10 11  2  0
 10 12  1  0
 12 13  1  0
 13 14  1  0
 14 15  1  0
 15 16  2  0
 16 17  1  0
 17 18  1  0
 18 19  2  0
  8 20  1  0
 20 21  2  0
 21  5  1  0
 19 15  1  0
  1 22  1  0
  1 23  1  0
  6 24  1  0
  7 25  1  0
  9 26  1  0
 13 27  1  0
 13 28  1  0
 14 29  1  0
 14 30  1  0
 16 31  1  0
 18 32  1  0
 19 33  1  0
 20 34  1  0
 21 35  1  0
M  END
$$$$
