
     RDKit          3D

 16 15  0  0  0  0  0  0  0  0999 V2000
    2.9856   -0.1405   -0.1926 O   0  0  0  0  0  0  0  0  0  0  0  0
    1.8246    0.6150    0.0618 C   0  0  0  0  0  0  0  0  0  0  0  0
    0.6433   -0.3198   -0.0795 C   0  0  0  0  0  0  0  0  0  0  0  0
   -0.6804    0.3678    0.1697 C   0  0  0  0  0  0  0  0  0  0  0  0
   -1.8260   -0.6330    0.0105 C   0  0  0  0  0  0  0  0  0  0  0  0
   -3.0472   -0.0453    0.2294 O   0  0  0  0  0  0  0  0  0  0  0  0
    2.8443   -0.8245   -0.8831 H   0  0  0  0  0  0  0  0  0  0  0  0
    1.9249    0.9729    1.1122 H   0  0  0  0  0  0  0  0  0  0  0  0
    1.8112    1.4811   -0.5910 H   0  0  0  0  0  0  0  0  0  0  0  0
    0.7769   -1.0982    0.7030 H   0  0  0  0  0  0  0  0  0  0  0  0
    0.6825   -0.7955   -1.0772 H   0  0  0  0  0  0  0  0  0  0  0  0
   -0.7410    0.8310    1.1548 H   0  0  0  0  0  0  0  0  0  0  0  0
   -0.8297    1.1549   -0.6002 H   0  0  0  0  0  0  0  0  0  0  0  0
   -1.6639   -1.4635    0.7552 H   0  0  0  0  0  0  0  0  0  0  0  0
   -1.7865   -1.0206   -1.0317 H   0  0  0  0  0  0  0  0  0  0  0  0
   -2.9186    0.9182    0.4129 H   0  0  0  0  0  0  0  0  0  0  0  0
  1  2  1  0
  2  3  1  0
  3  4  1  0
  4  5  1  0
  5  6  1  0
  1  7  1  0
  2  8  1  0
  2  9  1  0
  3 10  1  0
  3 11  1  0
  4 12  1  0
  4 13  1  0
  5 14  1  0
  5 15  1  0
  6 16  1  0
M  END
$$$$
