
     RDKit          3D

 63 66  0  0  0  0  0  0  0  0999 V2000
    4.0277   -0.2035   -2.9421 C   0  0  0  0  0  0  0  0  0  0  0  0
    4.4207    0.0186   -1.5120 C   0  0  0  0  0  0  0  0  0  0  0  0
    3.5332    0.1995   -0.4507 C   0  0  0  0  0  0  0  0  0  0  0  0
    2.0805    0.1616   -0.6612 C   0  0  0  0  0  0  0  0  0  0  0  0
    1.4042    1.1783   -0.4028 O   0  0  0  0  0  0  0  0  0  0  0  0
    1.4299   -0.9915   -1.1471 N   0  0  0  0  0  0  0  0  0  0  0  0
    0.0470   -1.1744   -1.4067 C   0  0  0  0  0  0  0  0  0  0  0  0
   -0.8687   -0.9782   -0.2221 C   0  0  0  0  0  0  0  0  0  0  0  0
   -2.2950   -1.2853   -0.6862 C   0  0  0  0  0  0  0  0  0  0  0  0
   -3.2862   -1.1341    0.3057 N   0  0  0  0  0  0  0  0  0  0  0  0
   -3.4979    0.2519    0.6239 C   0  0  0  0  0  0  0  0  0  0  0  0
   -4.7182    0.7478   -0.1779 C   0  0  0  0  0  0  0  0  0  0  0  0
   -5.8541    0.0354    0.3436 N   0  0  0  0  0  0  0  0  0  0  0  0
   -7.1280    0.6340    0.5044 C   0  0  0  0  0  0  0  0  0  0  0  0
   -7.7700    0.6853    1.7319 C   0  0  0  0  0  0  0  0  0  0  0  0
   -9.0164    1.2610    1.8802 C   0  0  0  0  0  0  0  0  0  0  0  0
   -9.6477    1.7964    0.8076 C   0  0  0  0  0  0  0  0  0  0  0  0
   -9.0416    1.7655   -0.4286 C   0  0  0  0  0  0  0  0  0  0  0  0
   -9.8991    2.4679   -1.7672 Cl  0  0  0  0  0  0  0  0  0  0  0  0
   -7.7866    1.1853   -0.5736 C   0  0  0  0  0  0  0  0  0  0  0  0
   -7.0348    1.1557   -2.1496 Cl  0  0  0  0  0  0  0  0  0  0  0  0
   -5.6891   -1.3497    0.7200 C   0  0  0  0  0  0  0  0  0  0  0  0
   -4.4649   -1.8689    0.0002 C   0  0  0  0  0  0  0  0  0  0  0  0
    4.3013    0.3670    0.6489 C   0  0  0  0  0  0  0  0  0  0  0  0
    5.6239    0.2883    0.2582 C   0  0  0  0  0  0  0  0  0  0  0  0
    6.8260    0.3989    1.1025 C   0  0  0  0  0  0  0  0  0  0  0  0
    7.9107    1.1507    0.7149 C   0  0  0  0  0  0  0  0  0  0  0  0
    9.0547    1.2535    1.5018 C   0  0  0  0  0  0  0  0  0  0  0  0
    9.1041    0.5772    2.7182 C   0  0  0  0  0  0  0  0  0  0  0  0
    8.0265   -0.1758    3.1153 C   0  0  0  0  0  0  0  0  0  0  0  0
    6.8939   -0.2588    2.3027 C   0  0  0  0  0  0  0  0  0  0  0  0
    5.6905    0.0733   -1.0800 N   0  0  0  0  0  0  0  0  0  0  0  0
    6.9080   -0.0739   -1.8920 C   0  0  0  0  0  0  0  0  0  0  0  0
    4.5304    0.6128   -3.5202 H   0  0  0  0  0  0  0  0  0  0  0  0
    4.4656   -1.1687   -3.2183 H   0  0  0  0  0  0  0  0  0  0  0  0
    2.9379   -0.1691   -3.0611 H   0  0  0  0  0  0  0  0  0  0  0  0
    2.0980   -1.8124   -1.3359 H   0  0  0  0  0  0  0  0  0  0  0  0
   -0.1506   -2.1996   -1.7776 H   0  0  0  0  0  0  0  0  0  0  0  0
   -0.3302   -0.5077   -2.2380 H   0  0  0  0  0  0  0  0  0  0  0  0
   -0.8121    0.0236    0.2163 H   0  0  0  0  0  0  0  0  0  0  0  0
   -0.6550   -1.6977    0.5907 H   0  0  0  0  0  0  0  0  0  0  0  0
   -2.2352   -2.3392   -1.0849 H   0  0  0  0  0  0  0  0  0  0  0  0
   -2.4537   -0.6356   -1.5927 H   0  0  0  0  0  0  0  0  0  0  0  0
   -3.6861    0.3942    1.7106 H   0  0  0  0  0  0  0  0  0  0  0  0
   -2.6558    0.8721    0.2631 H   0  0  0  0  0  0  0  0  0  0  0  0
   -4.5328    0.3989   -1.2322 H   0  0  0  0  0  0  0  0  0  0  0  0
   -4.7859    1.8337   -0.1496 H   0  0  0  0  0  0  0  0  0  0  0  0
   -7.2307    0.2416    2.5734 H   0  0  0  0  0  0  0  0  0  0  0  0
   -9.4833    1.2726    2.8674 H   0  0  0  0  0  0  0  0  0  0  0  0
  -10.6269    2.2378    0.9597 H   0  0  0  0  0  0  0  0  0  0  0  0
   -5.6444   -1.5039    1.8076 H   0  0  0  0  0  0  0  0  0  0  0  0
   -6.5683   -1.8845    0.3147 H   0  0  0  0  0  0  0  0  0  0  0  0
   -4.3039   -2.9587    0.2073 H   0  0  0  0  0  0  0  0  0  0  0  0
   -4.6593   -1.8030   -1.0814 H   0  0  0  0  0  0  0  0  0  0  0  0
    3.9221    0.5332    1.6509 H   0  0  0  0  0  0  0  0  0  0  0  0
    7.9257    1.6931   -0.2184 H   0  0  0  0  0  0  0  0  0  0  0  0
    9.9171    1.8373    1.2096 H   0  0  0  0  0  0  0  0  0  0  0  0
    9.9945    0.6405    3.3581 H   0  0  0  0  0  0  0  0  0  0  0  0
    8.0610   -0.7112    4.0760 H   0  0  0  0  0  0  0  0  0  0  0  0
    6.0646   -0.8555    2.6384 H   0  0  0  0  0  0  0  0  0  0  0  0
    6.7444   -0.8738   -2.6698 H   0  0  0  0  0  0  0  0  0  0  0  0
    7.7010   -0.4728   -1.2332 H   0  0  0  0  0  0  0  0  0  0  0  0
    7.1671    0.8430   -2.4359 H   0  0  0  0  0  0  0  0  0  0  0  0
  1  2  1  0
  2  3  2  0
  3  4  1  0
  4  5  2  0
  4  6  1  0
  6  7  1  0
  7  8  1  0
  8  9  1  0
  9 10  1  0
 10 11  1  0
 11 12  1  0
 12 13  1  0
 13 14  1  0
 14 15  2  0
 15 16  1  0
 16 17  2  0
 17 18  1  0
 18 19  1  0
 18 20  2  0
 20 21  1  0
 13 22  1  0
 22 23  1  0
  3 24  1  0
 24 25  2  0
 25 26  1  0
 26 27  2  0
 27 28  1  0
 28 29  2  0
 29 30  1  0
 30 31  2  0
 25 32  1  0
 32 33  1  0
 32  2  1  0
 23 10  1  0
 31 26  1  0
 20 14  1  0
  1 34  1  0
  1 35  1  0
  1 36  1  0
  6 37  1  0
  7 38  1  0
  7 39  1  0
  8 40  1  0
  8 41  1  0
  9 42  1  0
  9 43  1  0
 11 44  1  0
 11 45  1  0
 12 46  1  0
 12 47  1  0
 15 48  1  0
 16 49  1  0
 17 50  1  0
 22 51  1  0
 22 52  1  0
 23 53  1  0
 23 54  1  0
 24 55  1  0
 27 56  1  0
 28 57  1  0
 29 58  1  0
 30 59  1  0
 31 60  1  0
 33 61  1  0
 33 62  1  0
 33 63  1  0
M  END
$$$$
