
     RDKit          3D

 35 36  0  0  0  0  0  0  0  0999 V2000
    7.0693   -0.2327   -0.6279 C   0  0  0  0  0  0  0  0  0  0  0  0
    6.0629   -1.0221   -0.0609 O   0  0  0  0  0  0  0  0  0  0  0  0
    4.7176   -0.7300   -0.0666 C   0  0  0  0  0  0  0  0  0  0  0  0
    4.1723    0.3926   -0.6378 C   0  0  0  0  0  0  0  0  0  0  0  0
    2.8103    0.6103   -0.5994 C   0  0  0  0  0  0  0  0  0  0  0  0
    1.9342   -0.2713    0.0042 C   0  0  0  0  0  0  0  0  0  0  0  0
    0.4912   -0.0129    0.0295 C   0  0  0  0  0  0  0  0  0  0  0  0
   -0.4365   -1.0317    0.0204 C   0  0  0  0  0  0  0  0  0  0  0  0
   -1.7963   -0.7118    0.0461 C   0  0  0  0  0  0  0  0  0  0  0  0
   -2.2492    0.5822    0.0804 C   0  0  0  0  0  0  0  0  0  0  0  0
   -3.6445    0.9617    0.1080 C   0  0  0  0  0  0  0  0  0  0  0  0
   -4.6281    0.0891    0.1023 C   0  0  0  0  0  0  0  0  0  0  0  0
   -6.0438    0.5282    0.1315 C   0  0  0  0  0  0  0  0  0  0  0  0
   -6.3132    1.7543    0.1626 O   0  0  0  0  0  0  0  0  0  0  0  0
   -7.1055   -0.3984    0.1253 N   0  0  0  0  0  0  0  0  0  0  0  0
   -8.4125   -0.0227    0.1515 O   0  0  0  0  0  0  0  0  0  0  0  0
   -1.3035    1.6164    0.0896 C   0  0  0  0  0  0  0  0  0  0  0  0
    0.0103    1.2796    0.0642 C   0  0  0  0  0  0  0  0  0  0  0  0
    2.4825   -1.3996    0.5783 C   0  0  0  0  0  0  0  0  0  0  0  0
    3.8519   -1.6168    0.5387 C   0  0  0  0  0  0  0  0  0  0  0  0
    7.2371   -0.4429   -1.7045 H   0  0  0  0  0  0  0  0  0  0  0  0
    8.0252   -0.4719   -0.0844 H   0  0  0  0  0  0  0  0  0  0  0  0
    6.8991    0.8505   -0.5300 H   0  0  0  0  0  0  0  0  0  0  0  0
    4.8307    1.0990   -1.1162 H   0  0  0  0  0  0  0  0  0  0  0  0
    2.3595    1.5042   -1.0525 H   0  0  0  0  0  0  0  0  0  0  0  0
   -0.0993   -2.0582   -0.0062 H   0  0  0  0  0  0  0  0  0  0  0  0
   -2.4711   -1.5395    0.0375 H   0  0  0  0  0  0  0  0  0  0  0  0
   -3.9244    2.0037    0.1351 H   0  0  0  0  0  0  0  0  0  0  0  0
   -4.3766   -0.9567    0.0756 H   0  0  0  0  0  0  0  0  0  0  0  0
   -6.9146   -1.4138    0.1001 H   0  0  0  0  0  0  0  0  0  0  0  0
   -8.4157    0.9483    0.4277 H   0  0  0  0  0  0  0  0  0  0  0  0
   -1.6239    2.6567    0.1164 H   0  0  0  0  0  0  0  0  0  0  0  0
    0.7436    2.0791    0.0716 H   0  0  0  0  0  0  0  0  0  0  0  0
    1.8028   -2.1029    1.0576 H   0  0  0  0  0  0  0  0  0  0  0  0
    4.2580   -2.5201    1.0021 H   0  0  0  0  0  0  0  0  0  0  0  0
  1  2  1  0
  2  3  1  0
  3  4  2  0
  4  5  1  0
  5  6  2  0
  6  7  1  0
  7  8  2  0
  8  9  1  0
  9 10  2  0
 10 11  1  0
 11 12  2  0
 12 13  1  0
 13 14  2  0
 13 15  1  0
 15 16  1  0
 10 17  1  0
 17 18  2  0
  6 19  1  0
 19 20  2  0
 20  3  1  0
 18  7  1  0
  1 21  1  0
  1 22  1  0
  1 23  1  0
  4 24  1  0
  5 25  1  0
  8 26  1  0
  9 27  1  0
 11 28  1  0
 12 29  1  0
 15 30  1  0
 16 31  1  0
 17 32  1  0
 18 33  1  0
 19 34  1  0
 20 35  1  0
M  END
$$$$
