
     RDKit          3D

 44 48  0  0  0  0  0  0  0  0999 V2000
    0.3758   -2.0653   -1.0855 C   0  0  2  0  0  0  0  0  0  0  0  0
    1.6995   -1.5662   -1.3425 O   0  0  0  0  0  0  0  0  0  0  0  0
    1.9359   -0.4670   -0.5304 C   0  0  0  0  0  0  0  0  0  0  0  0
    3.0055    0.1974    0.0369 C   0  0  0  0  0  0  0  0  0  0  0  0
    4.2586   -0.3078   -0.2239 O   0  0  0  0  0  0  0  0  0  0  0  0
    5.4670    0.2290    0.2629 C   0  0  0  0  0  0  0  0  0  0  0  0
    2.7478    1.3111    0.8186 C   0  0  0  0  0  0  0  0  0  0  0  0
    1.4537    1.7752    1.0464 C   0  0  0  0  0  0  0  0  0  0  0  0
    0.3890    1.1324    0.4951 C   0  0  0  0  0  0  0  0  0  0  0  0
    0.6786    0.0426   -0.2668 C   0  0  0  0  0  0  0  0  0  0  0  0
   -0.3744   -0.7761   -0.9440 C   0  0  1  0  0  0  0  0  0  0  0  0
   -0.7365   -0.2028   -2.2751 C   0  0  0  0  0  0  0  0  0  0  0  0
   -1.3974    1.1366   -2.1469 C   0  0  0  0  0  0  0  0  0  0  0  0
   -2.4553    1.0743   -1.1700 N   0  0  0  0  0  0  0  0  0  0  0  0
   -3.2702    2.2548   -1.1337 C   0  0  0  0  0  0  0  0  0  0  0  0
   -2.0023    0.6424    0.1319 C   0  0  2  0  0  0  0  0  0  0  0  0
   -1.0035    1.5865    0.7076 C   0  0  0  0  0  0  0  0  0  0  0  0
   -1.5390   -0.7769   -0.0288 C   0  0  1  0  0  0  0  0  0  0  0  0
   -2.5917   -1.4473   -0.6876 O   0  0  0  0  0  0  0  0  0  0  0  0
   -1.3142   -1.5168    1.2467 C   0  0  0  0  0  0  0  0  0  0  0  0
   -0.9555   -2.9441    0.8576 C   0  0  0  0  0  0  0  0  0  0  0  0
    0.3626   -2.8757    0.1617 C   0  0  0  0  0  0  0  0  0  0  0  0
    1.3301   -3.4620    0.6261 O   0  0  0  0  0  0  0  0  0  0  0  0
   -0.0220   -2.6036   -1.9691 H   0  0  0  0  0  0  0  0  0  0  0  0
    6.1218   -0.6574    0.4916 H   0  0  0  0  0  0  0  0  0  0  0  0
    5.9792    0.8277   -0.5288 H   0  0  0  0  0  0  0  0  0  0  0  0
    5.3589    0.7864    1.2021 H   0  0  0  0  0  0  0  0  0  0  0  0
    3.6084    1.8325    1.2656 H   0  0  0  0  0  0  0  0  0  0  0  0
    1.2965    2.6618    1.6727 H   0  0  0  0  0  0  0  0  0  0  0  0
    0.2063   -0.0723   -2.8598 H   0  0  0  0  0  0  0  0  0  0  0  0
   -1.4266   -0.9096   -2.7658 H   0  0  0  0  0  0  0  0  0  0  0  0
   -0.6830    1.9692   -1.9799 H   0  0  0  0  0  0  0  0  0  0  0  0
   -1.8923    1.3554   -3.1253 H   0  0  0  0  0  0  0  0  0  0  0  0
   -2.8757    3.0581   -1.7974 H   0  0  0  0  0  0  0  0  0  0  0  0
   -3.4340    2.6290   -0.0920 H   0  0  0  0  0  0  0  0  0  0  0  0
   -4.2696    1.9819   -1.5323 H   0  0  0  0  0  0  0  0  0  0  0  0
   -2.9075    0.6785    0.7878 H   0  0  0  0  0  0  0  0  0  0  0  0
   -1.1276    2.5750    0.2480 H   0  0  0  0  0  0  0  0  0  0  0  0
   -1.1270    1.7061    1.8039 H   0  0  0  0  0  0  0  0  0  0  0  0
   -3.4600   -1.2604   -0.2506 H   0  0  0  0  0  0  0  0  0  0  0  0
   -0.4957   -1.0831    1.8742 H   0  0  0  0  0  0  0  0  0  0  0  0
   -2.2751   -1.5523    1.8014 H   0  0  0  0  0  0  0  0  0  0  0  0
   -0.9457   -3.6323    1.7168 H   0  0  0  0  0  0  0  0  0  0  0  0
   -1.6936   -3.2643    0.0889 H   0  0  0  0  0  0  0  0  0  0  0  0
  1  2  1  0
  2  3  1  0
  3  4  2  0
  4  5  1  0
  5  6  1  0
  4  7  1  0
  7  8  2  0
  8  9  1  0
  9 10  2  0
 10 11  1  0
 11 12  1  6
 12 13  1  0
 13 14  1  0
 14 15  1  0
 14 16  1  0
 16 17  1  0
 16 18  1  0
 18 19  1  6
 18 20  1  0
 20 21  1  0
 21 22  1  0
 22 23  2  0
 11  1  1  0
 18 11  1  0
 22  1  1  0
 10  3  1  0
 17  9  1  0
  1 24  1  6
  6 25  1  0
  6 26  1  0
  6 27  1  0
  7 28  1  0
  8 29  1  0
 12 30  1  0
 12 31  1  0
 13 32  1  0
 13 33  1  0
 15 34  1  0
 15 35  1  0
 15 36  1  0
 16 37  1  1
 17 38  1  0
 17 39  1  0
 19 40  1  0
 20 41  1  0
 20 42  1  0
 21 43  1  0
 21 44  1  0
M  END
$$$$
