
     RDKit          3D

 69 72  0  0  0  0  0  0  0  0999 V2000
   -0.2650   -0.7194    3.8343 C   0  0  0  0  0  0  0  0  0  0  0  0
   -0.1752    0.4421    2.8338 C   0  0  1  0  0  0  0  0  0  0  0  0
    1.1389    0.4318    2.1686 C   0  0  0  0  0  0  0  0  0  0  0  0
    2.1831   -0.3328    2.6455 C   0  0  0  0  0  0  0  0  0  0  0  0
    3.3982   -0.3182    1.9929 C   0  0  0  0  0  0  0  0  0  0  0  0
    3.6115    0.4576    0.8459 C   0  0  0  0  0  0  0  0  0  0  0  0
    4.9361    0.3895    0.2430 C   0  0  0  0  0  0  0  0  0  0  0  0
    5.7387   -0.7331    0.2655 C   0  0  0  0  0  0  0  0  0  0  0  0
    6.9908   -0.7288   -0.3295 C   0  0  0  0  0  0  0  0  0  0  0  0
    7.4819    0.3551   -0.9513 N   0  0  0  0  0  0  0  0  0  0  0  0
    8.7884    0.3757   -1.5782 C   0  0  0  0  0  0  0  0  0  0  0  0
    8.5713   -0.0720   -3.0262 C   0  0  0  0  0  0  0  0  0  0  0  0
    9.8103   -0.0575   -3.6372 F   0  0  0  0  0  0  0  0  0  0  0  0
    6.7212    1.4601   -0.9874 C   0  0  0  0  0  0  0  0  0  0  0  0
    7.1679    2.4987   -1.5719 O   0  0  0  0  0  0  0  0  0  0  0  0
    5.4553    1.4940   -0.3996 C   0  0  0  0  0  0  0  0  0  0  0  0
    2.5777    1.2063    0.3848 C   0  0  0  0  0  0  0  0  0  0  0  0
    1.3509    1.1898    1.0460 C   0  0  0  0  0  0  0  0  0  0  0  0
   -1.2878    0.3434    1.9310 N   0  0  0  0  0  0  0  0  0  0  0  0
   -1.4481   -0.7434    0.9840 C   0  0  0  0  0  0  0  0  0  0  0  0
   -2.1531   -0.1570   -0.2159 C   0  0  0  0  0  0  0  0  0  0  0  0
   -3.5671    0.1991    0.1177 C   0  0  2  0  0  0  0  0  0  0  0  0
   -4.3903   -0.9472    0.5728 C   0  0  0  0  0  0  0  0  0  0  0  0
   -4.5598   -2.1040   -0.3232 C   0  0  0  0  0  0  0  0  0  0  0  0
   -5.2139   -1.7607   -1.6190 C   0  0  0  0  0  0  0  0  0  0  0  0
   -5.5146   -3.0787    0.3890 C   0  0  0  0  0  0  0  0  0  0  0  0
   -3.3884   -2.8422   -0.5152 O   0  0  0  0  0  0  0  0  0  0  0  0
   -4.2134    1.0531   -0.9041 C   0  0  0  0  0  0  0  0  0  0  0  0
   -5.5165    1.4809   -0.7975 C   0  0  0  0  0  0  0  0  0  0  0  0
   -6.1405    2.2892   -1.7243 C   0  0  0  0  0  0  0  0  0  0  0  0
   -5.4312    2.7078   -2.8377 C   0  0  0  0  0  0  0  0  0  0  0  0
   -4.1274    2.2906   -2.9619 C   0  0  0  0  0  0  0  0  0  0  0  0
   -3.5055    1.4790   -2.0285 C   0  0  0  0  0  0  0  0  0  0  0  0
   -3.4849    1.0726    1.2807 O   0  0  0  0  0  0  0  0  0  0  0  0
   -2.3034    1.3389    1.9305 C   0  0  0  0  0  0  0  0  0  0  0  0
   -2.0802    2.4308    2.5281 O   0  0  0  0  0  0  0  0  0  0  0  0
   -1.3253   -0.8762    4.1141 H   0  0  0  0  0  0  0  0  0  0  0  0
    0.1012   -1.6603    3.4014 H   0  0  0  0  0  0  0  0  0  0  0  0
    0.2964   -0.4912    4.7527 H   0  0  0  0  0  0  0  0  0  0  0  0
   -0.2498    1.3520    3.4609 H   0  0  0  0  0  0  0  0  0  0  0  0
    2.0091   -0.9348    3.5399 H   0  0  0  0  0  0  0  0  0  0  0  0
    4.2065   -0.9210    2.3770 H   0  0  0  0  0  0  0  0  0  0  0  0
    5.3589   -1.6180    0.7633 H   0  0  0  0  0  0  0  0  0  0  0  0
    7.6059   -1.6362   -0.2955 H   0  0  0  0  0  0  0  0  0  0  0  0
    9.4523   -0.2977   -1.0395 H   0  0  0  0  0  0  0  0  0  0  0  0
    9.1543    1.4199   -1.5457 H   0  0  0  0  0  0  0  0  0  0  0  0
    8.0794   -1.0436   -3.0462 H   0  0  0  0  0  0  0  0  0  0  0  0
    7.9366    0.6643   -3.5510 H   0  0  0  0  0  0  0  0  0  0  0  0
    4.8583    2.3935   -0.4396 H   0  0  0  0  0  0  0  0  0  0  0  0
    2.7256    1.8098   -0.4981 H   0  0  0  0  0  0  0  0  0  0  0  0
    0.5210    1.7878    0.6797 H   0  0  0  0  0  0  0  0  0  0  0  0
   -0.4713   -1.1975    0.7089 H   0  0  0  0  0  0  0  0  0  0  0  0
   -2.0050   -1.5345    1.5010 H   0  0  0  0  0  0  0  0  0  0  0  0
   -2.0450   -0.7649   -1.1229 H   0  0  0  0  0  0  0  0  0  0  0  0
   -1.6238    0.8179   -0.4250 H   0  0  0  0  0  0  0  0  0  0  0  0
   -4.0105   -1.3201    1.5503 H   0  0  0  0  0  0  0  0  0  0  0  0
   -5.4229   -0.5640    0.8213 H   0  0  0  0  0  0  0  0  0  0  0  0
   -5.4673   -2.7046   -2.1912 H   0  0  0  0  0  0  0  0  0  0  0  0
   -4.5168   -1.1656   -2.2375 H   0  0  0  0  0  0  0  0  0  0  0  0
   -6.1635   -1.2217   -1.4535 H   0  0  0  0  0  0  0  0  0  0  0  0
   -6.1519   -2.5124    1.0984 H   0  0  0  0  0  0  0  0  0  0  0  0
   -4.9319   -3.8008    0.9948 H   0  0  0  0  0  0  0  0  0  0  0  0
   -6.1191   -3.6373   -0.3544 H   0  0  0  0  0  0  0  0  0  0  0  0
   -3.6341   -3.7150   -0.9441 H   0  0  0  0  0  0  0  0  0  0  0  0
   -6.1311    1.1863    0.0579 H   0  0  0  0  0  0  0  0  0  0  0  0
   -7.1683    2.5992   -1.5965 H   0  0  0  0  0  0  0  0  0  0  0  0
   -5.9250    3.3409   -3.5600 H   0  0  0  0  0  0  0  0  0  0  0  0
   -3.6032    2.6454   -3.8585 H   0  0  0  0  0  0  0  0  0  0  0  0
   -2.4957    1.2093   -2.2129 H   0  0  0  0  0  0  0  0  0  0  0  0
  1  2  1  0
  2  3  1  0
  3  4  2  0
  4  5  1  0
  5  6  2  0
  6  7  1  0
  7  8  1  0
  8  9  2  0
  9 10  1  0
 10 11  1  0
 11 12  1  0
 12 13  1  0
 10 14  1  0
 14 15  2  0
 14 16  1  0
  6 17  1  0
 17 18  2  0
  2 19  1  0
 19 20  1  0
 20 21  1  0
 21 22  1  0
 22 23  1  1
 23 24  1  0
 24 25  1  0
 24 26  1  0
 24 27  1  0
 22 28  1  0
 28 29  2  0
 29 30  1  0
 30 31  2  0
 31 32  1  0
 32 33  2  0
 22 34  1  0
 34 35  1  0
 35 36  2  0
 18  3  1  0
 35 19  1  0
 16  7  2  0
 33 28  1  0
  1 37  1  0
  1 38  1  0
  1 39  1  0
  2 40  1  1
  4 41  1  0
  5 42  1  0
  8 43  1  0
  9 44  1  0
 11 45  1  0
 11 46  1  0
 12 47  1  0
 12 48  1  0
 16 49  1  0
 17 50  1  0
 18 51  1  0
 20 52  1  0
 20 53  1  0
 21 54  1  0
 21 55  1  0
 23 56  1  0
 23 57  1  0
 25 58  1  0
 25 59  1  0
 25 60  1  0
 26 61  1  0
 26 62  1  0
 26 63  1  0
 27 64  1  0
 29 65  1  0
 30 66  1  0
 31 67  1  0
 32 68  1  0
 33 69  1  0
M  END
$$$$
