
     RDKit          3D

 60 62  0  0  0  0  0  0  0  0999 V2000
    0.2860   -2.1466   -2.0274 O   0  0  0  0  0  0  0  0  0  0  0  0
   -0.4937   -2.6630   -1.2022 C   0  0  0  0  0  0  0  0  0  0  0  0
   -1.0724   -1.9693   -0.0229 C   0  0  0  0  0  0  0  0  0  0  0  0
   -0.5167   -0.5579   -0.0338 C   0  0  1  0  0  0  0  0  0  0  0  0
   -1.0069    0.2727    1.0921 C   0  0  0  0  0  0  0  0  0  0  0  0
   -2.4832    0.4633    1.1628 C   0  0  0  0  0  0  0  0  0  0  0  0
   -3.0783    1.1275   -0.0354 C   0  0  0  0  0  0  0  0  0  0  0  0
   -4.5898    1.2977    0.0785 C   0  0  0  0  0  0  0  0  0  0  0  0
   -5.0420    1.9699   -1.1677 C   0  0  0  0  0  0  0  0  0  0  0  0
   -6.5141    1.9873   -1.3890 C   0  0  0  0  0  0  0  0  0  0  0  0
   -6.9777    0.5313   -1.3796 C   0  0  0  0  0  0  0  0  0  0  0  0
   -6.7279    0.0356    0.0240 C   0  0  0  0  0  0  0  0  0  0  0  0
   -5.2727   -0.0012    0.3837 C   0  0  0  0  0  0  0  0  0  0  0  0
    0.9670   -0.7390    0.1849 C   0  0  0  0  0  0  0  0  0  0  0  0
    1.9816   -0.5883   -0.6620 N   0  0  0  0  0  0  0  0  0  0  0  0
    3.1476   -0.8541   -0.0441 C   0  0  0  0  0  0  0  0  0  0  0  0
    4.5162   -0.8239   -0.6016 C   0  0  0  0  0  0  0  0  0  0  0  0
    4.8178   -1.6425   -1.5399 O   0  0  0  0  0  0  0  0  0  0  0  0
    5.5177    0.0541   -0.1624 N   0  0  0  0  0  0  0  0  0  0  0  0
    6.8309    0.0162   -0.7513 C   0  0  0  0  0  0  0  0  0  0  0  0
    7.9217    0.0285    0.2993 C   0  0  0  0  0  0  0  0  0  0  0  0
    7.7103    1.1492    1.2699 C   0  0  0  0  0  0  0  0  0  0  0  0
    6.4694    1.9399    1.0113 C   0  0  0  0  0  0  0  0  0  0  0  0
    5.2522    1.0090    0.8836 C   0  0  0  0  0  0  0  0  0  0  0  0
    2.8142   -1.1738    1.2168 N   0  0  0  0  0  0  0  0  0  0  0  0
    1.5097   -1.1015    1.3409 O   0  0  0  0  0  0  0  0  0  0  0  0
   -0.8468   -4.0233   -1.4227 N   0  0  0  0  0  0  0  0  0  0  0  0
   -0.3418   -4.7026   -2.4945 O   0  0  0  0  0  0  0  0  0  0  0  0
   -2.1842   -1.9855   -0.1835 H   0  0  0  0  0  0  0  0  0  0  0  0
   -0.8686   -2.4582    0.9315 H   0  0  0  0  0  0  0  0  0  0  0  0
   -0.6038   -0.1126   -1.0437 H   0  0  0  0  0  0  0  0  0  0  0  0
   -0.6066   -0.1475    2.0364 H   0  0  0  0  0  0  0  0  0  0  0  0
   -0.5027    1.2784    0.9962 H   0  0  0  0  0  0  0  0  0  0  0  0
   -2.9494   -0.5363    1.3097 H   0  0  0  0  0  0  0  0  0  0  0  0
   -2.6955    1.0315    2.1037 H   0  0  0  0  0  0  0  0  0  0  0  0
   -2.9110    0.4562   -0.9101 H   0  0  0  0  0  0  0  0  0  0  0  0
   -2.6737    2.1124   -0.2612 H   0  0  0  0  0  0  0  0  0  0  0  0
   -4.7891    1.9852    0.9333 H   0  0  0  0  0  0  0  0  0  0  0  0
   -4.5429    1.5270   -2.0349 H   0  0  0  0  0  0  0  0  0  0  0  0
   -4.7005    3.0391   -1.1133 H   0  0  0  0  0  0  0  0  0  0  0  0
   -6.7102    2.3643   -2.4139 H   0  0  0  0  0  0  0  0  0  0  0  0
   -7.0782    2.6021   -0.6658 H   0  0  0  0  0  0  0  0  0  0  0  0
   -6.3582   -0.0196   -2.0957 H   0  0  0  0  0  0  0  0  0  0  0  0
   -8.0324    0.4279   -1.6271 H   0  0  0  0  0  0  0  0  0  0  0  0
   -7.2260   -0.9188    0.2385 H   0  0  0  0  0  0  0  0  0  0  0  0
   -7.2065    0.7867    0.7104 H   0  0  0  0  0  0  0  0  0  0  0  0
   -5.2332   -0.1610    1.4945 H   0  0  0  0  0  0  0  0  0  0  0  0
   -4.8043   -0.8440   -0.1675 H   0  0  0  0  0  0  0  0  0  0  0  0
    6.9820   -0.8499   -1.4282 H   0  0  0  0  0  0  0  0  0  0  0  0
    6.9453    0.9462   -1.3616 H   0  0  0  0  0  0  0  0  0  0  0  0
    7.9899   -0.9694    0.7788 H   0  0  0  0  0  0  0  0  0  0  0  0
    8.8800    0.1868   -0.2278 H   0  0  0  0  0  0  0  0  0  0  0  0
    7.6357    0.7028    2.2943 H   0  0  0  0  0  0  0  0  0  0  0  0
    8.5710    1.8752    1.2457 H   0  0  0  0  0  0  0  0  0  0  0  0
    6.5905    2.5822    0.1202 H   0  0  0  0  0  0  0  0  0  0  0  0
    6.2625    2.5761    1.8947 H   0  0  0  0  0  0  0  0  0  0  0  0
    5.1114    0.5458    1.8830 H   0  0  0  0  0  0  0  0  0  0  0  0
    4.4112    1.6913    0.6320 H   0  0  0  0  0  0  0  0  0  0  0  0
   -1.4893   -4.5451   -0.7913 H   0  0  0  0  0  0  0  0  0  0  0  0
    0.0086   -4.0645   -3.1646 H   0  0  0  0  0  0  0  0  0  0  0  0
  1  2  2  0
  2  3  1  0
  3  4  1  0
  4  5  1  0
  5  6  1  0
  6  7  1  0
  7  8  1  0
  8  9  1  0
  9 10  1  0
 10 11  1  0
 11 12  1  0
 12 13  1  0
  4 14  1  0
 14 15  2  0
 15 16  1  0
 16 17  1  0
 17 18  2  0
 17 19  1  0
 19 20  1  0
 20 21  1  0
 21 22  1  0
 22 23  1  0
 23 24  1  0
 16 25  2  0
 25 26  1  0
  2 27  1  0
 27 28  1  0
 13  8  1  0
 26 14  1  0
 24 19  1  0
  3 29  1  0
  3 30  1  0
  4 31  1  6
  5 32  1  0
  5 33  1  0
  6 34  1  0
  6 35  1  0
  7 36  1  0
  7 37  1  0
  8 38  1  0
  9 39  1  0
  9 40  1  0
 10 41  1  0
 10 42  1  0
 11 43  1  0
 11 44  1  0
 12 45  1  0
 12 46  1  0
 13 47  1  0
 13 48  1  0
 20 49  1  0
 20 50  1  0
 21 51  1  0
 21 52  1  0
 22 53  1  0
 22 54  1  0
 23 55  1  0
 23 56  1  0
 24 57  1  0
 24 58  1  0
 27 59  1  0
 28 60  1  0
M  END
$$$$
