
     RDKit          3D

 97105  0  0  0  0  0  0  0  0999 V2000
   -2.3518   -0.4409   -0.7871 C   0  0  2  0  0  0  0  0  0  0  0  0
   -1.5206   -1.1870    0.1931 C   0  0  2  0  0  0  0  0  0  0  0  0
   -0.5291   -0.3606    1.3566 S   0  0  0  0  0  0  0  0  0  0  0  0
    1.2198   -0.4090    1.3459 C   0  0  0  0  0  0  0  0  0  0  0  0
    1.8661    0.4156    0.2875 C   0  0  1  0  0  0  0  0  0  0  0  0
    1.4124    1.8178    0.3497 N   0  0  0  0  0  0  0  0  0  0  0  0
    1.3662    2.2817    1.7095 C   0  0  0  0  0  0  0  0  0  0  0  0
    2.6940    2.2069    2.4289 C   0  0  0  0  0  0  0  0  0  0  0  0
    3.6071    1.3804    1.6110 C   0  0  0  0  0  0  0  0  0  0  0  0
    3.3571    0.4817    0.5843 C   0  0  0  0  0  0  0  0  0  0  0  0
    4.2990   -0.2291   -0.1158 C   0  0  0  0  0  0  0  0  0  0  0  0
    5.5850    0.0016    0.2629 C   0  0  0  0  0  0  0  0  0  0  0  0
    6.6699   -0.6048   -0.2961 O   0  0  0  0  0  0  0  0  0  0  0  0
    6.6585   -1.5975   -1.3082 C   0  0  0  0  0  0  0  0  0  0  0  0
    5.9768    0.8812    1.2808 C   0  0  0  0  0  0  0  0  0  0  0  0
    7.3204    1.0979    1.6480 O   0  0  0  0  0  0  0  0  0  0  0  0
    4.9654    1.5452    1.9277 C   0  0  0  0  0  0  0  0  0  0  0  0
    1.6247   -0.0965   -1.0457 C   0  0  0  0  0  0  0  0  0  0  0  0
    0.5937    0.3923   -1.4985 O   0  0  0  0  0  0  0  0  0  0  0  0
    1.4622   -0.6256   -2.3044 O   0  0  0  0  0  0  0  0  0  0  0  0
    0.4062   -0.3733   -3.1917 C   0  0  0  0  0  0  0  0  0  0  0  0
   -0.8751   -0.9318   -2.6269 C   0  0  2  0  0  0  0  0  0  0  0  0
   -1.6954    0.0210   -1.9790 N   0  0  0  0  0  0  0  0  0  0  0  0
   -2.8005    0.3177   -2.9184 C   0  0  1  0  0  0  0  0  0  0  0  0
   -3.5744   -0.8083   -3.0096 O   0  0  0  0  0  0  0  0  0  0  0  0
   -3.5129    1.5187   -2.3270 C   0  0  2  0  0  0  0  0  0  0  0  0
   -2.3891    2.4643   -1.9115 C   0  0  0  0  0  0  0  0  0  0  0  0
   -2.3010    2.6520   -0.4456 C   0  0  0  0  0  0  0  0  0  0  0  0
   -1.7874    3.8059    0.1175 C   0  0  0  0  0  0  0  0  0  0  0  0
   -1.6883    4.0813    1.4571 C   0  0  0  0  0  0  0  0  0  0  0  0
   -1.1273    5.3646    1.9437 C   0  0  0  0  0  0  0  0  0  0  0  0
   -2.1570    3.0917    2.3275 C   0  0  0  0  0  0  0  0  0  0  0  0
   -2.0982    3.2846    3.7047 O   0  0  0  0  0  0  0  0  0  0  0  0
   -3.1938    3.8800    4.3491 C   0  0  0  0  0  0  0  0  0  0  0  0
   -2.6964    1.8867    1.8653 C   0  0  0  0  0  0  0  0  0  0  0  0
   -3.1680    0.8981    2.7122 O   0  0  0  0  0  0  0  0  0  0  0  0
   -2.7417    1.7224    0.4764 C   0  0  0  0  0  0  0  0  0  0  0  0
   -3.3008    0.5175   -0.1780 C   0  0  1  0  0  0  0  0  0  0  0  0
   -4.2369    1.0756   -1.1550 N   0  0  0  0  0  0  0  0  0  0  0  0
   -5.0557    2.1343   -0.6053 C   0  0  0  0  0  0  0  0  0  0  0  0
   -0.5876   -2.1674   -1.8605 C   0  0  0  0  0  0  0  0  0  0  0  0
   -0.0050   -3.2117   -2.5913 C   0  0  0  0  0  0  0  0  0  0  0  0
    0.3918   -3.3251   -3.9283 O   0  0  0  0  0  0  0  0  0  0  0  0
    0.7178   -4.6605   -4.2154 C   0  0  0  0  0  0  0  0  0  0  0  0
    0.8567   -5.2776   -2.9458 O   0  0  0  0  0  0  0  0  0  0  0  0
    0.2890   -4.4367   -1.9829 C   0  0  0  0  0  0  0  0  0  0  0  0
    0.0084   -4.6422   -0.6371 C   0  0  0  0  0  0  0  0  0  0  0  0
    0.2836   -5.9179    0.0676 C   0  0  0  0  0  0  0  0  0  0  0  0
   -0.5536   -3.5623   -0.0258 C   0  0  0  0  0  0  0  0  0  0  0  0
   -0.8985   -3.6171    1.3531 O   0  0  0  0  0  0  0  0  0  0  0  0
    0.1654   -3.8460    2.2127 C   0  0  0  0  0  0  0  0  0  0  0  0
   -0.2979   -3.8636    3.6428 C   0  0  0  0  0  0  0  0  0  0  0  0
    1.4275   -4.0425    2.1158 O   0  0  0  0  0  0  0  0  0  0  0  0
   -0.8815   -2.3235   -0.5290 C   0  0  0  0  0  0  0  0  0  0  0  0
   -3.0659   -1.2653   -1.2104 H   0  0  0  0  0  0  0  0  0  0  0  0
   -2.3427   -1.7331    0.8361 H   0  0  0  0  0  0  0  0  0  0  0  0
    1.6102   -1.4855    1.2571 H   0  0  0  0  0  0  0  0  0  0  0  0
    1.5939   -0.1323    2.3728 H   0  0  0  0  0  0  0  0  0  0  0  0
    2.0704    2.4255   -0.1975 H   0  0  0  0  0  0  0  0  0  0  0  0
    1.0460    3.3310    1.7146 H   0  0  0  0  0  0  0  0  0  0  0  0
    0.6418    1.6250    2.2640 H   0  0  0  0  0  0  0  0  0  0  0  0
    3.0878    3.2417    2.5560 H   0  0  0  0  0  0  0  0  0  0  0  0
    2.5614    1.8130    3.4634 H   0  0  0  0  0  0  0  0  0  0  0  0
    4.0146   -0.9005   -0.8832 H   0  0  0  0  0  0  0  0  0  0  0  0
    6.6943   -2.5690   -0.7549 H   0  0  0  0  0  0  0  0  0  0  0  0
    7.5561   -1.4453   -1.9194 H   0  0  0  0  0  0  0  0  0  0  0  0
    5.7039   -1.5454   -1.8366 H   0  0  0  0  0  0  0  0  0  0  0  0
    7.8242    0.2429    1.9385 H   0  0  0  0  0  0  0  0  0  0  0  0
    5.2611    2.2370    2.7344 H   0  0  0  0  0  0  0  0  0  0  0  0
    0.2995    0.6993   -3.4852 H   0  0  0  0  0  0  0  0  0  0  0  0
    0.6738   -0.9592   -4.1260 H   0  0  0  0  0  0  0  0  0  0  0  0
   -1.4151   -1.3496   -3.5618 H   0  0  0  0  0  0  0  0  0  0  0  0
   -2.3868    0.5724   -3.9083 H   0  0  0  0  0  0  0  0  0  0  0  0
   -4.5527   -0.6550   -3.0638 H   0  0  0  0  0  0  0  0  0  0  0  0
   -4.2148    1.9589   -3.0308 H   0  0  0  0  0  0  0  0  0  0  0  0
   -1.3926    2.1366   -2.2675 H   0  0  0  0  0  0  0  0  0  0  0  0
   -2.5649    3.4409   -2.4168 H   0  0  0  0  0  0  0  0  0  0  0  0
   -1.4103    4.5892   -0.5689 H   0  0  0  0  0  0  0  0  0  0  0  0
   -0.6588    5.8635    1.0622 H   0  0  0  0  0  0  0  0  0  0  0  0
   -2.0140    6.0229    2.1854 H   0  0  0  0  0  0  0  0  0  0  0  0
   -0.4467    5.2917    2.7921 H   0  0  0  0  0  0  0  0  0  0  0  0
   -4.1553    3.3728    4.0878 H   0  0  0  0  0  0  0  0  0  0  0  0
   -2.9897    3.8283    5.4387 H   0  0  0  0  0  0  0  0  0  0  0  0
   -3.2176    4.9363    4.0279 H   0  0  0  0  0  0  0  0  0  0  0  0
   -2.5803    0.6265    3.5203 H   0  0  0  0  0  0  0  0  0  0  0  0
   -3.9706   -0.0545    0.5315 H   0  0  0  0  0  0  0  0  0  0  0  0
   -6.1038    1.8733   -0.4528 H   0  0  0  0  0  0  0  0  0  0  0  0
   -4.9187    3.0268   -1.2572 H   0  0  0  0  0  0  0  0  0  0  0  0
   -4.6448    2.4057    0.3862 H   0  0  0  0  0  0  0  0  0  0  0  0
   -0.0737   -5.1531   -4.8175 H   0  0  0  0  0  0  0  0  0  0  0  0
    1.6685   -4.6712   -4.7731 H   0  0  0  0  0  0  0  0  0  0  0  0
   -0.2155   -5.9743    1.0458 H   0  0  0  0  0  0  0  0  0  0  0  0
   -0.2459   -6.7024   -0.5553 H   0  0  0  0  0  0  0  0  0  0  0  0
    1.3537   -6.1878    0.0669 H   0  0  0  0  0  0  0  0  0  0  0  0
   -1.2274   -4.4133    3.7729 H   0  0  0  0  0  0  0  0  0  0  0  0
   -0.5135   -2.7866    3.9250 H   0  0  0  0  0  0  0  0  0  0  0  0
    0.4612   -4.2378    4.3403 H   0  0  0  0  0  0  0  0  0  0  0  0
  1  2  1  0
  2  3  1  0
  3  4  1  0
  4  5  1  0
  5  6  1  6
  6  7  1  0
  7  8  1  0
  8  9  1  0
  9 10  2  0
 10 11  1  0
 11 12  2  0
 12 13  1  0
 13 14  1  0
 12 15  1  0
 15 16  1  0
 15 17  2  0
  5 18  1  0
 18 19  2  0
 18 20  1  0
 20 21  1  0
 21 22  1  0
 22 23  1  0
 23 24  1  0
 24 25  1  0
 24 26  1  0
 26 27  1  0
 27 28  1  0
 28 29  2  0
 29 30  1  0
 30 31  1  0
 30 32  2  0
 32 33  1  0
 33 34  1  0
 32 35  1  0
 35 36  1  0
 35 37  2  0
 37 38  1  0
 38 39  1  0
 39 40  1  0
 22 41  1  0
 41 42  2  0
 42 43  1  0
 43 44  1  0
 44 45  1  0
 45 46  1  0
 46 47  2  0
 47 48  1  0
 47 49  1  0
 49 50  1  0
 50 51  1  0
 51 52  1  0
 51 53  2  0
 49 54  2  0
 23  1  1  0
 39 26  1  0
 54 41  1  0
 38  1  1  0
 46 42  1  0
 54  2  1  0
 10  5  1  0
 37 28  1  0
 17  9  1  0
  1 55  1  6
  2 56  1  1
  4 57  1  0
  4 58  1  0
  6 59  1  0
  7 60  1  0
  7 61  1  0
  8 62  1  0
  8 63  1  0
 11 64  1  0
 14 65  1  0
 14 66  1  0
 14 67  1  0
 16 68  1  0
 17 69  1  0
 21 70  1  0
 21 71  1  0
 22 72  1  6
 24 73  1  6
 25 74  1  0
 26 75  1  6
 27 76  1  0
 27 77  1  0
 29 78  1  0
 31 79  1  0
 31 80  1  0
 31 81  1  0
 34 82  1  0
 34 83  1  0
 34 84  1  0
 36 85  1  0
 38 86  1  1
 40 87  1  0
 40 88  1  0
 40 89  1  0
 44 90  1  0
 44 91  1  0
 48 92  1  0
 48 93  1  0
 48 94  1  0
 52 95  1  0
 52 96  1  0
 52 97  1  0
M  END
$$$$
