
     RDKit          3D

 62 63  0  0  0  0  0  0  0  0999 V2000
   -4.0760   -1.5439   -2.4259 C   0  0  0  0  0  0  0  0  0  0  0  0
   -3.5606   -1.9759   -1.0908 N   0  0  0  0  0  0  0  0  0  0  0  0
   -4.7858   -2.3113   -0.3737 C   0  0  0  0  0  0  0  0  0  0  0  0
   -2.8336   -0.8635   -0.5219 C   0  0  0  0  0  0  0  0  0  0  0  0
   -2.0454   -1.2575    0.6584 C   0  0  0  0  0  0  0  0  0  0  0  0
   -2.9101   -1.7759    1.7747 C   0  0  0  0  0  0  0  0  0  0  0  0
   -1.1778   -2.4430    0.2178 C   0  0  0  0  0  0  0  0  0  0  0  0
   -1.1979   -0.1524    1.2463 C   0  0  0  0  0  0  0  0  0  0  0  0
   -0.2137    0.4202    0.4047 N   0  0  0  0  0  0  0  0  0  0  0  0
   -0.2871    1.4586   -0.4151 C   0  0  0  0  0  0  0  0  0  0  0  0
   -1.3929    2.3900   -0.6754 C   0  0  0  0  0  0  0  0  0  0  0  0
   -1.3923    3.6228    0.1799 C   0  0  0  0  0  0  0  0  0  0  0  0
   -0.1305    4.4426    0.0154 C   0  0  0  0  0  0  0  0  0  0  0  0
   -2.5373    4.5565   -0.2503 C   0  0  0  0  0  0  0  0  0  0  0  0
   -1.6123    3.3636    1.6427 C   0  0  0  0  0  0  0  0  0  0  0  0
    0.9180    1.6297   -1.0381 N   0  0  0  0  0  0  0  0  0  0  0  0
    1.7673    0.7037   -0.6180 C   0  0  0  0  0  0  0  0  0  0  0  0
    3.0901    0.4282   -0.9136 C   0  0  0  0  0  0  0  0  0  0  0  0
    3.7234   -0.6267   -0.2934 C   0  0  0  0  0  0  0  0  0  0  0  0
    5.1096   -0.8825   -0.6236 C   0  0  0  0  0  0  0  0  0  0  0  0
    5.8613   -1.8488   -0.1548 C   0  0  0  0  0  0  0  0  0  0  0  0
    7.2701   -2.0073   -0.5701 C   0  0  0  0  0  0  0  0  0  0  0  0
    7.8075   -1.2248   -1.3810 O   0  0  0  0  0  0  0  0  0  0  0  0
    8.0285   -3.0666   -0.0394 N   0  0  0  0  0  0  0  0  0  0  0  0
    9.3401   -3.2698   -0.3842 O   0  0  0  0  0  0  0  0  0  0  0  0
    3.0482   -1.4020    0.6144 C   0  0  0  0  0  0  0  0  0  0  0  0
    1.7255   -1.1081    0.8945 C   0  0  0  0  0  0  0  0  0  0  0  0
    1.0737   -0.0603    0.2859 C   0  0  0  0  0  0  0  0  0  0  0  0
   -4.5315   -2.4303   -2.8680 H   0  0  0  0  0  0  0  0  0  0  0  0
   -4.8395   -0.7884   -2.2048 H   0  0  0  0  0  0  0  0  0  0  0  0
   -3.2391   -1.1432   -3.0377 H   0  0  0  0  0  0  0  0  0  0  0  0
   -5.3262   -1.3964   -0.0738 H   0  0  0  0  0  0  0  0  0  0  0  0
   -5.4920   -2.7875   -1.1437 H   0  0  0  0  0  0  0  0  0  0  0  0
   -4.6810   -3.0932    0.3789 H   0  0  0  0  0  0  0  0  0  0  0  0
   -3.5791   -0.0496   -0.3024 H   0  0  0  0  0  0  0  0  0  0  0  0
   -2.1574   -0.4971   -1.3374 H   0  0  0  0  0  0  0  0  0  0  0  0
   -3.9194   -1.3383    1.7698 H   0  0  0  0  0  0  0  0  0  0  0  0
   -2.9048   -2.8872    1.8155 H   0  0  0  0  0  0  0  0  0  0  0  0
   -2.4556   -1.4383    2.7662 H   0  0  0  0  0  0  0  0  0  0  0  0
   -1.9251   -3.1639   -0.2323 H   0  0  0  0  0  0  0  0  0  0  0  0
   -0.4937   -2.1851   -0.5861 H   0  0  0  0  0  0  0  0  0  0  0  0
   -0.7781   -2.9283    1.1042 H   0  0  0  0  0  0  0  0  0  0  0  0
   -1.9036    0.5423    1.7298 H   0  0  0  0  0  0  0  0  0  0  0  0
   -0.6716   -0.6488    2.1225 H   0  0  0  0  0  0  0  0  0  0  0  0
   -1.2871    2.7653   -1.7378 H   0  0  0  0  0  0  0  0  0  0  0  0
   -2.4091    1.9491   -0.5877 H   0  0  0  0  0  0  0  0  0  0  0  0
    0.6888    4.0222    0.6640 H   0  0  0  0  0  0  0  0  0  0  0  0
    0.1815    4.5514   -1.0247 H   0  0  0  0  0  0  0  0  0  0  0  0
   -0.3457    5.4552    0.4137 H   0  0  0  0  0  0  0  0  0  0  0  0
   -2.3865    4.8877   -1.2989 H   0  0  0  0  0  0  0  0  0  0  0  0
   -2.5259    5.4401    0.4380 H   0  0  0  0  0  0  0  0  0  0  0  0
   -3.4940    4.0191   -0.0936 H   0  0  0  0  0  0  0  0  0  0  0  0
   -2.5887    2.8384    1.8140 H   0  0  0  0  0  0  0  0  0  0  0  0
   -1.6619    4.3295    2.2134 H   0  0  0  0  0  0  0  0  0  0  0  0
   -0.7931    2.7906    2.1277 H   0  0  0  0  0  0  0  0  0  0  0  0
    3.5933    1.0655   -1.6389 H   0  0  0  0  0  0  0  0  0  0  0  0
    5.6281   -0.2152   -1.3402 H   0  0  0  0  0  0  0  0  0  0  0  0
    5.4290   -2.5389    0.5483 H   0  0  0  0  0  0  0  0  0  0  0  0
    7.5957   -3.7372    0.6425 H   0  0  0  0  0  0  0  0  0  0  0  0
    9.9238   -2.6056    0.0429 H   0  0  0  0  0  0  0  0  0  0  0  0
    3.5343   -2.2522    1.1241 H   0  0  0  0  0  0  0  0  0  0  0  0
    1.2051   -1.7274    1.6268 H   0  0  0  0  0  0  0  0  0  0  0  0
  1  2  1  0
  2  3  1  0
  2  4  1  0
  4  5  1  0
  5  6  1  0
  5  7  1  0
  5  8  1  0
  8  9  1  0
  9 10  1  0
 10 11  1  0
 11 12  1  0
 12 13  1  0
 12 14  1  0
 12 15  1  0
 10 16  2  0
 16 17  1  0
 17 18  2  0
 18 19  1  0
 19 20  1  0
 20 21  2  0
 21 22  1  0
 22 23  2  0
 22 24  1  0
 24 25  1  0
 19 26  2  0
 26 27  1  0
 27 28  2  0
 28  9  1  0
 28 17  1  0
  1 29  1  0
  1 30  1  0
  1 31  1  0
  3 32  1  0
  3 33  1  0
  3 34  1  0
  4 35  1  0
  4 36  1  0
  6 37  1  0
  6 38  1  0
  6 39  1  0
  7 40  1  0
  7 41  1  0
  7 42  1  0
  8 43  1  0
  8 44  1  0
 11 45  1  0
 11 46  1  0
 13 47  1  0
 13 48  1  0
 13 49  1  0
 14 50  1  0
 14 51  1  0
 14 52  1  0
 15 53  1  0
 15 54  1  0
 15 55  1  0
 18 56  1  0
 20 57  1  0
 21 58  1  0
 24 59  1  0
 25 60  1  0
 26 61  1  0
 27 62  1  0
M  END
$$$$
