
     RDKit          3D

 64 66  0  0  0  0  0  0  0  0999 V2000
   -7.3923    2.3764    0.6383 C   0  0  0  0  0  0  0  0  0  0  0  0
   -6.3321    1.8644   -0.1416 O   0  0  0  0  0  0  0  0  0  0  0  0
   -5.0465    1.6868    0.2858 C   0  0  0  0  0  0  0  0  0  0  0  0
   -4.7834    2.0067    1.4774 O   0  0  0  0  0  0  0  0  0  0  0  0
   -3.9896    1.1408   -0.6020 C   0  0  0  0  0  0  0  0  0  0  0  0
   -4.2958    0.8171   -1.8334 C   0  0  0  0  0  0  0  0  0  0  0  0
   -5.6971    0.9944   -2.3465 C   0  0  0  0  0  0  0  0  0  0  0  0
   -3.3221    0.2864   -2.7231 N   0  0  0  0  0  0  0  0  0  0  0  0
   -2.0010    0.1165   -2.2361 C   0  0  0  0  0  0  0  0  0  0  0  0
   -0.9675   -0.4430   -3.1676 C   0  0  0  0  0  0  0  0  0  0  0  0
   -1.6744    0.4298   -1.0224 C   0  0  0  0  0  0  0  0  0  0  0  0
   -0.2728    0.2403   -0.5307 C   0  0  0  0  0  0  0  0  0  0  0  0
    0.0056    0.5548    0.6525 O   0  0  0  0  0  0  0  0  0  0  0  0
    0.7416   -0.2587   -1.2912 O   0  0  0  0  0  0  0  0  0  0  0  0
    2.0807   -0.4580   -0.8765 C   0  0  0  0  0  0  0  0  0  0  0  0
    2.7508    0.7915   -0.4349 C   0  0  0  0  0  0  0  0  0  0  0  0
    4.1040    0.5327   -0.0160 N   0  0  0  0  0  0  0  0  0  0  0  0
    3.9915   -0.2494    1.2233 C   0  0  0  0  0  0  0  0  0  0  0  0
    4.7932   -0.2086   -1.0178 C   0  0  0  0  0  0  0  0  0  0  0  0
    6.2392   -0.3908   -0.7260 C   0  0  0  0  0  0  0  0  0  0  0  0
    6.7614   -1.4411   -0.0138 C   0  0  0  0  0  0  0  0  0  0  0  0
    8.1315   -1.5064    0.1929 C   0  0  0  0  0  0  0  0  0  0  0  0
    9.0068   -0.5632   -0.2833 C   0  0  0  0  0  0  0  0  0  0  0  0
    8.4794    0.5007   -1.0045 C   0  0  0  0  0  0  0  0  0  0  0  0
    7.1161    0.5593   -1.2063 C   0  0  0  0  0  0  0  0  0  0  0  0
   -2.6324    0.9872   -0.0627 C   0  0  0  0  0  0  0  0  0  0  0  0
   -2.7014    0.1220    1.1807 C   0  0  0  0  0  0  0  0  0  0  0  0
   -2.3891    0.6319    2.4152 C   0  0  0  0  0  0  0  0  0  0  0  0
   -2.4485   -0.1510    3.5642 C   0  0  0  0  0  0  0  0  0  0  0  0
   -2.8244   -1.4622    3.4854 C   0  0  0  0  0  0  0  0  0  0  0  0
   -3.1428   -1.9999    2.2638 C   0  0  0  0  0  0  0  0  0  0  0  0
   -3.5327   -3.3565    2.1805 N   0  0  0  0  0  4  0  0  0  0  0  0
   -3.5766   -4.0363    3.2132 O   0  0  0  0  0  0  0  0  0  0  0  0
   -3.8582   -3.9056    0.9569 O   0  0  0  0  0  1  0  0  0  0  0  0
   -3.0775   -1.1982    1.1198 C   0  0  0  0  0  0  0  0  0  0  0  0
   -7.4881    1.7453    1.5341 H   0  0  0  0  0  0  0  0  0  0  0  0
   -7.2610    3.4498    0.8634 H   0  0  0  0  0  0  0  0  0  0  0  0
   -8.3322    2.2117    0.0366 H   0  0  0  0  0  0  0  0  0  0  0  0
   -6.0161    2.0350   -2.3834 H   0  0  0  0  0  0  0  0  0  0  0  0
   -6.3744    0.3303   -1.8197 H   0  0  0  0  0  0  0  0  0  0  0  0
   -5.6900    0.6396   -3.4245 H   0  0  0  0  0  0  0  0  0  0  0  0
   -3.5279    0.0157   -3.7152 H   0  0  0  0  0  0  0  0  0  0  0  0
   -0.5384   -1.3807   -2.8150 H   0  0  0  0  0  0  0  0  0  0  0  0
   -1.4187   -0.6013   -4.1786 H   0  0  0  0  0  0  0  0  0  0  0  0
   -0.1744    0.3068   -3.3081 H   0  0  0  0  0  0  0  0  0  0  0  0
    2.2359   -1.2531   -0.1586 H   0  0  0  0  0  0  0  0  0  0  0  0
    2.6011   -0.7811   -1.8342 H   0  0  0  0  0  0  0  0  0  0  0  0
    2.7931    1.5601   -1.2405 H   0  0  0  0  0  0  0  0  0  0  0  0
    2.2048    1.2992    0.4085 H   0  0  0  0  0  0  0  0  0  0  0  0
    4.8667   -0.1126    1.8716 H   0  0  0  0  0  0  0  0  0  0  0  0
    3.0971    0.0152    1.8085 H   0  0  0  0  0  0  0  0  0  0  0  0
    3.9370   -1.3073    0.9603 H   0  0  0  0  0  0  0  0  0  0  0  0
    4.3380   -1.2357   -1.0390 H   0  0  0  0  0  0  0  0  0  0  0  0
    4.7110    0.3157   -1.9838 H   0  0  0  0  0  0  0  0  0  0  0  0
    6.0899   -2.1814    0.3616 H   0  0  0  0  0  0  0  0  0  0  0  0
    8.5114   -2.3409    0.7546 H   0  0  0  0  0  0  0  0  0  0  0  0
   10.0758   -0.6057   -0.1273 H   0  0  0  0  0  0  0  0  0  0  0  0
    9.1223    1.2792   -1.4074 H   0  0  0  0  0  0  0  0  0  0  0  0
    6.7547    1.4158   -1.7795 H   0  0  0  0  0  0  0  0  0  0  0  0
   -2.2559    1.9966    0.2884 H   0  0  0  0  0  0  0  0  0  0  0  0
   -2.0916    1.6570    2.5072 H   0  0  0  0  0  0  0  0  0  0  0  0
   -2.1987    0.2690    4.5235 H   0  0  0  0  0  0  0  0  0  0  0  0
   -2.8795   -2.1013    4.3780 H   0  0  0  0  0  0  0  0  0  0  0  0
   -3.3357   -1.6517    0.1646 H   0  0  0  0  0  0  0  0  0  0  0  0
  1  2  1  0
  2  3  1  0
  3  4  2  0
  3  5  1  0
  5  6  2  0
  6  7  1  0
  6  8  1  0
  8  9  1  0
  9 10  1  0
  9 11  2  0
 11 12  1  0
 12 13  2  0
 12 14  1  0
 14 15  1  0
 15 16  1  0
 16 17  1  0
 17 18  1  0
 17 19  1  0
 19 20  1  0
 20 21  2  0
 21 22  1  0
 22 23  2  0
 23 24  1  0
 24 25  2  0
 11 26  1  0
 26 27  1  0
 27 28  2  0
 28 29  1  0
 29 30  2  0
 30 31  1  0
 31 32  1  0
 32 33  2  0
 32 34  1  0
 31 35  2  0
 26  5  1  0
 35 27  1  0
 25 20  1  0
  1 36  1  0
  1 37  1  0
  1 38  1  0
  7 39  1  0
  7 40  1  0
  7 41  1  0
  8 42  1  0
 10 43  1  0
 10 44  1  0
 10 45  1  0
 15 46  1  0
 15 47  1  0
 16 48  1  0
 16 49  1  0
 18 50  1  0
 18 51  1  0
 18 52  1  0
 19 53  1  0
 19 54  1  0
 21 55  1  0
 22 56  1  0
 23 57  1  0
 24 58  1  0
 25 59  1  0
 26 60  1  0
 28 61  1  0
 29 62  1  0
 30 63  1  0
 35 64  1  0
M  CHG  2  32   1  34  -1
M  END
$$$$
