
     RDKit          3D

 73 78  0  0  0  0  0  0  0  0999 V2000
   -1.2895   -7.9967    0.8340 C   0  0  0  0  0  0  0  0  0  0  0  0
   -0.7245   -6.7009    0.7639 O   0  0  0  0  0  0  0  0  0  0  0  0
   -1.4617   -5.5625    0.5668 C   0  0  0  0  0  0  0  0  0  0  0  0
   -0.7780   -4.3462    0.5180 C   0  0  0  0  0  0  0  0  0  0  0  0
   -1.4181   -3.1401    0.3252 C   0  0  0  0  0  0  0  0  0  0  0  0
   -0.7174   -1.8855    0.2947 N   0  0  0  0  0  0  0  0  0  0  0  0
    0.6989   -1.6847    0.5397 C   0  0  0  0  0  0  0  0  0  0  0  0
    1.3915   -2.4752    1.2081 O   0  0  0  0  0  0  0  0  0  0  0  0
    1.1312   -0.4833   -0.0879 N   0  0  0  0  0  0  0  0  0  0  0  0
    2.4474    0.0886   -0.1076 C   0  0  0  0  0  0  0  0  0  0  0  0
    2.6544    1.3061   -0.7083 C   0  0  0  0  0  0  0  0  0  0  0  0
    3.9237    1.8563   -0.7390 C   0  0  0  0  0  0  0  0  0  0  0  0
    5.0029    1.2078   -0.1754 C   0  0  0  0  0  0  0  0  0  0  0  0
    6.3469    1.7521   -0.1889 C   0  0  0  0  0  0  0  0  0  0  0  0
    7.0888    1.7279    0.9616 C   0  0  0  0  0  0  0  0  0  0  0  0
    8.3848    2.2367    1.0205 C   0  0  0  0  0  0  0  0  0  0  0  0
    8.8913    2.7711   -0.1437 C   0  0  0  0  0  0  0  0  0  0  0  0
   10.2423    3.3130   -0.1268 C   0  0  0  0  0  0  0  0  0  0  0  0
   10.7085    3.8045   -1.1832 O   0  0  0  0  0  0  0  0  0  0  0  0
   11.0392    3.3135    0.9964 O   0  0  0  0  0  0  0  0  0  0  0  0
    8.1386    2.7888   -1.2870 C   0  0  0  0  0  0  0  0  0  0  0  0
    6.8492    2.2824   -1.3460 C   0  0  0  0  0  0  0  0  0  0  0  0
    5.9489    2.3401   -2.8582 Cl  0  0  0  0  0  0  0  0  0  0  0  0
    4.7701   -0.0166    0.4239 C   0  0  0  0  0  0  0  0  0  0  0  0
    3.5264   -0.5527    0.4524 C   0  0  0  0  0  0  0  0  0  0  0  0
   -0.0393    0.0260   -0.7066 C   0  0  0  0  0  0  0  0  0  0  0  0
   -0.1081    0.8232   -1.6740 O   0  0  0  0  0  0  0  0  0  0  0  0
   -1.2192   -0.5779    0.0234 C   0  0  0  0  0  0  0  0  0  0  0  0
   -1.4290    0.2427    1.2967 C   0  0  0  0  0  0  0  0  0  0  0  0
   -2.1064    1.5240    0.8623 C   0  0  0  0  0  0  0  0  0  0  0  0
   -3.4960    1.2385    0.6107 N   0  0  0  0  0  0  0  0  0  0  0  0
   -4.1282    2.2744   -0.1855 C   0  0  0  0  0  0  0  0  0  0  0  0
   -5.5566    1.9785   -0.4422 C   0  0  0  0  0  0  0  0  0  0  0  0
   -6.0159    1.5295   -1.6335 N   0  0  0  0  0  0  0  0  0  0  0  0
   -7.3045    1.2641   -1.8680 C   0  0  0  0  0  0  0  0  0  0  0  0
   -8.2393    1.4505   -0.8539 C   0  0  0  0  0  0  0  0  0  0  0  0
   -7.8396    1.9078    0.3907 C   0  0  0  0  0  0  0  0  0  0  0  0
   -6.4985    2.1647    0.5746 C   0  0  0  0  0  0  0  0  0  0  0  0
   -5.9953    2.6557    1.8773 C   0  0  0  0  0  0  0  0  0  0  0  0
   -3.6694   -0.0711    0.0102 C   0  0  0  0  0  0  0  0  0  0  0  0
   -2.4549   -0.4755   -0.7952 C   0  0  0  0  0  0  0  0  0  0  0  0
   -2.7464   -3.1866    0.1840 N   0  0  0  0  0  0  0  0  0  0  0  0
   -3.4293   -4.3388    0.2263 C   0  0  0  0  0  0  0  0  0  0  0  0
   -2.7942   -5.5095    0.4151 N   0  0  0  0  0  0  0  0  0  0  0  0
   -0.5313   -8.7900    0.7618 H   0  0  0  0  0  0  0  0  0  0  0  0
   -2.0020   -8.1106   -0.0094 H   0  0  0  0  0  0  0  0  0  0  0  0
   -1.8427   -8.0455    1.7967 H   0  0  0  0  0  0  0  0  0  0  0  0
    0.2841   -4.3547    0.6307 H   0  0  0  0  0  0  0  0  0  0  0  0
    1.8208    1.8574   -1.1643 H   0  0  0  0  0  0  0  0  0  0  0  0
    4.0763    2.8340   -1.2216 H   0  0  0  0  0  0  0  0  0  0  0  0
    6.7164    1.3113    1.9011 H   0  0  0  0  0  0  0  0  0  0  0  0
    8.9547    2.2061    1.9479 H   0  0  0  0  0  0  0  0  0  0  0  0
   12.0477    3.1270    0.9068 H   0  0  0  0  0  0  0  0  0  0  0  0
    8.5346    3.2126   -2.2178 H   0  0  0  0  0  0  0  0  0  0  0  0
    5.6506   -0.5135    0.8666 H   0  0  0  0  0  0  0  0  0  0  0  0
    3.4100   -1.5298    0.9436 H   0  0  0  0  0  0  0  0  0  0  0  0
   -0.4461    0.4420    1.7962 H   0  0  0  0  0  0  0  0  0  0  0  0
   -2.1117   -0.3400    1.9806 H   0  0  0  0  0  0  0  0  0  0  0  0
   -1.9959    2.2873    1.6550 H   0  0  0  0  0  0  0  0  0  0  0  0
   -1.6001    1.8499   -0.0770 H   0  0  0  0  0  0  0  0  0  0  0  0
   -3.5884    2.2871   -1.1630 H   0  0  0  0  0  0  0  0  0  0  0  0
   -3.9800    3.2804    0.2540 H   0  0  0  0  0  0  0  0  0  0  0  0
   -7.6391    0.9052   -2.8343 H   0  0  0  0  0  0  0  0  0  0  0  0
   -9.2814    1.2338   -1.0511 H   0  0  0  0  0  0  0  0  0  0  0  0
   -8.5620    2.0618    1.2063 H   0  0  0  0  0  0  0  0  0  0  0  0
   -5.3095    1.8943    2.3012 H   0  0  0  0  0  0  0  0  0  0  0  0
   -5.4963    3.6258    1.7329 H   0  0  0  0  0  0  0  0  0  0  0  0
   -6.8283    2.7680    2.6004 H   0  0  0  0  0  0  0  0  0  0  0  0
   -4.5351   -0.0700   -0.6844 H   0  0  0  0  0  0  0  0  0  0  0  0
   -3.9253   -0.7565    0.8260 H   0  0  0  0  0  0  0  0  0  0  0  0
   -2.3665    0.2857   -1.6179 H   0  0  0  0  0  0  0  0  0  0  0  0
   -2.6720   -1.4317   -1.2913 H   0  0  0  0  0  0  0  0  0  0  0  0
   -4.5071   -4.3918    0.1133 H   0  0  0  0  0  0  0  0  0  0  0  0
  1  2  1  0
  2  3  1  0
  3  4  2  0
  4  5  1  0
  5  6  1  0
  6  7  1  0
  7  8  2  0
  7  9  1  0
  9 10  1  0
 10 11  2  0
 11 12  1  0
 12 13  2  0
 13 14  1  0
 14 15  2  0
 15 16  1  0
 16 17  2  0
 17 18  1  0
 18 19  2  0
 18 20  1  0
 17 21  1  0
 21 22  2  0
 22 23  1  0
 13 24  1  0
 24 25  2  0
  9 26  1  0
 26 27  2  0
 26 28  1  0
 28 29  1  0
 29 30  1  0
 30 31  1  0
 31 32  1  0
 32 33  1  0
 33 34  2  0
 34 35  1  0
 35 36  2  0
 36 37  1  0
 37 38  2  0
 38 39  1  0
 31 40  1  0
 40 41  1  0
  5 42  2  0
 42 43  1  0
 43 44  2  0
 44  3  1  0
 28  6  1  0
 38 33  1  0
 25 10  1  0
 41 28  1  0
 22 14  1  0
  1 45  1  0
  1 46  1  0
  1 47  1  0
  4 48  1  0
 11 49  1  0
 12 50  1  0
 15 51  1  0
 16 52  1  0
 20 53  1  0
 21 54  1  0
 24 55  1  0
 25 56  1  0
 29 57  1  0
 29 58  1  0
 30 59  1  0
 30 60  1  0
 32 61  1  0
 32 62  1  0
 35 63  1  0
 36 64  1  0
 37 65  1  0
 39 66  1  0
 39 67  1  0
 39 68  1  0
 40 69  1  0
 40 70  1  0
 41 71  1  0
 41 72  1  0
 43 73  1  0
M  END
$$$$
