
     RDKit          3D

 47 50  0  0  0  0  0  0  0  0999 V2000
   -0.7148   -0.0797    3.6389 C   0  0  0  0  0  0  0  0  0  0  0  0
   -1.1726    0.0682    2.1829 C   0  0  1  0  0  0  0  0  0  0  0  0
   -0.7404   -0.9977    1.3964 O   0  0  0  0  0  0  0  0  0  0  0  0
    0.1288   -0.9059    0.3154 C   0  0  0  0  0  0  0  0  0  0  0  0
    0.6559    0.2662   -0.0896 N   0  0  0  0  0  0  0  0  0  0  0  0
    1.5036    0.3502   -1.1448 C   0  0  0  0  0  0  0  0  0  0  0  0
    2.0558    1.6393   -1.5548 C   0  0  0  0  0  0  0  0  0  0  0  0
    2.9155    1.7635   -2.6168 C   0  0  0  0  0  0  0  0  0  0  0  0
    3.4215    2.9919   -2.9807 C   0  0  0  0  0  0  0  0  0  0  0  0
    3.0796    4.1340   -2.2888 C   0  0  0  0  0  0  0  0  0  0  0  0
    3.6219    5.4543   -2.6771 C   0  0  0  0  0  0  0  0  0  0  0  0
    4.9525    5.3486   -3.0941 F   0  0  0  0  0  0  0  0  0  0  0  0
    3.6134    6.3660   -1.6492 F   0  0  0  0  0  0  0  0  0  0  0  0
    2.9150    5.9294   -3.7448 F   0  0  0  0  0  0  0  0  0  0  0  0
    2.2361    3.9777   -1.2546 N   0  0  0  0  0  0  0  0  0  0  0  0
    1.7252    2.7953   -0.8741 C   0  0  0  0  0  0  0  0  0  0  0  0
    1.8079   -0.8058   -1.7896 C   0  0  0  0  0  0  0  0  0  0  0  0
    1.2900   -2.0510   -1.4126 C   0  0  0  0  0  0  0  0  0  0  0  0
    1.4043   -3.3130   -1.8407 N   0  0  0  0  0  0  0  0  0  0  0  0
    0.6579   -4.1188   -1.0759 N   0  0  0  0  0  0  0  0  0  0  0  0
    0.4936   -5.5604   -1.1907 C   0  0  0  0  0  0  0  0  0  0  0  0
    0.0342   -3.3898   -0.1221 C   0  0  0  0  0  0  0  0  0  0  0  0
    0.4332   -2.0843   -0.3345 C   0  0  0  0  0  0  0  0  0  0  0  0
   -2.6680    0.2202    2.2232 C   0  0  1  0  0  0  0  0  0  0  0  0
   -3.2985    0.3784    0.8768 C   0  0  0  0  0  0  0  0  0  0  0  0
   -4.7018    0.1383    1.1468 N   0  0  0  0  0  0  0  0  0  0  0  0
   -4.7396   -0.8361    2.1830 C   0  0  0  0  0  0  0  0  0  0  0  0
   -5.7249   -1.4803    2.6233 O   0  0  0  0  0  0  0  0  0  0  0  0
   -3.3538   -1.0264    2.7404 C   0  0  0  0  0  0  0  0  0  0  0  0
    0.3905   -0.2365    3.6899 H   0  0  0  0  0  0  0  0  0  0  0  0
   -1.2819   -0.8602    4.1463 H   0  0  0  0  0  0  0  0  0  0  0  0
   -0.9012    0.8953    4.1372 H   0  0  0  0  0  0  0  0  0  0  0  0
   -0.7302    1.0096    1.8241 H   0  0  0  0  0  0  0  0  0  0  0  0
    3.2325    0.9205   -3.2094 H   0  0  0  0  0  0  0  0  0  0  0  0
    4.1009    3.1026   -3.8171 H   0  0  0  0  0  0  0  0  0  0  0  0
    1.0562    2.7517   -0.0359 H   0  0  0  0  0  0  0  0  0  0  0  0
    2.4712   -0.8368   -2.6367 H   0  0  0  0  0  0  0  0  0  0  0  0
    1.2714   -6.0322   -0.5310 H   0  0  0  0  0  0  0  0  0  0  0  0
   -0.5247   -5.8337   -0.8866 H   0  0  0  0  0  0  0  0  0  0  0  0
    0.6688   -5.9239   -2.2119 H   0  0  0  0  0  0  0  0  0  0  0  0
   -0.6270   -3.7175    0.6422 H   0  0  0  0  0  0  0  0  0  0  0  0
   -2.9174    1.0601    2.8923 H   0  0  0  0  0  0  0  0  0  0  0  0
   -3.1422    1.3866    0.4379 H   0  0  0  0  0  0  0  0  0  0  0  0
   -2.9564   -0.4410    0.2195 H   0  0  0  0  0  0  0  0  0  0  0  0
   -5.5222    0.5835    0.6822 H   0  0  0  0  0  0  0  0  0  0  0  0
   -3.4503   -1.0559    3.8320 H   0  0  0  0  0  0  0  0  0  0  0  0
   -2.9694   -1.9444    2.2814 H   0  0  0  0  0  0  0  0  0  0  0  0
  1  2  1  0
  2  3  1  0
  3  4  1  0
  4  5  2  0
  5  6  1  0
  6  7  1  0
  7  8  2  0
  8  9  1  0
  9 10  2  0
 10 11  1  0
 11 12  1  0
 11 13  1  0
 11 14  1  0
 10 15  1  0
 15 16  2  0
  6 17  2  0
 17 18  1  0
 18 19  2  0
 19 20  1  0
 20 21  1  0
 20 22  1  0
 22 23  2  0
  2 24  1  0
 24 25  1  0
 25 26  1  0
 26 27  1  0
 27 28  2  0
 27 29  1  0
 23  4  1  0
 29 24  1  0
 16  7  1  0
 23 18  1  0
  1 30  1  0
  1 31  1  0
  1 32  1  0
  2 33  1  6
  8 34  1  0
  9 35  1  0
 16 36  1  0
 17 37  1  0
 21 38  1  0
 21 39  1  0
 21 40  1  0
 22 41  1  0
 24 42  1  1
 25 43  1  0
 25 44  1  0
 26 45  1  0
 29 46  1  0
 29 47  1  0
M  END
$$$$
