
     RDKit          3D

 46 50  0  0  0  0  0  0  0  0999 V2000
    7.0318    2.1026    3.2635 N   0  0  0  0  0  0  0  0  0  0  0  0
    6.3466    1.5594    2.4925 C   0  0  0  0  0  0  0  0  0  0  0  0
    5.5141    0.8912    1.5237 C   0  0  0  0  0  0  0  0  0  0  0  0
    4.2554    1.4113    1.2818 C   0  0  0  0  0  0  0  0  0  0  0  0
    3.3966    0.8724    0.4066 N   0  0  0  0  0  0  0  0  0  0  0  0
    3.7956   -0.2373   -0.2680 C   0  0  0  0  0  0  0  0  0  0  0  0
    2.8781   -0.7782   -1.1708 C   0  0  0  0  0  0  0  0  0  0  0  0
    1.5989   -0.1631   -1.3520 N   0  0  0  0  0  0  0  0  0  0  0  0
    0.5263   -0.4750   -0.4696 C   0  0  0  0  0  0  0  0  0  0  0  0
    0.6726   -1.3913    0.5546 C   0  0  0  0  0  0  0  0  0  0  0  0
   -0.3262   -1.7186    1.4392 C   0  0  0  0  0  0  0  0  0  0  0  0
   -1.5518   -1.0698    1.2672 C   0  0  0  0  0  0  0  0  0  0  0  0
   -2.5372   -1.3933    2.1371 F   0  0  0  0  0  0  0  0  0  0  0  0
   -1.7267   -0.1520    0.2551 C   0  0  0  0  0  0  0  0  0  0  0  0
   -3.0854    0.5028    0.1569 C   0  0  1  0  0  0  0  0  0  0  0  0
   -3.2301    1.3273    1.4037 C   0  0  0  0  0  0  0  0  0  0  0  0
   -4.4370    1.9933    1.4597 F   0  0  0  0  0  0  0  0  0  0  0  0
   -3.0803    1.4209   -0.9560 N   0  0  0  0  0  0  0  0  0  0  0  0
   -4.2106    1.8026   -1.4447 C   0  0  0  0  0  0  0  0  0  0  0  0
   -4.2818    2.7122   -2.5476 N   0  0  0  0  0  0  0  0  0  0  0  0
   -5.3545    1.2771   -0.8359 O   0  0  0  0  0  0  0  0  0  0  0  0
   -5.4131   -0.0980   -0.5961 C   0  0  2  0  0  0  0  0  0  0  0  0
   -5.3259   -0.6941    0.7439 C   0  0  0  0  0  0  0  0  0  0  0  0
   -4.0855   -0.5523   -0.0317 C   0  0  2  0  0  0  0  0  0  0  0  0
   -0.6990    0.1451   -0.6075 C   0  0  0  0  0  0  0  0  0  0  0  0
    3.2642   -1.8776   -1.8403 N   0  0  0  0  0  0  0  0  0  0  0  0
    4.4733   -2.4438   -1.6616 C   0  0  0  0  0  0  0  0  0  0  0  0
    5.3934   -1.9246   -0.7742 C   0  0  0  0  0  0  0  0  0  0  0  0
    6.6124   -2.4879   -0.5872 F   0  0  0  0  0  0  0  0  0  0  0  0
    5.0318   -0.7989   -0.0713 C   0  0  0  0  0  0  0  0  0  0  0  0
    5.9221   -0.2306    0.8441 C   0  0  0  0  0  0  0  0  0  0  0  0
    3.9141    2.3103    1.8187 H   0  0  0  0  0  0  0  0  0  0  0  0
    1.4935    0.5024   -2.1361 H   0  0  0  0  0  0  0  0  0  0  0  0
    1.6479   -1.8744    0.6518 H   0  0  0  0  0  0  0  0  0  0  0  0
   -0.1439   -2.4445    2.2179 H   0  0  0  0  0  0  0  0  0  0  0  0
   -2.4527    2.1487    1.3893 H   0  0  0  0  0  0  0  0  0  0  0  0
   -3.0882    0.8086    2.3452 H   0  0  0  0  0  0  0  0  0  0  0  0
   -4.4334    3.7117   -2.3467 H   0  0  0  0  0  0  0  0  0  0  0  0
   -4.1857    2.3908   -3.5221 H   0  0  0  0  0  0  0  0  0  0  0  0
   -5.8875   -0.6810   -1.4171 H   0  0  0  0  0  0  0  0  0  0  0  0
   -5.5539   -0.0716    1.6307 H   0  0  0  0  0  0  0  0  0  0  0  0
   -5.7417   -1.7188    0.8400 H   0  0  0  0  0  0  0  0  0  0  0  0
   -3.7058   -1.4852   -0.5441 H   0  0  0  0  0  0  0  0  0  0  0  0
   -0.8948    0.8700   -1.3768 H   0  0  0  0  0  0  0  0  0  0  0  0
    4.7670   -3.3415   -2.2208 H   0  0  0  0  0  0  0  0  0  0  0  0
    6.8971   -0.6574    1.0126 H   0  0  0  0  0  0  0  0  0  0  0  0
  1  2  3  0
  2  3  1  0
  3  4  2  0
  4  5  1  0
  5  6  2  0
  6  7  1  0
  7  8  1  0
  8  9  1  0
  9 10  2  0
 10 11  1  0
 11 12  2  0
 12 13  1  0
 12 14  1  0
 14 15  1  0
 15 16  1  1
 16 17  1  0
 15 18  1  0
 18 19  2  0
 19 20  1  0
 19 21  1  0
 21 22  1  0
 22 23  1  0
 23 24  1  0
 14 25  2  0
  7 26  2  0
 26 27  1  0
 27 28  2  0
 28 29  1  0
 28 30  1  0
 30 31  2  0
 31  3  1  0
 30  6  1  0
 25  9  1  0
 24 15  1  0
 24 22  1  0
  4 32  1  0
  8 33  1  0
 10 34  1  0
 11 35  1  0
 16 36  1  0
 16 37  1  0
 20 38  1  0
 20 39  1  0
 22 40  1  6
 23 41  1  0
 23 42  1  0
 24 43  1  6
 25 44  1  0
 27 45  1  0
 31 46  1  0
M  END
$$$$
