
     RDKit          3D

 62 65  0  0  0  0  0  0  0  0999 V2000
    7.7375    1.4395   -0.5468 C   0  0  0  0  0  0  0  0  0  0  0  0
    7.7071    0.0189   -0.0260 C   0  0  0  0  0  0  0  0  0  0  0  0
    7.9526    0.0614    1.4774 C   0  0  0  0  0  0  0  0  0  0  0  0
    8.8088   -0.7912   -0.6581 C   0  0  0  0  0  0  0  0  0  0  0  0
    6.4562   -0.5994   -0.3137 O   0  0  0  0  0  0  0  0  0  0  0  0
    5.2823   -0.0575    0.1853 C   0  0  0  0  0  0  0  0  0  0  0  0
    5.3892    0.9930    0.8936 O   0  0  0  0  0  0  0  0  0  0  0  0
    3.9966   -0.6132   -0.0558 N   0  0  0  0  0  0  0  0  0  0  0  0
    2.8035   -0.0158    0.4834 C   0  0  2  0  0  0  0  0  0  0  0  0
    1.9932   -0.9637    1.3286 C   0  0  0  0  0  0  0  0  0  0  0  0
    0.8584   -1.3455    0.4349 C   0  0  0  0  0  0  0  0  0  0  0  0
    0.5635   -0.1238   -0.2594 N   0  0  0  0  0  0  0  0  0  0  0  0
   -0.7035    0.4394   -0.5753 C   0  0  0  0  0  0  0  0  0  0  0  0
   -0.7932    1.5162   -1.1878 O   0  0  0  0  0  0  0  0  0  0  0  0
   -1.8701   -0.2108   -0.2009 O   0  0  0  0  0  0  0  0  0  0  0  0
   -3.1259    0.3941   -0.5407 C   0  0  1  0  0  0  0  0  0  0  0  0
   -3.9436   -0.5577   -1.3495 C   0  0  0  0  0  0  0  0  0  0  0  0
   -4.0882   -1.8923   -0.6487 C   0  0  0  0  0  0  0  0  0  0  0  0
   -4.7152   -1.6925    0.7161 C   0  0  0  0  0  0  0  0  0  0  0  0
   -3.8257   -0.7537    1.4862 C   0  0  0  0  0  0  0  0  0  0  0  0
   -3.8480    0.5789    0.8002 C   0  0  0  0  0  0  0  0  0  0  0  0
   -5.2197    1.1331    0.6039 C   0  0  0  0  0  0  0  0  0  0  0  0
   -6.0174    0.1577   -0.2685 C   0  0  2  0  0  0  0  0  0  0  0  0
   -7.3732    0.7328   -0.4515 C   0  0  0  0  0  0  0  0  0  0  0  0
   -7.6142    1.9817   -1.0530 N   0  0  0  0  0  0  0  0  0  0  0  0
   -8.3745    0.0796   -0.0516 O   0  0  0  0  0  0  0  0  0  0  0  0
   -6.0990   -1.1325    0.5076 C   0  0  0  0  0  0  0  0  0  0  0  0
   -5.3156    0.0010   -1.5858 C   0  0  0  0  0  0  0  0  0  0  0  0
    1.8507    0.4622   -0.5975 C   0  0  0  0  0  0  0  0  0  0  0  0
    7.3329    1.4642   -1.5638 H   0  0  0  0  0  0  0  0  0  0  0  0
    7.2728    2.1601    0.1483 H   0  0  0  0  0  0  0  0  0  0  0  0
    8.8222    1.7373   -0.6230 H   0  0  0  0  0  0  0  0  0  0  0  0
    7.5695   -0.8705    1.9414 H   0  0  0  0  0  0  0  0  0  0  0  0
    9.0528    0.1724    1.6046 H   0  0  0  0  0  0  0  0  0  0  0  0
    7.4833    0.9607    1.9316 H   0  0  0  0  0  0  0  0  0  0  0  0
    8.9253   -0.4839   -1.7103 H   0  0  0  0  0  0  0  0  0  0  0  0
    8.5503   -1.8542   -0.5438 H   0  0  0  0  0  0  0  0  0  0  0  0
    9.7781   -0.5635   -0.1592 H   0  0  0  0  0  0  0  0  0  0  0  0
    3.9429   -1.4753   -0.6407 H   0  0  0  0  0  0  0  0  0  0  0  0
    3.0861    0.8929    1.0755 H   0  0  0  0  0  0  0  0  0  0  0  0
    1.6076   -0.4258    2.2217 H   0  0  0  0  0  0  0  0  0  0  0  0
    2.5883   -1.8386    1.6631 H   0  0  0  0  0  0  0  0  0  0  0  0
    0.0003   -1.7923    0.9492 H   0  0  0  0  0  0  0  0  0  0  0  0
    1.2267   -2.0835   -0.3161 H   0  0  0  0  0  0  0  0  0  0  0  0
   -3.0013    1.3364   -1.0774 H   0  0  0  0  0  0  0  0  0  0  0  0
   -3.4295   -0.7330   -2.3084 H   0  0  0  0  0  0  0  0  0  0  0  0
   -3.0386   -2.2545   -0.4667 H   0  0  0  0  0  0  0  0  0  0  0  0
   -4.6634   -2.5824   -1.2808 H   0  0  0  0  0  0  0  0  0  0  0  0
   -4.7630   -2.6551    1.2443 H   0  0  0  0  0  0  0  0  0  0  0  0
   -4.0344   -0.7146    2.5545 H   0  0  0  0  0  0  0  0  0  0  0  0
   -2.7750   -1.1519    1.3717 H   0  0  0  0  0  0  0  0  0  0  0  0
   -3.2642    1.3093    1.4279 H   0  0  0  0  0  0  0  0  0  0  0  0
   -5.1301    2.0832    0.0457 H   0  0  0  0  0  0  0  0  0  0  0  0
   -5.6923    1.2638    1.5768 H   0  0  0  0  0  0  0  0  0  0  0  0
   -6.9901    2.7809   -0.8079 H   0  0  0  0  0  0  0  0  0  0  0  0
   -8.3998    2.1038   -1.7286 H   0  0  0  0  0  0  0  0  0  0  0  0
   -6.6992   -1.8979   -0.0172 H   0  0  0  0  0  0  0  0  0  0  0  0
   -6.5931   -0.9056    1.4700 H   0  0  0  0  0  0  0  0  0  0  0  0
   -5.2666    0.9930   -2.0636 H   0  0  0  0  0  0  0  0  0  0  0  0
   -5.8860   -0.7209   -2.2119 H   0  0  0  0  0  0  0  0  0  0  0  0
    1.7944    1.5661   -0.6521 H   0  0  0  0  0  0  0  0  0  0  0  0
    2.1207    0.0339   -1.6012 H   0  0  0  0  0  0  0  0  0  0  0  0
  1  2  1  0
  2  3  1  0
  2  4  1  0
  2  5  1  0
  5  6  1  0
  6  7  2  0
  6  8  1  0
  8  9  1  0
  9 10  1  0
 10 11  1  0
 11 12  1  0
 12 13  1  0
 13 14  2  0
 13 15  1  0
 15 16  1  0
 16 17  1  0
 17 18  1  0
 18 19  1  0
 19 20  1  0
 20 21  1  0
 21 22  1  0
 22 23  1  0
 23 24  1  6
 24 25  1  0
 24 26  2  0
 23 27  1  0
 23 28  1  0
 12 29  1  0
 29  9  1  0
 21 16  1  0
 28 17  1  0
 27 19  1  0
  1 30  1  0
  1 31  1  0
  1 32  1  0
  3 33  1  0
  3 34  1  0
  3 35  1  0
  4 36  1  0
  4 37  1  0
  4 38  1  0
  8 39  1  0
  9 40  1  1
 10 41  1  0
 10 42  1  0
 11 43  1  0
 11 44  1  0
 16 45  1  6
 17 46  1  0
 18 47  1  0
 18 48  1  0
 19 49  1  0
 20 50  1  0
 20 51  1  0
 21 52  1  0
 22 53  1  0
 22 54  1  0
 25 55  1  0
 25 56  1  0
 27 57  1  0
 27 58  1  0
 28 59  1  0
 28 60  1  0
 29 61  1  0
 29 62  1  0
M  END
$$$$
