
     RDKit          3D

 50 53  0  0  0  0  0  0  0  0999 V2000
   -2.1209   -1.1657   -1.1536 C   0  0  0  0  0  0  0  0  0  0  0  0
   -1.8380    0.0333   -0.4337 N   0  0  0  0  0  0  0  0  0  0  0  0
   -0.4586    0.2407   -0.1244 C   0  0  2  0  0  0  0  0  0  0  0  0
    0.0871    1.5074   -0.7335 C   0  0  0  0  0  0  0  0  0  0  0  0
    1.2696    1.2778   -1.6491 C   0  0  0  0  0  0  0  0  0  0  0  0
    2.2710    0.4842   -0.8989 C   0  0  0  0  0  0  0  0  0  0  0  0
    3.6154    0.6224   -0.6180 C   0  0  0  0  0  0  0  0  0  0  0  0
    4.4717    1.7438   -1.0599 C   0  0  0  0  0  0  0  0  0  0  0  0
    4.1446    2.9141   -0.1872 C   0  0  0  0  0  0  0  0  0  0  0  0
    3.2881    2.8539    0.7253 O   0  0  0  0  0  0  0  0  0  0  0  0
    4.8205    4.1071   -0.4042 O   0  0  0  0  0  0  0  0  0  0  0  0
    3.9446   -0.4829    0.1369 C   0  0  0  0  0  0  0  0  0  0  0  0
    5.1248   -0.8755    0.6930 C   0  0  0  0  0  0  0  0  0  0  0  0
    5.1715   -2.0558    1.4165 C   0  0  0  0  0  0  0  0  0  0  0  0
    4.0508   -2.8403    1.5856 C   0  0  0  0  0  0  0  0  0  0  0  0
    4.1421   -3.9938    2.3048 F   0  0  0  0  0  0  0  0  0  0  0  0
    2.8585   -2.4389    1.0210 C   0  0  0  0  0  0  0  0  0  0  0  0
    2.8204   -1.2752    0.3097 C   0  0  0  0  0  0  0  0  0  0  0  0
    1.8112   -0.6532   -0.3383 N   0  0  0  0  0  0  0  0  0  0  0  0
    0.4070   -0.9490   -0.5416 C   0  0  0  0  0  0  0  0  0  0  0  0
   -2.7706   -0.0317    1.0173 S   0  0  0  0  0  6  0  0  0  0  0  0
   -2.3979   -1.2836    1.7395 O   0  0  0  0  0  0  0  0  0  0  0  0
   -2.5117    1.1347    1.9129 O   0  0  0  0  0  0  0  0  0  0  0  0
   -4.4611   -0.0865    0.5768 C   0  0  0  0  0  0  0  0  0  0  0  0
   -5.0999   -1.2874    0.3942 C   0  0  0  0  0  0  0  0  0  0  0  0
   -6.4372   -1.3326    0.0440 C   0  0  0  0  0  0  0  0  0  0  0  0
   -7.1637   -0.1594   -0.1305 C   0  0  0  0  0  0  0  0  0  0  0  0
   -8.4750   -0.2659   -0.4750 F   0  0  0  0  0  0  0  0  0  0  0  0
   -6.5419    1.0501    0.0478 C   0  0  0  0  0  0  0  0  0  0  0  0
   -5.1941    1.0776    0.4004 C   0  0  0  0  0  0  0  0  0  0  0  0
   -3.2345   -1.2400   -1.2437 H   0  0  0  0  0  0  0  0  0  0  0  0
   -1.7395   -1.1852   -2.1864 H   0  0  0  0  0  0  0  0  0  0  0  0
   -1.7558   -2.0304   -0.5876 H   0  0  0  0  0  0  0  0  0  0  0  0
   -0.3499    0.3048    0.9774 H   0  0  0  0  0  0  0  0  0  0  0  0
    0.3847    2.2235    0.0643 H   0  0  0  0  0  0  0  0  0  0  0  0
   -0.6713    2.0439   -1.3418 H   0  0  0  0  0  0  0  0  0  0  0  0
    1.6799    2.2787   -1.8907 H   0  0  0  0  0  0  0  0  0  0  0  0
    0.9024    0.7674   -2.5475 H   0  0  0  0  0  0  0  0  0  0  0  0
    4.2208    1.9686   -2.1212 H   0  0  0  0  0  0  0  0  0  0  0  0
    5.5446    1.4601   -0.9763 H   0  0  0  0  0  0  0  0  0  0  0  0
    4.9793    4.7258    0.3869 H   0  0  0  0  0  0  0  0  0  0  0  0
    5.9982   -0.2763    0.5682 H   0  0  0  0  0  0  0  0  0  0  0  0
    6.0909   -2.3611    1.8490 H   0  0  0  0  0  0  0  0  0  0  0  0
    1.9600   -3.0306    1.1343 H   0  0  0  0  0  0  0  0  0  0  0  0
    0.2893   -1.1768   -1.6263 H   0  0  0  0  0  0  0  0  0  0  0  0
    0.1482   -1.8399    0.0975 H   0  0  0  0  0  0  0  0  0  0  0  0
   -4.5420   -2.2017    0.5277 H   0  0  0  0  0  0  0  0  0  0  0  0
   -6.9209   -2.2897   -0.0944 H   0  0  0  0  0  0  0  0  0  0  0  0
   -7.1181    1.9515   -0.0915 H   0  0  0  0  0  0  0  0  0  0  0  0
   -4.6948    2.0376    0.5433 H   0  0  0  0  0  0  0  0  0  0  0  0
  1  2  1  0
  2  3  1  0
  3  4  1  0
  4  5  1  0
  5  6  1  0
  6  7  2  0
  7  8  1  0
  8  9  1  0
  9 10  2  0
  9 11  1  0
  7 12  1  0
 12 13  2  0
 13 14  1  0
 14 15  2  0
 15 16  1  0
 15 17  1  0
 17 18  2  0
 18 19  1  0
 19 20  1  0
  2 21  1  0
 21 22  2  0
 21 23  2  0
 21 24  1  0
 24 25  2  0
 25 26  1  0
 26 27  2  0
 27 28  1  0
 27 29  1  0
 29 30  2  0
 20  3  1  0
 30 24  1  0
 19  6  1  0
 18 12  1  0
  1 31  1  0
  1 32  1  0
  1 33  1  0
  3 34  1  1
  4 35  1  0
  4 36  1  0
  5 37  1  0
  5 38  1  0
  8 39  1  0
  8 40  1  0
 11 41  1  0
 13 42  1  0
 14 43  1  0
 17 44  1  0
 20 45  1  0
 20 46  1  0
 25 47  1  0
 26 48  1  0
 29 49  1  0
 30 50  1  0
M  END
$$$$
