
     RDKit          3D

 65 68  0  0  0  0  0  0  0  0999 V2000
   -8.3019    2.2335   -2.5584 C   0  0  0  0  0  0  0  0  0  0  0  0
   -7.7792    1.3123   -1.5163 C   0  0  0  0  0  0  0  0  0  0  0  0
   -6.4784    0.8628   -1.6031 C   0  0  0  0  0  0  0  0  0  0  0  0
   -5.9638   -0.0055   -0.6322 C   0  0  0  0  0  0  0  0  0  0  0  0
   -4.5578   -0.4848   -0.7355 C   0  0  0  0  0  0  0  0  0  0  0  0
   -3.7911    0.2197    0.1928 O   0  0  0  0  0  0  0  0  0  0  0  0
   -2.4157    0.0293    0.3748 C   0  0  0  0  0  0  0  0  0  0  0  0
   -1.6743   -0.8650   -0.3328 C   0  0  0  0  0  0  0  0  0  0  0  0
   -0.2997   -0.9934   -0.0884 C   0  0  0  0  0  0  0  0  0  0  0  0
    0.3148   -0.2205    0.8657 C   0  0  0  0  0  0  0  0  0  0  0  0
    2.0720   -0.4060    1.1574 S   0  0  0  0  0  6  0  0  0  0  0  0
    2.3300   -1.8685    0.9820 O   0  0  0  0  0  0  0  0  0  0  0  0
    2.2687   -0.0800    2.6060 O   0  0  0  0  0  0  0  0  0  0  0  0
    2.8503    0.6833    0.0837 C   0  0  0  0  0  0  0  0  0  0  0  0
    4.2708    0.9344   -0.0008 C   0  0  0  0  0  0  0  0  0  0  0  0
    5.3048   -0.0582   -0.3040 C   0  0  0  0  0  0  0  0  0  0  0  0
    5.5939   -1.2158    0.5363 C   0  0  0  0  0  0  0  0  0  0  0  0
    6.1818   -2.3312   -0.3649 C   0  0  0  0  0  0  0  0  0  0  0  0
    7.0602   -1.7093   -1.4287 C   0  0  0  0  0  0  0  0  0  0  0  0
    8.1732   -2.6174   -1.6226 N   0  0  0  0  0  0  0  0  0  0  0  0
    8.5202   -3.3762   -0.7722 O   0  0  0  0  0  0  0  0  0  0  0  0
    7.6324   -0.3923   -1.0220 C   0  0  0  0  0  0  0  0  0  0  0  0
    6.6692    0.6345   -0.5460 C   0  0  0  0  0  0  0  0  0  0  0  0
    4.7424    1.7965    1.1357 N   0  0  0  0  0  0  0  0  0  0  0  0
    4.7932    1.2961    2.3755 O   0  0  0  0  0  0  0  0  0  0  0  0
    5.1407    3.1334    0.9492 C   0  0  0  0  0  0  0  0  0  0  0  0
    5.5259    3.8145    1.9161 O   0  0  0  0  0  0  0  0  0  0  0  0
   -0.4489    0.6751    1.5686 C   0  0  0  0  0  0  0  0  0  0  0  0
   -1.8200    0.8110    1.3327 C   0  0  0  0  0  0  0  0  0  0  0  0
   -6.8217   -0.3657    0.3812 C   0  0  0  0  0  0  0  0  0  0  0  0
   -6.3704   -1.2123    1.3571 C   0  0  0  0  0  0  0  0  0  0  0  0
   -7.2079   -1.5930    2.3886 C   0  0  0  0  0  0  0  0  0  0  0  0
   -8.5084   -1.1523    2.4876 C   0  0  0  0  0  0  0  0  0  0  0  0
   -8.9565   -0.3018    1.5043 C   0  0  0  0  0  0  0  0  0  0  0  0
   -8.1293    0.0874    0.4665 C   0  0  0  0  0  0  0  0  0  0  0  0
   -8.5640    0.9186   -0.4960 N   0  0  0  0  0  0  0  0  0  0  0  0
   -9.2720    1.8525   -2.9558 H   0  0  0  0  0  0  0  0  0  0  0  0
   -7.5724    2.3500   -3.3637 H   0  0  0  0  0  0  0  0  0  0  0  0
   -8.5271    3.1978   -2.0549 H   0  0  0  0  0  0  0  0  0  0  0  0
   -5.8195    1.1495   -2.3957 H   0  0  0  0  0  0  0  0  0  0  0  0
   -4.4601   -1.5721   -0.5204 H   0  0  0  0  0  0  0  0  0  0  0  0
   -4.1808   -0.3135   -1.7800 H   0  0  0  0  0  0  0  0  0  0  0  0
   -2.1520   -1.4726   -1.0814 H   0  0  0  0  0  0  0  0  0  0  0  0
    0.2547   -1.7088   -0.6651 H   0  0  0  0  0  0  0  0  0  0  0  0
    2.4630    0.5640   -0.9840 H   0  0  0  0  0  0  0  0  0  0  0  0
    2.3524    1.6975    0.3249 H   0  0  0  0  0  0  0  0  0  0  0  0
    4.3658    1.6911   -0.8706 H   0  0  0  0  0  0  0  0  0  0  0  0
    5.1285   -0.4885   -1.3630 H   0  0  0  0  0  0  0  0  0  0  0  0
    6.5276   -0.9964    1.1805 H   0  0  0  0  0  0  0  0  0  0  0  0
    4.8464   -1.6900    1.1363 H   0  0  0  0  0  0  0  0  0  0  0  0
    6.7342   -3.0724    0.2218 H   0  0  0  0  0  0  0  0  0  0  0  0
    5.3561   -2.8504   -0.8917 H   0  0  0  0  0  0  0  0  0  0  0  0
    6.5558   -1.6520   -2.4158 H   0  0  0  0  0  0  0  0  0  0  0  0
    8.1431    0.0268   -1.9375 H   0  0  0  0  0  0  0  0  0  0  0  0
    8.4762   -0.5571   -0.2894 H   0  0  0  0  0  0  0  0  0  0  0  0
    6.5523    1.4746   -1.2561 H   0  0  0  0  0  0  0  0  0  0  0  0
    7.0099    1.0677    0.4149 H   0  0  0  0  0  0  0  0  0  0  0  0
    4.4734    1.9204    3.0782 H   0  0  0  0  0  0  0  0  0  0  0  0
    5.1168    3.5800   -0.0279 H   0  0  0  0  0  0  0  0  0  0  0  0
    0.0090    1.2953    2.3242 H   0  0  0  0  0  0  0  0  0  0  0  0
   -2.4014    1.5299    1.9059 H   0  0  0  0  0  0  0  0  0  0  0  0
   -5.3597   -1.5705    1.3038 H   0  0  0  0  0  0  0  0  0  0  0  0
   -6.8444   -2.2596    3.1533 H   0  0  0  0  0  0  0  0  0  0  0  0
   -9.1720   -1.4579    3.3097 H   0  0  0  0  0  0  0  0  0  0  0  0
   -9.9589    0.0715    1.5319 H   0  0  0  0  0  0  0  0  0  0  0  0
  1  2  1  0
  2  3  2  0
  3  4  1  0
  4  5  1  0
  5  6  1  0
  6  7  1  0
  7  8  2  0
  8  9  1  0
  9 10  2  0
 10 11  1  0
 11 12  2  0
 11 13  2  0
 11 14  1  0
 14 15  1  0
 15 16  1  0
 16 17  1  0
 17 18  1  0
 18 19  1  0
 19 20  1  0
 20 21  2  0
 19 22  1  0
 22 23  1  0
 15 24  1  0
 24 25  1  0
 24 26  1  0
 26 27  2  0
 10 28  1  0
 28 29  2  0
  4 30  2  0
 30 31  1  0
 31 32  2  0
 32 33  1  0
 33 34  2  0
 34 35  1  0
 35 36  2  0
 36  2  1  0
 29  7  1  0
 35 30  1  0
 23 16  1  0
  1 37  1  0
  1 38  1  0
  1 39  1  0
  3 40  1  0
  5 41  1  0
  5 42  1  0
  8 43  1  0
  9 44  1  0
 14 45  1  0
 14 46  1  0
 15 47  1  0
 16 48  1  0
 17 49  1  0
 17 50  1  0
 18 51  1  0
 18 52  1  0
 19 53  1  0
 22 54  1  0
 22 55  1  0
 23 56  1  0
 23 57  1  0
 25 58  1  0
 26 59  1  0
 28 60  1  0
 29 61  1  0
 31 62  1  0
 32 63  1  0
 33 64  1  0
 34 65  1  0
M  END
$$$$
