
     RDKit          3D

 52 56  0  0  0  0  0  0  0  0999 V2000
   -0.6383   -4.5927    1.5460 C   0  0  0  0  0  0  0  0  0  0  0  0
   -0.5548   -3.9283    0.3027 O   0  0  0  0  0  0  0  0  0  0  0  0
   -1.0498   -2.6672    0.4988 C   0  0  0  0  0  0  0  0  0  0  0  0
   -1.0421   -1.7966   -0.7323 C   0  0  0  0  0  0  0  0  0  0  0  0
   -1.8891   -2.4425   -1.8007 C   0  0  0  0  0  0  0  0  0  0  0  0
   -1.6141   -3.7629   -2.3643 C   0  0  0  0  0  0  0  0  0  0  0  0
   -1.2190   -2.5393   -3.1586 C   0  0  0  0  0  0  0  0  0  0  0  0
   -1.6818   -0.5372   -0.3776 N   0  0  0  0  0  0  0  0  0  0  0  0
   -2.9914   -0.4212   -0.1322 C   0  0  0  0  0  0  0  0  0  0  0  0
   -3.2494    0.8560    0.1608 N   0  0  0  0  0  0  0  0  0  0  0  0
   -2.1018    1.5261    0.0963 C   0  0  0  0  0  0  0  0  0  0  0  0
   -1.8318    2.9431    0.3251 C   0  0  0  0  0  0  0  0  0  0  0  0
   -2.4383    3.9190   -0.4286 C   0  0  0  0  0  0  0  0  0  0  0  0
   -2.1544    5.2294   -0.1800 C   0  0  0  0  0  0  0  0  0  0  0  0
   -1.2689    5.5553    0.8168 C   0  0  0  0  0  0  0  0  0  0  0  0
   -0.9508    6.8489    1.1049 F   0  0  0  0  0  0  0  0  0  0  0  0
   -0.6488    4.5710    1.5864 C   0  0  0  0  0  0  0  0  0  0  0  0
   -0.9344    3.2598    1.3361 C   0  0  0  0  0  0  0  0  0  0  0  0
   -1.1018    0.6455   -0.2455 C   0  0  0  0  0  0  0  0  0  0  0  0
    0.3330    0.9193   -0.4329 C   0  0  0  0  0  0  0  0  0  0  0  0
    0.7850    1.7725   -1.4166 C   0  0  0  0  0  0  0  0  0  0  0  0
    2.1505    2.0332   -1.5945 C   0  0  0  0  0  0  0  0  0  0  0  0
    2.9926    1.3765   -0.7182 C   0  0  0  0  0  0  0  0  0  0  0  0
    4.3336    1.3996   -0.6116 N   0  0  0  0  0  0  0  0  0  0  0  0
    4.7315    0.5995    0.3934 C   0  0  0  0  0  0  0  0  0  0  0  0
    3.5983    0.0402    0.9542 C   0  0  0  0  0  0  0  0  0  0  0  0
    3.5410   -0.8897    2.0712 C   0  0  0  0  0  0  0  0  0  0  0  0
    4.7130   -1.3281    2.7260 N   0  0  0  0  0  0  0  0  0  0  0  0
    2.4244   -1.3036    2.4517 O   0  0  0  0  0  0  0  0  0  0  0  0
    2.5550    0.5440    0.2418 N   0  0  0  0  0  0  0  0  0  0  0  0
    1.2531    0.3320    0.3673 N   0  0  0  0  0  0  0  0  0  0  0  0
   -0.2351   -5.6199    1.3856 H   0  0  0  0  0  0  0  0  0  0  0  0
   -0.0471   -4.0326    2.3181 H   0  0  0  0  0  0  0  0  0  0  0  0
   -1.7158   -4.6181    1.8178 H   0  0  0  0  0  0  0  0  0  0  0  0
   -0.4262   -2.1902    1.3058 H   0  0  0  0  0  0  0  0  0  0  0  0
   -2.1216   -2.7198    0.8345 H   0  0  0  0  0  0  0  0  0  0  0  0
   -0.0031   -1.6226   -1.1033 H   0  0  0  0  0  0  0  0  0  0  0  0
   -2.9612   -2.1388   -1.7754 H   0  0  0  0  0  0  0  0  0  0  0  0
   -0.8415   -4.3979   -1.9386 H   0  0  0  0  0  0  0  0  0  0  0  0
   -2.4460   -4.3247   -2.8240 H   0  0  0  0  0  0  0  0  0  0  0  0
   -0.1287   -2.3844   -3.2221 H   0  0  0  0  0  0  0  0  0  0  0  0
   -1.7892   -2.2392   -4.0412 H   0  0  0  0  0  0  0  0  0  0  0  0
   -3.7608   -1.2006   -0.1532 H   0  0  0  0  0  0  0  0  0  0  0  0
   -3.1268    3.6632   -1.2029 H   0  0  0  0  0  0  0  0  0  0  0  0
   -2.6104    6.0076   -0.7487 H   0  0  0  0  0  0  0  0  0  0  0  0
    0.0430    4.8671    2.3622 H   0  0  0  0  0  0  0  0  0  0  0  0
   -0.4606    2.4962    1.9252 H   0  0  0  0  0  0  0  0  0  0  0  0
    0.0598    2.2440   -2.0580 H   0  0  0  0  0  0  0  0  0  0  0  0
    2.4840    2.6956   -2.3600 H   0  0  0  0  0  0  0  0  0  0  0  0
    5.7449    0.3961    0.7405 H   0  0  0  0  0  0  0  0  0  0  0  0
    4.7632   -2.3234    3.0076 H   0  0  0  0  0  0  0  0  0  0  0  0
    5.5290   -0.7194    2.9447 H   0  0  0  0  0  0  0  0  0  0  0  0
  1  2  1  0
  2  3  1  0
  3  4  1  0
  4  5  1  0
  5  6  1  0
  6  7  1  0
  4  8  1  0
  8  9  1  0
  9 10  2  0
 10 11  1  0
 11 12  1  0
 12 13  2  0
 13 14  1  0
 14 15  2  0
 15 16  1  0
 15 17  1  0
 17 18  2  0
 11 19  2  0
 19 20  1  0
 20 21  1  0
 21 22  2  0
 22 23  1  0
 23 24  2  0
 24 25  1  0
 25 26  2  0
 26 27  1  0
 27 28  1  0
 27 29  2  0
 26 30  1  0
 30 31  1  0
  7  5  1  0
 19  8  1  0
 31 20  2  0
 18 12  1  0
 30 23  1  0
  1 32  1  0
  1 33  1  0
  1 34  1  0
  3 35  1  0
  3 36  1  0
  4 37  1  0
  5 38  1  0
  6 39  1  0
  6 40  1  0
  7 41  1  0
  7 42  1  0
  9 43  1  0
 13 44  1  0
 14 45  1  0
 17 46  1  0
 18 47  1  0
 21 48  1  0
 22 49  1  0
 25 50  1  0
 28 51  1  0
 28 52  1  0
M  END
$$$$
