
     RDKit          3D

 48 50  0  0  0  0  0  0  0  0999 V2000
    4.6853    0.4570    1.3781 C   0  0  0  0  0  0  0  0  0  0  0  0
    3.3999   -0.2272    1.6197 N   0  0  0  0  0  0  0  0  0  0  0  0
    3.4510   -1.4940    0.9565 C   0  0  0  0  0  0  0  0  0  0  0  0
    2.3787    0.6715    1.2051 C   0  0  0  0  0  0  0  0  0  0  0  0
    0.9660    0.3059    1.3573 C   0  0  0  0  0  0  0  0  0  0  0  0
    0.3819   -0.8622    0.7108 C   0  0  0  0  0  0  0  0  0  0  0  0
   -0.7699   -0.8772   -0.0049 C   0  0  0  0  0  0  0  0  0  0  0  0
   -1.1932   -2.1750   -0.5774 C   0  0  0  0  0  0  0  0  0  0  0  0
   -0.0973   -2.9003   -0.9652 C   0  0  0  0  0  0  0  0  0  0  0  0
   -0.4296   -4.1401   -1.4714 C   0  0  0  0  0  0  0  0  0  0  0  0
   -1.7666   -4.5453   -1.5506 C   0  0  0  0  0  0  0  0  0  0  0  0
   -2.8223   -3.7322   -1.1294 C   0  0  0  0  0  0  0  0  0  0  0  0
   -2.5690   -2.4674   -0.6065 C   0  0  0  0  0  0  0  0  0  0  0  0
   -3.8246   -1.8082   -0.2414 C   0  0  0  0  0  0  0  0  0  0  0  0
   -3.7635   -0.5404    0.3399 O   0  0  0  0  0  0  0  0  0  0  0  0
   -2.8496    0.5240    0.1298 C   0  0  0  0  0  0  0  0  0  0  0  0
   -1.4855    0.4236   -0.0758 C   0  0  0  0  0  0  0  0  0  0  0  0
   -0.5427    1.4067   -0.2957 C   0  0  0  0  0  0  0  0  0  0  0  0
   -1.1010    2.6846   -0.2939 C   0  0  0  0  0  0  0  0  0  0  0  0
   -0.2277    3.8570   -0.5103 C   0  0  0  0  0  0  0  0  0  0  0  0
   -0.0621    4.2654   -1.9029 C   0  0  0  0  0  0  0  0  0  0  0  0
    0.7314    5.3427   -2.1758 O   0  0  0  0  0  0  0  0  0  0  0  0
   -0.6551    3.6165   -2.8324 O   0  0  0  0  0  0  0  0  0  0  0  0
   -2.4781    2.8627   -0.0884 C   0  0  0  0  0  0  0  0  0  0  0  0
   -3.3425    1.8028    0.1195 C   0  0  0  0  0  0  0  0  0  0  0  0
    5.0084    1.0260    2.2474 H   0  0  0  0  0  0  0  0  0  0  0  0
    5.4389   -0.2831    1.0409 H   0  0  0  0  0  0  0  0  0  0  0  0
    4.5739    1.1878    0.5364 H   0  0  0  0  0  0  0  0  0  0  0  0
    4.5451   -1.7776    0.8553 H   0  0  0  0  0  0  0  0  0  0  0  0
    3.0545   -2.3081    1.6240 H   0  0  0  0  0  0  0  0  0  0  0  0
    3.0750   -1.5274   -0.0669 H   0  0  0  0  0  0  0  0  0  0  0  0
    2.5468    1.5908    1.8479 H   0  0  0  0  0  0  0  0  0  0  0  0
    2.6767    1.0042    0.1783 H   0  0  0  0  0  0  0  0  0  0  0  0
    1.0507   -0.1971    2.3937 H   0  0  0  0  0  0  0  0  0  0  0  0
    0.2592    1.0409    1.7979 H   0  0  0  0  0  0  0  0  0  0  0  0
    0.8854   -1.8223    0.8036 H   0  0  0  0  0  0  0  0  0  0  0  0
    0.8806   -2.4570   -0.8647 H   0  0  0  0  0  0  0  0  0  0  0  0
    0.3867   -4.7669   -1.7964 H   0  0  0  0  0  0  0  0  0  0  0  0
   -1.9900   -5.5438   -1.9610 H   0  0  0  0  0  0  0  0  0  0  0  0
   -3.8094   -4.1551   -1.2411 H   0  0  0  0  0  0  0  0  0  0  0  0
   -4.3096   -2.4844    0.5246 H   0  0  0  0  0  0  0  0  0  0  0  0
   -4.5226   -1.8564   -1.1069 H   0  0  0  0  0  0  0  0  0  0  0  0
    0.4760    1.1989   -0.5226 H   0  0  0  0  0  0  0  0  0  0  0  0
    0.7342    3.6136   -0.0308 H   0  0  0  0  0  0  0  0  0  0  0  0
   -0.6555    4.7110    0.0892 H   0  0  0  0  0  0  0  0  0  0  0  0
    1.0097    5.5774   -3.1320 H   0  0  0  0  0  0  0  0  0  0  0  0
   -2.9239    3.8709   -0.0858 H   0  0  0  0  0  0  0  0  0  0  0  0
   -4.4049    1.9072    0.2785 H   0  0  0  0  0  0  0  0  0  0  0  0
  1  2  1  0
  2  3  1  0
  2  4  1  0
  4  5  1  0
  5  6  1  0
  6  7  2  0
  7  8  1  0
  8  9  2  0
  9 10  1  0
 10 11  2  0
 11 12  1  0
 12 13  2  0
 13 14  1  0
 14 15  1  0
 15 16  1  0
 16 17  2  0
 17 18  1  0
 18 19  2  0
 19 20  1  0
 20 21  1  0
 21 22  1  0
 21 23  2  0
 19 24  1  0
 24 25  2  0
 17  7  1  0
 13  8  1  0
 25 16  1  0
  1 26  1  0
  1 27  1  0
  1 28  1  0
  3 29  1  0
  3 30  1  0
  3 31  1  0
  4 32  1  0
  4 33  1  0
  5 34  1  0
  5 35  1  0
  6 36  1  0
  9 37  1  0
 10 38  1  0
 11 39  1  0
 12 40  1  0
 14 41  1  0
 14 42  1  0
 18 43  1  0
 20 44  1  0
 20 45  1  0
 22 46  1  0
 24 47  1  0
 25 48  1  0
M  END
$$$$
