
     RDKit          3D

 63 67  0  0  0  0  0  0  0  0999 V2000
   -5.6623   -2.5169    0.2789 C   0  0  0  0  0  0  0  0  0  0  0  0
   -5.7500   -1.0039    0.3028 C   0  0  2  0  0  0  0  0  0  0  0  0
   -6.3894   -0.4996   -0.9964 C   0  0  0  0  0  0  0  0  0  0  0  0
   -5.8618    0.9074   -1.1213 C   0  0  0  0  0  0  0  0  0  0  0  0
   -4.7397    1.0216   -0.1055 C   0  0  1  0  0  0  0  0  0  0  0  0
   -5.3027    1.7267    1.1280 C   0  0  0  0  0  0  0  0  0  0  0  0
   -4.4503   -0.3663    0.2481 N   0  0  0  0  0  0  0  0  0  0  0  0
   -3.2227   -1.0146    0.4765 C   0  0  0  0  0  0  0  0  0  0  0  0
   -3.1934   -2.2132    0.8315 O   0  0  0  0  0  0  0  0  0  0  0  0
   -1.8747   -0.3166    0.3013 C   0  0  2  0  0  0  0  0  0  0  0  0
   -0.6917   -1.1468    0.6883 C   0  0  0  0  0  0  0  0  0  0  0  0
   -1.2179    0.0109    1.5267 C   0  0  1  0  0  0  0  0  0  0  0  0
   -0.1901    1.2324    1.4813 C   0  0  1  0  0  0  0  0  0  0  0  0
   -0.5961    2.1502    2.5606 C   0  0  0  0  0  0  0  0  0  0  0  0
    1.1464    0.6549    1.7342 C   0  0  0  0  0  0  0  0  0  0  0  0
    2.1053    0.5908    0.7228 C   0  0  0  0  0  0  0  0  0  0  0  0
    3.3478    0.0363    0.9336 C   0  0  0  0  0  0  0  0  0  0  0  0
    4.3468    0.0192   -0.1599 C   0  0  0  0  0  0  0  0  0  0  0  0
    5.1349   -1.0229   -0.3803 C   0  0  0  0  0  0  0  0  0  0  0  0
    4.9772   -2.0863    0.4574 F   0  0  0  0  0  0  0  0  0  0  0  0
    6.1345   -1.0049   -1.4323 C   0  0  0  0  0  0  0  0  0  0  0  0
    7.0166   -2.0164   -1.7359 C   0  0  0  0  0  0  0  0  0  0  0  0
    7.9772   -1.9406   -2.7262 C   0  0  0  0  0  0  0  0  0  0  0  0
    8.0849   -0.7706   -3.4895 C   0  0  0  0  0  0  0  0  0  0  0  0
    9.0583   -0.6071   -4.4921 C   0  0  0  0  0  0  0  0  0  0  0  0
    9.8601   -0.4905   -5.3298 N   0  0  0  0  0  0  0  0  0  0  0  0
    7.1729    0.2193   -3.1476 C   0  0  0  0  0  0  0  0  0  0  0  0
    6.2537    0.1210   -2.1869 N   0  0  0  0  0  0  0  0  0  0  0  0
    3.6592   -0.4682    2.1737 C   0  0  0  0  0  0  0  0  0  0  0  0
    2.7373   -0.4258    3.2067 C   0  0  0  0  0  0  0  0  0  0  0  0
    1.4933    0.1435    2.9532 C   0  0  0  0  0  0  0  0  0  0  0  0
    0.5584    0.1862    3.9616 F   0  0  0  0  0  0  0  0  0  0  0  0
   -0.4519    1.7186    0.2262 N   0  0  0  0  0  0  0  0  0  0  0  0
   -0.6720    2.1004   -0.7945 C   0  0  0  0  0  0  0  0  0  0  0  0
   -0.6874    2.8951   -1.8466 N   0  0  0  0  0  0  0  0  0  0  0  0
   -1.7907    0.4976   -1.2925 S   0  0  0  0  0  0  0  0  0  0  0  0
   -5.4371   -2.8465    1.3152 H   0  0  0  0  0  0  0  0  0  0  0  0
   -6.6896   -2.9032    0.0090 H   0  0  0  0  0  0  0  0  0  0  0  0
   -4.9099   -2.8813   -0.4500 H   0  0  0  0  0  0  0  0  0  0  0  0
   -6.3596   -0.6298    1.1344 H   0  0  0  0  0  0  0  0  0  0  0  0
   -5.9946   -1.1097   -1.8339 H   0  0  0  0  0  0  0  0  0  0  0  0
   -7.4899   -0.4886   -0.9272 H   0  0  0  0  0  0  0  0  0  0  0  0
   -5.4381    1.0659   -2.1731 H   0  0  0  0  0  0  0  0  0  0  0  0
   -6.6875    1.6144   -0.9402 H   0  0  0  0  0  0  0  0  0  0  0  0
   -3.8832    1.5443   -0.5299 H   0  0  0  0  0  0  0  0  0  0  0  0
   -5.0704    1.1997    2.0792 H   0  0  0  0  0  0  0  0  0  0  0  0
   -4.8030    2.7160    1.2298 H   0  0  0  0  0  0  0  0  0  0  0  0
   -6.3932    1.8621    1.0553 H   0  0  0  0  0  0  0  0  0  0  0  0
   -0.9211   -2.1750    0.9845 H   0  0  0  0  0  0  0  0  0  0  0  0
    0.2269   -1.0285    0.0900 H   0  0  0  0  0  0  0  0  0  0  0  0
   -1.6245   -0.2304    2.5060 H   0  0  0  0  0  0  0  0  0  0  0  0
    0.2135    2.8174    2.9425 H   0  0  0  0  0  0  0  0  0  0  0  0
   -1.3946    2.8840    2.2382 H   0  0  0  0  0  0  0  0  0  0  0  0
   -1.1041    1.6131    3.4014 H   0  0  0  0  0  0  0  0  0  0  0  0
    1.8519    0.9924   -0.2372 H   0  0  0  0  0  0  0  0  0  0  0  0
    4.4845    0.8716   -0.8358 H   0  0  0  0  0  0  0  0  0  0  0  0
    6.9531   -2.9228   -1.1564 H   0  0  0  0  0  0  0  0  0  0  0  0
    8.6601   -2.7550   -2.9393 H   0  0  0  0  0  0  0  0  0  0  0  0
    7.2850    1.1347   -3.7623 H   0  0  0  0  0  0  0  0  0  0  0  0
    4.6226   -0.9039    2.3146 H   0  0  0  0  0  0  0  0  0  0  0  0
    2.9444   -0.7970    4.1809 H   0  0  0  0  0  0  0  0  0  0  0  0
    0.1238    2.9500   -2.5583 H   0  0  0  0  0  0  0  0  0  0  0  0
   -1.4855    3.5572   -2.0935 H   0  0  0  0  0  0  0  0  0  0  0  0
  1  2  1  0
  2  3  1  0
  3  4  1  0
  4  5  1  0
  5  6  1  0
  5  7  1  0
  7  8  1  0
  8  9  2  0
 10  8  1  1
 10 11  1  0
 11 12  1  0
 12 13  1  0
 13 14  1  1
 13 15  1  0
 15 16  2  0
 16 17  1  0
 17 18  1  0
 18 19  2  0
 19 20  1  0
 19 21  1  0
 21 22  2  0
 22 23  1  0
 23 24  2  0
 24 25  1  0
 25 26  3  0
 24 27  1  0
 27 28  2  0
 17 29  2  0
 29 30  1  0
 30 31  2  0
 31 32  1  0
 13 33  1  0
 33 34  2  0
 34 35  1  0
 34 36  1  0
  7  2  1  0
 12 10  1  0
 31 15  1  0
 36 10  1  0
 28 21  1  0
  1 37  1  0
  1 38  1  0
  1 39  1  0
  2 40  1  1
  3 41  1  0
  3 42  1  0
  4 43  1  0
  4 44  1  0
  5 45  1  6
  6 46  1  0
  6 47  1  0
  6 48  1  0
 11 49  1  0
 11 50  1  0
 12 51  1  1
 14 52  1  0
 14 53  1  0
 14 54  1  0
 16 55  1  0
 18 56  1  0
 22 57  1  0
 23 58  1  0
 27 59  1  0
 29 60  1  0
 30 61  1  0
 35 62  1  0
 35 63  1  0
M  END
$$$$
