
     RDKit          3D

 61 66  0  0  0  0  0  0  0  0999 V2000
    5.8008    3.2703   -0.6256 C   0  0  0  0  0  0  0  0  0  0  0  0
    6.3518    2.2398    0.2418 N   0  0  0  0  0  0  0  0  0  0  0  0
    6.6328    0.9445   -0.2477 C   0  0  0  0  0  0  0  0  0  0  0  0
    7.8377    0.6664   -0.7660 N   0  0  0  0  0  0  0  0  0  0  0  0
    8.1451   -0.5532   -1.2405 C   0  0  0  0  0  0  0  0  0  0  0  0
    7.1293   -1.5186   -1.1611 C   0  0  0  0  0  0  0  0  0  0  0  0
    5.8905   -1.2525   -0.6341 C   0  0  0  0  0  0  0  0  0  0  0  0
    4.8435   -2.2517   -0.5509 C   0  0  0  0  0  0  0  0  0  0  0  0
    5.0265   -3.5466   -0.9845 C   0  0  0  0  0  0  0  0  0  0  0  0
    3.9841   -4.4579   -0.8740 C   0  0  0  0  0  0  0  0  0  0  0  0
    2.7859   -4.0588   -0.3348 C   0  0  0  0  0  0  0  0  0  0  0  0
    2.6375   -2.7902    0.0790 N   0  0  0  0  0  0  0  0  0  0  0  0
    3.6254   -1.8809   -0.0132 C   0  0  0  0  0  0  0  0  0  0  0  0
    3.4755   -0.5712    0.4110 O   0  0  0  0  0  0  0  0  0  0  0  0
    2.2428   -0.2302    0.9505 C   0  0  0  0  0  0  0  0  0  0  0  0
    2.0178   -0.2938    2.3101 C   0  0  0  0  0  0  0  0  0  0  0  0
    0.7644    0.0543    2.8274 C   0  0  0  0  0  0  0  0  0  0  0  0
   -0.2443    0.4581    1.9984 C   0  0  0  0  0  0  0  0  0  0  0  0
   -1.5016    0.8091    2.5393 N   0  0  0  0  0  0  0  0  0  0  0  0
   -2.6422    1.0694    1.7171 C   0  0  0  0  0  0  0  0  0  0  0  0
   -2.9288    2.2652    1.1835 N   0  0  0  0  0  0  0  0  0  0  0  0
   -3.9830    2.4832    0.4248 N   0  0  0  0  0  0  0  0  0  0  0  0
   -4.8926    1.5110    0.1054 C   0  0  0  0  0  0  0  0  0  0  0  0
   -6.0256    1.8236   -0.7491 C   0  0  0  0  0  0  0  0  0  0  0  0
   -7.3403    1.5647   -0.4486 C   0  0  0  0  0  0  0  0  0  0  0  0
   -8.3844    1.8687   -1.3294 C   0  0  0  0  0  0  0  0  0  0  0  0
   -8.1064    2.4492   -2.5463 C   0  0  0  0  0  0  0  0  0  0  0  0
   -9.0828    2.7682   -3.4456 F   0  0  0  0  0  0  0  0  0  0  0  0
   -6.8021    2.7145   -2.8612 C   0  0  0  0  0  0  0  0  0  0  0  0
   -5.7809    2.4105   -1.9858 C   0  0  0  0  0  0  0  0  0  0  0  0
   -4.6299    0.2658    0.6359 C   0  0  0  0  0  0  0  0  0  0  0  0
   -5.4793   -0.7836    0.3579 C   0  0  0  0  0  0  0  0  0  0  0  0
   -5.2077   -2.0441    0.8850 C   0  0  0  0  0  0  0  0  0  0  0  0
   -4.1014   -2.2276    1.6716 C   0  0  0  0  0  0  0  0  0  0  0  0
   -3.2233   -1.2097    1.9754 C   0  0  0  0  0  0  0  0  0  0  0  0
   -3.5179    0.0319    1.4378 C   0  0  0  0  0  0  0  0  0  0  0  0
    0.0007    0.5149    0.6426 C   0  0  0  0  0  0  0  0  0  0  0  0
    1.2384    0.1742    0.1050 C   0  0  0  0  0  0  0  0  0  0  0  0
    5.6816    0.0033   -0.1844 N   0  0  0  0  0  0  0  0  0  0  0  0
    6.2354    3.1718   -1.6285 H   0  0  0  0  0  0  0  0  0  0  0  0
    4.7212    3.1044   -0.6776 H   0  0  0  0  0  0  0  0  0  0  0  0
    6.0534    4.2713   -0.1927 H   0  0  0  0  0  0  0  0  0  0  0  0
    6.5568    2.4320    1.2597 H   0  0  0  0  0  0  0  0  0  0  0  0
    9.1224   -0.8021   -1.6678 H   0  0  0  0  0  0  0  0  0  0  0  0
    7.3767   -2.5064   -1.5452 H   0  0  0  0  0  0  0  0  0  0  0  0
    5.9700   -3.8735   -1.4121 H   0  0  0  0  0  0  0  0  0  0  0  0
    4.1349   -5.4908   -1.2223 H   0  0  0  0  0  0  0  0  0  0  0  0
    1.9816   -4.7807   -0.2544 H   0  0  0  0  0  0  0  0  0  0  0  0
    2.8109   -0.6137    2.9814 H   0  0  0  0  0  0  0  0  0  0  0  0
    0.6023    0.0012    3.8881 H   0  0  0  0  0  0  0  0  0  0  0  0
   -1.5962    0.8809    3.5729 H   0  0  0  0  0  0  0  0  0  0  0  0
   -7.6187    1.1257    0.4992 H   0  0  0  0  0  0  0  0  0  0  0  0
   -9.4123    1.6552   -1.0747 H   0  0  0  0  0  0  0  0  0  0  0  0
   -6.5569    3.1779   -3.8285 H   0  0  0  0  0  0  0  0  0  0  0  0
   -4.7537    2.6269   -2.2526 H   0  0  0  0  0  0  0  0  0  0  0  0
   -6.3406   -0.6317   -0.2793 H   0  0  0  0  0  0  0  0  0  0  0  0
   -5.8984   -2.8679    0.6515 H   0  0  0  0  0  0  0  0  0  0  0  0
   -3.9056   -3.2226    2.0766 H   0  0  0  0  0  0  0  0  0  0  0  0
   -2.3631   -1.4022    2.5999 H   0  0  0  0  0  0  0  0  0  0  0  0
   -0.7582    0.8246   -0.0337 H   0  0  0  0  0  0  0  0  0  0  0  0
    1.4007    0.2295   -0.9710 H   0  0  0  0  0  0  0  0  0  0  0  0
  1  2  1  0
  2  3  1  0
  3  4  2  0
  4  5  1  0
  5  6  2  0
  6  7  1  0
  7  8  1  0
  8  9  2  0
  9 10  1  0
 10 11  2  0
 11 12  1  0
 12 13  2  0
 13 14  1  0
 14 15  1  0
 15 16  2  0
 16 17  1  0
 17 18  2  0
 18 19  1  0
 19 20  1  0
 20 21  2  0
 21 22  1  0
 22 23  2  0
 23 24  1  0
 24 25  2  0
 25 26  1  0
 26 27  2  0
 27 28  1  0
 27 29  1  0
 29 30  2  0
 23 31  1  0
 31 32  2  0
 32 33  1  0
 33 34  2  0
 34 35  1  0
 35 36  2  0
 18 37  1  0
 37 38  2  0
  7 39  2  0
 39  3  1  0
 13  8  1  0
 38 15  1  0
 36 20  1  0
 30 24  1  0
 36 31  1  0
  1 40  1  0
  1 41  1  0
  1 42  1  0
  2 43  1  0
  5 44  1  0
  6 45  1  0
  9 46  1  0
 10 47  1  0
 11 48  1  0
 16 49  1  0
 17 50  1  0
 19 51  1  0
 25 52  1  0
 26 53  1  0
 29 54  1  0
 30 55  1  0
 32 56  1  0
 33 57  1  0
 34 58  1  0
 35 59  1  0
 37 60  1  0
 38 61  1  0
M  END
$$$$
