
     RDKit          3D

 99106  0  0  0  0  0  0  0  0999 V2000
    5.6903    3.0002   -4.6532 C   0  0  0  0  0  0  0  0  0  0  0  0
    6.5846    2.9804   -3.5681 O   0  0  0  0  0  0  0  0  0  0  0  0
    6.1553    2.3785   -2.3766 C   0  0  0  0  0  0  0  0  0  0  0  0
    4.8990    1.8115   -2.2401 C   0  0  0  0  0  0  0  0  0  0  0  0
    4.4546    1.2132   -1.0796 C   0  0  0  0  0  0  0  0  0  0  0  0
    3.1878    0.5897   -0.9413 N   0  0  0  0  0  0  0  0  0  0  0  0
    2.5622   -0.0504   -2.0434 C   0  0  0  0  0  0  0  0  0  0  0  0
    3.2409   -0.1484   -3.1945 N   0  0  0  0  0  0  0  0  0  0  0  0
    2.7473   -0.7522   -4.2842 C   0  0  0  0  0  0  0  0  0  0  0  0
    1.4863   -1.2809   -4.1766 C   0  0  0  0  0  0  0  0  0  0  0  0
    0.7553   -1.1923   -2.9873 C   0  0  0  0  0  0  0  0  0  0  0  0
   -0.5056   -1.7545   -2.9753 O   0  0  0  0  0  0  0  0  0  0  0  0
   -1.4214   -1.7508   -1.9606 C   0  0  0  0  0  0  0  0  0  0  0  0
   -1.8037   -2.9609   -1.3619 C   0  0  0  0  0  0  0  0  0  0  0  0
   -2.7253   -3.0054   -0.3401 C   0  0  0  0  0  0  0  0  0  0  0  0
   -3.3078   -1.8551    0.1319 C   0  0  0  0  0  0  0  0  0  0  0  0
   -4.2788   -1.8563    1.1829 N   0  0  0  0  0  0  0  0  0  0  0  0
   -5.6423   -2.0009    0.7690 C   0  0  0  0  0  0  0  0  0  0  0  0
   -5.9320   -2.1158   -0.4658 O   0  0  0  0  0  0  0  0  0  0  0  0
   -6.7271   -2.0262    1.6769 N   0  0  0  0  0  0  0  0  0  0  0  0
   -8.0439   -2.1819    1.2311 C   0  0  0  0  0  0  0  0  0  0  0  0
   -8.6607   -3.4056    1.0622 C   0  0  0  0  0  0  0  0  0  0  0  0
   -9.9320   -3.1361    0.6190 C   0  0  0  0  0  0  0  0  0  0  0  0
  -10.9471   -4.1786    0.3011 C   0  0  0  0  0  0  0  0  0  0  0  0
  -11.9917   -3.8741   -0.7173 C   0  0  0  0  0  0  0  0  0  0  0  0
  -12.3510   -3.9362    0.7905 C   0  0  0  0  0  0  0  0  0  0  0  0
  -10.0445   -1.8004    0.5354 N   0  0  0  0  0  0  0  0  0  0  0  0
   -8.8973   -1.2056    0.9067 N   0  0  0  0  0  0  0  0  0  0  0  0
   -8.7297    0.1906    0.9142 C   0  0  0  0  0  0  0  0  0  0  0  0
   -9.1944    0.9943   -0.1362 C   0  0  0  0  0  0  0  0  0  0  0  0
   -9.0243    2.3668   -0.1188 C   0  0  0  0  0  0  0  0  0  0  0  0
   -8.3929    2.9701    0.9355 C   0  0  0  0  0  0  0  0  0  0  0  0
   -8.2197    4.4541    0.9334 C   0  0  0  0  0  0  0  0  0  0  0  0
   -7.9381    2.1941    1.9613 C   0  0  0  0  0  0  0  0  0  0  0  0
   -8.0979    0.8096    1.9656 C   0  0  0  0  0  0  0  0  0  0  0  0
   -2.9468   -0.6518   -0.4421 C   0  0  0  0  0  0  0  0  0  0  0  0
   -3.5217    0.5087    0.0036 C   0  0  0  0  0  0  0  0  0  0  0  0
   -3.1974    1.7181   -0.5489 C   0  0  0  0  0  0  0  0  0  0  0  0
   -2.2870    1.7632   -1.5588 C   0  0  0  0  0  0  0  0  0  0  0  0
   -1.6873    0.6114   -2.0329 C   0  0  0  0  0  0  0  0  0  0  0  0
   -2.0231   -0.6073   -1.4657 C   0  0  0  0  0  0  0  0  0  0  0  0
    1.3270   -0.5733   -1.9546 N   0  0  0  0  0  0  0  0  0  0  0  0
    5.3507    1.1997   -0.0050 C   0  0  0  0  0  0  0  0  0  0  0  0
    6.6074    1.7394   -0.0644 C   0  0  0  0  0  0  0  0  0  0  0  0
    7.5358    1.7044    1.0563 C   0  0  0  0  0  0  0  0  0  0  0  0
    8.6524    2.3021    0.8899 O   0  0  0  0  0  0  0  0  0  0  0  0
    7.3034    1.0684    2.2951 N   0  0  0  0  0  0  0  0  0  0  0  0
    8.1965    0.9940    3.4036 C   0  0  0  0  0  0  0  0  0  0  0  0
    9.4158    0.1766    3.2470 C   0  0  0  0  0  0  0  0  0  0  0  0
   10.2047    0.5024    2.1009 N   0  0  0  0  0  0  0  0  0  0  0  0
   11.6401    0.1625    2.3825 C   0  0  0  0  0  0  0  0  0  0  0  0
   12.3884    0.7174    1.1990 C   0  0  0  0  0  0  0  0  0  0  0  0
   11.5404    0.9927    0.1047 O   0  0  0  0  0  0  0  0  0  0  0  0
   10.7101   -0.0951   -0.1579 C   0  0  0  0  0  0  0  0  0  0  0  0
    9.9125   -0.5296    1.0381 C   0  0  0  0  0  0  0  0  0  0  0  0
    6.9723    2.3229   -1.2762 C   0  0  0  0  0  0  0  0  0  0  0  0
    5.2827    1.9901   -4.8198 H   0  0  0  0  0  0  0  0  0  0  0  0
    4.8525    3.7179   -4.5234 H   0  0  0  0  0  0  0  0  0  0  0  0
    6.2860    3.2705   -5.5639 H   0  0  0  0  0  0  0  0  0  0  0  0
    4.2437    1.8737   -3.1083 H   0  0  0  0  0  0  0  0  0  0  0  0
    2.7231    0.6098   -0.0092 H   0  0  0  0  0  0  0  0  0  0  0  0
    3.3215   -0.8212   -5.2190 H   0  0  0  0  0  0  0  0  0  0  0  0
    1.0326   -1.7819   -5.0222 H   0  0  0  0  0  0  0  0  0  0  0  0
   -1.3251   -3.8573   -1.7556 H   0  0  0  0  0  0  0  0  0  0  0  0
   -2.9972   -3.9755    0.1031 H   0  0  0  0  0  0  0  0  0  0  0  0
   -4.0487   -1.7617    2.1893 H   0  0  0  0  0  0  0  0  0  0  0  0
   -6.5365   -1.9335    2.6967 H   0  0  0  0  0  0  0  0  0  0  0  0
   -8.2032   -4.3860    1.2527 H   0  0  0  0  0  0  0  0  0  0  0  0
  -10.6140   -5.2345    0.3909 H   0  0  0  0  0  0  0  0  0  0  0  0
  -12.4073   -4.6828   -1.3472 H   0  0  0  0  0  0  0  0  0  0  0  0
  -11.9585   -2.8675   -1.1741 H   0  0  0  0  0  0  0  0  0  0  0  0
  -12.6325   -2.9664    1.2435 H   0  0  0  0  0  0  0  0  0  0  0  0
  -13.0021   -4.7846    1.0669 H   0  0  0  0  0  0  0  0  0  0  0  0
   -9.6934    0.5028   -0.9672 H   0  0  0  0  0  0  0  0  0  0  0  0
   -9.3840    2.9960   -0.9344 H   0  0  0  0  0  0  0  0  0  0  0  0
   -8.2011    4.8467   -0.0966 H   0  0  0  0  0  0  0  0  0  0  0  0
   -9.1433    4.8659    1.4243 H   0  0  0  0  0  0  0  0  0  0  0  0
   -7.3701    4.7854    1.5583 H   0  0  0  0  0  0  0  0  0  0  0  0
   -7.4419    2.6583    2.7941 H   0  0  0  0  0  0  0  0  0  0  0  0
   -7.7327    0.2038    2.7862 H   0  0  0  0  0  0  0  0  0  0  0  0
   -4.2491    0.4342    0.8175 H   0  0  0  0  0  0  0  0  0  0  0  0
   -3.6593    2.6373   -0.1906 H   0  0  0  0  0  0  0  0  0  0  0  0
   -1.9869    2.6919   -2.0402 H   0  0  0  0  0  0  0  0  0  0  0  0
   -0.9672    0.6765   -2.8465 H   0  0  0  0  0  0  0  0  0  0  0  0
    4.9840    0.7232    0.9089 H   0  0  0  0  0  0  0  0  0  0  0  0
    6.3501    0.5993    2.3831 H   0  0  0  0  0  0  0  0  0  0  0  0
    7.6299    0.7216    4.3507 H   0  0  0  0  0  0  0  0  0  0  0  0
    8.5175    2.0844    3.5858 H   0  0  0  0  0  0  0  0  0  0  0  0
   10.0127    0.2165    4.1985 H   0  0  0  0  0  0  0  0  0  0  0  0
    9.1294   -0.9288    3.1882 H   0  0  0  0  0  0  0  0  0  0  0  0
   11.8658    0.6404    3.3407 H   0  0  0  0  0  0  0  0  0  0  0  0
   11.7883   -0.9137    2.4336 H   0  0  0  0  0  0  0  0  0  0  0  0
   12.8010    1.7056    1.5035 H   0  0  0  0  0  0  0  0  0  0  0  0
   13.1641    0.0284    0.8120 H   0  0  0  0  0  0  0  0  0  0  0  0
    9.9893    0.2258   -0.9433 H   0  0  0  0  0  0  0  0  0  0  0  0
   11.2754   -0.9412   -0.6062 H   0  0  0  0  0  0  0  0  0  0  0  0
    8.8623   -0.6798    0.9068 H   0  0  0  0  0  0  0  0  0  0  0  0
   10.4304   -1.4544    1.4328 H   0  0  0  0  0  0  0  0  0  0  0  0
    7.9632    2.7536   -1.3413 H   0  0  0  0  0  0  0  0  0  0  0  0
  1  2  1  0
  2  3  1  0
  3  4  2  0
  4  5  1  0
  5  6  1  0
  6  7  1  0
  7  8  2  0
  8  9  1  0
  9 10  2  0
 10 11  1  0
 11 12  1  0
 12 13  1  0
 13 14  2  0
 14 15  1  0
 15 16  2  0
 16 17  1  0
 17 18  1  0
 18 19  2  0
 18 20  1  0
 20 21  1  0
 21 22  2  0
 22 23  1  0
 23 24  1  0
 24 25  1  0
 25 26  1  0
 23 27  2  0
 27 28  1  0
 28 29  1  0
 29 30  2  0
 30 31  1  0
 31 32  2  0
 32 33  1  0
 32 34  1  0
 34 35  2  0
 16 36  1  0
 36 37  2  0
 37 38  1  0
 38 39  2  0
 39 40  1  0
 40 41  2  0
 11 42  2  0
  5 43  2  0
 43 44  1  0
 44 45  1  0
 45 46  2  0
 45 47  1  0
 47 48  1  0
 48 49  1  0
 49 50  1  0
 50 51  1  0
 51 52  1  0
 52 53  1  0
 53 54  1  0
 54 55  1  0
 44 56  2  0
 56  3  1  0
 42  7  1  0
 55 50  1  0
 41 13  1  0
 28 21  1  0
 35 29  1  0
 41 36  1  0
 26 24  1  0
  1 57  1  0
  1 58  1  0
  1 59  1  0
  4 60  1  0
  6 61  1  0
  9 62  1  0
 10 63  1  0
 14 64  1  0
 15 65  1  0
 17 66  1  0
 20 67  1  0
 22 68  1  0
 24 69  1  0
 25 70  1  0
 25 71  1  0
 26 72  1  0
 26 73  1  0
 30 74  1  0
 31 75  1  0
 33 76  1  0
 33 77  1  0
 33 78  1  0
 34 79  1  0
 35 80  1  0
 37 81  1  0
 38 82  1  0
 39 83  1  0
 40 84  1  0
 43 85  1  0
 47 86  1  0
 48 87  1  0
 48 88  1  0
 49 89  1  0
 49 90  1  0
 51 91  1  0
 51 92  1  0
 52 93  1  0
 52 94  1  0
 54 95  1  0
 54 96  1  0
 55 97  1  0
 55 98  1  0
 56 99  1  0
M  END
$$$$
