
     RDKit          3D

 43 45  0  0  0  0  0  0  0  0999 V2000
    0.9574   -2.7075   -0.3780 C   0  0  0  0  0  0  0  0  0  0  0  0
   -0.3748   -2.0250   -0.4116 C   0  0  2  0  0  0  0  0  0  0  0  0
   -1.1392   -2.3567   -1.6965 C   0  0  0  0  0  0  0  0  0  0  0  0
   -2.5828   -1.9604   -1.4622 C   0  0  0  0  0  0  0  0  0  0  0  0
   -2.6324   -0.5907   -0.9892 N   0  0  0  0  0  0  0  0  0  0  0  0
   -3.7869    0.0535   -0.5162 C   0  0  0  0  0  0  0  0  0  0  0  0
   -4.8710   -0.5614   -0.4852 O   0  0  0  0  0  0  0  0  0  0  0  0
   -3.7414    1.4529   -0.0518 C   0  0  0  0  0  0  0  0  0  0  0  0
   -5.0718    1.9029    0.4124 C   0  0  0  0  0  0  0  0  0  0  0  0
   -6.1048    2.2487    0.7927 N   0  0  0  0  0  0  0  0  0  0  0  0
   -1.3735    0.1237   -1.0225 C   0  0  0  0  0  0  0  0  0  0  0  0
   -0.3656   -0.5777   -0.1168 C   0  0  2  0  0  0  0  0  0  0  0  0
    0.9179    0.0922   -0.2100 N   0  0  0  0  0  0  0  0  0  0  0  0
    1.6500    0.0821   -1.4446 C   0  0  0  0  0  0  0  0  0  0  0  0
    1.3866    0.7735    0.9245 C   0  0  0  0  0  0  0  0  0  0  0  0
    0.4961    1.0498    1.9171 N   0  0  0  0  0  0  0  0  0  0  0  0
    0.8012    1.7127    3.0231 C   0  0  0  0  0  0  0  0  0  0  0  0
    2.0523    2.1353    3.1774 N   0  0  0  0  0  0  0  0  0  0  0  0
    2.9912    1.9058    2.2514 C   0  0  0  0  0  0  0  0  0  0  0  0
    4.3117    2.2424    2.2264 N   0  0  0  0  0  0  0  0  0  0  0  0
    4.8255    1.7753    1.0816 C   0  0  0  0  0  0  0  0  0  0  0  0
    3.8210    1.1318    0.3655 C   0  0  0  0  0  0  0  0  0  0  0  0
    2.6724    1.2186    1.1059 C   0  0  0  0  0  0  0  0  0  0  0  0
    1.6236   -2.1195    0.2867 H   0  0  0  0  0  0  0  0  0  0  0  0
    1.4048   -2.8892   -1.3780 H   0  0  0  0  0  0  0  0  0  0  0  0
    0.8417   -3.6891    0.1338 H   0  0  0  0  0  0  0  0  0  0  0  0
   -1.0106   -2.5256    0.3867 H   0  0  0  0  0  0  0  0  0  0  0  0
   -0.7022   -1.8417   -2.5677 H   0  0  0  0  0  0  0  0  0  0  0  0
   -1.0797   -3.4625   -1.8370 H   0  0  0  0  0  0  0  0  0  0  0  0
   -3.1772   -2.0517   -2.3986 H   0  0  0  0  0  0  0  0  0  0  0  0
   -2.9746   -2.6263   -0.6588 H   0  0  0  0  0  0  0  0  0  0  0  0
   -3.4386    2.1401   -0.8860 H   0  0  0  0  0  0  0  0  0  0  0  0
   -3.0100    1.5701    0.7861 H   0  0  0  0  0  0  0  0  0  0  0  0
   -1.5096    1.1319   -0.5738 H   0  0  0  0  0  0  0  0  0  0  0  0
   -0.9993    0.2702   -2.0424 H   0  0  0  0  0  0  0  0  0  0  0  0
   -0.7955   -0.4039    0.9240 H   0  0  0  0  0  0  0  0  0  0  0  0
    2.0322    1.0739   -1.7525 H   0  0  0  0  0  0  0  0  0  0  0  0
    0.9420   -0.1621   -2.3191 H   0  0  0  0  0  0  0  0  0  0  0  0
    2.3847   -0.7186   -1.4966 H   0  0  0  0  0  0  0  0  0  0  0  0
    0.0231    1.8866    3.7575 H   0  0  0  0  0  0  0  0  0  0  0  0
    4.8211    2.7770    2.9863 H   0  0  0  0  0  0  0  0  0  0  0  0
    5.8435    1.8665    0.7437 H   0  0  0  0  0  0  0  0  0  0  0  0
    3.9417    0.6521   -0.5879 H   0  0  0  0  0  0  0  0  0  0  0  0
  1  2  1  0
  2  3  1  0
  3  4  1  0
  4  5  1  0
  5  6  1  0
  6  7  2  0
  6  8  1  0
  8  9  1  0
  9 10  3  0
  5 11  1  0
 11 12  1  0
 12 13  1  0
 13 14  1  0
 13 15  1  0
 15 16  2  0
 16 17  1  0
 17 18  2  0
 18 19  1  0
 19 20  1  0
 20 21  1  0
 21 22  2  0
 22 23  1  0
 12  2  1  0
 23 15  1  0
 23 19  2  0
  1 24  1  0
  1 25  1  0
  1 26  1  0
  2 27  1  1
  3 28  1  0
  3 29  1  0
  4 30  1  0
  4 31  1  0
  8 32  1  0
  8 33  1  0
 11 34  1  0
 11 35  1  0
 12 36  1  1
 14 37  1  0
 14 38  1  0
 14 39  1  0
 17 40  1  0
 20 41  1  0
 21 42  1  0
 22 43  1  0
M  END
$$$$
