
     RDKit          3D

 73 75  0  0  0  0  0  0  0  0999 V2000
    8.3190   -0.4142    2.6625 C   0  0  0  0  0  0  0  0  0  0  0  0
    7.7375   -0.7650    1.3373 C   0  0  0  0  0  0  0  0  0  0  0  0
    8.5739   -1.1688    0.3232 C   0  0  0  0  0  0  0  0  0  0  0  0
    8.0299   -1.4831   -0.8839 C   0  0  0  0  0  0  0  0  0  0  0  0
    6.6490   -1.4032   -1.1084 C   0  0  0  0  0  0  0  0  0  0  0  0
    6.1559   -1.7650   -2.4717 C   0  0  0  0  0  0  0  0  0  0  0  0
    5.8212   -1.0055   -0.1098 C   0  0  0  0  0  0  0  0  0  0  0  0
    4.3632   -0.9207   -0.3475 C   0  0  0  0  0  0  0  0  0  0  0  0
    3.9498    0.2755   -1.1362 C   0  0  0  0  0  0  0  0  0  0  0  0
    2.4482    0.2497   -1.3111 C   0  0  0  0  0  0  0  0  0  0  0  0
    1.7293    0.2738    0.0229 C   0  0  0  0  0  0  0  0  0  0  0  0
    0.6752    1.3503    0.0452 C   0  0  0  0  0  0  0  0  0  0  0  0
   -0.2479    1.1836   -1.0583 N   0  0  0  0  0  0  0  0  0  0  0  0
   -1.6141    2.1774   -0.9667 S   0  0  0  0  0  6  0  0  0  0  0  0
   -1.6613    2.9925   -2.2626 O   0  0  0  0  0  0  0  0  0  0  0  0
   -1.3123    3.2348    0.0903 O   0  0  0  0  0  0  0  0  0  0  0  0
   -3.1576    1.4266   -0.7865 C   0  0  0  0  0  0  0  0  0  0  0  0
   -3.3662    0.5550    0.4365 C   0  0  2  0  0  0  0  0  0  0  0  0
   -2.2443   -0.5390    0.2219 C   0  0  0  0  0  0  0  0  0  0  0  0
   -4.5985   -0.2359    0.3695 C   0  0  0  0  0  0  0  0  0  0  0  0
   -5.9407    0.3182    0.2731 C   0  0  2  0  0  0  0  0  0  0  0  0
   -6.3083    1.1540    1.4758 C   0  0  0  0  0  0  0  0  0  0  0  0
   -6.9277   -0.8275    0.2717 C   0  0  0  0  0  0  0  0  0  0  0  0
   -7.8713   -0.9254   -0.6705 N   0  0  0  0  0  0  0  0  0  0  0  0
   -8.7796   -1.9062   -0.7357 C   0  0  0  0  0  0  0  0  0  0  0  0
   -8.7579   -2.8923    0.2241 C   0  0  0  0  0  0  0  0  0  0  0  0
   -9.6605   -3.9221    0.2108 F   0  0  0  0  0  0  0  0  0  0  0  0
   -7.7868   -2.8080    1.2081 C   0  0  0  0  0  0  0  0  0  0  0  0
   -6.9097   -1.7932    1.2082 N   0  0  0  0  0  0  0  0  0  0  0  0
   -2.9995    1.2062    1.6459 N   0  0  0  0  0  0  0  0  0  0  0  0
   -2.2029    0.5027    2.5365 O   0  0  0  0  0  0  0  0  0  0  0  0
   -3.3442    2.4974    2.0933 C   0  0  0  0  0  0  0  0  0  0  0  0
   -4.0267    3.3521    1.4791 O   0  0  0  0  0  0  0  0  0  0  0  0
    0.4853    1.3151   -2.2859 C   0  0  0  0  0  0  0  0  0  0  0  0
    1.9620    1.4698   -2.0837 C   0  0  0  0  0  0  0  0  0  0  0  0
    6.3817   -0.6872    1.1157 C   0  0  0  0  0  0  0  0  0  0  0  0
    9.1041    0.3504    2.4628 H   0  0  0  0  0  0  0  0  0  0  0  0
    7.5325    0.0373    3.2964 H   0  0  0  0  0  0  0  0  0  0  0  0
    8.7006   -1.3345    3.1203 H   0  0  0  0  0  0  0  0  0  0  0  0
    9.6579   -1.2354    0.4899 H   0  0  0  0  0  0  0  0  0  0  0  0
    8.6655   -1.8040   -1.7031 H   0  0  0  0  0  0  0  0  0  0  0  0
    6.3603   -0.8953   -3.1439 H   0  0  0  0  0  0  0  0  0  0  0  0
    5.0935   -2.0198   -2.4193 H   0  0  0  0  0  0  0  0  0  0  0  0
    6.7390   -2.6379   -2.8449 H   0  0  0  0  0  0  0  0  0  0  0  0
    3.8892   -0.8838    0.6782 H   0  0  0  0  0  0  0  0  0  0  0  0
    3.9737   -1.8582   -0.7842 H   0  0  0  0  0  0  0  0  0  0  0  0
    4.4299    0.2575   -2.1259 H   0  0  0  0  0  0  0  0  0  0  0  0
    4.2037    1.1970   -0.5547 H   0  0  0  0  0  0  0  0  0  0  0  0
    2.1079   -0.6414   -1.8656 H   0  0  0  0  0  0  0  0  0  0  0  0
    2.4364    0.5223    0.8491 H   0  0  0  0  0  0  0  0  0  0  0  0
    1.2683   -0.6876    0.2643 H   0  0  0  0  0  0  0  0  0  0  0  0
    0.1043    1.2617    0.9845 H   0  0  0  0  0  0  0  0  0  0  0  0
    1.1209    2.3699    0.0629 H   0  0  0  0  0  0  0  0  0  0  0  0
   -3.9462    2.2184   -0.8606 H   0  0  0  0  0  0  0  0  0  0  0  0
   -3.3389    0.7617   -1.6672 H   0  0  0  0  0  0  0  0  0  0  0  0
   -1.5020   -0.4577    1.0329 H   0  0  0  0  0  0  0  0  0  0  0  0
   -1.8702   -0.5185   -0.7939 H   0  0  0  0  0  0  0  0  0  0  0  0
   -2.6902   -1.5564    0.3607 H   0  0  0  0  0  0  0  0  0  0  0  0
   -4.4562   -0.9611   -0.5165 H   0  0  0  0  0  0  0  0  0  0  0  0
   -4.5455   -0.9870    1.2398 H   0  0  0  0  0  0  0  0  0  0  0  0
   -6.1550    0.8704   -0.6769 H   0  0  0  0  0  0  0  0  0  0  0  0
   -5.6670    0.9052    2.3292 H   0  0  0  0  0  0  0  0  0  0  0  0
   -6.4282    2.2210    1.2428 H   0  0  0  0  0  0  0  0  0  0  0  0
   -7.3531    0.8618    1.8433 H   0  0  0  0  0  0  0  0  0  0  0  0
   -9.5322   -1.9599   -1.5046 H   0  0  0  0  0  0  0  0  0  0  0  0
   -7.7736   -3.5891    1.9601 H   0  0  0  0  0  0  0  0  0  0  0  0
   -1.4803    1.1429    2.7779 H   0  0  0  0  0  0  0  0  0  0  0  0
   -3.0163    2.8719    3.0818 H   0  0  0  0  0  0  0  0  0  0  0  0
    0.0767    2.1901   -2.8601 H   0  0  0  0  0  0  0  0  0  0  0  0
    0.3263    0.4216   -2.9334 H   0  0  0  0  0  0  0  0  0  0  0  0
    2.4279    1.4508   -3.0956 H   0  0  0  0  0  0  0  0  0  0  0  0
    2.2657    2.4130   -1.6217 H   0  0  0  0  0  0  0  0  0  0  0  0
    5.7076   -0.3694    1.9089 H   0  0  0  0  0  0  0  0  0  0  0  0
  1  2  1  0
  2  3  2  0
  3  4  1  0
  4  5  2  0
  5  6  1  0
  5  7  1  0
  7  8  1  0
  8  9  1  0
  9 10  1  0
 10 11  1  0
 11 12  1  0
 12 13  1  0
 13 14  1  0
 14 15  2  0
 14 16  2  0
 14 17  1  0
 17 18  1  0
 18 19  1  0
 18 20  1  0
 20 21  1  0
 21 22  1  0
 21 23  1  0
 23 24  2  0
 24 25  1  0
 25 26  2  0
 26 27  1  0
 26 28  1  0
 28 29  2  0
 18 30  1  1
 30 31  1  0
 30 32  1  0
 32 33  2  0
 13 34  1  0
 34 35  1  0
  7 36  2  0
 36  2  1  0
 35 10  1  0
 29 23  1  0
  1 37  1  0
  1 38  1  0
  1 39  1  0
  3 40  1  0
  4 41  1  0
  6 42  1  0
  6 43  1  0
  6 44  1  0
  8 45  1  0
  8 46  1  0
  9 47  1  0
  9 48  1  0
 10 49  1  0
 11 50  1  0
 11 51  1  0
 12 52  1  0
 12 53  1  0
 17 54  1  0
 17 55  1  0
 19 56  1  0
 19 57  1  0
 19 58  1  0
 20 59  1  0
 20 60  1  0
 21 61  1  6
 22 62  1  0
 22 63  1  0
 22 64  1  0
 25 65  1  0
 28 66  1  0
 31 67  1  0
 32 68  1  0
 34 69  1  0
 34 70  1  0
 35 71  1  0
 35 72  1  0
 36 73  1  0
M  END
$$$$
