
     RDKit          3D

 62 66  0  0  0  0  0  0  0  0999 V2000
   -2.9276    2.1768    2.1989 N   0  0  0  0  0  0  0  0  0  0  0  0
   -2.4246    1.0797    1.4700 C   0  0  0  0  0  0  0  0  0  0  0  0
   -1.4520    0.9901    2.2317 O   0  0  0  0  0  0  0  0  0  0  0  0
   -2.7231    0.2267    0.2965 C   0  0  0  0  0  0  0  0  0  0  0  0
   -1.7217   -0.8440    0.0875 C   0  0  2  0  0  0  0  0  0  0  0  0
   -1.5342   -1.8157    1.1933 C   0  0  0  0  0  0  0  0  0  0  0  0
   -0.0323   -1.8262    1.5213 C   0  0  0  0  0  0  0  0  0  0  0  0
    0.5841   -1.1856    0.4288 N   0  0  0  0  0  0  0  0  0  0  0  0
    1.9106   -0.7544    0.5325 C   0  0  0  0  0  0  0  0  0  0  0  0
    2.9533   -1.8372    0.6261 C   0  0  0  0  0  0  0  0  0  0  0  0
    4.2779   -1.1609    0.7208 C   0  0  0  0  0  0  0  0  0  0  0  0
    5.0284   -0.8360   -0.3781 C   0  0  0  0  0  0  0  0  0  0  0  0
    6.2585   -0.2101   -0.3509 C   0  0  0  0  0  0  0  0  0  0  0  0
    6.7331    0.0961    0.9262 C   0  0  0  0  0  0  0  0  0  0  0  0
    7.9782    0.7192    0.7512 O   0  0  0  0  0  0  0  0  0  0  0  0
    7.9619    1.3463   -0.5300 C   0  0  0  0  0  0  0  0  0  0  0  0
    7.2620    0.2502   -1.3411 C   0  0  0  0  0  0  0  0  0  0  0  0
    6.0518   -0.1898    2.1000 C   0  0  0  0  0  0  0  0  0  0  0  0
    4.8348   -0.8162    1.9341 C   0  0  0  0  0  0  0  0  0  0  0  0
   -0.3376   -0.3430   -0.2371 C   0  0  0  0  0  0  0  0  0  0  0  0
   -2.7200    1.1742   -0.8787 C   0  0  0  0  0  0  0  0  0  0  0  0
   -2.2528    2.4706   -0.9174 C   0  0  0  0  0  0  0  0  0  0  0  0
   -2.3113    3.2321   -2.0469 C   0  0  0  0  0  0  0  0  0  0  0  0
   -2.8589    2.6798   -3.1891 C   0  0  0  0  0  0  0  0  0  0  0  0
   -3.3225    1.3836   -3.1396 C   0  0  0  0  0  0  0  0  0  0  0  0
   -3.2844    0.5622   -2.0039 C   0  0  0  0  0  0  0  0  0  0  0  0
   -4.0617   -0.3679    0.4820 C   0  0  0  0  0  0  0  0  0  0  0  0
   -5.0613    0.4790    0.9765 C   0  0  0  0  0  0  0  0  0  0  0  0
   -6.3385    0.0410    1.1832 C   0  0  0  0  0  0  0  0  0  0  0  0
   -6.7352   -1.2486    0.9249 C   0  0  0  0  0  0  0  0  0  0  0  0
   -5.7694   -2.1348    0.4281 C   0  0  0  0  0  0  0  0  0  0  0  0
   -4.4969   -1.6490    0.2357 C   0  0  0  0  0  0  0  0  0  0  0  0
   -2.8449    3.2118    2.1332 H   0  0  0  0  0  0  0  0  0  0  0  0
   -3.5611    2.1884    3.0533 H   0  0  0  0  0  0  0  0  0  0  0  0
   -2.0515   -1.4383   -0.8063 H   0  0  0  0  0  0  0  0  0  0  0  0
   -1.7357   -2.8859    0.8982 H   0  0  0  0  0  0  0  0  0  0  0  0
   -2.1211   -1.6245    2.1017 H   0  0  0  0  0  0  0  0  0  0  0  0
    0.1238   -1.2354    2.4447 H   0  0  0  0  0  0  0  0  0  0  0  0
    0.3332   -2.8437    1.7599 H   0  0  0  0  0  0  0  0  0  0  0  0
    2.0067   -0.1459    1.4744 H   0  0  0  0  0  0  0  0  0  0  0  0
    2.1718   -0.1119   -0.3057 H   0  0  0  0  0  0  0  0  0  0  0  0
    2.9806   -2.4897   -0.2498 H   0  0  0  0  0  0  0  0  0  0  0  0
    2.8831   -2.4182    1.5909 H   0  0  0  0  0  0  0  0  0  0  0  0
    4.6507   -1.0787   -1.3720 H   0  0  0  0  0  0  0  0  0  0  0  0
    7.3248    2.2520   -0.5579 H   0  0  0  0  0  0  0  0  0  0  0  0
    8.9710    1.5404   -0.9137 H   0  0  0  0  0  0  0  0  0  0  0  0
    7.9361   -0.5638   -1.6067 H   0  0  0  0  0  0  0  0  0  0  0  0
    6.7766    0.7377   -2.2120 H   0  0  0  0  0  0  0  0  0  0  0  0
    6.4633    0.0686    3.0629 H   0  0  0  0  0  0  0  0  0  0  0  0
    4.2798   -1.0511    2.8477 H   0  0  0  0  0  0  0  0  0  0  0  0
   -0.2361    0.7401    0.0411 H   0  0  0  0  0  0  0  0  0  0  0  0
   -0.1483   -0.3693   -1.3296 H   0  0  0  0  0  0  0  0  0  0  0  0
   -1.8381    2.8196    0.0171 H   0  0  0  0  0  0  0  0  0  0  0  0
   -1.9309    4.2321   -2.0097 H   0  0  0  0  0  0  0  0  0  0  0  0
   -2.9215    3.2514   -4.0977 H   0  0  0  0  0  0  0  0  0  0  0  0
   -3.7467    0.9975   -4.0777 H   0  0  0  0  0  0  0  0  0  0  0  0
   -3.6725   -0.4333   -2.0727 H   0  0  0  0  0  0  0  0  0  0  0  0
   -4.9684    1.5234    1.2389 H   0  0  0  0  0  0  0  0  0  0  0  0
   -7.1661    0.6380    1.5635 H   0  0  0  0  0  0  0  0  0  0  0  0
   -7.7075   -1.7019    1.0489 H   0  0  0  0  0  0  0  0  0  0  0  0
   -5.9678   -3.1725    0.1885 H   0  0  0  0  0  0  0  0  0  0  0  0
   -3.7517   -2.3254   -0.1547 H   0  0  0  0  0  0  0  0  0  0  0  0
  1  2  1  0
  2  3  2  0
  2  4  1  0
  4  5  1  0
  5  6  1  0
  6  7  1  0
  7  8  1  0
  8  9  1  0
  9 10  1  0
 10 11  1  0
 11 12  2  0
 12 13  1  0
 13 14  2  0
 14 15  1  0
 15 16  1  0
 16 17  1  0
 14 18  1  0
 18 19  2  0
  8 20  1  0
  4 21  1  0
 21 22  2  0
 22 23  1  0
 23 24  2  0
 24 25  1  0
 25 26  2  0
  4 27  1  0
 27 28  2  0
 28 29  1  0
 29 30  2  0
 30 31  1  0
 31 32  2  0
 20  5  1  0
 26 21  1  0
 32 27  1  0
 19 11  1  0
 17 13  1  0
  1 33  1  0
  1 34  1  0
  5 35  1  6
  6 36  1  0
  6 37  1  0
  7 38  1  0
  7 39  1  0
  9 40  1  0
  9 41  1  0
 10 42  1  0
 10 43  1  0
 12 44  1  0
 16 45  1  0
 16 46  1  0
 17 47  1  0
 17 48  1  0
 18 49  1  0
 19 50  1  0
 20 51  1  0
 20 52  1  0
 22 53  1  0
 23 54  1  0
 24 55  1  0
 25 56  1  0
 26 57  1  0
 28 58  1  0
 29 59  1  0
 30 60  1  0
 31 61  1  0
 32 62  1  0
M  END
$$$$
