
     RDKit          3D

 31 32  0  0  0  0  0  0  0  0999 V2000
   -2.4096   -0.3090   -0.4291 C   0  0  1  0  0  0  0  0  0  0  0  0
   -3.6076    0.4919   -0.8513 C   0  0  0  0  0  0  0  0  0  0  0  0
   -3.2962    1.8311   -0.6138 O   0  0  0  0  0  0  0  0  0  0  0  0
   -1.2557    0.0330   -1.1415 O   0  0  0  0  0  0  0  0  0  0  0  0
   -0.2954   -0.7017   -0.4762 C   0  0  1  0  0  0  0  0  0  0  0  0
    1.0647   -0.2510   -0.7356 N   0  0  0  0  0  0  0  0  0  0  0  0
    1.9903   -1.2072   -1.2743 C   0  0  0  0  0  0  0  0  0  0  0  0
    3.3149   -1.1912   -1.2288 C   0  0  0  0  0  0  0  0  0  0  0  0
    4.1505   -0.1601   -0.5979 C   0  0  0  0  0  0  0  0  0  0  0  0
    3.8880    1.0457   -0.1303 C   0  0  0  0  0  0  0  0  0  0  0  0
    2.6218    1.6918   -0.1249 N   0  0  0  0  0  0  0  0  0  0  0  0
    1.3309    1.1289   -0.4158 C   0  0  0  0  0  0  0  0  0  0  0  0
    0.3234    1.8753   -0.3991 O   0  0  0  0  0  0  0  0  0  0  0  0
   -0.5992   -0.5718    1.0067 C   0  0  2  0  0  0  0  0  0  0  0  0
   -0.7336   -1.8275    1.5702 O   0  0  0  0  0  0  0  0  0  0  0  0
   -1.9714    0.0695    0.9719 C   0  0  2  0  0  0  0  0  0  0  0  0
   -2.8219   -0.4743    1.9295 O   0  0  0  0  0  0  0  0  0  0  0  0
   -2.5304   -1.3907   -0.4665 H   0  0  0  0  0  0  0  0  0  0  0  0
   -4.4337    0.2224   -0.1619 H   0  0  0  0  0  0  0  0  0  0  0  0
   -3.9189    0.3226   -1.8770 H   0  0  0  0  0  0  0  0  0  0  0  0
   -3.5838    2.4052   -1.3647 H   0  0  0  0  0  0  0  0  0  0  0  0
   -0.3533   -1.7707   -0.7665 H   0  0  0  0  0  0  0  0  0  0  0  0
    1.5105   -2.0373   -1.7769 H   0  0  0  0  0  0  0  0  0  0  0  0
    3.8117   -2.0211   -1.7047 H   0  0  0  0  0  0  0  0  0  0  0  0
    5.1957   -0.4153   -0.4813 H   0  0  0  0  0  0  0  0  0  0  0  0
    4.6917    1.6259    0.2973 H   0  0  0  0  0  0  0  0  0  0  0  0
    2.5595    2.7197    0.1171 H   0  0  0  0  0  0  0  0  0  0  0  0
    0.1428    0.0609    1.5267 H   0  0  0  0  0  0  0  0  0  0  0  0
   -0.0770   -2.4790    1.2201 H   0  0  0  0  0  0  0  0  0  0  0  0
   -1.8560    1.1560    1.1152 H   0  0  0  0  0  0  0  0  0  0  0  0
   -2.8524    0.1276    2.7004 H   0  0  0  0  0  0  0  0  0  0  0  0
  1  2  1  0
  2  3  1  0
  1  4  1  0
  4  5  1  0
  5  6  1  0
  6  7  1  0
  7  8  2  0
  8  9  1  0
  9 10  2  0
 10 11  1  0
 11 12  1  0
 12 13  2  0
  5 14  1  0
 14 15  1  0
 14 16  1  0
 16 17  1  0
 16  1  1  0
 12  6  1  0
  1 18  1  1
  2 19  1  0
  2 20  1  0
  3 21  1  0
  5 22  1  6
  7 23  1  0
  8 24  1  0
  9 25  1  0
 10 26  1  0
 11 27  1  0
 14 28  1  1
 15 29  1  0
 16 30  1  6
 17 31  1  0
M  END
$$$$
