
     RDKit          3D

 24 25  0  0  0  0  0  0  0  0999 V2000
   -4.9184    0.1846    0.8149 C   0  0  0  0  0  0  0  0  0  0  0  0
   -3.4085   -0.3514    1.7041 S   0  0  0  0  0  0  0  0  0  0  0  0
   -2.0074   -0.2760    0.5877 C   0  0  0  0  0  0  0  0  0  0  0  0
   -1.7069   -1.3645   -0.1398 N   0  0  0  0  0  0  0  0  0  0  0  0
   -0.6210   -1.1004   -0.9148 C   0  0  0  0  0  0  0  0  0  0  0  0
    0.0286   -1.9378   -1.8180 O   0  0  0  0  0  0  0  0  0  0  0  0
   -0.2622    0.1998   -0.6351 C   0  0  0  0  0  0  0  0  0  0  0  0
    0.8690    0.9453   -1.2342 C   0  0  0  0  0  0  0  0  0  0  0  0
    2.1065    0.4678   -0.6141 C   0  0  0  0  0  0  0  0  0  0  0  0
    2.8389    0.8595    0.5004 C   0  0  0  0  0  0  0  0  0  0  0  0
    3.9710    0.2116    0.8333 C   0  0  0  0  0  0  0  0  0  0  0  0
    4.3543   -0.8426    0.0201 C   0  0  0  0  0  0  0  0  0  0  0  0
    2.9908   -0.8915   -1.3003 S   0  0  0  0  0  0  0  0  0  0  0  0
   -1.1271    0.6726    0.2842 N   0  0  0  0  0  0  0  0  0  0  0  0
   -5.7720   -0.4547    1.0538 H   0  0  0  0  0  0  0  0  0  0  0  0
   -5.0968    1.2663    0.9541 H   0  0  0  0  0  0  0  0  0  0  0  0
   -4.7357    0.0501   -0.2896 H   0  0  0  0  0  0  0  0  0  0  0  0
   -0.3211   -2.8553   -2.0565 H   0  0  0  0  0  0  0  0  0  0  0  0
    0.9249    0.8199   -2.3157 H   0  0  0  0  0  0  0  0  0  0  0  0
    0.7713    2.0406   -1.0214 H   0  0  0  0  0  0  0  0  0  0  0  0
    2.3972    1.6988    1.0208 H   0  0  0  0  0  0  0  0  0  0  0  0
    4.5501    0.5052    1.6961 H   0  0  0  0  0  0  0  0  0  0  0  0
    5.3464   -1.4546    0.2623 H   0  0  0  0  0  0  0  0  0  0  0  0
   -1.1717    1.6067    0.7333 H   0  0  0  0  0  0  0  0  0  0  0  0
  1  2  1  0
  2  3  1  0
  3  4  2  0
  4  5  1  0
  5  6  1  0
  5  7  2  0
  7  8  1  0
  8  9  1  0
  9 10  2  0
 10 11  1  0
 11 12  2  0
 12 13  1  0
  7 14  1  0
 14  3  1  0
 13  9  1  0
  1 15  1  0
  1 16  1  0
  1 17  1  0
  6 18  1  0
  8 19  1  0
  8 20  1  0
 10 21  1  0
 11 22  1  0
 12 23  1  0
 14 24  1  0
M  END
$$$$
