
     RDKit          3D

 24 24  0  0  0  0  0  0  0  0999 V2000
   -1.7606   -0.5220   -0.2907 C   0  0  2  0  0  0  0  0  0  0  0  0
   -2.4568   -0.0581    0.8431 O   0  0  0  0  0  0  0  0  0  0  0  0
   -0.8117   -1.6435    0.0888 C   0  0  0  0  0  0  0  0  0  0  0  0
    0.1273   -1.0256    1.0163 N   0  0  0  0  0  0  0  0  0  0  0  0
    0.9871   -0.2100    0.1396 C   0  0  2  0  0  0  0  0  0  0  0  0
    2.3045    0.0340    0.8241 C   0  0  0  0  0  0  0  0  0  0  0  0
    3.1291    0.8002    0.0158 O   0  0  0  0  0  0  0  0  0  0  0  0
    0.1817    1.0247   -0.0965 C   0  0  1  0  0  0  0  0  0  0  0  0
    0.8462    2.0763   -0.6674 O   0  0  0  0  0  0  0  0  0  0  0  0
   -1.0212    0.5909   -0.9462 C   0  0  2  0  0  0  0  0  0  0  0  0
   -1.8762    1.6476   -1.2169 O   0  0  0  0  0  0  0  0  0  0  0  0
   -2.4985   -0.9172   -1.0247 H   0  0  0  0  0  0  0  0  0  0  0  0
   -3.3304   -0.5214    0.9258 H   0  0  0  0  0  0  0  0  0  0  0  0
   -1.3292   -2.5046    0.5162 H   0  0  0  0  0  0  0  0  0  0  0  0
   -0.2809   -1.9004   -0.8662 H   0  0  0  0  0  0  0  0  0  0  0  0
    0.6441   -1.6846    1.5969 H   0  0  0  0  0  0  0  0  0  0  0  0
    1.1783   -0.7028   -0.8296 H   0  0  0  0  0  0  0  0  0  0  0  0
    2.7910   -0.9572    0.9461 H   0  0  0  0  0  0  0  0  0  0  0  0
    2.1749    0.4615    1.8353 H   0  0  0  0  0  0  0  0  0  0  0  0
    3.9440    0.2969   -0.2957 H   0  0  0  0  0  0  0  0  0  0  0  0
   -0.2578    1.3311    0.8962 H   0  0  0  0  0  0  0  0  0  0  0  0
    0.7309    2.9136   -0.1136 H   0  0  0  0  0  0  0  0  0  0  0  0
   -0.6289    0.2187   -1.9133 H   0  0  0  0  0  0  0  0  0  0  0  0
   -2.7868    1.2518   -1.3834 H   0  0  0  0  0  0  0  0  0  0  0  0
  1  2  1  0
  1  3  1  0
  3  4  1  0
  4  5  1  0
  5  6  1  0
  6  7  1  0
  5  8  1  0
  8  9  1  0
  8 10  1  0
 10 11  1  0
 10  1  1  0
  1 12  1  6
  2 13  1  0
  3 14  1  0
  3 15  1  0
  4 16  1  0
  5 17  1  6
  6 18  1  0
  6 19  1  0
  7 20  1  0
  8 21  1  1
  9 22  1  0
 10 23  1  6
 11 24  1  0
M  END
$$$$
