
     RDKit          3D

 42 45  0  0  0  0  0  0  0  0999 V2000
    5.5448    2.7823   -0.4447 C   0  0  0  0  0  0  0  0  0  0  0  0
    4.6577    1.6780   -0.0805 C   0  0  0  0  0  0  0  0  0  0  0  0
    3.4288    1.6780    0.5477 C   0  0  0  0  0  0  0  0  0  0  0  0
    3.0184    0.3687    0.6505 C   0  0  0  0  0  0  0  0  0  0  0  0
    1.8171   -0.0859    1.2052 N   0  0  0  0  0  0  0  0  0  0  0  0
    0.7064   -0.5350    0.4604 C   0  0  0  0  0  0  0  0  0  0  0  0
   -0.1676    0.2448   -0.1813 N   0  0  0  0  0  0  0  0  0  0  0  0
   -1.2070   -0.2156   -0.8481 N   0  0  0  0  0  0  0  0  0  0  0  0
   -2.1338    0.6938   -1.4825 C   0  0  0  0  0  0  0  0  0  0  0  0
   -3.1426    1.2562   -0.5583 C   0  0  0  0  0  0  0  0  0  0  0  0
   -3.0193    2.6011   -0.1643 C   0  0  0  0  0  0  0  0  0  0  0  0
   -3.9193    3.1482    0.7148 C   0  0  0  0  0  0  0  0  0  0  0  0
   -3.7944    4.4471    1.0881 F   0  0  0  0  0  0  0  0  0  0  0  0
   -4.9717    2.4230    1.2491 C   0  0  0  0  0  0  0  0  0  0  0  0
   -5.0881    1.1081    0.8608 C   0  0  0  0  0  0  0  0  0  0  0  0
   -6.1037    0.3454    1.3628 F   0  0  0  0  0  0  0  0  0  0  0  0
   -4.1768    0.5406   -0.0353 C   0  0  0  0  0  0  0  0  0  0  0  0
   -1.4751   -1.5362   -0.9382 C   0  0  0  0  0  0  0  0  0  0  0  0
   -2.4523   -2.0205   -1.5616 O   0  0  0  0  0  0  0  0  0  0  0  0
   -0.5951   -2.3816   -0.2898 C   0  0  0  0  0  0  0  0  0  0  0  0
   -0.8278   -3.7482   -0.3531 C   0  0  0  0  0  0  0  0  0  0  0  0
    0.0530   -4.5734    0.2943 C   0  0  0  0  0  0  0  0  0  0  0  0
    1.1440   -4.1172    0.9960 C   0  0  0  0  0  0  0  0  0  0  0  0
    1.3742   -2.7628    1.0583 C   0  0  0  0  0  0  0  0  0  0  0  0
    0.5053   -1.9142    0.4180 C   0  0  0  0  0  0  0  0  0  0  0  0
    3.9667   -0.4076    0.1025 N   0  0  0  0  0  0  0  0  0  0  0  0
    4.9274    0.3700   -0.3251 N   0  0  0  0  0  0  0  0  0  0  0  0
    6.5966    2.5198   -0.1531 H   0  0  0  0  0  0  0  0  0  0  0  0
    5.5707    2.9436   -1.5577 H   0  0  0  0  0  0  0  0  0  0  0  0
    5.2455    3.7099    0.0592 H   0  0  0  0  0  0  0  0  0  0  0  0
    2.9405    2.5959    0.8769 H   0  0  0  0  0  0  0  0  0  0  0  0
    1.7578   -0.0852    2.2687 H   0  0  0  0  0  0  0  0  0  0  0  0
   -2.6409    0.2057   -2.3630 H   0  0  0  0  0  0  0  0  0  0  0  0
   -1.5614    1.5397   -1.9520 H   0  0  0  0  0  0  0  0  0  0  0  0
   -2.1859    3.1732   -0.5908 H   0  0  0  0  0  0  0  0  0  0  0  0
   -5.6758    2.8630    1.9388 H   0  0  0  0  0  0  0  0  0  0  0  0
   -4.3033   -0.4935   -0.3131 H   0  0  0  0  0  0  0  0  0  0  0  0
   -1.6857   -4.0929   -0.9029 H   0  0  0  0  0  0  0  0  0  0  0  0
   -0.1203   -5.6444    0.2527 H   0  0  0  0  0  0  0  0  0  0  0  0
    1.8293   -4.8155    1.5025 H   0  0  0  0  0  0  0  0  0  0  0  0
    2.2061   -2.3352    1.5912 H   0  0  0  0  0  0  0  0  0  0  0  0
    3.9576   -1.4710    0.0206 H   0  0  0  0  0  0  0  0  0  0  0  0
  1  2  1  0
  2  3  1  0
  3  4  2  0
  4  5  1  0
  5  6  1  0
  6  7  2  0
  7  8  1  0
  8  9  1  0
  9 10  1  0
 10 11  2  0
 11 12  1  0
 12 13  1  0
 12 14  2  0
 14 15  1  0
 15 16  1  0
 15 17  2  0
  8 18  1  0
 18 19  2  0
 18 20  1  0
 20 21  2  0
 21 22  1  0
 22 23  2  0
 23 24  1  0
 24 25  2  0
  4 26  1  0
 26 27  1  0
 27  2  2  0
 25  6  1  0
 17 10  1  0
 25 20  1  0
  1 28  1  0
  1 29  1  0
  1 30  1  0
  3 31  1  0
  5 32  1  0
  9 33  1  0
  9 34  1  0
 11 35  1  0
 14 36  1  0
 17 37  1  0
 21 38  1  0
 22 39  1  0
 23 40  1  0
 24 41  1  0
 26 42  1  0
M  END
$$$$
