
     RDKit          3D

 57 61  0  0  0  0  0  0  0  0999 V2000
   -2.8213   -4.4666    0.5352 O   0  0  0  0  0  0  0  0  0  0  0  0
   -3.3282   -3.3373    0.7138 C   0  0  0  0  0  0  0  0  0  0  0  0
   -4.7314   -2.9741    0.6253 C   0  0  0  0  0  0  0  0  0  0  0  0
   -5.6954   -3.7646    0.3452 O   0  0  0  0  0  0  0  0  0  0  0  0
   -4.8288   -1.5844    0.9070 N   0  0  0  0  0  0  0  0  0  0  0  0
   -6.0712   -0.8623    0.9132 C   0  0  0  0  0  0  0  0  0  0  0  0
   -6.4528   -0.2865   -0.3574 C   0  0  0  0  0  0  0  0  0  0  0  0
   -7.2154   -0.9866   -1.2600 C   0  0  0  0  0  0  0  0  0  0  0  0
   -7.5794   -0.4192   -2.4880 C   0  0  0  0  0  0  0  0  0  0  0  0
   -7.1634    0.8582   -2.7873 C   0  0  0  0  0  0  0  0  0  0  0  0
   -6.4009    1.5289   -1.8591 C   0  0  0  0  0  0  0  0  0  0  0  0
   -5.9802    2.7969   -2.1408 F   0  0  0  0  0  0  0  0  0  0  0  0
   -6.0731    0.9522   -0.6951 N   0  0  0  0  0  0  0  0  0  0  0  0
   -3.4957   -1.1189    1.1621 C   0  0  0  0  0  0  0  0  0  0  0  0
   -3.0460    0.1438    1.4814 C   0  0  0  0  0  0  0  0  0  0  0  0
   -1.6907    0.3858    1.6920 C   0  0  0  0  0  0  0  0  0  0  0  0
   -0.7615   -0.6236    1.5882 C   0  0  0  0  0  0  0  0  0  0  0  0
    0.9637   -0.3059    1.8552 S   0  0  0  0  0  6  0  0  0  0  0  0
    1.5566   -1.5259    2.5501 O   0  0  0  0  0  0  0  0  0  0  0  0
    1.0357    0.8024    2.8694 O   0  0  0  0  0  0  0  0  0  0  0  0
    1.7462    0.0755    0.4033 N   0  0  0  0  0  0  0  0  0  0  0  0
    1.1549    1.2824   -0.1487 C   0  0  0  0  0  0  0  0  0  0  0  0
    1.8903    2.4276    0.5283 C   0  0  0  0  0  0  0  0  0  0  0  0
    3.0895    1.7748    1.1696 C   0  0  0  0  0  0  0  0  0  0  0  0
    3.1150    0.4344    0.4524 C   0  0  1  0  0  0  0  0  0  0  0  0
    4.0476   -0.5347    1.0825 C   0  0  0  0  0  0  0  0  0  0  0  0
    5.3484   -0.0950    1.0637 O   0  0  0  0  0  0  0  0  0  0  0  0
    6.2500    0.1691    0.0868 C   0  0  0  0  0  0  0  0  0  0  0  0
    6.0395    0.0067   -1.2637 C   0  0  0  0  0  0  0  0  0  0  0  0
    7.0247    0.3094   -2.1912 C   0  0  0  0  0  0  0  0  0  0  0  0
    8.2452    0.7823   -1.7721 C   0  0  0  0  0  0  0  0  0  0  0  0
    8.4933    0.9566   -0.4344 C   0  0  0  0  0  0  0  0  0  0  0  0
    7.5172    0.6561    0.4671 C   0  0  0  0  0  0  0  0  0  0  0  0
   -1.2253   -1.8791    1.2688 C   0  0  0  0  0  0  0  0  0  0  0  0
   -2.5890   -2.1330    1.0549 C   0  0  0  0  0  0  0  0  0  0  0  0
   -5.9671   -0.0917    1.7352 H   0  0  0  0  0  0  0  0  0  0  0  0
   -6.8619   -1.5566    1.3281 H   0  0  0  0  0  0  0  0  0  0  0  0
   -7.5591   -1.9898   -1.0586 H   0  0  0  0  0  0  0  0  0  0  0  0
   -8.1781   -0.9444   -3.2181 H   0  0  0  0  0  0  0  0  0  0  0  0
   -7.4372    1.3279   -3.7491 H   0  0  0  0  0  0  0  0  0  0  0  0
   -3.7838    0.9267    1.5598 H   0  0  0  0  0  0  0  0  0  0  0  0
   -1.3781    1.3813    1.9407 H   0  0  0  0  0  0  0  0  0  0  0  0
    0.0959    1.3984    0.0608 H   0  0  0  0  0  0  0  0  0  0  0  0
    1.4077    1.3164   -1.2295 H   0  0  0  0  0  0  0  0  0  0  0  0
    2.2170    3.1802   -0.2148 H   0  0  0  0  0  0  0  0  0  0  0  0
    1.2460    2.9445    1.2677 H   0  0  0  0  0  0  0  0  0  0  0  0
    3.0538    1.7036    2.2520 H   0  0  0  0  0  0  0  0  0  0  0  0
    3.9916    2.3789    0.9197 H   0  0  0  0  0  0  0  0  0  0  0  0
    3.4247    0.6806   -0.5823 H   0  0  0  0  0  0  0  0  0  0  0  0
    4.0100   -1.4652    0.4342 H   0  0  0  0  0  0  0  0  0  0  0  0
    3.7104   -0.9089    2.0709 H   0  0  0  0  0  0  0  0  0  0  0  0
    5.0964   -0.3852   -1.6270 H   0  0  0  0  0  0  0  0  0  0  0  0
    6.8589    0.1824   -3.2551 H   0  0  0  0  0  0  0  0  0  0  0  0
    9.0273    1.0250   -2.4710 H   0  0  0  0  0  0  0  0  0  0  0  0
    9.4790    1.3372   -0.1093 H   0  0  0  0  0  0  0  0  0  0  0  0
    7.6912    0.7870    1.5436 H   0  0  0  0  0  0  0  0  0  0  0  0
   -0.5125   -2.6736    1.1851 H   0  0  0  0  0  0  0  0  0  0  0  0
  1  2  2  0
  2  3  1  0
  3  4  2  0
  3  5  1  0
  5  6  1  0
  6  7  1  0
  7  8  2  0
  8  9  1  0
  9 10  2  0
 10 11  1  0
 11 12  1  0
 11 13  2  0
  5 14  1  0
 14 15  2  0
 15 16  1  0
 16 17  2  0
 17 18  1  0
 18 19  2  0
 18 20  2  0
 18 21  1  0
 21 22  1  0
 22 23  1  0
 23 24  1  0
 24 25  1  0
 25 26  1  0
 26 27  1  0
 27 28  1  0
 28 29  2  0
 29 30  1  0
 30 31  2  0
 31 32  1  0
 32 33  2  0
 17 34  1  0
 34 35  2  0
 35  2  1  0
 13  7  1  0
 35 14  1  0
 25 21  1  0
 33 28  1  0
  6 36  1  0
  6 37  1  0
  8 38  1  0
  9 39  1  0
 10 40  1  0
 15 41  1  0
 16 42  1  0
 22 43  1  0
 22 44  1  0
 23 45  1  0
 23 46  1  0
 24 47  1  0
 24 48  1  0
 25 49  1  6
 26 50  1  0
 26 51  1  0
 29 52  1  0
 30 53  1  0
 31 54  1  0
 32 55  1  0
 33 56  1  0
 34 57  1  0
M  END
$$$$
