
     RDKit          3D

 66 69  0  0  0  0  0  0  0  0999 V2000
    0.1526   -1.8980    2.0621 C   0  0  0  0  0  0  0  0  0  0  0  0
    0.4359   -0.4373    1.7106 C   0  0  1  0  0  0  0  0  0  0  0  0
    1.7832   -0.4415    1.1044 C   0  0  0  0  0  0  0  0  0  0  0  0
    2.1278   -1.3095    0.0934 C   0  0  0  0  0  0  0  0  0  0  0  0
    3.3974   -1.2959   -0.4964 C   0  0  0  0  0  0  0  0  0  0  0  0
    4.3469   -0.3939   -0.0656 C   0  0  0  0  0  0  0  0  0  0  0  0
    5.6784   -0.3571   -0.6625 C   0  0  0  0  0  0  0  0  0  0  0  0
    5.8696   -0.6805   -1.9917 C   0  0  0  0  0  0  0  0  0  0  0  0
    7.1313   -0.6334   -2.5147 C   0  0  0  0  0  0  0  0  0  0  0  0
    8.1903   -0.2656   -1.7128 C   0  0  0  0  0  0  0  0  0  0  0  0
    9.3548   -0.2198   -2.1857 O   0  0  0  0  0  0  0  0  0  0  0  0
    7.9997    0.0487   -0.4195 N   0  0  0  0  0  0  0  0  0  0  0  0
    9.1118    0.4350    0.4219 C   0  0  0  0  0  0  0  0  0  0  0  0
    6.7601    0.0030    0.0971 C   0  0  0  0  0  0  0  0  0  0  0  0
    4.0059    0.4726    0.9439 C   0  0  0  0  0  0  0  0  0  0  0  0
    2.7576    0.4570    1.5211 C   0  0  0  0  0  0  0  0  0  0  0  0
   -0.5590    0.0907    0.8259 N   0  0  0  0  0  0  0  0  0  0  0  0
   -0.7196   -0.4256   -0.4904 C   0  0  0  0  0  0  0  0  0  0  0  0
   -1.8705    0.2059   -1.1863 C   0  0  0  0  0  0  0  0  0  0  0  0
   -3.0945    0.4587   -0.3476 C   0  0  2  0  0  0  0  0  0  0  0  0
   -3.6843   -0.8505    0.0592 C   0  0  0  0  0  0  0  0  0  0  0  0
   -4.9075   -0.7746    0.9132 C   0  0  0  0  0  0  0  0  0  0  0  0
   -4.6448   -0.0493    2.2257 C   0  0  0  0  0  0  0  0  0  0  0  0
   -5.2773   -2.2157    1.2889 C   0  0  0  0  0  0  0  0  0  0  0  0
   -6.0140   -0.2364    0.3053 O   0  0  0  0  0  0  0  0  0  0  0  0
   -4.0643    1.3334   -1.0802 C   0  0  0  0  0  0  0  0  0  0  0  0
   -4.0781    2.6992   -0.8413 C   0  0  0  0  0  0  0  0  0  0  0  0
   -4.9475    3.5317   -1.5133 C   0  0  0  0  0  0  0  0  0  0  0  0
   -5.8085    2.9689   -2.4351 C   0  0  0  0  0  0  0  0  0  0  0  0
   -6.6757    3.7847   -3.1080 F   0  0  0  0  0  0  0  0  0  0  0  0
   -5.8048    1.6134   -2.6819 C   0  0  0  0  0  0  0  0  0  0  0  0
   -4.9155    0.7774   -1.9918 C   0  0  0  0  0  0  0  0  0  0  0  0
   -2.7244    1.1671    0.8400 O   0  0  0  0  0  0  0  0  0  0  0  0
   -1.3868    1.1448    1.2613 C   0  0  0  0  0  0  0  0  0  0  0  0
   -0.9704    2.0454    2.0004 O   0  0  0  0  0  0  0  0  0  0  0  0
    1.0859   -2.2588    2.5626 H   0  0  0  0  0  0  0  0  0  0  0  0
    0.0297   -2.5200    1.1566 H   0  0  0  0  0  0  0  0  0  0  0  0
   -0.6435   -2.0055    2.8072 H   0  0  0  0  0  0  0  0  0  0  0  0
    0.4569    0.0902    2.6897 H   0  0  0  0  0  0  0  0  0  0  0  0
    1.4375   -2.0695   -0.2973 H   0  0  0  0  0  0  0  0  0  0  0  0
    3.6557   -1.9810   -1.2886 H   0  0  0  0  0  0  0  0  0  0  0  0
    5.0092   -0.9671   -2.5980 H   0  0  0  0  0  0  0  0  0  0  0  0
    7.3017   -0.8818   -3.5482 H   0  0  0  0  0  0  0  0  0  0  0  0
    9.0696   -0.0970    1.3879 H   0  0  0  0  0  0  0  0  0  0  0  0
    9.0658    1.5385    0.5554 H   0  0  0  0  0  0  0  0  0  0  0  0
   10.0574    0.2188   -0.1124 H   0  0  0  0  0  0  0  0  0  0  0  0
    6.6273    0.2609    1.1461 H   0  0  0  0  0  0  0  0  0  0  0  0
    4.7566    1.1877    1.2870 H   0  0  0  0  0  0  0  0  0  0  0  0
    2.5172    1.1461    2.3098 H   0  0  0  0  0  0  0  0  0  0  0  0
    0.2512   -0.1998   -1.0157 H   0  0  0  0  0  0  0  0  0  0  0  0
   -0.8710   -1.5267   -0.5200 H   0  0  0  0  0  0  0  0  0  0  0  0
   -1.5964    1.1306   -1.7489 H   0  0  0  0  0  0  0  0  0  0  0  0
   -2.1882   -0.5042   -2.0104 H   0  0  0  0  0  0  0  0  0  0  0  0
   -3.9075   -1.4437   -0.8612 H   0  0  0  0  0  0  0  0  0  0  0  0
   -2.9471   -1.4894    0.6187 H   0  0  0  0  0  0  0  0  0  0  0  0
   -4.6802    1.0376    2.1398 H   0  0  0  0  0  0  0  0  0  0  0  0
   -5.5037   -0.3381    2.8919 H   0  0  0  0  0  0  0  0  0  0  0  0
   -3.7378   -0.4631    2.6926 H   0  0  0  0  0  0  0  0  0  0  0  0
   -4.9789   -2.9302    0.4902 H   0  0  0  0  0  0  0  0  0  0  0  0
   -6.3779   -2.3005    1.4561 H   0  0  0  0  0  0  0  0  0  0  0  0
   -4.7893   -2.5536    2.2116 H   0  0  0  0  0  0  0  0  0  0  0  0
   -6.3141    0.6241    0.6910 H   0  0  0  0  0  0  0  0  0  0  0  0
   -3.3823    3.0833   -0.1092 H   0  0  0  0  0  0  0  0  0  0  0  0
   -4.9674    4.6038   -1.3325 H   0  0  0  0  0  0  0  0  0  0  0  0
   -6.4758    1.1432   -3.4076 H   0  0  0  0  0  0  0  0  0  0  0  0
   -4.9164   -0.2878   -2.1936 H   0  0  0  0  0  0  0  0  0  0  0  0
  1  2  1  0
  2  3  1  0
  3  4  2  0
  4  5  1  0
  5  6  2  0
  6  7  1  0
  7  8  1  0
  8  9  2  0
  9 10  1  0
 10 11  2  0
 10 12  1  0
 12 13  1  0
 12 14  1  0
  6 15  1  0
 15 16  2  0
  2 17  1  0
 17 18  1  0
 18 19  1  0
 19 20  1  0
 20 21  1  1
 21 22  1  0
 22 23  1  0
 22 24  1  0
 22 25  1  0
 20 26  1  0
 26 27  2  0
 27 28  1  0
 28 29  2  0
 29 30  1  0
 29 31  1  0
 31 32  2  0
 20 33  1  0
 33 34  1  0
 34 35  2  0
 16  3  1  0
 34 17  1  0
 14  7  2  0
 32 26  1  0
  1 36  1  0
  1 37  1  0
  1 38  1  0
  2 39  1  1
  4 40  1  0
  5 41  1  0
  8 42  1  0
  9 43  1  0
 13 44  1  0
 13 45  1  0
 13 46  1  0
 14 47  1  0
 15 48  1  0
 16 49  1  0
 18 50  1  0
 18 51  1  0
 19 52  1  0
 19 53  1  0
 21 54  1  0
 21 55  1  0
 23 56  1  0
 23 57  1  0
 23 58  1  0
 24 59  1  0
 24 60  1  0
 24 61  1  0
 25 62  1  0
 27 63  1  0
 28 64  1  0
 31 65  1  0
 32 66  1  0
M  END
$$$$
