
     RDKit          3D

 56 59  0  0  0  0  0  0  0  0999 V2000
    4.8688   -3.6195    0.8902 C   0  0  0  0  0  0  0  0  0  0  0  0
    5.2094   -2.2110    1.3204 C   0  0  0  0  0  0  0  0  0  0  0  0
    4.6543   -1.2529    0.3202 C   0  0  0  0  0  0  0  0  0  0  0  0
    3.4048   -0.6677    0.3348 C   0  0  0  0  0  0  0  0  0  0  0  0
    3.2631    0.1704   -0.7778 C   0  0  0  0  0  0  0  0  0  0  0  0
    2.0798    0.9603   -1.1034 C   0  0  0  0  0  0  0  0  0  0  0  0
    2.0414    1.6659   -2.1175 O   0  0  0  0  0  0  0  0  0  0  0  0
    0.9409    0.9312   -0.2515 N   0  0  0  0  0  0  0  0  0  0  0  0
   -0.2606    1.6926   -0.5228 C   0  0  2  0  0  0  0  0  0  0  0  0
   -0.4735    2.6619    0.6137 C   0  0  0  0  0  0  0  0  0  0  0  0
   -1.0735    1.8095    1.6970 C   0  0  1  0  0  0  0  0  0  0  0  0
   -1.9691    2.6217    2.5748 C   0  0  0  0  0  0  0  0  0  0  0  0
   -1.4503    3.6491    3.3786 N   0  0  0  0  0  0  0  0  0  0  0  0
   -3.1872    2.3640    2.5752 O   0  0  0  0  0  0  0  0  0  0  0  0
   -1.7761    0.7721    1.0144 N   0  0  0  0  0  0  0  0  0  0  0  0
   -2.6133   -0.2056    1.6097 C   0  0  0  0  0  0  0  0  0  0  0  0
   -2.7657   -0.1814    2.8795 O   0  0  0  0  0  0  0  0  0  0  0  0
   -3.2984   -1.2241    0.8400 C   0  0  0  0  0  0  0  0  0  0  0  0
   -2.8235   -2.4740    0.5224 C   0  0  0  0  0  0  0  0  0  0  0  0
   -3.7380   -3.1214   -0.1933 O   0  0  0  0  0  0  0  0  0  0  0  0
   -4.7900   -2.3373   -0.3520 C   0  0  0  0  0  0  0  0  0  0  0  0
   -5.9802   -2.4983   -0.9873 C   0  0  0  0  0  0  0  0  0  0  0  0
   -6.9485   -1.5353   -1.0286 C   0  0  0  0  0  0  0  0  0  0  0  0
   -6.6953   -0.3353   -0.3869 C   0  0  0  0  0  0  0  0  0  0  0  0
   -5.5122   -0.1370    0.2612 C   0  0  0  0  0  0  0  0  0  0  0  0
   -4.5451   -1.1191    0.2937 C   0  0  0  0  0  0  0  0  0  0  0  0
   -1.5081    0.8319   -0.3978 C   0  0  0  0  0  0  0  0  0  0  0  0
    4.4355    0.0562   -1.4196 N   0  0  0  0  0  0  0  0  0  0  0  0
    4.7745    0.7457   -2.6449 C   0  0  0  0  0  0  0  0  0  0  0  0
    4.3950   -0.0510   -3.8716 C   0  0  0  0  0  0  0  0  0  0  0  0
    5.2524   -0.7722   -0.7855 N   0  0  0  0  0  0  0  0  0  0  0  0
    3.7769   -3.7777    0.7851 H   0  0  0  0  0  0  0  0  0  0  0  0
    5.2007   -4.2986    1.7030 H   0  0  0  0  0  0  0  0  0  0  0  0
    5.4434   -3.8545   -0.0086 H   0  0  0  0  0  0  0  0  0  0  0  0
    6.3099   -2.1304    1.3475 H   0  0  0  0  0  0  0  0  0  0  0  0
    4.7564   -1.9803    2.2955 H   0  0  0  0  0  0  0  0  0  0  0  0
    2.6335   -0.8151    1.0783 H   0  0  0  0  0  0  0  0  0  0  0  0
    1.0129    0.3246    0.5936 H   0  0  0  0  0  0  0  0  0  0  0  0
   -0.2092    2.2681   -1.4445 H   0  0  0  0  0  0  0  0  0  0  0  0
    0.4783    3.1225    0.9495 H   0  0  0  0  0  0  0  0  0  0  0  0
   -1.2307    3.4290    0.3341 H   0  0  0  0  0  0  0  0  0  0  0  0
   -0.2560    1.3898    2.3567 H   0  0  0  0  0  0  0  0  0  0  0  0
   -1.7955    4.6216    3.2301 H   0  0  0  0  0  0  0  0  0  0  0  0
   -0.7404    3.4166    4.0960 H   0  0  0  0  0  0  0  0  0  0  0  0
   -1.8762   -2.9339    0.7723 H   0  0  0  0  0  0  0  0  0  0  0  0
   -6.1921   -3.4370   -1.4959 H   0  0  0  0  0  0  0  0  0  0  0  0
   -7.8977   -1.6819   -1.5430 H   0  0  0  0  0  0  0  0  0  0  0  0
   -7.4457    0.4507   -0.4017 H   0  0  0  0  0  0  0  0  0  0  0  0
   -5.3246    0.8086    0.7612 H   0  0  0  0  0  0  0  0  0  0  0  0
   -2.2970    1.3074   -0.9935 H   0  0  0  0  0  0  0  0  0  0  0  0
   -1.3270   -0.1800   -0.8489 H   0  0  0  0  0  0  0  0  0  0  0  0
    4.2940    1.7310   -2.7009 H   0  0  0  0  0  0  0  0  0  0  0  0
    5.8899    0.9138   -2.7167 H   0  0  0  0  0  0  0  0  0  0  0  0
    3.5085   -0.6675   -3.5916 H   0  0  0  0  0  0  0  0  0  0  0  0
    5.2536   -0.6878   -4.1666 H   0  0  0  0  0  0  0  0  0  0  0  0
    4.1228    0.6587   -4.6761 H   0  0  0  0  0  0  0  0  0  0  0  0
  1  2  1  0
  2  3  1  0
  3  4  1  0
  4  5  2  0
  5  6  1  0
  6  7  2  0
  6  8  1  0
  8  9  1  0
  9 10  1  0
 10 11  1  0
 11 12  1  0
 12 13  1  0
 12 14  2  0
 11 15  1  0
 15 16  1  0
 16 17  2  0
 16 18  1  0
 18 19  2  0
 19 20  1  0
 20 21  1  0
 21 22  2  0
 22 23  1  0
 23 24  2  0
 24 25  1  0
 25 26  2  0
 15 27  1  0
  5 28  1  0
 28 29  1  0
 29 30  1  0
 28 31  1  0
 31  3  2  0
 27  9  1  0
 26 18  1  0
 26 21  1  0
  1 32  1  0
  1 33  1  0
  1 34  1  0
  2 35  1  0
  2 36  1  0
  4 37  1  0
  8 38  1  0
  9 39  1  6
 10 40  1  0
 10 41  1  0
 11 42  1  1
 13 43  1  0
 13 44  1  0
 19 45  1  0
 22 46  1  0
 23 47  1  0
 24 48  1  0
 25 49  1  0
 27 50  1  0
 27 51  1  0
 29 52  1  0
 29 53  1  0
 30 54  1  0
 30 55  1  0
 30 56  1  0
M  END
$$$$
