
     RDKit          3D

 74 77  0  0  0  0  0  0  0  0999 V2000
   -4.5743    6.7241    1.1767 C   0  0  0  0  0  0  0  0  0  0  0  0
   -3.8804    5.5352    1.4289 O   0  0  0  0  0  0  0  0  0  0  0  0
   -3.3783    4.6783    0.4607 C   0  0  0  0  0  0  0  0  0  0  0  0
   -3.5329    4.9483   -0.8810 C   0  0  0  0  0  0  0  0  0  0  0  0
   -3.0185    4.0702   -1.8356 C   0  0  0  0  0  0  0  0  0  0  0  0
   -2.3480    2.9192   -1.4769 C   0  0  0  0  0  0  0  0  0  0  0  0
   -2.1969    2.6546   -0.1453 C   0  0  0  0  0  0  0  0  0  0  0  0
   -1.5173    1.4784    0.3978 C   0  0  0  0  0  0  0  0  0  0  0  0
   -2.2881    0.3503    0.6120 C   0  0  0  0  0  0  0  0  0  0  0  0
   -3.7531    0.3955    0.2609 C   0  0  0  0  0  0  0  0  0  0  0  0
   -1.7258   -0.7605    1.1229 N   0  0  0  0  0  0  0  0  0  0  0  0
   -2.4057   -1.9401    1.5479 C   0  0  0  0  0  0  0  0  0  0  0  0
   -3.0052   -2.9310    0.7061 C   0  0  0  0  0  0  0  0  0  0  0  0
   -4.3971   -2.8839    0.5203 C   0  0  0  0  0  0  0  0  0  0  0  0
   -5.1872   -2.0077    1.2350 F   0  0  0  0  0  0  0  0  0  0  0  0
   -5.0989   -3.7316   -0.2817 C   0  0  0  0  0  0  0  0  0  0  0  0
   -4.4536   -4.7241   -0.9801 C   0  0  0  0  0  0  0  0  0  0  0  0
   -3.0874   -4.8161   -0.8307 C   0  0  0  0  0  0  0  0  0  0  0  0
   -2.3872   -3.9253    0.0038 C   0  0  0  0  0  0  0  0  0  0  0  0
   -0.9210   -4.1389    0.0604 C   0  0  0  0  0  0  0  0  0  0  0  0
   -0.5852   -5.2519   -0.7331 F   0  0  0  0  0  0  0  0  0  0  0  0
   -0.3169   -3.0931   -0.6069 F   0  0  0  0  0  0  0  0  0  0  0  0
   -0.4334   -4.4308    1.2919 F   0  0  0  0  0  0  0  0  0  0  0  0
   -0.3767   -0.6907    1.4065 C   0  0  0  0  0  0  0  0  0  0  0  0
    0.2074   -1.7020    1.8966 O   0  0  0  0  0  0  0  0  0  0  0  0
    0.4146    0.3680    1.2221 N   0  0  0  0  0  0  0  0  0  0  0  0
    1.8169    0.4496    1.5684 C   0  0  0  0  0  0  0  0  0  0  0  0
    2.8210    0.1147    0.5503 C   0  0  2  0  0  0  0  0  0  0  0  0
    2.7114    0.9562   -0.6294 N   0  0  0  0  0  0  0  0  0  0  0  0
    3.7703    0.7495   -1.5875 C   0  0  0  0  0  0  0  0  0  0  0  0
    5.1044    1.2409   -1.0714 C   0  0  0  0  0  0  0  0  0  0  0  0
    6.1482    0.9902   -2.1432 C   0  0  0  0  0  0  0  0  0  0  0  0
    7.4903    1.4595   -1.6985 C   0  0  0  0  0  0  0  0  0  0  0  0
    8.4506    1.3272   -2.4959 O   0  0  0  0  0  0  0  0  0  0  0  0
    7.6852    2.0209   -0.4598 O   0  0  0  0  0  1  0  0  0  0  0  0
    3.0898   -1.2947    0.2748 C   0  0  0  0  0  0  0  0  0  0  0  0
    2.5589   -2.0110   -0.7722 C   0  0  0  0  0  0  0  0  0  0  0  0
    2.8513   -3.3412   -0.9754 C   0  0  0  0  0  0  0  0  0  0  0  0
    3.6966   -4.0338   -0.1366 C   0  0  0  0  0  0  0  0  0  0  0  0
    4.2427   -3.3397    0.9215 C   0  0  0  0  0  0  0  0  0  0  0  0
    3.9414   -2.0091    1.1123 C   0  0  0  0  0  0  0  0  0  0  0  0
   -0.1847    1.4849    0.6988 C   0  0  0  0  0  0  0  0  0  0  0  0
    0.4857    2.5301    0.4898 O   0  0  0  0  0  0  0  0  0  0  0  0
   -2.7057    3.5237    0.8170 C   0  0  0  0  0  0  0  0  0  0  0  0
   -2.5669    3.2814    2.1452 F   0  0  0  0  0  0  0  0  0  0  0  0
   -5.2385    6.5922    0.3028 H   0  0  0  0  0  0  0  0  0  0  0  0
   -5.1946    7.0008    2.0627 H   0  0  0  0  0  0  0  0  0  0  0  0
   -3.9140    7.5851    0.9650 H   0  0  0  0  0  0  0  0  0  0  0  0
   -4.0591    5.8530   -1.1787 H   0  0  0  0  0  0  0  0  0  0  0  0
   -3.1540    4.3039   -2.8720 H   0  0  0  0  0  0  0  0  0  0  0  0
   -1.9440    2.2279   -2.1972 H   0  0  0  0  0  0  0  0  0  0  0  0
   -4.3680    0.4481    1.1572 H   0  0  0  0  0  0  0  0  0  0  0  0
   -4.0301   -0.3303   -0.5124 H   0  0  0  0  0  0  0  0  0  0  0  0
   -3.9295    1.3927   -0.2500 H   0  0  0  0  0  0  0  0  0  0  0  0
   -1.7266   -2.4977    2.2625 H   0  0  0  0  0  0  0  0  0  0  0  0
   -3.1798   -1.5343    2.3055 H   0  0  0  0  0  0  0  0  0  0  0  0
   -6.1746   -3.6587   -0.3980 H   0  0  0  0  0  0  0  0  0  0  0  0
   -4.9644   -5.4205   -1.6293 H   0  0  0  0  0  0  0  0  0  0  0  0
   -2.5745   -5.6015   -1.3827 H   0  0  0  0  0  0  0  0  0  0  0  0
    2.0620    1.5057    1.9257 H   0  0  0  0  0  0  0  0  0  0  0  0
    2.0100   -0.1503    2.5184 H   0  0  0  0  0  0  0  0  0  0  0  0
    3.8159    0.5070    1.0115 H   0  0  0  0  0  0  0  0  0  0  0  0
    1.8122    0.7679   -1.1301 H   0  0  0  0  0  0  0  0  0  0  0  0
    3.5116    1.3619   -2.4806 H   0  0  0  0  0  0  0  0  0  0  0  0
    3.8815   -0.2859   -1.9059 H   0  0  0  0  0  0  0  0  0  0  0  0
    5.0835    2.3415   -0.8872 H   0  0  0  0  0  0  0  0  0  0  0  0
    5.4535    0.7538   -0.1624 H   0  0  0  0  0  0  0  0  0  0  0  0
    6.2381   -0.0757   -2.3850 H   0  0  0  0  0  0  0  0  0  0  0  0
    5.9162    1.5354   -3.0908 H   0  0  0  0  0  0  0  0  0  0  0  0
    1.8915   -1.5148   -1.4494 H   0  0  0  0  0  0  0  0  0  0  0  0
    2.4116   -3.8889   -1.8218 H   0  0  0  0  0  0  0  0  0  0  0  0
    3.9198   -5.0915   -0.3120 H   0  0  0  0  0  0  0  0  0  0  0  0
    4.9077   -3.8573    1.5935 H   0  0  0  0  0  0  0  0  0  0  0  0
    4.3757   -1.4634    1.9513 H   0  0  0  0  0  0  0  0  0  0  0  0
  1  2  1  0
  2  3  1  0
  3  4  2  0
  4  5  1  0
  5  6  2  0
  6  7  1  0
  7  8  1  0
  8  9  2  0
  9 10  1  0
  9 11  1  0
 11 12  1  0
 12 13  1  0
 13 14  2  0
 14 15  1  0
 14 16  1  0
 16 17  2  0
 17 18  1  0
 18 19  2  0
 19 20  1  0
 20 21  1  0
 20 22  1  0
 20 23  1  0
 11 24  1  0
 24 25  2  0
 24 26  1  0
 26 27  1  0
 27 28  1  0
 28 29  1  0
 29 30  1  0
 30 31  1  0
 31 32  1  0
 32 33  1  0
 33 34  2  0
 33 35  1  0
 28 36  1  0
 36 37  2  0
 37 38  1  0
 38 39  2  0
 39 40  1  0
 40 41  2  0
 26 42  1  0
 42 43  2  0
  7 44  2  0
 44 45  1  0
 44  3  1  0
 42  8  1  0
 19 13  1  0
 41 36  1  0
  1 46  1  0
  1 47  1  0
  1 48  1  0
  4 49  1  0
  5 50  1  0
  6 51  1  0
 10 52  1  0
 10 53  1  0
 10 54  1  0
 12 55  1  0
 12 56  1  0
 16 57  1  0
 17 58  1  0
 18 59  1  0
 27 60  1  0
 27 61  1  0
 28 62  1  1
 29 63  1  0
 30 64  1  0
 30 65  1  0
 31 66  1  0
 31 67  1  0
 32 68  1  0
 32 69  1  0
 37 70  1  0
 38 71  1  0
 39 72  1  0
 40 73  1  0
 41 74  1  0
M  CHG  1  35  -1
M  END
$$$$
