
     RDKit          3D

 40 42  0  0  0  0  0  0  0  0999 V2000
    3.4892   -2.2607   -0.3610 C   0  0  0  0  0  0  0  0  0  0  0  0
    2.0689   -2.2725   -0.6238 N   0  0  0  0  0  0  0  0  0  0  0  0
    1.7742   -1.3447   -1.6708 C   0  0  0  0  0  0  0  0  0  0  0  0
    2.0130    0.0549   -1.1849 C   0  0  0  0  0  0  0  0  0  0  0  0
    1.1526    0.4340    0.0138 C   0  0  2  0  0  0  0  0  0  0  0  0
   -0.1261    0.3548   -0.2459 O   0  0  0  0  0  0  0  0  0  0  0  0
   -1.3714    0.2706   -0.4904 C   0  0  0  0  0  0  0  0  0  0  0  0
   -1.8888    1.0337   -1.5424 C   0  0  0  0  0  0  0  0  0  0  0  0
   -3.2419    1.0194   -1.9010 C   0  0  0  0  0  0  0  0  0  0  0  0
   -4.0426    0.1884   -1.1337 C   0  0  0  0  0  0  0  0  0  0  0  0
   -3.6052   -0.5971   -0.0772 C   0  0  0  0  0  0  0  0  0  0  0  0
   -4.4746   -1.3952    0.6311 C   0  0  0  0  0  0  0  0  0  0  0  0
   -3.9541   -2.1456    1.6676 C   0  0  0  0  0  0  0  0  0  0  0  0
   -2.6125   -2.1303    2.0215 C   0  0  0  0  0  0  0  0  0  0  0  0
   -1.7841   -1.3044    1.2690 C   0  0  0  0  0  0  0  0  0  0  0  0
   -2.2544   -0.5243    0.2108 C   0  0  0  0  0  0  0  0  0  0  0  0
    1.6654    1.7745    0.4452 C   0  0  0  0  0  0  0  0  0  0  0  0
    2.7763    2.5578    0.0990 C   0  0  0  0  0  0  0  0  0  0  0  0
    2.9060    3.7510    0.7223 C   0  0  0  0  0  0  0  0  0  0  0  0
    1.8982    4.1244    1.6892 C   0  0  0  0  0  0  0  0  0  0  0  0
    0.7255    2.6344    1.6551 S   0  0  0  0  0  0  0  0  0  0  0  0
    3.7815   -1.4154    0.3068 H   0  0  0  0  0  0  0  0  0  0  0  0
    4.0446   -2.1600   -1.3102 H   0  0  0  0  0  0  0  0  0  0  0  0
    3.7821   -3.1859    0.2084 H   0  0  0  0  0  0  0  0  0  0  0  0
    1.4874   -2.1384    0.2205 H   0  0  0  0  0  0  0  0  0  0  0  0
    0.8086   -1.4889   -2.1516 H   0  0  0  0  0  0  0  0  0  0  0  0
    2.5391   -1.5321   -2.4755 H   0  0  0  0  0  0  0  0  0  0  0  0
    3.0594    0.1810   -0.8315 H   0  0  0  0  0  0  0  0  0  0  0  0
    1.8486    0.8168   -1.9726 H   0  0  0  0  0  0  0  0  0  0  0  0
    1.4352   -0.2342    0.8918 H   0  0  0  0  0  0  0  0  0  0  0  0
   -1.2473    1.6858   -2.1407 H   0  0  0  0  0  0  0  0  0  0  0  0
   -3.6196    1.6099   -2.7081 H   0  0  0  0  0  0  0  0  0  0  0  0
   -5.0731    0.1586   -1.3838 H   0  0  0  0  0  0  0  0  0  0  0  0
   -5.5241   -1.4394    0.3920 H   0  0  0  0  0  0  0  0  0  0  0  0
   -4.6291   -2.7726    2.2248 H   0  0  0  0  0  0  0  0  0  0  0  0
   -2.2282   -2.7277    2.8386 H   0  0  0  0  0  0  0  0  0  0  0  0
   -0.7377   -1.2774    1.5268 H   0  0  0  0  0  0  0  0  0  0  0  0
    3.4518    2.1620   -0.6382 H   0  0  0  0  0  0  0  0  0  0  0  0
    3.7300    4.4159    0.5166 H   0  0  0  0  0  0  0  0  0  0  0  0
    1.9773    5.1188    2.2291 H   0  0  0  0  0  0  0  0  0  0  0  0
  1  2  1  0
  2  3  1  0
  3  4  1  0
  4  5  1  0
  5  6  1  0
  6  7  1  0
  7  8  2  0
  8  9  1  0
  9 10  2  0
 10 11  1  0
 11 12  2  0
 12 13  1  0
 13 14  2  0
 14 15  1  0
 15 16  2  0
  5 17  1  0
 17 18  2  0
 18 19  1  0
 19 20  2  0
 20 21  1  0
 16  7  1  0
 21 17  1  0
 16 11  1  0
  1 22  1  0
  1 23  1  0
  1 24  1  0
  2 25  1  0
  3 26  1  0
  3 27  1  0
  4 28  1  0
  4 29  1  0
  5 30  1  1
  8 31  1  0
  9 32  1  0
 10 33  1  0
 12 34  1  0
 13 35  1  0
 14 36  1  0
 15 37  1  0
 18 38  1  0
 19 39  1  0
 20 40  1  0
M  END
$$$$
