
     RDKit          3D

 68 71  0  0  0  0  0  0  0  0999 V2000
   -9.9095   -0.2472    0.1266 C   0  0  0  0  0  0  0  0  0  0  0  0
   -8.4448   -0.0290   -0.0536 C   0  0  0  0  0  0  0  0  0  0  0  0
   -7.9154    0.5348   -1.1879 C   0  0  0  0  0  0  0  0  0  0  0  0
   -6.5471    0.7194   -1.3139 C   0  0  0  0  0  0  0  0  0  0  0  0
   -5.6778    0.3379   -0.2944 C   0  0  0  0  0  0  0  0  0  0  0  0
   -4.2503    0.5537   -0.4762 C   0  0  2  0  0  0  0  0  0  0  0  0
   -4.0402    1.6663   -1.3116 O   0  0  0  0  0  0  0  0  0  0  0  0
   -3.5148   -0.6017   -1.1280 C   0  0  0  0  0  0  0  0  0  0  0  0
   -2.1873   -0.1009   -1.5607 C   0  0  0  0  0  0  0  0  0  0  0  0
   -1.4151    0.7048   -0.5890 C   0  0  2  0  0  0  0  0  0  0  0  0
   -0.1091    0.1160   -0.3400 N   0  0  0  0  0  0  0  0  0  0  0  0
   -0.1387   -1.1976    0.1767 C   0  0  0  0  0  0  0  0  0  0  0  0
    0.7421   -1.2565    1.4068 C   0  0  0  0  0  0  0  0  0  0  0  0
    1.2496    0.1458    1.6157 C   0  0  1  0  0  0  0  0  0  0  0  0
    2.6917    0.1558    1.7344 N   0  0  0  0  0  0  0  0  0  0  0  0
    3.3832    0.6572    2.8535 C   0  0  0  0  0  0  0  0  0  0  0  0
    2.7213    1.1310    3.8369 O   0  0  0  0  0  0  0  0  0  0  0  0
    4.8483    0.6886    3.0098 C   0  0  0  0  0  0  0  0  0  0  0  0
    5.5923    0.1939    1.8820 N   0  0  0  0  0  0  0  0  0  0  0  0
    5.5698    0.7697    0.6047 C   0  0  0  0  0  0  0  0  0  0  0  0
    4.8622    1.7963    0.4136 O   0  0  0  0  0  0  0  0  0  0  0  0
    6.3359    0.2275   -0.5208 C   0  0  0  0  0  0  0  0  0  0  0  0
    6.2627    0.8616   -1.7582 C   0  0  0  0  0  0  0  0  0  0  0  0
    6.9371    0.4375   -2.8735 C   0  0  0  0  0  0  0  0  0  0  0  0
    7.7289   -0.6733   -2.7671 C   0  0  0  0  0  0  0  0  0  0  0  0
    7.8187   -1.3214   -1.5489 C   0  0  0  0  0  0  0  0  0  0  0  0
    8.6863   -2.5217   -1.4716 C   0  0  0  0  0  0  0  0  0  0  0  0
    8.7802   -3.0960   -2.7170 F   0  0  0  0  0  0  0  0  0  0  0  0
    9.9475   -2.0997   -1.0415 F   0  0  0  0  0  0  0  0  0  0  0  0
    8.2443   -3.4247   -0.5241 F   0  0  0  0  0  0  0  0  0  0  0  0
    7.1238   -0.8751   -0.4211 C   0  0  0  0  0  0  0  0  0  0  0  0
    0.7312    0.9440    0.4713 C   0  0  0  0  0  0  0  0  0  0  0  0
   -2.1037    1.1452    0.6530 C   0  0  0  0  0  0  0  0  0  0  0  0
   -3.5295    0.8087    0.8195 C   0  0  0  0  0  0  0  0  0  0  0  0
   -6.2429   -0.2210    0.8218 C   0  0  0  0  0  0  0  0  0  0  0  0
   -7.6093   -0.4131    0.9648 C   0  0  0  0  0  0  0  0  0  0  0  0
  -10.1045   -1.0452    0.8691 H   0  0  0  0  0  0  0  0  0  0  0  0
  -10.3834   -0.4606   -0.8630 H   0  0  0  0  0  0  0  0  0  0  0  0
  -10.3493    0.6919    0.5432 H   0  0  0  0  0  0  0  0  0  0  0  0
   -8.6059    0.8259   -1.9727 H   0  0  0  0  0  0  0  0  0  0  0  0
   -6.1620    1.1635   -2.2144 H   0  0  0  0  0  0  0  0  0  0  0  0
   -4.6517    2.4050   -1.1206 H   0  0  0  0  0  0  0  0  0  0  0  0
   -3.4896   -1.4959   -0.4795 H   0  0  0  0  0  0  0  0  0  0  0  0
   -4.0996   -0.8791   -2.0292 H   0  0  0  0  0  0  0  0  0  0  0  0
   -2.3333    0.4021   -2.5635 H   0  0  0  0  0  0  0  0  0  0  0  0
   -1.5738   -1.0112   -1.8315 H   0  0  0  0  0  0  0  0  0  0  0  0
   -1.1491    1.6654   -1.1391 H   0  0  0  0  0  0  0  0  0  0  0  0
   -1.1349   -1.6293    0.3498 H   0  0  0  0  0  0  0  0  0  0  0  0
    0.3483   -1.8765   -0.5846 H   0  0  0  0  0  0  0  0  0  0  0  0
    0.1394   -1.6159    2.2797 H   0  0  0  0  0  0  0  0  0  0  0  0
    1.5745   -1.9828    1.3040 H   0  0  0  0  0  0  0  0  0  0  0  0
    0.8530    0.5978    2.5619 H   0  0  0  0  0  0  0  0  0  0  0  0
    3.2302   -0.2454    0.9431 H   0  0  0  0  0  0  0  0  0  0  0  0
    5.1736    0.2262    3.9676 H   0  0  0  0  0  0  0  0  0  0  0  0
    5.1732    1.7687    3.1210 H   0  0  0  0  0  0  0  0  0  0  0  0
    6.1823   -0.6500    2.0450 H   0  0  0  0  0  0  0  0  0  0  0  0
    5.6357    1.7410   -1.8414 H   0  0  0  0  0  0  0  0  0  0  0  0
    6.8437    0.9680   -3.8087 H   0  0  0  0  0  0  0  0  0  0  0  0
    8.2689   -1.0194   -3.6454 H   0  0  0  0  0  0  0  0  0  0  0  0
    7.2262   -1.4109    0.4975 H   0  0  0  0  0  0  0  0  0  0  0  0
    1.5486    1.4254   -0.1314 H   0  0  0  0  0  0  0  0  0  0  0  0
    0.0971    1.8143    0.8080 H   0  0  0  0  0  0  0  0  0  0  0  0
   -1.5357    0.6747    1.5109 H   0  0  0  0  0  0  0  0  0  0  0  0
   -1.9736    2.2501    0.8635 H   0  0  0  0  0  0  0  0  0  0  0  0
   -4.0814    1.6420    1.3253 H   0  0  0  0  0  0  0  0  0  0  0  0
   -3.6464   -0.0626    1.5094 H   0  0  0  0  0  0  0  0  0  0  0  0
   -5.6178   -0.5279    1.6259 H   0  0  0  0  0  0  0  0  0  0  0  0
   -8.0245   -0.8664    1.8786 H   0  0  0  0  0  0  0  0  0  0  0  0
  1  2  1  0
  2  3  2  0
  3  4  1  0
  4  5  2  0
  5  6  1  0
  6  7  1  6
  6  8  1  0
  8  9  1  0
  9 10  1  0
 10 11  1  0
 11 12  1  0
 12 13  1  0
 13 14  1  0
 14 15  1  0
 15 16  1  0
 16 17  2  0
 16 18  1  0
 18 19  1  0
 19 20  1  0
 20 21  2  0
 20 22  1  0
 22 23  2  0
 23 24  1  0
 24 25  2  0
 25 26  1  0
 26 27  1  0
 27 28  1  0
 27 29  1  0
 27 30  1  0
 26 31  2  0
 14 32  1  0
 10 33  1  0
 33 34  1  0
  5 35  1  0
 35 36  2  0
 36  2  1  0
 34  6  1  0
 32 11  1  0
 31 22  1  0
  1 37  1  0
  1 38  1  0
  1 39  1  0
  3 40  1  0
  4 41  1  0
  7 42  1  0
  8 43  1  0
  8 44  1  0
  9 45  1  0
  9 46  1  0
 10 47  1  6
 12 48  1  0
 12 49  1  0
 13 50  1  0
 13 51  1  0
 14 52  1  1
 15 53  1  0
 18 54  1  0
 18 55  1  0
 19 56  1  0
 23 57  1  0
 24 58  1  0
 25 59  1  0
 31 60  1  0
 32 61  1  0
 32 62  1  0
 33 63  1  0
 33 64  1  0
 34 65  1  0
 34 66  1  0
 35 67  1  0
 36 68  1  0
M  END
$$$$
