
     RDKit          3D

 46 50  0  0  0  0  0  0  0  0999 V2000
    7.4344    1.2574    0.1799 C   0  0  0  0  0  0  0  0  0  0  0  0
    6.1037    0.5793    0.1691 C   0  0  0  0  0  0  0  0  0  0  0  0
    5.8572   -0.7487    0.0603 N   0  0  0  0  0  0  0  0  0  0  0  0
    4.5186   -0.8346    0.1034 N   0  0  0  0  0  0  0  0  0  0  0  0
    3.9427    0.3417    0.2305 C   0  0  0  0  0  0  0  0  0  0  0  0
    2.5653    0.7638    0.3272 C   0  0  0  0  0  0  0  0  0  0  0  0
    2.2053    2.0840    0.5834 C   0  0  0  0  0  0  0  0  0  0  0  0
    0.8705    2.1264    0.6944 N   0  0  0  0  0  0  0  0  0  0  0  0
    0.0609    3.1439    0.9422 N   0  0  0  0  0  0  0  0  0  0  0  0
   -1.2598    2.9655    1.0272 C   0  0  0  0  0  0  0  0  0  0  0  0
   -1.7841    1.7552    0.8653 N   0  0  0  0  0  0  0  0  0  0  0  0
   -0.9957    0.6517    0.6051 C   0  0  0  0  0  0  0  0  0  0  0  0
   -1.6302   -0.6075    0.5294 N   0  0  0  0  0  0  0  0  0  0  0  0
   -3.0345   -0.6740    0.2978 C   0  0  0  0  0  0  0  0  0  0  0  0
   -3.7727   -1.7700    0.7213 C   0  0  0  0  0  0  0  0  0  0  0  0
   -5.0995   -1.8959    0.5205 N   0  0  0  0  0  0  0  0  0  0  0  0
   -5.7957   -0.9277   -0.1235 C   0  0  0  0  0  0  0  0  0  0  0  0
   -7.0946   -0.7865   -0.4567 N   0  0  0  0  0  0  0  0  0  0  0  0
   -7.3031    0.3807   -1.1060 C   0  0  0  0  0  0  0  0  0  0  0  0
   -6.0605    0.9810   -1.1706 C   0  0  0  0  0  0  0  0  0  0  0  0
   -5.1250    0.1822   -0.5679 C   0  0  0  0  0  0  0  0  0  0  0  0
   -3.7431    0.2964   -0.3511 C   0  0  0  0  0  0  0  0  0  0  0  0
    0.3552    0.8760    0.5179 C   0  0  0  0  0  0  0  0  0  0  0  0
    1.4032   -0.0153    0.2739 C   0  0  0  0  0  0  0  0  0  0  0  0
    1.3011   -1.4310   -0.0902 C   0  0  0  0  0  0  0  0  0  0  0  0
    1.6186   -2.4075    0.9897 C   0  0  0  0  0  0  0  0  0  0  0  0
    2.2439   -1.7036   -1.2727 C   0  0  0  0  0  0  0  0  0  0  0  0
    4.9705    1.1932    0.2669 O   0  0  0  0  0  0  0  0  0  0  0  0
    7.3319    2.2556    0.6746 H   0  0  0  0  0  0  0  0  0  0  0  0
    7.8617    1.3554   -0.8325 H   0  0  0  0  0  0  0  0  0  0  0  0
    8.1933    0.6698    0.7743 H   0  0  0  0  0  0  0  0  0  0  0  0
    2.8588    2.9466    0.6800 H   0  0  0  0  0  0  0  0  0  0  0  0
   -1.8889    3.8508    1.2336 H   0  0  0  0  0  0  0  0  0  0  0  0
   -1.1992   -1.5318    0.6756 H   0  0  0  0  0  0  0  0  0  0  0  0
   -3.2280   -2.5499    1.2368 H   0  0  0  0  0  0  0  0  0  0  0  0
   -7.8619   -1.4658   -0.2556 H   0  0  0  0  0  0  0  0  0  0  0  0
   -8.2399    0.7735   -1.4975 H   0  0  0  0  0  0  0  0  0  0  0  0
   -5.8510    1.9362   -1.6273 H   0  0  0  0  0  0  0  0  0  0  0  0
   -3.2836    1.1729   -0.7307 H   0  0  0  0  0  0  0  0  0  0  0  0
    0.2970   -1.6570   -0.5800 H   0  0  0  0  0  0  0  0  0  0  0  0
    2.6876   -2.7110    1.0408 H   0  0  0  0  0  0  0  0  0  0  0  0
    1.3961   -1.9817    2.0172 H   0  0  0  0  0  0  0  0  0  0  0  0
    1.0650   -3.3792    0.8526 H   0  0  0  0  0  0  0  0  0  0  0  0
    1.5595   -2.1292   -2.1008 H   0  0  0  0  0  0  0  0  0  0  0  0
    2.6240   -0.7967   -1.7380 H   0  0  0  0  0  0  0  0  0  0  0  0
    2.9246   -2.5343   -1.0957 H   0  0  0  0  0  0  0  0  0  0  0  0
  1  2  1  0
  2  3  2  0
  3  4  1  0
  4  5  2  0
  5  6  1  0
  6  7  2  0
  7  8  1  0
  8  9  1  0
  9 10  2  0
 10 11  1  0
 11 12  2  0
 12 13  1  0
 13 14  1  0
 14 15  2  0
 15 16  1  0
 16 17  2  0
 17 18  1  0
 18 19  1  0
 19 20  2  0
 20 21  1  0
 21 22  2  0
 12 23  1  0
 23 24  2  0
 24 25  1  0
 25 26  1  0
 25 27  1  0
  5 28  1  0
 28  2  1  0
 24  6  1  0
 23  8  1  0
 22 14  1  0
 21 17  1  0
  1 29  1  0
  1 30  1  0
  1 31  1  0
  7 32  1  0
 10 33  1  0
 13 34  1  0
 15 35  1  0
 18 36  1  0
 19 37  1  0
 20 38  1  0
 22 39  1  0
 25 40  1  0
 26 41  1  0
 26 42  1  0
 26 43  1  0
 27 44  1  0
 27 45  1  0
 27 46  1  0
M  END
$$$$
