
     RDKit          3D

 50 54  0  0  0  0  0  0  0  0999 V2000
    8.0758    1.5838   -2.0645 C   0  0  0  0  0  0  0  0  0  0  0  0
    6.6569    1.3167   -1.7103 C   0  0  0  0  0  0  0  0  0  0  0  0
    5.6088    2.0557   -2.1652 N   0  0  0  0  0  0  0  0  0  0  0  0
    4.4818    1.5739   -1.6774 N   0  0  0  0  0  0  0  0  0  0  0  0
    4.7997    0.5219   -0.9060 C   0  0  0  0  0  0  0  0  0  0  0  0
    3.8186   -0.2797   -0.1887 C   0  0  0  0  0  0  0  0  0  0  0  0
    4.2754   -1.3365    0.5720 C   0  0  0  0  0  0  0  0  0  0  0  0
    3.3490   -2.0936    1.2497 C   0  0  0  0  0  0  0  0  0  0  0  0
    1.9813   -1.7977    1.1679 C   0  0  0  0  0  0  0  0  0  0  0  0
    1.0438   -2.6400    1.9212 C   0  0  0  0  0  0  0  0  0  0  0  0
    1.5290   -0.7477    0.4115 C   0  0  0  0  0  0  0  0  0  0  0  0
    0.1109   -0.4605    0.3332 C   0  0  0  0  0  0  0  0  0  0  0  0
   -0.3704    0.8455    0.5015 C   0  0  0  0  0  0  0  0  0  0  0  0
   -1.7010    1.1218    0.4223 C   0  0  0  0  0  0  0  0  0  0  0  0
   -2.6458    0.1125    0.1692 C   0  0  0  0  0  0  0  0  0  0  0  0
   -2.2086   -1.1740   -0.0001 C   0  0  0  0  0  0  0  0  0  0  0  0
   -0.8473   -1.4154    0.0876 C   0  0  0  0  0  0  0  0  0  0  0  0
   -3.3311   -2.0355   -0.2452 N   0  0  0  0  0  0  0  0  0  0  0  0
   -4.4964   -1.2515   -0.2256 C   0  0  0  0  0  0  0  0  0  0  0  0
   -5.6812   -1.6700   -0.4037 O   0  0  0  0  0  0  0  0  0  0  0  0
   -4.1171    0.1390    0.0361 C   0  0  0  0  0  0  0  0  0  0  0  0
   -4.5626    0.9998   -1.1154 C   0  0  0  0  0  0  0  0  0  0  0  0
   -5.9822    1.4392   -1.0379 C   0  0  0  0  0  0  0  0  0  0  0  0
   -6.5870    1.2316    0.1782 O   0  0  0  0  0  0  0  0  0  0  0  0
   -5.7227    1.6849    1.1737 C   0  0  0  0  0  0  0  0  0  0  0  0
   -4.6810    0.5884    1.3579 C   0  0  0  0  0  0  0  0  0  0  0  0
    2.4672    0.0030   -0.2625 C   0  0  0  0  0  0  0  0  0  0  0  0
    6.1338    0.3653   -0.9270 N   0  0  0  0  0  0  0  0  0  0  0  0
    8.5009    2.4411   -1.4972 H   0  0  0  0  0  0  0  0  0  0  0  0
    8.7226    0.7149   -1.9075 H   0  0  0  0  0  0  0  0  0  0  0  0
    8.1493    1.8399   -3.1550 H   0  0  0  0  0  0  0  0  0  0  0  0
    5.3435   -1.5639    0.6332 H   0  0  0  0  0  0  0  0  0  0  0  0
    3.6695   -2.9369    1.8615 H   0  0  0  0  0  0  0  0  0  0  0  0
    0.1109   -2.1606    2.2226 H   0  0  0  0  0  0  0  0  0  0  0  0
    1.5374   -2.9388    2.8973 H   0  0  0  0  0  0  0  0  0  0  0  0
    0.8923   -3.6389    1.4161 H   0  0  0  0  0  0  0  0  0  0  0  0
    0.3672    1.6028    0.6941 H   0  0  0  0  0  0  0  0  0  0  0  0
   -2.0912    2.1084    0.5470 H   0  0  0  0  0  0  0  0  0  0  0  0
   -0.5566   -2.4461   -0.0572 H   0  0  0  0  0  0  0  0  0  0  0  0
   -3.3000   -3.0677   -0.4108 H   0  0  0  0  0  0  0  0  0  0  0  0
   -3.9204    1.9072   -1.1083 H   0  0  0  0  0  0  0  0  0  0  0  0
   -4.3552    0.4678   -2.0666 H   0  0  0  0  0  0  0  0  0  0  0  0
   -6.5626    0.8333   -1.7919 H   0  0  0  0  0  0  0  0  0  0  0  0
   -6.1455    2.4990   -1.3425 H   0  0  0  0  0  0  0  0  0  0  0  0
   -6.2432    1.7884    2.1550 H   0  0  0  0  0  0  0  0  0  0  0  0
   -5.2562    2.6543    0.9252 H   0  0  0  0  0  0  0  0  0  0  0  0
   -3.8865    0.9852    2.0216 H   0  0  0  0  0  0  0  0  0  0  0  0
   -5.1883   -0.2317    1.9131 H   0  0  0  0  0  0  0  0  0  0  0  0
    2.1116    0.8315   -0.8592 H   0  0  0  0  0  0  0  0  0  0  0  0
    6.7029   -0.3699   -0.4246 H   0  0  0  0  0  0  0  0  0  0  0  0
  1  2  1  0
  2  3  2  0
  3  4  1  0
  4  5  2  0
  5  6  1  0
  6  7  2  0
  7  8  1  0
  8  9  2  0
  9 10  1  0
  9 11  1  0
 11 12  1  0
 12 13  2  0
 13 14  1  0
 14 15  2  0
 15 16  1  0
 16 17  2  0
 16 18  1  0
 18 19  1  0
 19 20  2  0
 19 21  1  0
 21 22  1  0
 22 23  1  0
 23 24  1  0
 24 25  1  0
 25 26  1  0
 11 27  2  0
  5 28  1  0
 28  2  1  0
 27  6  1  0
 17 12  1  0
 26 21  1  0
 21 15  1  0
  1 29  1  0
  1 30  1  0
  1 31  1  0
  7 32  1  0
  8 33  1  0
 10 34  1  0
 10 35  1  0
 10 36  1  0
 13 37  1  0
 14 38  1  0
 17 39  1  0
 18 40  1  0
 22 41  1  0
 22 42  1  0
 23 43  1  0
 23 44  1  0
 25 45  1  0
 25 46  1  0
 26 47  1  0
 26 48  1  0
 27 49  1  0
 28 50  1  0
M  END
$$$$
