
     RDKit          3D

 46 49  0  0  0  0  0  0  0  0999 V2000
    5.7559   -2.1754   -0.0074 C   0  0  0  0  0  0  0  0  0  0  0  0
    4.5907   -2.4733   -0.9112 C   0  0  0  0  0  0  0  0  0  0  0  0
    3.3502   -1.9364   -0.4093 N   0  0  0  0  0  0  0  0  0  0  0  0
    2.7945   -0.7252   -0.6403 C   0  0  0  0  0  0  0  0  0  0  0  0
    1.6059   -0.6407    0.0460 C   0  0  0  0  0  0  0  0  0  0  0  0
    0.6262    0.4706    0.1184 C   0  0  0  0  0  0  0  0  0  0  0  0
   -0.6133    0.0412   -0.5732 C   0  0  0  0  0  0  0  0  0  0  0  0
   -0.5627   -0.2610   -1.9114 C   0  0  0  0  0  0  0  0  0  0  0  0
   -1.7046   -0.6687   -2.6110 C   0  0  0  0  0  0  0  0  0  0  0  0
   -2.8886   -0.7554   -1.9009 C   0  0  0  0  0  0  0  0  0  0  0  0
   -2.9659   -0.4578   -0.5583 C   0  0  0  0  0  0  0  0  0  0  0  0
   -4.2293   -0.5614    0.1394 C   0  0  0  0  0  0  0  0  0  0  0  0
   -5.4366   -0.3182   -0.4734 C   0  0  0  0  0  0  0  0  0  0  0  0
   -6.5956   -0.4316    0.2401 N   0  0  0  0  0  0  0  0  0  0  0  0
   -6.5966   -0.7778    1.5389 C   0  0  0  0  0  0  0  0  0  0  0  0
   -5.4195   -1.0141    2.1322 N   0  0  0  0  0  0  0  0  0  0  0  0
   -4.2630   -0.9127    1.4643 C   0  0  0  0  0  0  0  0  0  0  0  0
   -1.8109   -0.0600    0.0874 C   0  0  0  0  0  0  0  0  0  0  0  0
    0.3799    0.9118    1.4559 N   0  0  0  0  0  0  0  0  0  0  0  0
    0.6375    2.1659    1.5985 C   0  0  0  0  0  0  0  0  0  0  0  0
    0.4940    2.9087    2.8123 N   0  0  0  0  0  0  0  0  0  0  0  0
    1.0928    2.7203    0.3711 N   0  0  0  0  0  0  0  0  0  0  0  0
    1.4772    4.1246    0.1640 C   0  0  0  0  0  0  0  0  0  0  0  0
    1.1038    1.6787   -0.5956 C   0  0  0  0  0  0  0  0  0  0  0  0
    1.4550    1.8045   -1.7979 O   0  0  0  0  0  0  0  0  0  0  0  0
    1.4876   -1.8543    0.6901 C   0  0  0  0  0  0  0  0  0  0  0  0
    2.5467   -2.6123    0.4002 N   0  0  0  0  0  0  0  0  0  0  0  0
    6.3353   -1.2897   -0.3026 H   0  0  0  0  0  0  0  0  0  0  0  0
    6.4564   -3.0417   -0.0556 H   0  0  0  0  0  0  0  0  0  0  0  0
    5.4699   -2.0824    1.0611 H   0  0  0  0  0  0  0  0  0  0  0  0
    4.8045   -2.0017   -1.8955 H   0  0  0  0  0  0  0  0  0  0  0  0
    4.4811   -3.5720   -0.9998 H   0  0  0  0  0  0  0  0  0  0  0  0
    3.2242    0.0375   -1.2626 H   0  0  0  0  0  0  0  0  0  0  0  0
    0.3453   -0.2066   -2.5069 H   0  0  0  0  0  0  0  0  0  0  0  0
   -1.6385   -0.9004   -3.6595 H   0  0  0  0  0  0  0  0  0  0  0  0
   -3.7617   -1.0710   -2.4542 H   0  0  0  0  0  0  0  0  0  0  0  0
   -5.5031   -0.0394   -1.5000 H   0  0  0  0  0  0  0  0  0  0  0  0
   -7.5423   -0.8607    2.0863 H   0  0  0  0  0  0  0  0  0  0  0  0
   -3.2956   -1.1047    1.9434 H   0  0  0  0  0  0  0  0  0  0  0  0
   -1.8647    0.1703    1.1229 H   0  0  0  0  0  0  0  0  0  0  0  0
    1.2807    3.0329    3.4941 H   0  0  0  0  0  0  0  0  0  0  0  0
   -0.4117    3.3703    3.0848 H   0  0  0  0  0  0  0  0  0  0  0  0
    0.9763    4.7338    0.9157 H   0  0  0  0  0  0  0  0  0  0  0  0
    2.5659    4.2615    0.1948 H   0  0  0  0  0  0  0  0  0  0  0  0
    1.1307    4.4841   -0.8357 H   0  0  0  0  0  0  0  0  0  0  0  0
    0.6362   -2.1104    1.3309 H   0  0  0  0  0  0  0  0  0  0  0  0
  1  2  1  0
  2  3  1  0
  3  4  1  0
  4  5  2  0
  5  6  1  0
  6  7  1  0
  7  8  2  0
  8  9  1  0
  9 10  2  0
 10 11  1  0
 11 12  1  0
 12 13  2  0
 13 14  1  0
 14 15  2  0
 15 16  1  0
 16 17  2  0
 11 18  2  0
  6 19  1  0
 19 20  2  0
 20 21  1  0
 20 22  1  0
 22 23  1  0
 22 24  1  0
 24 25  2  0
  5 26  1  0
 26 27  2  0
 27  3  1  0
 24  6  1  0
 18  7  1  0
 17 12  1  0
  1 28  1  0
  1 29  1  0
  1 30  1  0
  2 31  1  0
  2 32  1  0
  4 33  1  0
  8 34  1  0
  9 35  1  0
 10 36  1  0
 13 37  1  0
 15 38  1  0
 17 39  1  0
 18 40  1  0
 21 41  1  0
 21 42  1  0
 23 43  1  0
 23 44  1  0
 23 45  1  0
 26 46  1  0
M  END
$$$$
