
     RDKit          3D

 57 61  0  0  0  0  0  0  0  0999 V2000
   -4.6460    3.2854   -4.1676 C   0  0  0  0  0  0  0  0  0  0  0  0
   -4.1946    2.5176   -2.9852 C   0  0  0  0  0  0  0  0  0  0  0  0
   -3.0390    1.7803   -3.0381 C   0  0  0  0  0  0  0  0  0  0  0  0
   -2.6058    1.0552   -1.9321 C   0  0  0  0  0  0  0  0  0  0  0  0
   -3.3842    1.1131   -0.7960 C   0  0  0  0  0  0  0  0  0  0  0  0
   -3.2080    0.5158    0.4120 C   0  0  0  0  0  0  0  0  0  0  0  0
   -2.1864   -0.3490    0.8996 N   0  0  0  0  0  0  0  0  0  0  0  0
   -1.1039   -0.0708    1.6158 C   0  0  0  0  0  0  0  0  0  0  0  0
   -0.8235    1.1174    1.9877 O   0  0  0  0  0  0  0  0  0  0  0  0
   -0.3801   -1.1739    1.8794 N   0  0  0  0  0  0  0  0  0  0  0  0
    0.8332   -1.1846    2.6299 C   0  0  0  0  0  0  0  0  0  0  0  0
    2.0531   -0.9920    1.8288 C   0  0  0  0  0  0  0  0  0  0  0  0
    2.6968   -2.0932    1.3322 C   0  0  0  0  0  0  0  0  0  0  0  0
    3.8211   -1.9149    0.5928 C   0  0  0  0  0  0  0  0  0  0  0  0
    4.3222   -0.6427    0.3359 C   0  0  0  0  0  0  0  0  0  0  0  0
    5.7994   -0.5209   -0.6425 Cl  0  0  0  0  0  0  0  0  0  0  0  0
    3.7236    0.4963    0.8047 C   0  0  0  0  0  0  0  0  0  0  0  0
    4.1188    1.7579    0.6177 O   0  0  0  0  0  0  0  0  0  0  0  0
    5.1268    2.3818   -0.0168 C   0  0  2  0  0  0  0  0  0  0  0  0
    6.0148    3.1956    0.9861 C   0  0  0  0  0  0  0  0  0  0  0  0
    4.6400    3.4763   -0.9494 C   0  0  0  0  0  0  0  0  0  0  0  0
    5.4853    4.1108   -1.5799 O   0  0  0  0  0  0  0  0  0  0  0  0
    3.3054    3.7158   -1.0558 O   0  0  0  0  0  0  0  0  0  0  0  0
    2.5453    0.2484    1.5759 C   0  0  0  0  0  0  0  0  0  0  0  0
   -1.0682   -2.1794    1.2858 C   0  0  0  0  0  0  0  0  0  0  0  0
   -0.8064   -3.5361    1.2220 C   0  0  0  0  0  0  0  0  0  0  0  0
   -1.6461   -4.4133    0.5567 C   0  0  0  0  0  0  0  0  0  0  0  0
   -1.2902   -5.8461    0.5383 C   0  0  0  0  0  0  0  0  0  0  0  0
   -2.0285   -6.5638   -0.3715 F   0  0  0  0  0  0  0  0  0  0  0  0
    0.0597   -6.0464    0.3487 F   0  0  0  0  0  0  0  0  0  0  0  0
   -1.5950   -6.3511    1.8032 F   0  0  0  0  0  0  0  0  0  0  0  0
   -2.7547   -3.9134   -0.0460 C   0  0  0  0  0  0  0  0  0  0  0  0
   -3.0377   -2.5453    0.0067 C   0  0  0  0  0  0  0  0  0  0  0  0
   -2.1989   -1.6821    0.6693 C   0  0  0  0  0  0  0  0  0  0  0  0
   -4.2539    0.8962    1.1794 N   0  0  0  0  0  0  0  0  0  0  0  0
   -5.0349    1.6883    0.4784 O   0  0  0  0  0  0  0  0  0  0  0  0
   -4.5530    1.8505   -0.7219 C   0  0  0  0  0  0  0  0  0  0  0  0
   -4.9576    2.5615   -1.8391 C   0  0  0  0  0  0  0  0  0  0  0  0
   -4.5943    2.6468   -5.0844 H   0  0  0  0  0  0  0  0  0  0  0  0
   -5.6551    3.7018   -4.0202 H   0  0  0  0  0  0  0  0  0  0  0  0
   -3.9512    4.1605   -4.2676 H   0  0  0  0  0  0  0  0  0  0  0  0
   -2.4578    1.7611   -3.9463 H   0  0  0  0  0  0  0  0  0  0  0  0
   -1.7098    0.4709   -1.9418 H   0  0  0  0  0  0  0  0  0  0  0  0
    0.9189   -2.1219    3.2593 H   0  0  0  0  0  0  0  0  0  0  0  0
    0.7781   -0.3666    3.3794 H   0  0  0  0  0  0  0  0  0  0  0  0
    2.3149   -3.0783    1.5279 H   0  0  0  0  0  0  0  0  0  0  0  0
    4.3351   -2.7779    0.1973 H   0  0  0  0  0  0  0  0  0  0  0  0
    5.8946    1.7932   -0.5606 H   0  0  0  0  0  0  0  0  0  0  0  0
    6.4159    2.5346    1.7538 H   0  0  0  0  0  0  0  0  0  0  0  0
    5.3586    3.9969    1.3515 H   0  0  0  0  0  0  0  0  0  0  0  0
    6.7795    3.6665    0.3336 H   0  0  0  0  0  0  0  0  0  0  0  0
    2.9128    4.2005   -1.8576 H   0  0  0  0  0  0  0  0  0  0  0  0
    2.0712    1.1412    1.9467 H   0  0  0  0  0  0  0  0  0  0  0  0
    0.0707   -3.8887    1.7071 H   0  0  0  0  0  0  0  0  0  0  0  0
   -3.4461   -4.5716   -0.5832 H   0  0  0  0  0  0  0  0  0  0  0  0
   -3.9168   -2.1404   -0.4697 H   0  0  0  0  0  0  0  0  0  0  0  0
   -5.8680    3.1260   -1.7563 H   0  0  0  0  0  0  0  0  0  0  0  0
  1  2  1  0
  2  3  2  0
  3  4  1  0
  4  5  2  0
  5  6  1  0
  6  7  1  0
  7  8  1  0
  8  9  2  0
  8 10  1  0
 10 11  1  0
 11 12  1  0
 12 13  2  0
 13 14  1  0
 14 15  2  0
 15 16  1  0
 15 17  1  0
 17 18  1  0
 18 19  1  0
 19 20  1  0
 19 21  1  0
 21 22  2  0
 21 23  1  0
 17 24  2  0
 10 25  1  0
 25 26  2  0
 26 27  1  0
 27 28  1  0
 28 29  1  0
 28 30  1  0
 28 31  1  0
 27 32  2  0
 32 33  1  0
 33 34  2  0
  6 35  2  0
 35 36  1  0
 36 37  1  0
 37 38  2  0
 38  2  1  0
 37  5  1  0
 34  7  1  0
 24 12  1  0
 34 25  1  0
  1 39  1  0
  1 40  1  0
  1 41  1  0
  3 42  1  0
  4 43  1  0
 11 44  1  0
 11 45  1  0
 13 46  1  0
 14 47  1  0
 19 48  1  6
 20 49  1  0
 20 50  1  0
 20 51  1  0
 23 52  1  0
 24 53  1  0
 26 54  1  0
 32 55  1  0
 33 56  1  0
 38 57  1  0
M  END
$$$$
