
     RDKit          3D

 26 27  0  0  0  0  0  0  0  0999 V2000
   -4.3965    1.0247    0.9071 N   0  0  0  0  0  0  0  0  0  0  0  0
   -3.1342    0.5204    0.4776 C   0  0  0  0  0  0  0  0  0  0  0  0
   -2.0630    0.6923    1.2694 N   0  0  0  0  0  0  0  0  0  0  0  0
   -0.8559    0.2130    0.8645 C   0  0  0  0  0  0  0  0  0  0  0  0
    0.1345    0.3888    1.6290 O   0  0  0  0  0  0  0  0  0  0  0  0
   -0.7527   -0.4239   -0.3188 N   0  0  0  0  0  0  0  0  0  0  0  0
   -1.8159   -0.6081   -1.1310 C   0  0  0  0  0  0  0  0  0  0  0  0
   -3.0533   -0.1325   -0.7462 C   0  0  0  0  0  0  0  0  0  0  0  0
    0.5841   -0.9110   -0.6833 C   0  0  2  0  0  0  0  0  0  0  0  0
    0.9595   -1.9681    0.3089 C   0  0  0  0  0  0  0  0  0  0  0  0
    2.7481   -1.5831    0.4805 S   0  0  0  0  0  0  0  0  0  0  0  0
    2.7278   -0.1828   -0.6814 C   0  0  2  0  0  0  0  0  0  0  0  0
    3.5145    0.9987   -0.0966 C   0  0  0  0  0  0  0  0  0  0  0  0
    3.2370    2.1631   -0.8103 O   0  0  0  0  0  0  0  0  0  0  0  0
    1.4004    0.1794   -0.5592 O   0  0  0  0  0  0  0  0  0  0  0  0
   -5.2588    0.7634    1.4250 H   0  0  0  0  0  0  0  0  0  0  0  0
   -4.3015    1.9895    0.5031 H   0  0  0  0  0  0  0  0  0  0  0  0
   -1.6313   -1.1297   -2.0573 H   0  0  0  0  0  0  0  0  0  0  0  0
   -3.8944   -0.2855   -1.4026 H   0  0  0  0  0  0  0  0  0  0  0  0
    0.5557   -1.3609   -1.7107 H   0  0  0  0  0  0  0  0  0  0  0  0
    0.7982   -2.9690   -0.1238 H   0  0  0  0  0  0  0  0  0  0  0  0
    0.4425   -1.9166    1.2768 H   0  0  0  0  0  0  0  0  0  0  0  0
    3.0612   -0.4321   -1.6857 H   0  0  0  0  0  0  0  0  0  0  0  0
    3.1675    1.1915    0.9362 H   0  0  0  0  0  0  0  0  0  0  0  0
    4.5947    0.8147   -0.1648 H   0  0  0  0  0  0  0  0  0  0  0  0
    3.2317    2.9636   -0.2558 H   0  0  0  0  0  0  0  0  0  0  0  0
  1  2  1  0
  2  3  2  0
  3  4  1  0
  4  5  2  0
  4  6  1  0
  6  7  1  0
  7  8  2  0
  6  9  1  0
  9 10  1  0
 10 11  1  0
 11 12  1  0
 12 13  1  0
 13 14  1  0
 12 15  1  0
  8  2  1  0
 15  9  1  0
  1 16  1  0
  1 17  1  0
  7 18  1  0
  8 19  1  0
  9 20  1  6
 10 21  1  0
 10 22  1  0
 12 23  1  6
 13 24  1  0
 13 25  1  0
 14 26  1  0
M  END
$$$$
