
     RDKit          3D

 55 60  0  0  0  0  0  0  0  0999 V2000
    3.0195    3.2706    0.9188 C   0  0  0  0  0  0  0  0  0  0  0  0
    2.8444    1.7964    1.0197 C   0  0  0  0  0  0  0  0  0  0  0  0
    3.7463    0.8823    1.3777 N   0  0  0  0  0  0  0  0  0  0  0  0
    3.2307   -0.3335    1.3525 N   0  0  0  0  0  0  0  0  0  0  0  0
    3.8480   -1.5757    1.6611 C   0  0  0  0  0  0  0  0  0  0  0  0
    4.3544   -2.0278    2.8715 C   0  0  0  0  0  0  0  0  0  0  0  0
    4.8604   -3.2975    2.6995 C   0  0  0  0  0  0  0  0  0  0  0  0
    4.6640   -3.6071    1.4112 N   0  0  0  0  0  0  0  0  0  0  0  0
    4.0605   -2.5794    0.7939 N   0  0  0  0  0  0  0  0  0  0  0  0
    3.6936   -2.5653   -0.6126 C   0  0  0  0  0  0  0  0  0  0  0  0
    1.9326   -0.1871    0.9580 C   0  0  0  0  0  0  0  0  0  0  0  0
    1.6458    1.1360    0.7374 C   0  0  0  0  0  0  0  0  0  0  0  0
    0.2524    1.2812    0.3116 C   0  0  1  0  0  0  0  0  0  0  0  0
    0.1201    2.0143   -0.9713 C   0  0  0  0  0  0  0  0  0  0  0  0
   -0.3248    3.3245   -0.9489 C   0  0  0  0  0  0  0  0  0  0  0  0
   -0.4695    4.0720   -2.1009 C   0  0  0  0  0  0  0  0  0  0  0  0
   -0.1705    3.5291   -3.3338 C   0  0  0  0  0  0  0  0  0  0  0  0
   -0.3507    4.4700   -4.8060 Cl  0  0  0  0  0  0  0  0  0  0  0  0
    0.2724    2.2225   -3.3481 C   0  0  0  0  0  0  0  0  0  0  0  0
    0.4157    1.4781   -2.1917 C   0  0  0  0  0  0  0  0  0  0  0  0
   -0.2889   -0.0364    0.2997 N   0  0  0  0  0  0  0  0  0  0  0  0
   -1.6087   -0.4799   -0.0195 C   0  0  0  0  0  0  0  0  0  0  0  0
   -1.9948   -0.8582   -1.2819 C   0  0  0  0  0  0  0  0  0  0  0  0
   -3.2921   -1.2774   -1.5304 C   0  0  0  0  0  0  0  0  0  0  0  0
   -3.7220   -1.6870   -2.8818 C   0  0  0  0  0  0  0  0  0  0  0  0
   -4.1923   -1.3113   -0.4986 C   0  0  0  0  0  0  0  0  0  0  0  0
   -5.4811   -1.6526   -0.3931 N   0  0  0  0  0  0  0  0  0  0  0  0
   -5.9016   -1.5020    0.8689 N   0  0  0  0  0  0  0  0  0  0  0  0
   -4.8372   -1.0524    1.5685 C   0  0  0  0  0  0  0  0  0  0  0  0
   -4.8710   -0.7515    3.0237 C   0  0  0  0  0  0  0  0  0  0  0  0
   -3.7901   -0.9354    0.7316 N   0  0  0  0  0  0  0  0  0  0  0  0
   -2.5309   -0.5273    0.9786 C   0  0  0  0  0  0  0  0  0  0  0  0
    0.7249   -0.9493    0.6875 C   0  0  0  0  0  0  0  0  0  0  0  0
    0.6262   -2.2224    0.7907 O   0  0  0  0  0  0  0  0  0  0  0  0
    2.1363    3.7648    1.3693 H   0  0  0  0  0  0  0  0  0  0  0  0
    3.1161    3.5095   -0.1508 H   0  0  0  0  0  0  0  0  0  0  0  0
    3.9623    3.5792    1.4051 H   0  0  0  0  0  0  0  0  0  0  0  0
    4.3404   -1.4520    3.7893 H   0  0  0  0  0  0  0  0  0  0  0  0
    5.3288   -3.9560    3.4135 H   0  0  0  0  0  0  0  0  0  0  0  0
    2.7656   -3.1877   -0.7407 H   0  0  0  0  0  0  0  0  0  0  0  0
    3.5749   -1.5522   -1.0007 H   0  0  0  0  0  0  0  0  0  0  0  0
    4.4835   -3.0824   -1.2007 H   0  0  0  0  0  0  0  0  0  0  0  0
   -0.2902    1.8375    1.1126 H   0  0  0  0  0  0  0  0  0  0  0  0
   -0.5726    3.7911    0.0123 H   0  0  0  0  0  0  0  0  0  0  0  0
   -0.8196    5.1051   -2.0916 H   0  0  0  0  0  0  0  0  0  0  0  0
    0.5110    1.7817   -4.3046 H   0  0  0  0  0  0  0  0  0  0  0  0
    0.7647    0.4501   -2.2088 H   0  0  0  0  0  0  0  0  0  0  0  0
   -1.2997   -0.8361   -2.0874 H   0  0  0  0  0  0  0  0  0  0  0  0
   -4.7673   -1.3538   -3.0748 H   0  0  0  0  0  0  0  0  0  0  0  0
   -3.7649   -2.8137   -2.8749 H   0  0  0  0  0  0  0  0  0  0  0  0
   -3.0215   -1.3773   -3.6766 H   0  0  0  0  0  0  0  0  0  0  0  0
   -4.0980    0.0158    3.2602 H   0  0  0  0  0  0  0  0  0  0  0  0
   -4.6982   -1.6690    3.6148 H   0  0  0  0  0  0  0  0  0  0  0  0
   -5.8799   -0.3788    3.3101 H   0  0  0  0  0  0  0  0  0  0  0  0
   -2.2575   -0.2363    1.9810 H   0  0  0  0  0  0  0  0  0  0  0  0
  1  2  1  0
  2  3  2  0
  3  4  1  0
  4  5  1  0
  5  6  2  0
  6  7  1  0
  7  8  2  0
  8  9  1  0
  9 10  1  0
  4 11  1  0
 11 12  2  0
 12 13  1  0
 13 14  1  0
 14 15  2  0
 15 16  1  0
 16 17  2  0
 17 18  1  0
 17 19  1  0
 19 20  2  0
 13 21  1  0
 21 22  1  0
 22 23  1  0
 23 24  2  0
 24 25  1  0
 24 26  1  0
 26 27  2  0
 27 28  1  0
 28 29  2  0
 29 30  1  0
 29 31  1  0
 31 32  1  0
 21 33  1  0
 33 34  2  0
 12  2  1  0
 20 14  1  0
 32 22  2  0
  9  5  1  0
 33 11  1  0
 31 26  1  0
  1 35  1  0
  1 36  1  0
  1 37  1  0
  6 38  1  0
  7 39  1  0
 10 40  1  0
 10 41  1  0
 10 42  1  0
 13 43  1  1
 15 44  1  0
 16 45  1  0
 19 46  1  0
 20 47  1  0
 23 48  1  0
 25 49  1  0
 25 50  1  0
 25 51  1  0
 30 52  1  0
 30 53  1  0
 30 54  1  0
 32 55  1  0
M  END
$$$$
