
     RDKit          3D

 68 72  0  0  0  0  0  0  0  0999 V2000
   -4.4640   -4.3243    1.8398 C   0  0  0  0  0  0  0  0  0  0  0  0
   -4.2843   -3.8836    0.4911 N   0  0  0  0  0  0  0  0  0  0  0  0
   -3.4787   -2.7514    0.2042 C   0  0  0  0  0  0  0  0  0  0  0  0
   -4.0681   -1.5464    0.1706 N   0  0  0  0  0  0  0  0  0  0  0  0
   -3.3692   -0.4099   -0.0948 C   0  0  0  0  0  0  0  0  0  0  0  0
   -4.0705    0.8642   -0.1189 C   0  0  0  0  0  0  0  0  0  0  0  0
   -5.4250    0.9113    0.1248 C   0  0  0  0  0  0  0  0  0  0  0  0
   -6.1431    2.1038    0.1109 C   0  0  0  0  0  0  0  0  0  0  0  0
   -5.5107    3.2867   -0.1503 C   0  0  0  0  0  0  0  0  0  0  0  0
   -5.9600    4.5925   -0.2281 C   0  0  0  0  0  0  0  0  0  0  0  0
   -7.2820    5.0835   -0.0451 N   0  0  0  0  0  0  0  0  0  0  0  0
   -4.8620    5.3324   -0.5214 N   0  0  0  0  0  0  0  0  0  0  0  0
   -3.8114    4.5419   -0.6175 N   0  0  0  0  0  0  0  0  0  0  0  0
   -4.1542    3.2644   -0.3972 C   0  0  0  0  0  0  0  0  0  0  0  0
   -3.4401    2.0584   -0.3812 C   0  0  0  0  0  0  0  0  0  0  0  0
   -2.0239   -0.5573   -0.3279 C   0  0  0  0  0  0  0  0  0  0  0  0
   -1.3725   -1.7851   -0.3032 C   0  0  0  0  0  0  0  0  0  0  0  0
    0.0035   -1.9514   -0.5407 N   0  0  0  0  0  0  0  0  0  0  0  0
    0.9401   -0.9211   -0.8298 C   0  0  0  0  0  0  0  0  0  0  0  0
    2.1136   -1.2859   -1.6604 C   0  0  1  0  0  0  0  0  0  0  0  0
    3.3433   -0.9904   -0.8802 C   0  0  0  0  0  0  0  0  0  0  0  0
    4.1419   -1.9244   -0.6369 O   0  0  0  0  0  0  0  0  0  0  0  0
    3.6845    0.2924   -0.3823 N   0  0  0  0  0  0  0  0  0  0  0  0
    4.9219    0.5146    0.3837 C   0  0  0  0  0  0  0  0  0  0  0  0
    5.7892    1.4478   -0.3824 C   0  0  0  0  0  0  0  0  0  0  0  0
    5.7092    2.8789    0.0222 C   0  0  0  0  0  0  0  0  0  0  0  0
    5.9081    2.9431    1.5389 C   0  0  0  0  0  0  0  0  0  0  0  0
    4.6529    2.3214    2.1281 C   0  0  0  0  0  0  0  0  0  0  0  0
    4.6440    0.8757    1.7983 C   0  0  0  0  0  0  0  0  0  0  0  0
    2.1903   -2.6652   -2.1666 C   0  0  0  0  0  0  0  0  0  0  0  0
    1.0749   -3.5893   -1.8703 C   0  0  0  0  0  0  0  0  0  0  0  0
    0.5359   -3.3227   -0.4871 C   0  0  1  0  0  0  0  0  0  0  0  0
    1.5349   -3.4832    0.6088 C   0  0  0  0  0  0  0  0  0  0  0  0
   -2.1673   -2.8427   -0.0293 N   0  0  0  0  0  0  0  0  0  0  0  0
   -5.3853   -3.9346    2.2779 H   0  0  0  0  0  0  0  0  0  0  0  0
   -3.5653   -4.0539    2.4617 H   0  0  0  0  0  0  0  0  0  0  0  0
   -4.5061   -5.4262    1.8476 H   0  0  0  0  0  0  0  0  0  0  0  0
   -4.7354   -4.3773   -0.3000 H   0  0  0  0  0  0  0  0  0  0  0  0
   -5.9469   -0.0171    0.3342 H   0  0  0  0  0  0  0  0  0  0  0  0
   -7.2078    2.1373    0.3030 H   0  0  0  0  0  0  0  0  0  0  0  0
   -8.1189    4.6136   -0.4740 H   0  0  0  0  0  0  0  0  0  0  0  0
   -7.4788    5.9322    0.5241 H   0  0  0  0  0  0  0  0  0  0  0  0
   -2.8509    4.8644   -0.8343 H   0  0  0  0  0  0  0  0  0  0  0  0
   -2.3945    2.0970   -0.5782 H   0  0  0  0  0  0  0  0  0  0  0  0
   -1.4520    0.3141   -0.5366 H   0  0  0  0  0  0  0  0  0  0  0  0
    0.3709   -0.0655   -1.2998 H   0  0  0  0  0  0  0  0  0  0  0  0
    1.2497   -0.4852    0.1659 H   0  0  0  0  0  0  0  0  0  0  0  0
    2.1563   -0.5555   -2.5274 H   0  0  0  0  0  0  0  0  0  0  0  0
    3.0303    1.0777   -0.5754 H   0  0  0  0  0  0  0  0  0  0  0  0
    5.4695   -0.4762    0.4236 H   0  0  0  0  0  0  0  0  0  0  0  0
    6.8528    1.1311   -0.3382 H   0  0  0  0  0  0  0  0  0  0  0  0
    5.4988    1.3956   -1.4730 H   0  0  0  0  0  0  0  0  0  0  0  0
    6.5063    3.4334   -0.4977 H   0  0  0  0  0  0  0  0  0  0  0  0
    4.6974    3.3056   -0.1588 H   0  0  0  0  0  0  0  0  0  0  0  0
    6.0649    3.9750    1.8920 H   0  0  0  0  0  0  0  0  0  0  0  0
    6.7935    2.3242    1.7653 H   0  0  0  0  0  0  0  0  0  0  0  0
    4.7236    2.4376    3.2277 H   0  0  0  0  0  0  0  0  0  0  0  0
    3.7985    2.8666    1.6827 H   0  0  0  0  0  0  0  0  0  0  0  0
    5.3467    0.3584    2.5100 H   0  0  0  0  0  0  0  0  0  0  0  0
    3.6320    0.4715    2.0817 H   0  0  0  0  0  0  0  0  0  0  0  0
    3.1390   -3.1828   -1.8334 H   0  0  0  0  0  0  0  0  0  0  0  0
    2.3061   -2.6437   -3.2905 H   0  0  0  0  0  0  0  0  0  0  0  0
    0.2278   -3.4496   -2.5731 H   0  0  0  0  0  0  0  0  0  0  0  0
    1.4140   -4.6344   -1.9065 H   0  0  0  0  0  0  0  0  0  0  0  0
   -0.2909   -4.0682   -0.3152 H   0  0  0  0  0  0  0  0  0  0  0  0
    1.0838   -4.0498    1.4654 H   0  0  0  0  0  0  0  0  0  0  0  0
    1.7755   -2.4758    1.0511 H   0  0  0  0  0  0  0  0  0  0  0  0
    2.4944   -3.9181    0.2887 H   0  0  0  0  0  0  0  0  0  0  0  0
  1  2  1  0
  2  3  1  0
  3  4  2  0
  4  5  1  0
  5  6  1  0
  6  7  2  0
  7  8  1  0
  8  9  2  0
  9 10  1  0
 10 11  1  0
 10 12  2  0
 12 13  1  0
 13 14  1  0
 14 15  2  0
  5 16  2  0
 16 17  1  0
 17 18  1  0
 18 19  1  0
 19 20  1  0
 20 21  1  0
 21 22  2  0
 21 23  1  0
 23 24  1  0
 24 25  1  0
 25 26  1  0
 26 27  1  0
 27 28  1  0
 28 29  1  0
 20 30  1  0
 30 31  1  0
 31 32  1  0
 32 33  1  0
 17 34  2  0
 34  3  1  0
 15  6  1  0
 32 18  1  0
 14  9  1  0
 29 24  1  0
  1 35  1  0
  1 36  1  0
  1 37  1  0
  2 38  1  0
  7 39  1  0
  8 40  1  0
 11 41  1  0
 11 42  1  0
 13 43  1  0
 15 44  1  0
 16 45  1  0
 19 46  1  0
 19 47  1  0
 20 48  1  6
 23 49  1  0
 24 50  1  0
 25 51  1  0
 25 52  1  0
 26 53  1  0
 26 54  1  0
 27 55  1  0
 27 56  1  0
 28 57  1  0
 28 58  1  0
 29 59  1  0
 29 60  1  0
 30 61  1  0
 30 62  1  0
 31 63  1  0
 31 64  1  0
 32 65  1  1
 33 66  1  0
 33 67  1  0
 33 68  1  0
M  END
$$$$
