
     RDKit          3D

 55 57  0  0  0  0  0  0  0  0999 V2000
   -1.0814   -3.2692   -1.6363 C   0  0  0  0  0  0  0  0  0  0  0  0
   -1.0961   -2.7500   -0.1757 C   0  0  0  0  0  0  0  0  0  0  0  0
   -1.7471   -3.8337    0.6564 C   0  0  0  0  0  0  0  0  0  0  0  0
   -1.8961   -1.5382   -0.0700 C   0  0  0  0  0  0  0  0  0  0  0  0
   -3.2952   -1.6544   -0.0592 C   0  0  0  0  0  0  0  0  0  0  0  0
   -4.0693   -0.5687   -0.0242 N   0  0  0  0  0  0  0  0  0  0  0  0
   -3.5959    0.7133    0.0036 C   0  0  0  0  0  0  0  0  0  0  0  0
   -4.5431    1.8190    0.0396 C   0  0  0  0  0  0  0  0  0  0  0  0
   -5.9151    1.5304    0.0451 C   0  0  0  0  0  0  0  0  0  0  0  0
   -6.8603    2.5215    0.0782 C   0  0  0  0  0  0  0  0  0  0  0  0
   -8.5701    2.1508    0.0847 Cl  0  0  0  0  0  0  0  0  0  0  0  0
   -6.5093    3.8532    0.1078 C   0  0  0  0  0  0  0  0  0  0  0  0
   -5.1627    4.1455    0.1027 C   0  0  0  0  0  0  0  0  0  0  0  0
   -4.1917    3.1349    0.0688 C   0  0  0  0  0  0  0  0  0  0  0  0
   -2.9146    3.5588    0.0675 F   0  0  0  0  0  0  0  0  0  0  0  0
   -2.2451    0.8463   -0.0050 C   0  0  0  0  0  0  0  0  0  0  0  0
   -1.4171   -0.2712   -0.0402 C   0  0  0  0  0  0  0  0  0  0  0  0
   -0.0044   -0.0217   -0.0610 N   0  0  0  0  0  0  0  0  0  0  0  0
    0.7727   -0.4034    1.0611 C   0  0  0  0  0  0  0  0  0  0  0  0
    0.0858   -0.9217    2.1900 C   0  0  0  0  0  0  0  0  0  0  0  0
    0.8364   -1.2858    3.2705 C   0  0  0  0  0  0  0  0  0  0  0  0
    2.1761   -1.1687    3.2919 N   0  0  0  0  0  0  0  0  0  0  0  0
    2.8530   -0.6801    2.2340 C   0  0  0  0  0  0  0  0  0  0  0  0
    2.1295   -0.2874    1.0880 C   0  0  0  0  0  0  0  0  0  0  0  0
    2.8770    0.2188   -0.0474 C   0  0  0  0  0  0  0  0  0  0  0  0
    2.3423    0.5449   -1.1354 O   0  0  0  0  0  0  0  0  0  0  0  0
    4.3021    0.4017   -0.0506 N   0  0  0  0  0  0  0  0  0  0  0  0
    4.9977    0.9199   -1.2388 C   0  0  0  0  0  0  0  0  0  0  0  0
    6.4836    1.0109   -0.9652 C   0  0  2  0  0  0  0  0  0  0  0  0
    7.2412    1.6102   -2.1004 C   0  0  0  0  0  0  0  0  0  0  0  0
    6.9527   -0.2443   -0.6659 O   0  0  0  0  0  0  0  0  0  0  0  0
   -0.2184   -2.8311   -2.1641 H   0  0  0  0  0  0  0  0  0  0  0  0
   -2.0500   -3.0434   -2.1104 H   0  0  0  0  0  0  0  0  0  0  0  0
   -0.9075   -4.3607   -1.5547 H   0  0  0  0  0  0  0  0  0  0  0  0
   -0.0439   -2.6932    0.0881 H   0  0  0  0  0  0  0  0  0  0  0  0
   -2.2301   -3.3437    1.5251 H   0  0  0  0  0  0  0  0  0  0  0  0
   -2.5314   -4.3671    0.0628 H   0  0  0  0  0  0  0  0  0  0  0  0
   -1.0281   -4.5657    1.0369 H   0  0  0  0  0  0  0  0  0  0  0  0
   -3.7381   -2.6289   -0.0795 H   0  0  0  0  0  0  0  0  0  0  0  0
   -6.2186    0.4943    0.0223 H   0  0  0  0  0  0  0  0  0  0  0  0
   -7.2670    4.6310    0.1339 H   0  0  0  0  0  0  0  0  0  0  0  0
   -4.8712    5.1768    0.1254 H   0  0  0  0  0  0  0  0  0  0  0  0
   -1.7723    1.7934    0.0146 H   0  0  0  0  0  0  0  0  0  0  0  0
    0.3447    0.4289   -0.8961 H   0  0  0  0  0  0  0  0  0  0  0  0
   -0.9799   -1.0034    2.1467 H   0  0  0  0  0  0  0  0  0  0  0  0
    0.2882   -1.6845    4.1342 H   0  0  0  0  0  0  0  0  0  0  0  0
    3.9196   -0.5842    2.2411 H   0  0  0  0  0  0  0  0  0  0  0  0
    4.8408    0.1691    0.7875 H   0  0  0  0  0  0  0  0  0  0  0  0
    4.7824    0.3193   -2.1353 H   0  0  0  0  0  0  0  0  0  0  0  0
    4.6207    1.9418   -1.4171 H   0  0  0  0  0  0  0  0  0  0  0  0
    6.6153    1.6374   -0.0436 H   0  0  0  0  0  0  0  0  0  0  0  0
    7.0685    0.9979   -3.0102 H   0  0  0  0  0  0  0  0  0  0  0  0
    6.9869    2.6558   -2.3085 H   0  0  0  0  0  0  0  0  0  0  0  0
    8.3253    1.5239   -1.8678 H   0  0  0  0  0  0  0  0  0  0  0  0
    7.1284   -0.7448   -1.4902 H   0  0  0  0  0  0  0  0  0  0  0  0
  1  2  1  0
  2  3  1  0
  2  4  1  0
  4  5  2  0
  5  6  1  0
  6  7  2  0
  7  8  1  0
  8  9  2  0
  9 10  1  0
 10 11  1  0
 10 12  2  0
 12 13  1  0
 13 14  2  0
 14 15  1  0
  7 16  1  0
 16 17  2  0
 17 18  1  0
 18 19  1  0
 19 20  2  0
 20 21  1  0
 21 22  2  0
 22 23  1  0
 23 24  2  0
 24 25  1  0
 25 26  2  0
 25 27  1  0
 27 28  1  0
 28 29  1  0
 29 30  1  0
 29 31  1  0
 17  4  1  0
 24 19  1  0
 14  8  1  0
  1 32  1  0
  1 33  1  0
  1 34  1  0
  2 35  1  0
  3 36  1  0
  3 37  1  0
  3 38  1  0
  5 39  1  0
  9 40  1  0
 12 41  1  0
 13 42  1  0
 16 43  1  0
 18 44  1  0
 20 45  1  0
 21 46  1  0
 23 47  1  0
 27 48  1  0
 28 49  1  0
 28 50  1  0
 29 51  1  1
 30 52  1  0
 30 53  1  0
 30 54  1  0
 31 55  1  0
M  END
$$$$
