
     RDKit          3D

 63 67  0  0  0  0  0  0  0  0999 V2000
   -1.8405    1.9868   -0.8483 C   0  0  1  0  0  0  0  0  0  0  0  0
   -2.0385    2.9942   -1.8097 O   0  0  0  0  0  0  0  0  0  0  0  0
   -2.8470    2.2411    0.2558 C   0  0  0  0  0  0  0  0  0  0  0  0
   -3.9185    1.2246   -0.0812 C   0  0  1  0  0  0  0  0  0  0  0  0
   -3.1227    0.1036   -0.3783 O   0  0  0  0  0  0  0  0  0  0  0  0
   -2.2600    0.6464   -1.3555 C   0  0  2  0  0  0  0  0  0  0  0  0
   -1.0922   -0.3039   -1.5226 C   0  0  0  0  0  0  0  0  0  0  0  0
   -0.1749    0.1147   -2.4539 O   0  0  0  0  0  0  0  0  0  0  0  0
    1.1195   -0.9607   -2.6278 P   0  0  0  0  0  0  0  0  0  0  0  0
    0.5223   -2.4940   -2.1847 O   0  0  0  0  0  0  0  0  0  0  0  0
    1.5220   -0.9420   -4.0832 O   0  0  0  0  0  0  0  0  0  0  0  0
    2.4007   -0.6150   -1.6120 O   0  0  0  0  0  0  0  0  0  0  0  0
    2.8459    0.7025   -1.6852 C   0  0  0  0  0  0  0  0  0  0  0  0
    2.7270    1.2675   -0.2636 C   0  0  0  0  0  0  0  0  0  0  0  0
    4.1201    1.2322    0.2818 C   0  0  0  0  0  0  0  0  0  0  0  0
    4.9167    1.4223   -0.8506 O   0  0  0  0  0  0  0  0  0  0  0  0
    4.3149    0.8099   -1.9189 C   0  0  0  0  0  0  0  0  0  0  0  0
    4.9710   -0.5231   -2.2018 C   0  0  0  0  0  0  0  0  0  0  0  0
    6.3194   -0.2519   -2.4857 O   0  0  0  0  0  0  0  0  0  0  0  0
    4.4902    0.0335    0.9583 N   0  0  0  0  0  0  0  0  0  0  0  0
    3.7579   -0.9617    1.4706 C   0  0  0  0  0  0  0  0  0  0  0  0
    4.3212   -2.0472    2.0933 C   0  0  0  0  0  0  0  0  0  0  0  0
    5.6944   -2.1108    2.1927 C   0  0  0  0  0  0  0  0  0  0  0  0
    6.2596   -3.1328    2.7805 N   0  0  0  0  0  0  0  0  0  0  0  0
    6.4528   -1.1119    1.6796 N   0  0  0  0  0  0  0  0  0  0  0  0
    5.8486   -0.0505    1.0682 C   0  0  0  0  0  0  0  0  0  0  0  0
    6.7957    0.8585    0.6134 O   0  0  0  0  0  0  0  0  0  0  0  0
   -4.8115    0.9944    1.0267 N   0  0  0  0  0  0  0  0  0  0  0  0
   -4.8658    1.7057    2.1804 C   0  0  0  0  0  0  0  0  0  0  0  0
   -5.8372    1.1547    2.9352 N   0  0  0  0  0  0  0  0  0  0  0  0
   -6.3713    0.1191    2.2527 C   0  0  0  0  0  0  0  0  0  0  0  0
   -5.7226    0.0042    1.0256 C   0  0  0  0  0  0  0  0  0  0  0  0
   -6.0664   -0.9588    0.1426 N   0  0  0  0  0  0  0  0  0  0  0  0
   -7.0526   -1.7758    0.5235 C   0  0  0  0  0  0  0  0  0  0  0  0
   -7.4667   -2.7245   -0.2238 N   0  0  0  0  0  0  0  0  0  0  0  0
   -7.6939   -1.6855    1.7017 N   0  0  0  0  0  0  0  0  0  0  0  0
   -7.3835   -0.7384    2.6150 C   0  0  0  0  0  0  0  0  0  0  0  0
   -8.0456   -0.6448    3.8320 O   0  0  0  0  0  0  0  0  0  0  0  0
   -0.7989    2.0030   -0.4630 H   0  0  0  0  0  0  0  0  0  0  0  0
   -1.5580    2.8058   -2.6462 H   0  0  0  0  0  0  0  0  0  0  0  0
   -2.3849    1.9720    1.2186 H   0  0  0  0  0  0  0  0  0  0  0  0
   -3.2353    3.2774    0.2332 H   0  0  0  0  0  0  0  0  0  0  0  0
   -4.4211    1.5575   -1.0076 H   0  0  0  0  0  0  0  0  0  0  0  0
   -2.8621    0.7208   -2.2836 H   0  0  0  0  0  0  0  0  0  0  0  0
   -0.5557   -0.3615   -0.5478 H   0  0  0  0  0  0  0  0  0  0  0  0
   -1.4158   -1.3249   -1.7509 H   0  0  0  0  0  0  0  0  0  0  0  0
    0.5624   -2.5191   -1.1831 H   0  0  0  0  0  0  0  0  0  0  0  0
    2.2766    1.3058   -2.4083 H   0  0  0  0  0  0  0  0  0  0  0  0
    1.9589    0.7810    0.3281 H   0  0  0  0  0  0  0  0  0  0  0  0
    2.4540    2.3535   -0.3928 H   0  0  0  0  0  0  0  0  0  0  0  0
    4.3102    2.1130    0.9546 H   0  0  0  0  0  0  0  0  0  0  0  0
    4.4950    1.4665   -2.8093 H   0  0  0  0  0  0  0  0  0  0  0  0
    4.8224   -1.2243   -1.3770 H   0  0  0  0  0  0  0  0  0  0  0  0
    4.5708   -1.0001   -3.1088 H   0  0  0  0  0  0  0  0  0  0  0  0
    6.5511   -0.3772   -3.4296 H   0  0  0  0  0  0  0  0  0  0  0  0
    2.7080   -0.8136    1.3402 H   0  0  0  0  0  0  0  0  0  0  0  0
    3.6737   -2.8087    2.4813 H   0  0  0  0  0  0  0  0  0  0  0  0
    5.6135   -3.8644    3.1521 H   0  0  0  0  0  0  0  0  0  0  0  0
    7.4798    1.2800    1.2332 H   0  0  0  0  0  0  0  0  0  0  0  0
   -4.2300    2.5620    2.4286 H   0  0  0  0  0  0  0  0  0  0  0  0
   -5.5838   -1.0468   -0.7733 H   0  0  0  0  0  0  0  0  0  0  0  0
   -7.0899   -2.9477   -1.1710 H   0  0  0  0  0  0  0  0  0  0  0  0
   -8.1292   -1.4923    4.3705 H   0  0  0  0  0  0  0  0  0  0  0  0
  1  2  1  0
  1  3  1  0
  3  4  1  0
  4  5  1  0
  5  6  1  0
  6  7  1  0
  7  8  1  0
  8  9  1  0
  9 10  1  0
  9 11  2  0
  9 12  1  0
 12 13  1  0
 13 14  1  0
 14 15  1  0
 15 16  1  0
 16 17  1  0
 17 18  1  0
 18 19  1  0
 15 20  1  0
 20 21  1  0
 21 22  2  0
 22 23  1  0
 23 24  2  3
 23 25  1  0
 25 26  2  0
 26 27  1  0
  4 28  1  0
 28 29  1  0
 29 30  2  0
 30 31  1  0
 31 32  2  0
 32 33  1  0
 33 34  1  0
 34 35  2  3
 34 36  1  0
 36 37  2  0
 37 38  1  0
  6  1  1  0
 17 13  1  0
 26 20  1  0
 32 28  1  0
 37 31  1  0
  1 39  1  1
  2 40  1  0
  3 41  1  0
  3 42  1  0
  4 43  1  6
  6 44  1  6
  7 45  1  0
  7 46  1  0
 10 47  1  0
 13 48  1  0
 14 49  1  0
 14 50  1  0
 15 51  1  0
 17 52  1  0
 18 53  1  0
 18 54  1  0
 19 55  1  0
 21 56  1  0
 22 57  1  0
 24 58  1  0
 27 59  1  0
 29 60  1  0
 33 61  1  0
 35 62  1  0
 38 63  1  0
M  END
$$$$
