
     RDKit          3D

 47 50  0  0  0  0  0  0  0  0999 V2000
    5.0487   -0.8505    2.2668 C   0  0  0  0  0  0  0  0  0  0  0  0
    4.4873   -0.1455    1.1192 N   0  0  0  0  0  0  0  0  0  0  0  0
    5.0362    1.1479    0.7833 C   0  0  0  0  0  0  0  0  0  0  0  0
    3.4399   -0.7359    0.3852 C   0  0  0  0  0  0  0  0  0  0  0  0
    2.9758   -1.8747    0.7227 O   0  0  0  0  0  0  0  0  0  0  0  0
    2.8252   -0.1206   -0.7745 C   0  0  0  0  0  0  0  0  0  0  0  0
    3.5021    0.4499   -1.8278 C   0  0  0  0  0  0  0  0  0  0  0  0
    2.5294    0.8660   -2.6920 N   0  0  0  0  0  0  0  0  0  0  0  0
    1.3363    0.5485   -2.1605 C   0  0  0  0  0  0  0  0  0  0  0  0
    0.0258    0.7327   -2.6194 C   0  0  0  0  0  0  0  0  0  0  0  0
   -1.0259    0.2996   -1.8691 C   0  0  0  0  0  0  0  0  0  0  0  0
   -0.8038   -0.3164   -0.6628 C   0  0  0  0  0  0  0  0  0  0  0  0
   -1.9459   -0.7854    0.1050 C   0  0  0  0  0  0  0  0  0  0  0  0
   -3.0157   -0.0424    0.5260 C   0  0  0  0  0  0  0  0  0  0  0  0
   -3.2672    1.3781    0.3612 C   0  0  0  0  0  0  0  0  0  0  0  0
   -3.9492    1.8791   -0.7077 C   0  0  0  0  0  0  0  0  0  0  0  0
   -4.1797    3.2299   -0.8732 C   0  0  0  0  0  0  0  0  0  0  0  0
   -3.7172    4.1144    0.0561 C   0  0  0  0  0  0  0  0  0  0  0  0
   -3.9425    5.4374   -0.0995 F   0  0  0  0  0  0  0  0  0  0  0  0
   -3.0166    3.6350    1.1602 C   0  0  0  0  0  0  0  0  0  0  0  0
   -2.7960    2.2568    1.3038 C   0  0  0  0  0  0  0  0  0  0  0  0
   -3.8354   -0.9013    1.1736 N   0  0  0  0  0  0  0  0  0  0  0  0
   -3.2896   -2.0991    1.1475 C   0  0  0  0  0  0  0  0  0  0  0  0
   -2.1128   -2.0562    0.4897 N   0  0  0  0  0  0  0  0  0  0  0  0
   -1.2590   -3.1803    0.3476 C   0  0  0  0  0  0  0  0  0  0  0  0
   -1.3028   -3.9758   -0.8861 C   0  0  0  0  0  0  0  0  0  0  0  0
   -2.4868   -4.5623   -1.2237 F   0  0  0  0  0  0  0  0  0  0  0  0
   -0.4354   -5.0733   -0.6678 F   0  0  0  0  0  0  0  0  0  0  0  0
    0.4517   -0.4731   -0.2603 N   0  0  0  0  0  0  0  0  0  0  0  0
    1.4724   -0.0629   -0.9721 N   0  0  0  0  0  0  0  0  0  0  0  0
    4.2525   -1.5488    2.6351 H   0  0  0  0  0  0  0  0  0  0  0  0
    5.9232   -1.4441    1.9265 H   0  0  0  0  0  0  0  0  0  0  0  0
    5.2939   -0.1736    3.0839 H   0  0  0  0  0  0  0  0  0  0  0  0
    5.8151    0.9927   -0.0019 H   0  0  0  0  0  0  0  0  0  0  0  0
    4.2375    1.7769    0.3503 H   0  0  0  0  0  0  0  0  0  0  0  0
    5.5201    1.5950    1.6660 H   0  0  0  0  0  0  0  0  0  0  0  0
    4.5582    0.5763   -1.9987 H   0  0  0  0  0  0  0  0  0  0  0  0
   -0.1249    1.2162   -3.5620 H   0  0  0  0  0  0  0  0  0  0  0  0
   -2.0216    0.4458   -2.2443 H   0  0  0  0  0  0  0  0  0  0  0  0
   -4.3449    1.2337   -1.4869 H   0  0  0  0  0  0  0  0  0  0  0  0
   -4.7219    3.5863   -1.7318 H   0  0  0  0  0  0  0  0  0  0  0  0
   -2.6500    4.3348    1.8961 H   0  0  0  0  0  0  0  0  0  0  0  0
   -2.2485    1.8764    2.1687 H   0  0  0  0  0  0  0  0  0  0  0  0
   -3.7564   -2.9865    1.6075 H   0  0  0  0  0  0  0  0  0  0  0  0
   -0.1913   -2.8922    0.5552 H   0  0  0  0  0  0  0  0  0  0  0  0
   -1.4903   -3.8950    1.2035 H   0  0  0  0  0  0  0  0  0  0  0  0
   -0.8004   -3.4133   -1.7110 H   0  0  0  0  0  0  0  0  0  0  0  0
  1  2  1  0
  2  3  1  0
  2  4  1  0
  4  5  2  0
  4  6  1  0
  6  7  2  0
  7  8  1  0
  8  9  2  0
  9 10  1  0
 10 11  2  0
 11 12  1  0
 12 13  1  0
 13 14  2  0
 14 15  1  0
 15 16  2  0
 16 17  1  0
 17 18  2  0
 18 19  1  0
 18 20  1  0
 20 21  2  0
 14 22  1  0
 22 23  2  0
 23 24  1  0
 24 25  1  0
 25 26  1  0
 26 27  1  0
 26 28  1  0
 12 29  2  0
 29 30  1  0
 30  6  1  0
 30  9  1  0
 24 13  1  0
 21 15  1  0
  1 31  1  0
  1 32  1  0
  1 33  1  0
  3 34  1  0
  3 35  1  0
  3 36  1  0
  7 37  1  0
 10 38  1  0
 11 39  1  0
 16 40  1  0
 17 41  1  0
 20 42  1  0
 21 43  1  0
 23 44  1  0
 25 45  1  0
 25 46  1  0
 26 47  1  0
M  END
$$$$
