
     RDKit          3D

 70 74  0  0  0  0  0  0  0  0999 V2000
   -0.6839    0.2509   -2.5723 C   0  0  0  0  0  0  0  0  0  0  0  0
   -0.3956   -0.6470   -1.3716 C   0  0  1  0  0  0  0  0  0  0  0  0
    1.0433   -0.5763   -1.0146 C   0  0  0  0  0  0  0  0  0  0  0  0
    1.9034   -1.6454   -1.2978 C   0  0  0  0  0  0  0  0  0  0  0  0
    3.2440   -1.6353   -1.0118 C   0  0  0  0  0  0  0  0  0  0  0  0
    3.8108   -0.5460   -0.4202 C   0  0  0  0  0  0  0  0  0  0  0  0
    5.2261   -0.5411   -0.1196 C   0  0  0  0  0  0  0  0  0  0  0  0
    5.9016   -1.7009    0.2094 C   0  0  0  0  0  0  0  0  0  0  0  0
    7.2406   -1.6670    0.4878 C   0  0  0  0  0  0  0  0  0  0  0  0
    7.9736   -0.5267    0.4606 N   0  0  0  0  0  0  0  0  0  0  0  0
    9.3838   -0.5393    0.7612 C   0  0  0  0  0  0  0  0  0  0  0  0
   10.0201    0.5857    1.5095 C   0  0  0  0  0  0  0  0  0  0  0  0
   10.3447    0.3377    0.0592 C   0  0  0  0  0  0  0  0  0  0  0  0
    7.3217    0.6028    0.1414 C   0  0  0  0  0  0  0  0  0  0  0  0
    7.9137    1.6951    0.0921 O   0  0  0  0  0  0  0  0  0  0  0  0
    5.9585    0.6245   -0.1511 C   0  0  0  0  0  0  0  0  0  0  0  0
    3.0154    0.5333   -0.1194 C   0  0  0  0  0  0  0  0  0  0  0  0
    1.6478    0.5045   -0.4195 C   0  0  0  0  0  0  0  0  0  0  0  0
   -1.3088   -0.4366   -0.2824 N   0  0  0  0  0  0  0  0  0  0  0  0
   -1.4366    0.7940    0.4199 C   0  0  0  0  0  0  0  0  0  0  0  0
   -2.7452    1.0141    1.1000 C   0  0  0  0  0  0  0  0  0  0  0  0
   -3.8620    0.0947    0.6522 C   0  0  2  0  0  0  0  0  0  0  0  0
   -4.2343    0.4148   -0.7382 C   0  0  0  0  0  0  0  0  0  0  0  0
   -5.2923   -0.3835   -1.3882 C   0  0  0  0  0  0  0  0  0  0  0  0
   -6.6429   -0.4000   -0.7890 C   0  0  0  0  0  0  0  0  0  0  0  0
   -5.4263    0.1543   -2.8241 C   0  0  0  0  0  0  0  0  0  0  0  0
   -4.8855   -1.7260   -1.5690 O   0  0  0  0  0  0  0  0  0  0  0  0
   -4.9665    0.3517    1.6402 C   0  0  0  0  0  0  0  0  0  0  0  0
   -5.1780   -0.4879    2.7048 C   0  0  0  0  0  0  0  0  0  0  0  0
   -6.1719   -0.2055    3.5962 C   0  0  0  0  0  0  0  0  0  0  0  0
   -6.9822    0.9052    3.4668 C   0  0  0  0  0  0  0  0  0  0  0  0
   -6.7374    1.7226    2.3847 C   0  0  0  0  0  0  0  0  0  0  0  0
   -5.7357    1.4732    1.4522 C   0  0  0  0  0  0  0  0  0  0  0  0
   -3.3614   -1.2233    0.8173 O   0  0  0  0  0  0  0  0  0  0  0  0
   -2.1864   -1.5099    0.1509 C   0  0  0  0  0  0  0  0  0  0  0  0
   -1.8251   -2.6846   -0.1087 O   0  0  0  0  0  0  0  0  0  0  0  0
   -1.5253   -0.1826   -3.1226 H   0  0  0  0  0  0  0  0  0  0  0  0
    0.2430    0.2616   -3.1713 H   0  0  0  0  0  0  0  0  0  0  0  0
   -0.8631    1.2963   -2.2505 H   0  0  0  0  0  0  0  0  0  0  0  0
   -0.5492   -1.7066   -1.7633 H   0  0  0  0  0  0  0  0  0  0  0  0
    1.4881   -2.5217   -1.7651 H   0  0  0  0  0  0  0  0  0  0  0  0
    3.8958   -2.4818   -1.2421 H   0  0  0  0  0  0  0  0  0  0  0  0
    5.3750   -2.6239    0.2456 H   0  0  0  0  0  0  0  0  0  0  0  0
    7.7515   -2.6021    0.7460 H   0  0  0  0  0  0  0  0  0  0  0  0
    9.7900   -1.5494    1.0278 H   0  0  0  0  0  0  0  0  0  0  0  0
    9.4650    1.4683    1.8255 H   0  0  0  0  0  0  0  0  0  0  0  0
   10.8780    0.3490    2.2059 H   0  0  0  0  0  0  0  0  0  0  0  0
   10.0178    1.0749   -0.7123 H   0  0  0  0  0  0  0  0  0  0  0  0
   11.3684   -0.0658   -0.1961 H   0  0  0  0  0  0  0  0  0  0  0  0
    5.4710    1.5769   -0.4071 H   0  0  0  0  0  0  0  0  0  0  0  0
    3.4341    1.4241    0.3549 H   0  0  0  0  0  0  0  0  0  0  0  0
    1.0928    1.3913   -0.1666 H   0  0  0  0  0  0  0  0  0  0  0  0
   -1.2290    1.6885   -0.2049 H   0  0  0  0  0  0  0  0  0  0  0  0
   -0.6613    0.7933    1.2431 H   0  0  0  0  0  0  0  0  0  0  0  0
   -3.0718    2.0905    0.9784 H   0  0  0  0  0  0  0  0  0  0  0  0
   -2.6749    0.8834    2.2175 H   0  0  0  0  0  0  0  0  0  0  0  0
   -3.2996    0.2698   -1.3731 H   0  0  0  0  0  0  0  0  0  0  0  0
   -4.4043    1.5228   -0.8288 H   0  0  0  0  0  0  0  0  0  0  0  0
   -6.7215   -0.8961    0.2001 H   0  0  0  0  0  0  0  0  0  0  0  0
   -7.2004    0.5574   -0.8219 H   0  0  0  0  0  0  0  0  0  0  0  0
   -7.2740   -1.0781   -1.4564 H   0  0  0  0  0  0  0  0  0  0  0  0
   -5.9526   -0.6246   -3.4000 H   0  0  0  0  0  0  0  0  0  0  0  0
   -6.1542    1.0090   -2.7349 H   0  0  0  0  0  0  0  0  0  0  0  0
   -4.4609    0.4547   -3.2398 H   0  0  0  0  0  0  0  0  0  0  0  0
   -4.4542   -1.8739   -2.4311 H   0  0  0  0  0  0  0  0  0  0  0  0
   -4.5687   -1.3549    2.8330 H   0  0  0  0  0  0  0  0  0  0  0  0
   -6.3612   -0.8641    4.4587 H   0  0  0  0  0  0  0  0  0  0  0  0
   -7.7787    1.1274    4.1851 H   0  0  0  0  0  0  0  0  0  0  0  0
   -7.3435    2.6105    2.2324 H   0  0  0  0  0  0  0  0  0  0  0  0
   -5.6135    2.1788    0.6251 H   0  0  0  0  0  0  0  0  0  0  0  0
  1  2  1  0
  2  3  1  0
  3  4  2  0
  4  5  1  0
  5  6  2  0
  6  7  1  0
  7  8  1  0
  8  9  2  0
  9 10  1  0
 10 11  1  0
 11 12  1  0
 12 13  1  0
 10 14  1  0
 14 15  2  0
 14 16  1  0
  6 17  1  0
 17 18  2  0
  2 19  1  0
 19 20  1  0
 20 21  1  0
 21 22  1  0
 22 23  1  6
 23 24  1  0
 24 25  1  0
 24 26  1  0
 24 27  1  0
 22 28  1  0
 28 29  2  0
 29 30  1  0
 30 31  2  0
 31 32  1  0
 32 33  2  0
 22 34  1  0
 34 35  1  0
 35 36  2  0
 18  3  1  0
 35 19  1  0
 16  7  2  0
 33 28  1  0
 13 11  1  0
  1 37  1  0
  1 38  1  0
  1 39  1  0
  2 40  1  6
  4 41  1  0
  5 42  1  0
  8 43  1  0
  9 44  1  0
 11 45  1  0
 12 46  1  0
 12 47  1  0
 13 48  1  0
 13 49  1  0
 16 50  1  0
 17 51  1  0
 18 52  1  0
 20 53  1  0
 20 54  1  0
 21 55  1  0
 21 56  1  0
 23 57  1  0
 23 58  1  0
 25 59  1  0
 25 60  1  0
 25 61  1  0
 26 62  1  0
 26 63  1  0
 26 64  1  0
 27 65  1  0
 29 66  1  0
 30 67  1  0
 31 68  1  0
 32 69  1  0
 33 70  1  0
M  END
$$$$
