
     RDKit          3D

 54 58  0  0  0  0  0  0  0  0999 V2000
   -3.6159    1.4415   -1.4051 C   0  0  0  0  0  0  0  0  0  0  0  0
   -2.9556    0.9861   -0.2232 N   0  0  0  0  0  0  0  0  0  0  0  0
   -1.8433    0.1443   -0.1929 C   0  0  0  0  0  0  0  0  0  0  0  0
   -1.8178   -1.1999   -0.2356 C   0  0  0  0  0  0  0  0  0  0  0  0
   -2.9382   -2.0956   -0.3221 C   0  0  0  0  0  0  0  0  0  0  0  0
   -2.8215   -3.3443   -0.3573 N   0  0  0  0  0  0  0  0  0  0  0  0
   -4.3114   -1.5391   -0.3726 C   0  0  0  0  0  0  0  0  0  0  0  0
   -5.4773   -2.4685   -0.4687 C   0  0  0  0  0  0  0  0  0  0  0  0
   -5.1135   -1.5734   -1.6125 C   0  0  0  0  0  0  0  0  0  0  0  0
   -0.4234   -1.6393   -0.1919 C   0  0  0  0  0  0  0  0  0  0  0  0
    0.0584   -2.8191   -0.2092 O   0  0  0  0  0  0  0  0  0  0  0  0
    0.4143   -0.4906   -0.1209 N   0  0  0  0  0  0  0  0  0  0  0  0
    1.8256   -0.4930   -0.1053 C   0  0  0  0  0  0  0  0  0  0  0  0
    2.4818   -0.5972    1.0925 C   0  0  0  0  0  0  0  0  0  0  0  0
    3.8717   -0.5931    1.0892 C   0  0  0  0  0  0  0  0  0  0  0  0
    4.6151   -0.7042    2.3700 C   0  0  0  0  0  0  0  0  0  0  0  0
    4.5169   -0.4842   -0.1227 C   0  0  0  0  0  0  0  0  0  0  0  0
    5.8414   -0.4545   -0.4187 N   0  0  0  0  0  0  0  0  0  0  0  0
    5.9714   -0.3387   -1.7256 N   0  0  0  0  0  0  0  0  0  0  0  0
    4.7611   -0.2903   -2.3102 C   0  0  0  0  0  0  0  0  0  0  0  0
    4.4254   -0.1642   -3.7485 C   0  0  0  0  0  0  0  0  0  0  0  0
    3.8658   -0.3820   -1.3001 N   0  0  0  0  0  0  0  0  0  0  0  0
    2.5290   -0.3886   -1.2660 C   0  0  0  0  0  0  0  0  0  0  0  0
   -0.4240    0.6459   -0.0893 C   0  0  0  0  0  0  0  0  0  0  0  0
   -0.2798    1.5146    1.1001 C   0  0  0  0  0  0  0  0  0  0  0  0
   -0.2426    1.0586    2.3945 C   0  0  0  0  0  0  0  0  0  0  0  0
   -0.1085    1.8757    3.4925 C   0  0  0  0  0  0  0  0  0  0  0  0
   -0.0028    3.2320    3.3249 C   0  0  0  0  0  0  0  0  0  0  0  0
    0.1678    4.2630    4.7351 Cl  0  0  0  0  0  0  0  0  0  0  0  0
   -0.0351    3.7347    2.0460 C   0  0  0  0  0  0  0  0  0  0  0  0
   -0.1697    2.9036    0.9598 C   0  0  0  0  0  0  0  0  0  0  0  0
   -3.5114    0.7532   -2.2699 H   0  0  0  0  0  0  0  0  0  0  0  0
   -3.1790    2.4173   -1.7555 H   0  0  0  0  0  0  0  0  0  0  0  0
   -4.7012    1.6516   -1.2481 H   0  0  0  0  0  0  0  0  0  0  0  0
   -3.3517    1.3308    0.7036 H   0  0  0  0  0  0  0  0  0  0  0  0
   -1.9198   -3.8243   -0.3273 H   0  0  0  0  0  0  0  0  0  0  0  0
   -4.5228   -0.6899    0.3368 H   0  0  0  0  0  0  0  0  0  0  0  0
   -6.3932   -2.2881    0.1269 H   0  0  0  0  0  0  0  0  0  0  0  0
   -5.2131   -3.5452   -0.5335 H   0  0  0  0  0  0  0  0  0  0  0  0
   -4.7411   -2.0636   -2.5312 H   0  0  0  0  0  0  0  0  0  0  0  0
   -5.7922   -0.6955   -1.8116 H   0  0  0  0  0  0  0  0  0  0  0  0
    2.0076   -0.6874    2.0550 H   0  0  0  0  0  0  0  0  0  0  0  0
    4.0963   -1.5198    2.9496 H   0  0  0  0  0  0  0  0  0  0  0  0
    5.6474   -1.0430    2.2242 H   0  0  0  0  0  0  0  0  0  0  0  0
    4.6073    0.2473    2.9437 H   0  0  0  0  0  0  0  0  0  0  0  0
    5.2567   -0.4878   -4.4011 H   0  0  0  0  0  0  0  0  0  0  0  0
    3.5575   -0.8267   -4.0297 H   0  0  0  0  0  0  0  0  0  0  0  0
    4.1728    0.8936   -4.0017 H   0  0  0  0  0  0  0  0  0  0  0  0
    2.0385   -0.3030   -2.2500 H   0  0  0  0  0  0  0  0  0  0  0  0
   -0.2810    1.2953   -0.9949 H   0  0  0  0  0  0  0  0  0  0  0  0
   -0.3224   -0.0039    2.5765 H   0  0  0  0  0  0  0  0  0  0  0  0
   -0.0831    1.4725    4.5097 H   0  0  0  0  0  0  0  0  0  0  0  0
    0.0502    4.8124    1.9353 H   0  0  0  0  0  0  0  0  0  0  0  0
   -0.1876    3.3645   -0.0130 H   0  0  0  0  0  0  0  0  0  0  0  0
  1  2  1  0
  2  3  1  0
  3  4  2  0
  4  5  1  0
  5  6  2  3
  5  7  1  0
  7  8  1  0
  8  9  1  0
  4 10  1  0
 10 11  2  0
 10 12  1  0
 12 13  1  0
 13 14  1  0
 14 15  2  0
 15 16  1  0
 15 17  1  0
 17 18  2  0
 18 19  1  0
 19 20  2  0
 20 21  1  0
 20 22  1  0
 22 23  1  0
 12 24  1  0
 24 25  1  0
 25 26  2  0
 26 27  1  0
 27 28  2  0
 28 29  1  0
 28 30  1  0
 30 31  2  0
 24  3  1  0
 31 25  1  0
  9  7  1  0
 23 13  2  0
 22 17  1  0
  1 32  1  0
  1 33  1  0
  1 34  1  0
  2 35  1  0
  6 36  1  0
  7 37  1  0
  8 38  1  0
  8 39  1  0
  9 40  1  0
  9 41  1  0
 14 42  1  0
 16 43  1  0
 16 44  1  0
 16 45  1  0
 21 46  1  0
 21 47  1  0
 21 48  1  0
 23 49  1  0
 24 50  1  0
 26 51  1  0
 27 52  1  0
 30 53  1  0
 31 54  1  0
M  END
$$$$
