
     RDKit          3D

 44 46  0  0  0  0  0  0  0  0999 V2000
   -7.3504    1.0637    0.5380 C   0  0  0  0  0  0  0  0  0  0  0  0
   -5.9006    1.5234    0.3877 C   0  0  0  0  0  0  0  0  0  0  0  0
   -5.0269    0.4080    0.3434 O   0  0  0  0  0  0  0  0  0  0  0  0
   -3.6678    0.6719    0.2079 C   0  0  0  0  0  0  0  0  0  0  0  0
   -2.7229   -0.3324    0.1532 C   0  0  0  0  0  0  0  0  0  0  0  0
   -3.2289   -1.6197    0.2432 O   0  0  0  0  0  0  0  0  0  0  0  0
   -2.4886   -2.7985    0.2123 C   0  0  0  0  0  0  0  0  0  0  0  0
   -1.6896   -3.0067   -1.0543 C   0  0  0  0  0  0  0  0  0  0  0  0
   -1.3645   -0.1335    0.0199 C   0  0  0  0  0  0  0  0  0  0  0  0
   -0.9566    1.1705   -0.0616 C   0  0  0  0  0  0  0  0  0  0  0  0
   -1.8410    2.2251   -0.0143 C   0  0  0  0  0  0  0  0  0  0  0  0
   -3.1907    1.9743    0.1200 C   0  0  0  0  0  0  0  0  0  0  0  0
    0.4919    1.4040   -0.2044 C   0  0  0  0  0  0  0  0  0  0  0  0
    1.4332    0.7151   -0.2691 N   0  0  0  0  0  0  0  0  0  0  0  0
    2.6885    1.0419   -0.3969 C   0  0  0  0  0  0  0  0  0  0  0  0
    2.8955    2.5410   -0.4663 C   0  0  0  0  0  0  0  0  0  0  0  0
    1.1334    3.1753   -0.3233 S   0  0  0  0  0  0  0  0  0  0  0  0
    3.8479    0.1796   -0.4762 C   0  0  0  0  0  0  0  0  0  0  0  0
    5.1160    0.5843   -0.6080 N   0  0  0  0  0  0  0  0  0  0  0  0
    6.1769   -0.2357   -0.6796 C   0  0  0  0  0  0  0  0  0  0  0  0
    5.9722   -1.5956   -0.6152 C   0  0  0  0  0  0  0  0  0  0  0  0
    4.7057   -2.0976   -0.4803 C   0  0  0  0  0  0  0  0  0  0  0  0
    3.6883   -1.1714   -0.4163 C   0  0  0  0  0  0  0  0  0  0  0  0
    7.5040    0.3530   -0.8230 C   0  0  0  0  0  0  0  0  0  0  0  0
    8.5944   -0.4841   -0.8968 O   0  0  0  0  0  0  0  0  0  0  0  0
    7.6001    1.5867   -0.8729 O   0  0  0  0  0  0  0  0  0  0  0  0
   -7.7119    0.7595   -0.4541 H   0  0  0  0  0  0  0  0  0  0  0  0
   -7.9222    1.9538    0.8771 H   0  0  0  0  0  0  0  0  0  0  0  0
   -7.3623    0.2591    1.2884 H   0  0  0  0  0  0  0  0  0  0  0  0
   -5.8907    2.1218   -0.5565 H   0  0  0  0  0  0  0  0  0  0  0  0
   -5.6199    2.2212    1.1860 H   0  0  0  0  0  0  0  0  0  0  0  0
   -3.0867   -3.6616    0.5093 H   0  0  0  0  0  0  0  0  0  0  0  0
   -1.7097   -2.6862    1.0234 H   0  0  0  0  0  0  0  0  0  0  0  0
   -1.8531   -2.1255   -1.7021 H   0  0  0  0  0  0  0  0  0  0  0  0
   -2.1441   -3.8767   -1.5822 H   0  0  0  0  0  0  0  0  0  0  0  0
   -0.6188   -3.1466   -0.8948 H   0  0  0  0  0  0  0  0  0  0  0  0
   -0.6463   -0.9142   -0.0206 H   0  0  0  0  0  0  0  0  0  0  0  0
   -1.5055    3.2459   -0.0796 H   0  0  0  0  0  0  0  0  0  0  0  0
   -3.8651    2.8244    0.1546 H   0  0  0  0  0  0  0  0  0  0  0  0
    3.9896    2.9997   -0.5835 H   0  0  0  0  0  0  0  0  0  0  0  0
    6.8373   -2.2684   -0.6735 H   0  0  0  0  0  0  0  0  0  0  0  0
    4.4885   -3.1455   -0.4251 H   0  0  0  0  0  0  0  0  0  0  0  0
    2.6706   -1.5776   -0.3079 H   0  0  0  0  0  0  0  0  0  0  0  0
    9.5308   -0.1257   -0.7176 H   0  0  0  0  0  0  0  0  0  0  0  0
  1  2  1  0
  2  3  1  0
  3  4  1  0
  4  5  2  0
  5  6  1  0
  6  7  1  0
  7  8  1  0
  5  9  1  0
  9 10  2  0
 10 11  1  0
 11 12  2  0
 10 13  1  0
 13 14  2  0
 14 15  1  0
 15 16  2  0
 16 17  1  0
 15 18  1  0
 18 19  2  0
 19 20  1  0
 20 21  2  0
 21 22  1  0
 22 23  2  0
 20 24  1  0
 24 25  1  0
 24 26  2  0
 12  4  1  0
 17 13  1  0
 23 18  1  0
  1 27  1  0
  1 28  1  0
  1 29  1  0
  2 30  1  0
  2 31  1  0
  7 32  1  0
  7 33  1  0
  8 34  1  0
  8 35  1  0
  8 36  1  0
  9 37  1  0
 11 38  1  0
 12 39  1  0
 16 40  1  0
 21 41  1  0
 22 42  1  0
 23 43  1  0
 25 44  1  0
M  END
$$$$
