
     RDKit          3D

 39 41  0  0  0  0  0  0  0  0999 V2000
    0.2981   -4.2520   -2.3182 N   0  0  0  0  0  0  0  0  0  0  0  0
    0.1364   -3.3070   -1.4880 C   0  0  0  0  0  0  0  0  0  0  0  0
   -0.0283   -2.2031   -0.5087 C   0  0  1  0  0  0  0  0  0  0  0  0
    1.1127   -1.3390   -0.4446 N   0  0  0  0  0  0  0  0  0  0  0  0
    1.5885   -0.4799   -1.4793 C   0  0  0  0  0  0  0  0  0  0  0  0
    0.9848   -0.4508   -2.5556 O   0  0  0  0  0  0  0  0  0  0  0  0
    2.8269    0.3688   -1.1996 C   0  0  1  0  0  0  0  0  0  0  0  0
    3.3354    0.8266   -2.4705 N   0  0  0  0  0  0  0  0  0  0  0  0
    2.5148    1.5330   -0.3075 C   0  0  0  0  0  0  0  0  0  0  0  0
    1.3979    2.3490   -0.9601 C   0  0  0  0  0  0  0  0  0  0  0  0
    0.1020    2.1711   -0.7363 C   0  0  0  0  0  0  0  0  0  0  0  0
   -0.8067    2.9958   -1.4371 C   0  0  0  0  0  0  0  0  0  0  0  0
   -0.3106    3.8970   -2.2675 C   0  0  0  0  0  0  0  0  0  0  0  0
    1.5332    3.6214   -2.1035 S   0  0  0  0  0  0  0  0  0  0  0  0
   -1.3920   -1.5728   -0.7792 C   0  0  0  0  0  0  0  0  0  0  0  0
   -1.0457   -2.4023    0.5011 C   0  0  2  0  0  0  0  0  0  0  0  0
   -1.3632   -1.5925    1.6725 C   0  0  0  0  0  0  0  0  0  0  0  0
   -0.7104   -0.5379    2.1800 C   0  0  0  0  0  0  0  0  0  0  0  0
   -1.0962    0.2552    3.2699 C   0  0  0  0  0  0  0  0  0  0  0  0
   -2.3092   -0.1542    3.8529 C   0  0  0  0  0  0  0  0  0  0  0  0
   -2.9912   -1.1701    3.4117 C   0  0  0  0  0  0  0  0  0  0  0  0
   -2.5874   -1.9622    2.3059 C   0  0  0  0  0  0  0  0  0  0  0  0
    1.6771   -1.3234    0.4307 H   0  0  0  0  0  0  0  0  0  0  0  0
    3.5836   -0.3026   -0.7413 H   0  0  0  0  0  0  0  0  0  0  0  0
    2.6889    1.5442   -2.9206 H   0  0  0  0  0  0  0  0  0  0  0  0
    3.4490    0.0132   -3.1523 H   0  0  0  0  0  0  0  0  0  0  0  0
    2.1698    1.3082    0.6890 H   0  0  0  0  0  0  0  0  0  0  0  0
    3.3883    2.2134   -0.3509 H   0  0  0  0  0  0  0  0  0  0  0  0
   -0.2803    1.4071   -0.0203 H   0  0  0  0  0  0  0  0  0  0  0  0
   -1.8937    2.8216   -1.2454 H   0  0  0  0  0  0  0  0  0  0  0  0
   -0.7038    4.6328   -2.9375 H   0  0  0  0  0  0  0  0  0  0  0  0
   -1.4495   -0.4929   -0.6966 H   0  0  0  0  0  0  0  0  0  0  0  0
   -2.1132   -2.0388   -1.4443 H   0  0  0  0  0  0  0  0  0  0  0  0
   -1.5801   -3.4178    0.5033 H   0  0  0  0  0  0  0  0  0  0  0  0
    0.2348   -0.2320    1.7421 H   0  0  0  0  0  0  0  0  0  0  0  0
   -0.5580    1.0758    3.5981 H   0  0  0  0  0  0  0  0  0  0  0  0
   -2.6607    0.4430    4.7122 H   0  0  0  0  0  0  0  0  0  0  0  0
   -3.9450   -1.4863    3.8861 H   0  0  0  0  0  0  0  0  0  0  0  0
   -3.1972   -2.7596    2.0073 H   0  0  0  0  0  0  0  0  0  0  0  0
  1  2  3  0
  3  2  1  6
  3  4  1  0
  4  5  1  0
  5  6  2  0
  5  7  1  0
  7  8  1  0
  7  9  1  0
  9 10  1  0
 10 11  2  0
 11 12  1  0
 12 13  2  0
 13 14  1  0
  3 15  1  0
 15 16  1  0
 16 17  1  0
 17 18  2  0
 18 19  1  0
 19 20  2  0
 20 21  1  0
 21 22  2  0
 16  3  1  0
 22 17  1  0
 14 10  1  0
  4 23  1  0
  7 24  1  1
  8 25  1  0
  8 26  1  0
  9 27  1  0
  9 28  1  0
 11 29  1  0
 12 30  1  0
 13 31  1  0
 15 32  1  0
 15 33  1  0
 16 34  1  1
 18 35  1  0
 19 36  1  0
 20 37  1  0
 21 38  1  0
 22 39  1  0
M  END
$$$$
