
     RDKit          3D

 62 67  0  0  0  0  0  0  0  0999 V2000
    3.7426   -0.7459    1.3038 O   0  0  0  0  0  0  0  0  0  0  0  0
    3.2617    0.0832    0.4924 C   0  0  0  0  0  0  0  0  0  0  0  0
    4.1385    0.7251   -0.3644 O   0  0  0  0  0  0  0  0  0  0  0  0
    5.4885    0.4343   -0.2947 C   0  0  0  0  0  0  0  0  0  0  0  0
    6.1020   -0.5735   -1.0119 C   0  0  0  0  0  0  0  0  0  0  0  0
    7.4522   -0.8318   -0.9145 C   0  0  0  0  0  0  0  0  0  0  0  0
    8.2429   -0.0877   -0.0917 C   0  0  0  0  0  0  0  0  0  0  0  0
    9.6440   -0.3605    0.0055 N   0  0  0  0  0  4  0  0  0  0  0  0
   10.3342    0.3498    0.7751 O   0  0  0  0  0  0  0  0  0  0  0  0
   10.2362   -1.3673   -0.7153 O   0  0  0  0  0  1  0  0  0  0  0  0
    7.6592    0.9256    0.6372 C   0  0  0  0  0  0  0  0  0  0  0  0
    6.3182    1.1866    0.5442 C   0  0  0  0  0  0  0  0  0  0  0  0
    1.8768    0.3912    0.4118 N   0  0  0  0  0  0  0  0  0  0  0  0
    1.4078    1.3672   -0.5584 C   0  0  0  0  0  0  0  0  0  0  0  0
    0.1632    0.7548   -1.1785 C   0  0  0  0  0  0  0  0  0  0  0  0
   -0.8281    0.4973   -0.0874 C   0  0  0  0  0  0  0  0  0  0  0  0
   -2.2324    0.6367   -0.3745 C   0  0  0  0  0  0  0  0  0  0  0  0
   -2.4357    2.0004   -0.7788 O   0  0  0  0  0  0  0  0  0  0  0  0
   -2.9829    0.5616    0.9263 C   0  0  0  0  0  0  0  0  0  0  0  0
   -3.3984   -0.6667    1.4230 C   0  0  0  0  0  0  0  0  0  0  0  0
   -4.0806   -0.8359    2.5908 C   0  0  0  0  0  0  0  0  0  0  0  0
   -4.3788    0.2905    3.3301 C   0  0  0  0  0  0  0  0  0  0  0  0
   -3.9811    1.5276    2.8664 C   0  0  0  0  0  0  0  0  0  0  0  0
   -3.2930    1.6617    1.6816 C   0  0  0  0  0  0  0  0  0  0  0  0
   -4.4300    2.4485    3.8315 O   0  0  0  0  0  0  0  0  0  0  0  0
   -4.8310    1.7306    4.9941 C   0  0  0  0  0  0  0  0  0  0  0  0
   -5.0470    0.4122    4.5288 O   0  0  0  0  0  0  0  0  0  0  0  0
   -2.9680   -0.1485   -1.3168 C   0  0  0  0  0  0  0  0  0  0  0  0
   -4.2971    0.1721   -1.5304 C   0  0  0  0  0  0  0  0  0  0  0  0
   -5.0573   -0.5541   -2.4383 C   0  0  0  0  0  0  0  0  0  0  0  0
   -4.5129   -1.5950   -3.1367 C   0  0  0  0  0  0  0  0  0  0  0  0
   -3.2046   -1.9266   -2.9405 C   0  0  0  0  0  0  0  0  0  0  0  0
   -2.4556   -1.1923   -2.0297 C   0  0  0  0  0  0  0  0  0  0  0  0
   -2.9035   -3.0001   -3.7568 O   0  0  0  0  0  0  0  0  0  0  0  0
   -3.9133   -3.0095   -4.7691 C   0  0  0  0  0  0  0  0  0  0  0  0
   -5.0351   -2.4824   -4.0961 O   0  0  0  0  0  0  0  0  0  0  0  0
   -0.3413   -0.6959    0.6883 C   0  0  0  0  0  0  0  0  0  0  0  0
    1.0071   -0.3023    1.3227 C   0  0  0  0  0  0  0  0  0  0  0  0
    5.4611   -1.1580   -1.6626 H   0  0  0  0  0  0  0  0  0  0  0  0
    7.8826   -1.6307   -1.4958 H   0  0  0  0  0  0  0  0  0  0  0  0
    8.3238    1.5028    1.2874 H   0  0  0  0  0  0  0  0  0  0  0  0
    5.9055    1.9866    1.1309 H   0  0  0  0  0  0  0  0  0  0  0  0
    1.1791    2.3488   -0.1001 H   0  0  0  0  0  0  0  0  0  0  0  0
    2.1452    1.4619   -1.3943 H   0  0  0  0  0  0  0  0  0  0  0  0
   -0.1813    1.4495   -1.9520 H   0  0  0  0  0  0  0  0  0  0  0  0
    0.5636   -0.2081   -1.6036 H   0  0  0  0  0  0  0  0  0  0  0  0
   -0.6333    1.3441    0.6660 H   0  0  0  0  0  0  0  0  0  0  0  0
   -1.7308    2.5736   -0.3966 H   0  0  0  0  0  0  0  0  0  0  0  0
   -3.1542   -1.5350    0.8277 H   0  0  0  0  0  0  0  0  0  0  0  0
   -4.3780   -1.8430    2.9218 H   0  0  0  0  0  0  0  0  0  0  0  0
   -2.9871    2.6517    1.3323 H   0  0  0  0  0  0  0  0  0  0  0  0
   -5.7669    2.0894    5.4231 H   0  0  0  0  0  0  0  0  0  0  0  0
   -4.0104    1.6830    5.7457 H   0  0  0  0  0  0  0  0  0  0  0  0
   -4.8186    0.9755   -1.0284 H   0  0  0  0  0  0  0  0  0  0  0  0
   -6.1062   -0.3071   -2.6122 H   0  0  0  0  0  0  0  0  0  0  0  0
   -1.4480   -1.4649   -1.8981 H   0  0  0  0  0  0  0  0  0  0  0  0
   -4.0875   -4.0430   -5.1359 H   0  0  0  0  0  0  0  0  0  0  0  0
   -3.6587   -2.3210   -5.5893 H   0  0  0  0  0  0  0  0  0  0  0  0
   -0.9997   -0.8145    1.5994 H   0  0  0  0  0  0  0  0  0  0  0  0
   -0.2464   -1.6219    0.1261 H   0  0  0  0  0  0  0  0  0  0  0  0
    1.4535   -1.2659    1.6450 H   0  0  0  0  0  0  0  0  0  0  0  0
    0.8249    0.3652    2.1942 H   0  0  0  0  0  0  0  0  0  0  0  0
  1  2  2  0
  2  3  1  0
  3  4  1  0
  4  5  2  0
  5  6  1  0
  6  7  2  0
  7  8  1  0
  8  9  2  0
  8 10  1  0
  7 11  1  0
 11 12  2  0
  2 13  1  0
 13 14  1  0
 14 15  1  0
 15 16  1  0
 16 17  1  0
 17 18  1  0
 17 19  1  0
 19 20  2  0
 20 21  1  0
 21 22  2  0
 22 23  1  0
 23 24  2  0
 23 25  1  0
 25 26  1  0
 26 27  1  0
 17 28  1  0
 28 29  2  0
 29 30  1  0
 30 31  2  0
 31 32  1  0
 32 33  2  0
 32 34  1  0
 34 35  1  0
 35 36  1  0
 16 37  1  0
 37 38  1  0
 12  4  1  0
 38 13  1  0
 24 19  1  0
 33 28  1  0
 27 22  1  0
 36 31  1  0
  5 39  1  0
  6 40  1  0
 11 41  1  0
 12 42  1  0
 14 43  1  0
 14 44  1  0
 15 45  1  0
 15 46  1  0
 16 47  1  0
 18 48  1  0
 20 49  1  0
 21 50  1  0
 24 51  1  0
 26 52  1  0
 26 53  1  0
 29 54  1  0
 30 55  1  0
 33 56  1  0
 35 57  1  0
 35 58  1  0
 37 59  1  0
 37 60  1  0
 38 61  1  0
 38 62  1  0
M  CHG  2   8   1  10  -1
M  END
$$$$
