
     RDKit          3D

 58 62  0  0  0  0  0  0  0  0999 V2000
    6.8118    1.6007    0.8601 C   0  0  0  0  0  0  0  0  0  0  0  0
    6.4080    1.4192   -0.5806 C   0  0  0  0  0  0  0  0  0  0  0  0
    7.5709    0.7819   -1.3153 C   0  0  0  0  0  0  0  0  0  0  0  0
    6.2077    2.7012   -1.1171 O   0  0  0  0  0  0  0  0  0  0  0  0
    5.1756    0.6118   -0.6896 C   0  0  0  0  0  0  0  0  0  0  0  0
    5.1991   -0.7547   -0.8074 C   0  0  0  0  0  0  0  0  0  0  0  0
    4.0168   -1.4595   -0.9053 C   0  0  0  0  0  0  0  0  0  0  0  0
    2.7910   -0.7961   -0.8858 C   0  0  0  0  0  0  0  0  0  0  0  0
    1.5365   -1.5297   -0.9914 C   0  0  0  0  0  0  0  0  0  0  0  0
    1.5088   -2.7017   -1.7502 C   0  0  0  0  0  0  0  0  0  0  0  0
    0.3236   -3.3977   -1.8483 C   0  0  0  0  0  0  0  0  0  0  0  0
   -0.8074   -2.9383   -1.2065 C   0  0  0  0  0  0  0  0  0  0  0  0
   -0.7887   -1.7820   -0.4553 C   0  0  0  0  0  0  0  0  0  0  0  0
   -1.9821   -1.3484    0.1910 N   0  0  0  0  0  0  0  0  0  0  0  0
   -2.5796   -0.2079   -0.1163 C   0  0  0  0  0  0  0  0  0  0  0  0
   -3.7524    0.2186    0.5189 C   0  0  0  0  0  0  0  0  0  0  0  0
   -4.3045    1.4939    0.0838 C   0  0  0  0  0  0  0  0  0  0  0  0
   -3.7100    2.1603   -0.8422 O   0  0  0  0  0  0  0  0  0  0  0  0
   -5.4723    2.1146    0.5834 N   0  0  0  0  0  0  0  0  0  0  0  0
   -5.9440    3.4038    0.0741 C   0  0  0  0  0  0  0  0  0  0  0  0
   -6.4213    4.4265    1.0374 C   0  0  0  0  0  0  0  0  0  0  0  0
   -7.3738    3.7291    0.0320 C   0  0  0  0  0  0  0  0  0  0  0  0
   -4.2793   -0.5856    1.4848 C   0  0  0  0  0  0  0  0  0  0  0  0
   -5.3146   -0.2726    2.0891 O   0  0  0  0  0  0  0  0  0  0  0  0
   -3.6302   -1.7885    1.7940 C   0  0  0  0  0  0  0  0  0  0  0  0
   -4.1290   -2.6277    2.7613 C   0  0  0  0  0  0  0  0  0  0  0  0
   -3.5037   -3.8205    3.0820 C   0  0  0  0  0  0  0  0  0  0  0  0
   -2.3559   -4.1435    2.3956 C   0  0  0  0  0  0  0  0  0  0  0  0
   -1.8810   -3.3240    1.4608 N   0  0  0  0  0  0  0  0  0  0  0  0
   -2.4877   -2.1482    1.1371 C   0  0  0  0  0  0  0  0  0  0  0  0
    0.3934   -1.0909   -0.3595 C   0  0  0  0  0  0  0  0  0  0  0  0
    2.8262    0.5750   -0.7657 C   0  0  0  0  0  0  0  0  0  0  0  0
    3.9828    1.2696   -0.6696 N   0  0  0  0  0  4  0  0  0  0  0  0
    3.9737    2.6227   -0.5531 O   0  0  0  0  0  1  0  0  0  0  0  0
    7.8431    2.0286    0.8863 H   0  0  0  0  0  0  0  0  0  0  0  0
    6.1535    2.2951    1.4027 H   0  0  0  0  0  0  0  0  0  0  0  0
    6.8518    0.6166    1.3637 H   0  0  0  0  0  0  0  0  0  0  0  0
    8.2333    1.6068   -1.6470 H   0  0  0  0  0  0  0  0  0  0  0  0
    8.1692    0.1684   -0.5928 H   0  0  0  0  0  0  0  0  0  0  0  0
    7.2332    0.1416   -2.1595 H   0  0  0  0  0  0  0  0  0  0  0  0
    6.9975    3.2588   -1.0516 H   0  0  0  0  0  0  0  0  0  0  0  0
    6.1440   -1.2572   -0.8216 H   0  0  0  0  0  0  0  0  0  0  0  0
    3.9891   -2.5387   -0.9993 H   0  0  0  0  0  0  0  0  0  0  0  0
    2.4314   -3.0042   -2.2273 H   0  0  0  0  0  0  0  0  0  0  0  0
    0.3370   -4.2995   -2.4431 H   0  0  0  0  0  0  0  0  0  0  0  0
   -1.7257   -3.5097   -1.3034 H   0  0  0  0  0  0  0  0  0  0  0  0
   -2.1433    0.4214   -0.8914 H   0  0  0  0  0  0  0  0  0  0  0  0
   -6.0107    1.6410    1.3335 H   0  0  0  0  0  0  0  0  0  0  0  0
   -5.3131    3.8169   -0.7364 H   0  0  0  0  0  0  0  0  0  0  0  0
   -6.5594    4.2103    2.1048 H   0  0  0  0  0  0  0  0  0  0  0  0
   -6.2418    5.5126    0.8358 H   0  0  0  0  0  0  0  0  0  0  0  0
   -8.1662    3.0948    0.4806 H   0  0  0  0  0  0  0  0  0  0  0  0
   -7.7718    4.3751   -0.7831 H   0  0  0  0  0  0  0  0  0  0  0  0
   -5.0222   -2.3674    3.2891 H   0  0  0  0  0  0  0  0  0  0  0  0
   -3.9094   -4.4655    3.8422 H   0  0  0  0  0  0  0  0  0  0  0  0
   -1.8058   -5.0675    2.5917 H   0  0  0  0  0  0  0  0  0  0  0  0
    0.4212   -0.1804    0.2282 H   0  0  0  0  0  0  0  0  0  0  0  0
    1.8568    1.0907   -0.7510 H   0  0  0  0  0  0  0  0  0  0  0  0
  1  2  1  0
  2  3  1  0
  2  4  1  0
  2  5  1  0
  5  6  2  0
  6  7  1  0
  7  8  2  0
  8  9  1  0
  9 10  2  0
 10 11  1  0
 11 12  2  0
 12 13  1  0
 13 14  1  0
 14 15  1  0
 15 16  2  0
 16 17  1  0
 17 18  2  0
 17 19  1  0
 19 20  1  0
 20 21  1  0
 21 22  1  0
 16 23  1  0
 23 24  2  0
 23 25  1  0
 25 26  2  0
 26 27  1  0
 27 28  2  0
 28 29  1  0
 29 30  2  0
 13 31  2  0
  8 32  1  0
 32 33  2  0
 33 34  1  0
 33  5  1  0
 31  9  1  0
 30 14  1  0
 22 20  1  0
 30 25  1  0
  1 35  1  0
  1 36  1  0
  1 37  1  0
  3 38  1  0
  3 39  1  0
  3 40  1  0
  4 41  1  0
  6 42  1  0
  7 43  1  0
 10 44  1  0
 11 45  1  0
 12 46  1  0
 15 47  1  0
 19 48  1  0
 20 49  1  0
 21 50  1  0
 21 51  1  0
 22 52  1  0
 22 53  1  0
 26 54  1  0
 27 55  1  0
 28 56  1  0
 31 57  1  0
 32 58  1  0
M  CHG  2  33   1  34  -1
M  END
$$$$
