
     RDKit          3D

 47 50  0  0  0  0  0  0  0  0999 V2000
    9.8657   -1.8583   -0.9134 C   0  0  0  0  0  0  0  0  0  0  0  0
    9.0533   -2.1968   -0.0699 C   0  0  0  0  0  0  0  0  0  0  0  0
    8.0454   -2.5895    0.9591 C   0  0  0  0  0  0  0  0  0  0  0  0
    6.8592   -2.2726    0.5977 O   0  0  0  0  0  0  0  0  0  0  0  0
    5.6874   -2.0039    0.1675 C   0  0  0  0  0  0  0  0  0  0  0  0
    4.8299   -1.1892    0.9079 C   0  0  0  0  0  0  0  0  0  0  0  0
    3.6027   -0.9134    0.4444 N   0  0  0  0  0  0  0  0  0  0  0  0
    3.1468   -1.3890   -0.7185 C   0  0  0  0  0  0  0  0  0  0  0  0
    1.8248   -1.1381   -1.2557 C   0  0  0  0  0  0  0  0  0  0  0  0
    1.4897   -1.5789   -2.3916 O   0  0  0  0  0  0  0  0  0  0  0  0
    0.8947   -0.3917   -0.4982 N   0  0  0  0  0  0  0  0  0  0  0  0
   -0.4246   -0.0542   -0.8761 C   0  0  0  0  0  0  0  0  0  0  0  0
   -0.9424   -0.2335   -2.1314 C   0  0  0  0  0  0  0  0  0  0  0  0
   -2.2711    0.0812   -2.4319 C   0  0  0  0  0  0  0  0  0  0  0  0
   -3.1058    0.5838   -1.4729 C   0  0  0  0  0  0  0  0  0  0  0  0
   -4.7773    0.9996   -1.7784 Cl  0  0  0  0  0  0  0  0  0  0  0  0
   -2.5873    0.7713   -0.1859 C   0  0  0  0  0  0  0  0  0  0  0  0
   -3.4962    1.3067    0.8426 C   0  0  1  0  0  0  0  0  0  0  0  0
   -2.7799    1.4521    2.1504 C   0  0  0  0  0  0  0  0  0  0  0  0
   -2.3151    0.2519    2.6515 F   0  0  0  0  0  0  0  0  0  0  0  0
   -3.9420    2.6124    0.4054 N   0  0  0  0  0  0  0  0  0  0  0  0
   -5.0530    3.1363    0.7963 C   0  0  0  0  0  0  0  0  0  0  0  0
   -5.4298    4.4171    0.3312 N   0  0  0  0  0  0  0  0  0  0  0  0
   -5.8260    2.3835    1.6732 O   0  0  0  0  0  0  0  0  0  0  0  0
   -5.8842    0.9779    1.5807 C   0  0  2  0  0  0  0  0  0  0  0  0
   -5.0837    0.0943    2.4912 C   0  0  0  0  0  0  0  0  0  0  0  0
   -4.6628    0.3639    1.0557 C   0  0  2  0  0  0  0  0  0  0  0  0
   -1.2761    0.4577    0.0952 C   0  0  0  0  0  0  0  0  0  0  0  0
    3.9993   -2.1918   -1.4431 C   0  0  0  0  0  0  0  0  0  0  0  0
    5.2135   -2.4902   -1.0267 N   0  0  0  0  0  0  0  0  0  0  0  0
   10.5678   -1.5854   -1.6361 H   0  0  0  0  0  0  0  0  0  0  0  0
    8.3996   -2.1499    1.9528 H   0  0  0  0  0  0  0  0  0  0  0  0
    8.1974   -3.7228    1.0500 H   0  0  0  0  0  0  0  0  0  0  0  0
    5.1825   -0.7971    1.8507 H   0  0  0  0  0  0  0  0  0  0  0  0
    1.2787   -0.0685    0.4472 H   0  0  0  0  0  0  0  0  0  0  0  0
   -0.3737   -0.6148   -2.9643 H   0  0  0  0  0  0  0  0  0  0  0  0
   -2.6914   -0.0545   -3.4216 H   0  0  0  0  0  0  0  0  0  0  0  0
   -3.3641    2.0163    2.9043 H   0  0  0  0  0  0  0  0  0  0  0  0
   -1.8435    2.0750    2.0352 H   0  0  0  0  0  0  0  0  0  0  0  0
   -6.0886    4.5107   -0.4923 H   0  0  0  0  0  0  0  0  0  0  0  0
   -5.1000    5.2925    0.7480 H   0  0  0  0  0  0  0  0  0  0  0  0
   -6.8696    0.5940    1.2063 H   0  0  0  0  0  0  0  0  0  0  0  0
   -4.5669    0.5359    3.3382 H   0  0  0  0  0  0  0  0  0  0  0  0
   -5.5610   -0.9000    2.7018 H   0  0  0  0  0  0  0  0  0  0  0  0
   -4.6643   -0.5160    0.4113 H   0  0  0  0  0  0  0  0  0  0  0  0
   -0.8391    0.5986    1.0732 H   0  0  0  0  0  0  0  0  0  0  0  0
    3.6810   -2.6122   -2.4073 H   0  0  0  0  0  0  0  0  0  0  0  0
  1  2  3  0
  2  3  1  0
  3  4  1  0
  4  5  1  0
  5  6  2  0
  6  7  1  0
  7  8  2  0
  8  9  1  0
  9 10  2  0
  9 11  1  0
 11 12  1  0
 12 13  2  0
 13 14  1  0
 14 15  2  0
 15 16  1  0
 15 17  1  0
 17 18  1  0
 18 19  1  1
 19 20  1  0
 18 21  1  0
 21 22  2  0
 22 23  1  0
 22 24  1  0
 24 25  1  0
 25 26  1  0
 26 27  1  0
 17 28  2  0
  8 29  1  0
 29 30  2  0
 30  5  1  0
 28 12  1  0
 27 18  1  0
 27 25  1  0
  1 31  1  0
  3 32  1  0
  3 33  1  0
  6 34  1  0
 11 35  1  0
 13 36  1  0
 14 37  1  0
 19 38  1  0
 19 39  1  0
 23 40  1  0
 23 41  1  0
 25 42  1  6
 26 43  1  0
 26 44  1  0
 27 45  1  6
 28 46  1  0
 29 47  1  0
M  END
$$$$
