
     RDKit          3D

 76 80  0  0  0  0  0  0  0  0999 V2000
   -6.6942    5.6778   -1.8659 C   0  0  0  0  0  0  0  0  0  0  0  0
   -6.3059    4.3305   -1.3658 C   0  0  0  0  0  0  0  0  0  0  0  0
   -5.6506    4.1552   -0.1626 C   0  0  0  0  0  0  0  0  0  0  0  0
   -5.3095    2.8944    0.2670 C   0  0  0  0  0  0  0  0  0  0  0  0
   -5.6076    1.7678   -0.4835 C   0  0  0  0  0  0  0  0  0  0  0  0
   -5.2208    0.4861    0.0377 N   0  0  0  0  0  0  0  0  0  0  0  0
   -5.9831   -0.4081    0.6151 N   0  0  0  0  0  0  0  0  0  0  0  0
   -5.2543   -1.4605    0.9643 C   0  0  0  0  0  0  0  0  0  0  0  0
   -5.6734   -2.7213    1.6487 C   0  0  0  0  0  0  0  0  0  0  0  0
   -7.1404   -2.6977    1.9631 C   0  0  0  0  0  0  0  0  0  0  0  0
   -4.8267   -2.9799    2.8798 C   0  0  0  0  0  0  0  0  0  0  0  0
   -5.4400   -3.8872    0.6958 C   0  0  0  0  0  0  0  0  0  0  0  0
   -3.9463   -1.1952    0.5731 C   0  0  0  0  0  0  0  0  0  0  0  0
   -3.9550    0.0414   -0.0096 C   0  0  0  0  0  0  0  0  0  0  0  0
   -2.8341    0.7192   -0.5510 N   0  0  0  0  0  0  0  0  0  0  0  0
   -1.5104    0.2231   -0.5331 C   0  0  0  0  0  0  0  0  0  0  0  0
   -1.2246   -0.8628   -0.0251 O   0  0  0  0  0  0  0  0  0  0  0  0
   -0.4558    0.9837   -1.1143 N   0  0  0  0  0  0  0  0  0  0  0  0
    0.9020    0.5697   -1.1328 C   0  0  0  0  0  0  0  0  0  0  0  0
    1.7558    0.9504   -0.0917 C   0  0  0  0  0  0  0  0  0  0  0  0
    3.0752    0.5625   -0.0822 C   0  0  0  0  0  0  0  0  0  0  0  0
    3.6180   -0.2097   -1.0817 C   0  0  0  0  0  0  0  0  0  0  0  0
    4.9341   -0.6239   -1.1182 O   0  0  0  0  0  0  0  0  0  0  0  0
    5.8607   -0.2786   -0.1050 C   0  0  0  0  0  0  0  0  0  0  0  0
    7.2277   -0.8561   -0.3855 C   0  0  0  0  0  0  0  0  0  0  0  0
    8.2086   -0.5500    0.5780 N   0  0  0  0  0  0  0  0  0  0  0  0
    8.6528    0.7824    0.6992 C   0  0  0  0  0  0  0  0  0  0  0  0
    9.0913    1.2313    2.0512 C   0  0  0  0  0  0  0  0  0  0  0  0
    9.5729    0.1996    2.8541 O   0  0  0  0  0  0  0  0  0  0  0  0
    8.6334   -0.8190    2.9979 C   0  0  0  0  0  0  0  0  0  0  0  0
    8.4011   -1.4335    1.6591 C   0  0  0  0  0  0  0  0  0  0  0  0
    2.7856   -0.5968   -2.1222 C   0  0  0  0  0  0  0  0  0  0  0  0
    3.2941   -1.3739   -3.1457 C   0  0  0  0  0  0  0  0  0  0  0  0
    2.4895   -1.7686   -4.1847 C   0  0  0  0  0  0  0  0  0  0  0  0
    1.1644   -1.3718   -4.1829 C   0  0  0  0  0  0  0  0  0  0  0  0
    0.6645   -0.6057   -3.1733 C   0  0  0  0  0  0  0  0  0  0  0  0
    1.4591   -0.2039   -2.1272 C   0  0  0  0  0  0  0  0  0  0  0  0
   -6.2573    1.9431   -1.6765 C   0  0  0  0  0  0  0  0  0  0  0  0
   -6.6080    3.2189   -2.1216 C   0  0  0  0  0  0  0  0  0  0  0  0
   -6.2076    6.4647   -1.2411 H   0  0  0  0  0  0  0  0  0  0  0  0
   -6.4423    5.8204   -2.9223 H   0  0  0  0  0  0  0  0  0  0  0  0
   -7.7980    5.8308   -1.7665 H   0  0  0  0  0  0  0  0  0  0  0  0
   -5.4153    5.0261    0.4267 H   0  0  0  0  0  0  0  0  0  0  0  0
   -4.7963    2.7607    1.2097 H   0  0  0  0  0  0  0  0  0  0  0  0
   -7.5963   -3.7021    1.8580 H   0  0  0  0  0  0  0  0  0  0  0  0
   -7.6443   -1.9319    1.3468 H   0  0  0  0  0  0  0  0  0  0  0  0
   -7.2334   -2.3812    3.0332 H   0  0  0  0  0  0  0  0  0  0  0  0
   -3.8187   -2.5335    2.7316 H   0  0  0  0  0  0  0  0  0  0  0  0
   -4.7809   -4.0827    3.0333 H   0  0  0  0  0  0  0  0  0  0  0  0
   -5.3144   -2.4770    3.7422 H   0  0  0  0  0  0  0  0  0  0  0  0
   -6.1516   -4.6907    1.0193 H   0  0  0  0  0  0  0  0  0  0  0  0
   -4.3980   -4.2708    0.8080 H   0  0  0  0  0  0  0  0  0  0  0  0
   -5.6610   -3.5958   -0.3386 H   0  0  0  0  0  0  0  0  0  0  0  0
   -3.0911   -1.8751    0.7196 H   0  0  0  0  0  0  0  0  0  0  0  0
   -3.0151    1.6678   -1.0058 H   0  0  0  0  0  0  0  0  0  0  0  0
   -0.6999    1.9065   -1.5550 H   0  0  0  0  0  0  0  0  0  0  0  0
    1.3688    1.5645    0.7254 H   0  0  0  0  0  0  0  0  0  0  0  0
    3.7165    0.8733    0.7399 H   0  0  0  0  0  0  0  0  0  0  0  0
    5.8804    0.8034    0.0964 H   0  0  0  0  0  0  0  0  0  0  0  0
    5.4956   -0.7648    0.8299 H   0  0  0  0  0  0  0  0  0  0  0  0
    7.0906   -1.9757   -0.3858 H   0  0  0  0  0  0  0  0  0  0  0  0
    7.5419   -0.5566   -1.3964 H   0  0  0  0  0  0  0  0  0  0  0  0
    9.5324    0.9004   -0.0021 H   0  0  0  0  0  0  0  0  0  0  0  0
    7.9014    1.4986    0.3066 H   0  0  0  0  0  0  0  0  0  0  0  0
    8.2860    1.8058    2.5953 H   0  0  0  0  0  0  0  0  0  0  0  0
    9.9141    1.9662    1.9355 H   0  0  0  0  0  0  0  0  0  0  0  0
    9.0801   -1.5748    3.6721 H   0  0  0  0  0  0  0  0  0  0  0  0
    7.7035   -0.4647    3.4803 H   0  0  0  0  0  0  0  0  0  0  0  0
    7.5601   -2.1552    1.7239 H   0  0  0  0  0  0  0  0  0  0  0  0
    9.3164   -2.0580    1.4346 H   0  0  0  0  0  0  0  0  0  0  0  0
    4.3127   -1.6718   -3.1352 H   0  0  0  0  0  0  0  0  0  0  0  0
    2.8915   -2.3818   -4.9912 H   0  0  0  0  0  0  0  0  0  0  0  0
    0.5689   -1.7062   -5.0212 H   0  0  0  0  0  0  0  0  0  0  0  0
   -0.3820   -0.3017   -3.1874 H   0  0  0  0  0  0  0  0  0  0  0  0
   -6.4886    1.0745   -2.2580 H   0  0  0  0  0  0  0  0  0  0  0  0
   -7.1189    3.3555   -3.0601 H   0  0  0  0  0  0  0  0  0  0  0  0
  1  2  1  0
  2  3  2  0
  3  4  1  0
  4  5  2  0
  5  6  1  0
  6  7  1  0
  7  8  2  0
  8  9  1  0
  9 10  1  0
  9 11  1  0
  9 12  1  0
  8 13  1  0
 13 14  2  0
 14 15  1  0
 15 16  1  0
 16 17  2  0
 16 18  1  0
 18 19  1  0
 19 20  2  0
 20 21  1  0
 21 22  2  0
 22 23  1  0
 23 24  1  0
 24 25  1  0
 25 26  1  0
 26 27  1  0
 27 28  1  0
 28 29  1  0
 29 30  1  0
 30 31  1  0
 22 32  1  0
 32 33  2  0
 33 34  1  0
 34 35  2  0
 35 36  1  0
 36 37  2  0
  5 38  1  0
 38 39  2  0
 39  2  1  0
 14  6  1  0
 37 19  1  0
 31 26  1  0
 37 32  1  0
  1 40  1  0
  1 41  1  0
  1 42  1  0
  3 43  1  0
  4 44  1  0
 10 45  1  0
 10 46  1  0
 10 47  1  0
 11 48  1  0
 11 49  1  0
 11 50  1  0
 12 51  1  0
 12 52  1  0
 12 53  1  0
 13 54  1  0
 15 55  1  0
 18 56  1  0
 20 57  1  0
 21 58  1  0
 24 59  1  0
 24 60  1  0
 25 61  1  0
 25 62  1  0
 27 63  1  0
 27 64  1  0
 28 65  1  0
 28 66  1  0
 30 67  1  0
 30 68  1  0
 31 69  1  0
 31 70  1  0
 33 71  1  0
 34 72  1  0
 35 73  1  0
 36 74  1  0
 38 75  1  0
 39 76  1  0
M  END
$$$$
