
     RDKit          3D

 66 69  0  0  0  0  0  0  0  0999 V2000
   -3.5448   -3.6584    1.6766 C   0  0  0  0  0  0  0  0  0  0  0  0
   -2.3239   -2.6920    1.6106 C   0  0  0  0  0  0  0  0  0  0  0  0
   -1.4829   -3.1402    2.7880 C   0  0  0  0  0  0  0  0  0  0  0  0
   -1.7318   -2.8689    0.2748 C   0  0  0  0  0  0  0  0  0  0  0  0
   -0.5457   -2.0595   -0.1176 C   0  0  2  0  0  0  0  0  0  0  0  0
    0.6408   -2.2701    0.6872 C   0  0  0  0  0  0  0  0  0  0  0  0
    0.9826   -3.4190    1.1513 O   0  0  0  0  0  0  0  0  0  0  0  0
    1.5148   -1.2096    1.0158 N   0  0  0  0  0  0  0  0  0  0  0  0
    1.6825   -0.1468    0.0100 C   0  0  2  0  0  0  0  0  0  0  0  0
    2.4786    1.0034    0.4988 C   0  0  0  0  0  0  0  0  0  0  0  0
    3.8578    0.6127    0.9084 C   0  0  0  0  0  0  0  0  0  0  0  0
    4.8310    1.4064    0.1484 C   0  0  0  0  0  0  0  0  0  0  0  0
    6.1991    1.4467    0.2539 C   0  0  0  0  0  0  0  0  0  0  0  0
    6.9027    2.2926   -0.5903 C   0  0  0  0  0  0  0  0  0  0  0  0
    6.2578    3.0792   -1.5173 C   0  0  0  0  0  0  0  0  0  0  0  0
    4.8805    2.9956   -1.5768 C   0  0  0  0  0  0  0  0  0  0  0  0
    4.1606    2.1706   -0.7571 C   0  0  0  0  0  0  0  0  0  0  0  0
    2.7166    1.9447   -0.6692 C   0  0  0  0  0  0  0  0  0  0  0  0
    0.3044    0.2182   -0.4107 C   0  0  0  0  0  0  0  0  0  0  0  0
    0.1938    1.4168   -0.8331 O   0  0  0  0  0  0  0  0  0  0  0  0
   -0.7961   -0.6662   -0.3561 N   0  0  0  0  0  0  0  0  0  0  0  0
   -2.0991   -0.1026   -0.5876 C   0  0  1  0  0  0  0  0  0  0  0  0
   -2.7038    0.7715    0.3940 C   0  0  0  0  0  0  0  0  0  0  0  0
   -3.8539    1.2692    0.0398 O   0  0  0  0  0  0  0  0  0  0  0  0
   -2.2788    1.1824    1.6617 N   0  0  0  0  0  0  0  0  0  0  0  0
   -3.0954    2.1176    2.4680 C   0  0  0  0  0  0  0  0  0  0  0  0
   -1.0596    0.7712    2.3392 C   0  0  0  0  0  0  0  0  0  0  0  0
   -2.3941    0.2361   -2.0007 C   0  0  0  0  0  0  0  0  0  0  0  0
   -2.5750   -0.7579   -2.9746 C   0  0  0  0  0  0  0  0  0  0  0  0
   -2.8100   -0.4460   -4.2910 C   0  0  0  0  0  0  0  0  0  0  0  0
   -2.8735    0.8661   -4.6852 C   0  0  0  0  0  0  0  0  0  0  0  0
   -3.1059    1.2118   -5.9914 F   0  0  0  0  0  0  0  0  0  0  0  0
   -2.7028    1.8702   -3.7637 C   0  0  0  0  0  0  0  0  0  0  0  0
   -2.4653    1.5235   -2.4288 C   0  0  0  0  0  0  0  0  0  0  0  0
   -2.3452    2.5406   -1.5756 F   0  0  0  0  0  0  0  0  0  0  0  0
   -3.9485   -3.5935    2.7050 H   0  0  0  0  0  0  0  0  0  0  0  0
   -4.3141   -3.2646    0.9937 H   0  0  0  0  0  0  0  0  0  0  0  0
   -3.2063   -4.6857    1.4193 H   0  0  0  0  0  0  0  0  0  0  0  0
   -2.7829   -1.7065    1.8237 H   0  0  0  0  0  0  0  0  0  0  0  0
   -0.6536   -2.4853    3.0395 H   0  0  0  0  0  0  0  0  0  0  0  0
   -1.1360   -4.1757    2.5947 H   0  0  0  0  0  0  0  0  0  0  0  0
   -2.1655   -3.2851    3.6984 H   0  0  0  0  0  0  0  0  0  0  0  0
   -1.2814   -3.9427    0.3162 H   0  0  0  0  0  0  0  0  0  0  0  0
   -2.4136   -2.9689   -0.5663 H   0  0  0  0  0  0  0  0  0  0  0  0
   -0.2721   -2.4650   -1.1587 H   0  0  0  0  0  0  0  0  0  0  0  0
    2.0414   -1.1290    1.9086 H   0  0  0  0  0  0  0  0  0  0  0  0
    2.1653   -0.6223   -0.8870 H   0  0  0  0  0  0  0  0  0  0  0  0
    1.9328    1.5470    1.2975 H   0  0  0  0  0  0  0  0  0  0  0  0
    4.0995   -0.4585    0.7647 H   0  0  0  0  0  0  0  0  0  0  0  0
    3.9801    0.9040    1.9917 H   0  0  0  0  0  0  0  0  0  0  0  0
    6.7044    0.8282    0.9828 H   0  0  0  0  0  0  0  0  0  0  0  0
    7.9921    2.3210   -0.5021 H   0  0  0  0  0  0  0  0  0  0  0  0
    6.8421    3.7184   -2.1486 H   0  0  0  0  0  0  0  0  0  0  0  0
    4.4040    3.6407   -2.3314 H   0  0  0  0  0  0  0  0  0  0  0  0
    2.1291    2.8874   -0.5537 H   0  0  0  0  0  0  0  0  0  0  0  0
    2.3913    1.4847   -1.6333 H   0  0  0  0  0  0  0  0  0  0  0  0
   -2.7717   -1.0690   -0.4845 H   0  0  0  0  0  0  0  0  0  0  0  0
   -4.1551    2.0380    2.0909 H   0  0  0  0  0  0  0  0  0  0  0  0
   -2.7802    3.1590    2.2751 H   0  0  0  0  0  0  0  0  0  0  0  0
   -3.1129    1.8278    3.5181 H   0  0  0  0  0  0  0  0  0  0  0  0
   -0.8180   -0.2749    2.1809 H   0  0  0  0  0  0  0  0  0  0  0  0
   -1.1759    0.8514    3.4670 H   0  0  0  0  0  0  0  0  0  0  0  0
   -0.2972    1.5143    2.0985 H   0  0  0  0  0  0  0  0  0  0  0  0
   -2.5167   -1.7859   -2.6191 H   0  0  0  0  0  0  0  0  0  0  0  0
   -2.9428   -1.2253   -5.0053 H   0  0  0  0  0  0  0  0  0  0  0  0
   -2.7536    2.9061   -4.0760 H   0  0  0  0  0  0  0  0  0  0  0  0
  1  2  1  0
  2  3  1  0
  2  4  1  0
  4  5  1  0
  5  6  1  0
  6  7  2  0
  6  8  1  0
  8  9  1  0
  9 10  1  0
 10 11  1  0
 11 12  1  0
 12 13  2  0
 13 14  1  0
 14 15  2  0
 15 16  1  0
 16 17  2  0
 17 18  1  0
  9 19  1  0
 19 20  2  0
 19 21  1  0
 21 22  1  0
 22 23  1  0
 23 24  2  0
 23 25  1  0
 25 26  1  0
 25 27  1  0
 22 28  1  0
 28 29  2  0
 29 30  1  0
 30 31  2  0
 31 32  1  0
 31 33  1  0
 33 34  2  0
 34 35  1  0
 21  5  1  0
 34 28  1  0
 18 10  1  0
 17 12  1  0
  1 36  1  0
  1 37  1  0
  1 38  1  0
  2 39  1  0
  3 40  1  0
  3 41  1  0
  3 42  1  0
  4 43  1  0
  4 44  1  0
  5 45  1  6
  8 46  1  0
  9 47  1  6
 10 48  1  0
 11 49  1  0
 11 50  1  0
 13 51  1  0
 14 52  1  0
 15 53  1  0
 16 54  1  0
 18 55  1  0
 18 56  1  0
 22 57  1  1
 26 58  1  0
 26 59  1  0
 26 60  1  0
 27 61  1  0
 27 62  1  0
 27 63  1  0
 29 64  1  0
 30 65  1  0
 33 66  1  0
M  END
$$$$
