
     RDKit          3D

 45 47  0  0  0  0  0  0  0  0999 V2000
    1.4387   -2.9365   -1.0912 C   0  0  0  0  0  0  0  0  0  0  0  0
    1.1348   -1.7898   -2.0242 C   0  0  0  0  0  0  0  0  0  0  0  0
    0.8885   -0.4922   -1.2797 C   0  0  0  0  0  0  0  0  0  0  0  0
   -0.2327   -0.6167   -0.3769 N   0  0  0  0  0  0  0  0  0  0  0  0
   -1.3814    0.1520   -0.5842 C   0  0  0  0  0  0  0  0  0  0  0  0
   -1.4438    0.9646   -1.5694 O   0  0  0  0  0  0  0  0  0  0  0  0
   -2.5379    0.0995    0.2510 N   0  0  0  0  0  0  0  0  0  0  0  0
   -2.5114   -0.8052    1.3737 C   0  0  0  0  0  0  0  0  0  0  0  0
   -3.8536   -1.0899    1.9096 C   0  0  0  0  0  0  0  0  0  0  0  0
   -4.0065   -2.1037    2.6331 O   0  0  0  0  0  0  0  0  0  0  0  0
   -4.9872   -0.2814    1.6543 N   0  0  0  0  0  0  0  0  0  0  0  0
   -4.8914    0.7376    0.6765 C   0  0  0  0  0  0  0  0  0  0  0  0
   -5.9834    1.5368    0.4115 C   0  0  0  0  0  0  0  0  0  0  0  0
   -5.8522    2.5151   -0.5442 C   0  0  0  0  0  0  0  0  0  0  0  0
   -4.6226    2.6316   -1.1800 C   0  0  0  0  0  0  0  0  0  0  0  0
   -3.5698    1.8541   -0.9180 N   0  0  0  0  0  0  0  0  0  0  0  0
   -3.6906    0.8942    0.0162 C   0  0  0  0  0  0  0  0  0  0  0  0
    2.1138   -0.0264   -0.5810 C   0  0  0  0  0  0  0  0  0  0  0  0
    2.8926    0.9615   -1.1446 C   0  0  0  0  0  0  0  0  0  0  0  0
    4.0394    1.4056   -0.5024 C   0  0  0  0  0  0  0  0  0  0  0  0
    4.4314    0.8808    0.7025 C   0  0  0  0  0  0  0  0  0  0  0  0
    5.5772    1.3274    1.3399 O   0  0  0  0  0  0  0  0  0  0  0  0
    6.8331    0.7393    1.1141 C   0  0  0  0  0  0  0  0  0  0  0  0
    7.7845    1.3722    1.8682 F   0  0  0  0  0  0  0  0  0  0  0  0
    6.8325   -0.6000    1.5021 F   0  0  0  0  0  0  0  0  0  0  0  0
    7.1194    0.7493   -0.2383 F   0  0  0  0  0  0  0  0  0  0  0  0
    3.6505   -0.1123    1.2715 C   0  0  0  0  0  0  0  0  0  0  0  0
    2.5071   -0.5550    0.6311 C   0  0  0  0  0  0  0  0  0  0  0  0
    0.7565   -2.9510   -0.2155 H   0  0  0  0  0  0  0  0  0  0  0  0
    1.2885   -3.8732   -1.6937 H   0  0  0  0  0  0  0  0  0  0  0  0
    2.5046   -2.9582   -0.7859 H   0  0  0  0  0  0  0  0  0  0  0  0
    1.9767   -1.6474   -2.7071 H   0  0  0  0  0  0  0  0  0  0  0  0
    0.2142   -2.0062   -2.6041 H   0  0  0  0  0  0  0  0  0  0  0  0
    0.6261    0.2561   -2.0509 H   0  0  0  0  0  0  0  0  0  0  0  0
   -0.2208   -1.2748    0.4471 H   0  0  0  0  0  0  0  0  0  0  0  0
   -1.7952   -0.4728    2.1394 H   0  0  0  0  0  0  0  0  0  0  0  0
   -2.1118   -1.7936    1.0009 H   0  0  0  0  0  0  0  0  0  0  0  0
   -5.9009   -0.4337    2.1872 H   0  0  0  0  0  0  0  0  0  0  0  0
   -6.9192    1.4189    0.9223 H   0  0  0  0  0  0  0  0  0  0  0  0
   -6.6763    3.1662   -0.7883 H   0  0  0  0  0  0  0  0  0  0  0  0
   -4.5594    3.4160   -1.9282 H   0  0  0  0  0  0  0  0  0  0  0  0
    2.6271    1.4018   -2.0845 H   0  0  0  0  0  0  0  0  0  0  0  0
    4.6199    2.1869   -0.9881 H   0  0  0  0  0  0  0  0  0  0  0  0
    3.9607   -0.5296    2.2279 H   0  0  0  0  0  0  0  0  0  0  0  0
    1.9305   -1.3179    1.0943 H   0  0  0  0  0  0  0  0  0  0  0  0
  1  2  1  0
  2  3  1  0
  3  4  1  0
  4  5  1  0
  5  6  2  0
  5  7  1  0
  7  8  1  0
  8  9  1  0
  9 10  2  0
  9 11  1  0
 11 12  1  0
 12 13  2  0
 13 14  1  0
 14 15  2  0
 15 16  1  0
 16 17  2  0
  3 18  1  0
 18 19  2  0
 19 20  1  0
 20 21  2  0
 21 22  1  0
 22 23  1  0
 23 24  1  0
 23 25  1  0
 23 26  1  0
 21 27  1  0
 27 28  2  0
 17  7  1  0
 28 18  1  0
 17 12  1  0
  1 29  1  0
  1 30  1  0
  1 31  1  0
  2 32  1  0
  2 33  1  0
  3 34  1  0
  4 35  1  0
  8 36  1  0
  8 37  1  0
 11 38  1  0
 13 39  1  0
 14 40  1  0
 15 41  1  0
 19 42  1  0
 20 43  1  0
 27 44  1  0
 28 45  1  0
M  END
$$$$
