
     RDKit          3D

 77 80  0  0  0  0  0  0  0  0999 V2000
    3.1477   -1.9336   -4.7852 C   0  0  0  0  0  0  0  0  0  0  0  0
    3.6751   -2.6413   -3.5673 C   0  0  0  0  0  0  0  0  0  0  0  0
    3.4316   -1.9485   -2.3804 O   0  0  0  0  0  0  0  0  0  0  0  0
    3.8662   -0.6872   -2.0489 C   0  0  0  0  0  0  0  0  0  0  0  0
    4.3856   -0.7326   -3.1702 O   0  0  0  0  0  0  0  0  0  0  0  0
    3.3417   -0.3675   -0.6498 C   0  0  2  0  0  0  0  0  0  0  0  0
    4.0003   -1.3425    0.2359 C   0  0  0  0  0  0  0  0  0  0  0  0
    5.5223   -1.1555    0.1081 C   0  0  0  0  0  0  0  0  0  0  0  0
    5.9703    0.1961    0.4935 C   0  0  0  0  0  0  0  0  0  0  0  0
    6.1478    1.2822   -0.3364 C   0  0  0  0  0  0  0  0  0  0  0  0
    6.5632    2.5454    0.0283 C   0  0  0  0  0  0  0  0  0  0  0  0
    6.8277    2.7302    1.3801 C   0  0  0  0  0  0  0  0  0  0  0  0
    6.6704    1.6745    2.2840 C   0  0  0  0  0  0  0  0  0  0  0  0
    6.2465    0.4206    1.8461 C   0  0  0  0  0  0  0  0  0  0  0  0
    1.8822   -0.3742   -0.7924 C   0  0  0  0  0  0  0  0  0  0  0  0
    0.9882   -0.1320    0.3420 C   0  0  0  0  0  0  0  0  0  0  0  0
    1.1491    1.1555    1.0560 C   0  0  0  0  0  0  0  0  0  0  0  0
    1.1244    0.8129    2.5076 C   0  0  0  0  0  0  0  0  0  0  0  0
    1.2091   -0.6658    2.6849 C   0  0  0  0  0  0  0  0  0  0  0  0
    0.9830   -1.2761    1.3115 C   0  0  0  0  0  0  0  0  0  0  0  0
   -0.4517   -0.0945   -0.1917 C   0  0  0  0  0  0  0  0  0  0  0  0
   -0.3042   -0.2079   -1.4515 O   0  0  0  0  0  0  0  0  0  0  0  0
   -1.6151    0.0347    0.5771 N   0  0  0  0  0  0  0  0  0  0  0  0
   -2.8658    0.0510   -0.1256 C   0  0  1  0  0  0  0  0  0  0  0  0
   -3.6702   -1.2234    0.0467 C   0  0  0  0  0  0  0  0  0  0  0  0
   -4.6125   -1.3069   -1.1636 C   0  0  0  0  0  0  0  0  0  0  0  0
   -5.9283   -0.7038   -0.8238 C   0  0  0  0  0  0  0  0  0  0  0  0
   -7.0335   -1.4559   -1.1735 C   0  0  0  0  0  0  0  0  0  0  0  0
   -8.3158   -0.9993   -0.8949 C   0  0  0  0  0  0  0  0  0  0  0  0
   -8.4646    0.2095   -0.2689 C   0  0  0  0  0  0  0  0  0  0  0  0
   -7.3308    0.9514    0.0739 C   0  0  0  0  0  0  0  0  0  0  0  0
   -6.0444    0.5205   -0.1905 C   0  0  0  0  0  0  0  0  0  0  0  0
   -5.0929    1.5011    0.2789 N   0  0  0  0  0  0  0  0  0  0  0  0
   -5.5698    2.7289    0.8448 C   0  0  0  0  0  0  0  0  0  0  0  0
   -5.8117    2.6346    2.3066 C   0  0  0  0  0  0  0  0  0  0  0  0
   -6.0943    2.7350    3.6395 O   0  0  0  0  0  0  0  0  0  0  0  0
   -5.3972    1.4335    2.2167 O   0  0  0  0  0  0  0  0  0  0  0  0
   -3.6722    1.2515    0.1977 C   0  0  0  0  0  0  0  0  0  0  0  0
   -2.9983    2.2924    0.4642 O   0  0  0  0  0  0  0  0  0  0  0  0
    2.4585   -2.5606   -5.3991 H   0  0  0  0  0  0  0  0  0  0  0  0
    3.9538   -1.6311   -5.4778 H   0  0  0  0  0  0  0  0  0  0  0  0
    2.5273   -1.0653   -4.4720 H   0  0  0  0  0  0  0  0  0  0  0  0
    3.1191   -3.6229   -3.4950 H   0  0  0  0  0  0  0  0  0  0  0  0
    4.7378   -2.9372   -3.7220 H   0  0  0  0  0  0  0  0  0  0  0  0
    3.7806    0.6565   -0.4792 H   0  0  0  0  0  0  0  0  0  0  0  0
    3.8209   -1.1794    1.3248 H   0  0  0  0  0  0  0  0  0  0  0  0
    3.7826   -2.3720   -0.0752 H   0  0  0  0  0  0  0  0  0  0  0  0
    6.0552   -1.9105    0.7312 H   0  0  0  0  0  0  0  0  0  0  0  0
    5.8708   -1.3424   -0.9311 H   0  0  0  0  0  0  0  0  0  0  0  0
    5.9493    1.1411   -1.3785 H   0  0  0  0  0  0  0  0  0  0  0  0
    6.6700    3.3281   -0.7203 H   0  0  0  0  0  0  0  0  0  0  0  0
    7.1549    3.7272    1.6683 H   0  0  0  0  0  0  0  0  0  0  0  0
    6.8931    1.8855    3.3336 H   0  0  0  0  0  0  0  0  0  0  0  0
    6.1589   -0.3206    2.6192 H   0  0  0  0  0  0  0  0  0  0  0  0
    1.6394    0.4204   -1.5714 H   0  0  0  0  0  0  0  0  0  0  0  0
    1.5903   -1.3226   -1.2991 H   0  0  0  0  0  0  0  0  0  0  0  0
    2.0589    1.7290    0.7622 H   0  0  0  0  0  0  0  0  0  0  0  0
    0.3135    1.8481    0.8378 H   0  0  0  0  0  0  0  0  0  0  0  0
    1.9736    1.2933    3.0478 H   0  0  0  0  0  0  0  0  0  0  0  0
    0.2175    1.2573    2.9936 H   0  0  0  0  0  0  0  0  0  0  0  0
    2.1965   -1.0070    3.0407 H   0  0  0  0  0  0  0  0  0  0  0  0
    0.4567   -1.0604    3.4035 H   0  0  0  0  0  0  0  0  0  0  0  0
   -0.0123   -1.8344    1.3145 H   0  0  0  0  0  0  0  0  0  0  0  0
    1.6961   -2.0875    1.0693 H   0  0  0  0  0  0  0  0  0  0  0  0
   -1.4219    0.1066    1.5974 H   0  0  0  0  0  0  0  0  0  0  0  0
   -2.6226    0.0924   -1.2132 H   0  0  0  0  0  0  0  0  0  0  0  0
   -2.9526   -2.0547   -0.0676 H   0  0  0  0  0  0  0  0  0  0  0  0
   -4.2577   -1.2419    0.9770 H   0  0  0  0  0  0  0  0  0  0  0  0
   -4.7551   -2.3567   -1.4615 H   0  0  0  0  0  0  0  0  0  0  0  0
   -4.1712   -0.7024   -1.9765 H   0  0  0  0  0  0  0  0  0  0  0  0
   -6.8170   -2.4103   -1.6706 H   0  0  0  0  0  0  0  0  0  0  0  0
   -9.0843   -1.6926   -1.2286 H   0  0  0  0  0  0  0  0  0  0  0  0
   -9.4789    0.4943   -0.0916 H   0  0  0  0  0  0  0  0  0  0  0  0
   -7.5417    1.8702    0.5592 H   0  0  0  0  0  0  0  0  0  0  0  0
   -4.6416    3.3987    0.8217 H   0  0  0  0  0  0  0  0  0  0  0  0
   -6.2714    3.3212    0.2732 H   0  0  0  0  0  0  0  0  0  0  0  0
   -6.9061    2.2304    4.0062 H   0  0  0  0  0  0  0  0  0  0  0  0
  1  2  1  0
  2  3  1  0
  3  4  1  0
  4  5  2  0
  4  6  1  0
  6  7  1  0
  7  8  1  0
  8  9  1  0
  9 10  2  0
 10 11  1  0
 11 12  2  0
 12 13  1  0
 13 14  2  0
  6 15  1  0
 15 16  1  0
 16 17  1  0
 17 18  1  0
 18 19  1  0
 19 20  1  0
 16 21  1  0
 21 22  2  0
 21 23  1  0
 23 24  1  0
 24 25  1  0
 25 26  1  0
 26 27  1  0
 27 28  2  0
 28 29  1  0
 29 30  2  0
 30 31  1  0
 31 32  2  0
 32 33  1  0
 33 34  1  0
 34 35  1  0
 35 36  1  0
 35 37  2  0
 33 38  1  0
 38 39  2  0
 14  9  1  0
 20 16  1  0
 38 24  1  0
 32 27  1  0
  1 40  1  0
  1 41  1  0
  1 42  1  0
  2 43  1  0
  2 44  1  0
  6 45  1  1
  7 46  1  0
  7 47  1  0
  8 48  1  0
  8 49  1  0
 10 50  1  0
 11 51  1  0
 12 52  1  0
 13 53  1  0
 14 54  1  0
 15 55  1  0
 15 56  1  0
 17 57  1  0
 17 58  1  0
 18 59  1  0
 18 60  1  0
 19 61  1  0
 19 62  1  0
 20 63  1  0
 20 64  1  0
 23 65  1  0
 24 66  1  6
 25 67  1  0
 25 68  1  0
 26 69  1  0
 26 70  1  0
 28 71  1  0
 29 72  1  0
 30 73  1  0
 31 74  1  0
 34 75  1  0
 34 76  1  0
 36 77  1  0
M  END
$$$$
