
     RDKit          3D

 54 56  0  0  0  0  0  0  0  0999 V2000
   -5.5646    0.7685   -0.0382 C   0  0  0  0  0  0  0  0  0  0  0  0
   -4.6296    0.2528    1.0247 C   0  0  0  0  0  0  0  0  0  0  0  0
   -5.4517   -0.1607    2.2241 C   0  0  0  0  0  0  0  0  0  0  0  0
   -3.8007   -0.8610    0.5209 C   0  0  0  0  0  0  0  0  0  0  0  0
   -4.0800   -2.1908    0.8760 N   0  0  0  0  0  0  0  0  0  0  0  0
   -2.8226   -0.5962   -0.2459 N   0  0  0  0  0  0  0  0  0  0  0  0
   -2.3619    0.6495   -0.7305 C   0  0  2  0  0  0  0  0  0  0  0  0
   -3.0026    1.0376   -2.0596 C   0  0  0  0  0  0  0  0  0  0  0  0
   -0.8975    0.4474   -1.0734 C   0  0  0  0  0  0  0  0  0  0  0  0
   -0.2577   -0.7376   -0.9026 C   0  0  0  0  0  0  0  0  0  0  0  0
    1.1060   -0.8404   -1.2425 C   0  0  0  0  0  0  0  0  0  0  0  0
    1.7379   -2.0938   -1.0736 N   0  0  0  0  0  0  0  0  0  0  0  0
    3.1260   -2.3317   -1.3030 C   0  0  0  0  0  0  0  0  0  0  0  0
    3.9787   -1.7463   -0.2670 C   0  0  0  0  0  0  0  0  0  0  0  0
    4.7584   -0.6728   -0.3755 N   0  0  0  0  0  0  0  0  0  0  0  0
    5.4130   -0.4177    0.7349 N   0  0  0  0  0  0  0  0  0  0  0  0
    6.3384    0.6738    0.9483 C   0  0  0  0  0  0  0  0  0  0  0  0
    7.7234    0.1977    0.5671 C   0  0  0  0  0  0  0  0  0  0  0  0
    8.6706    1.1886    0.7440 F   0  0  0  0  0  0  0  0  0  0  0  0
    8.0329   -0.9228    1.2897 F   0  0  0  0  0  0  0  0  0  0  0  0
    7.6417   -0.2011   -0.7663 F   0  0  0  0  0  0  0  0  0  0  0  0
    5.0496   -1.3672    1.6204 C   0  0  0  0  0  0  0  0  0  0  0  0
    4.1518   -2.2233    1.0388 C   0  0  0  0  0  0  0  0  0  0  0  0
    3.3474   -3.6206    1.6900 Cl  0  0  0  0  0  0  0  0  0  0  0  0
    1.7723    0.2495   -1.7408 C   0  0  0  0  0  0  0  0  0  0  0  0
    1.0705    1.4345   -1.8945 C   0  0  0  0  0  0  0  0  0  0  0  0
   -0.2554    1.5641   -1.5721 C   0  0  0  0  0  0  0  0  0  0  0  0
   -0.9152    2.7583   -1.7402 F   0  0  0  0  0  0  0  0  0  0  0  0
   -2.3847    1.8119    0.2039 C   0  0  0  0  0  0  0  0  0  0  0  0
   -3.4675    1.4960    1.5576 S   0  0  0  0  0  6  0  0  0  0  0  0
   -2.6547    0.8690    2.6777 O   0  0  0  0  0  0  0  0  0  0  0  0
   -4.1643    2.7325    2.0391 O   0  0  0  0  0  0  0  0  0  0  0  0
   -6.6279    0.7760    0.3194 H   0  0  0  0  0  0  0  0  0  0  0  0
   -5.3192    1.8139   -0.3161 H   0  0  0  0  0  0  0  0  0  0  0  0
   -5.5405    0.1697   -0.9682 H   0  0  0  0  0  0  0  0  0  0  0  0
   -6.1502   -0.9737    1.8993 H   0  0  0  0  0  0  0  0  0  0  0  0
   -6.0479    0.6979    2.5358 H   0  0  0  0  0  0  0  0  0  0  0  0
   -4.8157   -0.5069    3.0529 H   0  0  0  0  0  0  0  0  0  0  0  0
   -4.0885   -2.5291    1.8739 H   0  0  0  0  0  0  0  0  0  0  0  0
   -4.2940   -2.9051    0.1414 H   0  0  0  0  0  0  0  0  0  0  0  0
   -3.6617    0.2525   -2.4560 H   0  0  0  0  0  0  0  0  0  0  0  0
   -2.2581    1.2550   -2.8511 H   0  0  0  0  0  0  0  0  0  0  0  0
   -3.5423    2.0173   -1.9083 H   0  0  0  0  0  0  0  0  0  0  0  0
   -0.7847   -1.5951   -0.5104 H   0  0  0  0  0  0  0  0  0  0  0  0
    1.1577   -2.9351   -0.7534 H   0  0  0  0  0  0  0  0  0  0  0  0
    3.3743   -1.8512   -2.2909 H   0  0  0  0  0  0  0  0  0  0  0  0
    3.3707   -3.4077   -1.4219 H   0  0  0  0  0  0  0  0  0  0  0  0
    6.3109    0.9838    2.0202 H   0  0  0  0  0  0  0  0  0  0  0  0
    6.0197    1.5217    0.3220 H   0  0  0  0  0  0  0  0  0  0  0  0
    5.3995   -1.4615    2.6423 H   0  0  0  0  0  0  0  0  0  0  0  0
    2.8299    0.1947   -2.0289 H   0  0  0  0  0  0  0  0  0  0  0  0
    1.6186    2.2905   -2.2923 H   0  0  0  0  0  0  0  0  0  0  0  0
   -2.7780    2.7157   -0.3497 H   0  0  0  0  0  0  0  0  0  0  0  0
   -1.3805    2.0709    0.6085 H   0  0  0  0  0  0  0  0  0  0  0  0
  1  2  1  0
  2  3  1  0
  2  4  1  0
  4  5  1  0
  4  6  2  0
  6  7  1  0
  7  8  1  6
  7  9  1  0
  9 10  2  0
 10 11  1  0
 11 12  1  0
 12 13  1  0
 13 14  1  0
 14 15  2  0
 15 16  1  0
 16 17  1  0
 17 18  1  0
 18 19  1  0
 18 20  1  0
 18 21  1  0
 16 22  1  0
 22 23  2  0
 23 24  1  0
 11 25  2  0
 25 26  1  0
 26 27  2  0
 27 28  1  0
  7 29  1  0
 29 30  1  0
 30 31  2  0
 30 32  2  0
 30  2  1  0
 27  9  1  0
 23 14  1  0
  1 33  1  0
  1 34  1  0
  1 35  1  0
  3 36  1  0
  3 37  1  0
  3 38  1  0
  5 39  1  0
  5 40  1  0
  8 41  1  0
  8 42  1  0
  8 43  1  0
 10 44  1  0
 12 45  1  0
 13 46  1  0
 13 47  1  0
 17 48  1  0
 17 49  1  0
 22 50  1  0
 25 51  1  0
 26 52  1  0
 29 53  1  0
 29 54  1  0
M  END
$$$$
