
     RDKit          3D

 61 68  0  0  0  0  0  0  0  0999 V2000
    4.8820    1.9163    0.8664 C   0  0  0  0  0  0  0  0  0  0  0  0
    4.2369    0.6150    0.9136 N   0  0  0  0  0  0  0  0  0  0  0  0
    3.1728    0.6276   -0.0601 C   0  0  2  0  0  0  0  0  0  0  0  0
    2.1465    1.7025    0.2259 C   0  0  0  0  0  0  0  0  0  0  0  0
    1.1637    1.7015   -0.8976 C   0  0  1  0  0  0  0  0  0  0  0  0
    1.2687    0.6614   -1.7648 O   0  0  0  0  0  0  0  0  0  0  0  0
    1.4636   -0.6074   -1.2514 C   0  0  1  0  0  0  0  0  0  0  0  0
    2.1383   -1.3556   -2.4195 C   0  0  0  0  0  0  0  0  0  0  0  0
    2.4158   -0.6837   -0.0970 C   0  0  2  0  0  0  0  0  0  0  0  0
    1.6524   -0.7145    1.0932 O   0  0  0  0  0  0  0  0  0  0  0  0
    1.9860   -1.8250    1.8635 C   0  0  0  0  0  0  0  0  0  0  0  0
    0.2181   -1.1898   -0.8524 N   0  0  0  0  0  0  0  0  0  0  0  0
   -0.1221   -2.4969   -0.8412 C   0  0  0  0  0  0  0  0  0  0  0  0
    0.5797   -3.6387   -1.1509 C   0  0  0  0  0  0  0  0  0  0  0  0
    0.0053   -4.9014   -1.0478 C   0  0  0  0  0  0  0  0  0  0  0  0
   -1.2966   -5.0135   -0.6249 C   0  0  0  0  0  0  0  0  0  0  0  0
   -2.0438   -3.8850   -0.2998 C   0  0  0  0  0  0  0  0  0  0  0  0
   -1.4348   -2.6643   -0.4174 C   0  0  0  0  0  0  0  0  0  0  0  0
   -1.9062   -1.4133   -0.1582 C   0  0  0  0  0  0  0  0  0  0  0  0
   -3.1413   -0.9384    0.3061 C   0  0  0  0  0  0  0  0  0  0  0  0
   -3.3626    0.4071    0.5046 C   0  0  0  0  0  0  0  0  0  0  0  0
   -2.3136    1.2730    0.2268 C   0  0  0  0  0  0  0  0  0  0  0  0
   -2.1914    2.6451    0.3269 C   0  0  0  0  0  0  0  0  0  0  0  0
   -3.0145    3.6626    0.7088 C   0  0  0  0  0  0  0  0  0  0  0  0
   -2.5290    4.9654    0.6801 C   0  0  0  0  0  0  0  0  0  0  0  0
   -1.2428    5.2387    0.2758 C   0  0  0  0  0  0  0  0  0  0  0  0
   -0.4143    4.2287   -0.1071 C   0  0  0  0  0  0  0  0  0  0  0  0
   -0.8793    2.9271   -0.0851 C   0  0  0  0  0  0  0  0  0  0  0  0
   -0.2350    1.8132   -0.4172 N   0  0  0  0  0  0  0  0  0  0  0  0
   -1.1060    0.8194   -0.2274 C   0  0  0  0  0  0  0  0  0  0  0  0
   -0.8987   -0.5290   -0.4231 C   0  0  0  0  0  0  0  0  0  0  0  0
   -4.7223    0.5702    0.9838 C   0  0  0  0  0  0  0  0  0  0  0  0
   -5.3415    1.6066    1.2897 O   0  0  0  0  0  0  0  0  0  0  0  0
   -5.3123   -0.7305    1.0668 N   0  0  0  0  0  0  0  0  0  0  0  0
   -4.3546   -1.7245    0.6450 C   0  0  0  0  0  0  0  0  0  0  0  0
    4.8115    2.3313   -0.1640 H   0  0  0  0  0  0  0  0  0  0  0  0
    4.3716    2.5830    1.6033 H   0  0  0  0  0  0  0  0  0  0  0  0
    5.9514    1.7978    1.1066 H   0  0  0  0  0  0  0  0  0  0  0  0
    4.9357   -0.0929    0.5859 H   0  0  0  0  0  0  0  0  0  0  0  0
    3.5657    0.8001   -1.0841 H   0  0  0  0  0  0  0  0  0  0  0  0
    2.7001    2.6540    0.3471 H   0  0  0  0  0  0  0  0  0  0  0  0
    1.6604    1.4169    1.1912 H   0  0  0  0  0  0  0  0  0  0  0  0
    1.3239    2.6384   -1.4795 H   0  0  0  0  0  0  0  0  0  0  0  0
    1.4211   -1.8954   -3.0370 H   0  0  0  0  0  0  0  0  0  0  0  0
    3.0419   -1.9023   -2.0944 H   0  0  0  0  0  0  0  0  0  0  0  0
    2.5831   -0.5919   -3.1532 H   0  0  0  0  0  0  0  0  0  0  0  0
    3.1025   -1.5545   -0.1382 H   0  0  0  0  0  0  0  0  0  0  0  0
    3.0645   -1.8156    2.1510 H   0  0  0  0  0  0  0  0  0  0  0  0
    1.7523   -2.7676    1.3540 H   0  0  0  0  0  0  0  0  0  0  0  0
    1.4236   -1.7282    2.8135 H   0  0  0  0  0  0  0  0  0  0  0  0
    1.6022   -3.5447   -1.4603 H   0  0  0  0  0  0  0  0  0  0  0  0
    0.6388   -5.7358   -1.3148 H   0  0  0  0  0  0  0  0  0  0  0  0
   -1.7355   -5.9781   -0.5464 H   0  0  0  0  0  0  0  0  0  0  0  0
   -3.0516   -3.9379    0.0305 H   0  0  0  0  0  0  0  0  0  0  0  0
   -4.0017    3.5060    1.0243 H   0  0  0  0  0  0  0  0  0  0  0  0
   -3.1792    5.7638    0.9812 H   0  0  0  0  0  0  0  0  0  0  0  0
   -0.8421    6.2510    0.2456 H   0  0  0  0  0  0  0  0  0  0  0  0
    0.5882    4.4457   -0.4218 H   0  0  0  0  0  0  0  0  0  0  0  0
   -6.2895   -0.9744    1.3808 H   0  0  0  0  0  0  0  0  0  0  0  0
   -4.1744   -2.4414    1.4802 H   0  0  0  0  0  0  0  0  0  0  0  0
   -4.7314   -2.2973   -0.2356 H   0  0  0  0  0  0  0  0  0  0  0  0
  1  2  1  0
  2  3  1  0
  3  4  1  0
  4  5  1  0
  5  6  1  0
  6  7  1  0
  7  8  1  6
  7  9  1  0
  9 10  1  0
 10 11  1  0
  7 12  1  0
 12 13  1  0
 13 14  2  0
 14 15  1  0
 15 16  2  0
 16 17  1  0
 17 18  2  0
 18 19  1  0
 19 20  2  0
 20 21  1  0
 21 22  2  0
 22 23  1  0
 23 24  2  0
 24 25  1  0
 25 26  2  0
 26 27  1  0
 27 28  2  0
 28 29  1  0
 29 30  1  0
 30 31  2  0
 21 32  1  0
 32 33  2  0
 32 34  1  0
 34 35  1  0
  9  3  1  0
 31 12  1  0
 29  5  1  0
 18 13  1  0
 31 19  1  0
 35 20  1  0
 30 22  1  0
 28 23  1  0
  1 36  1  0
  1 37  1  0
  1 38  1  0
  2 39  1  0
  3 40  1  6
  4 41  1  0
  4 42  1  0
  5 43  1  6
  8 44  1  0
  8 45  1  0
  8 46  1  0
  9 47  1  6
 11 48  1  0
 11 49  1  0
 11 50  1  0
 14 51  1  0
 15 52  1  0
 16 53  1  0
 17 54  1  0
 24 55  1  0
 25 56  1  0
 26 57  1  0
 27 58  1  0
 34 59  1  0
 35 60  1  0
 35 61  1  0
M  END
$$$$
