
     RDKit          3D

 56 58  0  0  0  0  0  0  0  0999 V2000
    4.9777    1.5911    1.4562 C   0  0  0  0  0  0  0  0  0  0  0  0
    5.2781    0.4801    0.5171 C   0  0  0  0  0  0  0  0  0  0  0  0
    6.5824    0.4043    0.0067 C   0  0  0  0  0  0  0  0  0  0  0  0
    6.9490   -0.6279   -0.8272 C   0  0  0  0  0  0  0  0  0  0  0  0
    8.2405   -0.6670   -1.3081 O   0  0  0  0  0  0  0  0  0  0  0  0
    8.8156   -1.6088   -2.1536 C   0  0  0  0  0  0  0  0  0  0  0  0
    9.2553   -1.0569   -3.3497 F   0  0  0  0  0  0  0  0  0  0  0  0
    9.8980   -2.2475   -1.5318 F   0  0  0  0  0  0  0  0  0  0  0  0
    5.9660   -1.5483   -1.1100 C   0  0  0  0  0  0  0  0  0  0  0  0
    4.7351   -1.4520   -0.6126 N   0  0  0  0  0  0  0  0  0  0  0  0
    4.3221   -0.4363    0.2249 C   0  0  0  0  0  0  0  0  0  0  0  0
    2.9352   -0.4373    0.6345 C   0  0  0  0  0  0  0  0  0  0  0  0
    2.3066   -1.5838    0.6125 O   0  0  0  0  0  0  0  0  0  0  0  0
    2.1710    0.6693    1.0550 N   0  0  0  0  0  0  0  0  0  0  0  0
    0.7830    0.4667    1.4406 C   0  0  0  0  0  0  0  0  0  0  0  0
    0.4875    0.1797    2.7516 C   0  0  0  0  0  0  0  0  0  0  0  0
   -0.8326   -0.0064    3.0844 C   0  0  0  0  0  0  0  0  0  0  0  0
   -1.8290    0.0905    2.1389 C   0  0  0  0  0  0  0  0  0  0  0  0
   -3.1219   -0.1060    2.4919 F   0  0  0  0  0  0  0  0  0  0  0  0
   -1.5588    0.3782    0.8145 C   0  0  0  0  0  0  0  0  0  0  0  0
   -2.6110    0.5006   -0.2345 C   0  0  2  0  0  0  0  0  0  0  0  0
   -1.9478    0.7535   -1.5994 C   0  0  0  0  0  0  0  0  0  0  0  0
   -2.9150    0.8689   -2.5763 F   0  0  0  0  0  0  0  0  0  0  0  0
   -3.4679    1.6806    0.1437 C   0  0  0  0  0  0  0  0  0  0  0  0
   -5.0293    1.5975   -0.6940 S   0  0  0  0  0  6  0  0  0  0  0  0
   -5.0003    2.2968   -2.0230 O   0  0  0  0  0  0  0  0  0  0  0  0
   -6.0302    2.3257    0.1558 O   0  0  0  0  0  0  0  0  0  0  0  0
   -5.4735   -0.0925   -0.9501 C   0  0  0  0  0  0  0  0  0  0  0  0
   -6.7203   -0.3475   -0.1178 C   0  0  0  0  0  0  0  0  0  0  0  0
   -5.8602   -0.3525   -2.3907 C   0  0  0  0  0  0  0  0  0  0  0  0
   -4.4476   -1.0378   -0.5541 C   0  0  0  0  0  0  0  0  0  0  0  0
   -4.8361   -2.4274   -0.4933 N   0  0  0  0  0  0  0  0  0  0  0  0
   -3.2813   -0.7527   -0.2677 N   0  0  0  0  0  0  0  0  0  0  0  0
   -0.2332    0.5626    0.4918 C   0  0  0  0  0  0  0  0  0  0  0  0
    5.9945    1.8958    1.9025 H   0  0  0  0  0  0  0  0  0  0  0  0
    4.6668    2.5174    0.9441 H   0  0  0  0  0  0  0  0  0  0  0  0
    4.4111    1.2919    2.3345 H   0  0  0  0  0  0  0  0  0  0  0  0
    7.3161    1.1676    0.2700 H   0  0  0  0  0  0  0  0  0  0  0  0
    8.0882   -2.3747   -2.4210 H   0  0  0  0  0  0  0  0  0  0  0  0
    6.2088   -2.3769   -1.7602 H   0  0  0  0  0  0  0  0  0  0  0  0
    2.5723    1.6197    1.0689 H   0  0  0  0  0  0  0  0  0  0  0  0
    1.2777    0.1039    3.4958 H   0  0  0  0  0  0  0  0  0  0  0  0
   -1.0839   -0.2308    4.0998 H   0  0  0  0  0  0  0  0  0  0  0  0
   -1.3962    1.7140   -1.5849 H   0  0  0  0  0  0  0  0  0  0  0  0
   -1.2297   -0.0535   -1.8340 H   0  0  0  0  0  0  0  0  0  0  0  0
   -3.6492    1.6802    1.2171 H   0  0  0  0  0  0  0  0  0  0  0  0
   -2.9773    2.6151   -0.2039 H   0  0  0  0  0  0  0  0  0  0  0  0
   -6.7595   -1.4209    0.1512 H   0  0  0  0  0  0  0  0  0  0  0  0
   -6.6019    0.2182    0.8309 H   0  0  0  0  0  0  0  0  0  0  0  0
   -7.6362    0.0065   -0.6021 H   0  0  0  0  0  0  0  0  0  0  0  0
   -6.6468   -1.1338   -2.3909 H   0  0  0  0  0  0  0  0  0  0  0  0
   -6.1900    0.5692   -2.9117 H   0  0  0  0  0  0  0  0  0  0  0  0
   -4.9812   -0.8310   -2.8882 H   0  0  0  0  0  0  0  0  0  0  0  0
   -5.1505   -2.8711   -1.3622 H   0  0  0  0  0  0  0  0  0  0  0  0
   -4.7974   -2.9561    0.4002 H   0  0  0  0  0  0  0  0  0  0  0  0
    0.0575    0.7916   -0.5270 H   0  0  0  0  0  0  0  0  0  0  0  0
  1  2  1  0
  2  3  2  0
  3  4  1  0
  4  5  1  0
  5  6  1  0
  6  7  1  0
  6  8  1  0
  4  9  2  0
  9 10  1  0
 10 11  2  0
 11 12  1  0
 12 13  2  0
 12 14  1  0
 14 15  1  0
 15 16  2  0
 16 17  1  0
 17 18  2  0
 18 19  1  0
 18 20  1  0
 20 21  1  0
 21 22  1  6
 22 23  1  0
 21 24  1  0
 24 25  1  0
 25 26  2  0
 25 27  2  0
 25 28  1  0
 28 29  1  0
 28 30  1  0
 28 31  1  0
 31 32  1  0
 31 33  2  0
 20 34  2  0
 11  2  1  0
 34 15  1  0
 33 21  1  0
  1 35  1  0
  1 36  1  0
  1 37  1  0
  3 38  1  0
  6 39  1  0
  9 40  1  0
 14 41  1  0
 16 42  1  0
 17 43  1  0
 22 44  1  0
 22 45  1  0
 24 46  1  0
 24 47  1  0
 29 48  1  0
 29 49  1  0
 29 50  1  0
 30 51  1  0
 30 52  1  0
 30 53  1  0
 32 54  1  0
 32 55  1  0
 34 56  1  0
M  END
$$$$
