
     RDKit          3D

 44 47  0  0  0  0  0  0  0  0999 V2000
   -6.3958    1.0762   -3.1814 F   0  0  0  0  0  0  0  0  0  0  0  0
   -5.3447    0.6889   -2.4139 C   0  0  0  0  0  0  0  0  0  0  0  0
   -5.0055    1.3577   -1.2566 C   0  0  0  0  0  0  0  0  0  0  0  0
   -3.9219    0.9289   -0.4989 C   0  0  0  0  0  0  0  0  0  0  0  0
   -3.1510   -0.1646   -0.8630 C   0  0  0  0  0  0  0  0  0  0  0  0
   -1.9877   -0.6276   -0.0498 C   0  0  2  0  0  0  0  0  0  0  0  0
   -2.3771   -1.2098    1.2674 C   0  0  0  0  0  0  0  0  0  0  0  0
   -2.4954   -0.2175    2.3729 C   0  0  0  0  0  0  0  0  0  0  0  0
   -1.4278    0.7044    2.4464 N   0  0  0  0  0  0  0  0  0  0  0  0
   -0.9752    1.2854    1.2463 C   0  0  0  0  0  0  0  0  0  0  0  0
   -0.9082    0.3851    0.0563 C   0  0  1  0  0  0  0  0  0  0  0  0
    0.4424   -0.3066    0.0332 C   0  0  0  0  0  0  0  0  0  0  0  0
    1.4956    0.6047    0.1304 O   0  0  0  0  0  0  0  0  0  0  0  0
    2.7940    0.1686    0.1266 C   0  0  0  0  0  0  0  0  0  0  0  0
    3.0921   -1.1638    0.0280 C   0  0  0  0  0  0  0  0  0  0  0  0
    4.3970   -1.6082    0.0237 C   0  0  0  0  0  0  0  0  0  0  0  0
    5.4327   -0.7015    0.1201 C   0  0  0  0  0  0  0  0  0  0  0  0
    5.1345    0.6432    0.2197 C   0  0  0  0  0  0  0  0  0  0  0  0
    3.8282    1.0657    0.2222 C   0  0  0  0  0  0  0  0  0  0  0  0
    6.3544    1.3261    0.3027 O   0  0  0  0  0  0  0  0  0  0  0  0
    7.4018    0.4387    0.0464 C   0  0  0  0  0  0  0  0  0  0  0  0
    6.8102   -0.8358    0.1421 O   0  0  0  0  0  0  0  0  0  0  0  0
   -3.5457   -0.7950   -2.0402 C   0  0  0  0  0  0  0  0  0  0  0  0
   -4.6073   -0.3883   -2.7979 C   0  0  0  0  0  0  0  0  0  0  0  0
   -5.6024    2.2215   -0.9550 H   0  0  0  0  0  0  0  0  0  0  0  0
   -3.7038    1.4785    0.3798 H   0  0  0  0  0  0  0  0  0  0  0  0
   -1.5547   -1.4962   -0.6374 H   0  0  0  0  0  0  0  0  0  0  0  0
   -3.2864   -1.8351    1.1914 H   0  0  0  0  0  0  0  0  0  0  0  0
   -1.5596   -1.9294    1.5690 H   0  0  0  0  0  0  0  0  0  0  0  0
   -3.5141    0.2656    2.4314 H   0  0  0  0  0  0  0  0  0  0  0  0
   -2.4657   -0.8223    3.3317 H   0  0  0  0  0  0  0  0  0  0  0  0
   -0.7026    0.4475    3.1428 H   0  0  0  0  0  0  0  0  0  0  0  0
    0.0832    1.6437    1.4348 H   0  0  0  0  0  0  0  0  0  0  0  0
   -1.5301    2.2412    1.0499 H   0  0  0  0  0  0  0  0  0  0  0  0
   -0.9395    1.0268   -0.8554 H   0  0  0  0  0  0  0  0  0  0  0  0
    0.5200   -0.9454   -0.8835 H   0  0  0  0  0  0  0  0  0  0  0  0
    0.4407   -1.0135    0.9058 H   0  0  0  0  0  0  0  0  0  0  0  0
    2.3105   -1.9188   -0.0504 H   0  0  0  0  0  0  0  0  0  0  0  0
    4.6418   -2.6621   -0.0541 H   0  0  0  0  0  0  0  0  0  0  0  0
    3.6084    2.1290    0.3013 H   0  0  0  0  0  0  0  0  0  0  0  0
    8.2324    0.5590    0.7727 H   0  0  0  0  0  0  0  0  0  0  0  0
    7.8070    0.5450   -0.9927 H   0  0  0  0  0  0  0  0  0  0  0  0
   -2.9682   -1.6542   -2.3588 H   0  0  0  0  0  0  0  0  0  0  0  0
   -4.8564   -0.9360   -3.7126 H   0  0  0  0  0  0  0  0  0  0  0  0
  1  2  1  0
  2  3  2  0
  3  4  1  0
  4  5  2  0
  5  6  1  0
  6  7  1  0
  7  8  1  0
  8  9  1  0
  9 10  1  0
 10 11  1  0
 11 12  1  0
 12 13  1  0
 13 14  1  0
 14 15  2  0
 15 16  1  0
 16 17  2  0
 17 18  1  0
 18 19  2  0
 18 20  1  0
 20 21  1  0
 21 22  1  0
  5 23  1  0
 23 24  2  0
 24  2  1  0
 11  6  1  0
 19 14  1  0
 22 17  1  0
  3 25  1  0
  4 26  1  0
  6 27  1  6
  7 28  1  0
  7 29  1  0
  8 30  1  0
  8 31  1  0
  9 32  1  0
 10 33  1  0
 10 34  1  0
 11 35  1  6
 12 36  1  0
 12 37  1  0
 15 38  1  0
 16 39  1  0
 19 40  1  0
 21 41  1  0
 21 42  1  0
 23 43  1  0
 24 44  1  0
M  END
$$$$
