
     RDKit          3D

 49 53  0  0  0  0  0  0  0  0999 V2000
    5.0005    1.2705    1.8746 O   0  0  0  0  0  0  0  0  0  0  0  0
    4.9571    0.2430    1.1273 C   0  0  0  0  0  0  0  0  0  0  0  0
    4.1454   -0.8792    1.4030 N   0  0  0  0  0  0  0  0  0  0  0  0
    3.3030   -0.8981    2.5906 C   0  0  0  0  0  0  0  0  0  0  0  0
    2.2910    0.2447    2.5812 C   0  0  2  0  0  0  0  0  0  0  0  0
    1.5407    0.0981    3.7966 O   0  0  0  0  0  0  0  0  0  0  0  0
    0.1824    0.2726    3.5011 C   0  0  0  0  0  0  0  0  0  0  0  0
   -0.7574    0.5189    4.3009 O   0  0  0  0  0  0  0  0  0  0  0  0
    0.0237    0.1235    2.1108 N   0  0  0  0  0  0  0  0  0  0  0  0
   -1.1012    0.0719    1.2410 C   0  0  0  0  0  0  0  0  0  0  0  0
   -2.3416   -0.2081    1.7667 C   0  0  0  0  0  0  0  0  0  0  0  0
   -3.4196   -0.2535    0.9089 C   0  0  0  0  0  0  0  0  0  0  0  0
   -3.2393   -0.0181   -0.4611 C   0  0  0  0  0  0  0  0  0  0  0  0
   -4.3831   -0.0742   -1.2696 N   0  0  0  0  0  0  0  0  0  0  0  0
   -5.7170   -0.3020   -0.6914 C   0  0  0  0  0  0  0  0  0  0  0  0
   -6.7902    0.0571   -1.7011 C   0  0  0  0  0  0  0  0  0  0  0  0
   -6.4564    1.1469   -2.4810 O   0  0  0  0  0  0  0  0  0  0  0  0
   -5.4744    0.7705   -3.4007 C   0  0  0  0  0  0  0  0  0  0  0  0
   -4.3753    0.0863   -2.6856 C   0  0  0  0  0  0  0  0  0  0  0  0
   -3.4184   -0.3610   -3.3419 O   0  0  0  0  0  0  0  0  0  0  0  0
   -1.9820    0.2582   -0.9428 C   0  0  0  0  0  0  0  0  0  0  0  0
   -0.8995    0.3066   -0.1001 C   0  0  0  0  0  0  0  0  0  0  0  0
    0.3865    0.5888   -0.5914 O   0  0  0  0  0  0  0  0  0  0  0  0
    1.3884    0.9877    0.3594 C   0  0  0  0  0  0  0  0  0  0  0  0
    1.3247    0.0002    1.4819 C   0  0  1  0  0  0  0  0  0  0  0  0
    5.7863    0.1997   -0.0915 C   0  0  0  0  0  0  0  0  0  0  0  0
    5.9007   -0.7723   -1.0206 C   0  0  0  0  0  0  0  0  0  0  0  0
    6.7323   -0.5809   -2.0580 C   0  0  0  0  0  0  0  0  0  0  0  0
    7.4340    0.5706   -2.1535 C   0  0  0  0  0  0  0  0  0  0  0  0
    8.5686    1.1703   -3.3022 Cl  0  0  0  0  0  0  0  0  0  0  0  0
    6.8684    1.4618   -0.6433 S   0  0  0  0  0  0  0  0  0  0  0  0
    4.1527   -1.6920    0.7531 H   0  0  0  0  0  0  0  0  0  0  0  0
    3.9585   -0.8303    3.5066 H   0  0  0  0  0  0  0  0  0  0  0  0
    2.7953   -1.8796    2.6612 H   0  0  0  0  0  0  0  0  0  0  0  0
    2.7822    1.2170    2.5870 H   0  0  0  0  0  0  0  0  0  0  0  0
   -2.4350   -0.3830    2.8281 H   0  0  0  0  0  0  0  0  0  0  0  0
   -4.3921   -0.4706    1.3049 H   0  0  0  0  0  0  0  0  0  0  0  0
   -5.8698    0.3699    0.1773 H   0  0  0  0  0  0  0  0  0  0  0  0
   -5.8641   -1.3579   -0.4167 H   0  0  0  0  0  0  0  0  0  0  0  0
   -7.0816   -0.8288   -2.3001 H   0  0  0  0  0  0  0  0  0  0  0  0
   -7.7131    0.3571   -1.1231 H   0  0  0  0  0  0  0  0  0  0  0  0
   -5.8852    0.1252   -4.1844 H   0  0  0  0  0  0  0  0  0  0  0  0
   -5.0687    1.7227   -3.8388 H   0  0  0  0  0  0  0  0  0  0  0  0
   -1.7933    0.4494   -1.9790 H   0  0  0  0  0  0  0  0  0  0  0  0
    2.3711    1.0527   -0.1090 H   0  0  0  0  0  0  0  0  0  0  0  0
    1.0368    1.9867    0.7357 H   0  0  0  0  0  0  0  0  0  0  0  0
    1.3711   -1.0205    1.0542 H   0  0  0  0  0  0  0  0  0  0  0  0
    5.2977   -1.7139   -0.9008 H   0  0  0  0  0  0  0  0  0  0  0  0
    6.8595   -1.3740   -2.8644 H   0  0  0  0  0  0  0  0  0  0  0  0
  1  2  2  0
  2  3  1  0
  3  4  1  0
  4  5  1  0
  5  6  1  0
  6  7  1  0
  7  8  2  0
  7  9  1  0
  9 10  1  0
 10 11  2  0
 11 12  1  0
 12 13  2  0
 13 14  1  0
 14 15  1  0
 15 16  1  0
 16 17  1  0
 17 18  1  0
 18 19  1  0
 19 20  2  0
 13 21  1  0
 21 22  2  0
 22 23  1  0
 23 24  1  0
 24 25  1  0
  2 26  1  0
 26 27  2  0
 27 28  1  0
 28 29  2  0
 29 30  1  0
 29 31  1  0
 25  5  1  0
 31 26  1  0
 25  9  1  0
 22 10  1  0
 19 14  1  0
  3 32  1  0
  4 33  1  0
  4 34  1  0
  5 35  1  6
 11 36  1  0
 12 37  1  0
 15 38  1  0
 15 39  1  0
 16 40  1  0
 16 41  1  0
 18 42  1  0
 18 43  1  0
 21 44  1  0
 24 45  1  0
 24 46  1  0
 25 47  1  6
 27 48  1  0
 28 49  1  0
M  END
$$$$
