
     RDKit          3D

 40 41  0  0  0  0  0  0  0  0999 V2000
    1.3367   -0.4787    0.4768 C   0  0  2  0  0  0  0  0  0  0  0  0
    0.4427    0.6499   -0.0059 C   0  0  0  0  0  0  0  0  0  0  0  0
   -0.8745    0.1287   -0.1090 N   0  0  0  0  0  0  0  0  0  0  0  0
   -1.8820    1.0493   -0.4838 C   0  0  0  0  0  0  0  0  0  0  0  0
   -3.2334    0.4850   -0.5830 C   0  0  0  0  0  0  0  0  0  0  0  0
   -3.6184   -0.0288   -1.8260 C   0  0  0  0  0  0  0  0  0  0  0  0
   -4.8431   -0.5800   -2.0534 C   0  0  0  0  0  0  0  0  0  0  0  0
   -5.7897   -0.6624   -1.0465 C   0  0  0  0  0  0  0  0  0  0  0  0
   -7.0234   -1.1799   -1.1454 F   0  0  0  0  0  0  0  0  0  0  0  0
   -5.4331   -0.1678    0.1693 C   0  0  0  0  0  0  0  0  0  0  0  0
   -4.2007    0.3881    0.4021 C   0  0  0  0  0  0  0  0  0  0  0  0
   -1.2139   -0.9029    0.7986 C   0  0  0  0  0  0  0  0  0  0  0  0
   -0.4184   -0.8391    2.0796 C   0  0  0  0  0  0  0  0  0  0  0  0
    1.0044   -0.7701    1.8531 N   0  0  0  0  0  0  0  0  0  0  0  0
    2.7229    0.0621    0.4875 C   0  0  0  0  0  0  0  0  0  0  0  0
    3.1653    0.0992    1.6482 O   0  0  0  0  0  0  0  0  0  0  0  0
    3.4476    0.4774   -0.6383 N   0  0  0  0  0  0  0  0  0  0  0  0
    4.7907    0.9932   -0.5620 C   0  0  0  0  0  0  0  0  0  0  0  0
    5.7569   -0.0078    0.0270 C   0  0  0  0  0  0  0  0  0  0  0  0
    5.8265   -1.5235   -0.9661 S   0  0  0  0  0  0  0  0  0  0  0  0
    1.2118   -1.3499   -0.1959 H   0  0  0  0  0  0  0  0  0  0  0  0
    0.5428    1.4944    0.6984 H   0  0  0  0  0  0  0  0  0  0  0  0
    0.7583    0.9905   -1.0131 H   0  0  0  0  0  0  0  0  0  0  0  0
   -1.6073    1.5003   -1.4779 H   0  0  0  0  0  0  0  0  0  0  0  0
   -1.8797    1.9322    0.2065 H   0  0  0  0  0  0  0  0  0  0  0  0
   -2.9677   -0.0216   -2.6884 H   0  0  0  0  0  0  0  0  0  0  0  0
   -5.1423   -0.9811   -3.0254 H   0  0  0  0  0  0  0  0  0  0  0  0
   -6.0937   -0.1807    1.0253 H   0  0  0  0  0  0  0  0  0  0  0  0
   -3.8884    0.7942    1.3735 H   0  0  0  0  0  0  0  0  0  0  0  0
   -2.2632   -0.9778    1.0774 H   0  0  0  0  0  0  0  0  0  0  0  0
   -0.9664   -1.8781    0.2952 H   0  0  0  0  0  0  0  0  0  0  0  0
   -0.6104   -1.7483    2.6920 H   0  0  0  0  0  0  0  0  0  0  0  0
   -0.7115    0.0524    2.6724 H   0  0  0  0  0  0  0  0  0  0  0  0
    1.5582   -1.5262    2.2596 H   0  0  0  0  0  0  0  0  0  0  0  0
    2.9939    0.4086   -1.5618 H   0  0  0  0  0  0  0  0  0  0  0  0
    5.1382    1.4161   -1.5159 H   0  0  0  0  0  0  0  0  0  0  0  0
    4.7504    1.8350    0.1725 H   0  0  0  0  0  0  0  0  0  0  0  0
    5.3792   -0.2869    1.0310 H   0  0  0  0  0  0  0  0  0  0  0  0
    6.7577    0.4000    0.1759 H   0  0  0  0  0  0  0  0  0  0  0  0
    7.0768   -2.1283   -0.7242 H   0  0  0  0  0  0  0  0  0  0  0  0
  1  2  1  0
  2  3  1  0
  3  4  1  0
  4  5  1  0
  5  6  2  0
  6  7  1  0
  7  8  2  0
  8  9  1  0
  8 10  1  0
 10 11  2  0
  3 12  1  0
 12 13  1  0
 13 14  1  0
  1 15  1  0
 15 16  2  0
 15 17  1  0
 17 18  1  0
 18 19  1  0
 19 20  1  0
 14  1  1  0
 11  5  1  0
  1 21  1  6
  2 22  1  0
  2 23  1  0
  4 24  1  0
  4 25  1  0
  6 26  1  0
  7 27  1  0
 10 28  1  0
 11 29  1  0
 12 30  1  0
 12 31  1  0
 13 32  1  0
 13 33  1  0
 14 34  1  0
 17 35  1  0
 18 36  1  0
 18 37  1  0
 19 38  1  0
 19 39  1  0
 20 40  1  0
M  END
$$$$
