
     RDKit          3D

 50 50  0  0  0  0  0  0  0  0999 V2000
    1.1643    0.6121    2.0581 C   0  0  0  0  0  0  0  0  0  0  0  0
    1.0774    0.5523    0.5791 C   0  0  0  0  0  0  0  0  0  0  0  0
   -0.0884    0.1568   -0.1734 C   0  0  0  0  0  0  0  0  0  0  0  0
   -1.2862   -0.2281    0.2016 C   0  0  0  0  0  0  0  0  0  0  0  0
   -2.5706   -0.6572   -0.2881 C   0  0  0  0  0  0  0  0  0  0  0  0
   -3.0995   -0.8517   -1.4788 C   0  0  0  0  0  0  0  0  0  0  0  0
   -2.1413   -0.5584   -2.5941 C   0  0  0  0  0  0  0  0  0  0  0  0
   -4.4591   -1.3040   -1.8159 C   0  0  0  0  0  0  0  0  0  0  0  0
   -5.5288   -0.9074   -0.8601 C   0  0  0  0  0  0  0  0  0  0  0  0
   -4.8962   -0.2735    0.3450 C   0  0  0  0  0  0  0  0  0  0  0  0
   -3.6257   -0.9884    0.7419 C   0  0  0  0  0  0  0  0  0  0  0  0
   -3.2470   -0.3973    2.1060 C   0  0  0  0  0  0  0  0  0  0  0  0
   -3.8041   -2.4674    0.8492 C   0  0  0  0  0  0  0  0  0  0  0  0
    2.1277    0.8818   -0.1348 C   0  0  0  0  0  0  0  0  0  0  0  0
    3.3651    1.3014    0.4987 C   0  0  0  0  0  0  0  0  0  0  0  0
    4.4299    1.6388   -0.2086 C   0  0  0  0  0  0  0  0  0  0  0  0
    5.6865    2.0649    0.3855 C   0  0  0  0  0  0  0  0  0  0  0  0
    5.8239    2.1368    1.8489 C   0  0  0  0  0  0  0  0  0  0  0  0
    6.7439    2.4016   -0.3251 C   0  0  0  0  0  0  0  0  0  0  0  0
    6.7115    2.3646   -1.7579 C   0  0  0  0  0  0  0  0  0  0  0  0
    6.3697    2.2242   -3.0993 O   0  0  0  0  0  0  0  0  0  0  0  0
    7.6347    2.6629   -2.5498 O   0  0  0  0  0  0  0  0  0  0  0  0
    1.7097    1.5381    2.4017 H   0  0  0  0  0  0  0  0  0  0  0  0
    0.1177    0.7437    2.4602 H   0  0  0  0  0  0  0  0  0  0  0  0
    1.5364   -0.3049    2.5246 H   0  0  0  0  0  0  0  0  0  0  0  0
   -0.0881    0.1368   -1.2520 H   0  0  0  0  0  0  0  0  0  0  0  0
   -1.2271   -0.1922    1.3034 H   0  0  0  0  0  0  0  0  0  0  0  0
   -2.7018   -0.7448   -3.5620 H   0  0  0  0  0  0  0  0  0  0  0  0
   -1.8862    0.5133   -2.6520 H   0  0  0  0  0  0  0  0  0  0  0  0
   -1.2986   -1.2437   -2.6427 H   0  0  0  0  0  0  0  0  0  0  0  0
   -4.6817   -0.9261   -2.8603 H   0  0  0  0  0  0  0  0  0  0  0  0
   -4.4744   -2.4314   -1.9127 H   0  0  0  0  0  0  0  0  0  0  0  0
   -6.1954   -1.7472   -0.5650 H   0  0  0  0  0  0  0  0  0  0  0  0
   -6.1625   -0.1230   -1.3533 H   0  0  0  0  0  0  0  0  0  0  0  0
   -4.6506    0.7789    0.0936 H   0  0  0  0  0  0  0  0  0  0  0  0
   -5.6278   -0.3341    1.1864 H   0  0  0  0  0  0  0  0  0  0  0  0
   -2.9490    0.6667    1.9604 H   0  0  0  0  0  0  0  0  0  0  0  0
   -2.5224   -1.0053    2.6509 H   0  0  0  0  0  0  0  0  0  0  0  0
   -4.2169   -0.3607    2.6828 H   0  0  0  0  0  0  0  0  0  0  0  0
   -3.2789   -3.0563    0.0625 H   0  0  0  0  0  0  0  0  0  0  0  0
   -4.9046   -2.6977    0.7904 H   0  0  0  0  0  0  0  0  0  0  0  0
   -3.4532   -2.7999    1.8552 H   0  0  0  0  0  0  0  0  0  0  0  0
    2.1186    0.8568   -1.2259 H   0  0  0  0  0  0  0  0  0  0  0  0
    3.5383    1.3752    1.5621 H   0  0  0  0  0  0  0  0  0  0  0  0
    4.3484    1.5911   -1.3017 H   0  0  0  0  0  0  0  0  0  0  0  0
    6.7236    2.6751    2.1800 H   0  0  0  0  0  0  0  0  0  0  0  0
    5.8191    1.1372    2.3386 H   0  0  0  0  0  0  0  0  0  0  0  0
    4.9366    2.6755    2.2801 H   0  0  0  0  0  0  0  0  0  0  0  0
    7.6948    2.7240    0.0655 H   0  0  0  0  0  0  0  0  0  0  0  0
    5.3880    2.1087   -3.3990 H   0  0  0  0  0  0  0  0  0  0  0  0
  1  2  1  0
  2  3  1  0
  3  4  2  0
  4  5  1  0
  5  6  2  0
  6  7  1  0
  6  8  1  0
  8  9  1  0
  9 10  1  0
 10 11  1  0
 11 12  1  0
 11 13  1  0
  2 14  2  0
 14 15  1  0
 15 16  2  0
 16 17  1  0
 17 18  1  0
 17 19  2  0
 19 20  1  0
 20 21  1  0
 20 22  2  0
 11  5  1  0
  1 23  1  0
  1 24  1  0
  1 25  1  0
  3 26  1  0
  4 27  1  0
  7 28  1  0
  7 29  1  0
  7 30  1  0
  8 31  1  0
  8 32  1  0
  9 33  1  0
  9 34  1  0
 10 35  1  0
 10 36  1  0
 12 37  1  0
 12 38  1  0
 12 39  1  0
 13 40  1  0
 13 41  1  0
 13 42  1  0
 14 43  1  0
 15 44  1  0
 16 45  1  0
 18 46  1  0
 18 47  1  0
 18 48  1  0
 19 49  1  0
 21 50  1  0
M  END
$$$$
