
     RDKit          3D

 56 57  0  0  0  0  0  0  0  0999 V2000
   -6.8714    2.7573   -0.2456 C   0  0  0  0  0  0  0  0  0  0  0  0
   -6.9886    1.2391   -0.3206 C   0  0  0  0  0  0  0  0  0  0  0  0
   -5.8256    0.6048    0.0591 O   0  0  0  0  0  0  0  0  0  0  0  0
   -5.4978   -0.7260    0.1239 C   0  0  0  0  0  0  0  0  0  0  0  0
   -6.2502   -1.8341   -0.1971 C   0  0  0  0  0  0  0  0  0  0  0  0
   -5.6644   -3.0681   -0.0335 C   0  0  0  0  0  0  0  0  0  0  0  0
   -4.3845   -3.2630    0.4269 C   0  0  0  0  0  0  0  0  0  0  0  0
   -3.6233   -2.1371    0.7529 C   0  0  0  0  0  0  0  0  0  0  0  0
   -4.1831   -0.8778    0.5988 C   0  0  0  0  0  0  0  0  0  0  0  0
   -3.4242    0.1150    0.9196 O   0  0  0  0  0  0  0  0  0  0  0  0
   -2.6603    1.1110    1.2425 C   0  0  0  0  0  0  0  0  0  0  0  0
   -1.3193    0.9577    0.4816 C   0  0  0  0  0  0  0  0  0  0  0  0
   -0.4095    2.0150    0.7495 N   0  0  0  0  0  0  0  0  0  0  0  0
    0.8998    1.5809    0.2404 C   0  0  2  0  0  0  0  0  0  0  0  0
    0.8506    1.0336   -1.1354 C   0  0  0  0  0  0  0  0  0  0  0  0
    1.5939    0.7215    1.2398 C   0  0  0  0  0  0  0  0  0  0  0  0
    2.8889    0.2434    0.7760 C   0  0  0  0  0  0  0  0  0  0  0  0
    4.0754    0.9591    0.8390 C   0  0  0  0  0  0  0  0  0  0  0  0
    5.2534    0.3619    0.4092 C   0  0  0  0  0  0  0  0  0  0  0  0
    5.2312   -0.9399   -0.0757 C   0  0  0  0  0  0  0  0  0  0  0  0
    6.4117   -1.5462   -0.5042 O   0  0  0  0  0  0  0  0  0  0  0  0
    6.3578   -2.8704   -0.9844 C   0  0  0  0  0  0  0  0  0  0  0  0
    4.0489   -1.6475   -0.1382 C   0  0  0  0  0  0  0  0  0  0  0  0
    2.8995   -1.0354    0.2918 C   0  0  0  0  0  0  0  0  0  0  0  0
    6.7337    1.2973    0.4695 S   0  0  0  0  0  0  0  0  0  0  0  0
    7.8905    0.4862    1.4296 N   0  0  0  0  0  0  0  0  0  0  0  0
    7.2005    1.5628   -0.9406 O   0  0  0  0  0  0  0  0  0  0  0  0
    6.4541    2.6278    1.0940 O   0  0  0  0  0  0  0  0  0  0  0  0
   -7.5014    3.1611    0.5690 H   0  0  0  0  0  0  0  0  0  0  0  0
   -7.1438    3.2537   -1.1903 H   0  0  0  0  0  0  0  0  0  0  0  0
   -5.8107    3.0526   -0.0573 H   0  0  0  0  0  0  0  0  0  0  0  0
   -7.8811    0.9637    0.2853 H   0  0  0  0  0  0  0  0  0  0  0  0
   -7.2393    0.9895   -1.3654 H   0  0  0  0  0  0  0  0  0  0  0  0
   -7.2385   -1.6234   -0.5507 H   0  0  0  0  0  0  0  0  0  0  0  0
   -6.2488   -3.9369   -0.2882 H   0  0  0  0  0  0  0  0  0  0  0  0
   -3.9752   -4.2565    0.5304 H   0  0  0  0  0  0  0  0  0  0  0  0
   -2.6076   -2.3019    1.1190 H   0  0  0  0  0  0  0  0  0  0  0  0
   -2.4014    1.2588    2.3467 H   0  0  0  0  0  0  0  0  0  0  0  0
   -3.0707    2.1192    0.9454 H   0  0  0  0  0  0  0  0  0  0  0  0
   -1.6210    0.8541   -0.5668 H   0  0  0  0  0  0  0  0  0  0  0  0
   -0.9689   -0.0646    0.8107 H   0  0  0  0  0  0  0  0  0  0  0  0
   -0.3022    2.2329    1.7569 H   0  0  0  0  0  0  0  0  0  0  0  0
    1.4847    2.5521    0.1958 H   0  0  0  0  0  0  0  0  0  0  0  0
    0.7955   -0.0870   -1.1458 H   0  0  0  0  0  0  0  0  0  0  0  0
    1.7530    1.3374   -1.7334 H   0  0  0  0  0  0  0  0  0  0  0  0
   -0.0392    1.3536   -1.7239 H   0  0  0  0  0  0  0  0  0  0  0  0
    0.9525   -0.1089    1.6249 H   0  0  0  0  0  0  0  0  0  0  0  0
    1.7596    1.3864    2.1440 H   0  0  0  0  0  0  0  0  0  0  0  0
    4.0085    1.9731    1.2322 H   0  0  0  0  0  0  0  0  0  0  0  0
    5.8832   -3.5184   -0.1963 H   0  0  0  0  0  0  0  0  0  0  0  0
    7.3872   -3.2406   -1.0945 H   0  0  0  0  0  0  0  0  0  0  0  0
    5.7926   -2.8530   -1.9216 H   0  0  0  0  0  0  0  0  0  0  0  0
    4.0478   -2.6692   -0.5167 H   0  0  0  0  0  0  0  0  0  0  0  0
    2.0136   -1.6471    0.2144 H   0  0  0  0  0  0  0  0  0  0  0  0
    8.8334    0.6245    0.9847 H   0  0  0  0  0  0  0  0  0  0  0  0
    7.6505   -0.5337    1.4247 H   0  0  0  0  0  0  0  0  0  0  0  0
  1  2  1  0
  2  3  1  0
  3  4  1  0
  4  5  2  0
  5  6  1  0
  6  7  2  0
  7  8  1  0
  8  9  2  0
  9 10  1  0
 10 11  1  0
 11 12  1  0
 12 13  1  0
 13 14  1  0
 14 15  1  0
 14 16  1  0
 16 17  1  0
 17 18  2  0
 18 19  1  0
 19 20  2  0
 20 21  1  0
 21 22  1  0
 20 23  1  0
 23 24  2  0
 19 25  1  0
 25 26  1  0
 25 27  2  0
 25 28  2  0
  9  4  1  0
 24 17  1  0
  1 29  1  0
  1 30  1  0
  1 31  1  0
  2 32  1  0
  2 33  1  0
  5 34  1  0
  6 35  1  0
  7 36  1  0
  8 37  1  0
 11 38  1  0
 11 39  1  0
 12 40  1  0
 12 41  1  0
 13 42  1  0
 14 43  1  6
 15 44  1  0
 15 45  1  0
 15 46  1  0
 16 47  1  0
 16 48  1  0
 18 49  1  0
 22 50  1  0
 22 51  1  0
 22 52  1  0
 23 53  1  0
 24 54  1  0
 26 55  1  0
 26 56  1  0
M  END
$$$$
