
     RDKit          3D

 50 53  0  0  0  0  0  0  0  0999 V2000
    8.6773    0.3663    1.5761 C   0  0  0  0  0  0  0  0  0  0  0  0
    7.4009    0.8575    1.9040 O   0  0  0  0  0  0  0  0  0  0  0  0
    6.2522    0.5498    1.2306 C   0  0  0  0  0  0  0  0  0  0  0  0
    5.0643    1.0921    1.6465 C   0  0  0  0  0  0  0  0  0  0  0  0
    3.9499    0.7692    0.9617 N   0  0  0  0  0  0  0  0  0  0  0  0
    3.9761   -0.0589   -0.1024 C   0  0  0  0  0  0  0  0  0  0  0  0
    2.7829   -0.3577   -0.7737 C   0  0  0  0  0  0  0  0  0  0  0  0
    1.5833    0.2101   -0.3102 N   0  0  0  0  0  0  0  0  0  0  0  0
    0.3125    0.0300   -0.9063 C   0  0  0  0  0  0  0  0  0  0  0  0
    0.1026   -0.4244   -2.1865 C   0  0  0  0  0  0  0  0  0  0  0  0
   -1.2043   -0.5763   -2.6613 C   0  0  0  0  0  0  0  0  0  0  0  0
   -2.3119   -0.2869   -1.8939 C   0  0  0  0  0  0  0  0  0  0  0  0
   -3.5656   -0.4318   -2.3753 F   0  0  0  0  0  0  0  0  0  0  0  0
   -2.1067    0.1700   -0.6067 C   0  0  0  0  0  0  0  0  0  0  0  0
   -3.3263    0.4827    0.2322 C   0  0  2  0  0  0  0  0  0  0  0  0
   -2.7801    1.0546    1.5365 C   0  0  0  0  0  0  0  0  0  0  0  0
   -3.8226    1.3947    2.3950 F   0  0  0  0  0  0  0  0  0  0  0  0
   -4.0533   -0.7940    0.4436 C   0  0  0  0  0  0  0  0  0  0  0  0
   -5.5344   -0.7404    0.5324 C   0  0  1  0  0  0  0  0  0  0  0  0
   -6.1031   -1.5056    1.7195 C   0  0  0  0  0  0  0  0  0  0  0  0
   -5.5953   -0.9640    2.8691 F   0  0  0  0  0  0  0  0  0  0  0  0
   -7.4695   -1.5510    1.6848 F   0  0  0  0  0  0  0  0  0  0  0  0
   -5.6690   -2.8307    1.6930 F   0  0  0  0  0  0  0  0  0  0  0  0
   -6.0409    0.6028    0.5331 O   0  0  0  0  0  0  0  0  0  0  0  0
   -5.3757    1.5447   -0.2507 C   0  0  0  0  0  0  0  0  0  0  0  0
   -6.1316    2.5637   -0.8864 N   0  0  0  0  0  0  0  0  0  0  0  0
   -4.1082    1.4852   -0.3894 N   0  0  0  0  0  0  0  0  0  0  0  0
   -0.8381    0.3149   -0.1533 C   0  0  0  0  0  0  0  0  0  0  0  0
    2.8746   -1.1805   -1.8142 N   0  0  0  0  0  0  0  0  0  0  0  0
    4.0413   -1.7030   -2.2096 C   0  0  0  0  0  0  0  0  0  0  0  0
    5.2360   -1.4293   -1.5703 C   0  0  0  0  0  0  0  0  0  0  0  0
    5.1885   -0.5840   -0.4902 C   0  0  0  0  0  0  0  0  0  0  0  0
    6.3384   -0.2914    0.1641 N   0  0  0  0  0  0  0  0  0  0  0  0
    8.7993   -0.7001    1.8386 H   0  0  0  0  0  0  0  0  0  0  0  0
    9.4779    0.9457    2.0905 H   0  0  0  0  0  0  0  0  0  0  0  0
    8.8179    0.4711    0.4802 H   0  0  0  0  0  0  0  0  0  0  0  0
    5.0649    1.7488    2.4953 H   0  0  0  0  0  0  0  0  0  0  0  0
    1.6261    0.8342    0.5615 H   0  0  0  0  0  0  0  0  0  0  0  0
    0.9281   -0.6604   -2.8419 H   0  0  0  0  0  0  0  0  0  0  0  0
   -1.3616   -0.9372   -3.6765 H   0  0  0  0  0  0  0  0  0  0  0  0
   -2.2590    1.9911    1.2799 H   0  0  0  0  0  0  0  0  0  0  0  0
   -2.1873    0.3043    2.0723 H   0  0  0  0  0  0  0  0  0  0  0  0
   -3.6205   -1.3521    1.3420 H   0  0  0  0  0  0  0  0  0  0  0  0
   -3.7850   -1.4953   -0.4026 H   0  0  0  0  0  0  0  0  0  0  0  0
   -6.0153   -1.2193   -0.3731 H   0  0  0  0  0  0  0  0  0  0  0  0
   -6.6006    2.3307   -1.7865 H   0  0  0  0  0  0  0  0  0  0  0  0
   -6.2408    3.5179   -0.5074 H   0  0  0  0  0  0  0  0  0  0  0  0
   -0.6542    0.6737    0.8494 H   0  0  0  0  0  0  0  0  0  0  0  0
    4.0772   -2.3662   -3.0578 H   0  0  0  0  0  0  0  0  0  0  0  0
    6.1890   -1.8653   -1.9056 H   0  0  0  0  0  0  0  0  0  0  0  0
  1  2  1  0
  2  3  1  0
  3  4  2  0
  4  5  1  0
  5  6  2  0
  6  7  1  0
  7  8  1  0
  8  9  1  0
  9 10  2  0
 10 11  1  0
 11 12  2  0
 12 13  1  0
 12 14  1  0
 14 15  1  0
 15 16  1  1
 16 17  1  0
 15 18  1  0
 18 19  1  0
 19 20  1  0
 20 21  1  0
 20 22  1  0
 20 23  1  0
 19 24  1  0
 24 25  1  0
 25 26  1  0
 25 27  2  0
 14 28  2  0
  7 29  2  0
 29 30  1  0
 30 31  2  0
 31 32  1  0
 32 33  2  0
 33  3  1  0
 32  6  1  0
 28  9  1  0
 27 15  1  0
  1 34  1  0
  1 35  1  0
  1 36  1  0
  4 37  1  0
  8 38  1  0
 10 39  1  0
 11 40  1  0
 16 41  1  0
 16 42  1  0
 18 43  1  0
 18 44  1  0
 19 45  1  6
 26 46  1  0
 26 47  1  0
 28 48  1  0
 30 49  1  0
 31 50  1  0
M  END
$$$$
