
     RDKit          3D

 27 26  0  0  0  0  0  0  0  0999 V2000
   -3.3664    0.9635   -0.5587 C   0  0  0  0  0  0  0  0  0  0  0  0
   -2.7887   -0.4306   -0.4907 C   0  0  0  0  0  0  0  0  0  0  0  0
   -1.9656   -0.6289    0.7630 C   0  0  0  0  0  0  0  0  0  0  0  0
   -0.8050    0.2953    0.8817 C   0  0  0  0  0  0  0  0  0  0  0  0
    0.1914    0.1890   -0.2352 C   0  0  0  0  0  0  0  0  0  0  0  0
    0.7682   -1.1404   -0.3405 C   0  0  0  0  0  0  0  0  0  0  0  0
    0.1981   -2.1981   -0.5223 O   0  0  0  0  0  0  0  0  0  0  0  0
    2.2101   -1.2518   -0.2145 C   0  0  0  0  0  0  0  0  0  0  0  0
    3.1201    0.2543    0.0949 P   0  0  0  0  0  0  0  0  0  0  0  0
    3.0520    1.3887   -1.1145 O   0  0  0  0  0  0  0  0  0  0  0  0
    4.7652   -0.1942    0.2462 O   0  0  0  0  0  0  0  0  0  0  0  0
    2.7378    0.8607    1.4120 O   0  0  0  0  0  0  0  0  0  0  0  0
   -3.4628    1.4312    0.4493 H   0  0  0  0  0  0  0  0  0  0  0  0
   -2.7564    1.6435   -1.1859 H   0  0  0  0  0  0  0  0  0  0  0  0
   -4.3790    0.8910   -1.0045 H   0  0  0  0  0  0  0  0  0  0  0  0
   -3.6290   -1.1550   -0.4606 H   0  0  0  0  0  0  0  0  0  0  0  0
   -2.2042   -0.6259   -1.4097 H   0  0  0  0  0  0  0  0  0  0  0  0
   -2.6701   -0.4905    1.6387 H   0  0  0  0  0  0  0  0  0  0  0  0
   -1.6158   -1.6759    0.8074 H   0  0  0  0  0  0  0  0  0  0  0  0
   -1.1099    1.3612    1.0370 H   0  0  0  0  0  0  0  0  0  0  0  0
   -0.2678    0.0115    1.8270 H   0  0  0  0  0  0  0  0  0  0  0  0
   -0.4051    0.3711   -1.1758 H   0  0  0  0  0  0  0  0  0  0  0  0
    0.9005    1.0142   -0.1861 H   0  0  0  0  0  0  0  0  0  0  0  0
    2.6433   -1.8438   -1.0497 H   0  0  0  0  0  0  0  0  0  0  0  0
    2.4037   -1.9022    0.6927 H   0  0  0  0  0  0  0  0  0  0  0  0
    3.0898    2.2846   -0.7026 H   0  0  0  0  0  0  0  0  0  0  0  0
    5.3455    0.5773    0.0050 H   0  0  0  0  0  0  0  0  0  0  0  0
  1  2  1  0
  2  3  1  0
  3  4  1  0
  4  5  1  0
  5  6  1  0
  6  7  2  0
  6  8  1  0
  8  9  1  0
  9 10  1  0
  9 11  1  0
  9 12  2  0
  1 13  1  0
  1 14  1  0
  1 15  1  0
  2 16  1  0
  2 17  1  0
  3 18  1  0
  3 19  1  0
  4 20  1  0
  4 21  1  0
  5 22  1  0
  5 23  1  0
  8 24  1  0
  8 25  1  0
 10 26  1  0
 11 27  1  0
M  END
$$$$
