
     RDKit          3D

 72 76  0  0  0  0  0  0  0  0999 V2000
   -5.5600    4.0524   -1.1664 C   0  0  0  0  0  0  0  0  0  0  0  0
   -5.2360    2.6033   -1.4465 C   0  0  0  0  0  0  0  0  0  0  0  0
   -5.5202    2.1275   -2.6635 N   0  0  0  0  0  0  0  0  0  0  0  0
   -5.2672    0.8598   -2.9968 C   0  0  0  0  0  0  0  0  0  0  0  0
   -5.5546    0.3211   -4.2733 N   0  0  0  0  0  0  0  0  0  0  0  0
   -4.6976    0.0629   -2.0251 C   0  0  0  0  0  0  0  0  0  0  0  0
   -4.3778    0.5183   -0.7237 C   0  0  0  0  0  0  0  0  0  0  0  0
   -4.6737    1.8796   -0.4339 C   0  0  0  0  0  0  0  0  0  0  0  0
   -4.4312    2.5437    0.8448 C   0  0  0  0  0  0  0  0  0  0  0  0
   -3.2664    2.0407    1.6084 N   0  0  0  0  0  0  0  0  0  0  0  0
   -1.9672    2.0650    1.1169 C   0  0  0  0  0  0  0  0  0  0  0  0
   -2.1036    2.6165   -0.0885 O   0  0  0  0  0  0  0  0  0  0  0  0
   -0.6037    1.6856    1.5118 C   0  0  0  0  0  0  0  0  0  0  0  0
    0.5250    2.3077    0.9204 C   0  0  0  0  0  0  0  0  0  0  0  0
    1.5671    1.7076    1.4387 N   0  0  0  0  0  0  0  0  0  0  0  0
    1.1946    0.7456    2.3205 N   0  0  0  0  0  0  0  0  0  0  0  0
   -0.1219    0.7172    2.3834 C   0  0  0  0  0  0  0  0  0  0  0  0
    2.2392   -0.0543    2.9822 C   0  0  0  0  0  0  0  0  0  0  0  0
    3.4054   -0.1901    2.0063 C   0  0  0  0  0  0  0  0  0  0  0  0
    4.3859    0.7633    2.1576 C   0  0  0  0  0  0  0  0  0  0  0  0
    5.4917    0.7795    1.3476 C   0  0  0  0  0  0  0  0  0  0  0  0
    5.6029   -0.1800    0.3764 C   0  0  0  0  0  0  0  0  0  0  0  0
    6.7883   -0.2022   -0.5287 C   0  0  0  0  0  0  0  0  0  0  0  0
    6.4404    0.6427   -1.6697 N   0  0  0  0  0  0  0  0  0  0  0  0
    5.8445    0.1620   -2.7591 C   0  0  0  0  0  0  0  0  0  0  0  0
    5.6677    1.2189   -3.6197 C   0  0  0  0  0  0  0  0  0  0  0  0
    6.1819    2.3213   -2.9878 C   0  0  0  0  0  0  0  0  0  0  0  0
    6.6425    1.9289   -1.8034 N   0  0  0  0  0  0  0  0  0  0  0  0
    4.6196   -1.1216    0.2387 C   0  0  0  0  0  0  0  0  0  0  0  0
    3.4631   -1.1732    1.0533 C   0  0  0  0  0  0  0  0  0  0  0  0
    2.5965   -2.1586    0.7894 O   0  0  0  0  0  0  0  0  0  0  0  0
    1.2428   -2.3943    0.6753 C   0  0  0  0  0  0  0  0  0  0  0  0
    1.0105   -3.8539    0.3004 C   0  0  0  0  0  0  0  0  0  0  0  0
   -0.4042   -4.1912    0.0975 C   0  0  0  0  0  0  0  0  0  0  0  0
   -1.2351   -4.0224    1.2833 C   0  0  0  0  0  0  0  0  0  0  0  0
   -2.3283   -3.3414    1.4541 C   0  0  0  0  0  0  0  0  0  0  0  0
   -3.0785   -2.5180    0.4815 C   0  0  0  0  0  0  0  0  0  0  0  0
   -3.1914   -1.0580    1.0085 C   0  0  0  0  0  0  0  0  0  0  0  0
   -3.8341   -0.2555    0.1899 O   0  0  0  0  0  0  0  0  0  0  0  0
   -4.6752    4.6394   -1.4330 H   0  0  0  0  0  0  0  0  0  0  0  0
   -5.9232    4.1896   -0.1487 H   0  0  0  0  0  0  0  0  0  0  0  0
   -6.3752    4.3705   -1.8557 H   0  0  0  0  0  0  0  0  0  0  0  0
   -6.5198    0.3468   -4.6281 H   0  0  0  0  0  0  0  0  0  0  0  0
   -4.8014   -0.0901   -4.8343 H   0  0  0  0  0  0  0  0  0  0  0  0
   -4.5063   -0.9794   -2.3387 H   0  0  0  0  0  0  0  0  0  0  0  0
   -4.1469    3.6392    0.6878 H   0  0  0  0  0  0  0  0  0  0  0  0
   -5.3166    2.6418    1.4961 H   0  0  0  0  0  0  0  0  0  0  0  0
   -3.5636    1.6946    2.5023 H   0  0  0  0  0  0  0  0  0  0  0  0
    0.5526    3.1265    0.1839 H   0  0  0  0  0  0  0  0  0  0  0  0
   -0.7765    0.0318    3.0579 H   0  0  0  0  0  0  0  0  0  0  0  0
    2.5842    0.4146    3.9223 H   0  0  0  0  0  0  0  0  0  0  0  0
    2.0180   -1.0898    3.2018 H   0  0  0  0  0  0  0  0  0  0  0  0
    4.3299    1.5392    2.9178 H   0  0  0  0  0  0  0  0  0  0  0  0
    6.2806    1.5258    1.4480 H   0  0  0  0  0  0  0  0  0  0  0  0
    7.6591    0.1810    0.0230 H   0  0  0  0  0  0  0  0  0  0  0  0
    7.0110   -1.2037   -0.8990 H   0  0  0  0  0  0  0  0  0  0  0  0
    5.5541   -0.8874   -2.9252 H   0  0  0  0  0  0  0  0  0  0  0  0
    5.2143    1.1775   -4.5943 H   0  0  0  0  0  0  0  0  0  0  0  0
    6.1967    3.3394   -3.4115 H   0  0  0  0  0  0  0  0  0  0  0  0
    4.7997   -1.8503   -0.5616 H   0  0  0  0  0  0  0  0  0  0  0  0
    0.7936   -1.8138   -0.1869 H   0  0  0  0  0  0  0  0  0  0  0  0
    0.6829   -2.2396    1.6019 H   0  0  0  0  0  0  0  0  0  0  0  0
    1.6526   -4.0675   -0.5987 H   0  0  0  0  0  0  0  0  0  0  0  0
    1.4043   -4.4407    1.1768 H   0  0  0  0  0  0  0  0  0  0  0  0
   -0.8107   -3.5753   -0.7680 H   0  0  0  0  0  0  0  0  0  0  0  0
   -0.4695   -5.2543   -0.3116 H   0  0  0  0  0  0  0  0  0  0  0  0
   -0.8658   -4.5701    2.1879 H   0  0  0  0  0  0  0  0  0  0  0  0
   -2.7905   -3.3607    2.4669 H   0  0  0  0  0  0  0  0  0  0  0  0
   -2.7185   -2.5498   -0.5410 H   0  0  0  0  0  0  0  0  0  0  0  0
   -4.1244   -2.8888    0.4798 H   0  0  0  0  0  0  0  0  0  0  0  0
   -3.6886   -1.1907    2.0139 H   0  0  0  0  0  0  0  0  0  0  0  0
   -2.1180   -0.7624    1.2672 H   0  0  0  0  0  0  0  0  0  0  0  0
  1  2  1  0
  2  3  2  0
  3  4  1  0
  4  5  1  0
  4  6  2  0
  6  7  1  0
  7  8  2  0
  8  9  1  0
  9 10  1  0
 10 11  1  0
 11 12  2  0
 11 13  1  0
 13 14  1  0
 14 15  2  0
 15 16  1  0
 16 17  1  0
 16 18  1  0
 18 19  1  0
 19 20  2  0
 20 21  1  0
 21 22  2  0
 22 23  1  0
 23 24  1  0
 24 25  1  0
 25 26  2  0
 26 27  1  0
 27 28  2  0
 22 29  1  0
 29 30  2  0
 30 31  1  0
 31 32  1  0
 32 33  1  0
 33 34  1  0
 34 35  1  0
 35 36  2  0
 36 37  1  0
 37 38  1  0
 38 39  1  0
  8  2  1  0
 17 13  2  0
 30 19  1  0
 39  7  1  0
 28 24  1  0
  1 40  1  0
  1 41  1  0
  1 42  1  0
  5 43  1  0
  5 44  1  0
  6 45  1  0
  9 46  1  0
  9 47  1  0
 10 48  1  0
 14 49  1  0
 17 50  1  0
 18 51  1  0
 18 52  1  0
 20 53  1  0
 21 54  1  0
 23 55  1  0
 23 56  1  0
 25 57  1  0
 26 58  1  0
 27 59  1  0
 29 60  1  0
 32 61  1  0
 32 62  1  0
 33 63  1  0
 33 64  1  0
 34 65  1  0
 34 66  1  0
 35 67  1  0
 36 68  1  0
 37 69  1  0
 37 70  1  0
 38 71  1  0
 38 72  1  0
M  END
$$$$
