
     RDKit          3D

 57 60  0  0  0  0  0  0  0  0999 V2000
    0.6137    0.9978    0.6689 C   0  0  1  0  0  0  0  0  0  0  0  0
   -0.1063    1.9397    1.3689 O   0  0  0  0  0  0  0  0  0  0  0  0
    1.9626    0.7721    1.3405 C   0  0  0  0  0  0  0  0  0  0  0  0
    2.6454   -0.2049    0.5631 N   0  0  0  0  0  0  0  0  0  0  0  0
    3.9456   -0.5892    1.0184 C   0  0  0  0  0  0  0  0  0  0  0  0
    4.8302    0.6367    1.0437 C   0  0  0  0  0  0  0  0  0  0  0  0
    4.7997    1.2310   -0.3588 C   0  0  0  0  0  0  0  0  0  0  0  0
    5.5816    0.2885   -1.2413 C   0  0  0  0  0  0  0  0  0  0  0  0
    5.7411   -1.0620   -0.6093 C   0  0  0  0  0  0  0  0  0  0  0  0
    4.4818   -1.5924    0.0060 C   0  0  0  0  0  0  0  0  0  0  0  0
   -0.1186   -0.3426    0.7389 C   0  0  0  0  0  0  0  0  0  0  0  0
   -1.4465   -0.2453    0.1635 N   0  0  0  0  0  0  0  0  0  0  0  0
   -1.8912   -0.4340   -1.0758 C   0  0  0  0  0  0  0  0  0  0  0  0
   -3.2641   -0.2150   -1.1151 C   0  0  0  0  0  0  0  0  0  0  0  0
   -4.0989   -0.3329   -2.3265 C   0  0  0  0  0  0  0  0  0  0  0  0
   -3.4085   -1.3203   -3.2534 C   0  0  0  0  0  0  0  0  0  0  0  0
   -2.0228   -0.7803   -3.5276 C   0  0  0  0  0  0  0  0  0  0  0  0
   -1.1580   -0.8123   -2.2880 C   0  0  0  0  0  0  0  0  0  0  0  0
   -3.6707    0.1231    0.1636 C   0  0  0  0  0  0  0  0  0  0  0  0
   -2.5190    0.0946    0.9298 C   0  0  0  0  0  0  0  0  0  0  0  0
   -2.6654    0.4028    2.2696 C   0  0  0  0  0  0  0  0  0  0  0  0
   -3.8454    0.7268    2.8758 C   0  0  0  0  0  0  0  0  0  0  0  0
   -4.9815    0.7497    2.0953 C   0  0  0  0  0  0  0  0  0  0  0  0
   -6.2659    1.1034    2.7587 C   0  0  0  0  0  0  0  0  0  0  0  0
   -4.8664    0.4438    0.7419 C   0  0  0  0  0  0  0  0  0  0  0  0
    0.7461    1.3127   -0.3717 H   0  0  0  0  0  0  0  0  0  0  0  0
    0.1278    1.8970    2.3285 H   0  0  0  0  0  0  0  0  0  0  0  0
    1.7626    0.4437    2.3765 H   0  0  0  0  0  0  0  0  0  0  0  0
    2.5161    1.7327    1.3129 H   0  0  0  0  0  0  0  0  0  0  0  0
    2.4721   -0.2241   -0.4395 H   0  0  0  0  0  0  0  0  0  0  0  0
    3.9078   -1.0701    2.0333 H   0  0  0  0  0  0  0  0  0  0  0  0
    5.8735    0.3771    1.3330 H   0  0  0  0  0  0  0  0  0  0  0  0
    4.4441    1.3576    1.7902 H   0  0  0  0  0  0  0  0  0  0  0  0
    3.7593    1.3276   -0.6977 H   0  0  0  0  0  0  0  0  0  0  0  0
    5.2593    2.2421   -0.3731 H   0  0  0  0  0  0  0  0  0  0  0  0
    6.6199    0.6867   -1.3845 H   0  0  0  0  0  0  0  0  0  0  0  0
    5.0712    0.2015   -2.2217 H   0  0  0  0  0  0  0  0  0  0  0  0
    6.0772   -1.7471   -1.4337 H   0  0  0  0  0  0  0  0  0  0  0  0
    6.5750   -1.1022    0.1281 H   0  0  0  0  0  0  0  0  0  0  0  0
    4.7319   -2.5631    0.4811 H   0  0  0  0  0  0  0  0  0  0  0  0
    3.7730   -1.7923   -0.8211 H   0  0  0  0  0  0  0  0  0  0  0  0
    0.5053   -1.0855    0.1630 H   0  0  0  0  0  0  0  0  0  0  0  0
   -0.1812   -0.7052    1.7726 H   0  0  0  0  0  0  0  0  0  0  0  0
   -5.1201   -0.6904   -2.0711 H   0  0  0  0  0  0  0  0  0  0  0  0
   -4.1453    0.6592   -2.8293 H   0  0  0  0  0  0  0  0  0  0  0  0
   -3.9315   -1.4049   -4.2255 H   0  0  0  0  0  0  0  0  0  0  0  0
   -3.3301   -2.2993   -2.7475 H   0  0  0  0  0  0  0  0  0  0  0  0
   -2.1114    0.2654   -3.9046 H   0  0  0  0  0  0  0  0  0  0  0  0
   -1.5714   -1.3930   -4.3354 H   0  0  0  0  0  0  0  0  0  0  0  0
   -0.2767   -0.1568   -2.4417 H   0  0  0  0  0  0  0  0  0  0  0  0
   -0.7602   -1.8452   -2.1288 H   0  0  0  0  0  0  0  0  0  0  0  0
   -1.7866    0.3951    2.9198 H   0  0  0  0  0  0  0  0  0  0  0  0
   -3.9074    0.9630    3.9418 H   0  0  0  0  0  0  0  0  0  0  0  0
   -6.2104    2.1941    2.9854 H   0  0  0  0  0  0  0  0  0  0  0  0
   -7.0847    0.8644    2.0746 H   0  0  0  0  0  0  0  0  0  0  0  0
   -6.3094    0.5360    3.6967 H   0  0  0  0  0  0  0  0  0  0  0  0
   -5.7681    0.4653    0.1386 H   0  0  0  0  0  0  0  0  0  0  0  0
  1  2  1  0
  1  3  1  0
  3  4  1  0
  4  5  1  0
  5  6  1  0
  6  7  1  0
  7  8  1  0
  8  9  1  0
  9 10  1  0
  1 11  1  0
 11 12  1  0
 12 13  1  0
 13 14  2  0
 14 15  1  0
 15 16  1  0
 16 17  1  0
 17 18  1  0
 14 19  1  0
 19 20  2  0
 20 21  1  0
 21 22  2  0
 22 23  1  0
 23 24  1  0
 23 25  2  0
 10  5  1  0
 20 12  1  0
 18 13  1  0
 25 19  1  0
  1 26  1  6
  2 27  1  0
  3 28  1  0
  3 29  1  0
  4 30  1  0
  5 31  1  0
  6 32  1  0
  6 33  1  0
  7 34  1  0
  7 35  1  0
  8 36  1  0
  8 37  1  0
  9 38  1  0
  9 39  1  0
 10 40  1  0
 10 41  1  0
 11 42  1  0
 11 43  1  0
 15 44  1  0
 15 45  1  0
 16 46  1  0
 16 47  1  0
 17 48  1  0
 17 49  1  0
 18 50  1  0
 18 51  1  0
 21 52  1  0
 22 53  1  0
 24 54  1  0
 24 55  1  0
 24 56  1  0
 25 57  1  0
M  END
$$$$
