
     RDKit          3D

 45 48  0  0  0  0  0  0  0  0999 V2000
   -3.8914    1.9590    1.2034 C   0  0  0  0  0  0  0  0  0  0  0  0
   -3.2789    0.8305    0.4041 C   0  0  1  0  0  0  0  0  0  0  0  0
   -2.6817   -0.1422    1.1912 O   0  0  0  0  0  0  0  0  0  0  0  0
   -1.3828   -0.5525    1.2213 C   0  0  0  0  0  0  0  0  0  0  0  0
   -1.0583   -1.5656    2.1270 C   0  0  0  0  0  0  0  0  0  0  0  0
    0.2323   -2.0464    2.2290 C   0  0  0  0  0  0  0  0  0  0  0  0
    1.2470   -1.5470    1.4438 C   0  0  0  0  0  0  0  0  0  0  0  0
    2.5240   -2.0193    1.5413 N   0  0  0  0  0  0  0  0  0  0  0  0
    3.5138   -1.5101    0.7537 C   0  0  0  0  0  0  0  0  0  0  0  0
    3.2498   -0.5099   -0.1566 C   0  0  0  0  0  0  0  0  0  0  0  0
    4.2723    0.0729   -1.0263 C   0  0  0  0  0  0  0  0  0  0  0  0
    5.4925   -0.6681   -1.4168 C   0  0  0  0  0  0  0  0  0  0  0  0
    5.6168    0.2844   -0.3070 C   0  0  0  0  0  0  0  0  0  0  0  0
    6.1553    1.6361   -0.4654 C   0  0  0  0  0  0  0  0  0  0  0  0
    6.7970    2.3241    0.5862 N   0  0  0  0  0  0  0  0  0  0  0  0
    6.0201    2.1807   -1.6141 O   0  0  0  0  0  0  0  0  0  0  0  0
    1.9562   -0.0492   -0.2379 C   0  0  0  0  0  0  0  0  0  0  0  0
    0.9413   -0.5548    0.5535 C   0  0  0  0  0  0  0  0  0  0  0  0
   -0.3534   -0.0663    0.4450 C   0  0  0  0  0  0  0  0  0  0  0  0
   -4.3420    0.2359   -0.4748 C   0  0  0  0  0  0  0  0  0  0  0  0
   -4.5714    0.7067   -1.7511 C   0  0  0  0  0  0  0  0  0  0  0  0
   -3.5839    2.0251   -2.3241 Cl  0  0  0  0  0  0  0  0  0  0  0  0
   -5.5450    0.1707   -2.5714 C   0  0  0  0  0  0  0  0  0  0  0  0
   -6.3306   -0.8718   -2.1268 C   0  0  0  0  0  0  0  0  0  0  0  0
   -6.1113   -1.3512   -0.8538 C   0  0  0  0  0  0  0  0  0  0  0  0
   -6.8910   -2.3803   -0.4226 F   0  0  0  0  0  0  0  0  0  0  0  0
   -5.1305   -0.8071   -0.0347 C   0  0  0  0  0  0  0  0  0  0  0  0
   -4.8994   -1.4535    1.5630 Cl  0  0  0  0  0  0  0  0  0  0  0  0
   -4.6870    2.4371    0.5906 H   0  0  0  0  0  0  0  0  0  0  0  0
   -4.3398    1.6178    2.1498 H   0  0  0  0  0  0  0  0  0  0  0  0
   -3.0950    2.7035    1.4431 H   0  0  0  0  0  0  0  0  0  0  0  0
   -2.5247    1.2876   -0.2641 H   0  0  0  0  0  0  0  0  0  0  0  0
   -1.8284   -1.9932    2.7707 H   0  0  0  0  0  0  0  0  0  0  0  0
    0.4602   -2.8294    2.9354 H   0  0  0  0  0  0  0  0  0  0  0  0
    4.4990   -1.9191    0.8729 H   0  0  0  0  0  0  0  0  0  0  0  0
    3.9278    0.8659   -1.7090 H   0  0  0  0  0  0  0  0  0  0  0  0
    5.5963   -1.7614   -1.1993 H   0  0  0  0  0  0  0  0  0  0  0  0
    5.9601   -0.3825   -2.3804 H   0  0  0  0  0  0  0  0  0  0  0  0
    5.7518   -0.1531    0.6970 H   0  0  0  0  0  0  0  0  0  0  0  0
    6.4540    2.1705    1.5586 H   0  0  0  0  0  0  0  0  0  0  0  0
    7.5875    2.9576    0.3473 H   0  0  0  0  0  0  0  0  0  0  0  0
    1.6882    0.7311   -0.9302 H   0  0  0  0  0  0  0  0  0  0  0  0
   -0.5821    0.7126   -0.2572 H   0  0  0  0  0  0  0  0  0  0  0  0
   -5.7311    0.5346   -3.5741 H   0  0  0  0  0  0  0  0  0  0  0  0
   -7.1037   -1.3109   -2.7537 H   0  0  0  0  0  0  0  0  0  0  0  0
  1  2  1  0
  2  3  1  0
  3  4  1  0
  4  5  2  0
  5  6  1  0
  6  7  2  0
  7  8  1  0
  8  9  2  0
  9 10  1  0
 10 11  1  0
 11 12  1  0
 12 13  1  0
 13 14  1  0
 14 15  1  0
 14 16  2  0
 10 17  2  0
 17 18  1  0
 18 19  2  0
  2 20  1  0
 20 21  2  0
 21 22  1  0
 21 23  1  0
 23 24  2  0
 24 25  1  0
 25 26  1  0
 25 27  2  0
 27 28  1  0
 19  4  1  0
 27 20  1  0
 18  7  1  0
 13 11  1  0
  1 29  1  0
  1 30  1  0
  1 31  1  0
  2 32  1  6
  5 33  1  0
  6 34  1  0
  9 35  1  0
 11 36  1  0
 12 37  1  0
 12 38  1  0
 13 39  1  0
 15 40  1  0
 15 41  1  0
 17 42  1  0
 19 43  1  0
 23 44  1  0
 24 45  1  0
M  END
$$$$
