
     RDKit          3D

 46 49  0  0  0  0  0  0  0  0999 V2000
    5.9714    1.9583   -0.2394 C   0  0  0  0  0  0  0  0  0  0  0  0
    6.4038    0.5399   -0.5141 C   0  0  0  0  0  0  0  0  0  0  0  0
    5.8856   -0.3614    0.5978 C   0  0  0  0  0  0  0  0  0  0  0  0
    4.3807   -0.3315    0.6935 C   0  0  0  0  0  0  0  0  0  0  0  0
    3.7151   -0.7927   -0.5852 C   0  0  0  0  0  0  0  0  0  0  0  0
    2.2447   -0.7225   -0.3775 C   0  0  0  0  0  0  0  0  0  0  0  0
    1.5386    0.4236   -0.6784 C   0  0  0  0  0  0  0  0  0  0  0  0
    0.1713    0.4851   -0.4836 C   0  0  0  0  0  0  0  0  0  0  0  0
   -0.4491   -0.6466    0.0225 C   0  0  0  0  0  0  0  0  0  0  0  0
    0.2321   -1.8017    0.3305 C   0  0  0  0  0  0  0  0  0  0  0  0
    1.6149   -1.8405    0.1252 C   0  0  0  0  0  0  0  0  0  0  0  0
   -0.4068   -2.8893    0.8237 N   0  0  0  0  0  0  0  0  0  0  0  0
   -1.7421   -2.8106    1.0072 C   0  0  0  0  0  0  0  0  0  0  0  0
   -2.3176   -3.8285    1.4651 O   0  0  0  0  0  0  0  0  0  0  0  0
   -2.4582   -1.6712    0.7103 C   0  0  0  0  0  0  0  0  0  0  0  0
   -3.7688   -1.3221    0.7924 N   0  0  0  0  0  0  0  0  0  0  0  0
   -3.9686   -0.0754    0.3751 C   0  0  0  0  0  0  0  0  0  0  0  0
   -5.2030    0.7089    0.2884 C   0  0  0  0  0  0  0  0  0  0  0  0
   -5.1187    2.0135   -0.1951 C   0  0  0  0  0  0  0  0  0  0  0  0
   -6.2194    2.8281   -0.3140 C   0  0  0  0  0  0  0  0  0  0  0  0
   -7.4468    2.3435    0.0554 C   0  0  0  0  0  0  0  0  0  0  0  0
   -7.5865    1.0689    0.5369 C   0  0  0  0  0  0  0  0  0  0  0  0
   -6.4474    0.2809    0.6400 C   0  0  0  0  0  0  0  0  0  0  0  0
   -6.6948   -1.3383    1.2628 Cl  0  0  0  0  0  0  0  0  0  0  0  0
   -2.7345    0.4017    0.0074 N   0  0  0  0  0  0  0  0  0  0  0  0
   -1.8279   -0.5603    0.2101 C   0  0  0  0  0  0  0  0  0  0  0  0
    6.8358    2.6578   -0.4163 H   0  0  0  0  0  0  0  0  0  0  0  0
    5.1281    2.2514   -0.9025 H   0  0  0  0  0  0  0  0  0  0  0  0
    5.6953    2.0411    0.8158 H   0  0  0  0  0  0  0  0  0  0  0  0
    6.0354    0.1985   -1.4919 H   0  0  0  0  0  0  0  0  0  0  0  0
    7.5170    0.4403   -0.4876 H   0  0  0  0  0  0  0  0  0  0  0  0
    6.2164   -1.3994    0.4656 H   0  0  0  0  0  0  0  0  0  0  0  0
    6.2748   -0.0049    1.5738 H   0  0  0  0  0  0  0  0  0  0  0  0
    4.0850    0.7079    0.9393 H   0  0  0  0  0  0  0  0  0  0  0  0
    4.1003   -0.9915    1.5341 H   0  0  0  0  0  0  0  0  0  0  0  0
    4.0128   -1.8516   -0.7337 H   0  0  0  0  0  0  0  0  0  0  0  0
    4.0439   -0.2380   -1.4626 H   0  0  0  0  0  0  0  0  0  0  0  0
    2.0467    1.2999   -1.0746 H   0  0  0  0  0  0  0  0  0  0  0  0
   -0.4131    1.3641   -0.7075 H   0  0  0  0  0  0  0  0  0  0  0  0
    2.1338   -2.7489    0.3701 H   0  0  0  0  0  0  0  0  0  0  0  0
    0.1470   -3.7516    1.0465 H   0  0  0  0  0  0  0  0  0  0  0  0
   -4.4643   -2.0004    1.1471 H   0  0  0  0  0  0  0  0  0  0  0  0
   -4.1483    2.3937   -0.4861 H   0  0  0  0  0  0  0  0  0  0  0  0
   -6.1486    3.8440   -0.6913 H   0  0  0  0  0  0  0  0  0  0  0  0
   -8.3036    3.0203   -0.0525 H   0  0  0  0  0  0  0  0  0  0  0  0
   -8.5624    0.7076    0.8219 H   0  0  0  0  0  0  0  0  0  0  0  0
  1  2  1  0
  2  3  1  0
  3  4  1  0
  4  5  1  0
  5  6  1  0
  6  7  2  0
  7  8  1  0
  8  9  2  0
  9 10  1  0
 10 11  2  0
 10 12  1  0
 12 13  1  0
 13 14  2  0
 13 15  1  0
 15 16  1  0
 16 17  1  0
 17 18  1  0
 18 19  2  0
 19 20  1  0
 20 21  2  0
 21 22  1  0
 22 23  2  0
 23 24  1  0
 17 25  2  0
 25 26  1  0
 11  6  1  0
 26 15  2  0
 26  9  1  0
 23 18  1  0
  1 27  1  0
  1 28  1  0
  1 29  1  0
  2 30  1  0
  2 31  1  0
  3 32  1  0
  3 33  1  0
  4 34  1  0
  4 35  1  0
  5 36  1  0
  5 37  1  0
  7 38  1  0
  8 39  1  0
 11 40  1  0
 12 41  1  0
 16 42  1  0
 19 43  1  0
 20 44  1  0
 21 45  1  0
 22 46  1  0
M  END
$$$$
