
     RDKit          3D

 56 59  0  0  0  0  0  0  0  0999 V2000
   -4.5589   -1.5988   -2.0228 C   0  0  0  0  0  0  0  0  0  0  0  0
   -4.0358   -1.0632   -0.8429 O   0  0  0  0  0  0  0  0  0  0  0  0
   -4.8841   -0.6609    0.1774 C   0  0  0  0  0  0  0  0  0  0  0  0
   -6.2569   -0.7195    0.1994 C   0  0  0  0  0  0  0  0  0  0  0  0
   -7.0367   -0.2970    1.2512 C   0  0  0  0  0  0  0  0  0  0  0  0
   -6.4483    0.2207    2.3666 C   0  0  0  0  0  0  0  0  0  0  0  0
   -5.0786    0.3167    2.4290 C   0  0  0  0  0  0  0  0  0  0  0  0
   -4.3327   -0.1167    1.3542 C   0  0  0  0  0  0  0  0  0  0  0  0
   -2.9433   -0.0393    1.3592 O   0  0  0  0  0  0  0  0  0  0  0  0
   -2.2369    0.4910    2.4353 C   0  0  0  0  0  0  0  0  0  0  0  0
   -0.7582    0.5366    2.2893 C   0  0  0  0  0  0  0  0  0  0  0  0
   -0.3180    1.3207    1.1700 N   0  0  0  0  0  0  0  0  0  0  0  0
   -0.5441    0.6594   -0.0648 C   0  0  0  0  0  0  0  0  0  0  0  0
   -0.1663    1.4770   -1.2945 C   0  0  0  0  0  0  0  0  0  0  0  0
   -0.9999    2.6120   -1.3155 O   0  0  0  0  0  0  0  0  0  0  0  0
    1.2464    2.0314   -1.1392 C   0  0  0  0  0  0  0  0  0  0  0  0
    2.2358    1.1007   -1.0450 O   0  0  0  0  0  0  0  0  0  0  0  0
    2.6452    0.1396   -1.8675 C   0  0  0  0  0  0  0  0  0  0  0  0
    2.2897   -0.3306   -3.1074 C   0  0  0  0  0  0  0  0  0  0  0  0
    2.8793   -1.3765   -3.7789 C   0  0  0  0  0  0  0  0  0  0  0  0
    3.9266   -2.0069   -3.1383 C   0  0  0  0  0  0  0  0  0  0  0  0
    4.3669   -1.6079   -1.8780 C   0  0  0  0  0  0  0  0  0  0  0  0
    3.7179   -0.5323   -1.2511 C   0  0  0  0  0  0  0  0  0  0  0  0
    4.4506   -0.4630   -0.0481 C   0  0  0  0  0  0  0  0  0  0  0  0
    4.2603    0.4304    0.9921 C   0  0  0  0  0  0  0  0  0  0  0  0
    5.0606    0.3913    2.1309 C   0  0  0  0  0  0  0  0  0  0  0  0
    6.0719   -0.5681    2.2202 C   0  0  0  0  0  0  0  0  0  0  0  0
    6.2087   -1.4382    1.1350 C   0  0  0  0  0  0  0  0  0  0  0  0
    5.4360   -1.4219    0.0046 C   0  0  0  0  0  0  0  0  0  0  0  0
    5.3666   -2.1205   -1.1387 N   0  0  0  0  0  0  0  0  0  0  0  0
   -4.8532   -2.6521   -1.8116 H   0  0  0  0  0  0  0  0  0  0  0  0
   -5.4594   -1.0011   -2.3221 H   0  0  0  0  0  0  0  0  0  0  0  0
   -3.7886   -1.5766   -2.8345 H   0  0  0  0  0  0  0  0  0  0  0  0
   -6.7158   -1.1355   -0.7011 H   0  0  0  0  0  0  0  0  0  0  0  0
   -8.1117   -0.3748    1.1963 H   0  0  0  0  0  0  0  0  0  0  0  0
   -6.9809    0.5785    3.2419 H   0  0  0  0  0  0  0  0  0  0  0  0
   -4.4976    0.7174    3.2699 H   0  0  0  0  0  0  0  0  0  0  0  0
   -2.6459    1.5530    2.5575 H   0  0  0  0  0  0  0  0  0  0  0  0
   -2.5549    0.0235    3.4153 H   0  0  0  0  0  0  0  0  0  0  0  0
   -0.3703   -0.5273    2.1986 H   0  0  0  0  0  0  0  0  0  0  0  0
   -0.2476    0.8921    3.2305 H   0  0  0  0  0  0  0  0  0  0  0  0
    0.7353    1.4892    1.2580 H   0  0  0  0  0  0  0  0  0  0  0  0
   -1.6005    0.3864   -0.2353 H   0  0  0  0  0  0  0  0  0  0  0  0
    0.0120   -0.3334   -0.0941 H   0  0  0  0  0  0  0  0  0  0  0  0
   -0.3109    0.8569   -2.1688 H   0  0  0  0  0  0  0  0  0  0  0  0
   -1.2243    2.9252   -0.3846 H   0  0  0  0  0  0  0  0  0  0  0  0
    1.3850    2.7374   -2.0186 H   0  0  0  0  0  0  0  0  0  0  0  0
    1.2389    2.7431   -0.2338 H   0  0  0  0  0  0  0  0  0  0  0  0
    1.4807    0.2083   -3.5354 H   0  0  0  0  0  0  0  0  0  0  0  0
    2.5049   -1.6421   -4.7430 H   0  0  0  0  0  0  0  0  0  0  0  0
    4.3633   -2.8248   -3.6956 H   0  0  0  0  0  0  0  0  0  0  0  0
    3.4923    1.1897    0.9703 H   0  0  0  0  0  0  0  0  0  0  0  0
    4.8935    1.1118    2.9451 H   0  0  0  0  0  0  0  0  0  0  0  0
    6.7160   -0.6269    3.0882 H   0  0  0  0  0  0  0  0  0  0  0  0
    6.9979   -2.1802    1.2193 H   0  0  0  0  0  0  0  0  0  0  0  0
    5.9781   -2.9124   -1.3942 H   0  0  0  0  0  0  0  0  0  0  0  0
  1  2  1  0
  2  3  1  0
  3  4  2  0
  4  5  1  0
  5  6  2  0
  6  7  1  0
  7  8  2  0
  8  9  1  0
  9 10  1  0
 10 11  1  0
 11 12  1  0
 12 13  1  0
 13 14  1  0
 14 15  1  0
 14 16  1  0
 16 17  1  0
 17 18  1  0
 18 19  2  0
 19 20  1  0
 20 21  2  0
 21 22  1  0
 22 23  2  0
 23 24  1  0
 24 25  2  0
 25 26  1  0
 26 27  2  0
 27 28  1  0
 28 29  2  0
 29 30  1  0
  8  3  1  0
 23 18  1  0
 29 24  1  0
 30 22  1  0
  1 31  1  0
  1 32  1  0
  1 33  1  0
  4 34  1  0
  5 35  1  0
  6 36  1  0
  7 37  1  0
 10 38  1  0
 10 39  1  0
 11 40  1  0
 11 41  1  0
 12 42  1  0
 13 43  1  0
 13 44  1  0
 14 45  1  0
 15 46  1  0
 16 47  1  0
 16 48  1  0
 19 49  1  0
 20 50  1  0
 21 51  1  0
 25 52  1  0
 26 53  1  0
 27 54  1  0
 28 55  1  0
 30 56  1  0
M  END
$$$$
