
     RDKit          3D

 68 71  0  0  0  0  0  0  0  0999 V2000
    5.7698    1.4562   -0.2281 N   0  0  0  0  0  0  0  0  0  0  0  0
    6.5213    0.6586    0.6699 C   0  0  0  0  0  0  0  0  0  0  0  0
    7.9165    0.4627    0.5052 N   0  0  0  0  0  0  0  0  0  0  0  0
    5.9655    0.0739    1.6793 N   0  0  0  0  0  0  0  0  0  0  0  0
    4.5702    0.1828    1.9668 C   0  0  0  0  0  0  0  0  0  0  0  0
    3.9202    1.4006    1.9862 C   0  0  0  0  0  0  0  0  0  0  0  0
    2.5709    1.4865    2.2655 C   0  0  0  0  0  0  0  0  0  0  0  0
    1.8135    0.3464    2.5385 C   0  0  0  0  0  0  0  0  0  0  0  0
    0.3952    0.5238    2.8259 C   0  0  0  0  0  0  0  0  0  0  0  0
   -0.5109    0.4926    1.6326 C   0  0  0  0  0  0  0  0  0  0  0  0
   -1.8719    0.6707    1.9819 N   0  0  0  0  0  0  0  0  0  0  0  0
   -2.6812    1.9968    1.4051 S   0  0  0  0  0  6  0  0  0  0  0  0
   -4.1009    1.9895    1.9025 O   0  0  0  0  0  0  0  0  0  0  0  0
   -2.0747    3.2990    1.9001 O   0  0  0  0  0  0  0  0  0  0  0  0
   -2.7836    2.0580   -0.3882 C   0  0  0  0  0  0  0  0  0  0  0  0
   -3.5255    3.2808   -0.8159 C   0  0  0  0  0  0  0  0  0  0  0  0
   -4.8938    3.3038   -0.9918 C   0  0  0  0  0  0  0  0  0  0  0  0
   -5.5650    4.4238   -1.3827 C   0  0  0  0  0  0  0  0  0  0  0  0
   -4.8279    5.5736   -1.6074 C   0  0  0  0  0  0  0  0  0  0  0  0
   -3.4721    5.5872   -1.4431 C   0  0  0  0  0  0  0  0  0  0  0  0
   -2.7956    4.4491   -1.0465 C   0  0  0  0  0  0  0  0  0  0  0  0
   -0.3060   -1.1029    0.7949 P   0  0  0  0  0  5  0  0  0  0  0  0
   -0.5696   -2.2517    1.7285 O   0  0  0  0  0  0  0  0  0  0  0  0
   -1.4656   -1.1721   -0.4615 O   0  0  0  0  0  0  0  0  0  0  0  0
   -2.4178   -2.1622   -0.5817 C   0  0  0  0  0  0  0  0  0  0  0  0
   -2.7269   -2.6747   -1.8267 C   0  0  0  0  0  0  0  0  0  0  0  0
   -3.6754   -3.6693   -1.9997 C   0  0  0  0  0  0  0  0  0  0  0  0
   -4.3549   -4.1889   -0.9053 C   0  0  0  0  0  0  0  0  0  0  0  0
   -4.0471   -3.6761    0.3490 C   0  0  0  0  0  0  0  0  0  0  0  0
   -3.0990   -2.6869    0.4905 C   0  0  0  0  0  0  0  0  0  0  0  0
    1.2298   -1.1607    0.0782 O   0  0  0  0  0  0  0  0  0  0  0  0
    1.5998   -2.0833   -0.8929 C   0  0  0  0  0  0  0  0  0  0  0  0
    0.9535   -2.1293   -2.1104 C   0  0  0  0  0  0  0  0  0  0  0  0
    1.3060   -3.0376   -3.0870 C   0  0  0  0  0  0  0  0  0  0  0  0
    2.3284   -3.9461   -2.8855 C   0  0  0  0  0  0  0  0  0  0  0  0
    2.9721   -3.8939   -1.6616 C   0  0  0  0  0  0  0  0  0  0  0  0
    2.6206   -2.9863   -0.6845 C   0  0  0  0  0  0  0  0  0  0  0  0
    2.4921   -0.8520    2.5112 C   0  0  0  0  0  0  0  0  0  0  0  0
    3.8416   -0.9381    2.2319 C   0  0  0  0  0  0  0  0  0  0  0  0
    5.0946    0.9934   -0.8704 H   0  0  0  0  0  0  0  0  0  0  0  0
    5.8404    2.4930   -0.2985 H   0  0  0  0  0  0  0  0  0  0  0  0
    8.3218   -0.4769    0.6815 H   0  0  0  0  0  0  0  0  0  0  0  0
    8.5486    1.2333    0.2122 H   0  0  0  0  0  0  0  0  0  0  0  0
    4.5209    2.2846    1.7715 H   0  0  0  0  0  0  0  0  0  0  0  0
    2.0970    2.4589    2.2716 H   0  0  0  0  0  0  0  0  0  0  0  0
    0.2523    1.5036    3.3266 H   0  0  0  0  0  0  0  0  0  0  0  0
    0.0996   -0.2439    3.5856 H   0  0  0  0  0  0  0  0  0  0  0  0
   -0.2011    1.3350    0.9800 H   0  0  0  0  0  0  0  0  0  0  0  0
   -2.3815   -0.1284    2.3341 H   0  0  0  0  0  0  0  0  0  0  0  0
   -1.7786    2.1197   -0.8256 H   0  0  0  0  0  0  0  0  0  0  0  0
   -3.3727    1.1926   -0.7405 H   0  0  0  0  0  0  0  0  0  0  0  0
   -5.4333    2.3747   -0.8032 H   0  0  0  0  0  0  0  0  0  0  0  0
   -6.6237    4.3874   -1.5041 H   0  0  0  0  0  0  0  0  0  0  0  0
   -5.3798    6.4662   -1.9215 H   0  0  0  0  0  0  0  0  0  0  0  0
   -2.9253    6.5209   -1.6321 H   0  0  0  0  0  0  0  0  0  0  0  0
   -1.7247    4.4606   -0.9169 H   0  0  0  0  0  0  0  0  0  0  0  0
   -2.2328   -2.3143   -2.7323 H   0  0  0  0  0  0  0  0  0  0  0  0
   -3.8881   -4.0447   -2.9997 H   0  0  0  0  0  0  0  0  0  0  0  0
   -5.0922   -4.9619   -1.0375 H   0  0  0  0  0  0  0  0  0  0  0  0
   -4.5905   -4.0977    1.1850 H   0  0  0  0  0  0  0  0  0  0  0  0
   -2.8937   -2.3204    1.4816 H   0  0  0  0  0  0  0  0  0  0  0  0
    0.1508   -1.4129   -2.2637 H   0  0  0  0  0  0  0  0  0  0  0  0
    0.7910   -3.0707   -4.0512 H   0  0  0  0  0  0  0  0  0  0  0  0
    2.5982   -4.6556   -3.6586 H   0  0  0  0  0  0  0  0  0  0  0  0
    3.7778   -4.6071   -1.4979 H   0  0  0  0  0  0  0  0  0  0  0  0
    3.1357   -2.9558    0.2755 H   0  0  0  0  0  0  0  0  0  0  0  0
    1.9424   -1.7422    2.7161 H   0  0  0  0  0  0  0  0  0  0  0  0
    4.3251   -1.8954    2.2223 H   0  0  0  0  0  0  0  0  0  0  0  0
  1  2  1  0
  2  3  1  0
  2  4  2  3
  4  5  1  0
  5  6  2  0
  6  7  1  0
  7  8  2  0
  8  9  1  0
  9 10  1  0
 10 11  1  0
 11 12  1  0
 12 13  2  0
 12 14  2  0
 12 15  1  0
 15 16  1  0
 16 17  2  0
 17 18  1  0
 18 19  2  0
 19 20  1  0
 20 21  2  0
 10 22  1  0
 22 23  2  0
 22 24  1  0
 24 25  1  0
 25 26  2  0
 26 27  1  0
 27 28  2  0
 28 29  1  0
 29 30  2  0
 22 31  1  0
 31 32  1  0
 32 33  2  0
 33 34  1  0
 34 35  2  0
 35 36  1  0
 36 37  2  0
  8 38  1  0
 38 39  2  0
 39  5  1  0
 21 16  1  0
 30 25  1  0
 37 32  1  0
  1 40  1  0
  1 41  1  0
  3 42  1  0
  3 43  1  0
  6 44  1  0
  7 45  1  0
  9 46  1  0
  9 47  1  0
 10 48  1  0
 11 49  1  0
 15 50  1  0
 15 51  1  0
 17 52  1  0
 18 53  1  0
 19 54  1  0
 20 55  1  0
 21 56  1  0
 26 57  1  0
 27 58  1  0
 28 59  1  0
 29 60  1  0
 30 61  1  0
 33 62  1  0
 34 63  1  0
 35 64  1  0
 36 65  1  0
 37 66  1  0
 38 67  1  0
 39 68  1  0
M  END
$$$$
