
     RDKit          3D

 35 37  0  0  0  0  0  0  0  0999 V2000
    7.6560    0.8113    0.7374 C   0  0  0  0  0  0  0  0  0  0  0  0
    6.4275    0.4999    1.4136 O   0  0  0  0  0  0  0  0  0  0  0  0
    5.2692    0.5404    0.6479 C   0  0  0  0  0  0  0  0  0  0  0  0
    5.2387    0.8313   -0.5964 O   0  0  0  0  0  0  0  0  0  0  0  0
    4.0408    0.2232    1.3316 N   0  0  0  0  0  0  0  0  0  0  0  0
    2.8231    0.2007    0.5919 C   0  0  0  0  0  0  0  0  0  0  0  0
    2.6226    0.4180   -0.7027 N   0  0  0  0  0  0  0  0  0  0  0  0
    1.3417    0.2644   -1.0254 C   0  0  0  0  0  0  0  0  0  0  0  0
    0.6394   -0.0783    0.1422 C   0  0  0  0  0  0  0  0  0  0  0  0
    1.6125   -0.0972    1.0844 N   0  0  0  0  0  0  0  0  0  0  0  0
   -0.7155   -0.3119    0.0290 C   0  0  0  0  0  0  0  0  0  0  0  0
   -1.4005   -0.2205   -1.1956 C   0  0  0  0  0  0  0  0  0  0  0  0
   -0.6828    0.1171   -2.3255 C   0  0  0  0  0  0  0  0  0  0  0  0
    0.6660    0.3510   -2.2087 C   0  0  0  0  0  0  0  0  0  0  0  0
   -2.8167   -0.5085   -1.1728 C   0  0  0  0  0  0  0  0  0  0  0  0
   -3.1234   -0.9623   -2.3332 O   0  0  0  0  0  0  0  0  0  0  0  0
   -3.9496   -0.4548   -0.3129 C   0  0  0  0  0  0  0  0  0  0  0  0
   -4.0530    0.4891    0.7281 C   0  0  0  0  0  0  0  0  0  0  0  0
   -5.1166    0.5503    1.5808 C   0  0  0  0  0  0  0  0  0  0  0  0
   -6.1297   -0.3917    1.3694 C   0  0  0  0  0  0  0  0  0  0  0  0
   -6.0742   -1.3432    0.3573 C   0  0  0  0  0  0  0  0  0  0  0  0
   -4.9828   -1.3916   -0.5019 C   0  0  0  0  0  0  0  0  0  0  0  0
    8.4164    0.0749    1.0210 H   0  0  0  0  0  0  0  0  0  0  0  0
    7.9885    1.8304    1.0114 H   0  0  0  0  0  0  0  0  0  0  0  0
    7.5191    0.8245   -0.3732 H   0  0  0  0  0  0  0  0  0  0  0  0
    4.0710    0.0001    2.3252 H   0  0  0  0  0  0  0  0  0  0  0  0
    1.3969   -0.3225    2.0798 H   0  0  0  0  0  0  0  0  0  0  0  0
   -1.1764   -0.5626    0.9865 H   0  0  0  0  0  0  0  0  0  0  0  0
   -1.2551    0.1823   -3.2648 H   0  0  0  0  0  0  0  0  0  0  0  0
    1.1772    0.6074   -3.1331 H   0  0  0  0  0  0  0  0  0  0  0  0
   -3.2644    1.2147    0.8764 H   0  0  0  0  0  0  0  0  0  0  0  0
   -5.2415    1.2743    2.3927 H   0  0  0  0  0  0  0  0  0  0  0  0
   -7.0363   -0.4500    1.9825 H   0  0  0  0  0  0  0  0  0  0  0  0
   -6.8870   -2.0610    0.2235 H   0  0  0  0  0  0  0  0  0  0  0  0
   -5.0011   -2.1492   -1.2504 H   0  0  0  0  0  0  0  0  0  0  0  0
  1  2  1  0
  2  3  1  0
  3  4  2  0
  3  5  1  0
  5  6  1  0
  6  7  2  0
  7  8  1  0
  8  9  2  0
  9 10  1  0
  9 11  1  0
 11 12  2  0
 12 13  1  0
 13 14  2  0
 12 15  1  0
 15 16  2  0
 15 17  1  0
 17 18  2  0
 18 19  1  0
 19 20  2  0
 20 21  1  0
 21 22  2  0
 10  6  1  0
 22 17  1  0
 14  8  1  0
  1 23  1  0
  1 24  1  0
  1 25  1  0
  5 26  1  0
 10 27  1  0
 11 28  1  0
 13 29  1  0
 14 30  1  0
 18 31  1  0
 19 32  1  0
 20 33  1  0
 21 34  1  0
 22 35  1  0
M  END
$$$$
