
     RDKit          3D

 52 54  0  0  0  0  0  0  0  0999 V2000
    9.5296   -0.1946   -0.6868 C   0  0  0  0  0  0  0  0  0  0  0  0
    8.5599    0.8658   -0.7654 O   0  0  0  0  0  0  0  0  0  0  0  0
    7.2605    0.6233   -0.3013 C   0  0  0  0  0  0  0  0  0  0  0  0
    6.3110    1.5915   -0.3541 C   0  0  0  0  0  0  0  0  0  0  0  0
    5.0622    1.3516    0.0945 N   0  0  0  0  0  0  0  0  0  0  0  0
    4.7074    0.1561    0.6073 C   0  0  0  0  0  0  0  0  0  0  0  0
    3.3527   -0.0692    1.0834 C   0  0  0  0  0  0  0  0  0  0  0  0
    3.0433   -1.2060    1.5612 O   0  0  0  0  0  0  0  0  0  0  0  0
    2.3307    0.9021    1.0547 N   0  0  0  0  0  0  0  0  0  0  0  0
    1.0037    0.6861    1.5194 C   0  0  0  0  0  0  0  0  0  0  0  0
    0.6936    0.9459    2.8386 C   0  0  0  0  0  0  0  0  0  0  0  0
   -0.5582    0.7688    3.3822 C   0  0  0  0  0  0  0  0  0  0  0  0
   -1.5667    0.3003    2.5501 C   0  0  0  0  0  0  0  0  0  0  0  0
   -2.8176    0.1245    3.0967 F   0  0  0  0  0  0  0  0  0  0  0  0
   -1.2959    0.0290    1.2255 C   0  0  0  0  0  0  0  0  0  0  0  0
   -2.4033   -0.4697    0.3856 C   0  0  2  0  0  0  0  0  0  0  0  0
   -2.9365   -1.7238    1.0677 C   0  0  0  0  0  0  0  0  0  0  0  0
   -1.9457   -0.8567   -1.0066 C   0  0  0  0  0  0  0  0  0  0  0  0
   -3.3721   -1.2836   -2.0077 S   0  0  0  0  0  6  0  0  0  0  0  0
   -2.9929   -1.3000   -3.4532 O   0  0  0  0  0  0  0  0  0  0  0  0
   -3.8200   -2.6762   -1.6457 O   0  0  0  0  0  0  0  0  0  0  0  0
   -4.6358   -0.1362   -1.6222 C   0  0  0  0  0  0  0  0  0  0  0  0
   -4.8569    0.8589   -2.7764 C   0  0  0  0  0  0  0  0  0  0  0  0
   -5.9534   -0.8990   -1.4335 C   0  0  0  0  0  0  0  0  0  0  0  0
   -4.4052    0.6704   -0.4301 C   0  0  0  0  0  0  0  0  0  0  0  0
   -5.3439    1.7400   -0.1879 N   0  0  0  0  0  0  0  0  0  0  0  0
   -3.4681    0.4872    0.3624 N   0  0  0  0  0  0  0  0  0  0  0  0
   -0.0307    0.2192    0.7194 C   0  0  0  0  0  0  0  0  0  0  0  0
    5.6904   -0.8041    0.6474 C   0  0  0  0  0  0  0  0  0  0  0  0
    6.9417   -0.5811    0.2039 N   0  0  0  0  0  0  0  0  0  0  0  0
    9.4543   -0.6704    0.3079 H   0  0  0  0  0  0  0  0  0  0  0  0
   10.5476    0.2049   -0.7857 H   0  0  0  0  0  0  0  0  0  0  0  0
    9.2675   -0.9639   -1.4403 H   0  0  0  0  0  0  0  0  0  0  0  0
    6.5357    2.5688   -0.7537 H   0  0  0  0  0  0  0  0  0  0  0  0
    2.6015    1.8444    0.6540 H   0  0  0  0  0  0  0  0  0  0  0  0
    1.5076    1.3140    3.4748 H   0  0  0  0  0  0  0  0  0  0  0  0
   -0.8011    0.9725    4.4156 H   0  0  0  0  0  0  0  0  0  0  0  0
   -2.7522   -2.6266    0.4327 H   0  0  0  0  0  0  0  0  0  0  0  0
   -4.0354   -1.6830    1.2174 H   0  0  0  0  0  0  0  0  0  0  0  0
   -2.4804   -1.8924    2.0621 H   0  0  0  0  0  0  0  0  0  0  0  0
   -1.3140   -1.7610   -0.9641 H   0  0  0  0  0  0  0  0  0  0  0  0
   -1.3954   -0.0169   -1.4699 H   0  0  0  0  0  0  0  0  0  0  0  0
   -5.4083    1.7216   -2.3549 H   0  0  0  0  0  0  0  0  0  0  0  0
   -5.4554    0.3975   -3.5910 H   0  0  0  0  0  0  0  0  0  0  0  0
   -3.8605    1.2052   -3.0891 H   0  0  0  0  0  0  0  0  0  0  0  0
   -6.3117   -1.2683   -2.4393 H   0  0  0  0  0  0  0  0  0  0  0  0
   -5.8396   -1.7435   -0.7413 H   0  0  0  0  0  0  0  0  0  0  0  0
   -6.7564   -0.2247   -1.0553 H   0  0  0  0  0  0  0  0  0  0  0  0
   -6.3407    1.5625   -0.0298 H   0  0  0  0  0  0  0  0  0  0  0  0
   -4.9638    2.7021   -0.1819 H   0  0  0  0  0  0  0  0  0  0  0  0
    0.2362    0.0224   -0.3049 H   0  0  0  0  0  0  0  0  0  0  0  0
    5.4807   -1.7856    1.0445 H   0  0  0  0  0  0  0  0  0  0  0  0
  1  2  1  0
  2  3  1  0
  3  4  2  0
  4  5  1  0
  5  6  2  0
  6  7  1  0
  7  8  2  0
  7  9  1  0
  9 10  1  0
 10 11  2  0
 11 12  1  0
 12 13  2  0
 13 14  1  0
 13 15  1  0
 15 16  1  0
 16 17  1  1
 16 18  1  0
 18 19  1  0
 19 20  2  0
 19 21  2  0
 19 22  1  0
 22 23  1  0
 22 24  1  0
 22 25  1  0
 25 26  1  0
 25 27  2  0
 15 28  2  0
  6 29  1  0
 29 30  2  0
 30  3  1  0
 28 10  1  0
 27 16  1  0
  1 31  1  0
  1 32  1  0
  1 33  1  0
  4 34  1  0
  9 35  1  0
 11 36  1  0
 12 37  1  0
 17 38  1  0
 17 39  1  0
 17 40  1  0
 18 41  1  0
 18 42  1  0
 23 43  1  0
 23 44  1  0
 23 45  1  0
 24 46  1  0
 24 47  1  0
 24 48  1  0
 26 49  1  0
 26 50  1  0
 28 51  1  0
 29 52  1  0
M  END
$$$$
