
     RDKit          3D

 75 80  0  0  0  0  0  0  0  0999 V2000
   -2.8770    7.8351   -0.3384 C   0  0  0  0  0  0  0  0  0  0  0  0
   -2.2168    6.6294    0.0061 O   0  0  0  0  0  0  0  0  0  0  0  0
   -2.4066    5.4669   -0.7095 C   0  0  0  0  0  0  0  0  0  0  0  0
   -1.7240    4.3405   -0.3045 C   0  0  0  0  0  0  0  0  0  0  0  0
   -1.8355    3.1155   -0.9466 C   0  0  0  0  0  0  0  0  0  0  0  0
   -1.1208    1.9644   -0.5133 N   0  0  0  0  0  0  0  0  0  0  0  0
    0.1946    1.5615   -0.9572 C   0  0  0  0  0  0  0  0  0  0  0  0
    0.6348    1.9133   -2.0817 O   0  0  0  0  0  0  0  0  0  0  0  0
    0.8167    0.7669    0.0445 N   0  0  0  0  0  0  0  0  0  0  0  0
    2.0852    0.1691    0.0518 C   0  0  0  0  0  0  0  0  0  0  0  0
    2.4868   -0.6085    1.1158 C   0  0  0  0  0  0  0  0  0  0  0  0
    3.7772   -1.1796    1.0788 C   0  0  0  0  0  0  0  0  0  0  0  0
    4.6399   -1.0019    0.0544 C   0  0  0  0  0  0  0  0  0  0  0  0
    5.9541   -1.5846   -0.0980 C   0  0  0  0  0  0  0  0  0  0  0  0
    6.4754   -1.7197   -1.4082 C   0  0  0  0  0  0  0  0  0  0  0  0
    7.7234   -2.2288   -1.6409 C   0  0  0  0  0  0  0  0  0  0  0  0
    8.5588   -2.6441   -0.6303 C   0  0  0  0  0  0  0  0  0  0  0  0
    9.8770   -3.1787   -0.9386 C   0  0  0  0  0  0  0  0  0  0  0  0
   10.6796   -3.5722   -0.0674 O   0  0  0  0  0  0  0  0  0  0  0  0
   10.2999   -3.2713   -2.2638 O   0  0  0  0  0  0  0  0  0  0  0  0
    8.0736   -2.5205    0.6432 C   0  0  0  0  0  0  0  0  0  0  0  0
    6.7908   -1.9974    0.9051 C   0  0  0  0  0  0  0  0  0  0  0  0
    6.4186   -1.8622    2.3363 C   0  0  0  0  0  0  0  0  0  0  0  0
    4.1904   -0.2234   -0.9744 N   0  0  0  0  0  0  0  0  0  0  0  0
    2.9705    0.3443   -0.9908 C   0  0  0  0  0  0  0  0  0  0  0  0
   -0.1600    0.7091    1.0925 C   0  0  0  0  0  0  0  0  0  0  0  0
    0.0243    0.5094    2.3263 O   0  0  0  0  0  0  0  0  0  0  0  0
   -1.5000    0.9384    0.4385 C   0  0  0  0  0  0  0  0  0  0  0  0
   -2.4463    1.4468    1.4883 C   0  0  0  0  0  0  0  0  0  0  0  0
   -3.8888    1.2088    1.2155 C   0  0  0  0  0  0  0  0  0  0  0  0
   -4.2147   -0.0250    0.5790 N   0  0  0  0  0  0  0  0  0  0  0  0
   -4.2964   -1.1634    1.4680 C   0  0  0  0  0  0  0  0  0  0  0  0
   -4.6581   -2.3347    0.5937 C   0  0  0  0  0  0  0  0  0  0  0  0
   -3.7545   -3.2617    0.2297 N   0  0  0  0  0  0  0  0  0  0  0  0
   -4.0847   -4.3053   -0.5533 C   0  0  0  0  0  0  0  0  0  0  0  0
   -5.3719   -4.4921   -1.0335 C   0  0  0  0  0  0  0  0  0  0  0  0
   -6.3089   -3.5486   -0.6677 C   0  0  0  0  0  0  0  0  0  0  0  0
   -5.9565   -2.4856    0.1343 C   0  0  0  0  0  0  0  0  0  0  0  0
   -6.9355   -1.4349    0.5595 C   0  0  0  0  0  0  0  0  0  0  0  0
   -3.3686   -0.2809   -0.5633 C   0  0  0  0  0  0  0  0  0  0  0  0
   -1.9198   -0.3435   -0.1956 C   0  0  0  0  0  0  0  0  0  0  0  0
   -2.6674    3.0723   -2.0185 N   0  0  0  0  0  0  0  0  0  0  0  0
   -3.3252    4.1805   -2.3994 C   0  0  0  0  0  0  0  0  0  0  0  0
   -3.2135    5.3656   -1.7736 N   0  0  0  0  0  0  0  0  0  0  0  0
   -2.6631    8.5801    0.4332 H   0  0  0  0  0  0  0  0  0  0  0  0
   -3.9717    7.6097   -0.3862 H   0  0  0  0  0  0  0  0  0  0  0  0
   -2.5577    8.1685   -1.3348 H   0  0  0  0  0  0  0  0  0  0  0  0
   -1.0568    4.3643    0.5504 H   0  0  0  0  0  0  0  0  0  0  0  0
    1.8520   -0.7996    1.9741 H   0  0  0  0  0  0  0  0  0  0  0  0
    4.0101   -1.7980    1.9146 H   0  0  0  0  0  0  0  0  0  0  0  0
    5.8199   -1.3943   -2.2193 H   0  0  0  0  0  0  0  0  0  0  0  0
    8.0960   -2.3195   -2.6738 H   0  0  0  0  0  0  0  0  0  0  0  0
   11.0332   -3.8979   -2.5690 H   0  0  0  0  0  0  0  0  0  0  0  0
    8.7059   -2.8382    1.4653 H   0  0  0  0  0  0  0  0  0  0  0  0
    5.8847   -2.7397    2.7430 H   0  0  0  0  0  0  0  0  0  0  0  0
    7.3997   -1.8088    2.9084 H   0  0  0  0  0  0  0  0  0  0  0  0
    5.9399   -0.9108    2.5633 H   0  0  0  0  0  0  0  0  0  0  0  0
    2.6524    0.9541   -1.8227 H   0  0  0  0  0  0  0  0  0  0  0  0
   -2.2653    2.5430    1.5846 H   0  0  0  0  0  0  0  0  0  0  0  0
   -2.1838    0.9734    2.4761 H   0  0  0  0  0  0  0  0  0  0  0  0
   -4.4315    1.2734    2.1984 H   0  0  0  0  0  0  0  0  0  0  0  0
   -4.2930    2.0535    0.5861 H   0  0  0  0  0  0  0  0  0  0  0  0
   -3.3506   -1.4229    1.9513 H   0  0  0  0  0  0  0  0  0  0  0  0
   -5.0567   -0.9788    2.2274 H   0  0  0  0  0  0  0  0  0  0  0  0
   -3.3451   -5.0449   -0.8383 H   0  0  0  0  0  0  0  0  0  0  0  0
   -5.6317   -5.3316   -1.6621 H   0  0  0  0  0  0  0  0  0  0  0  0
   -7.3309   -3.6387   -1.0100 H   0  0  0  0  0  0  0  0  0  0  0  0
   -6.5469   -0.4719    0.1828 H   0  0  0  0  0  0  0  0  0  0  0  0
   -7.9233   -1.6781    0.1522 H   0  0  0  0  0  0  0  0  0  0  0  0
   -6.9971   -1.4731    1.6704 H   0  0  0  0  0  0  0  0  0  0  0  0
   -3.6488   -1.2471   -1.0337 H   0  0  0  0  0  0  0  0  0  0  0  0
   -3.5282    0.5134   -1.2930 H   0  0  0  0  0  0  0  0  0  0  0  0
   -1.6869   -1.1710    0.5052 H   0  0  0  0  0  0  0  0  0  0  0  0
   -1.3420   -0.5122   -1.1146 H   0  0  0  0  0  0  0  0  0  0  0  0
   -4.0028    4.1746   -3.2612 H   0  0  0  0  0  0  0  0  0  0  0  0
  1  2  1  0
  2  3  1  0
  3  4  2  0
  4  5  1  0
  5  6  1  0
  6  7  1  0
  7  8  2  0
  7  9  1  0
  9 10  1  0
 10 11  2  0
 11 12  1  0
 12 13  2  0
 13 14  1  0
 14 15  2  0
 15 16  1  0
 16 17  2  0
 17 18  1  0
 18 19  2  0
 18 20  1  0
 17 21  1  0
 21 22  2  0
 22 23  1  0
 13 24  1  0
 24 25  2  0
  9 26  1  0
 26 27  2  0
 26 28  1  0
 28 29  1  0
 29 30  1  0
 30 31  1  0
 31 32  1  0
 32 33  1  0
 33 34  2  0
 34 35  1  0
 35 36  2  0
 36 37  1  0
 37 38  2  0
 38 39  1  0
 31 40  1  0
 40 41  1  0
  5 42  2  0
 42 43  1  0
 43 44  2  0
 44  3  1  0
 28  6  1  0
 38 33  1  0
 25 10  1  0
 41 28  1  0
 22 14  1  0
  1 45  1  0
  1 46  1  0
  1 47  1  0
  4 48  1  0
 11 49  1  0
 12 50  1  0
 15 51  1  0
 16 52  1  0
 20 53  1  0
 21 54  1  0
 23 55  1  0
 23 56  1  0
 23 57  1  0
 25 58  1  0
 29 59  1  0
 29 60  1  0
 30 61  1  0
 30 62  1  0
 32 63  1  0
 32 64  1  0
 35 65  1  0
 36 66  1  0
 37 67  1  0
 39 68  1  0
 39 69  1  0
 39 70  1  0
 40 71  1  0
 40 72  1  0
 41 73  1  0
 41 74  1  0
 43 75  1  0
M  END
$$$$
