
     RDKit          3D

 62 66  0  0  0  0  0  0  0  0999 V2000
   -3.0887    5.1826    0.6900 C   0  0  0  0  0  0  0  0  0  0  0  0
   -2.4053    4.0364    1.4487 C   0  0  0  0  0  0  0  0  0  0  0  0
   -2.6483    2.8025    0.6262 C   0  0  0  0  0  0  0  0  0  0  0  0
   -2.0347    1.5576    1.2356 C   0  0  0  0  0  0  0  0  0  0  0  0
   -2.3004    0.3810    0.3844 C   0  0  0  0  0  0  0  0  0  0  0  0
   -3.2885   -0.5052    0.6770 N   0  0  0  0  0  0  0  0  0  0  0  0
   -3.3772   -1.4488   -0.2018 N   0  0  0  0  0  0  0  0  0  0  0  0
   -4.3121   -2.5269   -0.1733 C   0  0  0  0  0  0  0  0  0  0  0  0
   -4.1208   -3.5877    0.7003 C   0  0  0  0  0  0  0  0  0  0  0  0
   -5.0013   -4.6473    0.7574 C   0  0  0  0  0  0  0  0  0  0  0  0
   -6.0918   -4.5990   -0.1054 C   0  0  0  0  0  0  0  0  0  0  0  0
   -6.2847   -3.5509   -0.9712 C   0  0  0  0  0  0  0  0  0  0  0  0
   -5.4002   -2.4953   -1.0227 C   0  0  0  0  0  0  0  0  0  0  0  0
   -5.6499   -1.1491   -2.1378 Cl  0  0  0  0  0  0  0  0  0  0  0  0
   -2.4086   -1.1987   -1.1366 C   0  0  0  0  0  0  0  0  0  0  0  0
   -2.2013   -2.0304   -2.2934 C   0  0  0  0  0  0  0  0  0  0  0  0
   -2.9038   -3.0746   -2.5130 O   0  0  0  0  0  0  0  0  0  0  0  0
   -1.2401   -1.7517   -3.2293 O   0  0  0  0  0  0  0  0  0  0  0  0
   -1.7121   -0.0519   -0.7928 C   0  0  0  0  0  0  0  0  0  0  0  0
   -0.5831    0.5932   -1.4877 C   0  0  0  0  0  0  0  0  0  0  0  0
    0.7345    0.3744   -0.8389 C   0  0  0  0  0  0  0  0  0  0  0  0
    1.3711   -0.8257   -1.0344 C   0  0  0  0  0  0  0  0  0  0  0  0
    2.6025   -1.0328   -0.4511 C   0  0  0  0  0  0  0  0  0  0  0  0
    3.2277   -0.0598    0.3354 C   0  0  0  0  0  0  0  0  0  0  0  0
    4.5100   -0.3551    0.9248 C   0  0  0  0  0  0  0  0  0  0  0  0
    4.6377   -1.1820    2.0380 C   0  0  0  0  0  0  0  0  0  0  0  0
    5.8518   -1.4577    2.6052 C   0  0  0  0  0  0  0  0  0  0  0  0
    6.9982   -0.9139    2.0790 C   0  0  0  0  0  0  0  0  0  0  0  0
    6.9006   -0.0892    0.9734 C   0  0  0  0  0  0  0  0  0  0  0  0
    5.6471    0.1776    0.4112 C   0  0  0  0  0  0  0  0  0  0  0  0
    5.6148    1.0334   -0.7433 C   0  0  0  0  0  0  0  0  0  0  0  0
    4.5160    1.3733   -1.4237 N   0  0  0  0  0  0  0  0  0  0  0  0
    4.7880    2.1630   -2.4355 N   0  0  0  0  0  0  0  0  0  0  0  0
    6.1198    2.3278   -2.3899 N   0  0  0  0  0  0  0  0  0  0  0  0
    6.6258    1.6550   -1.3793 N   0  0  0  0  0  0  0  0  0  0  0  0
    2.5869    1.1554    0.5354 C   0  0  0  0  0  0  0  0  0  0  0  0
    1.3590    1.3535   -0.0504 C   0  0  0  0  0  0  0  0  0  0  0  0
   -4.0410    4.7681    0.2745 H   0  0  0  0  0  0  0  0  0  0  0  0
   -2.4219    5.4265   -0.1705 H   0  0  0  0  0  0  0  0  0  0  0  0
   -3.3068    6.0388    1.3284 H   0  0  0  0  0  0  0  0  0  0  0  0
   -1.3529    4.2756    1.6227 H   0  0  0  0  0  0  0  0  0  0  0  0
   -2.9404    3.9231    2.4195 H   0  0  0  0  0  0  0  0  0  0  0  0
   -3.7667    2.6259    0.6822 H   0  0  0  0  0  0  0  0  0  0  0  0
   -2.4318    2.9139   -0.4391 H   0  0  0  0  0  0  0  0  0  0  0  0
   -2.5739    1.4001    2.2210 H   0  0  0  0  0  0  0  0  0  0  0  0
   -0.9812    1.6952    1.4998 H   0  0  0  0  0  0  0  0  0  0  0  0
   -3.2533   -3.5992    1.3677 H   0  0  0  0  0  0  0  0  0  0  0  0
   -4.8802   -5.4877    1.4263 H   0  0  0  0  0  0  0  0  0  0  0  0
   -6.8035   -5.4330   -0.0737 H   0  0  0  0  0  0  0  0  0  0  0  0
   -7.1397   -3.5099   -1.6501 H   0  0  0  0  0  0  0  0  0  0  0  0
   -0.8745   -2.4167   -3.9034 H   0  0  0  0  0  0  0  0  0  0  0  0
   -0.7745    1.7096   -1.5802 H   0  0  0  0  0  0  0  0  0  0  0  0
   -0.4719    0.2798   -2.5502 H   0  0  0  0  0  0  0  0  0  0  0  0
    0.9079   -1.5829   -1.6316 H   0  0  0  0  0  0  0  0  0  0  0  0
    3.1065   -1.9936   -0.6114 H   0  0  0  0  0  0  0  0  0  0  0  0
    3.7377   -1.6166    2.4605 H   0  0  0  0  0  0  0  0  0  0  0  0
    5.9162   -2.0998    3.4644 H   0  0  0  0  0  0  0  0  0  0  0  0
    7.9893   -1.1077    2.4999 H   0  0  0  0  0  0  0  0  0  0  0  0
    7.7906    0.3556    0.5354 H   0  0  0  0  0  0  0  0  0  0  0  0
    7.6188    1.5800   -1.0785 H   0  0  0  0  0  0  0  0  0  0  0  0
    3.0481    1.9187    1.1359 H   0  0  0  0  0  0  0  0  0  0  0  0
    0.8606    2.3033    0.1044 H   0  0  0  0  0  0  0  0  0  0  0  0
  1  2  1  0
  2  3  1  0
  3  4  1  0
  4  5  1  0
  5  6  2  0
  6  7  1  0
  7  8  1  0
  8  9  2  0
  9 10  1  0
 10 11  2  0
 11 12  1  0
 12 13  2  0
 13 14  1  0
  7 15  1  0
 15 16  1  0
 16 17  2  0
 16 18  1  0
 15 19  2  0
 19 20  1  0
 20 21  1  0
 21 22  2  0
 22 23  1  0
 23 24  2  0
 24 25  1  0
 25 26  2  0
 26 27  1  0
 27 28  2  0
 28 29  1  0
 29 30  2  0
 30 31  1  0
 31 32  2  0
 32 33  1  0
 33 34  2  0
 34 35  1  0
 24 36  1  0
 36 37  2  0
 19  5  1  0
 37 21  1  0
 13  8  1  0
 30 25  1  0
 35 31  1  0
  1 38  1  0
  1 39  1  0
  1 40  1  0
  2 41  1  0
  2 42  1  0
  3 43  1  0
  3 44  1  0
  4 45  1  0
  4 46  1  0
  9 47  1  0
 10 48  1  0
 11 49  1  0
 12 50  1  0
 18 51  1  0
 20 52  1  0
 20 53  1  0
 22 54  1  0
 23 55  1  0
 26 56  1  0
 27 57  1  0
 28 58  1  0
 29 59  1  0
 35 60  1  0
 36 61  1  0
 37 62  1  0
M  END
$$$$
