
     RDKit          3D

 42 44  0  0  0  0  0  0  0  0999 V2000
    6.0506    1.0267   -0.1481 C   0  0  0  0  0  0  0  0  0  0  0  0
    5.3004   -0.1435   -0.2597 O   0  0  0  0  0  0  0  0  0  0  0  0
    3.9279   -0.2125   -0.0558 C   0  0  0  0  0  0  0  0  0  0  0  0
    3.1824    0.8986    0.2784 C   0  0  0  0  0  0  0  0  0  0  0  0
    1.8028    0.7708    0.4734 C   0  0  0  0  0  0  0  0  0  0  0  0
    1.1346   -0.4045    0.3514 C   0  0  0  0  0  0  0  0  0  0  0  0
   -0.2874   -0.6599    0.5495 C   0  0  0  0  0  0  0  0  0  0  0  0
   -1.1537    0.4387    0.6995 N   0  0  0  0  0  0  0  0  0  0  0  0
   -1.3877    1.2780   -0.4251 C   0  0  1  0  0  0  0  0  0  0  0  0
   -2.0038    0.7635   -1.6808 C   0  0  0  0  0  0  0  0  0  0  0  0
   -2.7794    1.7043   -0.7807 C   0  0  0  0  0  0  0  0  0  0  0  0
   -3.9310    1.1310   -0.0518 C   0  0  0  0  0  0  0  0  0  0  0  0
   -3.9503   -0.1841    0.3432 C   0  0  0  0  0  0  0  0  0  0  0  0
   -5.0305   -0.7274    1.0389 C   0  0  0  0  0  0  0  0  0  0  0  0
   -6.1147    0.0948    1.3365 C   0  0  0  0  0  0  0  0  0  0  0  0
   -6.1150    1.4108    0.9507 C   0  0  0  0  0  0  0  0  0  0  0  0
   -5.0111    1.9144    0.2548 C   0  0  0  0  0  0  0  0  0  0  0  0
    1.9065   -1.5265    0.0105 C   0  0  0  0  0  0  0  0  0  0  0  0
    1.1550   -3.1075   -0.1744 Cl  0  0  0  0  0  0  0  0  0  0  0  0
    3.2682   -1.4156   -0.1845 C   0  0  0  0  0  0  0  0  0  0  0  0
    4.0553   -2.5255   -0.5246 O   0  0  0  0  0  0  0  0  0  0  0  0
    4.6694   -3.3555    0.4404 C   0  0  0  0  0  0  0  0  0  0  0  0
    7.1177    0.8054    0.1504 H   0  0  0  0  0  0  0  0  0  0  0  0
    6.0875    1.6090   -1.0990 H   0  0  0  0  0  0  0  0  0  0  0  0
    5.6637    1.6486    0.6981 H   0  0  0  0  0  0  0  0  0  0  0  0
    3.6705    1.8638    0.3883 H   0  0  0  0  0  0  0  0  0  0  0  0
    1.2522    1.6456    0.7380 H   0  0  0  0  0  0  0  0  0  0  0  0
   -0.3707   -1.2760    1.4939 H   0  0  0  0  0  0  0  0  0  0  0  0
   -0.6557   -1.3549   -0.2420 H   0  0  0  0  0  0  0  0  0  0  0  0
   -1.1670    0.8783    1.6235 H   0  0  0  0  0  0  0  0  0  0  0  0
   -0.6269    2.0658   -0.6002 H   0  0  0  0  0  0  0  0  0  0  0  0
   -2.3593   -0.2882   -1.7558 H   0  0  0  0  0  0  0  0  0  0  0  0
   -1.6978    1.1654   -2.6757 H   0  0  0  0  0  0  0  0  0  0  0  0
   -2.9212    2.7472   -1.1512 H   0  0  0  0  0  0  0  0  0  0  0  0
   -3.1171   -0.8315    0.1152 H   0  0  0  0  0  0  0  0  0  0  0  0
   -5.0481   -1.7627    1.3516 H   0  0  0  0  0  0  0  0  0  0  0  0
   -6.9511   -0.3514    1.8822 H   0  0  0  0  0  0  0  0  0  0  0  0
   -6.9624    2.0363    1.1886 H   0  0  0  0  0  0  0  0  0  0  0  0
   -5.0912    2.9637   -0.0134 H   0  0  0  0  0  0  0  0  0  0  0  0
    4.2881   -3.0333    1.4319 H   0  0  0  0  0  0  0  0  0  0  0  0
    4.4043   -4.4168    0.2423 H   0  0  0  0  0  0  0  0  0  0  0  0
    5.7957   -3.2832    0.4025 H   0  0  0  0  0  0  0  0  0  0  0  0
  1  2  1  0
  2  3  1  0
  3  4  2  0
  4  5  1  0
  5  6  2  0
  6  7  1  0
  7  8  1  0
  8  9  1  0
  9 10  1  0
 10 11  1  0
 11 12  1  0
 12 13  2  0
 13 14  1  0
 14 15  2  0
 15 16  1  0
 16 17  2  0
  6 18  1  0
 18 19  1  0
 18 20  2  0
 20 21  1  0
 21 22  1  0
 20  3  1  0
 11  9  1  0
 17 12  1  0
  1 23  1  0
  1 24  1  0
  1 25  1  0
  4 26  1  0
  5 27  1  0
  7 28  1  0
  7 29  1  0
  8 30  1  0
  9 31  1  6
 10 32  1  0
 10 33  1  0
 11 34  1  0
 13 35  1  0
 14 36  1  0
 15 37  1  0
 16 38  1  0
 17 39  1  0
 22 40  1  0
 22 41  1  0
 22 42  1  0
M  END
$$$$
