
     RDKit          3D

 17 16  0  0  0  0  0  0  0  0999 V2000
   -1.2700   -0.7902   -0.8458 C   0  0  0  0  0  0  0  0  0  0  0  0
   -1.0471   -0.0976    0.4640 C   0  0  0  0  0  0  0  0  0  0  0  0
   -2.1599    0.9409    0.6349 C   0  0  0  0  0  0  0  0  0  0  0  0
    0.5014    0.7882    0.5762 S   0  0  0  0  0  0  0  0  0  0  0  0
    1.9340   -0.2771    0.5434 C   0  0  0  0  0  0  0  0  0  0  0  0
    3.0197    0.6400    0.6464 N   0  0  0  0  0  0  0  0  0  0  0  0
    2.4086   -1.4962    0.4663 N   0  0  0  0  0  0  0  0  0  0  0  0
   -2.2387   -1.3473   -0.7472 H   0  0  0  0  0  0  0  0  0  0  0  0
   -1.3609   -0.0934   -1.7036 H   0  0  0  0  0  0  0  0  0  0  0  0
   -0.4713   -1.5525   -0.9668 H   0  0  0  0  0  0  0  0  0  0  0  0
   -1.2039   -0.8403    1.2732 H   0  0  0  0  0  0  0  0  0  0  0  0
   -1.9894    1.8265   -0.0424 H   0  0  0  0  0  0  0  0  0  0  0  0
   -3.1590    0.5211    0.3447 H   0  0  0  0  0  0  0  0  0  0  0  0
   -2.1637    1.3307    1.6698 H   0  0  0  0  0  0  0  0  0  0  0  0
    3.8991    1.2134    0.6915 H   0  0  0  0  0  0  0  0  0  0  0  0
    3.6511    1.4666    0.7709 H   0  0  0  0  0  0  0  0  0  0  0  0
    1.6501   -2.2329    0.3842 H   0  0  0  0  0  0  0  0  0  0  0  0
  1  2  1  0
  2  3  1  0
  2  4  1  0
  4  5  1  0
  5  6  1  0
  5  7  2  3
  1  8  1  0
  1  9  1  0
  1 10  1  0
  2 11  1  0
  3 12  1  0
  3 13  1  0
  3 14  1  0
  6 15  1  0
  6 16  1  0
  7 17  1  0
M  END
$$$$
