
     RDKit          3D

 75 78  0  0  0  0  0  0  0  0999 V2000
   -3.2758   -4.5725   -0.6245 C   0  0  0  0  0  0  0  0  0  0  0  0
   -3.7262   -3.7728   -1.8236 C   0  0  0  0  0  0  0  0  0  0  0  0
   -3.1271   -2.3866   -1.7256 C   0  0  0  0  0  0  0  0  0  0  0  0
   -3.5765   -1.6831   -0.4613 C   0  0  0  0  0  0  0  0  0  0  0  0
   -3.0013   -0.3589   -0.3728 N   0  0  0  0  0  0  0  0  0  0  0  0
   -3.7456    0.7025   -0.9603 C   0  0  0  0  0  0  0  0  0  0  0  0
   -4.6116    0.4365   -1.8251 O   0  0  0  0  0  0  0  0  0  0  0  0
   -3.5214    2.0985   -0.5761 C   0  0  1  0  0  0  0  0  0  0  0  0
   -4.7472    2.9432   -0.5257 C   0  0  2  0  0  0  0  0  0  0  0  0
   -4.3588    4.2738   -0.4153 O   0  0  0  0  0  0  0  0  0  0  0  0
   -5.7300    2.6342    0.5291 C   0  0  0  0  0  0  0  0  0  0  0  0
   -5.2490    2.7318    1.9375 C   0  0  0  0  0  0  0  0  0  0  0  0
   -6.4414    1.3099    0.3601 C   0  0  0  0  0  0  0  0  0  0  0  0
   -2.6804    2.2163    0.5958 N   0  0  0  0  0  0  0  0  0  0  0  0
   -1.9232    1.1310    1.0946 C   0  0  0  0  0  0  0  0  0  0  0  0
   -1.4242    1.2317    2.2415 O   0  0  0  0  0  0  0  0  0  0  0  0
   -1.7172   -0.1022    0.2898 C   0  0  0  0  0  0  0  0  0  0  0  0
   -0.6096    0.1584   -0.7222 C   0  0  0  0  0  0  0  0  0  0  0  0
    0.6187    0.4701    0.1109 C   0  0  0  0  0  0  0  0  0  0  0  0
    1.0327   -0.6106    0.9261 N   0  0  0  0  0  0  0  0  0  0  0  0
    1.8426   -1.6113    0.3247 C   0  0  0  0  0  0  0  0  0  0  0  0
    3.1025   -1.0232   -0.1893 C   0  0  0  0  0  0  0  0  0  0  0  0
    3.2519   -0.5793   -1.4919 C   0  0  0  0  0  0  0  0  0  0  0  0
    4.4130   -0.0251   -1.9820 C   0  0  0  0  0  0  0  0  0  0  0  0
    5.5052    0.1052   -1.1432 C   0  0  0  0  0  0  0  0  0  0  0  0
    6.6915    0.6655   -1.6241 O   0  0  0  0  0  0  0  0  0  0  0  0
    7.7528    0.7778   -0.7595 C   0  0  0  0  0  0  0  0  0  0  0  0
    7.9120    1.9131    0.0042 C   0  0  0  0  0  0  0  0  0  0  0  0
    8.9689    2.0266    0.8659 C   0  0  0  0  0  0  0  0  0  0  0  0
    9.8905    1.0032    0.9812 C   0  0  0  0  0  0  0  0  0  0  0  0
    9.7485   -0.1429    0.2244 C   0  0  0  0  0  0  0  0  0  0  0  0
    8.6728   -0.2264   -0.6346 C   0  0  0  0  0  0  0  0  0  0  0  0
    5.3821   -0.3270    0.1502 C   0  0  0  0  0  0  0  0  0  0  0  0
    4.2222   -0.8798    0.6377 C   0  0  0  0  0  0  0  0  0  0  0  0
   -0.0046   -1.1374    1.7813 C   0  0  0  0  0  0  0  0  0  0  0  0
   -1.3243   -1.2833    1.1054 C   0  0  0  0  0  0  0  0  0  0  0  0
   -2.2552   -4.2666   -0.3600 H   0  0  0  0  0  0  0  0  0  0  0  0
   -3.9335   -4.2503    0.2288 H   0  0  0  0  0  0  0  0  0  0  0  0
   -3.4025   -5.6581   -0.7828 H   0  0  0  0  0  0  0  0  0  0  0  0
   -3.4226   -4.2186   -2.7797 H   0  0  0  0  0  0  0  0  0  0  0  0
   -4.8462   -3.6311   -1.8155 H   0  0  0  0  0  0  0  0  0  0  0  0
   -2.0345   -2.3977   -1.8326 H   0  0  0  0  0  0  0  0  0  0  0  0
   -3.5402   -1.8175   -2.6062 H   0  0  0  0  0  0  0  0  0  0  0  0
   -4.6853   -1.6613   -0.4726 H   0  0  0  0  0  0  0  0  0  0  0  0
   -3.2984   -2.3184    0.4070 H   0  0  0  0  0  0  0  0  0  0  0  0
   -2.8901    2.5375   -1.4109 H   0  0  0  0  0  0  0  0  0  0  0  0
   -5.2577    2.8546   -1.5081 H   0  0  0  0  0  0  0  0  0  0  0  0
   -4.1061    4.4293    0.5282 H   0  0  0  0  0  0  0  0  0  0  0  0
   -6.5502    3.4113    0.4320 H   0  0  0  0  0  0  0  0  0  0  0  0
   -6.1217    2.4262    2.5885 H   0  0  0  0  0  0  0  0  0  0  0  0
   -4.4469    2.0253    2.1984 H   0  0  0  0  0  0  0  0  0  0  0  0
   -5.0307    3.7783    2.2178 H   0  0  0  0  0  0  0  0  0  0  0  0
   -6.9541    1.2261   -0.6269 H   0  0  0  0  0  0  0  0  0  0  0  0
   -5.8396    0.4448    0.6320 H   0  0  0  0  0  0  0  0  0  0  0  0
   -7.2922    1.3357    1.1055 H   0  0  0  0  0  0  0  0  0  0  0  0
   -2.6378    3.1321    1.0789 H   0  0  0  0  0  0  0  0  0  0  0  0
   -0.8134    1.0341   -1.3578 H   0  0  0  0  0  0  0  0  0  0  0  0
   -0.3796   -0.7549   -1.2942 H   0  0  0  0  0  0  0  0  0  0  0  0
    1.4238    0.7637   -0.5797 H   0  0  0  0  0  0  0  0  0  0  0  0
    0.3832    1.3932    0.7090 H   0  0  0  0  0  0  0  0  0  0  0  0
    1.2834   -2.0024   -0.5691 H   0  0  0  0  0  0  0  0  0  0  0  0
    2.1184   -2.4374    0.9906 H   0  0  0  0  0  0  0  0  0  0  0  0
    2.4314   -0.6606   -2.1926 H   0  0  0  0  0  0  0  0  0  0  0  0
    4.4881    0.3134   -3.0202 H   0  0  0  0  0  0  0  0  0  0  0  0
    7.1831    2.7170   -0.0902 H   0  0  0  0  0  0  0  0  0  0  0  0
    9.0734    2.9291    1.4560 H   0  0  0  0  0  0  0  0  0  0  0  0
   10.7271    1.0887    1.6612 H   0  0  0  0  0  0  0  0  0  0  0  0
   10.4666   -0.9572    0.3047 H   0  0  0  0  0  0  0  0  0  0  0  0
    8.5661   -1.1305   -1.2279 H   0  0  0  0  0  0  0  0  0  0  0  0
    6.2660   -0.2074    0.7815 H   0  0  0  0  0  0  0  0  0  0  0  0
    4.1599   -1.2105    1.6647 H   0  0  0  0  0  0  0  0  0  0  0  0
   -0.0357   -0.5792    2.7384 H   0  0  0  0  0  0  0  0  0  0  0  0
    0.3361   -2.1760    2.0682 H   0  0  0  0  0  0  0  0  0  0  0  0
   -2.0885   -1.4553    1.9073 H   0  0  0  0  0  0  0  0  0  0  0  0
   -1.2566   -2.1564    0.4211 H   0  0  0  0  0  0  0  0  0  0  0  0
  1  2  1  0
  2  3  1  0
  3  4  1  0
  4  5  1  0
  5  6  1  0
  6  7  2  0
  6  8  1  0
  8  9  1  0
  9 10  1  0
  9 11  1  0
 11 12  1  0
 11 13  1  0
  8 14  1  0
 14 15  1  0
 15 16  2  0
 15 17  1  0
 17 18  1  0
 18 19  1  0
 19 20  1  0
 20 21  1  0
 21 22  1  0
 22 23  2  0
 23 24  1  0
 24 25  2  0
 25 26  1  0
 26 27  1  0
 27 28  2  0
 28 29  1  0
 29 30  2  0
 30 31  1  0
 31 32  2  0
 25 33  1  0
 33 34  2  0
 20 35  1  0
 35 36  1  0
 17  5  1  0
 34 22  1  0
 36 17  1  0
 32 27  1  0
  1 37  1  0
  1 38  1  0
  1 39  1  0
  2 40  1  0
  2 41  1  0
  3 42  1  0
  3 43  1  0
  4 44  1  0
  4 45  1  0
  8 46  1  6
  9 47  1  6
 10 48  1  0
 11 49  1  0
 12 50  1  0
 12 51  1  0
 12 52  1  0
 13 53  1  0
 13 54  1  0
 13 55  1  0
 14 56  1  0
 18 57  1  0
 18 58  1  0
 19 59  1  0
 19 60  1  0
 21 61  1  0
 21 62  1  0
 23 63  1  0
 24 64  1  0
 28 65  1  0
 29 66  1  0
 30 67  1  0
 31 68  1  0
 32 69  1  0
 33 70  1  0
 34 71  1  0
 35 72  1  0
 35 73  1  0
 36 74  1  0
 36 75  1  0
M  END
$$$$
