
     RDKit          3D

 59 63  0  0  0  0  0  0  0  0999 V2000
   -4.2138   -0.6565    3.0071 C   0  0  0  0  0  0  0  0  0  0  0  0
   -4.7425   -0.5258    1.6115 C   0  0  0  0  0  0  0  0  0  0  0  0
   -6.0124   -0.0769    1.3422 C   0  0  0  0  0  0  0  0  0  0  0  0
   -6.4522    0.0107    0.0284 C   0  0  0  0  0  0  0  0  0  0  0  0
   -7.7715    0.4982   -0.3122 C   0  0  0  0  0  0  0  0  0  0  0  0
   -8.8420   -0.3555   -0.4167 C   0  0  0  0  0  0  0  0  0  0  0  0
   -8.6760   -2.0849   -0.1494 Cl  0  0  0  0  0  0  0  0  0  0  0  0
  -10.1120    0.1399   -0.7450 C   0  0  0  0  0  0  0  0  0  0  0  0
  -10.2872    1.4959   -0.9646 C   0  0  0  0  0  0  0  0  0  0  0  0
   -9.2029    2.3260   -0.8537 C   0  0  0  0  0  0  0  0  0  0  0  0
   -7.9193    1.8652   -0.5280 C   0  0  0  0  0  0  0  0  0  0  0  0
   -6.5743    2.9768   -0.4071 Cl  0  0  0  0  0  0  0  0  0  0  0  0
   -5.5835   -0.3640   -0.9875 C   0  0  0  0  0  0  0  0  0  0  0  0
   -4.3087   -0.8148   -0.7213 C   0  0  0  0  0  0  0  0  0  0  0  0
   -3.4697   -1.1733   -1.7006 N   0  0  0  0  0  0  0  0  0  0  0  0
   -2.2396   -1.5999   -1.3926 N   0  0  0  0  0  0  0  0  0  0  0  0
   -1.7748   -1.6964   -0.1548 C   0  0  0  0  0  0  0  0  0  0  0  0
   -0.4796   -2.1487    0.2186 N   0  0  0  0  0  0  0  0  0  0  0  0
    0.6619   -1.3319    0.0496 C   0  0  0  0  0  0  0  0  0  0  0  0
    1.7516   -1.5057    0.8470 C   0  0  0  0  0  0  0  0  0  0  0  0
    2.8611   -0.7079    0.6146 C   0  0  0  0  0  0  0  0  0  0  0  0
    2.9134    0.2432   -0.3760 C   0  0  0  0  0  0  0  0  0  0  0  0
    3.9601    1.0366   -0.6425 O   0  0  0  0  0  0  0  0  0  0  0  0
    5.2243    1.2562   -0.1768 C   0  0  0  0  0  0  0  0  0  0  0  0
    6.1281    0.0833   -0.2905 C   0  0  0  0  0  0  0  0  0  0  0  0
    7.4438    0.2742    0.1871 N   0  0  0  0  0  0  0  0  0  0  0  0
    8.3492   -0.8157    0.0815 C   0  0  0  0  0  0  0  0  0  0  0  0
    9.7497   -0.2004    0.1825 C   0  0  0  0  0  0  0  0  0  0  0  0
    9.5505    1.1806   -0.3998 C   0  0  0  0  0  0  0  0  0  0  0  0
    8.1126    1.4859   -0.0518 C   0  0  0  0  0  0  0  0  0  0  0  0
    1.7676    0.4081   -1.1950 C   0  0  0  0  0  0  0  0  0  0  0  0
    0.6705   -0.3751   -0.9706 C   0  0  0  0  0  0  0  0  0  0  0  0
   -2.6266   -1.3334    0.8538 N   0  0  0  0  0  0  0  0  0  0  0  0
   -3.8668   -0.9012    0.6016 C   0  0  0  0  0  0  0  0  0  0  0  0
   -3.1131   -0.5245    3.0538 H   0  0  0  0  0  0  0  0  0  0  0  0
   -4.6520    0.0698    3.7046 H   0  0  0  0  0  0  0  0  0  0  0  0
   -4.3802   -1.7154    3.3664 H   0  0  0  0  0  0  0  0  0  0  0  0
   -6.6898    0.2145    2.1485 H   0  0  0  0  0  0  0  0  0  0  0  0
  -10.9427   -0.5609   -0.8208 H   0  0  0  0  0  0  0  0  0  0  0  0
  -11.2692    1.8666   -1.2145 H   0  0  0  0  0  0  0  0  0  0  0  0
   -9.3402    3.3915   -1.0248 H   0  0  0  0  0  0  0  0  0  0  0  0
   -5.8978   -0.3075   -2.0324 H   0  0  0  0  0  0  0  0  0  0  0  0
   -0.3250   -3.1005    0.6290 H   0  0  0  0  0  0  0  0  0  0  0  0
    1.8005   -2.2311    1.6536 H   0  0  0  0  0  0  0  0  0  0  0  0
    3.7465   -0.8188    1.2625 H   0  0  0  0  0  0  0  0  0  0  0  0
    5.6217    2.1569   -0.7228 H   0  0  0  0  0  0  0  0  0  0  0  0
    5.1336    1.5160    0.9283 H   0  0  0  0  0  0  0  0  0  0  0  0
    6.2215   -0.2218   -1.3824 H   0  0  0  0  0  0  0  0  0  0  0  0
    5.7254   -0.8259    0.1960 H   0  0  0  0  0  0  0  0  0  0  0  0
    8.2488   -1.4293   -0.8276 H   0  0  0  0  0  0  0  0  0  0  0  0
    8.2295   -1.4579    0.9786 H   0  0  0  0  0  0  0  0  0  0  0  0
   10.0239   -0.0693    1.2635 H   0  0  0  0  0  0  0  0  0  0  0  0
   10.5047   -0.7994   -0.3269 H   0  0  0  0  0  0  0  0  0  0  0  0
   10.2392    1.9271    0.0407 H   0  0  0  0  0  0  0  0  0  0  0  0
    9.7384    1.1713   -1.4936 H   0  0  0  0  0  0  0  0  0  0  0  0
    7.6510    2.2135   -0.7262 H   0  0  0  0  0  0  0  0  0  0  0  0
    8.1769    2.0274    0.9432 H   0  0  0  0  0  0  0  0  0  0  0  0
    1.7915    1.1633   -1.9914 H   0  0  0  0  0  0  0  0  0  0  0  0
   -0.2318   -0.2681   -1.5893 H   0  0  0  0  0  0  0  0  0  0  0  0
  1  2  1  0
  2  3  2  0
  3  4  1  0
  4  5  1  0
  5  6  2  0
  6  7  1  0
  6  8  1  0
  8  9  2  0
  9 10  1  0
 10 11  2  0
 11 12  1  0
  4 13  2  0
 13 14  1  0
 14 15  2  0
 15 16  1  0
 16 17  2  0
 17 18  1  0
 18 19  1  0
 19 20  2  0
 20 21  1  0
 21 22  2  0
 22 23  1  0
 23 24  1  0
 24 25  1  0
 25 26  1  0
 26 27  1  0
 27 28  1  0
 28 29  1  0
 29 30  1  0
 22 31  1  0
 31 32  2  0
 17 33  1  0
 33 34  2  0
 34  2  1  0
 11  5  1  0
 34 14  1  0
 32 19  1  0
 30 26  1  0
  1 35  1  0
  1 36  1  0
  1 37  1  0
  3 38  1  0
  8 39  1  0
  9 40  1  0
 10 41  1  0
 13 42  1  0
 18 43  1  0
 20 44  1  0
 21 45  1  0
 24 46  1  0
 24 47  1  0
 25 48  1  0
 25 49  1  0
 27 50  1  0
 27 51  1  0
 28 52  1  0
 28 53  1  0
 29 54  1  0
 29 55  1  0
 30 56  1  0
 30 57  1  0
 31 58  1  0
 32 59  1  0
M  END
$$$$
