
     RDKit          3D

 43 45  0  0  0  0  0  0  0  0999 V2000
   -7.0651    2.1699    0.3448 C   0  0  0  0  0  0  0  0  0  0  0  0
   -6.0796    1.0798    0.6688 C   0  0  0  0  0  0  0  0  0  0  0  0
   -6.3883    0.1884    1.6625 C   0  0  0  0  0  0  0  0  0  0  0  0
   -5.5268   -0.8289    2.0029 C   0  0  0  0  0  0  0  0  0  0  0  0
   -4.3346   -0.9182    1.3026 C   0  0  0  0  0  0  0  0  0  0  0  0
   -4.0028   -0.0354    0.3014 C   0  0  0  0  0  0  0  0  0  0  0  0
   -2.7433   -0.1485   -0.4217 C   0  0  0  0  0  0  0  0  0  0  0  0
   -2.4864    0.6887   -1.3333 O   0  0  0  0  0  0  0  0  0  0  0  0
   -1.7784   -1.1364   -0.1752 N   0  0  0  0  0  0  0  0  0  0  0  0
   -0.5395   -1.2370   -0.8959 C   0  0  0  0  0  0  0  0  0  0  0  0
   -0.4840   -2.0021   -2.0435 C   0  0  0  0  0  0  0  0  0  0  0  0
    0.7264   -2.0668   -2.6984 C   0  0  0  0  0  0  0  0  0  0  0  0
    1.8380   -1.3987   -2.2331 C   0  0  0  0  0  0  0  0  0  0  0  0
    1.7796   -0.6252   -1.0718 C   0  0  0  0  0  0  0  0  0  0  0  0
    2.9403    0.0622   -0.6008 N   0  0  0  0  0  0  0  0  0  0  0  0
    3.8628   -0.5244    0.3023 C   0  0  0  0  0  0  0  0  0  0  0  0
    3.5945   -1.7057    0.6705 O   0  0  0  0  0  0  0  0  0  0  0  0
    5.0551    0.1490    0.8013 C   0  0  0  0  0  0  0  0  0  0  0  0
    5.3973    1.4125    0.4451 C   0  0  0  0  0  0  0  0  0  0  0  0
    6.5465    2.0502    0.9314 C   0  0  0  0  0  0  0  0  0  0  0  0
    7.3641    1.3787    1.8025 C   0  0  0  0  0  0  0  0  0  0  0  0
    7.0269    0.0830    2.1772 C   0  0  0  0  0  0  0  0  0  0  0  0
    5.8828   -0.5198    1.6781 C   0  0  0  0  0  0  0  0  0  0  0  0
    0.5666   -0.5633   -0.4197 C   0  0  0  0  0  0  0  0  0  0  0  0
   -4.8947    0.9660   -0.0050 C   0  0  0  0  0  0  0  0  0  0  0  0
   -6.5401    3.0188   -0.0989 H   0  0  0  0  0  0  0  0  0  0  0  0
   -7.5553    2.4651    1.2957 H   0  0  0  0  0  0  0  0  0  0  0  0
   -7.8520    1.8065   -0.3476 H   0  0  0  0  0  0  0  0  0  0  0  0
   -7.3232    0.2691    2.2022 H   0  0  0  0  0  0  0  0  0  0  0  0
   -5.7636   -1.5317    2.7821 H   0  0  0  0  0  0  0  0  0  0  0  0
   -3.6815   -1.7349    1.6010 H   0  0  0  0  0  0  0  0  0  0  0  0
   -1.9381   -1.8441    0.5579 H   0  0  0  0  0  0  0  0  0  0  0  0
   -1.3826   -2.5071   -2.3683 H   0  0  0  0  0  0  0  0  0  0  0  0
    0.7830   -2.6619   -3.5973 H   0  0  0  0  0  0  0  0  0  0  0  0
    2.8072   -1.4337   -2.7328 H   0  0  0  0  0  0  0  0  0  0  0  0
    3.1208    1.0336   -0.9310 H   0  0  0  0  0  0  0  0  0  0  0  0
    4.7856    1.9643   -0.2297 H   0  0  0  0  0  0  0  0  0  0  0  0
    6.8057    3.0578    0.6379 H   0  0  0  0  0  0  0  0  0  0  0  0
    8.2707    1.8174    2.2162 H   0  0  0  0  0  0  0  0  0  0  0  0
    7.6712   -0.4491    2.8651 H   0  0  0  0  0  0  0  0  0  0  0  0
    5.6949   -1.5292    2.0210 H   0  0  0  0  0  0  0  0  0  0  0  0
    0.5399    0.0427    0.4812 H   0  0  0  0  0  0  0  0  0  0  0  0
   -4.7000    1.6984   -0.7829 H   0  0  0  0  0  0  0  0  0  0  0  0
  1  2  1  0
  2  3  2  0
  3  4  1  0
  4  5  2  0
  5  6  1  0
  6  7  1  0
  7  8  2  0
  7  9  1  0
  9 10  1  0
 10 11  2  0
 11 12  1  0
 12 13  2  0
 13 14  1  0
 14 15  1  0
 15 16  1  0
 16 17  2  0
 16 18  1  0
 18 19  2  0
 19 20  1  0
 20 21  2  0
 21 22  1  0
 22 23  2  0
 14 24  2  0
  6 25  2  0
 25  2  1  0
 24 10  1  0
 23 18  1  0
  1 26  1  0
  1 27  1  0
  1 28  1  0
  3 29  1  0
  4 30  1  0
  5 31  1  0
  9 32  1  0
 11 33  1  0
 12 34  1  0
 13 35  1  0
 15 36  1  0
 19 37  1  0
 20 38  1  0
 21 39  1  0
 22 40  1  0
 23 41  1  0
 24 42  1  0
 25 43  1  0
M  END
$$$$
