
     RDKit          3D

 74 80  0  0  0  0  0  0  0  0999 V2000
    0.0458    0.1452   -2.3286 C   0  0  1  0  0  0  0  0  0  0  0  0
    0.7023   -0.7997   -3.2450 C   0  0  0  0  0  0  0  0  0  0  0  0
   -0.4779   -1.3595   -3.8828 O   0  0  0  0  0  0  0  0  0  0  0  0
   -1.6526   -0.9549   -3.1897 C   0  0  0  0  0  0  0  0  0  0  0  0
   -2.3826   -1.0007   -4.2613 O   0  0  0  0  0  0  0  0  0  0  0  0
   -1.0780   -0.8230   -1.8618 C   0  0  2  0  0  0  0  0  0  0  0  0
   -1.7604   -0.2959   -0.7083 C   0  0  2  0  0  0  0  0  0  0  0  0
   -3.1169   -0.6615   -0.3760 C   0  0  0  0  0  0  0  0  0  0  0  0
   -3.4576   -0.6401    0.9962 C   0  0  0  0  0  0  0  0  0  0  0  0
   -4.6944   -0.9539    1.5140 C   0  0  0  0  0  0  0  0  0  0  0  0
   -4.9440   -0.9060    2.8739 O   0  0  0  0  0  0  0  0  0  0  0  0
   -4.0391   -0.5549    3.8714 C   0  0  0  0  0  0  0  0  0  0  0  0
   -5.6972   -1.3223    0.6493 C   0  0  0  0  0  0  0  0  0  0  0  0
   -6.9361   -1.6354    1.1814 O   0  0  0  0  0  0  0  0  0  0  0  0
   -5.4473   -1.3691   -0.6999 C   0  0  0  0  0  0  0  0  0  0  0  0
   -6.4967   -1.7451   -1.4876 O   0  0  0  0  0  0  0  0  0  0  0  0
   -6.5390   -1.8843   -2.8741 C   0  0  0  0  0  0  0  0  0  0  0  0
   -4.1912   -1.0420   -1.1440 C   0  0  0  0  0  0  0  0  0  0  0  0
   -1.4848    1.1708   -0.5578 C   0  0  0  0  0  0  0  0  0  0  0  0
   -2.5823    1.9539   -0.1696 C   0  0  0  0  0  0  0  0  0  0  0  0
   -2.4203    3.3307    0.0258 C   0  0  0  0  0  0  0  0  0  0  0  0
   -1.1786    3.8858   -0.1693 C   0  0  0  0  0  0  0  0  0  0  0  0
   -1.2483    5.2343    0.0763 O   0  0  0  0  0  0  0  0  0  0  0  0
   -2.6053    5.5998    0.3631 C   0  0  0  0  0  0  0  0  0  0  0  0
   -3.2668    4.3490    0.3957 O   0  0  0  0  0  0  0  0  0  0  0  0
   -0.0850    3.1429   -0.5503 C   0  0  0  0  0  0  0  0  0  0  0  0
   -0.2661    1.7929   -0.7378 C   0  0  0  0  0  0  0  0  0  0  0  0
    0.7384    0.7405   -1.1867 C   0  0  1  0  0  0  0  0  0  0  0  0
    1.0496   -0.0811   -0.1395 O   0  0  0  0  0  0  0  0  0  0  0  0
    2.3781   -0.0376    0.2454 C   0  0  2  0  0  0  0  0  0  0  0  0
    3.0205   -1.2731   -0.0299 O   0  0  0  0  0  0  0  0  0  0  0  0
    4.3821   -1.0208    0.0704 C   0  0  2  0  0  0  0  0  0  0  0  0
    5.2110   -2.2456   -0.2506 C   0  0  0  0  0  0  0  0  0  0  0  0
    6.0935   -2.5746    0.7631 O   0  0  0  0  0  0  0  0  0  0  0  0
    6.8692   -1.5067    1.1848 C   0  0  1  0  0  0  0  0  0  0  0  0
    7.9743   -1.1859    0.1958 C   0  0  0  0  0  0  0  0  0  0  0  0
    6.1566   -0.3669    1.4436 O   0  0  0  0  0  0  0  0  0  0  0  0
    4.7828   -0.6095    1.4812 C   0  0  1  0  0  0  0  0  0  0  0  0
    4.0166    0.5863    1.9625 C   0  0  2  0  0  0  0  0  0  0  0  0
    4.2311    0.6785    3.3470 O   0  0  0  0  0  0  0  0  0  0  0  0
    2.5418    0.2921    1.7025 C   0  0  1  0  0  0  0  0  0  0  0  0
    1.7209    1.3596    2.0328 O   0  0  0  0  0  0  0  0  0  0  0  0
   -0.4529    0.9397   -2.9288 H   0  0  0  0  0  0  0  0  0  0  0  0
    1.2714   -0.3140   -4.0616 H   0  0  0  0  0  0  0  0  0  0  0  0
    1.2205   -1.6384   -2.7869 H   0  0  0  0  0  0  0  0  0  0  0  0
   -0.5630   -1.8251   -1.6573 H   0  0  0  0  0  0  0  0  0  0  0  0
   -1.1453   -0.7054    0.1919 H   0  0  0  0  0  0  0  0  0  0  0  0
   -2.7160   -0.3621    1.7325 H   0  0  0  0  0  0  0  0  0  0  0  0
   -3.3680   -1.4258    4.0590 H   0  0  0  0  0  0  0  0  0  0  0  0
   -3.4490    0.3256    3.5101 H   0  0  0  0  0  0  0  0  0  0  0  0
   -4.5598   -0.1967    4.7835 H   0  0  0  0  0  0  0  0  0  0  0  0
   -7.0888   -2.6223    1.4108 H   0  0  0  0  0  0  0  0  0  0  0  0
   -7.1542   -2.7679   -3.1757 H   0  0  0  0  0  0  0  0  0  0  0  0
   -6.9396   -1.0146   -3.4314 H   0  0  0  0  0  0  0  0  0  0  0  0
   -5.4825   -2.0294   -3.2339 H   0  0  0  0  0  0  0  0  0  0  0  0
   -4.0110   -1.0799   -2.1988 H   0  0  0  0  0  0  0  0  0  0  0  0
   -3.5867    1.6080    0.0063 H   0  0  0  0  0  0  0  0  0  0  0  0
   -2.6641    6.0236    1.3963 H   0  0  0  0  0  0  0  0  0  0  0  0
   -3.0179    6.2937   -0.3889 H   0  0  0  0  0  0  0  0  0  0  0  0
    0.9279    3.4636   -0.7315 H   0  0  0  0  0  0  0  0  0  0  0  0
    1.6259    1.3084   -1.5640 H   0  0  0  0  0  0  0  0  0  0  0  0
    2.9496    0.6922   -0.3686 H   0  0  0  0  0  0  0  0  0  0  0  0
    4.6535   -0.2070   -0.6022 H   0  0  0  0  0  0  0  0  0  0  0  0
    5.6919   -2.1699   -1.2512 H   0  0  0  0  0  0  0  0  0  0  0  0
    4.4827   -3.0989   -0.3311 H   0  0  0  0  0  0  0  0  0  0  0  0
    7.3615   -1.8301    2.1280 H   0  0  0  0  0  0  0  0  0  0  0  0
    8.3023   -2.1160   -0.3381 H   0  0  0  0  0  0  0  0  0  0  0  0
    8.8919   -0.7943    0.6815 H   0  0  0  0  0  0  0  0  0  0  0  0
    7.6699   -0.4195   -0.5505 H   0  0  0  0  0  0  0  0  0  0  0  0
    4.6310   -1.4638    2.2034 H   0  0  0  0  0  0  0  0  0  0  0  0
    4.3712    1.4567    1.4001 H   0  0  0  0  0  0  0  0  0  0  0  0
    5.0770    0.2032    3.6119 H   0  0  0  0  0  0  0  0  0  0  0  0
    2.3127   -0.6017    2.3442 H   0  0  0  0  0  0  0  0  0  0  0  0
    0.8917    0.9557    2.4429 H   0  0  0  0  0  0  0  0  0  0  0  0
  1  2  1  0
  2  3  1  0
  3  4  1  0
  4  5  2  0
  4  6  1  0
  6  7  1  0
  7  8  1  0
  8  9  2  0
  9 10  1  0
 10 11  1  0
 11 12  1  0
 10 13  2  0
 13 14  1  0
 13 15  1  0
 15 16  1  0
 16 17  1  0
 15 18  2  0
  7 19  1  0
 19 20  2  0
 20 21  1  0
 21 22  2  0
 22 23  1  0
 23 24  1  0
 24 25  1  0
 22 26  1  0
 26 27  2  0
 27 28  1  0
 28 29  1  0
 29 30  1  0
 30 31  1  0
 31 32  1  0
 32 33  1  0
 33 34  1  0
 34 35  1  0
 35 36  1  0
 35 37  1  0
 37 38  1  0
 38 39  1  0
 39 40  1  0
 39 41  1  0
 41 42  1  0
  6  1  1  0
 18  8  1  0
 27 19  1  0
 41 30  1  0
 28  1  1  0
 38 32  1  0
 25 21  1  0
  1 43  1  6
  2 44  1  0
  2 45  1  0
  6 46  1  1
  7 47  1  1
  9 48  1  0
 12 49  1  0
 12 50  1  0
 12 51  1  0
 14 52  1  0
 17 53  1  0
 17 54  1  0
 17 55  1  0
 18 56  1  0
 20 57  1  0
 24 58  1  0
 24 59  1  0
 26 60  1  0
 28 61  1  6
 30 62  1  6
 32 63  1  6
 33 64  1  0
 33 65  1  0
 35 66  1  1
 36 67  1  0
 36 68  1  0
 36 69  1  0
 38 70  1  1
 39 71  1  6
 40 72  1  0
 41 73  1  1
 42 74  1  0
M  END
$$$$
