
     RDKit          3D

 41 43  0  0  0  0  0  0  0  0999 V2000
    2.5442   -0.9493   -2.3418 C   0  0  0  0  0  0  0  0  0  0  0  0
    3.4884   -0.4326   -1.4425 O   0  0  0  0  0  0  0  0  0  0  0  0
    3.0333    0.0412   -0.2144 C   0  0  0  0  0  0  0  0  0  0  0  0
    1.6888    0.0086    0.1216 C   0  0  0  0  0  0  0  0  0  0  0  0
    1.2261    0.4646    1.3114 C   0  0  0  0  0  0  0  0  0  0  0  0
   -0.1169    0.4766    1.7494 N   0  0  0  0  0  0  0  0  0  0  0  0
   -1.2237    0.0127    1.0210 C   0  0  0  0  0  0  0  0  0  0  0  0
   -1.1127   -0.4648   -0.1106 O   0  0  0  0  0  0  0  0  0  0  0  0
   -2.5645    0.0628    1.5460 N   0  0  0  0  0  0  0  0  0  0  0  0
   -3.6822   -0.4077    0.8058 C   0  0  0  0  0  0  0  0  0  0  0  0
   -4.0981   -1.7165    0.9028 C   0  0  0  0  0  0  0  0  0  0  0  0
   -5.1965   -2.1897    0.1789 C   0  0  0  0  0  0  0  0  0  0  0  0
   -5.8637   -1.3070   -0.6452 C   0  0  0  0  0  0  0  0  0  0  0  0
   -5.4738    0.0109   -0.7660 C   0  0  0  0  0  0  0  0  0  0  0  0
   -6.2407    0.9017   -1.6725 C   0  0  0  0  0  0  0  0  0  0  0  0
   -4.4023    0.4362   -0.0479 C   0  0  0  0  0  0  0  0  0  0  0  0
    2.1894    0.9747    2.1895 C   0  0  0  0  0  0  0  0  0  0  0  0
    3.5276    1.0095    1.8606 C   0  0  0  0  0  0  0  0  0  0  0  0
    3.9804    0.5419    0.6472 C   0  0  0  0  0  0  0  0  0  0  0  0
    5.3861    0.5701    0.2824 C   0  0  0  0  0  0  0  0  0  0  0  0
    6.4413    1.0374    1.0343 C   0  0  0  0  0  0  0  0  0  0  0  0
    7.5479    0.8739    0.3203 N   0  0  0  0  0  0  0  0  0  0  0  0
    7.1763    0.3185   -0.8430 C   0  0  0  0  0  0  0  0  0  0  0  0
    5.8799    0.1428   -0.8506 O   0  0  0  0  0  0  0  0  0  0  0  0
    1.7645   -0.1988   -2.6064 H   0  0  0  0  0  0  0  0  0  0  0  0
    3.0015   -1.2591   -3.3032 H   0  0  0  0  0  0  0  0  0  0  0  0
    1.9799   -1.8167   -1.9134 H   0  0  0  0  0  0  0  0  0  0  0  0
    1.0101   -0.3981   -0.6057 H   0  0  0  0  0  0  0  0  0  0  0  0
   -0.3493    0.8668    2.7176 H   0  0  0  0  0  0  0  0  0  0  0  0
   -2.6723    0.4638    2.5009 H   0  0  0  0  0  0  0  0  0  0  0  0
   -3.5982   -2.4281    1.5367 H   0  0  0  0  0  0  0  0  0  0  0  0
   -5.5430   -3.1957    0.2319 H   0  0  0  0  0  0  0  0  0  0  0  0
   -6.7165   -1.6870   -1.2031 H   0  0  0  0  0  0  0  0  0  0  0  0
   -5.5722    1.2621   -2.5080 H   0  0  0  0  0  0  0  0  0  0  0  0
   -7.1126    0.3920   -2.0852 H   0  0  0  0  0  0  0  0  0  0  0  0
   -6.5378    1.8310   -1.1152 H   0  0  0  0  0  0  0  0  0  0  0  0
   -4.0576    1.4601   -0.1083 H   0  0  0  0  0  0  0  0  0  0  0  0
    1.8343    1.3453    3.1501 H   0  0  0  0  0  0  0  0  0  0  0  0
    4.2219    1.4149    2.5803 H   0  0  0  0  0  0  0  0  0  0  0  0
    6.3044    1.4527    2.0309 H   0  0  0  0  0  0  0  0  0  0  0  0
    7.9078    0.0783   -1.6187 H   0  0  0  0  0  0  0  0  0  0  0  0
  1  2  1  0
  2  3  1  0
  3  4  2  0
  4  5  1  0
  5  6  1  0
  6  7  1  0
  7  8  2  0
  7  9  1  0
  9 10  1  0
 10 11  2  0
 11 12  1  0
 12 13  2  0
 13 14  1  0
 14 15  1  0
 14 16  2  0
  5 17  2  0
 17 18  1  0
 18 19  2  0
 19 20  1  0
 20 21  2  0
 21 22  1  0
 22 23  2  0
 23 24  1  0
 19  3  1  0
 24 20  1  0
 16 10  1  0
  1 25  1  0
  1 26  1  0
  1 27  1  0
  4 28  1  0
  6 29  1  0
  9 30  1  0
 11 31  1  0
 12 32  1  0
 13 33  1  0
 15 34  1  0
 15 35  1  0
 15 36  1  0
 16 37  1  0
 17 38  1  0
 18 39  1  0
 21 40  1  0
 23 41  1  0
M  END
$$$$
