
     RDKit          3D

 39 42  0  0  0  0  0  0  0  0999 V2000
   -1.6681    2.4481    2.8756 N   0  0  0  0  0  0  0  0  0  0  0  0
   -1.4040    1.3436    2.0508 C   0  0  0  0  0  0  0  0  0  0  0  0
   -0.8655    1.3602    0.9153 N   0  0  0  0  0  0  0  0  0  0  0  0
   -0.5621    0.2910    0.0154 C   0  0  1  0  0  0  0  0  0  0  0  0
   -1.8336    0.0310   -0.7154 C   0  0  0  0  0  0  0  0  0  0  0  0
   -2.4418   -1.2072   -0.6774 C   0  0  0  0  0  0  0  0  0  0  0  0
   -3.6231   -1.4380   -1.3727 C   0  0  0  0  0  0  0  0  0  0  0  0
   -4.1842   -0.4143   -2.1037 C   0  0  0  0  0  0  0  0  0  0  0  0
   -5.3369   -0.5981   -2.7972 F   0  0  0  0  0  0  0  0  0  0  0  0
   -3.5712    0.8254   -2.1385 C   0  0  0  0  0  0  0  0  0  0  0  0
   -2.4023    1.0641   -1.4539 C   0  0  0  0  0  0  0  0  0  0  0  0
   -1.8272    2.3024   -1.4927 F   0  0  0  0  0  0  0  0  0  0  0  0
    0.5335    0.8010   -0.8919 C   0  0  0  0  0  0  0  0  0  0  0  0
    1.2432   -0.2226   -1.5164 O   0  0  0  0  0  0  0  0  0  0  0  0
    2.1492   -0.7242   -0.5821 C   0  0  1  0  0  0  0  0  0  0  0  0
    3.4020    0.0254   -0.4979 C   0  0  0  0  0  0  0  0  0  0  0  0
    4.6490   -0.4857   -0.4464 N   0  0  0  0  0  0  0  0  0  0  0  0
    5.5225    0.5276   -0.3750 C   0  0  0  0  0  0  0  0  0  0  0  0
    4.7936    1.6782   -0.3832 C   0  0  0  0  0  0  0  0  0  0  0  0
    3.5416    1.3268   -0.4571 O   0  0  0  0  0  0  0  0  0  0  0  0
    1.5079   -0.7716    0.7844 C   0  0  0  0  0  0  0  0  0  0  0  0
   -0.0229   -0.9467    0.6353 C   0  0  1  0  0  0  0  0  0  0  0  0
   -0.5485   -1.3734    1.9324 C   0  0  0  0  0  0  0  0  0  0  0  0
   -1.8559   -0.3182    2.6102 S   0  0  0  0  0  0  0  0  0  0  0  0
   -2.5249    2.4511    3.4596 H   0  0  0  0  0  0  0  0  0  0  0  0
   -1.0298    3.2628    2.9178 H   0  0  0  0  0  0  0  0  0  0  0  0
   -2.0375   -2.0566   -0.1055 H   0  0  0  0  0  0  0  0  0  0  0  0
   -4.1095   -2.4035   -1.3511 H   0  0  0  0  0  0  0  0  0  0  0  0
   -3.9896    1.6627   -2.7097 H   0  0  0  0  0  0  0  0  0  0  0  0
    0.2274    1.4910   -1.6690 H   0  0  0  0  0  0  0  0  0  0  0  0
    1.2197    1.4042   -0.2215 H   0  0  0  0  0  0  0  0  0  0  0  0
    2.3569   -1.7671   -0.8967 H   0  0  0  0  0  0  0  0  0  0  0  0
    6.6133    0.4133   -0.3214 H   0  0  0  0  0  0  0  0  0  0  0  0
    5.2426    2.6711   -0.3344 H   0  0  0  0  0  0  0  0  0  0  0  0
    1.8481   -1.7052    1.2745 H   0  0  0  0  0  0  0  0  0  0  0  0
    1.7579    0.0627    1.4309 H   0  0  0  0  0  0  0  0  0  0  0  0
   -0.0899   -1.7769   -0.0869 H   0  0  0  0  0  0  0  0  0  0  0  0
    0.2511   -1.3803    2.7369 H   0  0  0  0  0  0  0  0  0  0  0  0
   -0.9313   -2.4128    1.9586 H   0  0  0  0  0  0  0  0  0  0  0  0
  1  2  1  0
  2  3  2  0
  3  4  1  0
  4  5  1  6
  5  6  2  0
  6  7  1  0
  7  8  2  0
  8  9  1  0
  8 10  1  0
 10 11  2  0
 11 12  1  0
  4 13  1  0
 13 14  1  0
 14 15  1  0
 15 16  1  0
 16 17  2  0
 17 18  1  0
 18 19  2  0
 19 20  1  0
 15 21  1  0
 21 22  1  0
 22 23  1  0
 23 24  1  0
 24  2  1  0
 22  4  1  0
 11  5  1  0
 20 16  1  0
  1 25  1  0
  1 26  1  0
  6 27  1  0
  7 28  1  0
 10 29  1  0
 13 30  1  0
 13 31  1  0
 15 32  1  6
 18 33  1  0
 19 34  1  0
 21 35  1  0
 21 36  1  0
 22 37  1  6
 23 38  1  0
 23 39  1  0
M  END
$$$$
