
     RDKit          3D

 43 46  0  0  0  0  0  0  0  0999 V2000
   -5.2454    2.8838    0.4588 C   0  0  0  0  0  0  0  0  0  0  0  0
   -4.9182    1.4375    0.4000 C   0  0  0  0  0  0  0  0  0  0  0  0
   -5.7459    0.3978    0.4803 N   0  0  0  0  0  0  0  0  0  0  0  0
   -5.0309   -0.6969    0.3822 N   0  0  0  0  0  0  0  0  0  0  0  0
   -3.7132   -0.4181    0.2350 C   0  0  0  0  0  0  0  0  0  0  0  0
   -2.6342   -1.4360    0.0388 C   0  0  0  0  0  0  0  0  0  0  0  0
   -2.9543   -2.7504   -0.1280 C   0  0  0  0  0  0  0  0  0  0  0  0
   -4.3853   -3.2850   -0.0186 C   0  0  0  0  0  0  0  0  0  0  0  0
   -1.9742   -3.6451   -0.3970 C   0  0  0  0  0  0  0  0  0  0  0  0
   -0.5030   -2.5955   -0.4196 S   0  0  0  0  0  0  0  0  0  0  0  0
   -1.3488   -1.1043   -0.0711 C   0  0  0  0  0  0  0  0  0  0  0  0
   -0.6010    0.1458    0.0593 N   0  0  0  0  0  0  0  0  0  0  0  0
    0.7734    0.1892   -0.3225 C   0  0  0  0  0  0  0  0  0  0  0  0
    1.3105   -0.8468   -0.7620 O   0  0  0  0  0  0  0  0  0  0  0  0
    1.5647    1.4569   -0.2001 C   0  0  0  0  0  0  0  0  0  0  0  0
    2.9560    1.2413   -0.6635 C   0  0  0  0  0  0  0  0  0  0  0  0
    3.3426    1.7178   -1.8862 C   0  0  0  0  0  0  0  0  0  0  0  0
    4.6523    1.5056   -2.3017 C   0  0  0  0  0  0  0  0  0  0  0  0
    5.5469    0.8358   -1.5146 C   0  0  0  0  0  0  0  0  0  0  0  0
    5.1375    0.3651   -0.2888 C   0  0  0  0  0  0  0  0  0  0  0  0
    6.0451   -0.2850    0.4487 N   0  0  0  0  0  0  0  0  0  0  0  0
    5.7322   -0.7770    1.6545 C   0  0  0  0  0  0  0  0  0  0  0  0
    4.4535   -0.5935    2.1083 C   0  0  0  0  0  0  0  0  0  0  0  0
    3.4946    0.0714    1.3738 C   0  0  0  0  0  0  0  0  0  0  0  0
    3.8390    0.5656    0.1433 C   0  0  0  0  0  0  0  0  0  0  0  0
   -3.6591    0.8949    0.2468 N   0  0  0  0  0  0  0  0  0  0  0  0
   -6.2623    2.9840   -0.0192 H   0  0  0  0  0  0  0  0  0  0  0  0
   -4.5629    3.4656   -0.1637 H   0  0  0  0  0  0  0  0  0  0  0  0
   -5.2948    3.2607    1.5070 H   0  0  0  0  0  0  0  0  0  0  0  0
   -4.7832   -2.9662    0.9887 H   0  0  0  0  0  0  0  0  0  0  0  0
   -4.4030   -4.3668   -0.0235 H   0  0  0  0  0  0  0  0  0  0  0  0
   -4.9634   -2.7670   -0.7824 H   0  0  0  0  0  0  0  0  0  0  0  0
   -1.9796   -4.7266   -0.5697 H   0  0  0  0  0  0  0  0  0  0  0  0
   -0.9840    0.9824    0.4375 H   0  0  0  0  0  0  0  0  0  0  0  0
    1.0672    2.2445   -0.8100 H   0  0  0  0  0  0  0  0  0  0  0  0
    1.5001    1.7566    0.8644 H   0  0  0  0  0  0  0  0  0  0  0  0
    2.6692    2.2534   -2.5433 H   0  0  0  0  0  0  0  0  0  0  0  0
    4.9746    1.8779   -3.2697 H   0  0  0  0  0  0  0  0  0  0  0  0
    6.5554    0.6994   -1.8902 H   0  0  0  0  0  0  0  0  0  0  0  0
    6.4829   -1.3048    2.2446 H   0  0  0  0  0  0  0  0  0  0  0  0
    4.2063   -0.9959    3.0885 H   0  0  0  0  0  0  0  0  0  0  0  0
    2.4858    0.2098    1.7442 H   0  0  0  0  0  0  0  0  0  0  0  0
   -2.8433    1.5089    0.1407 H   0  0  0  0  0  0  0  0  0  0  0  0
  1  2  1  0
  2  3  2  0
  3  4  1  0
  4  5  2  0
  5  6  1  0
  6  7  1  0
  7  8  1  0
  7  9  2  0
  9 10  1  0
 10 11  1  0
 11 12  1  0
 12 13  1  0
 13 14  2  0
 13 15  1  0
 15 16  1  0
 16 17  2  0
 17 18  1  0
 18 19  2  0
 19 20  1  0
 20 21  2  0
 21 22  1  0
 22 23  2  0
 23 24  1  0
 24 25  2  0
  5 26  1  0
 26  2  1  0
 11  6  2  0
 25 16  1  0
 25 20  1  0
  1 27  1  0
  1 28  1  0
  1 29  1  0
  8 30  1  0
  8 31  1  0
  8 32  1  0
  9 33  1  0
 12 34  1  0
 15 35  1  0
 15 36  1  0
 17 37  1  0
 18 38  1  0
 19 39  1  0
 22 40  1  0
 23 41  1  0
 24 42  1  0
 26 43  1  0
M  END
$$$$
