
     RDKit          3D

 51 53  0  0  0  0  0  0  0  0999 V2000
    7.4218   -1.5530   -1.2155 C   0  0  0  0  0  0  0  0  0  0  0  0
    6.5687   -0.4555   -1.2273 O   0  0  0  0  0  0  0  0  0  0  0  0
    5.3389   -0.7419   -0.6331 C   0  0  0  0  0  0  0  0  0  0  0  0
    4.4980    0.4910   -0.6942 C   0  0  2  0  0  0  0  0  0  0  0  0
    5.1109    1.5389    0.2427 C   0  0  0  0  0  0  0  0  0  0  0  0
    3.9857    2.5500    0.2902 C   0  0  0  0  0  0  0  0  0  0  0  0
    2.7555    1.7160    0.1458 C   0  0  0  0  0  0  0  0  0  0  0  0
    3.1955    0.3434   -0.1158 N   0  0  0  0  0  0  0  0  0  0  0  0
    2.0545   -0.3335   -1.2180 S   0  0  0  0  0  6  0  0  0  0  0  0
    2.4520   -1.7711   -1.4806 O   0  0  0  0  0  0  0  0  0  0  0  0
    2.0448    0.3917   -2.5135 O   0  0  0  0  0  0  0  0  0  0  0  0
    0.4502   -0.3751   -0.5195 C   0  0  0  0  0  0  0  0  0  0  0  0
   -0.4063    0.6863   -0.6783 C   0  0  0  0  0  0  0  0  0  0  0  0
   -1.6817    0.7087   -0.1505 C   0  0  0  0  0  0  0  0  0  0  0  0
   -2.9052    2.3859   -0.3939 I   0  0  0  0  0  0  0  0  0  0  0  0
   -2.1190   -0.3981    0.5755 C   0  0  0  0  0  0  0  0  0  0  0  0
   -1.2312   -1.4704    0.7277 C   0  0  0  0  0  0  0  0  0  0  0  0
    0.0429   -1.4791    0.1943 C   0  0  0  0  0  0  0  0  0  0  0  0
   -1.9150   -2.5022    1.5358 C   0  0  0  0  0  0  0  0  0  0  0  0
   -1.3949   -3.6113    1.8659 O   0  0  0  0  0  0  0  0  0  0  0  0
   -3.2202   -2.0055    1.8481 C   0  0  0  0  0  0  0  0  0  0  0  0
   -4.1400   -2.5324    2.5062 O   0  0  0  0  0  0  0  0  0  0  0  0
   -3.3389   -0.6835    1.2389 N   0  0  0  0  0  0  0  0  0  0  0  0
   -4.5546    0.1005    1.3772 C   0  0  0  0  0  0  0  0  0  0  0  0
   -5.5018   -0.2918    0.2404 C   0  0  0  0  0  0  0  0  0  0  0  0
   -6.8246    0.3853    0.3118 C   0  0  0  0  0  0  0  0  0  0  0  0
   -6.8526    1.8579    0.2127 C   0  0  0  0  0  0  0  0  0  0  0  0
   -6.3791    2.3511   -0.9947 O   0  0  0  0  0  0  0  0  0  0  0  0
    6.9982   -2.4193   -1.7621 H   0  0  0  0  0  0  0  0  0  0  0  0
    7.7030   -1.8215   -0.1761 H   0  0  0  0  0  0  0  0  0  0  0  0
    8.3536   -1.2350   -1.7279 H   0  0  0  0  0  0  0  0  0  0  0  0
    5.4299   -1.0906    0.3952 H   0  0  0  0  0  0  0  0  0  0  0  0
    4.8107   -1.5517   -1.2109 H   0  0  0  0  0  0  0  0  0  0  0  0
    4.4384    0.9128   -1.7170 H   0  0  0  0  0  0  0  0  0  0  0  0
    6.0479    1.9353   -0.1387 H   0  0  0  0  0  0  0  0  0  0  0  0
    5.1718    1.0684    1.2430 H   0  0  0  0  0  0  0  0  0  0  0  0
    4.1384    3.2222   -0.6040 H   0  0  0  0  0  0  0  0  0  0  0  0
    4.0117    3.1701    1.2054 H   0  0  0  0  0  0  0  0  0  0  0  0
    2.1391    1.7641    1.0518 H   0  0  0  0  0  0  0  0  0  0  0  0
    2.1967    2.0868   -0.7582 H   0  0  0  0  0  0  0  0  0  0  0  0
   -0.0932    1.5484   -1.2334 H   0  0  0  0  0  0  0  0  0  0  0  0
    0.6729   -2.3418    0.3519 H   0  0  0  0  0  0  0  0  0  0  0  0
   -5.0860   -0.1896    2.3332 H   0  0  0  0  0  0  0  0  0  0  0  0
   -4.4227    1.1777    1.3347 H   0  0  0  0  0  0  0  0  0  0  0  0
   -5.6805   -1.3956    0.2588 H   0  0  0  0  0  0  0  0  0  0  0  0
   -5.0223   -0.0345   -0.7217 H   0  0  0  0  0  0  0  0  0  0  0  0
   -7.4195   -0.0186   -0.5648 H   0  0  0  0  0  0  0  0  0  0  0  0
   -7.3278    0.0948    1.2681 H   0  0  0  0  0  0  0  0  0  0  0  0
   -7.9343    2.1779    0.2888 H   0  0  0  0  0  0  0  0  0  0  0  0
   -6.3642    2.3833    1.0618 H   0  0  0  0  0  0  0  0  0  0  0  0
   -6.2163    1.6560   -1.6565 H   0  0  0  0  0  0  0  0  0  0  0  0
  1  2  1  0
  2  3  1  0
  3  4  1  0
  4  5  1  0
  5  6  1  0
  6  7  1  0
  7  8  1  0
  8  9  1  0
  9 10  2  0
  9 11  2  0
  9 12  1  0
 12 13  2  0
 13 14  1  0
 14 15  1  0
 14 16  2  0
 16 17  1  0
 17 18  2  0
 17 19  1  0
 19 20  2  0
 19 21  1  0
 21 22  2  0
 21 23  1  0
 23 24  1  0
 24 25  1  0
 25 26  1  0
 26 27  1  0
 27 28  1  0
  8  4  1  0
 18 12  1  0
 23 16  1  0
  1 29  1  0
  1 30  1  0
  1 31  1  0
  3 32  1  0
  3 33  1  0
  4 34  1  6
  5 35  1  0
  5 36  1  0
  6 37  1  0
  6 38  1  0
  7 39  1  0
  7 40  1  0
 13 41  1  0
 18 42  1  0
 24 43  1  0
 24 44  1  0
 25 45  1  0
 25 46  1  0
 26 47  1  0
 26 48  1  0
 27 49  1  0
 27 50  1  0
 28 51  1  0
M  END
$$$$
