
     RDKit          3D

 93 97  0  0  0  0  0  0  0  0999 V2000
   -4.7707   -2.5762   -2.1371 C   0  0  1  0  0  0  0  0  0  0  0  0
   -3.3497   -3.1031   -2.0110 C   0  0  0  0  0  0  0  0  0  0  0  0
   -5.7550   -3.4410   -1.4023 C   0  0  0  0  0  0  0  0  0  0  0  0
   -7.1499   -2.8779   -1.5579 C   0  0  0  0  0  0  0  0  0  0  0  0
   -4.8552   -1.1994   -1.5218 C   0  0  0  0  0  0  0  0  0  0  0  0
   -5.1987   -0.1860   -2.1996 O   0  0  0  0  0  0  0  0  0  0  0  0
   -4.5508   -1.0251   -0.1779 O   0  0  0  0  0  0  0  0  0  0  0  0
   -4.6273    0.2612    0.3975 C   0  0  1  0  0  0  0  0  0  0  0  0
   -5.8063    0.2731    1.3634 C   0  0  0  0  0  0  0  0  0  0  0  0
   -5.9859    1.7469    1.7321 C   0  0  1  0  0  0  0  0  0  0  0  0
   -7.3029    2.0115    2.4028 C   0  0  0  0  0  0  0  0  0  0  0  0
   -4.8136    2.0666    2.6221 C   0  0  0  0  0  0  0  0  0  0  0  0
   -3.6737    1.5612    2.1868 C   0  0  0  0  0  0  0  0  0  0  0  0
   -2.5027    1.8615    3.0486 C   0  0  0  0  0  0  0  0  0  0  0  0
   -1.5692    0.9150    3.2894 C   0  0  0  0  0  0  0  0  0  0  0  0
   -1.8818   -0.3622    2.6117 C   0  0  2  0  0  0  0  0  0  0  0  0
   -0.7288   -1.2930    2.8748 C   0  0  0  0  0  0  0  0  0  0  0  0
   -2.3068   -0.2804    1.2027 C   0  0  2  0  0  0  0  0  0  0  0  0
   -1.1925   -0.1861    0.1894 C   0  0  0  0  0  0  0  0  0  0  0  0
   -0.2934    0.9899    0.3305 C   0  0  0  0  0  0  0  0  0  0  0  0
    0.7785    0.9800   -0.7243 C   0  0  1  0  0  0  0  0  0  0  0  0
    0.2960    1.0226   -2.1277 C   0  0  0  0  0  0  0  0  0  0  0  0
   -0.0059    2.4118   -2.6335 C   0  0  1  0  0  0  0  0  0  0  0  0
   -0.7033    3.2049   -1.7564 O   0  0  0  0  0  0  0  0  0  0  0  0
    1.3549    3.0967   -2.8283 C   0  0  0  0  0  0  0  0  0  0  0  0
    1.9316    3.1154   -1.4345 C   0  0  0  0  0  0  0  0  0  0  0  0
    2.5876    4.1670   -1.1462 O   0  0  0  0  0  0  0  0  0  0  0  0
    1.7550    2.0292   -0.5000 N   0  0  0  0  0  0  0  0  0  0  0  0
    2.6517    2.0974    0.6410 C   0  0  0  0  0  0  0  0  0  0  0  0
    3.8916    1.3382    0.4074 C   0  0  0  0  0  0  0  0  0  0  0  0
    5.0986    1.7383   -0.1752 C   0  0  0  0  0  0  0  0  0  0  0  0
    6.1687    0.8821   -0.3181 C   0  0  0  0  0  0  0  0  0  0  0  0
    6.0858   -0.4271    0.1181 C   0  0  0  0  0  0  0  0  0  0  0  0
    4.9241   -0.8826    0.7012 C   0  0  0  0  0  0  0  0  0  0  0  0
    3.8789    0.0023    0.8250 C   0  0  0  0  0  0  0  0  0  0  0  0
    7.2103   -1.2074   -0.0768 C   0  0  0  0  0  0  0  0  0  0  0  0
    7.0385   -2.6058    0.4373 C   0  0  0  0  0  0  0  0  0  0  0  0
    6.2486   -3.2924   -0.4477 O   0  0  0  0  0  0  0  0  0  0  0  0
    8.3901   -0.7507   -0.6769 C   0  0  0  0  0  0  0  0  0  0  0  0
    9.2946   -1.6607   -0.7471 O   0  0  0  0  0  0  0  0  0  0  0  0
   10.4859   -2.1578   -1.0608 C   0  0  0  0  0  0  0  0  0  0  0  0
    8.3693    0.5725   -1.0778 C   0  0  0  0  0  0  0  0  0  0  0  0
    7.2852    1.4442   -0.9255 C   0  0  0  0  0  0  0  0  0  0  0  0
   -3.3524    0.7508    0.9700 C   0  0  1  0  0  0  0  0  0  0  0  0
   -4.9719   -2.4979   -3.2121 H   0  0  0  0  0  0  0  0  0  0  0  0
   -2.6344   -2.4016   -2.4461 H   0  0  0  0  0  0  0  0  0  0  0  0
   -3.3292   -4.0553   -2.5962 H   0  0  0  0  0  0  0  0  0  0  0  0
   -3.1166   -3.3205   -0.9590 H   0  0  0  0  0  0  0  0  0  0  0  0
   -5.6990   -4.4764   -1.7904 H   0  0  0  0  0  0  0  0  0  0  0  0
   -5.5089   -3.3988   -0.3109 H   0  0  0  0  0  0  0  0  0  0  0  0
   -7.6600   -2.7761   -0.5639 H   0  0  0  0  0  0  0  0  0  0  0  0
   -7.8070   -3.6169   -2.1046 H   0  0  0  0  0  0  0  0  0  0  0  0
   -7.1852   -1.8862   -2.0142 H   0  0  0  0  0  0  0  0  0  0  0  0
   -4.9445    0.9831   -0.4020 H   0  0  0  0  0  0  0  0  0  0  0  0
   -6.7049    0.0121    0.7716 H   0  0  0  0  0  0  0  0  0  0  0  0
   -5.6428   -0.3246    2.2637 H   0  0  0  0  0  0  0  0  0  0  0  0
   -5.9210    2.3773    0.8318 H   0  0  0  0  0  0  0  0  0  0  0  0
   -7.3442    3.0708    2.6613 H   0  0  0  0  0  0  0  0  0  0  0  0
   -8.0872    1.7783    1.6639 H   0  0  0  0  0  0  0  0  0  0  0  0
   -7.4246    1.3272    3.2731 H   0  0  0  0  0  0  0  0  0  0  0  0
   -4.9375    2.6476    3.5009 H   0  0  0  0  0  0  0  0  0  0  0  0
   -2.4218    2.8570    3.4845 H   0  0  0  0  0  0  0  0  0  0  0  0
   -0.7134    1.1291    3.9150 H   0  0  0  0  0  0  0  0  0  0  0  0
   -2.7420   -0.8134    3.1944 H   0  0  0  0  0  0  0  0  0  0  0  0
    0.2566   -0.8014    2.8851 H   0  0  0  0  0  0  0  0  0  0  0  0
   -0.8388   -1.8120    3.8588 H   0  0  0  0  0  0  0  0  0  0  0  0
   -0.6871   -2.1004    2.1101 H   0  0  0  0  0  0  0  0  0  0  0  0
   -2.8070   -1.2718    0.9462 H   0  0  0  0  0  0  0  0  0  0  0  0
   -1.7326   -0.0523   -0.7963 H   0  0  0  0  0  0  0  0  0  0  0  0
   -0.6571   -1.1466    0.0528 H   0  0  0  0  0  0  0  0  0  0  0  0
   -0.8633    1.9412    0.2037 H   0  0  0  0  0  0  0  0  0  0  0  0
    0.1930    1.0808    1.3240 H   0  0  0  0  0  0  0  0  0  0  0  0
    1.3695    0.0227   -0.5835 H   0  0  0  0  0  0  0  0  0  0  0  0
    1.1545    0.6678   -2.7745 H   0  0  0  0  0  0  0  0  0  0  0  0
   -0.5450    0.3814   -2.3612 H   0  0  0  0  0  0  0  0  0  0  0  0
   -0.5757    2.3221   -3.5586 H   0  0  0  0  0  0  0  0  0  0  0  0
   -1.6363    3.2774   -2.0311 H   0  0  0  0  0  0  0  0  0  0  0  0
    1.1956    4.1120   -3.2049 H   0  0  0  0  0  0  0  0  0  0  0  0
    1.9362    2.4412   -3.4898 H   0  0  0  0  0  0  0  0  0  0  0  0
    2.1681    1.6862    1.5577 H   0  0  0  0  0  0  0  0  0  0  0  0
    2.8634    3.1603    0.8960 H   0  0  0  0  0  0  0  0  0  0  0  0
    5.0597    2.7945   -0.4863 H   0  0  0  0  0  0  0  0  0  0  0  0
    4.8635   -1.8932    1.0349 H   0  0  0  0  0  0  0  0  0  0  0  0
    2.9781   -0.4104    1.2958 H   0  0  0  0  0  0  0  0  0  0  0  0
    8.0605   -3.0501    0.4354 H   0  0  0  0  0  0  0  0  0  0  0  0
    6.6912   -2.6342    1.4844 H   0  0  0  0  0  0  0  0  0  0  0  0
    6.5398   -4.2519   -0.4397 H   0  0  0  0  0  0  0  0  0  0  0  0
   10.5992   -3.2797   -0.9840 H   0  0  0  0  0  0  0  0  0  0  0  0
   11.3644   -1.7522   -0.4923 H   0  0  0  0  0  0  0  0  0  0  0  0
   10.7357   -1.9079   -2.1383 H   0  0  0  0  0  0  0  0  0  0  0  0
    9.2989    0.8935   -1.5387 H   0  0  0  0  0  0  0  0  0  0  0  0
    7.3685    2.4615   -1.2718 H   0  0  0  0  0  0  0  0  0  0  0  0
   -2.9068    1.4810    0.2177 H   0  0  0  0  0  0  0  0  0  0  0  0
  1  2  1  0
  1  3  1  0
  3  4  1  0
  1  5  1  0
  5  6  2  0
  5  7  1  0
  7  8  1  0
  8  9  1  0
  9 10  1  0
 10 11  1  0
 10 12  1  0
 12 13  2  0
 13 14  1  0
 14 15  2  0
 15 16  1  0
 16 17  1  0
 16 18  1  0
 18 19  1  0
 19 20  1  0
 20 21  1  0
 21 22  1  0
 22 23  1  0
 23 24  1  0
 23 25  1  0
 25 26  1  0
 26 27  2  0
 26 28  1  0
 28 29  1  0
 29 30  1  0
 30 31  2  0
 31 32  1  0
 32 33  2  0
 33 34  1  0
 34 35  2  0
 33 36  1  0
 36 37  1  0
 37 38  1  0
 36 39  2  0
 39 40  1  0
 40 41  1  0
 39 42  1  0
 42 43  2  0
 18 44  1  0
 44  8  1  0
 44 13  1  0
 28 21  1  0
 35 30  1  0
 43 32  1  0
  1 45  1  6
  2 46  1  0
  2 47  1  0
  2 48  1  0
  3 49  1  0
  3 50  1  0
  4 51  1  0
  4 52  1  0
  4 53  1  0
  8 54  1  6
  9 55  1  0
  9 56  1  0
 10 57  1  6
 11 58  1  0
 11 59  1  0
 11 60  1  0
 12 61  1  0
 14 62  1  0
 15 63  1  0
 16 64  1  1
 17 65  1  0
 17 66  1  0
 17 67  1  0
 18 68  1  6
 19 69  1  0
 19 70  1  0
 20 71  1  0
 20 72  1  0
 21 73  1  6
 22 74  1  0
 22 75  1  0
 23 76  1  6
 24 77  1  0
 25 78  1  0
 25 79  1  0
 29 80  1  0
 29 81  1  0
 31 82  1  0
 34 83  1  0
 35 84  1  0
 37 85  1  0
 37 86  1  0
 38 87  1  0
 41 88  1  0
 41 89  1  0
 41 90  1  0
 42 91  1  0
 43 92  1  0
 44 93  1  6
M  END
$$$$
