
     RDKit          3D

 44 47  0  0  0  0  0  0  0  0999 V2000
   -0.9036    1.5925    5.2875 N   0  0  0  0  0  0  0  0  0  0  0  0
   -0.4519    1.2820    4.2326 C   0  0  0  0  0  0  0  0  0  0  0  0
    0.0830    0.8841    2.9550 C   0  0  0  0  0  0  0  0  0  0  0  0
    1.4166    0.5886    2.8738 N   0  0  0  0  0  0  0  0  0  0  0  0
    1.9617    0.1972    1.7192 C   0  0  0  0  0  0  0  0  0  0  0  0
    1.1476    0.0992    0.6117 C   0  0  0  0  0  0  0  0  0  0  0  0
    1.7799   -0.2937   -0.6010 N   0  0  0  0  0  0  0  0  0  0  0  0
    2.9639    0.3600   -1.0231 C   0  0  0  0  0  0  0  0  0  0  0  0
    3.6394    0.0972   -2.1812 C   0  0  0  0  0  0  0  0  0  0  0  0
    4.7912    0.7759   -2.5482 C   0  0  0  0  0  0  0  0  0  0  0  0
    5.6462    0.7443   -3.5938 N   0  0  0  0  0  0  0  0  0  0  0  0
    6.6070    1.6808   -3.3760 C   0  0  0  0  0  0  0  0  0  0  0  0
    6.3970    2.3133   -2.2246 N   0  0  0  0  0  0  0  0  0  0  0  0
    5.2907    1.7709   -1.7063 C   0  0  0  0  0  0  0  0  0  0  0  0
    4.5860    2.0095   -0.5463 C   0  0  0  0  0  0  0  0  0  0  0  0
    3.4741    1.3336   -0.2218 N   0  0  0  0  0  0  0  0  0  0  0  0
   -0.1535    0.3943    0.7200 N   0  0  0  0  0  0  0  0  0  0  0  0
   -0.7579    0.7955    1.8631 C   0  0  0  0  0  0  0  0  0  0  0  0
   -2.0837    1.0907    1.9059 O   0  0  0  0  0  0  0  0  0  0  0  0
   -3.0912    1.0615    0.9980 C   0  0  0  0  0  0  0  0  0  0  0  0
   -3.5905   -0.1903    0.4183 C   0  0  0  0  0  0  0  0  0  0  0  0
   -4.1845   -1.1664    1.4687 C   0  0  0  0  0  0  0  0  0  0  0  0
   -5.0105   -2.1568    0.6625 C   0  0  0  0  0  0  0  0  0  0  0  0
   -4.1047   -2.9554   -0.1247 N   0  0  0  0  0  0  0  0  0  0  0  0
   -3.4421   -2.1016   -1.0988 C   0  0  0  0  0  0  0  0  0  0  0  0
   -2.6392   -1.0119   -0.3793 C   0  0  0  0  0  0  0  0  0  0  0  0
    3.0375   -0.0420    1.6554 H   0  0  0  0  0  0  0  0  0  0  0  0
    1.3710   -1.0556   -1.1662 H   0  0  0  0  0  0  0  0  0  0  0  0
    3.2667   -0.6626   -2.8393 H   0  0  0  0  0  0  0  0  0  0  0  0
    7.4619    1.9245   -4.0263 H   0  0  0  0  0  0  0  0  0  0  0  0
    6.9252    3.0764   -1.7431 H   0  0  0  0  0  0  0  0  0  0  0  0
    4.8922    2.7714    0.1878 H   0  0  0  0  0  0  0  0  0  0  0  0
   -3.9984    1.5466    1.5110 H   0  0  0  0  0  0  0  0  0  0  0  0
   -2.8237    1.7300    0.1178 H   0  0  0  0  0  0  0  0  0  0  0  0
   -4.4859   -0.0189   -0.2668 H   0  0  0  0  0  0  0  0  0  0  0  0
   -3.3276   -1.6948    1.9136 H   0  0  0  0  0  0  0  0  0  0  0  0
   -4.7911   -0.5927    2.1923 H   0  0  0  0  0  0  0  0  0  0  0  0
   -5.7170   -1.5721    0.0121 H   0  0  0  0  0  0  0  0  0  0  0  0
   -5.5926   -2.7938    1.3580 H   0  0  0  0  0  0  0  0  0  0  0  0
   -4.7084   -3.6081   -0.7018 H   0  0  0  0  0  0  0  0  0  0  0  0
   -4.1451   -1.6873   -1.8109 H   0  0  0  0  0  0  0  0  0  0  0  0
   -2.7031   -2.7311   -1.6306 H   0  0  0  0  0  0  0  0  0  0  0  0
   -1.8981   -1.5232    0.2714 H   0  0  0  0  0  0  0  0  0  0  0  0
   -2.1346   -0.4099   -1.1256 H   0  0  0  0  0  0  0  0  0  0  0  0
  1  2  3  0
  2  3  1  0
  3  4  2  0
  4  5  1  0
  5  6  2  0
  6  7  1  0
  7  8  1  0
  8  9  2  0
  9 10  1  0
 10 11  1  0
 11 12  2  0
 12 13  1  0
 13 14  1  0
 14 15  1  0
 15 16  2  0
  6 17  1  0
 17 18  2  0
 18 19  1  0
 19 20  1  0
 20 21  1  0
 21 22  1  0
 22 23  1  0
 23 24  1  0
 24 25  1  0
 25 26  1  0
 18  3  1  0
 26 21  1  0
 16  8  1  0
 14 10  2  0
  5 27  1  0
  7 28  1  0
  9 29  1  0
 12 30  1  0
 13 31  1  0
 15 32  1  0
 20 33  1  0
 20 34  1  0
 21 35  1  0
 22 36  1  0
 22 37  1  0
 23 38  1  0
 23 39  1  0
 24 40  1  0
 25 41  1  0
 25 42  1  0
 26 43  1  0
 26 44  1  0
M  END
$$$$
