
     RDKit          3D

 43 45  0  0  0  0  0  0  0  0999 V2000
   -1.1390   -3.1466    0.5181 C   0  0  0  0  0  0  0  0  0  0  0  0
   -1.1636   -1.7004    0.1600 C   0  0  2  0  0  0  0  0  0  0  0  0
   -1.3127   -1.4100   -1.2964 C   0  0  0  0  0  0  0  0  0  0  0  0
   -2.0342   -0.0542   -1.3944 C   0  0  0  0  0  0  0  0  0  0  0  0
   -1.7248    0.6832   -0.1766 N   0  0  0  0  0  0  0  0  0  0  0  0
   -2.6960    1.5038    0.4416 C   0  0  0  0  0  0  0  0  0  0  0  0
   -2.4378    2.1357    1.4813 O   0  0  0  0  0  0  0  0  0  0  0  0
   -4.0557    1.6107   -0.1689 C   0  0  0  0  0  0  0  0  0  0  0  0
   -4.9036    2.4966    0.6107 C   0  0  0  0  0  0  0  0  0  0  0  0
   -5.5707    3.2113    1.2336 N   0  0  0  0  0  0  0  0  0  0  0  0
   -0.4016    0.5764    0.4137 C   0  0  0  0  0  0  0  0  0  0  0  0
   -0.0248   -0.8800    0.7204 C   0  0  2  0  0  0  0  0  0  0  0  0
    1.2481   -1.1678    0.1303 N   0  0  0  0  0  0  0  0  0  0  0  0
    1.8298   -2.5070    0.1123 C   0  0  0  0  0  0  0  0  0  0  0  0
    2.0624   -0.1778   -0.4708 C   0  0  0  0  0  0  0  0  0  0  0  0
    2.3414   -0.1778   -1.7852 N   0  0  0  0  0  0  0  0  0  0  0  0
    3.1150    0.7730   -2.3356 C   0  0  0  0  0  0  0  0  0  0  0  0
    3.6505    1.7685   -1.6184 N   0  0  0  0  0  0  0  0  0  0  0  0
    3.4022    1.8157   -0.2945 C   0  0  0  0  0  0  0  0  0  0  0  0
    3.7783    2.6585    0.6836 N   0  0  0  0  0  0  0  0  0  0  0  0
    3.2709    2.2873    1.8710 C   0  0  0  0  0  0  0  0  0  0  0  0
    2.5345    1.1500    1.6351 C   0  0  0  0  0  0  0  0  0  0  0  0
    2.6068    0.8433    0.2884 C   0  0  0  0  0  0  0  0  0  0  0  0
   -2.2025   -3.5362    0.4995 H   0  0  0  0  0  0  0  0  0  0  0  0
   -0.5934   -3.8007   -0.1687 H   0  0  0  0  0  0  0  0  0  0  0  0
   -0.8468   -3.2335    1.5837 H   0  0  0  0  0  0  0  0  0  0  0  0
   -2.0859   -1.2820    0.6710 H   0  0  0  0  0  0  0  0  0  0  0  0
   -1.9242   -2.1829   -1.8264 H   0  0  0  0  0  0  0  0  0  0  0  0
   -0.3204   -1.2760   -1.7836 H   0  0  0  0  0  0  0  0  0  0  0  0
   -3.1165   -0.2957   -1.3504 H   0  0  0  0  0  0  0  0  0  0  0  0
   -1.7630    0.4771   -2.3058 H   0  0  0  0  0  0  0  0  0  0  0  0
   -4.5372    0.6100   -0.1980 H   0  0  0  0  0  0  0  0  0  0  0  0
   -3.9277    2.0442   -1.1693 H   0  0  0  0  0  0  0  0  0  0  0  0
   -0.3371    1.1822    1.3137 H   0  0  0  0  0  0  0  0  0  0  0  0
    0.2763    1.0250   -0.3524 H   0  0  0  0  0  0  0  0  0  0  0  0
   -0.0415   -1.0510    1.8312 H   0  0  0  0  0  0  0  0  0  0  0  0
    2.9479   -2.4676    0.0996 H   0  0  0  0  0  0  0  0  0  0  0  0
    1.5410   -2.9619   -0.8577 H   0  0  0  0  0  0  0  0  0  0  0  0
    1.4458   -3.1550    0.9085 H   0  0  0  0  0  0  0  0  0  0  0  0
    3.3051    0.7239   -3.3915 H   0  0  0  0  0  0  0  0  0  0  0  0
    4.3946    3.4986    0.5155 H   0  0  0  0  0  0  0  0  0  0  0  0
    3.4217    2.8003    2.8365 H   0  0  0  0  0  0  0  0  0  0  0  0
    1.9880    0.5885    2.3849 H   0  0  0  0  0  0  0  0  0  0  0  0
  1  2  1  0
  2  3  1  0
  3  4  1  0
  4  5  1  0
  5  6  1  0
  6  7  2  0
  6  8  1  0
  8  9  1  0
  9 10  3  0
  5 11  1  0
 11 12  1  0
 12 13  1  0
 13 14  1  0
 13 15  1  0
 15 16  2  0
 16 17  1  0
 17 18  2  0
 18 19  1  0
 19 20  1  0
 20 21  1  0
 21 22  2  0
 22 23  1  0
 12  2  1  0
 23 15  1  0
 23 19  2  0
  1 24  1  0
  1 25  1  0
  1 26  1  0
  2 27  1  1
  3 28  1  0
  3 29  1  0
  4 30  1  0
  4 31  1  0
  8 32  1  0
  8 33  1  0
 11 34  1  0
 11 35  1  0
 12 36  1  1
 14 37  1  0
 14 38  1  0
 14 39  1  0
 17 40  1  0
 20 41  1  0
 21 42  1  0
 22 43  1  0
M  END
$$$$
