
     RDKit          3D

 71 74  0  0  0  0  0  0  0  0999 V2000
    7.5240   -2.0228   -0.4310 C   0  0  0  0  0  0  0  0  0  0  0  0
    6.8297   -3.0554   -1.2274 C   0  0  0  0  0  0  0  0  0  0  0  0
    7.7968   -4.2528   -1.3544 C   0  0  0  0  0  0  0  0  0  0  0  0
    5.4901   -3.5270   -0.8245 C   0  0  0  0  0  0  0  0  0  0  0  0
    4.4317   -2.5858   -0.7520 N   0  0  0  0  0  0  0  0  0  0  0  0
    4.2813   -1.5100    0.1366 C   0  0  0  0  0  0  0  0  0  0  0  0
    5.1435   -1.3295    1.0124 O   0  0  0  0  0  0  0  0  0  0  0  0
    3.1409   -0.5592    0.0953 C   0  0  0  0  0  0  0  0  0  0  0  0
    2.2876   -0.4890   -0.9629 C   0  0  0  0  0  0  0  0  0  0  0  0
    1.2423    0.4419   -0.9655 C   0  0  0  0  0  0  0  0  0  0  0  0
    1.0443    1.3093    0.0930 C   0  0  0  0  0  0  0  0  0  0  0  0
   -0.0079    2.3043    0.1308 C   0  0  0  0  0  0  0  0  0  0  0  0
    0.2560    3.6380   -0.2154 C   0  0  0  0  0  0  0  0  0  0  0  0
   -0.7509    4.5771   -0.1485 C   0  0  0  0  0  0  0  0  0  0  0  0
   -2.0283    4.2490    0.2515 C   0  0  0  0  0  0  0  0  0  0  0  0
   -3.1013    5.3044    0.3247 C   0  0  0  0  0  0  0  0  0  0  0  0
   -2.9537    6.3761    1.2433 C   0  0  0  0  0  0  0  0  0  0  0  0
   -4.4133    7.3182    1.0237 S   0  0  0  0  0  0  0  0  0  0  0  0
   -5.1408    6.3016   -0.2276 C   0  0  0  0  0  0  0  0  0  0  0  0
   -4.2265    5.2981   -0.4082 C   0  0  0  0  0  0  0  0  0  0  0  0
   -4.5160    4.2373   -1.4726 C   0  0  0  0  0  0  0  0  0  0  0  0
   -3.7592    4.5696   -2.5916 O   0  0  0  0  0  0  0  0  0  0  0  0
   -2.2733    2.9502    0.5854 C   0  0  0  0  0  0  0  0  0  0  0  0
   -1.2693    1.9713    0.5272 C   0  0  0  0  0  0  0  0  0  0  0  0
   -1.6346    0.6005    0.8620 C   0  0  0  0  0  0  0  0  0  0  0  0
   -1.0792   -0.1025    1.6889 O   0  0  0  0  0  0  0  0  0  0  0  0
   -2.7529    0.0654    0.1269 N   0  0  0  0  0  0  0  0  0  0  0  0
   -3.2833   -1.2257    0.2733 C   0  0  0  0  0  0  0  0  0  0  0  0
   -2.8070   -2.2676   -0.5009 C   0  0  0  0  0  0  0  0  0  0  0  0
   -3.3158   -3.5329   -0.4065 C   0  0  0  0  0  0  0  0  0  0  0  0
   -4.3415   -3.7373    0.5076 C   0  0  0  0  0  0  0  0  0  0  0  0
   -4.9022   -5.0809    0.6069 C   0  0  0  0  0  0  0  0  0  0  0  0
   -6.1271   -5.2303    0.9975 N   0  0  0  0  0  0  0  0  0  0  0  0
   -4.0812   -6.1956    0.2605 N   0  0  0  0  0  0  0  0  0  0  0  0
   -4.8297   -2.7248    1.2854 C   0  0  0  0  0  0  0  0  0  0  0  0
   -4.3033   -1.4596    1.1735 C   0  0  0  0  0  0  0  0  0  0  0  0
    1.9180    1.2159    1.1506 C   0  0  0  0  0  0  0  0  0  0  0  0
    1.8113    2.0668    2.3123 C   0  0  0  0  0  0  0  0  0  0  0  0
    2.5926    1.9770    3.2642 O   0  0  0  0  0  0  0  0  0  0  0  0
    0.7980    3.0203    2.3631 O   0  0  0  0  0  0  0  0  0  0  0  0
    2.9488    0.2947    1.1470 C   0  0  0  0  0  0  0  0  0  0  0  0
    8.6305   -2.0186   -0.7535 H   0  0  0  0  0  0  0  0  0  0  0  0
    7.2133   -0.9640   -0.6419 H   0  0  0  0  0  0  0  0  0  0  0  0
    7.6068   -2.2372    0.6515 H   0  0  0  0  0  0  0  0  0  0  0  0
    6.8029   -2.6560   -2.3012 H   0  0  0  0  0  0  0  0  0  0  0  0
    7.4977   -4.9379   -2.1610 H   0  0  0  0  0  0  0  0  0  0  0  0
    7.7652   -4.8128   -0.4027 H   0  0  0  0  0  0  0  0  0  0  0  0
    8.8419   -3.8640   -1.4496 H   0  0  0  0  0  0  0  0  0  0  0  0
    5.6221   -4.0947    0.1404 H   0  0  0  0  0  0  0  0  0  0  0  0
    5.2034   -4.3553   -1.5489 H   0  0  0  0  0  0  0  0  0  0  0  0
    3.6306   -2.6949   -1.4628 H   0  0  0  0  0  0  0  0  0  0  0  0
    2.4087   -1.1458   -1.7976 H   0  0  0  0  0  0  0  0  0  0  0  0
    0.5469    0.5194   -1.7913 H   0  0  0  0  0  0  0  0  0  0  0  0
    1.2651    3.8603   -0.5221 H   0  0  0  0  0  0  0  0  0  0  0  0
   -0.5440    5.6099   -0.4201 H   0  0  0  0  0  0  0  0  0  0  0  0
   -2.1091    6.5330    1.9062 H   0  0  0  0  0  0  0  0  0  0  0  0
   -6.0916    6.4677   -0.7156 H   0  0  0  0  0  0  0  0  0  0  0  0
   -5.5729    4.2689   -1.7394 H   0  0  0  0  0  0  0  0  0  0  0  0
   -4.1875    3.2465   -1.1580 H   0  0  0  0  0  0  0  0  0  0  0  0
   -4.2839    4.6715   -3.4150 H   0  0  0  0  0  0  0  0  0  0  0  0
   -3.2471    2.6513    0.9108 H   0  0  0  0  0  0  0  0  0  0  0  0
   -3.2417    0.6782   -0.5990 H   0  0  0  0  0  0  0  0  0  0  0  0
   -1.9899   -2.0382   -1.2033 H   0  0  0  0  0  0  0  0  0  0  0  0
   -2.9102   -4.3043   -1.0355 H   0  0  0  0  0  0  0  0  0  0  0  0
   -6.7205   -4.4381    1.2399 H   0  0  0  0  0  0  0  0  0  0  0  0
   -4.1411   -7.0490    0.8572 H   0  0  0  0  0  0  0  0  0  0  0  0
   -3.4285   -6.2092   -0.5478 H   0  0  0  0  0  0  0  0  0  0  0  0
   -5.6433   -2.9068    2.0044 H   0  0  0  0  0  0  0  0  0  0  0  0
   -4.6614   -0.6440    1.7692 H   0  0  0  0  0  0  0  0  0  0  0  0
    0.4617    3.4330    3.2329 H   0  0  0  0  0  0  0  0  0  0  0  0
    3.6373    0.2325    1.9989 H   0  0  0  0  0  0  0  0  0  0  0  0
  1  2  1  0
  2  3  1  0
  2  4  1  0
  4  5  1  0
  5  6  1  0
  6  7  2  0
  6  8  1  0
  8  9  2  0
  9 10  1  0
 10 11  2  0
 11 12  1  0
 12 13  2  0
 13 14  1  0
 14 15  2  0
 15 16  1  0
 16 17  2  0
 17 18  1  0
 18 19  1  0
 19 20  2  0
 20 21  1  0
 21 22  1  0
 15 23  1  0
 23 24  2  0
 24 25  1  0
 25 26  2  0
 25 27  1  0
 27 28  1  0
 28 29  2  0
 29 30  1  0
 30 31  2  0
 31 32  1  0
 32 33  2  3
 32 34  1  0
 31 35  1  0
 35 36  2  0
 11 37  1  0
 37 38  1  0
 38 39  2  0
 38 40  1  0
 37 41  2  0
 41  8  1  0
 24 12  1  0
 36 28  1  0
 20 16  1  0
  1 42  1  0
  1 43  1  0
  1 44  1  0
  2 45  1  0
  3 46  1  0
  3 47  1  0
  3 48  1  0
  4 49  1  0
  4 50  1  0
  5 51  1  0
  9 52  1  0
 10 53  1  0
 13 54  1  0
 14 55  1  0
 17 56  1  0
 19 57  1  0
 21 58  1  0
 21 59  1  0
 22 60  1  0
 23 61  1  0
 27 62  1  0
 29 63  1  0
 30 64  1  0
 33 65  1  0
 34 66  1  0
 34 67  1  0
 35 68  1  0
 36 69  1  0
 40 70  1  0
 41 71  1  0
M  END
$$$$
