
     RDKit          3D

 28 29  0  0  0  0  0  0  0  0999 V2000
   -4.9043    0.8362    1.2758 C   0  0  0  0  0  0  0  0  0  0  0  0
   -3.5839    0.9134    0.5955 C   0  0  0  0  0  0  0  0  0  0  0  0
   -3.2505   -0.1026   -0.3010 C   0  0  0  0  0  0  0  0  0  0  0  0
   -1.9973    0.1860   -0.7961 C   0  0  0  0  0  0  0  0  0  0  0  0
   -1.2529   -0.5489   -1.7244 N   0  0  0  0  0  0  0  0  0  0  0  0
    0.2893   -0.0292   -2.2185 S   0  0  0  0  0  0  0  0  0  0  0  0
    0.8462   -0.8299   -3.3512 O   0  0  0  0  0  0  0  0  0  0  0  0
    0.1031    1.3803   -2.7647 O   0  0  0  0  0  0  0  0  0  0  0  0
    1.4659    0.0702   -0.9570 C   0  0  0  0  0  0  0  0  0  0  0  0
    1.7563    1.1575   -0.1467 C   0  0  0  0  0  0  0  0  0  0  0  0
    2.7313    1.0718    0.8198 C   0  0  0  0  0  0  0  0  0  0  0  0
    3.4606   -0.0843    1.0299 C   0  0  0  0  0  0  0  0  0  0  0  0
    4.4697   -0.1767    2.0284 N   0  0  0  0  0  0  0  0  0  0  0  0
    3.1778   -1.1766    0.2251 C   0  0  0  0  0  0  0  0  0  0  0  0
    2.1989   -1.0883   -0.7441 C   0  0  0  0  0  0  0  0  0  0  0  0
   -1.6408    1.3277   -0.1952 N   0  0  0  0  0  0  0  0  0  0  0  0
   -2.5510    1.7462    0.6039 O   0  0  0  0  0  0  0  0  0  0  0  0
   -5.0059    1.6707    2.0002 H   0  0  0  0  0  0  0  0  0  0  0  0
   -4.8979   -0.1103    1.8594 H   0  0  0  0  0  0  0  0  0  0  0  0
   -5.7236    0.7819    0.5304 H   0  0  0  0  0  0  0  0  0  0  0  0
   -3.7970   -0.9832   -0.6135 H   0  0  0  0  0  0  0  0  0  0  0  0
   -1.6450   -1.4399   -2.1300 H   0  0  0  0  0  0  0  0  0  0  0  0
    1.1619    2.0299   -0.3509 H   0  0  0  0  0  0  0  0  0  0  0  0
    2.9232    1.9551    1.4326 H   0  0  0  0  0  0  0  0  0  0  0  0
    5.3550   -0.7040    1.8041 H   0  0  0  0  0  0  0  0  0  0  0  0
    4.4871    0.2088    2.9999 H   0  0  0  0  0  0  0  0  0  0  0  0
    3.7592   -2.0893    0.3969 H   0  0  0  0  0  0  0  0  0  0  0  0
    2.0646   -1.9951   -1.3085 H   0  0  0  0  0  0  0  0  0  0  0  0
  1  2  1  0
  2  3  2  0
  3  4  1  0
  4  5  1  0
  5  6  1  0
  6  7  2  0
  6  8  2  0
  6  9  1  0
  9 10  2  0
 10 11  1  0
 11 12  2  0
 12 13  1  0
 12 14  1  0
 14 15  2  0
  4 16  2  0
 16 17  1  0
 17  2  1  0
 15  9  1  0
  1 18  1  0
  1 19  1  0
  1 20  1  0
  3 21  1  0
  5 22  1  0
 10 23  1  0
 11 24  1  0
 13 25  1  0
 13 26  1  0
 14 27  1  0
 15 28  1  0
M  END
$$$$
