
     RDKit          3D

 38 41  0  0  0  0  0  0  0  0999 V2000
   -6.5574    2.2178   -0.3396 C   0  0  0  0  0  0  0  0  0  0  0  0
   -5.7896    1.5338    0.5992 O   0  0  0  0  0  0  0  0  0  0  0  0
   -4.7856    0.6477    0.3561 C   0  0  0  0  0  0  0  0  0  0  0  0
   -4.4186    0.3303   -0.9242 C   0  0  0  0  0  0  0  0  0  0  0  0
   -3.3986   -0.5701   -1.1257 C   0  0  0  0  0  0  0  0  0  0  0  0
   -2.7129   -1.1818   -0.0666 C   0  0  0  0  0  0  0  0  0  0  0  0
   -1.6713   -2.1079   -0.3365 N   0  0  0  0  0  0  0  0  0  0  0  0
   -0.3599   -1.8060    0.1355 C   0  0  0  0  0  0  0  0  0  0  0  0
    0.4368   -1.0049   -0.6931 C   0  0  0  0  0  0  0  0  0  0  0  0
    1.7064   -0.7185   -0.2463 C   0  0  0  0  0  0  0  0  0  0  0  0
    2.7007    0.0205   -0.8153 N   0  0  0  0  0  0  0  0  0  0  0  0
    3.7898    0.0393   -0.0273 C   0  0  0  0  0  0  0  0  0  0  0  0
    5.0604    0.7230   -0.2896 C   0  0  0  0  0  0  0  0  0  0  0  0
    5.3756    1.4763   -1.3967 C   0  0  0  0  0  0  0  0  0  0  0  0
    6.6491    1.9146   -1.2191 N   0  0  0  0  0  0  0  0  0  0  0  0
    7.1467    1.4872   -0.0811 N   0  0  0  0  0  0  0  0  0  0  0  0
    6.1844    0.7530    0.5042 C   0  0  0  0  0  0  0  0  0  0  0  0
    3.4574   -0.7212    1.0793 C   0  0  0  0  0  0  0  0  0  0  0  0
    2.1706   -1.1974    0.9585 C   0  0  0  0  0  0  0  0  0  0  0  0
    1.3359   -1.9805    1.7265 C   0  0  0  0  0  0  0  0  0  0  0  0
    0.0931   -2.2732    1.3111 N   0  0  0  0  0  0  0  0  0  0  0  0
   -3.0987   -0.8482    1.2139 C   0  0  0  0  0  0  0  0  0  0  0  0
   -2.3290   -1.5474    2.6201 Cl  0  0  0  0  0  0  0  0  0  0  0  0
   -4.1249    0.0579    1.4041 C   0  0  0  0  0  0  0  0  0  0  0  0
   -6.0337    3.1464   -0.6665 H   0  0  0  0  0  0  0  0  0  0  0  0
   -7.5336    2.4792    0.1621 H   0  0  0  0  0  0  0  0  0  0  0  0
   -6.7762    1.6306   -1.2554 H   0  0  0  0  0  0  0  0  0  0  0  0
   -4.9088    0.7682   -1.7979 H   0  0  0  0  0  0  0  0  0  0  0  0
   -3.0709   -0.8543   -2.1154 H   0  0  0  0  0  0  0  0  0  0  0  0
   -1.8296   -2.9941   -0.8633 H   0  0  0  0  0  0  0  0  0  0  0  0
    0.0529   -0.6399   -1.6341 H   0  0  0  0  0  0  0  0  0  0  0  0
    2.6373    0.5162   -1.7478 H   0  0  0  0  0  0  0  0  0  0  0  0
    4.7529    1.6887   -2.2453 H   0  0  0  0  0  0  0  0  0  0  0  0
    8.1184    1.6950    0.2806 H   0  0  0  0  0  0  0  0  0  0  0  0
    6.2700    0.2589    1.4508 H   0  0  0  0  0  0  0  0  0  0  0  0
    4.1306   -0.9001    1.9063 H   0  0  0  0  0  0  0  0  0  0  0  0
    1.7362   -2.3395    2.6691 H   0  0  0  0  0  0  0  0  0  0  0  0
   -4.4056    0.3005    2.4081 H   0  0  0  0  0  0  0  0  0  0  0  0
  1  2  1  0
  2  3  1  0
  3  4  2  0
  4  5  1  0
  5  6  2  0
  6  7  1  0
  7  8  1  0
  8  9  2  0
  9 10  1  0
 10 11  1  0
 11 12  1  0
 12 13  1  0
 13 14  1  0
 14 15  2  0
 15 16  1  0
 16 17  1  0
 12 18  2  0
 18 19  1  0
 19 20  1  0
 20 21  2  0
  6 22  1  0
 22 23  1  0
 22 24  2  0
 24  3  1  0
 21  8  1  0
 19 10  2  0
 17 13  2  0
  1 25  1  0
  1 26  1  0
  1 27  1  0
  4 28  1  0
  5 29  1  0
  7 30  1  0
  9 31  1  0
 11 32  1  0
 14 33  1  0
 16 34  1  0
 17 35  1  0
 18 36  1  0
 20 37  1  0
 24 38  1  0
M  END
$$$$
