
     RDKit          3D

 41 43  0  0  0  0  0  0  0  0999 V2000
   -5.4369   -2.6796   -0.9144 C   0  0  0  0  0  0  0  0  0  0  0  0
   -4.8421   -1.4151   -0.8099 O   0  0  0  0  0  0  0  0  0  0  0  0
   -3.4679   -1.2581   -0.7464 C   0  0  0  0  0  0  0  0  0  0  0  0
   -2.6180   -2.3331   -0.7823 C   0  0  0  0  0  0  0  0  0  0  0  0
   -1.2427   -2.1090   -0.7144 C   0  0  0  0  0  0  0  0  0  0  0  0
   -0.7546   -0.8242   -0.6131 C   0  0  0  0  0  0  0  0  0  0  0  0
   -1.6166    0.2397   -0.5783 C   0  0  0  0  0  0  0  0  0  0  0  0
   -2.9683    0.0255   -0.6446 C   0  0  0  0  0  0  0  0  0  0  0  0
   -0.8971    1.3835   -0.4762 C   0  0  0  0  0  0  0  0  0  0  0  0
   -1.3478    2.7914   -0.3948 C   0  0  0  0  0  0  0  0  0  0  0  0
   -1.8698    3.1521    0.9286 C   0  0  0  0  0  0  0  0  0  0  0  0
   -1.8750    2.2492    1.8230 O   0  0  0  0  0  0  0  0  0  0  0  0
   -2.3453    4.3902    1.2490 O   0  0  0  0  0  0  0  0  0  0  0  0
    0.4214    0.9833   -0.4513 C   0  0  0  0  0  0  0  0  0  0  0  0
    1.5591    1.9543   -0.4291 C   0  0  0  0  0  0  0  0  0  0  0  0
    0.5409   -0.3655   -0.5308 N   0  0  0  0  0  0  0  0  0  0  0  0
    1.6832   -1.1910   -0.4437 C   0  0  0  0  0  0  0  0  0  0  0  0
    1.5108   -2.4254   -0.7921 O   0  0  0  0  0  0  0  0  0  0  0  0
    3.0223   -0.8481   -0.0165 C   0  0  0  0  0  0  0  0  0  0  0  0
    4.1282   -1.3710   -0.6553 C   0  0  0  0  0  0  0  0  0  0  0  0
    5.3738   -1.1028   -0.1728 C   0  0  0  0  0  0  0  0  0  0  0  0
    5.5686   -0.3152    0.9489 C   0  0  0  0  0  0  0  0  0  0  0  0
    7.1540    0.0474    1.5905 Cl  0  0  0  0  0  0  0  0  0  0  0  0
    4.4715    0.2179    1.6042 C   0  0  0  0  0  0  0  0  0  0  0  0
    3.2269   -0.0744    1.0888 C   0  0  0  0  0  0  0  0  0  0  0  0
   -5.0180   -3.4120   -0.1800 H   0  0  0  0  0  0  0  0  0  0  0  0
   -5.3500   -3.0802   -1.9286 H   0  0  0  0  0  0  0  0  0  0  0  0
   -6.5186   -2.5728   -0.6443 H   0  0  0  0  0  0  0  0  0  0  0  0
   -2.9965   -3.3458   -0.8623 H   0  0  0  0  0  0  0  0  0  0  0  0
   -0.5968   -2.9799   -0.7427 H   0  0  0  0  0  0  0  0  0  0  0  0
   -3.6594    0.8539   -0.6180 H   0  0  0  0  0  0  0  0  0  0  0  0
   -2.2237    2.8583   -1.1083 H   0  0  0  0  0  0  0  0  0  0  0  0
   -0.6315    3.5324   -0.7823 H   0  0  0  0  0  0  0  0  0  0  0  0
   -3.0635    4.4667    1.9563 H   0  0  0  0  0  0  0  0  0  0  0  0
    2.4241    1.5985   -0.9778 H   0  0  0  0  0  0  0  0  0  0  0  0
    1.2354    2.8912   -1.0009 H   0  0  0  0  0  0  0  0  0  0  0  0
    1.7643    2.3362    0.5785 H   0  0  0  0  0  0  0  0  0  0  0  0
    3.9954   -1.9763   -1.5152 H   0  0  0  0  0  0  0  0  0  0  0  0
    6.2776   -1.4881   -0.6366 H   0  0  0  0  0  0  0  0  0  0  0  0
    4.5877    0.8424    2.4900 H   0  0  0  0  0  0  0  0  0  0  0  0
    2.3949    0.3534    1.6789 H   0  0  0  0  0  0  0  0  0  0  0  0
  1  2  1  0
  2  3  1  0
  3  4  2  0
  4  5  1  0
  5  6  2  0
  6  7  1  0
  7  8  2  0
  7  9  1  0
  9 10  1  0
 10 11  1  0
 11 12  2  0
 11 13  1  0
  9 14  2  0
 14 15  1  0
 14 16  1  0
 16 17  1  0
 17 18  2  0
 17 19  1  0
 19 20  2  0
 20 21  1  0
 21 22  2  0
 22 23  1  0
 22 24  1  0
 24 25  2  0
  8  3  1  0
 25 19  1  0
 16  6  1  0
  1 26  1  0
  1 27  1  0
  1 28  1  0
  4 29  1  0
  5 30  1  0
  8 31  1  0
 10 32  1  0
 10 33  1  0
 13 34  1  0
 15 35  1  0
 15 36  1  0
 15 37  1  0
 20 38  1  0
 21 39  1  0
 24 40  1  0
 25 41  1  0
M  END
$$$$
