
     RDKit          3D

 52 54  0  0  0  0  0  0  0  0999 V2000
   -9.1638    0.9025   -1.8431 N   0  0  0  0  0  0  0  0  0  0  0  0
   -8.0544    1.0666   -2.1279 C   0  0  0  0  0  0  0  0  0  0  0  0
   -6.6906    1.2559   -2.4928 C   0  0  0  0  0  0  0  0  0  0  0  0
   -6.0656    1.1779   -3.6420 C   0  0  0  0  0  0  0  0  0  0  0  0
   -4.7568    1.3521   -3.9323 C   0  0  0  0  0  0  0  0  0  0  0  0
   -3.9216    1.6802   -2.7979 C   0  0  0  0  0  0  0  0  0  0  0  0
   -2.5193    1.8376   -3.0584 C   0  0  0  0  0  0  0  0  0  0  0  0
   -2.1442    2.9282   -3.6748 O   0  0  0  0  0  0  0  0  0  0  0  0
   -1.4676    0.9747   -2.7385 N   0  0  0  0  0  0  0  0  0  0  0  0
   -1.7988   -0.2618   -2.0659 C   0  0  0  0  0  0  0  0  0  0  0  0
   -1.0661   -0.3062   -0.6909 C   0  0  0  0  0  0  0  0  0  0  0  0
    0.3611   -0.2612   -1.0046 C   0  0  0  0  0  0  0  0  0  0  0  0
    1.4121   -0.5750   -0.0821 C   0  0  0  0  0  0  0  0  0  0  0  0
    2.4256   -1.3975   -0.6290 C   0  0  0  0  0  0  0  0  0  0  0  0
    3.5236   -1.7995    0.0940 C   0  0  0  0  0  0  0  0  0  0  0  0
    3.6210   -1.3750    1.3884 C   0  0  0  0  0  0  0  0  0  0  0  0
    4.7935   -1.8426    2.1497 C   0  0  0  0  0  0  0  0  0  0  0  0
    5.7153   -2.4386    1.5664 O   0  0  0  0  0  0  0  0  0  0  0  0
    4.8684   -1.6163    3.5354 N   0  0  0  0  0  0  0  0  0  0  0  0
    5.9622   -2.0204    4.3850 C   0  0  0  0  0  0  0  0  0  0  0  0
    7.0124   -2.5762    3.8762 N   0  0  0  0  0  0  0  0  0  0  0  0
    5.8494   -1.8162    5.7741 N   0  0  0  0  0  0  0  0  0  0  0  0
    2.6772   -0.5860    1.9561 C   0  0  0  0  0  0  0  0  0  0  0  0
    1.5082   -0.1634    1.1749 C   0  0  0  0  0  0  0  0  0  0  0  0
    0.4806    0.6135    1.8398 C   0  0  0  0  0  0  0  0  0  0  0  0
    0.9648    0.8406    3.1709 F   0  0  0  0  0  0  0  0  0  0  0  0
    0.2655    1.8900    1.4688 F   0  0  0  0  0  0  0  0  0  0  0  0
   -0.6531   -0.1174    2.1757 F   0  0  0  0  0  0  0  0  0  0  0  0
    0.6478    1.0343   -1.6960 C   0  0  0  0  0  0  0  0  0  0  0  0
   -0.0811    1.1932   -3.0225 C   0  0  0  0  0  0  0  0  0  0  0  0
   -4.5291    1.7745   -1.6006 C   0  0  0  0  0  0  0  0  0  0  0  0
   -5.8430    1.5965   -1.3163 C   0  0  0  0  0  0  0  0  0  0  0  0
   -6.7277    0.9477   -4.5296 H   0  0  0  0  0  0  0  0  0  0  0  0
   -4.3165    1.2513   -4.8905 H   0  0  0  0  0  0  0  0  0  0  0  0
   -2.8639   -0.2798   -1.8229 H   0  0  0  0  0  0  0  0  0  0  0  0
   -1.5256   -1.1018   -2.6951 H   0  0  0  0  0  0  0  0  0  0  0  0
   -1.5071   -1.2232   -0.2937 H   0  0  0  0  0  0  0  0  0  0  0  0
   -1.3901    0.6444   -0.2342 H   0  0  0  0  0  0  0  0  0  0  0  0
    0.4509   -1.0214   -1.8889 H   0  0  0  0  0  0  0  0  0  0  0  0
    2.3960   -1.7662   -1.6454 H   0  0  0  0  0  0  0  0  0  0  0  0
    4.3056   -2.4302   -0.3095 H   0  0  0  0  0  0  0  0  0  0  0  0
    4.0598   -1.1196    3.9919 H   0  0  0  0  0  0  0  0  0  0  0  0
    7.1985   -2.7813    2.9311 H   0  0  0  0  0  0  0  0  0  0  0  0
    5.9466   -0.8569    6.2229 H   0  0  0  0  0  0  0  0  0  0  0  0
    5.6549   -2.5892    6.4743 H   0  0  0  0  0  0  0  0  0  0  0  0
    2.7018   -0.2194    2.9443 H   0  0  0  0  0  0  0  0  0  0  0  0
    0.3198    1.8858   -1.0774 H   0  0  0  0  0  0  0  0  0  0  0  0
    1.7357    1.1725   -1.9016 H   0  0  0  0  0  0  0  0  0  0  0  0
    0.0410    2.2755   -3.2740 H   0  0  0  0  0  0  0  0  0  0  0  0
    0.3493    0.5282   -3.7668 H   0  0  0  0  0  0  0  0  0  0  0  0
   -3.8695    2.0270   -0.7260 H   0  0  0  0  0  0  0  0  0  0  0  0
   -6.2931    1.6917   -0.3655 H   0  0  0  0  0  0  0  0  0  0  0  0
  1  2  3  0
  2  3  1  0
  3  4  2  0
  4  5  1  0
  5  6  2  0
  6  7  1  0
  7  8  2  0
  7  9  1  0
  9 10  1  0
 10 11  1  0
 11 12  1  0
 12 13  1  0
 13 14  2  0
 14 15  1  0
 15 16  2  0
 16 17  1  0
 17 18  2  0
 17 19  1  0
 19 20  1  0
 20 21  2  3
 20 22  1  0
 16 23  1  0
 23 24  2  0
 24 25  1  0
 25 26  1  0
 25 27  1  0
 25 28  1  0
 12 29  1  0
 29 30  1  0
  6 31  1  0
 31 32  2  0
 32  3  1  0
 30  9  1  0
 24 13  1  0
  4 33  1  0
  5 34  1  0
 10 35  1  0
 10 36  1  0
 11 37  1  0
 11 38  1  0
 12 39  1  0
 14 40  1  0
 15 41  1  0
 19 42  1  0
 21 43  1  0
 22 44  1  0
 22 45  1  0
 23 46  1  0
 29 47  1  0
 29 48  1  0
 30 49  1  0
 30 50  1  0
 31 51  1  0
 32 52  1  0
M  END
$$$$
