
     RDKit          3D

 40 42  0  0  0  0  0  0  0  0999 V2000
   -1.3298   -1.5875   -2.1299 C   0  0  0  0  0  0  0  0  0  0  0  0
   -1.1228   -0.3729   -1.2663 C   0  0  0  0  0  0  0  0  0  0  0  0
   -2.0400    0.2917   -0.5134 C   0  0  0  0  0  0  0  0  0  0  0  0
   -3.4479   -0.0176   -0.2367 C   0  0  0  0  0  0  0  0  0  0  0  0
   -3.6494   -0.9566    0.8411 N   0  0  0  0  0  0  0  0  0  0  0  0
   -3.7466   -0.4887    2.1359 O   0  0  0  0  0  0  0  0  0  0  0  0
   -3.7547   -2.3383    0.6513 C   0  0  0  0  0  0  0  0  0  0  0  0
   -3.7142   -2.8480   -0.4899 O   0  0  0  0  0  0  0  0  0  0  0  0
   -1.4165    1.4041    0.0884 C   0  0  0  0  0  0  0  0  0  0  0  0
   -1.8931    2.3995    0.9358 C   0  0  0  0  0  0  0  0  0  0  0  0
   -1.0734    3.4071    1.3988 C   0  0  0  0  0  0  0  0  0  0  0  0
   -1.6894    4.7877    2.5621 Br  0  0  0  0  0  0  0  0  0  0  0  0
    0.2386    3.3831    0.9840 C   0  0  0  0  0  0  0  0  0  0  0  0
    0.7156    2.3905    0.1388 C   0  0  0  0  0  0  0  0  0  0  0  0
   -0.1116    1.3784   -0.3245 C   0  0  0  0  0  0  0  0  0  0  0  0
    0.0516    0.3016   -1.1391 N   0  0  0  0  0  0  0  0  0  0  0  0
    1.5485   -0.1322   -1.8606 S   0  0  0  0  0  6  0  0  0  0  0  0
    1.3800   -1.3724   -2.6828 O   0  0  0  0  0  0  0  0  0  0  0  0
    2.0827    0.9975   -2.7213 O   0  0  0  0  0  0  0  0  0  0  0  0
    2.7610   -0.5030   -0.6483 C   0  0  0  0  0  0  0  0  0  0  0  0
    2.7362   -1.7806   -0.0822 C   0  0  0  0  0  0  0  0  0  0  0  0
    3.6585   -2.1744    0.8716 C   0  0  0  0  0  0  0  0  0  0  0  0
    4.6382   -1.2985    1.2902 C   0  0  0  0  0  0  0  0  0  0  0  0
    4.6539   -0.0412    0.7253 C   0  0  0  0  0  0  0  0  0  0  0  0
    3.7317    0.3606   -0.2322 C   0  0  0  0  0  0  0  0  0  0  0  0
   -0.9758   -2.4857   -1.6491 H   0  0  0  0  0  0  0  0  0  0  0  0
   -2.4074   -1.5706   -2.4208 H   0  0  0  0  0  0  0  0  0  0  0  0
   -0.8084   -1.4647   -3.1237 H   0  0  0  0  0  0  0  0  0  0  0  0
   -4.0225    0.9029    0.0647 H   0  0  0  0  0  0  0  0  0  0  0  0
   -3.9460   -0.4087   -1.1742 H   0  0  0  0  0  0  0  0  0  0  0  0
   -3.0565   -0.9458    2.7005 H   0  0  0  0  0  0  0  0  0  0  0  0
   -3.8753   -2.9704    1.5411 H   0  0  0  0  0  0  0  0  0  0  0  0
   -2.9195    2.3833    1.2351 H   0  0  0  0  0  0  0  0  0  0  0  0
    0.8859    4.1783    1.3493 H   0  0  0  0  0  0  0  0  0  0  0  0
    1.7364    2.4199   -0.1564 H   0  0  0  0  0  0  0  0  0  0  0  0
    1.9867   -2.4892   -0.3851 H   0  0  0  0  0  0  0  0  0  0  0  0
    3.6252   -3.1734    1.3015 H   0  0  0  0  0  0  0  0  0  0  0  0
    5.3801   -1.5911    2.0473 H   0  0  0  0  0  0  0  0  0  0  0  0
    5.4086    0.6732    1.0294 H   0  0  0  0  0  0  0  0  0  0  0  0
    3.7814    1.3520   -0.6555 H   0  0  0  0  0  0  0  0  0  0  0  0
  1  2  1  0
  2  3  2  0
  3  4  1  0
  4  5  1  0
  5  6  1  0
  5  7  1  0
  7  8  2  0
  3  9  1  0
  9 10  2  0
 10 11  1  0
 11 12  1  0
 11 13  2  0
 13 14  1  0
 14 15  2  0
 15 16  1  0
 16 17  1  0
 17 18  2  0
 17 19  2  0
 17 20  1  0
 20 21  2  0
 21 22  1  0
 22 23  2  0
 23 24  1  0
 24 25  2  0
 16  2  1  0
 25 20  1  0
 15  9  1  0
  1 26  1  0
  1 27  1  0
  1 28  1  0
  4 29  1  0
  4 30  1  0
  6 31  1  0
  7 32  1  0
 10 33  1  0
 13 34  1  0
 14 35  1  0
 21 36  1  0
 22 37  1  0
 23 38  1  0
 24 39  1  0
 25 40  1  0
M  END
$$$$
