
     RDKit          3D

 47 50  0  0  0  0  0  0  0  0999 V2000
    7.7586   -0.3922   -2.1370 C   0  0  0  0  0  0  0  0  0  0  0  0
    8.1853    0.4902   -1.0155 N   0  0  0  0  0  0  0  0  0  0  0  0
    9.4022    0.9310   -0.7232 C   0  0  0  0  0  0  0  0  0  0  0  0
    9.3255    1.7784    0.3189 N   0  0  0  0  0  0  0  0  0  0  0  0
    8.0757    1.8691    0.6859 C   0  0  0  0  0  0  0  0  0  0  0  0
    7.3099    1.0425   -0.1588 C   0  0  0  0  0  0  0  0  0  0  0  0
    5.8779    0.8965   -0.0942 C   0  0  0  0  0  0  0  0  0  0  0  0
    4.6688    0.7567   -0.0322 C   0  0  0  0  0  0  0  0  0  0  0  0
    3.2600    0.5716    0.0511 C   0  0  0  0  0  0  0  0  0  0  0  0
    2.5329    1.6298    0.6219 C   0  0  0  0  0  0  0  0  0  0  0  0
    1.1631    1.4894    0.9045 C   0  0  0  0  0  0  0  0  0  0  0  0
    0.5777    0.2504    0.5987 C   0  0  0  0  0  0  0  0  0  0  0  0
   -0.7323    0.1113    0.8946 C   0  0  0  0  0  0  0  0  0  0  0  0
   -1.3975    1.0506    1.3874 O   0  0  0  0  0  0  0  0  0  0  0  0
   -1.3857   -1.1092    0.6554 C   0  0  0  0  0  0  0  0  0  0  0  0
   -2.8700   -1.0379    0.8448 C   0  0  0  0  0  0  0  0  0  0  0  0
   -3.3959   -0.2860    1.8720 C   0  0  0  0  0  0  0  0  0  0  0  0
   -4.7361    0.1379    1.7461 C   0  0  0  0  0  0  0  0  0  0  0  0
   -5.4767   -0.1822    0.6710 C   0  0  0  0  0  0  0  0  0  0  0  0
   -6.7625    0.5635    0.2379 C   0  0  0  0  0  0  0  0  0  0  0  0
   -7.6220   -0.3800   -0.3987 N   0  0  0  0  0  0  0  0  0  0  0  0
   -9.0632    0.4809   -0.9805 S   0  0  0  0  0  6  0  0  0  0  0  0
   -9.9246   -0.4691   -1.7204 O   0  0  0  0  0  0  0  0  0  0  0  0
   -9.6816    1.3073    0.0710 O   0  0  0  0  0  0  0  0  0  0  0  0
   -4.9193   -0.9771   -0.3608 C   0  0  0  0  0  0  0  0  0  0  0  0
   -3.6094   -1.3857   -0.2453 C   0  0  0  0  0  0  0  0  0  0  0  0
   -0.6684   -2.0823    0.1362 C   0  0  0  0  0  0  0  0  0  0  0  0
    0.6656   -1.9657   -0.1888 O   0  0  0  0  0  0  0  0  0  0  0  0
    1.2812   -0.7854    0.0467 C   0  0  0  0  0  0  0  0  0  0  0  0
    2.6054   -0.6002   -0.2326 C   0  0  0  0  0  0  0  0  0  0  0  0
    7.6024   -1.3777   -1.7232 H   0  0  0  0  0  0  0  0  0  0  0  0
    6.7519   -0.0068   -2.4791 H   0  0  0  0  0  0  0  0  0  0  0  0
    8.5375   -0.3148   -2.9204 H   0  0  0  0  0  0  0  0  0  0  0  0
   10.2900    0.5938   -1.3249 H   0  0  0  0  0  0  0  0  0  0  0  0
    7.6301    2.4233    1.5668 H   0  0  0  0  0  0  0  0  0  0  0  0
    3.1264    2.5164    0.8437 H   0  0  0  0  0  0  0  0  0  0  0  0
    0.5890    2.3096    1.2833 H   0  0  0  0  0  0  0  0  0  0  0  0
   -2.7597   -0.0613    2.6787 H   0  0  0  0  0  0  0  0  0  0  0  0
   -5.1812    0.7859    2.5454 H   0  0  0  0  0  0  0  0  0  0  0  0
   -7.1825    1.0534    1.0964 H   0  0  0  0  0  0  0  0  0  0  0  0
   -6.4218    1.4222   -0.4652 H   0  0  0  0  0  0  0  0  0  0  0  0
   -8.0659   -0.9964    0.4168 H   0  0  0  0  0  0  0  0  0  0  0  0
   -8.5162    1.3769   -1.9694 H   0  0  0  0  0  0  0  0  0  0  0  0
   -5.5883   -1.1533   -1.2478 H   0  0  0  0  0  0  0  0  0  0  0  0
   -3.2020   -1.9607   -1.0837 H   0  0  0  0  0  0  0  0  0  0  0  0
   -1.1673   -3.0432   -0.0204 H   0  0  0  0  0  0  0  0  0  0  0  0
    3.1129   -1.4875   -0.6527 H   0  0  0  0  0  0  0  0  0  0  0  0
  1  2  1  0
  2  3  1  0
  3  4  2  0
  4  5  1  0
  5  6  2  0
  6  7  1  0
  7  8  3  0
  8  9  1  0
  9 10  2  0
 10 11  1  0
 11 12  2  0
 12 13  1  0
 13 14  2  0
 13 15  1  0
 15 16  1  0
 16 17  2  0
 17 18  1  0
 18 19  2  0
 19 20  1  0
 20 21  1  0
 21 22  1  0
 22 23  2  0
 22 24  2  0
 19 25  1  0
 25 26  2  0
 15 27  2  0
 27 28  1  0
 28 29  1  0
 29 30  2  0
  6  2  1  0
 30  9  1  0
 29 12  1  0
 26 16  1  0
  1 31  1  0
  1 32  1  0
  1 33  1  0
  3 34  1  0
  5 35  1  0
 10 36  1  0
 11 37  1  0
 17 38  1  0
 18 39  1  0
 20 40  1  0
 20 41  1  0
 21 42  1  0
 22 43  1  0
 25 44  1  0
 26 45  1  0
 27 46  1  0
 30 47  1  0
M  END
$$$$
