
     RDKit          3D

 64 68  0  0  0  0  0  0  0  0999 V2000
    9.1792    1.4809   -1.2658 C   0  0  0  0  0  0  0  0  0  0  0  0
    8.7066    0.4269   -0.3213 C   0  0  0  0  0  0  0  0  0  0  0  0
    9.4465   -0.5355   -0.0637 O   0  0  0  0  0  0  0  0  0  0  0  0
    7.4324    0.5180    0.2761 N   0  0  0  0  0  0  0  0  0  0  0  0
    7.0010   -0.5138    1.1843 C   0  0  0  0  0  0  0  0  0  0  0  0
    5.7462   -1.1236    0.6127 C   0  0  0  0  0  0  0  0  0  0  0  0
    4.8179   -0.1463    0.1503 N   0  0  0  0  0  0  0  0  0  0  0  0
    3.4654   -0.5427   -0.1206 C   0  0  0  0  0  0  0  0  0  0  0  0
    2.4823    0.3557   -0.4637 C   0  0  0  0  0  0  0  0  0  0  0  0
    1.1865   -0.0751   -0.7222 C   0  0  0  0  0  0  0  0  0  0  0  0
    0.8681   -1.4050   -0.6378 C   0  0  0  0  0  0  0  0  0  0  0  0
   -0.3955   -1.9006   -0.8757 O   0  0  0  0  0  0  0  0  0  0  0  0
   -1.5662   -1.2492   -1.1954 C   0  0  0  0  0  0  0  0  0  0  0  0
   -2.0233   -0.3566   -0.0791 C   0  0  2  0  0  0  0  0  0  0  0  0
   -2.6067   -1.3178    0.9850 C   0  0  0  0  0  0  0  0  0  0  0  0
   -3.7613   -1.7310    0.2746 O   0  0  0  0  0  0  0  0  0  0  0  0
   -4.2756   -0.4173   -0.0902 C   0  0  1  0  0  0  0  0  0  0  0  0
   -5.1262   -0.7383   -1.3181 C   0  0  0  0  0  0  0  0  0  0  0  0
   -5.7889    0.3364   -1.9103 N   0  0  0  0  0  0  0  0  0  0  0  0
   -7.0488    0.7304   -1.6468 C   0  0  0  0  0  0  0  0  0  0  0  0
   -7.3457    1.7935   -2.4441 C   0  0  0  0  0  0  0  0  0  0  0  0
   -6.2755    2.0603   -3.2007 N   0  0  0  0  0  0  0  0  0  0  0  0
   -5.3296    1.1796   -2.8805 C   0  0  0  0  0  0  0  0  0  0  0  0
   -5.0648   -0.0080    1.0734 C   0  0  0  0  0  0  0  0  0  0  0  0
   -5.4019   -0.9641    2.0437 C   0  0  0  0  0  0  0  0  0  0  0  0
   -6.2445   -0.7038    3.1029 C   0  0  0  0  0  0  0  0  0  0  0  0
   -6.7951    0.5355    3.2439 C   0  0  0  0  0  0  0  0  0  0  0  0
   -7.8638    0.8349    4.5973 Cl  0  0  0  0  0  0  0  0  0  0  0  0
   -6.4838    1.4982    2.3115 C   0  0  0  0  0  0  0  0  0  0  0  0
   -5.6401    1.2390    1.2545 C   0  0  0  0  0  0  0  0  0  0  0  0
   -5.1635    2.5832    0.2105 Cl  0  0  0  0  0  0  0  0  0  0  0  0
   -3.2110    0.3236   -0.4364 O   0  0  0  0  0  0  0  0  0  0  0  0
    1.8875   -2.3010   -0.2868 C   0  0  0  0  0  0  0  0  0  0  0  0
    3.1386   -1.8656   -0.0401 C   0  0  0  0  0  0  0  0  0  0  0  0
    5.1152    1.2519   -0.0853 C   0  0  0  0  0  0  0  0  0  0  0  0
    6.5589    1.6080    0.0031 C   0  0  0  0  0  0  0  0  0  0  0  0
   10.1435    1.1800   -1.7218 H   0  0  0  0  0  0  0  0  0  0  0  0
    9.3166    2.4564   -0.7929 H   0  0  0  0  0  0  0  0  0  0  0  0
    8.4672    1.6135   -2.1136 H   0  0  0  0  0  0  0  0  0  0  0  0
    6.7141   -0.0410    2.1659 H   0  0  0  0  0  0  0  0  0  0  0  0
    7.7691   -1.3023    1.3285 H   0  0  0  0  0  0  0  0  0  0  0  0
    5.2915   -1.7211    1.4496 H   0  0  0  0  0  0  0  0  0  0  0  0
    6.0586   -1.8542   -0.1604 H   0  0  0  0  0  0  0  0  0  0  0  0
    2.7059    1.4151   -0.5359 H   0  0  0  0  0  0  0  0  0  0  0  0
    0.4435    0.6675   -1.0138 H   0  0  0  0  0  0  0  0  0  0  0  0
   -2.3608   -2.0557   -1.2862 H   0  0  0  0  0  0  0  0  0  0  0  0
   -1.5185   -0.6928   -2.1648 H   0  0  0  0  0  0  0  0  0  0  0  0
   -1.2928    0.3023    0.3660 H   0  0  0  0  0  0  0  0  0  0  0  0
   -2.8639   -0.6805    1.8451 H   0  0  0  0  0  0  0  0  0  0  0  0
   -1.9286   -2.1424    1.1953 H   0  0  0  0  0  0  0  0  0  0  0  0
   -4.4372   -1.2113   -2.0986 H   0  0  0  0  0  0  0  0  0  0  0  0
   -5.8093   -1.6047   -1.0682 H   0  0  0  0  0  0  0  0  0  0  0  0
   -7.6937    0.2715   -0.9269 H   0  0  0  0  0  0  0  0  0  0  0  0
   -8.2783    2.3663   -2.4981 H   0  0  0  0  0  0  0  0  0  0  0  0
   -4.3461    1.1624   -3.3434 H   0  0  0  0  0  0  0  0  0  0  0  0
   -4.9932   -1.9614    1.9780 H   0  0  0  0  0  0  0  0  0  0  0  0
   -6.4855   -1.4649    3.8364 H   0  0  0  0  0  0  0  0  0  0  0  0
   -6.9175    2.4784    2.4207 H   0  0  0  0  0  0  0  0  0  0  0  0
    1.6347   -3.3551   -0.2209 H   0  0  0  0  0  0  0  0  0  0  0  0
    3.9239   -2.5853    0.2320 H   0  0  0  0  0  0  0  0  0  0  0  0
    4.5609    1.8273    0.6849 H   0  0  0  0  0  0  0  0  0  0  0  0
    4.6564    1.5572   -1.0668 H   0  0  0  0  0  0  0  0  0  0  0  0
    6.8773    2.1302   -0.9449 H   0  0  0  0  0  0  0  0  0  0  0  0
    6.7418    2.3845    0.8026 H   0  0  0  0  0  0  0  0  0  0  0  0
  1  2  1  0
  2  3  2  0
  2  4  1  0
  4  5  1  0
  5  6  1  0
  6  7  1  0
  7  8  1  0
  8  9  2  0
  9 10  1  0
 10 11  2  0
 11 12  1  0
 12 13  1  0
 13 14  1  0
 14 15  1  0
 15 16  1  0
 16 17  1  0
 17 18  1  6
 18 19  1  0
 19 20  1  0
 20 21  2  0
 21 22  1  0
 22 23  2  0
 17 24  1  0
 24 25  2  0
 25 26  1  0
 26 27  2  0
 27 28  1  0
 27 29  1  0
 29 30  2  0
 30 31  1  0
 17 32  1  0
 11 33  1  0
 33 34  2  0
  7 35  1  0
 35 36  1  0
 36  4  1  0
 34  8  1  0
 32 14  1  0
 23 19  1  0
 30 24  1  0
  1 37  1  0
  1 38  1  0
  1 39  1  0
  5 40  1  0
  5 41  1  0
  6 42  1  0
  6 43  1  0
  9 44  1  0
 10 45  1  0
 13 46  1  0
 13 47  1  0
 14 48  1  1
 15 49  1  0
 15 50  1  0
 18 51  1  0
 18 52  1  0
 20 53  1  0
 21 54  1  0
 23 55  1  0
 25 56  1  0
 26 57  1  0
 29 58  1  0
 33 59  1  0
 34 60  1  0
 35 61  1  0
 35 62  1  0
 36 63  1  0
 36 64  1  0
M  END
$$$$
