
     RDKit          3D

 70 72  0  0  0  0  0  0  0  0999 V2000
   -7.5962    1.3133   -0.1910 C   0  0  0  0  0  0  0  0  0  0  0  0
   -6.2454    1.0398    0.4367 C   0  0  0  0  0  0  0  0  0  0  0  0
   -6.4059    0.0665    1.5501 C   0  0  0  0  0  0  0  0  0  0  0  0
   -5.3447    0.6784   -0.6007 N   0  0  0  0  0  0  0  0  0  0  0  0
   -5.6694   -0.4769   -1.3415 C   0  0  0  0  0  0  0  0  0  0  0  0
   -3.9918    1.0537   -0.4687 C   0  0  2  0  0  0  0  0  0  0  0  0
   -3.2435    0.6268   -1.6820 C   0  0  0  0  0  0  0  0  0  0  0  0
   -1.7764    0.9141   -1.6506 C   0  0  0  0  0  0  0  0  0  0  0  0
   -1.2502    1.2729   -0.3084 C   0  0  2  0  0  0  0  0  0  0  0  0
    0.1559    1.2712   -0.1823 N   0  0  0  0  0  0  0  0  0  0  0  0
    0.9350    2.3878    0.4048 C   0  0  0  0  0  0  0  0  0  0  0  0
    1.8839    1.5851    1.3049 C   0  0  0  0  0  0  0  0  0  0  0  0
    2.2414    0.3419    0.4790 C   0  0  2  0  0  0  0  0  0  0  0  0
    3.5660    0.4871   -0.0964 N   0  0  0  0  0  0  0  0  0  0  0  0
    4.6457   -0.3652    0.2260 C   0  0  0  0  0  0  0  0  0  0  0  0
    4.3867   -1.2885    1.0680 O   0  0  0  0  0  0  0  0  0  0  0  0
    5.9957   -0.2545   -0.3299 C   0  0  0  0  0  0  0  0  0  0  0  0
    6.3074    0.7271   -1.2393 C   0  0  0  0  0  0  0  0  0  0  0  0
    7.5754    0.8292   -1.7598 C   0  0  0  0  0  0  0  0  0  0  0  0
    8.5594   -0.0585   -1.3736 C   0  0  0  0  0  0  0  0  0  0  0  0
    8.2341   -1.0363   -0.4626 C   0  0  0  0  0  0  0  0  0  0  0  0
    9.2618   -1.9231   -0.0922 O   0  0  0  0  0  0  0  0  0  0  0  0
   10.0396   -1.5184    1.0336 C   0  0  0  0  0  0  0  0  0  0  0  0
    9.1552   -1.4062    2.1001 F   0  0  0  0  0  0  0  0  0  0  0  0
   10.5688   -0.2411    0.8380 F   0  0  0  0  0  0  0  0  0  0  0  0
   11.0363   -2.4178    1.2695 F   0  0  0  0  0  0  0  0  0  0  0  0
    6.9714   -1.1508    0.0661 C   0  0  0  0  0  0  0  0  0  0  0  0
    1.1747    0.3230   -0.5222 C   0  0  0  0  0  0  0  0  0  0  0  0
    1.0625   -0.3903   -1.5833 O   0  0  0  0  0  0  0  0  0  0  0  0
   -1.8929    0.3257    0.7100 C   0  0  2  0  0  0  0  0  0  0  0  0
   -1.5172   -1.0823    0.4079 C   0  0  0  0  0  0  0  0  0  0  0  0
   -2.2237   -2.2777    1.5125 S   0  0  0  0  0  6  0  0  0  0  0  0
   -1.6160   -3.9163    1.0412 C   0  0  0  0  0  0  0  0  0  0  0  0
   -1.8979   -1.9696    2.9183 O   0  0  0  0  0  0  0  0  0  0  0  0
   -3.7255   -2.3014    1.2688 O   0  0  0  0  0  0  0  0  0  0  0  0
   -3.3336    0.6523    0.8280 C   0  0  0  0  0  0  0  0  0  0  0  0
   -8.3722    0.6913    0.2944 H   0  0  0  0  0  0  0  0  0  0  0  0
   -7.6092    1.0449   -1.2751 H   0  0  0  0  0  0  0  0  0  0  0  0
   -7.8612    2.3900   -0.1493 H   0  0  0  0  0  0  0  0  0  0  0  0
   -5.8930    2.0055    0.8806 H   0  0  0  0  0  0  0  0  0  0  0  0
   -6.1105   -0.9397    1.2128 H   0  0  0  0  0  0  0  0  0  0  0  0
   -5.9237    0.3891    2.4957 H   0  0  0  0  0  0  0  0  0  0  0  0
   -7.4926   -0.0120    1.7976 H   0  0  0  0  0  0  0  0  0  0  0  0
   -6.7169   -0.8315   -1.1917 H   0  0  0  0  0  0  0  0  0  0  0  0
   -5.4664   -0.2967   -2.4173 H   0  0  0  0  0  0  0  0  0  0  0  0
   -5.0479   -1.3727   -1.0587 H   0  0  0  0  0  0  0  0  0  0  0  0
   -3.9742    2.1927   -0.4910 H   0  0  0  0  0  0  0  0  0  0  0  0
   -3.5099   -0.4145   -1.9352 H   0  0  0  0  0  0  0  0  0  0  0  0
   -3.6735    1.2280   -2.5399 H   0  0  0  0  0  0  0  0  0  0  0  0
   -1.2485   -0.0004   -1.9889 H   0  0  0  0  0  0  0  0  0  0  0  0
   -1.4842    1.7050   -2.3970 H   0  0  0  0  0  0  0  0  0  0  0  0
   -1.6277    2.2860    0.0548 H   0  0  0  0  0  0  0  0  0  0  0  0
    1.4704    2.9490   -0.3644 H   0  0  0  0  0  0  0  0  0  0  0  0
    0.3025    3.0542    0.9909 H   0  0  0  0  0  0  0  0  0  0  0  0
    2.7809    2.1652    1.5701 H   0  0  0  0  0  0  0  0  0  0  0  0
    1.2709    1.2986    2.1962 H   0  0  0  0  0  0  0  0  0  0  0  0
    2.2610   -0.5108    1.1648 H   0  0  0  0  0  0  0  0  0  0  0  0
    3.7309    1.2547   -0.7794 H   0  0  0  0  0  0  0  0  0  0  0  0
    5.5596    1.4605   -1.5810 H   0  0  0  0  0  0  0  0  0  0  0  0
    7.7662    1.6219   -2.4732 H   0  0  0  0  0  0  0  0  0  0  0  0
    9.5488    0.0409   -1.7958 H   0  0  0  0  0  0  0  0  0  0  0  0
    6.7410   -1.9388    0.7893 H   0  0  0  0  0  0  0  0  0  0  0  0
   -1.3972    0.5552    1.7147 H   0  0  0  0  0  0  0  0  0  0  0  0
   -1.8097   -1.3968   -0.6173 H   0  0  0  0  0  0  0  0  0  0  0  0
   -0.3900   -1.1787    0.5304 H   0  0  0  0  0  0  0  0  0  0  0  0
   -2.3594   -4.6576    1.4369 H   0  0  0  0  0  0  0  0  0  0  0  0
   -1.6255   -3.9969   -0.0546 H   0  0  0  0  0  0  0  0  0  0  0  0
   -0.6194   -4.0426    1.4700 H   0  0  0  0  0  0  0  0  0  0  0  0
   -3.8656   -0.1213    1.3943 H   0  0  0  0  0  0  0  0  0  0  0  0
   -3.3804    1.5577    1.5286 H   0  0  0  0  0  0  0  0  0  0  0  0
  1  2  1  0
  2  3  1  0
  2  4  1  0
  4  5  1  0
  4  6  1  0
  6  7  1  0
  7  8  1  0
  8  9  1  0
  9 10  1  0
 10 11  1  0
 11 12  1  0
 12 13  1  0
 13 14  1  0
 14 15  1  0
 15 16  2  0
 15 17  1  0
 17 18  2  0
 18 19  1  0
 19 20  2  0
 20 21  1  0
 21 22  1  0
 22 23  1  0
 23 24  1  0
 23 25  1  0
 23 26  1  0
 21 27  2  0
 13 28  1  0
 28 29  2  0
  9 30  1  0
 30 31  1  0
 31 32  1  0
 32 33  1  0
 32 34  2  0
 32 35  2  0
 30 36  1  0
 36  6  1  0
 28 10  1  0
 27 17  1  0
  1 37  1  0
  1 38  1  0
  1 39  1  0
  2 40  1  0
  3 41  1  0
  3 42  1  0
  3 43  1  0
  5 44  1  0
  5 45  1  0
  5 46  1  0
  6 47  1  1
  7 48  1  0
  7 49  1  0
  8 50  1  0
  8 51  1  0
  9 52  1  1
 11 53  1  0
 11 54  1  0
 12 55  1  0
 12 56  1  0
 13 57  1  1
 14 58  1  0
 18 59  1  0
 19 60  1  0
 20 61  1  0
 27 62  1  0
 30 63  1  1
 31 64  1  0
 31 65  1  0
 33 66  1  0
 33 67  1  0
 33 68  1  0
 36 69  1  0
 36 70  1  0
M  END
$$$$
