
     RDKit          3D

 43 46  0  0  0  0  0  0  0  0999 V2000
    7.3050    0.0108   -1.1323 C   0  0  0  0  0  0  0  0  0  0  0  0
    6.6808    0.4808    0.5079 S   0  0  0  0  0  4  0  0  0  0  0  0
    6.9447    1.9419    0.7567 O   0  0  0  0  0  0  0  0  0  0  0  0
    4.9263    0.1914    0.4536 C   0  0  0  0  0  0  0  0  0  0  0  0
    4.1348    1.2539    0.0213 C   0  0  0  0  0  0  0  0  0  0  0  0
    2.7787    1.1004   -0.0453 C   0  0  0  0  0  0  0  0  0  0  0  0
    2.1437   -0.0963    0.3078 C   0  0  0  0  0  0  0  0  0  0  0  0
    2.9364   -1.1219    0.7277 C   0  0  0  0  0  0  0  0  0  0  0  0
    4.3117   -0.9929    0.8043 C   0  0  0  0  0  0  0  0  0  0  0  0
    0.6877   -0.2333    0.2241 C   0  0  0  0  0  0  0  0  0  0  0  0
   -0.1423    0.7530   -0.1931 N   0  0  0  0  0  0  0  0  0  0  0  0
   -1.4274    0.3060   -0.1566 C   0  0  0  0  0  0  0  0  0  0  0  0
   -1.3405   -0.9881    0.2989 C   0  0  0  0  0  0  0  0  0  0  0  0
   -0.0556   -1.3122    0.5290 N   0  0  0  0  0  0  0  0  0  0  0  0
   -2.5454   -1.7871    0.4642 C   0  0  0  0  0  0  0  0  0  0  0  0
   -3.4527   -2.2474   -0.4652 C   0  0  0  0  0  0  0  0  0  0  0  0
   -4.5437   -2.9975   -0.0886 C   0  0  0  0  0  0  0  0  0  0  0  0
   -4.7618   -3.3070    1.1962 N   0  0  0  0  0  0  0  0  0  0  0  0
   -3.8873   -2.8697    2.1362 C   0  0  0  0  0  0  0  0  0  0  0  0
   -2.7774   -2.1130    1.8042 C   0  0  0  0  0  0  0  0  0  0  0  0
   -2.4761    1.2282   -0.5729 C   0  0  0  0  0  0  0  0  0  0  0  0
   -2.6082    2.3504    0.2585 C   0  0  0  0  0  0  0  0  0  0  0  0
   -3.5308    3.3236    0.0284 C   0  0  0  0  0  0  0  0  0  0  0  0
   -4.3874    3.2232   -1.0679 C   0  0  0  0  0  0  0  0  0  0  0  0
   -5.3583    4.0949   -1.4428 F   0  0  0  0  0  0  0  0  0  0  0  0
   -4.2666    2.1232   -1.8936 C   0  0  0  0  0  0  0  0  0  0  0  0
   -3.3216    1.1532   -1.6342 C   0  0  0  0  0  0  0  0  0  0  0  0
    7.0175    0.8319   -1.8222 H   0  0  0  0  0  0  0  0  0  0  0  0
    6.7194   -0.8909   -1.4461 H   0  0  0  0  0  0  0  0  0  0  0  0
    8.3929   -0.1645   -1.1020 H   0  0  0  0  0  0  0  0  0  0  0  0
    4.5268    2.1993   -0.2667 H   0  0  0  0  0  0  0  0  0  0  0  0
    2.1197    1.8921   -0.3733 H   0  0  0  0  0  0  0  0  0  0  0  0
    2.4984   -2.0737    1.0148 H   0  0  0  0  0  0  0  0  0  0  0  0
    4.9562   -1.7843    1.1306 H   0  0  0  0  0  0  0  0  0  0  0  0
    0.2841   -2.2370    0.8803 H   0  0  0  0  0  0  0  0  0  0  0  0
   -3.1951   -1.9538   -1.4719 H   0  0  0  0  0  0  0  0  0  0  0  0
   -5.1431   -3.2697   -0.9461 H   0  0  0  0  0  0  0  0  0  0  0  0
   -4.1675   -3.1834    3.1455 H   0  0  0  0  0  0  0  0  0  0  0  0
   -2.1935   -1.8534    2.6839 H   0  0  0  0  0  0  0  0  0  0  0  0
   -2.0083    2.5533    1.1428 H   0  0  0  0  0  0  0  0  0  0  0  0
   -3.6844    4.2069    0.6228 H   0  0  0  0  0  0  0  0  0  0  0  0
   -4.8870    1.9613   -2.7666 H   0  0  0  0  0  0  0  0  0  0  0  0
   -3.2028    0.2974   -2.2522 H   0  0  0  0  0  0  0  0  0  0  0  0
  2  1  1  6
  2  3  2  0
  2  4  1  0
  4  5  2  0
  5  6  1  0
  6  7  2  0
  7  8  1  0
  8  9  2  0
  7 10  1  0
 10 11  2  0
 11 12  1  0
 12 13  2  0
 13 14  1  0
 13 15  1  0
 15 16  2  0
 16 17  1  0
 17 18  2  0
 18 19  1  0
 19 20  2  0
 12 21  1  0
 21 22  2  0
 22 23  1  0
 23 24  2  0
 24 25  1  0
 24 26  1  0
 26 27  2  0
  9  4  1  0
 14 10  1  0
 20 15  1  0
 27 21  1  0
  1 28  1  0
  1 29  1  0
  1 30  1  0
  5 31  1  0
  6 32  1  0
  8 33  1  0
  9 34  1  0
 14 35  1  0
 16 36  1  0
 17 37  1  0
 19 38  1  0
 20 39  1  0
 22 40  1  0
 23 41  1  0
 26 42  1  0
 27 43  1  0
M  END
$$$$
