
     RDKit          3D

 64 68  0  0  0  0  0  0  0  0999 V2000
    7.3507   -2.8849    0.3782 O   0  0  0  0  0  0  0  0  0  0  0  0
    7.0315   -1.8249   -0.2090 C   0  0  0  0  0  0  0  0  0  0  0  0
    7.9422   -1.1624   -1.0093 O   0  0  0  0  0  0  0  0  0  0  0  0
    5.6778   -1.3203   -0.0195 C   0  0  0  0  0  0  0  0  0  0  0  0
    5.3173   -0.1432   -0.6692 C   0  0  0  0  0  0  0  0  0  0  0  0
    4.0168    0.3270   -0.4774 C   0  0  0  0  0  0  0  0  0  0  0  0
    3.1218   -0.3438    0.3223 C   0  0  0  0  0  0  0  0  0  0  0  0
    1.8158    0.1988    0.4699 N   0  0  0  0  0  0  0  0  0  0  0  0
    0.7437   -0.1367   -0.4109 C   0  0  0  0  0  0  0  0  0  0  0  0
    1.0998   -0.9633   -1.3321 O   0  0  0  0  0  0  0  0  0  0  0  0
   -0.6115    0.3773   -0.3136 C   0  0  2  0  0  0  0  0  0  0  0  0
   -0.8578    1.8151   -0.2466 C   0  0  0  0  0  0  0  0  0  0  0  0
   -2.3539    2.0464   -0.1338 C   0  0  0  0  0  0  0  0  0  0  0  0
   -2.7252    3.3352   -0.8723 C   0  0  0  0  0  0  0  0  0  0  0  0
   -1.5676    4.3092   -0.6283 C   0  0  0  0  0  0  0  0  0  0  0  0
   -1.0348    4.0337    0.7366 C   0  0  0  0  0  0  0  0  0  0  0  0
   -0.1913    2.7356    0.6714 C   0  0  0  0  0  0  0  0  0  0  0  0
   -1.5820   -0.5231    0.3277 N   0  0  0  0  0  0  0  0  0  0  0  0
   -2.5418   -1.2894   -0.3030 C   0  0  0  0  0  0  0  0  0  0  0  0
   -2.7696   -1.3756   -1.7327 C   0  0  0  0  0  0  0  0  0  0  0  0
   -3.8490   -0.8050   -2.3583 C   0  0  0  0  0  0  0  0  0  0  0  0
   -4.0154   -0.9289   -3.7453 C   0  0  0  0  0  0  0  0  0  0  0  0
   -3.0940   -1.6270   -4.4959 C   0  0  0  0  0  0  0  0  0  0  0  0
   -3.3068   -1.7826   -6.2527 Cl  0  0  0  0  0  0  0  0  0  0  0  0
   -2.0217   -2.1947   -3.8793 C   0  0  0  0  0  0  0  0  0  0  0  0
   -1.8781   -2.0606   -2.5166 C   0  0  0  0  0  0  0  0  0  0  0  0
   -3.2336   -1.9729    0.6570 N   0  0  0  0  0  0  0  0  0  0  0  0
   -2.7025   -1.6267    1.8285 C   0  0  0  0  0  0  0  0  0  0  0  0
   -3.0543   -2.0538    3.0875 C   0  0  0  0  0  0  0  0  0  0  0  0
   -2.3689   -1.5785    4.2047 C   0  0  0  0  0  0  0  0  0  0  0  0
   -1.3458   -0.6857    4.0345 C   0  0  0  0  0  0  0  0  0  0  0  0
   -1.0016   -0.2644    2.7705 C   0  0  0  0  0  0  0  0  0  0  0  0
   -1.6723   -0.7266    1.6597 C   0  0  0  0  0  0  0  0  0  0  0  0
    3.4586   -1.4946    0.9637 C   0  0  0  0  0  0  0  0  0  0  0  0
    2.5210   -2.2522    1.8411 C   0  0  0  0  0  0  0  0  0  0  0  0
    1.3953   -2.6733    1.1674 F   0  0  0  0  0  0  0  0  0  0  0  0
    3.1685   -3.3924    2.3089 F   0  0  0  0  0  0  0  0  0  0  0  0
    2.1941   -1.5185    2.9717 F   0  0  0  0  0  0  0  0  0  0  0  0
    4.7655   -1.9702    0.7729 C   0  0  0  0  0  0  0  0  0  0  0  0
    8.9096   -1.5050   -0.9642 H   0  0  0  0  0  0  0  0  0  0  0  0
    6.0122    0.3814   -1.2927 H   0  0  0  0  0  0  0  0  0  0  0  0
    3.7299    1.2431   -0.9806 H   0  0  0  0  0  0  0  0  0  0  0  0
    1.5739    0.8714    1.2171 H   0  0  0  0  0  0  0  0  0  0  0  0
   -0.9432    0.2040   -1.4327 H   0  0  0  0  0  0  0  0  0  0  0  0
   -0.6299    2.2699   -1.2851 H   0  0  0  0  0  0  0  0  0  0  0  0
   -2.9281    1.2507   -0.6007 H   0  0  0  0  0  0  0  0  0  0  0  0
   -2.6598    2.1309    0.9378 H   0  0  0  0  0  0  0  0  0  0  0  0
   -2.8938    3.1705   -1.9367 H   0  0  0  0  0  0  0  0  0  0  0  0
   -3.6040    3.7838   -0.3581 H   0  0  0  0  0  0  0  0  0  0  0  0
   -0.7902    4.2643   -1.3882 H   0  0  0  0  0  0  0  0  0  0  0  0
   -1.9656    5.3559   -0.6673 H   0  0  0  0  0  0  0  0  0  0  0  0
   -1.8201    3.9326    1.5030 H   0  0  0  0  0  0  0  0  0  0  0  0
   -0.3796    4.8699    1.0772 H   0  0  0  0  0  0  0  0  0  0  0  0
    0.7730    3.1345    0.2210 H   0  0  0  0  0  0  0  0  0  0  0  0
   -0.0785    2.4925    1.7178 H   0  0  0  0  0  0  0  0  0  0  0  0
   -4.5918   -0.2544   -1.8270 H   0  0  0  0  0  0  0  0  0  0  0  0
   -4.8510   -0.4912   -4.2538 H   0  0  0  0  0  0  0  0  0  0  0  0
   -1.2821   -2.7507   -4.4557 H   0  0  0  0  0  0  0  0  0  0  0  0
   -1.0164   -2.5278   -2.0626 H   0  0  0  0  0  0  0  0  0  0  0  0
   -3.8446   -2.7497    3.2788 H   0  0  0  0  0  0  0  0  0  0  0  0
   -2.6440   -1.9139    5.2070 H   0  0  0  0  0  0  0  0  0  0  0  0
   -0.7900   -0.2934    4.8684 H   0  0  0  0  0  0  0  0  0  0  0  0
   -0.2072    0.4158    2.6424 H   0  0  0  0  0  0  0  0  0  0  0  0
    5.0803   -2.8872    1.2658 H   0  0  0  0  0  0  0  0  0  0  0  0
  1  2  2  0
  2  3  1  0
  2  4  1  0
  4  5  2  0
  5  6  1  0
  6  7  2  0
  7  8  1  0
  8  9  1  0
  9 10  2  0
  9 11  1  0
 11 12  1  0
 12 13  1  0
 13 14  1  0
 14 15  1  0
 15 16  1  0
 16 17  1  0
 11 18  1  0
 18 19  1  0
 19 20  1  0
 20 21  2  0
 21 22  1  0
 22 23  2  0
 23 24  1  0
 23 25  1  0
 25 26  2  0
 19 27  2  0
 27 28  1  0
 28 29  2  0
 29 30  1  0
 30 31  2  0
 31 32  1  0
 32 33  2  0
  7 34  1  0
 34 35  1  0
 35 36  1  0
 35 37  1  0
 35 38  1  0
 34 39  2  0
 39  4  1  0
 17 12  1  0
 33 18  1  0
 26 20  1  0
 33 28  1  0
  3 40  1  0
  5 41  1  0
  6 42  1  0
  8 43  1  0
 11 44  1  6
 12 45  1  0
 13 46  1  0
 13 47  1  0
 14 48  1  0
 14 49  1  0
 15 50  1  0
 15 51  1  0
 16 52  1  0
 16 53  1  0
 17 54  1  0
 17 55  1  0
 21 56  1  0
 22 57  1  0
 25 58  1  0
 26 59  1  0
 29 60  1  0
 30 61  1  0
 31 62  1  0
 32 63  1  0
 39 64  1  0
M  END
$$$$
