
     RDKit          3D

 52 53  0  0  0  0  0  0  0  0999 V2000
    9.4018    0.4830    1.4779 C   0  0  0  0  0  0  0  0  0  0  0  0
    8.7113    0.1239    0.4186 C   0  0  0  0  0  0  0  0  0  0  0  0
    7.2560    0.3384    0.3262 C   0  0  0  0  0  0  0  0  0  0  0  0
    6.6806    0.8769    1.2890 O   0  0  0  0  0  0  0  0  0  0  0  0
    6.5166   -0.0493   -0.8152 N   0  0  0  0  0  0  0  0  0  0  0  0
    5.1446    0.0911   -1.0387 C   0  0  0  0  0  0  0  0  0  0  0  0
    4.6449   -0.3761   -2.2628 C   0  0  0  0  0  0  0  0  0  0  0  0
    3.2849   -0.2642   -2.5432 C   0  0  0  0  0  0  0  0  0  0  0  0
    2.4101    0.2987   -1.6406 C   0  0  0  0  0  0  0  0  0  0  0  0
    0.7318    0.3789   -2.0277 S   0  0  0  0  0  6  0  0  0  0  0  0
    0.2842    1.8247   -1.7870 O   0  0  0  0  0  0  0  0  0  0  0  0
    0.4804    0.1586   -3.5023 O   0  0  0  0  0  0  0  0  0  0  0  0
   -0.1764   -0.6229   -1.0456 N   0  0  0  0  0  0  0  0  0  0  0  0
   -0.2345   -0.4529    0.3279 C   0  0  0  0  0  0  0  0  0  0  0  0
   -1.3394   -1.3529    0.9009 C   0  0  0  0  0  0  0  0  0  0  0  0
   -2.5619   -0.9687    0.2331 N   0  0  0  0  0  0  0  0  0  0  0  0
   -3.6515   -0.4564    0.9802 C   0  0  0  0  0  0  0  0  0  0  0  0
   -3.5958   -0.3194    2.2335 O   0  0  0  0  0  0  0  0  0  0  0  0
   -4.8491   -0.0735    0.3767 O   0  0  0  0  0  0  0  0  0  0  0  0
   -5.9001    0.4261    1.1412 C   0  0  0  0  0  0  0  0  0  0  0  0
   -7.0469    0.7439    0.1767 C   0  0  0  0  0  0  0  0  0  0  0  0
   -5.5653    1.7213    1.8428 C   0  0  0  0  0  0  0  0  0  0  0  0
   -6.3520   -0.6211    2.1227 C   0  0  0  0  0  0  0  0  0  0  0  0
   -2.5713   -1.1467   -1.2044 C   0  0  0  0  0  0  0  0  0  0  0  0
   -1.1684   -1.4162   -1.6977 C   0  0  0  0  0  0  0  0  0  0  0  0
    2.9140    0.7425   -0.4690 C   0  0  0  0  0  0  0  0  0  0  0  0
    2.1223    1.3294    0.4458 F   0  0  0  0  0  0  0  0  0  0  0  0
    4.2853    0.6445   -0.1524 C   0  0  0  0  0  0  0  0  0  0  0  0
    8.8726    0.9530    2.3077 H   0  0  0  0  0  0  0  0  0  0  0  0
   10.4632    0.3063    1.5006 H   0  0  0  0  0  0  0  0  0  0  0  0
    9.1984   -0.3399   -0.4139 H   0  0  0  0  0  0  0  0  0  0  0  0
    7.1057   -0.4993   -1.5777 H   0  0  0  0  0  0  0  0  0  0  0  0
    5.3245   -0.8186   -2.9754 H   0  0  0  0  0  0  0  0  0  0  0  0
    2.9223   -0.6281   -3.4863 H   0  0  0  0  0  0  0  0  0  0  0  0
    0.6943   -0.8516    0.8159 H   0  0  0  0  0  0  0  0  0  0  0  0
   -0.3885    0.5736    0.7175 H   0  0  0  0  0  0  0  0  0  0  0  0
   -1.0712   -2.4115    0.7163 H   0  0  0  0  0  0  0  0  0  0  0  0
   -1.3753   -1.1419    1.9936 H   0  0  0  0  0  0  0  0  0  0  0  0
   -6.7118    1.5294   -0.5193 H   0  0  0  0  0  0  0  0  0  0  0  0
   -7.9553    1.0713    0.7193 H   0  0  0  0  0  0  0  0  0  0  0  0
   -7.3085   -0.1447   -0.4334 H   0  0  0  0  0  0  0  0  0  0  0  0
   -6.5251    2.1962    2.1454 H   0  0  0  0  0  0  0  0  0  0  0  0
   -4.9677    1.5734    2.7479 H   0  0  0  0  0  0  0  0  0  0  0  0
   -5.0997    2.4039    1.1048 H   0  0  0  0  0  0  0  0  0  0  0  0
   -5.7108   -1.5254    2.1275 H   0  0  0  0  0  0  0  0  0  0  0  0
   -7.3897   -0.9916    1.9035 H   0  0  0  0  0  0  0  0  0  0  0  0
   -6.3252   -0.2044    3.1567 H   0  0  0  0  0  0  0  0  0  0  0  0
   -2.9429   -0.2257   -1.6933 H   0  0  0  0  0  0  0  0  0  0  0  0
   -3.1968   -2.0404   -1.4729 H   0  0  0  0  0  0  0  0  0  0  0  0
   -1.1278   -1.2593   -2.7832 H   0  0  0  0  0  0  0  0  0  0  0  0
   -0.9465   -2.4838   -1.5006 H   0  0  0  0  0  0  0  0  0  0  0  0
    4.6057    1.0166    0.7927 H   0  0  0  0  0  0  0  0  0  0  0  0
  1  2  2  3
  2  3  1  0
  3  4  2  0
  3  5  1  0
  5  6  1  0
  6  7  2  0
  7  8  1  0
  8  9  2  0
  9 10  1  0
 10 11  2  0
 10 12  2  0
 10 13  1  0
 13 14  1  0
 14 15  1  0
 15 16  1  0
 16 17  1  0
 17 18  2  0
 17 19  1  0
 19 20  1  0
 20 21  1  0
 20 22  1  0
 20 23  1  0
 16 24  1  0
 24 25  1  0
  9 26  1  0
 26 27  1  0
 26 28  2  0
 28  6  1  0
 25 13  1  0
  1 29  1  0
  1 30  1  0
  2 31  1  0
  5 32  1  0
  7 33  1  0
  8 34  1  0
 14 35  1  0
 14 36  1  0
 15 37  1  0
 15 38  1  0
 21 39  1  0
 21 40  1  0
 21 41  1  0
 22 42  1  0
 22 43  1  0
 22 44  1  0
 23 45  1  0
 23 46  1  0
 23 47  1  0
 24 48  1  0
 24 49  1  0
 25 50  1  0
 25 51  1  0
 28 52  1  0
M  END
$$$$
