
     RDKit          3D

 65 68  0  0  0  0  0  0  0  0999 V2000
    8.7201    0.1147    0.5680 C   0  0  0  0  0  0  0  0  0  0  0  0
    7.3709   -0.4942    0.5653 C   0  0  0  0  0  0  0  0  0  0  0  0
    6.2240    0.1857    0.2334 C   0  0  0  0  0  0  0  0  0  0  0  0
    4.9766   -0.4004    0.2371 C   0  0  0  0  0  0  0  0  0  0  0  0
    3.7532    0.3284   -0.1175 C   0  0  0  0  0  0  0  0  0  0  0  0
    2.6924   -0.3210   -0.7123 C   0  0  0  0  0  0  0  0  0  0  0  0
    1.5397    0.3591   -1.0475 C   0  0  0  0  0  0  0  0  0  0  0  0
    1.3862    1.7110   -0.8089 C   0  0  0  0  0  0  0  0  0  0  0  0
    0.1163    2.3990   -1.1917 C   0  0  2  0  0  0  0  0  0  0  0  0
    0.1467    3.7902   -0.6081 C   0  0  0  0  0  0  0  0  0  0  0  0
   -1.0399    1.6521   -0.8151 N   0  0  0  0  0  0  0  0  0  0  0  0
   -1.9683    1.1875   -1.8082 C   0  0  0  0  0  0  0  0  0  0  0  0
   -3.3740    1.1716   -1.2443 C   0  0  0  0  0  0  0  0  0  0  0  0
   -3.5082    0.3163    0.0001 C   0  0  2  0  0  0  0  0  0  0  0  0
   -3.4805   -1.1192   -0.4799 C   0  0  0  0  0  0  0  0  0  0  0  0
   -3.6093   -2.1513    0.5781 C   0  0  0  0  0  0  0  0  0  0  0  0
   -3.5250   -3.5239   -0.1155 C   0  0  0  0  0  0  0  0  0  0  0  0
   -3.6394   -4.5405    0.8299 O   0  0  0  0  0  0  0  0  0  0  0  0
   -4.8462    0.5753    0.5814 C   0  0  0  0  0  0  0  0  0  0  0  0
   -5.2000    0.1494    1.8492 C   0  0  0  0  0  0  0  0  0  0  0  0
   -6.4795    0.3955    2.3607 C   0  0  0  0  0  0  0  0  0  0  0  0
   -7.4253    1.0693    1.6193 C   0  0  0  0  0  0  0  0  0  0  0  0
   -7.0768    1.4932    0.3623 C   0  0  0  0  0  0  0  0  0  0  0  0
   -5.8118    1.2442   -0.1314 C   0  0  0  0  0  0  0  0  0  0  0  0
   -2.4728    0.6075    0.8870 O   0  0  0  0  0  0  0  0  0  0  0  0
   -1.3201    1.3407    0.5399 C   0  0  0  0  0  0  0  0  0  0  0  0
   -0.5729    1.6931    1.4848 O   0  0  0  0  0  0  0  0  0  0  0  0
    2.4494    2.3572   -0.2139 C   0  0  0  0  0  0  0  0  0  0  0  0
    3.6148    1.6784    0.1269 C   0  0  0  0  0  0  0  0  0  0  0  0
    4.9204   -1.7329    0.5966 C   0  0  0  0  0  0  0  0  0  0  0  0
    6.0798   -2.4248    0.9334 C   0  0  0  0  0  0  0  0  0  0  0  0
    5.9970   -3.8559    1.3168 C   0  0  0  0  0  0  0  0  0  0  0  0
    7.2620   -1.7900    0.9080 N   0  0  0  0  0  0  0  0  0  0  0  0
    9.3178   -0.4184   -0.2183 H   0  0  0  0  0  0  0  0  0  0  0  0
    9.2756   -0.0836    1.5226 H   0  0  0  0  0  0  0  0  0  0  0  0
    8.7124    1.1796    0.3055 H   0  0  0  0  0  0  0  0  0  0  0  0
    6.3245    1.2346   -0.0424 H   0  0  0  0  0  0  0  0  0  0  0  0
    2.7809   -1.3878   -0.9141 H   0  0  0  0  0  0  0  0  0  0  0  0
    0.6938   -0.1625   -1.5224 H   0  0  0  0  0  0  0  0  0  0  0  0
    0.1283    2.5180   -2.2884 H   0  0  0  0  0  0  0  0  0  0  0  0
    0.4140    3.7247    0.4659 H   0  0  0  0  0  0  0  0  0  0  0  0
   -0.8359    4.2955   -0.6577 H   0  0  0  0  0  0  0  0  0  0  0  0
    0.9450    4.3735   -1.1056 H   0  0  0  0  0  0  0  0  0  0  0  0
   -2.0208    1.8637   -2.6928 H   0  0  0  0  0  0  0  0  0  0  0  0
   -1.6504    0.1687   -2.1055 H   0  0  0  0  0  0  0  0  0  0  0  0
   -4.0201    0.7054   -2.0404 H   0  0  0  0  0  0  0  0  0  0  0  0
   -3.6538    2.2235   -1.0531 H   0  0  0  0  0  0  0  0  0  0  0  0
   -4.2780   -1.3032   -1.2362 H   0  0  0  0  0  0  0  0  0  0  0  0
   -2.5222   -1.3178   -1.0396 H   0  0  0  0  0  0  0  0  0  0  0  0
   -4.6576   -2.1611    0.9994 H   0  0  0  0  0  0  0  0  0  0  0  0
   -2.8310   -2.0538    1.3331 H   0  0  0  0  0  0  0  0  0  0  0  0
   -4.4103   -3.5757   -0.7750 H   0  0  0  0  0  0  0  0  0  0  0  0
   -2.6137   -3.6293   -0.7018 H   0  0  0  0  0  0  0  0  0  0  0  0
   -2.7333   -4.8565    1.0354 H   0  0  0  0  0  0  0  0  0  0  0  0
   -4.4797   -0.3722    2.4717 H   0  0  0  0  0  0  0  0  0  0  0  0
   -6.7598    0.0641    3.3501 H   0  0  0  0  0  0  0  0  0  0  0  0
   -8.4227    1.2552    2.0322 H   0  0  0  0  0  0  0  0  0  0  0  0
   -7.8312    2.0211   -0.2067 H   0  0  0  0  0  0  0  0  0  0  0  0
   -5.5771    1.5949   -1.1260 H   0  0  0  0  0  0  0  0  0  0  0  0
    2.3730    3.4236   -0.0067 H   0  0  0  0  0  0  0  0  0  0  0  0
    4.4542    2.1962    0.5983 H   0  0  0  0  0  0  0  0  0  0  0  0
    3.9954   -2.2879    0.6324 H   0  0  0  0  0  0  0  0  0  0  0  0
    6.9822   -4.3403    1.1777 H   0  0  0  0  0  0  0  0  0  0  0  0
    5.7690   -3.9424    2.4062 H   0  0  0  0  0  0  0  0  0  0  0  0
    5.2322   -4.4149    0.7380 H   0  0  0  0  0  0  0  0  0  0  0  0
  1  2  1  0
  2  3  2  0
  3  4  1  0
  4  5  1  0
  5  6  2  0
  6  7  1  0
  7  8  2  0
  8  9  1  0
  9 10  1  0
  9 11  1  0
 11 12  1  0
 12 13  1  0
 13 14  1  0
 14 15  1  6
 15 16  1  0
 16 17  1  0
 17 18  1  0
 14 19  1  0
 19 20  2  0
 20 21  1  0
 21 22  2  0
 22 23  1  0
 23 24  2  0
 14 25  1  0
 25 26  1  0
 26 27  2  0
  8 28  1  0
 28 29  2  0
  4 30  2  0
 30 31  1  0
 31 32  1  0
 31 33  2  0
 33  2  1  0
 29  5  1  0
 26 11  1  0
 24 19  1  0
  1 34  1  0
  1 35  1  0
  1 36  1  0
  3 37  1  0
  6 38  1  0
  7 39  1  0
  9 40  1  6
 10 41  1  0
 10 42  1  0
 10 43  1  0
 12 44  1  0
 12 45  1  0
 13 46  1  0
 13 47  1  0
 15 48  1  0
 15 49  1  0
 16 50  1  0
 16 51  1  0
 17 52  1  0
 17 53  1  0
 18 54  1  0
 20 55  1  0
 21 56  1  0
 22 57  1  0
 23 58  1  0
 24 59  1  0
 28 60  1  0
 29 61  1  0
 30 62  1  0
 32 63  1  0
 32 64  1  0
 32 65  1  0
M  END
$$$$
