
     RDKit          3D

 62 66  0  0  0  0  0  0  0  0999 V2000
   -2.4396    4.3181    0.2541 C   0  0  0  0  0  0  0  0  0  0  0  0
   -3.4774    3.2730    0.6868 C   0  0  0  0  0  0  0  0  0  0  0  0
   -3.0747    2.5165    1.8792 C   0  0  0  0  0  0  0  0  0  0  0  0
   -1.9022    1.6175    1.8483 C   0  0  0  0  0  0  0  0  0  0  0  0
   -2.1241    0.4666    0.9247 C   0  0  0  0  0  0  0  0  0  0  0  0
   -2.7278   -0.7038    1.3624 N   0  0  0  0  0  0  0  0  0  0  0  0
   -2.8771   -1.5408    0.3731 N   0  0  0  0  0  0  0  0  0  0  0  0
   -3.4662   -2.8603    0.4579 C   0  0  0  0  0  0  0  0  0  0  0  0
   -2.8041   -3.8828    1.0951 C   0  0  0  0  0  0  0  0  0  0  0  0
   -3.3600   -5.1402    1.1782 C   0  0  0  0  0  0  0  0  0  0  0  0
   -4.5938   -5.4071    0.6255 C   0  0  0  0  0  0  0  0  0  0  0  0
   -5.2359   -4.3750   -0.0042 C   0  0  0  0  0  0  0  0  0  0  0  0
   -4.6941   -3.1157   -0.0952 C   0  0  0  0  0  0  0  0  0  0  0  0
   -2.3958   -1.0002   -0.7612 C   0  0  0  0  0  0  0  0  0  0  0  0
   -2.4078   -1.6537   -2.0718 C   0  0  0  0  0  0  0  0  0  0  0  0
   -2.8979   -2.8383   -2.1521 O   0  0  0  0  0  0  0  0  0  0  0  0
   -1.9514   -1.1425   -3.2452 O   0  0  0  0  0  0  0  0  0  0  0  0
   -1.9213    0.2628   -0.4038 C   0  0  0  0  0  0  0  0  0  0  0  0
   -1.2421    1.1664   -1.3603 C   0  0  0  0  0  0  0  0  0  0  0  0
    0.2601    1.1320   -1.2076 C   0  0  0  0  0  0  0  0  0  0  0  0
    1.0070    0.0842   -1.7034 C   0  0  0  0  0  0  0  0  0  0  0  0
    2.3905    0.0233   -1.5955 C   0  0  0  0  0  0  0  0  0  0  0  0
    3.0845    1.0366   -0.9719 C   0  0  0  0  0  0  0  0  0  0  0  0
    4.5479    1.0173   -0.8364 C   0  0  0  0  0  0  0  0  0  0  0  0
    5.2697    1.9761   -1.5126 C   0  0  0  0  0  0  0  0  0  0  0  0
    6.6389    2.0766   -1.4852 C   0  0  0  0  0  0  0  0  0  0  0  0
    7.3037    1.1349   -0.7171 C   0  0  0  0  0  0  0  0  0  0  0  0
    6.6014    0.1664   -0.0320 C   0  0  0  0  0  0  0  0  0  0  0  0
    5.2093    0.0870   -0.0764 C   0  0  0  0  0  0  0  0  0  0  0  0
    4.4950   -0.9424    0.6708 C   0  0  0  0  0  0  0  0  0  0  0  0
    3.1977   -1.1523    0.7753 N   0  0  0  0  0  0  0  0  0  0  0  0
    2.9846   -2.2067    1.5718 N   0  0  0  0  0  0  0  0  0  0  0  0
    4.1521   -2.6468    1.9578 N   0  0  0  0  0  0  0  0  0  0  0  0
    5.0868   -1.8914    1.4212 N   0  0  0  0  0  0  0  0  0  0  0  0
    2.3375    2.0847   -0.4761 C   0  0  0  0  0  0  0  0  0  0  0  0
    0.9584    2.1466   -0.5832 C   0  0  0  0  0  0  0  0  0  0  0  0
   -2.7712    5.3498    0.5820 H   0  0  0  0  0  0  0  0  0  0  0  0
   -2.3789    4.4029   -0.8464 H   0  0  0  0  0  0  0  0  0  0  0  0
   -1.4665    4.1291    0.7043 H   0  0  0  0  0  0  0  0  0  0  0  0
   -3.7212    2.6125   -0.1837 H   0  0  0  0  0  0  0  0  0  0  0  0
   -4.4227    3.8643    0.8623 H   0  0  0  0  0  0  0  0  0  0  0  0
   -2.8577    3.2963    2.6892 H   0  0  0  0  0  0  0  0  0  0  0  0
   -3.9975    2.0011    2.2764 H   0  0  0  0  0  0  0  0  0  0  0  0
   -1.0131    2.2212    1.5209 H   0  0  0  0  0  0  0  0  0  0  0  0
   -1.6600    1.1855    2.8485 H   0  0  0  0  0  0  0  0  0  0  0  0
   -1.8239   -3.7241    1.5497 H   0  0  0  0  0  0  0  0  0  0  0  0
   -2.8556   -5.9660    1.6768 H   0  0  0  0  0  0  0  0  0  0  0  0
   -5.0494   -6.3890    0.6797 H   0  0  0  0  0  0  0  0  0  0  0  0
   -6.2146   -4.6184   -0.4342 H   0  0  0  0  0  0  0  0  0  0  0  0
   -5.2682   -2.3438   -0.6134 H   0  0  0  0  0  0  0  0  0  0  0  0
   -1.5387   -1.6576   -4.0095 H   0  0  0  0  0  0  0  0  0  0  0  0
   -1.6196    2.1911   -1.2376 H   0  0  0  0  0  0  0  0  0  0  0  0
   -1.5313    0.8697   -2.3821 H   0  0  0  0  0  0  0  0  0  0  0  0
    0.4955   -0.7267   -2.1961 H   0  0  0  0  0  0  0  0  0  0  0  0
    2.9696   -0.8039   -1.9886 H   0  0  0  0  0  0  0  0  0  0  0  0
    4.7242    2.7141   -2.1149 H   0  0  0  0  0  0  0  0  0  0  0  0
    7.1534    2.8591   -2.0424 H   0  0  0  0  0  0  0  0  0  0  0  0
    8.3815    1.1909   -0.6768 H   0  0  0  0  0  0  0  0  0  0  0  0
    7.1007   -0.5834    0.5763 H   0  0  0  0  0  0  0  0  0  0  0  0
    6.0987   -2.0426    1.5806 H   0  0  0  0  0  0  0  0  0  0  0  0
    2.9197    2.8795    0.0159 H   0  0  0  0  0  0  0  0  0  0  0  0
    0.4152    3.0015   -0.1811 H   0  0  0  0  0  0  0  0  0  0  0  0
  1  2  1  0
  2  3  1  0
  3  4  1  0
  4  5  1  0
  5  6  2  0
  6  7  1  0
  7  8  1  0
  8  9  2  0
  9 10  1  0
 10 11  2  0
 11 12  1  0
 12 13  2  0
  7 14  1  0
 14 15  1  0
 15 16  2  0
 15 17  1  0
 14 18  2  0
 18 19  1  0
 19 20  1  0
 20 21  2  0
 21 22  1  0
 22 23  2  0
 23 24  1  0
 24 25  2  0
 25 26  1  0
 26 27  2  0
 27 28  1  0
 28 29  2  0
 29 30  1  0
 30 31  2  0
 31 32  1  0
 32 33  2  0
 33 34  1  0
 23 35  1  0
 35 36  2  0
 18  5  1  0
 36 20  1  0
 13  8  1  0
 29 24  1  0
 34 30  1  0
  1 37  1  0
  1 38  1  0
  1 39  1  0
  2 40  1  0
  2 41  1  0
  3 42  1  0
  3 43  1  0
  4 44  1  0
  4 45  1  0
  9 46  1  0
 10 47  1  0
 11 48  1  0
 12 49  1  0
 13 50  1  0
 17 51  1  0
 19 52  1  0
 19 53  1  0
 21 54  1  0
 22 55  1  0
 25 56  1  0
 26 57  1  0
 27 58  1  0
 28 59  1  0
 34 60  1  0
 35 61  1  0
 36 62  1  0
M  END
$$$$
