
     RDKit          3D

 61 65  0  0  0  0  0  0  0  0999 V2000
    2.8355    3.3049    1.7261 C   0  0  0  0  0  0  0  0  0  0  0  0
    2.7818    1.9713    1.0983 C   0  0  0  0  0  0  0  0  0  0  0  0
    3.9345    1.2307    1.0179 C   0  0  0  0  0  0  0  0  0  0  0  0
    3.9548   -0.0377    0.4374 C   0  0  0  0  0  0  0  0  0  0  0  0
    5.1511   -0.7732    0.3692 N   0  0  0  0  0  0  0  0  0  0  0  0
    5.3023   -2.0832   -0.2014 C   0  0  0  0  0  0  0  0  0  0  0  0
    6.6075   -1.9171   -0.9910 C   0  0  0  0  0  0  0  0  0  0  0  0
    7.4193   -1.0604   -0.0676 C   0  0  1  0  0  0  0  0  0  0  0  0
    8.1895   -0.1123   -0.8503 N   0  0  0  0  0  0  0  0  0  0  0  0
    6.4416   -0.3656    0.8504 C   0  0  0  0  0  0  0  0  0  0  0  0
    2.7585   -0.5153   -0.0541 C   0  0  0  0  0  0  0  0  0  0  0  0
    1.5811    0.2006    0.0093 C   0  0  0  0  0  0  0  0  0  0  0  0
    0.2937   -0.0330   -0.3909 N   0  0  0  0  0  0  0  0  0  0  0  0
   -0.4840    0.9956   -0.0901 C   0  0  0  0  0  0  0  0  0  0  0  0
   -1.8631    1.3570   -0.3389 C   0  0  0  0  0  0  0  0  0  0  0  0
   -2.7948    0.5205   -0.8781 C   0  0  0  0  0  0  0  0  0  0  0  0
   -2.5551   -0.8734   -0.9066 N   0  0  0  0  0  0  0  0  0  0  0  0
   -3.5138   -1.7863   -1.4910 C   0  0  0  0  0  0  0  0  0  0  0  0
   -4.4414   -2.3959   -0.4928 C   0  0  1  0  0  0  0  0  0  0  0  0
   -3.7193   -3.1553    0.4500 O   0  0  0  0  0  0  0  0  0  0  0  0
   -5.3269   -1.4959    0.2417 C   0  0  0  0  0  0  0  0  0  0  0  0
   -4.9458   -0.8202    1.3831 C   0  0  0  0  0  0  0  0  0  0  0  0
   -5.8275    0.0101    2.0257 C   0  0  0  0  0  0  0  0  0  0  0  0
   -7.1109    0.2015    1.5661 C   0  0  0  0  0  0  0  0  0  0  0  0
   -7.5042   -0.4649    0.4306 C   0  0  0  0  0  0  0  0  0  0  0  0
   -9.1473   -0.2330   -0.1760 Cl  0  0  0  0  0  0  0  0  0  0  0  0
   -6.6214   -1.2964   -0.2131 C   0  0  0  0  0  0  0  0  0  0  0  0
   -4.0583    1.0035   -1.2803 C   0  0  0  0  0  0  0  0  0  0  0  0
   -4.3544    2.3447   -1.1157 C   0  0  0  0  0  0  0  0  0  0  0  0
   -3.4515    3.1574   -0.5849 N   0  0  0  0  0  0  0  0  0  0  0  0
   -2.2537    2.7073   -0.2062 C   0  0  0  0  0  0  0  0  0  0  0  0
   -1.3902    3.4957    0.3041 O   0  0  0  0  0  0  0  0  0  0  0  0
    0.3720    1.8961    0.5182 N   0  0  0  0  0  0  0  0  0  0  0  0
    1.6052    1.4425    0.5876 C   0  0  0  0  0  0  0  0  0  0  0  0
    2.0321    3.9823    1.3773 H   0  0  0  0  0  0  0  0  0  0  0  0
    2.8210    3.1658    2.8297 H   0  0  0  0  0  0  0  0  0  0  0  0
    3.8201    3.7607    1.4445 H   0  0  0  0  0  0  0  0  0  0  0  0
    4.8941    1.5938    1.4028 H   0  0  0  0  0  0  0  0  0  0  0  0
    4.5399   -2.3566   -0.9336 H   0  0  0  0  0  0  0  0  0  0  0  0
    5.4289   -2.8713    0.5720 H   0  0  0  0  0  0  0  0  0  0  0  0
    6.3514   -1.3084   -1.8847 H   0  0  0  0  0  0  0  0  0  0  0  0
    7.0574   -2.8797   -1.2307 H   0  0  0  0  0  0  0  0  0  0  0  0
    8.1493   -1.6535    0.5202 H   0  0  0  0  0  0  0  0  0  0  0  0
    7.6579    0.2421   -1.6829 H   0  0  0  0  0  0  0  0  0  0  0  0
    8.5626    0.6776   -0.2782 H   0  0  0  0  0  0  0  0  0  0  0  0
    6.6307    0.7110    0.7907 H   0  0  0  0  0  0  0  0  0  0  0  0
    6.6202   -0.7042    1.8941 H   0  0  0  0  0  0  0  0  0  0  0  0
    2.7357   -1.5029   -0.5148 H   0  0  0  0  0  0  0  0  0  0  0  0
    0.0761   -0.8954   -0.8847 H   0  0  0  0  0  0  0  0  0  0  0  0
   -1.7266   -1.3230   -0.4654 H   0  0  0  0  0  0  0  0  0  0  0  0
   -4.0657   -1.2678   -2.2865 H   0  0  0  0  0  0  0  0  0  0  0  0
   -2.9500   -2.6149   -2.0381 H   0  0  0  0  0  0  0  0  0  0  0  0
   -5.0879   -3.1383   -1.0445 H   0  0  0  0  0  0  0  0  0  0  0  0
   -3.3216   -3.9118   -0.0579 H   0  0  0  0  0  0  0  0  0  0  0  0
   -3.9460   -0.9435    1.7766 H   0  0  0  0  0  0  0  0  0  0  0  0
   -5.5399    0.5588    2.9402 H   0  0  0  0  0  0  0  0  0  0  0  0
   -7.8160    0.8676    2.0828 H   0  0  0  0  0  0  0  0  0  0  0  0
   -6.9790   -1.8010   -1.1065 H   0  0  0  0  0  0  0  0  0  0  0  0
   -4.7913    0.3583   -1.7266 H   0  0  0  0  0  0  0  0  0  0  0  0
   -5.3460    2.6727   -1.4416 H   0  0  0  0  0  0  0  0  0  0  0  0
   -3.6722    4.1615   -0.4597 H   0  0  0  0  0  0  0  0  0  0  0  0
  1  2  1  0
  2  3  2  0
  3  4  1  0
  4  5  1  0
  5  6  1  0
  6  7  1  0
  7  8  1  0
  8  9  1  0
  8 10  1  0
  4 11  2  0
 11 12  1  0
 12 13  1  0
 13 14  1  0
 14 15  1  0
 15 16  2  0
 16 17  1  0
 17 18  1  0
 18 19  1  0
 19 20  1  0
 19 21  1  0
 21 22  2  0
 22 23  1  0
 23 24  2  0
 24 25  1  0
 25 26  1  0
 25 27  2  0
 16 28  1  0
 28 29  2  0
 29 30  1  0
 30 31  1  0
 31 32  2  0
 14 33  2  0
 33 34  1  0
 34  2  1  0
 10  5  1  0
 34 12  2  0
 31 15  1  0
 27 21  1  0
  1 35  1  0
  1 36  1  0
  1 37  1  0
  3 38  1  0
  6 39  1  0
  6 40  1  0
  7 41  1  0
  7 42  1  0
  8 43  1  1
  9 44  1  0
  9 45  1  0
 10 46  1  0
 10 47  1  0
 11 48  1  0
 13 49  1  0
 17 50  1  0
 18 51  1  0
 18 52  1  0
 19 53  1  6
 20 54  1  0
 22 55  1  0
 23 56  1  0
 24 57  1  0
 27 58  1  0
 28 59  1  0
 29 60  1  0
 30 61  1  0
M  END
$$$$
