
     RDKit          3D

 52 54  0  0  0  0  0  0  0  0999 V2000
   -3.4561   -4.1689    0.0605 C   0  0  0  0  0  0  0  0  0  0  0  0
   -2.0411   -3.7346   -0.0929 C   0  0  0  0  0  0  0  0  0  0  0  0
   -1.9165   -2.2308   -0.3307 C   0  0  2  0  0  0  0  0  0  0  0  0
   -2.6645   -1.8581   -1.5952 C   0  0  0  0  0  0  0  0  0  0  0  0
   -2.6209   -0.5125   -1.8806 O   0  0  0  0  0  0  0  0  0  0  0  0
   -0.5370   -1.8639   -0.4866 N   0  0  0  0  0  0  0  0  0  0  0  0
   -0.1217   -0.5182   -0.4589 C   0  0  0  0  0  0  0  0  0  0  0  0
    1.1893   -0.2066   -0.7266 N   0  0  0  0  0  0  0  0  0  0  0  0
    1.6678    1.0374   -0.6986 C   0  0  0  0  0  0  0  0  0  0  0  0
    3.0117    1.3317   -0.9815 N   0  0  0  0  0  0  0  0  0  0  0  0
    4.0670    0.4489   -1.3220 C   0  0  0  0  0  0  0  0  0  0  0  0
    4.3091   -0.4880   -0.2007 C   0  0  0  0  0  0  0  0  0  0  0  0
    3.7335   -1.7323   -0.2315 C   0  0  0  0  0  0  0  0  0  0  0  0
    3.9794   -2.5755    0.8618 C   0  0  0  0  0  0  0  0  0  0  0  0
    4.7605   -2.1648    1.9061 C   0  0  0  0  0  0  0  0  0  0  0  0
    5.3178   -0.9027    1.8896 C   0  0  0  0  0  0  0  0  0  0  0  0
    5.1017   -0.0479    0.8400 C   0  0  0  0  0  0  0  0  0  0  0  0
    0.7540    2.0258   -0.3776 C   0  0  0  0  0  0  0  0  0  0  0  0
    0.8673    3.3552   -0.2551 N   0  0  0  0  0  0  0  0  0  0  0  0
   -0.3362    3.9063    0.0841 C   0  0  0  0  0  0  0  0  0  0  0  0
   -1.2217    2.9003    0.1759 N   0  0  0  0  0  0  0  0  0  0  0  0
   -2.6221    3.0127    0.5121 C   0  0  0  0  0  0  0  0  0  0  0  0
   -3.3575    3.7411   -0.5900 C   0  0  0  0  0  0  0  0  0  0  0  0
   -2.8052    3.7502    1.8450 C   0  0  0  0  0  0  0  0  0  0  0  0
   -0.5739    1.7547   -0.1016 C   0  0  0  0  0  0  0  0  0  0  0  0
   -0.9795    0.4556   -0.1528 N   0  0  0  0  0  0  0  0  0  0  0  0
   -3.8383   -4.7121   -0.8403 H   0  0  0  0  0  0  0  0  0  0  0  0
   -4.1455   -3.3311    0.3426 H   0  0  0  0  0  0  0  0  0  0  0  0
   -3.5161   -4.9047    0.8890 H   0  0  0  0  0  0  0  0  0  0  0  0
   -1.5679   -4.3056   -0.9142 H   0  0  0  0  0  0  0  0  0  0  0  0
   -1.4870   -3.9723    0.8403 H   0  0  0  0  0  0  0  0  0  0  0  0
   -2.3489   -1.6860    0.5200 H   0  0  0  0  0  0  0  0  0  0  0  0
   -2.1993   -2.3807   -2.4826 H   0  0  0  0  0  0  0  0  0  0  0  0
   -3.7160   -2.2065   -1.5876 H   0  0  0  0  0  0  0  0  0  0  0  0
   -3.5173   -0.1436   -2.0362 H   0  0  0  0  0  0  0  0  0  0  0  0
    0.1773   -2.6302   -0.6252 H   0  0  0  0  0  0  0  0  0  0  0  0
    3.3006    2.3728   -0.9379 H   0  0  0  0  0  0  0  0  0  0  0  0
    4.9946    1.0333   -1.5554 H   0  0  0  0  0  0  0  0  0  0  0  0
    3.8684   -0.1805   -2.2150 H   0  0  0  0  0  0  0  0  0  0  0  0
    3.1166   -2.1005   -1.0500 H   0  0  0  0  0  0  0  0  0  0  0  0
    3.5445   -3.5633    0.8763 H   0  0  0  0  0  0  0  0  0  0  0  0
    4.9340   -2.8375    2.7402 H   0  0  0  0  0  0  0  0  0  0  0  0
    5.9356   -0.5748    2.7118 H   0  0  0  0  0  0  0  0  0  0  0  0
    5.5300    0.9524    0.8043 H   0  0  0  0  0  0  0  0  0  0  0  0
   -0.4868    4.9672    0.2371 H   0  0  0  0  0  0  0  0  0  0  0  0
   -3.0503    2.0047    0.6598 H   0  0  0  0  0  0  0  0  0  0  0  0
   -3.6347    4.7435   -0.2055 H   0  0  0  0  0  0  0  0  0  0  0  0
   -2.7224    3.8531   -1.4839 H   0  0  0  0  0  0  0  0  0  0  0  0
   -4.2501    3.1634   -0.8621 H   0  0  0  0  0  0  0  0  0  0  0  0
   -3.8716    3.9338    1.9941 H   0  0  0  0  0  0  0  0  0  0  0  0
   -2.3629    3.1077    2.6391 H   0  0  0  0  0  0  0  0  0  0  0  0
   -2.1920    4.6826    1.8497 H   0  0  0  0  0  0  0  0  0  0  0  0
  1  2  1  0
  2  3  1  0
  3  4  1  0
  4  5  1  0
  3  6  1  0
  6  7  1  0
  7  8  2  0
  8  9  1  0
  9 10  1  0
 10 11  1  0
 11 12  1  0
 12 13  2  0
 13 14  1  0
 14 15  2  0
 15 16  1  0
 16 17  2  0
  9 18  2  0
 18 19  1  0
 19 20  2  0
 20 21  1  0
 21 22  1  0
 22 23  1  0
 22 24  1  0
 21 25  1  0
 25 26  2  0
 26  7  1  0
 17 12  1  0
 25 18  1  0
  1 27  1  0
  1 28  1  0
  1 29  1  0
  2 30  1  0
  2 31  1  0
  3 32  1  1
  4 33  1  0
  4 34  1  0
  5 35  1  0
  6 36  1  0
 10 37  1  0
 11 38  1  0
 11 39  1  0
 13 40  1  0
 14 41  1  0
 15 42  1  0
 16 43  1  0
 17 44  1  0
 20 45  1  0
 22 46  1  0
 23 47  1  0
 23 48  1  0
 23 49  1  0
 24 50  1  0
 24 51  1  0
 24 52  1  0
M  END
$$$$
