
     RDKit          3D

 50 53  0  0  0  0  0  0  0  0999 V2000
   -1.7093    0.7877    2.0682 N   0  0  0  0  0  0  0  0  0  0  0  0
   -2.1129    1.4392    0.8534 C   0  0  1  0  0  0  0  0  0  0  0  0
   -1.8568    0.6212   -0.3699 C   0  0  0  0  0  0  0  0  0  0  0  0
   -0.3975    0.3084   -0.5177 C   0  0  0  0  0  0  0  0  0  0  0  0
    0.3546    0.7662    0.3772 O   0  0  0  0  0  0  0  0  0  0  0  0
    0.1000   -0.4507   -1.5916 N   0  0  0  0  0  0  0  0  0  0  0  0
   -0.6866   -1.0207   -2.6542 C   0  0  0  0  0  0  0  0  0  0  0  0
    0.1984   -0.8350   -3.8535 C   0  0  0  0  0  0  0  0  0  0  0  0
    1.5849   -0.5462   -3.3344 C   0  0  0  0  0  0  0  0  0  0  0  0
    1.4505   -0.8149   -1.8505 C   0  0  1  0  0  0  0  0  0  0  0  0
    2.4695   -0.0656   -1.0741 C   0  0  0  0  0  0  0  0  0  0  0  0
    3.5139   -0.6130   -0.4013 N   0  0  0  0  0  0  0  0  0  0  0  0
    4.2413    0.3519    0.1914 C   0  0  0  0  0  0  0  0  0  0  0  0
    5.4432    0.2404    1.0132 C   0  0  0  0  0  0  0  0  0  0  0  0
    5.4861   -0.5877    2.0707 N   0  0  0  0  0  0  0  0  0  0  0  0
    6.5800   -0.7140    2.8501 C   0  0  0  0  0  0  0  0  0  0  0  0
    7.7185    0.0185    2.5837 C   0  0  0  0  0  0  0  0  0  0  0  0
    7.6680    0.8670    1.4966 C   0  0  0  0  0  0  0  0  0  0  0  0
    6.5524    0.9582    0.7485 N   0  0  0  0  0  0  0  0  0  0  0  0
    3.6057    1.5042   -0.1426 N   0  0  0  0  0  0  0  0  0  0  0  0
    2.5739    1.2231   -0.8830 O   0  0  0  0  0  0  0  0  0  0  0  0
   -3.5694    1.8149    0.9642 C   0  0  0  0  0  0  0  0  0  0  0  0
   -4.4625    0.6482    1.1741 C   0  0  0  0  0  0  0  0  0  0  0  0
   -5.2142    0.1460    0.1116 C   0  0  0  0  0  0  0  0  0  0  0  0
   -6.0519   -0.9238    0.2266 C   0  0  0  0  0  0  0  0  0  0  0  0
   -6.7503   -1.3503   -0.8621 F   0  0  0  0  0  0  0  0  0  0  0  0
   -6.1606   -1.5378    1.4517 C   0  0  0  0  0  0  0  0  0  0  0  0
   -6.9966   -2.6056    1.5665 F   0  0  0  0  0  0  0  0  0  0  0  0
   -5.4282   -1.0615    2.5204 C   0  0  0  0  0  0  0  0  0  0  0  0
   -4.5871    0.0194    2.3879 C   0  0  0  0  0  0  0  0  0  0  0  0
   -3.8904    0.4523    3.4733 F   0  0  0  0  0  0  0  0  0  0  0  0
   -0.7797    1.1363    2.4259 H   0  0  0  0  0  0  0  0  0  0  0  0
   -1.6184   -0.2508    1.9325 H   0  0  0  0  0  0  0  0  0  0  0  0
   -1.5157    2.3725    0.7800 H   0  0  0  0  0  0  0  0  0  0  0  0
   -2.2657    1.0894   -1.2692 H   0  0  0  0  0  0  0  0  0  0  0  0
   -2.3855   -0.3495   -0.2440 H   0  0  0  0  0  0  0  0  0  0  0  0
   -0.7822   -2.1299   -2.4974 H   0  0  0  0  0  0  0  0  0  0  0  0
   -1.6832   -0.5448   -2.7572 H   0  0  0  0  0  0  0  0  0  0  0  0
    0.2505   -1.7248   -4.5084 H   0  0  0  0  0  0  0  0  0  0  0  0
   -0.1764   -0.0051   -4.4979 H   0  0  0  0  0  0  0  0  0  0  0  0
    1.8336    0.5248   -3.4519 H   0  0  0  0  0  0  0  0  0  0  0  0
    2.3491   -1.2149   -3.7803 H   0  0  0  0  0  0  0  0  0  0  0  0
    1.5502   -1.9101   -1.7130 H   0  0  0  0  0  0  0  0  0  0  0  0
    6.6096   -1.3900    3.7101 H   0  0  0  0  0  0  0  0  0  0  0  0
    8.6180   -0.0513    3.1821 H   0  0  0  0  0  0  0  0  0  0  0  0
    8.5682    1.4504    1.2805 H   0  0  0  0  0  0  0  0  0  0  0  0
   -3.8455    2.2970   -0.0125 H   0  0  0  0  0  0  0  0  0  0  0  0
   -3.7243    2.6041    1.7311 H   0  0  0  0  0  0  0  0  0  0  0  0
   -5.1221    0.6371   -0.8514 H   0  0  0  0  0  0  0  0  0  0  0  0
   -5.5473   -1.5805    3.4714 H   0  0  0  0  0  0  0  0  0  0  0  0
  1  2  1  0
  2  3  1  0
  3  4  1  0
  4  5  2  0
  4  6  1  0
  6  7  1  0
  7  8  1  0
  8  9  1  0
  9 10  1  0
 10 11  1  0
 11 12  2  0
 12 13  1  0
 13 14  1  0
 14 15  2  0
 15 16  1  0
 16 17  2  0
 17 18  1  0
 18 19  2  0
 13 20  2  0
 20 21  1  0
  2 22  1  0
 22 23  1  0
 23 24  2  0
 24 25  1  0
 25 26  1  0
 25 27  2  0
 27 28  1  0
 27 29  1  0
 29 30  2  0
 30 31  1  0
 10  6  1  0
 21 11  1  0
 30 23  1  0
 19 14  1  0
  1 32  1  0
  1 33  1  0
  2 34  1  6
  3 35  1  0
  3 36  1  0
  7 37  1  0
  7 38  1  0
  8 39  1  0
  8 40  1  0
  9 41  1  0
  9 42  1  0
 10 43  1  6
 16 44  1  0
 17 45  1  0
 18 46  1  0
 22 47  1  0
 22 48  1  0
 24 49  1  0
 29 50  1  0
M  END
$$$$
