
     RDKit          3D

 53 55  0  0  0  0  0  0  0  0999 V2000
   -5.5977   -2.9529   -0.8166 C   0  0  0  0  0  0  0  0  0  0  0  0
   -4.4114   -2.2010   -0.7225 O   0  0  0  0  0  0  0  0  0  0  0  0
   -4.4153   -1.0620    0.0926 C   0  0  0  0  0  0  0  0  0  0  0  0
   -5.5610   -0.7071    0.7666 C   0  0  0  0  0  0  0  0  0  0  0  0
   -5.5420    0.4248    1.5694 C   0  0  0  0  0  0  0  0  0  0  0  0
   -6.7773    0.8394    2.3164 C   0  0  0  0  0  0  0  0  0  0  0  0
   -4.4200    1.1186    1.6549 N   0  0  0  0  0  0  0  0  0  0  0  0
   -3.2801    0.8143    1.0195 C   0  0  0  0  0  0  0  0  0  0  0  0
   -2.1211    1.6239    1.2300 N   0  0  0  0  0  0  0  0  0  0  0  0
   -0.9386    1.4146    0.4743 C   0  0  0  0  0  0  0  0  0  0  0  0
    0.1840    0.9567    1.1255 C   0  0  0  0  0  0  0  0  0  0  0  0
    1.3895    0.7203    0.4516 C   0  0  0  0  0  0  0  0  0  0  0  0
    2.5232    0.2579    1.1096 N   0  0  0  0  0  0  0  0  0  0  0  0
    3.8201   -0.0727    0.6575 C   0  0  2  0  0  0  0  0  0  0  0  0
    4.5898    1.0054   -0.0659 C   0  0  0  0  0  0  0  0  0  0  0  0
    6.3326    0.5923    0.2063 S   0  0  0  0  0  6  0  0  0  0  0  0
    6.6294    0.9631    1.6282 O   0  0  0  0  0  0  0  0  0  0  0  0
    7.1882    1.3601   -0.7612 O   0  0  0  0  0  0  0  0  0  0  0  0
    6.4940   -1.1358   -0.1012 C   0  0  0  0  0  0  0  0  0  0  0  0
    5.3258   -1.9642    0.3062 C   0  0  0  0  0  0  0  0  0  0  0  0
    3.9783   -1.3641   -0.0846 C   0  0  2  0  0  0  0  0  0  0  0  0
    4.0356   -1.1727   -1.5168 N   0  0  0  0  0  0  0  0  0  0  0  0
    1.3499    0.9815   -0.8875 C   0  0  0  0  0  0  0  0  0  0  0  0
    0.2470    1.4316   -1.5188 N   0  0  0  0  0  0  0  0  0  0  0  0
   -0.9229    1.6629   -0.8682 C   0  0  0  0  0  0  0  0  0  0  0  0
   -2.0369    2.2135   -1.6265 C   0  0  0  0  0  0  0  0  0  0  0  0
   -1.9294    2.3438   -3.0210 N   0  0  0  0  0  0  0  0  0  0  0  0
   -3.0787    2.5683   -1.0520 O   0  0  0  0  0  0  0  0  0  0  0  0
   -3.2737   -0.2952    0.2222 C   0  0  0  0  0  0  0  0  0  0  0  0
   -5.3799   -3.9282   -1.3150 H   0  0  0  0  0  0  0  0  0  0  0  0
   -6.3623   -2.3658   -1.3314 H   0  0  0  0  0  0  0  0  0  0  0  0
   -5.9077   -3.1560    0.2455 H   0  0  0  0  0  0  0  0  0  0  0  0
   -6.4914   -1.2659    0.7058 H   0  0  0  0  0  0  0  0  0  0  0  0
   -7.6383    0.2996    1.8500 H   0  0  0  0  0  0  0  0  0  0  0  0
   -6.6554    0.4346    3.3481 H   0  0  0  0  0  0  0  0  0  0  0  0
   -6.9695    1.9082    2.2664 H   0  0  0  0  0  0  0  0  0  0  0  0
   -2.1879    2.3661    1.9605 H   0  0  0  0  0  0  0  0  0  0  0  0
    0.1572    0.7669    2.1878 H   0  0  0  0  0  0  0  0  0  0  0  0
    2.3676    0.1257    2.1889 H   0  0  0  0  0  0  0  0  0  0  0  0
    4.4564   -0.2318    1.6130 H   0  0  0  0  0  0  0  0  0  0  0  0
    4.3645    2.0212    0.2630 H   0  0  0  0  0  0  0  0  0  0  0  0
    4.4709    0.8458   -1.1676 H   0  0  0  0  0  0  0  0  0  0  0  0
    6.6966   -1.2745   -1.1825 H   0  0  0  0  0  0  0  0  0  0  0  0
    7.3812   -1.5327    0.4435 H   0  0  0  0  0  0  0  0  0  0  0  0
    5.4490   -2.9594   -0.1819 H   0  0  0  0  0  0  0  0  0  0  0  0
    5.3459   -2.1618    1.3970 H   0  0  0  0  0  0  0  0  0  0  0  0
    3.2141   -2.1158    0.1736 H   0  0  0  0  0  0  0  0  0  0  0  0
    4.7687   -1.7889   -1.9234 H   0  0  0  0  0  0  0  0  0  0  0  0
    3.1063   -1.3967   -1.9556 H   0  0  0  0  0  0  0  0  0  0  0  0
    2.2054    0.8419   -1.5088 H   0  0  0  0  0  0  0  0  0  0  0  0
   -2.2976    3.1866   -3.4966 H   0  0  0  0  0  0  0  0  0  0  0  0
   -1.4825    1.6001   -3.5789 H   0  0  0  0  0  0  0  0  0  0  0  0
   -2.3928   -0.5844   -0.3091 H   0  0  0  0  0  0  0  0  0  0  0  0
  1  2  1  0
  2  3  1  0
  3  4  2  0
  4  5  1  0
  5  6  1  0
  5  7  2  0
  7  8  1  0
  8  9  1  0
  9 10  1  0
 10 11  2  0
 11 12  1  0
 12 13  1  0
 13 14  1  0
 14 15  1  0
 15 16  1  0
 16 17  2  0
 16 18  2  0
 16 19  1  0
 19 20  1  0
 20 21  1  0
 21 22  1  0
 12 23  2  0
 23 24  1  0
 24 25  2  0
 25 26  1  0
 26 27  1  0
 26 28  2  0
  8 29  2  0
 29  3  1  0
 25 10  1  0
 21 14  1  0
  1 30  1  0
  1 31  1  0
  1 32  1  0
  4 33  1  0
  6 34  1  0
  6 35  1  0
  6 36  1  0
  9 37  1  0
 11 38  1  0
 13 39  1  0
 14 40  1  1
 15 41  1  0
 15 42  1  0
 19 43  1  0
 19 44  1  0
 20 45  1  0
 20 46  1  0
 21 47  1  6
 22 48  1  0
 22 49  1  0
 23 50  1  0
 27 51  1  0
 27 52  1  0
 29 53  1  0
M  END
$$$$
