
     RDKit          3D

 66 71  0  0  0  0  0  0  0  0999 V2000
    2.9836    1.8162   -0.9911 O   0  0  0  0  0  0  0  0  0  0  0  0
    3.2695    0.6114   -0.7536 C   0  0  0  0  0  0  0  0  0  0  0  0
    4.5319    0.1000   -0.8134 N   0  0  0  0  0  0  0  0  0  0  0  0
    5.7826    0.7391   -1.1123 C   0  0  0  0  0  0  0  0  0  0  0  0
    6.5568    1.1792    0.0984 C   0  0  1  0  0  0  0  0  0  0  0  0
    7.7610    1.8145   -0.3067 O   0  0  0  0  0  0  0  0  0  0  0  0
    5.8308    2.1283    1.0039 C   0  0  0  0  0  0  0  0  0  0  0  0
    4.6555    1.5725    1.5011 O   0  0  0  0  0  0  0  0  0  0  0  0
    4.4439   -1.2103   -0.5011 C   0  0  0  0  0  0  0  0  0  0  0  0
    5.3832   -2.2253   -0.3993 C   0  0  0  0  0  0  0  0  0  0  0  0
    5.0006   -3.5118   -0.0495 C   0  0  0  0  0  0  0  0  0  0  0  0
    3.6835   -3.7816    0.1973 C   0  0  0  0  0  0  0  0  0  0  0  0
    2.7618   -2.7722    0.0945 C   0  0  0  0  0  0  0  0  0  0  0  0
    3.1329   -1.4789   -0.2550 C   0  0  0  0  0  0  0  0  0  0  0  0
    2.4006   -0.3371   -0.4140 N   0  0  0  0  0  0  0  0  0  0  0  0
    0.9909   -0.3049   -0.2396 C   0  0  0  0  0  0  0  0  0  0  0  0
    0.2994    0.4636   -1.3814 C   0  0  0  0  0  0  0  0  0  0  0  0
   -1.1449    0.1426   -1.2258 C   0  0  0  0  0  0  0  0  0  0  0  0
   -1.7385    0.4635    0.0350 N   0  0  0  0  0  0  0  0  0  0  0  0
   -2.8252   -0.4771    0.2828 C   0  0  0  0  0  0  0  0  0  0  0  0
   -3.9579   -0.3093   -0.6512 C   0  0  1  0  0  0  0  0  0  0  0  0
   -5.0851   -1.2918   -0.4046 C   0  0  1  0  0  0  0  0  0  0  0  0
   -5.8198   -0.9767    0.8647 C   0  0  0  0  0  0  0  0  0  0  0  0
   -6.7527    0.2046    0.5599 C   0  0  0  0  0  0  0  0  0  0  0  0
   -6.1786    0.6647   -0.7608 C   0  0  2  0  0  0  0  0  0  0  0  0
   -6.0698   -0.7073   -1.4432 C   0  0  0  0  0  0  0  0  0  0  0  0
   -4.7246    0.9915   -0.5237 C   0  0  0  0  0  0  0  0  0  0  0  0
   -4.1422    2.2944   -0.7989 C   0  0  0  0  0  0  0  0  0  0  0  0
   -4.4178    1.8428    0.6541 C   0  0  0  0  0  0  0  0  0  0  0  0
   -0.9111    0.5081    1.1705 C   0  0  0  0  0  0  0  0  0  0  0  0
    0.5651    0.3972    0.9944 C   0  0  0  0  0  0  0  0  0  0  0  0
    6.4587    0.0218   -1.6624 H   0  0  0  0  0  0  0  0  0  0  0  0
    5.5948    1.6401   -1.7457 H   0  0  0  0  0  0  0  0  0  0  0  0
    6.9124    0.3063    0.6980 H   0  0  0  0  0  0  0  0  0  0  0  0
    8.3399    1.2088   -0.8095 H   0  0  0  0  0  0  0  0  0  0  0  0
    6.5505    2.3919    1.8226 H   0  0  0  0  0  0  0  0  0  0  0  0
    5.5895    3.0512    0.4146 H   0  0  0  0  0  0  0  0  0  0  0  0
    4.7133    1.6463    2.5044 H   0  0  0  0  0  0  0  0  0  0  0  0
    6.4295   -2.0450   -0.5899 H   0  0  0  0  0  0  0  0  0  0  0  0
    5.7227   -4.3055    0.0311 H   0  0  0  0  0  0  0  0  0  0  0  0
    3.3788   -4.7815    0.4714 H   0  0  0  0  0  0  0  0  0  0  0  0
    1.7236   -3.0157    0.2973 H   0  0  0  0  0  0  0  0  0  0  0  0
    0.5293   -1.3299   -0.2963 H   0  0  0  0  0  0  0  0  0  0  0  0
    0.4611    1.5463   -1.1782 H   0  0  0  0  0  0  0  0  0  0  0  0
    0.6405    0.1403   -2.3633 H   0  0  0  0  0  0  0  0  0  0  0  0
   -1.2602   -0.9540   -1.4727 H   0  0  0  0  0  0  0  0  0  0  0  0
   -1.6962    0.6824   -2.0245 H   0  0  0  0  0  0  0  0  0  0  0  0
   -2.4065   -1.4923    0.1466 H   0  0  0  0  0  0  0  0  0  0  0  0
   -3.1104   -0.3745    1.3427 H   0  0  0  0  0  0  0  0  0  0  0  0
   -3.6273   -0.4699   -1.6952 H   0  0  0  0  0  0  0  0  0  0  0  0
   -4.8515   -2.3227   -0.5859 H   0  0  0  0  0  0  0  0  0  0  0  0
   -6.3748   -1.8442    1.2420 H   0  0  0  0  0  0  0  0  0  0  0  0
   -5.1447   -0.6131    1.6680 H   0  0  0  0  0  0  0  0  0  0  0  0
   -7.7942   -0.1739    0.4261 H   0  0  0  0  0  0  0  0  0  0  0  0
   -6.7419    0.9642    1.3415 H   0  0  0  0  0  0  0  0  0  0  0  0
   -6.7506    1.3842   -1.3061 H   0  0  0  0  0  0  0  0  0  0  0  0
   -7.0272   -1.2487   -1.4187 H   0  0  0  0  0  0  0  0  0  0  0  0
   -5.6047   -0.6517   -2.4307 H   0  0  0  0  0  0  0  0  0  0  0  0
   -3.0922    2.3866   -1.1004 H   0  0  0  0  0  0  0  0  0  0  0  0
   -4.7830    3.1257   -1.1513 H   0  0  0  0  0  0  0  0  0  0  0  0
   -3.5232    1.7272    1.2611 H   0  0  0  0  0  0  0  0  0  0  0  0
   -5.2519    2.3302    1.1758 H   0  0  0  0  0  0  0  0  0  0  0  0
   -1.2076   -0.2825    1.9235 H   0  0  0  0  0  0  0  0  0  0  0  0
   -1.1090    1.4673    1.7207 H   0  0  0  0  0  0  0  0  0  0  0  0
    1.0120    1.4306    0.9637 H   0  0  0  0  0  0  0  0  0  0  0  0
    1.0350   -0.0967    1.8712 H   0  0  0  0  0  0  0  0  0  0  0  0
  1  2  2  0
  2  3  1  0
  3  4  1  0
  4  5  1  0
  5  6  1  0
  5  7  1  0
  7  8  1  0
  3  9  1  0
  9 10  2  0
 10 11  1  0
 11 12  2  0
 12 13  1  0
 13 14  2  0
 14 15  1  0
 15 16  1  0
 16 17  1  0
 17 18  1  0
 18 19  1  0
 19 20  1  0
 20 21  1  0
 21 22  1  0
 22 23  1  0
 23 24  1  0
 24 25  1  0
 25 26  1  0
 25 27  1  0
 27 28  1  0
 28 29  1  0
 19 30  1  0
 30 31  1  0
 15  2  1  0
 31 16  1  0
 14  9  1  0
 27 21  1  0
 26 22  1  0
 29 27  1  0
  4 32  1  0
  4 33  1  0
  5 34  1  1
  6 35  1  0
  7 36  1  0
  7 37  1  0
  8 38  1  0
 10 39  1  0
 11 40  1  0
 12 41  1  0
 13 42  1  0
 16 43  1  0
 17 44  1  0
 17 45  1  0
 18 46  1  0
 18 47  1  0
 20 48  1  0
 20 49  1  0
 21 50  1  6
 22 51  1  6
 23 52  1  0
 23 53  1  0
 24 54  1  0
 24 55  1  0
 25 56  1  6
 26 57  1  0
 26 58  1  0
 28 59  1  0
 28 60  1  0
 29 61  1  0
 29 62  1  0
 30 63  1  0
 30 64  1  0
 31 65  1  0
 31 66  1  0
M  END
$$$$
