
     RDKit          3D

 75 76  0  0  0  0  0  0  0  0999 V2000
   -3.1612    3.4514   -1.0283 C   0  0  0  0  0  0  0  0  0  0  0  0
   -4.0516    2.3935   -1.6335 C   0  0  0  0  0  0  0  0  0  0  0  0
   -4.3365    1.3229   -0.6070 C   0  0  0  0  0  0  0  0  0  0  0  0
   -5.2271    0.2351   -1.1621 C   0  0  0  0  0  0  0  0  0  0  0  0
   -5.1468    2.0135    0.4940 C   0  0  0  0  0  0  0  0  0  0  0  0
   -3.1796    0.8280    0.0067 O   0  0  0  0  0  0  0  0  0  0  0  0
   -2.1755    0.2227   -0.7247 C   0  0  0  0  0  0  0  0  0  0  0  0
   -2.3619    0.1437   -1.9636 O   0  0  0  0  0  0  0  0  0  0  0  0
   -0.9188   -0.3154   -0.0628 C   0  0  0  0  0  0  0  0  0  0  0  0
   -0.2404    0.7946    0.6079 C   0  0  0  0  0  0  0  0  0  0  0  0
   -0.7996    1.2984    1.7859 C   0  0  0  0  0  0  0  0  0  0  0  0
   -0.2540    2.3485    2.4896 C   0  0  0  0  0  0  0  0  0  0  0  0
   -0.8696    2.8687    3.7446 C   0  0  0  0  0  0  0  0  0  0  0  0
    0.9080    2.9205    1.9874 C   0  0  0  0  0  0  0  0  0  0  0  0
    1.4900    2.4609    0.8398 C   0  0  0  0  0  0  0  0  0  0  0  0
    2.7372    3.0934    0.3234 C   0  0  0  0  0  0  0  0  0  0  0  0
    0.8958    1.3723    0.1401 C   0  0  0  0  0  0  0  0  0  0  0  0
    1.5466    0.9966   -0.9726 O   0  0  0  0  0  0  0  0  0  0  0  0
    2.6415    0.2165   -1.2726 C   0  0  0  0  0  0  0  0  0  0  0  0
    2.6822   -1.1971   -0.9042 C   0  0  0  0  0  0  0  0  0  0  0  0
    2.6260   -1.4136    0.4848 O   0  0  0  0  0  0  0  0  0  0  0  0
    3.8408   -1.9613   -1.4130 C   0  0  0  0  0  0  0  0  0  0  0  0
    5.2227   -1.6667   -1.0433 C   0  0  1  0  0  0  0  0  0  0  0  0
    6.0711   -2.6298   -1.7177 O   0  0  0  0  0  0  0  0  0  0  0  0
    5.7828   -0.3190   -1.2539 C   0  0  0  0  0  0  0  0  0  0  0  0
    5.7297    0.1167   -2.6672 C   0  0  0  0  0  0  0  0  0  0  0  0
    5.2554   -0.6408   -3.5429 O   0  0  0  0  0  0  0  0  0  0  0  0
    6.2223    1.3877   -2.9820 O   0  0  0  0  0  1  0  0  0  0  0  0
   -1.3748   -1.4365    0.8031 C   0  0  0  0  0  0  0  0  0  0  0  0
   -0.3580   -2.1553    1.6022 C   0  0  0  0  0  0  0  0  0  0  0  0
    0.1294   -3.4413    0.9256 C   0  0  0  0  0  0  0  0  0  0  0  0
   -1.0018   -4.4616    0.9645 C   0  0  0  0  0  0  0  0  0  0  0  0
   -2.2785   -3.7647    0.5853 C   0  0  0  0  0  0  0  0  0  0  0  0
   -2.0247   -2.4615   -0.1372 C   0  0  0  0  0  0  0  0  0  0  0  0
   -2.3766    2.9716   -0.4096 H   0  0  0  0  0  0  0  0  0  0  0  0
   -2.6701    4.0240   -1.8464 H   0  0  0  0  0  0  0  0  0  0  0  0
   -3.7822    4.1621   -0.4545 H   0  0  0  0  0  0  0  0  0  0  0  0
   -3.6805    2.0018   -2.5832 H   0  0  0  0  0  0  0  0  0  0  0  0
   -5.0336    2.8915   -1.8483 H   0  0  0  0  0  0  0  0  0  0  0  0
   -4.9608   -0.0449   -2.1977 H   0  0  0  0  0  0  0  0  0  0  0  0
   -6.3095    0.5115   -1.0665 H   0  0  0  0  0  0  0  0  0  0  0  0
   -5.0886   -0.6678   -0.5298 H   0  0  0  0  0  0  0  0  0  0  0  0
   -6.0877    2.4294    0.0966 H   0  0  0  0  0  0  0  0  0  0  0  0
   -5.2929    1.2627    1.2918 H   0  0  0  0  0  0  0  0  0  0  0  0
   -4.4871    2.8113    0.9263 H   0  0  0  0  0  0  0  0  0  0  0  0
   -0.2683   -0.7482   -0.8534 H   0  0  0  0  0  0  0  0  0  0  0  0
   -1.7154    0.8497    2.1842 H   0  0  0  0  0  0  0  0  0  0  0  0
   -1.6706    2.1653    4.0518 H   0  0  0  0  0  0  0  0  0  0  0  0
   -1.2287    3.9012    3.6449 H   0  0  0  0  0  0  0  0  0  0  0  0
   -0.0567    2.8750    4.5121 H   0  0  0  0  0  0  0  0  0  0  0  0
    1.3392    3.7620    2.5569 H   0  0  0  0  0  0  0  0  0  0  0  0
    2.6803    4.1766    0.5985 H   0  0  0  0  0  0  0  0  0  0  0  0
    2.7144    3.0563   -0.7945 H   0  0  0  0  0  0  0  0  0  0  0  0
    3.6411    2.6636    0.7512 H   0  0  0  0  0  0  0  0  0  0  0  0
    3.5730    0.7455   -0.9346 H   0  0  0  0  0  0  0  0  0  0  0  0
    2.7541    0.2559   -2.4107 H   0  0  0  0  0  0  0  0  0  0  0  0
    1.7299   -1.7089   -1.2874 H   0  0  0  0  0  0  0  0  0  0  0  0
    3.2494   -2.0938    0.7906 H   0  0  0  0  0  0  0  0  0  0  0  0
    3.6245   -3.0588   -1.0804 H   0  0  0  0  0  0  0  0  0  0  0  0
    3.7400   -2.0784   -2.5508 H   0  0  0  0  0  0  0  0  0  0  0  0
    5.4477   -1.9392    0.0437 H   0  0  0  0  0  0  0  0  0  0  0  0
    6.9677   -2.5550   -1.3027 H   0  0  0  0  0  0  0  0  0  0  0  0
    6.9550   -0.5203   -1.1302 H   0  0  0  0  0  0  0  0  0  0  0  0
    5.6029    0.4475   -0.5013 H   0  0  0  0  0  0  0  0  0  0  0  0
   -2.2350   -1.0863    1.4517 H   0  0  0  0  0  0  0  0  0  0  0  0
   -0.9154   -2.5563    2.5180 H   0  0  0  0  0  0  0  0  0  0  0  0
    0.4548   -1.5755    2.0263 H   0  0  0  0  0  0  0  0  0  0  0  0
    0.4353   -3.2982   -0.1089 H   0  0  0  0  0  0  0  0  0  0  0  0
    0.9426   -3.8488    1.5577 H   0  0  0  0  0  0  0  0  0  0  0  0
   -0.7847   -5.2750    0.2658 H   0  0  0  0  0  0  0  0  0  0  0  0
   -1.1285   -4.8670    1.9821 H   0  0  0  0  0  0  0  0  0  0  0  0
   -2.8537   -4.4040   -0.1157 H   0  0  0  0  0  0  0  0  0  0  0  0
   -2.9442   -3.5605    1.4407 H   0  0  0  0  0  0  0  0  0  0  0  0
   -1.3115   -2.6477   -0.9394 H   0  0  0  0  0  0  0  0  0  0  0  0
   -2.9905   -2.0510   -0.4415 H   0  0  0  0  0  0  0  0  0  0  0  0
  1  2  1  0
  2  3  1  0
  3  4  1  0
  3  5  1  0
  3  6  1  0
  6  7  1  0
  7  8  2  0
  7  9  1  0
  9 10  1  0
 10 11  2  0
 11 12  1  0
 12 13  1  0
 12 14  2  0
 14 15  1  0
 15 16  1  0
 15 17  2  0
 17 18  1  0
 18 19  1  0
 19 20  1  0
 20 21  1  0
 20 22  1  0
 22 23  1  0
 23 24  1  0
 23 25  1  0
 25 26  1  0
 26 27  2  0
 26 28  1  0
  9 29  1  0
 29 30  1  0
 30 31  1  0
 31 32  1  0
 32 33  1  0
 33 34  1  0
 17 10  1  0
 34 29  1  0
  1 35  1  0
  1 36  1  0
  1 37  1  0
  2 38  1  0
  2 39  1  0
  4 40  1  0
  4 41  1  0
  4 42  1  0
  5 43  1  0
  5 44  1  0
  5 45  1  0
  9 46  1  0
 11 47  1  0
 13 48  1  0
 13 49  1  0
 13 50  1  0
 14 51  1  0
 16 52  1  0
 16 53  1  0
 16 54  1  0
 19 55  1  0
 19 56  1  0
 20 57  1  0
 21 58  1  0
 22 59  1  0
 22 60  1  0
 23 61  1  1
 24 62  1  0
 25 63  1  0
 25 64  1  0
 29 65  1  0
 30 66  1  0
 30 67  1  0
 31 68  1  0
 31 69  1  0
 32 70  1  0
 32 71  1  0
 33 72  1  0
 33 73  1  0
 34 74  1  0
 34 75  1  0
M  CHG  1  28  -1
M  END
$$$$
