
     RDKit          3D

 51 54  0  0  0  0  0  0  0  0999 V2000
   -5.4446    5.5808    0.9617 C   0  0  0  0  0  0  0  0  0  0  0  0
   -4.9138    4.2044    0.8378 C   0  0  0  0  0  0  0  0  0  0  0  0
   -5.4969    2.9698    1.0838 C   0  0  0  0  0  0  0  0  0  0  0  0
   -4.7437    1.9350    0.8711 N   0  0  0  0  0  0  0  0  0  0  0  0
   -3.6029    1.8974    0.4879 C   0  0  0  0  0  0  0  0  0  0  0  0
   -2.5442    0.9480    0.1688 C   0  0  0  0  0  0  0  0  0  0  0  0
   -2.7849   -0.4009    0.3038 C   0  0  0  0  0  0  0  0  0  0  0  0
   -1.8518   -1.3460    0.0269 C   0  0  0  0  0  0  0  0  0  0  0  0
   -2.0471   -2.6953    0.1465 O   0  0  0  0  0  0  0  0  0  0  0  0
   -3.2471   -3.2460    0.5730 C   0  0  0  0  0  0  0  0  0  0  0  0
   -3.7243   -4.4341   -0.2758 C   0  0  0  0  0  0  0  0  0  0  0  0
   -4.1847   -5.0047    0.9095 O   0  0  0  0  0  0  0  0  0  0  0  0
   -3.0707   -4.4337    1.5242 C   0  0  0  0  0  0  0  0  0  0  0  0
   -0.5922   -0.8856   -0.4161 C   0  0  0  0  0  0  0  0  0  0  0  0
   -0.3123    0.4310   -0.5629 C   0  0  0  0  0  0  0  0  0  0  0  0
    0.9831    0.8870   -1.0179 C   0  0  0  0  0  0  0  0  0  0  0  0
    1.1881    2.1498   -1.1369 O   0  0  0  0  0  0  0  0  0  0  0  0
    2.0153   -0.0097   -1.3306 N   0  0  0  0  0  0  0  0  0  0  0  0
    3.3049    0.5258   -1.7866 C   0  0  2  0  0  0  0  0  0  0  0  0
    3.5595    0.0059   -3.1856 C   0  0  0  0  0  0  0  0  0  0  0  0
    4.3707    0.1585   -0.8471 C   0  0  0  0  0  0  0  0  0  0  0  0
    4.1152    0.3083    0.5064 C   0  0  0  0  0  0  0  0  0  0  0  0
    5.0642   -0.0173    1.3749 N   0  0  0  0  0  0  0  0  0  0  0  0
    6.2703   -0.4886    1.0140 C   0  0  0  0  0  0  0  0  0  0  0  0
    7.2796   -0.8299    2.0672 C   0  0  0  0  0  0  0  0  0  0  0  0
    7.0058   -2.0907    2.5721 F   0  0  0  0  0  0  0  0  0  0  0  0
    8.5625   -0.7344    1.5836 F   0  0  0  0  0  0  0  0  0  0  0  0
    7.1168    0.0627    3.1041 F   0  0  0  0  0  0  0  0  0  0  0  0
    6.5363   -0.6406   -0.2952 N   0  0  0  0  0  0  0  0  0  0  0  0
    5.5994   -0.3218   -1.2208 C   0  0  0  0  0  0  0  0  0  0  0  0
   -1.3034    1.3580   -0.2658 C   0  0  0  0  0  0  0  0  0  0  0  0
   -3.2558    3.7378    0.2973 S   0  0  0  0  0  0  0  0  0  0  0  0
   -6.4465    5.6890    0.4942 H   0  0  0  0  0  0  0  0  0  0  0  0
   -5.5234    5.8509    2.0215 H   0  0  0  0  0  0  0  0  0  0  0  0
   -4.7327    6.2470    0.4046 H   0  0  0  0  0  0  0  0  0  0  0  0
   -6.5391    2.8998    1.4381 H   0  0  0  0  0  0  0  0  0  0  0  0
   -3.7762   -0.6697    0.6487 H   0  0  0  0  0  0  0  0  0  0  0  0
   -4.0828   -2.5939    0.8287 H   0  0  0  0  0  0  0  0  0  0  0  0
   -4.5181   -4.1189   -0.9834 H   0  0  0  0  0  0  0  0  0  0  0  0
   -2.8671   -4.9622   -0.7154 H   0  0  0  0  0  0  0  0  0  0  0  0
   -2.1377   -4.9546    1.2689 H   0  0  0  0  0  0  0  0  0  0  0  0
   -3.2119   -4.1831    2.5851 H   0  0  0  0  0  0  0  0  0  0  0  0
    0.1309   -1.6530   -0.6292 H   0  0  0  0  0  0  0  0  0  0  0  0
    1.9019   -1.0378   -1.2517 H   0  0  0  0  0  0  0  0  0  0  0  0
    3.2282    1.6263   -1.8042 H   0  0  0  0  0  0  0  0  0  0  0  0
    2.6763    0.1956   -3.8119 H   0  0  0  0  0  0  0  0  0  0  0  0
    4.4348    0.4997   -3.6117 H   0  0  0  0  0  0  0  0  0  0  0  0
    3.7310   -1.0826   -3.1631 H   0  0  0  0  0  0  0  0  0  0  0  0
    3.1564    0.6855    0.8599 H   0  0  0  0  0  0  0  0  0  0  0  0
    5.8087   -0.4422   -2.2703 H   0  0  0  0  0  0  0  0  0  0  0  0
   -1.0840    2.4231   -0.3822 H   0  0  0  0  0  0  0  0  0  0  0  0
  1  2  1  0
  2  3  2  0
  3  4  1  0
  4  5  2  0
  5  6  1  0
  6  7  2  0
  7  8  1  0
  8  9  1  0
  9 10  1  0
 10 11  1  0
 11 12  1  0
 12 13  1  0
  8 14  2  0
 14 15  1  0
 15 16  1  0
 16 17  2  0
 16 18  1  0
 18 19  1  0
 19 20  1  0
 19 21  1  0
 21 22  2  0
 22 23  1  0
 23 24  2  0
 24 25  1  0
 25 26  1  0
 25 27  1  0
 25 28  1  0
 24 29  1  0
 29 30  2  0
 15 31  2  0
  5 32  1  0
 32  2  1  0
 31  6  1  0
 13 10  1  0
 30 21  1  0
  1 33  1  0
  1 34  1  0
  1 35  1  0
  3 36  1  0
  7 37  1  0
 10 38  1  0
 11 39  1  0
 11 40  1  0
 13 41  1  0
 13 42  1  0
 14 43  1  0
 18 44  1  0
 19 45  1  6
 20 46  1  0
 20 47  1  0
 20 48  1  0
 22 49  1  0
 30 50  1  0
 31 51  1  0
M  END
$$$$
