
     RDKit          3D

 40 42  0  0  0  0  0  0  0  0999 V2000
   -0.5964   -0.6849    0.8891 C   0  0  0  0  0  0  0  0  0  0  0  0
   -0.3520    0.7271    0.8331 N   0  0  0  0  0  0  0  0  0  0  0  0
   -1.2876    1.6370    0.2975 C   0  0  0  0  0  0  0  0  0  0  0  0
   -1.2976    3.0024    0.1384 C   0  0  0  0  0  0  0  0  0  0  0  0
   -2.4514    3.4695   -0.4544 C   0  0  0  0  0  0  0  0  0  0  0  0
   -3.1617    2.3241   -0.6573 N   0  0  0  0  0  0  0  0  0  0  0  0
   -2.4745    1.2868   -0.2184 N   0  0  0  0  0  0  0  0  0  0  0  0
   -3.1775    0.0735   -0.4133 C   0  0  0  0  0  0  0  0  0  0  0  0
   -4.2822   -0.1155    0.4302 C   0  0  0  0  0  0  0  0  0  0  0  0
   -5.1113   -1.2276    0.4023 C   0  0  0  0  0  0  0  0  0  0  0  0
   -4.8435   -2.2132   -0.5051 C   0  0  0  0  0  0  0  0  0  0  0  0
   -3.7654   -2.0604   -1.3499 C   0  0  0  0  0  0  0  0  0  0  0  0
   -2.9479   -0.9656   -1.3235 C   0  0  0  0  0  0  0  0  0  0  0  0
    1.1691    1.2289    1.4680 S   0  0  0  0  0  0  0  0  0  0  0  0
    1.3212    2.6989    1.3770 O   0  0  0  0  0  0  0  0  0  0  0  0
    1.2827    0.8582    2.9201 O   0  0  0  0  0  0  0  0  0  0  0  0
    2.4991    0.5044    0.5512 C   0  0  0  0  0  0  0  0  0  0  0  0
    2.9523   -0.7215    1.0124 C   0  0  0  0  0  0  0  0  0  0  0  0
    3.9851   -1.3622    0.3622 C   0  0  0  0  0  0  0  0  0  0  0  0
    4.5374   -0.7529   -0.7376 C   0  0  0  0  0  0  0  0  0  0  0  0
    5.6550   -1.4606   -1.4296 C   0  0  0  0  0  0  0  0  0  0  0  0
    4.1033    0.4649   -1.2136 C   0  0  0  0  0  0  0  0  0  0  0  0
    3.0565    1.1147   -0.5549 C   0  0  0  0  0  0  0  0  0  0  0  0
   -0.3697   -1.2027   -0.0673 H   0  0  0  0  0  0  0  0  0  0  0  0
   -1.6327   -0.8538    1.2437 H   0  0  0  0  0  0  0  0  0  0  0  0
    0.0338   -1.1222    1.7198 H   0  0  0  0  0  0  0  0  0  0  0  0
   -0.5064    3.6758    0.4326 H   0  0  0  0  0  0  0  0  0  0  0  0
   -2.6939    4.4997   -0.6844 H   0  0  0  0  0  0  0  0  0  0  0  0
   -4.5505    0.6412    1.1820 H   0  0  0  0  0  0  0  0  0  0  0  0
   -5.9425   -1.3100    1.0777 H   0  0  0  0  0  0  0  0  0  0  0  0
   -5.4360   -3.1132   -0.5968 H   0  0  0  0  0  0  0  0  0  0  0  0
   -3.4607   -2.7727   -2.1035 H   0  0  0  0  0  0  0  0  0  0  0  0
   -2.0842   -0.7656   -1.9474 H   0  0  0  0  0  0  0  0  0  0  0  0
    2.5266   -1.2125    1.8769 H   0  0  0  0  0  0  0  0  0  0  0  0
    4.3256   -2.3329    0.7478 H   0  0  0  0  0  0  0  0  0  0  0  0
    5.2481   -2.2259   -2.1439 H   0  0  0  0  0  0  0  0  0  0  0  0
    6.2655   -0.7422   -1.9845 H   0  0  0  0  0  0  0  0  0  0  0  0
    6.2685   -2.0139   -0.6895 H   0  0  0  0  0  0  0  0  0  0  0  0
    4.5310    0.9547   -2.0794 H   0  0  0  0  0  0  0  0  0  0  0  0
    2.6644    2.0702   -0.8708 H   0  0  0  0  0  0  0  0  0  0  0  0
  1  2  1  0
  2  3  1  0
  3  4  2  0
  4  5  1  0
  5  6  2  0
  6  7  1  0
  7  8  1  0
  8  9  2  0
  9 10  1  0
 10 11  2  0
 11 12  1  0
 12 13  2  0
  2 14  1  0
 14 15  2  0
 14 16  2  0
 14 17  1  0
 17 18  2  0
 18 19  1  0
 19 20  2  0
 20 21  1  0
 20 22  1  0
 22 23  2  0
  7  3  1  0
 13  8  1  0
 23 17  1  0
  1 24  1  0
  1 25  1  0
  1 26  1  0
  4 27  1  0
  5 28  1  0
  9 29  1  0
 10 30  1  0
 11 31  1  0
 12 32  1  0
 13 33  1  0
 18 34  1  0
 19 35  1  0
 21 36  1  0
 21 37  1  0
 21 38  1  0
 22 39  1  0
 23 40  1  0
M  END
$$$$
