
     RDKit          3D

 23 24  0  0  0  0  0  0  0  0999 V2000
   -1.1452    1.7322    1.9616 O   0  0  0  0  0  0  0  0  0  0  0  0
   -0.3259    1.8695    1.0221 C   0  0  0  0  0  0  0  0  0  0  0  0
    0.7869    2.6907    1.1015 O   0  0  0  0  0  0  0  0  0  0  0  0
   -0.5500    1.1199   -0.2413 C   0  0  1  0  0  0  0  0  0  0  0  0
    0.5171    0.1200   -0.4363 C   0  0  0  0  0  0  0  0  0  0  0  0
    1.8282    0.3669   -0.4443 C   0  0  0  0  0  0  0  0  0  0  0  0
    2.7926   -0.7464   -0.6535 C   0  0  0  0  0  0  0  0  0  0  0  0
    3.6388   -0.8397    0.4718 O   0  0  0  0  0  0  0  0  0  0  0  0
   -0.1198   -1.1094   -0.6067 O   0  0  0  0  0  0  0  0  0  0  0  0
   -1.3047   -1.0673    0.1678 C   0  0  2  0  0  0  0  0  0  0  0  0
   -2.5462   -1.6385   -0.4561 C   0  0  0  0  0  0  0  0  0  0  0  0
   -3.0538   -0.2342   -0.2073 C   0  0  0  0  0  0  0  0  0  0  0  0
   -4.1788    0.3091   -0.0649 O   0  0  0  0  0  0  0  0  0  0  0  0
   -1.7416    0.3060   -0.1864 N   0  0  0  0  0  0  0  0  0  0  0  0
    0.7778    3.4613    1.7843 H   0  0  0  0  0  0  0  0  0  0  0  0
   -0.5351    1.8102   -1.1103 H   0  0  0  0  0  0  0  0  0  0  0  0
    2.2428    1.3551   -0.3039 H   0  0  0  0  0  0  0  0  0  0  0  0
    3.4613   -0.4837   -1.5044 H   0  0  0  0  0  0  0  0  0  0  0  0
    2.2960   -1.7055   -0.8559 H   0  0  0  0  0  0  0  0  0  0  0  0
    3.8198   -1.8156    0.6056 H   0  0  0  0  0  0  0  0  0  0  0  0
   -1.1474   -1.2296    1.2314 H   0  0  0  0  0  0  0  0  0  0  0  0
   -3.0362   -2.3557    0.2324 H   0  0  0  0  0  0  0  0  0  0  0  0
   -2.4765   -1.9154   -1.5072 H   0  0  0  0  0  0  0  0  0  0  0  0
  1  2  2  0
  2  3  1  0
  2  4  1  0
  4  5  1  0
  5  6  2  0
  6  7  1  0
  7  8  1  0
  5  9  1  0
  9 10  1  0
 10 11  1  0
 11 12  1  0
 12 13  2  0
 12 14  1  0
 14  4  1  0
 14 10  1  0
  3 15  1  0
  4 16  1  6
  6 17  1  0
  7 18  1  0
  7 19  1  0
  8 20  1  0
 10 21  1  1
 11 22  1  0
 11 23  1  0
M  END
$$$$
