
     RDKit          3D

 26 25  0  0  0  0  0  0  0  0999 V2000
    2.0725   -0.4503    0.5477 C   0  0  1  0  0  0  0  0  0  0  0  0
    2.7485   -1.0472    1.6447 N   0  0  0  0  0  0  0  0  0  0  0  0
    1.4825    0.9135    0.8081 C   0  0  0  0  0  0  0  0  0  0  0  0
    0.6802    1.4031   -0.7671 S   0  0  0  0  0  0  0  0  0  0  0  0
   -0.7548    0.3053   -1.0710 C   0  0  0  0  0  0  0  0  0  0  0  0
   -1.7384    0.6437    0.0236 C   0  0  0  0  0  0  0  0  0  0  0  0
   -3.0741   -0.1744   -0.0057 B   0  0  0  0  0  4  0  0  0  0  0  0
   -4.1607    0.7681    0.3808 O   0  0  0  0  0  0  0  0  0  0  0  0
   -3.1204   -1.2962    0.9496 O   0  0  0  0  0  0  0  0  0  0  0  0
   -3.3802   -0.5982   -1.3869 O   0  0  0  0  0  0  0  0  0  0  0  0
    3.0862   -0.3404   -0.5661 C   0  0  0  0  0  0  0  0  0  0  0  0
    4.3621   -0.5437   -1.0713 O   0  0  0  0  0  0  0  0  0  0  0  0
    2.6198    0.2050   -1.6144 O   0  0  0  0  0  0  0  0  0  0  0  0
    1.2798   -1.1141    0.1559 H   0  0  0  0  0  0  0  0  0  0  0  0
    2.5460   -0.6455    2.5750 H   0  0  0  0  0  0  0  0  0  0  0  0
    3.7573   -1.2694    1.5001 H   0  0  0  0  0  0  0  0  0  0  0  0
    0.8028    0.9413    1.6564 H   0  0  0  0  0  0  0  0  0  0  0  0
    2.3230    1.6048    1.0084 H   0  0  0  0  0  0  0  0  0  0  0  0
   -1.1647    0.5771   -2.0631 H   0  0  0  0  0  0  0  0  0  0  0  0
   -0.4623   -0.7675   -1.0814 H   0  0  0  0  0  0  0  0  0  0  0  0
   -1.2188    0.5135    1.0005 H   0  0  0  0  0  0  0  0  0  0  0  0
   -1.9565    1.7429   -0.0984 H   0  0  0  0  0  0  0  0  0  0  0  0
   -3.9338    1.6257   -0.0978 H   0  0  0  0  0  0  0  0  0  0  0  0
   -3.6167   -2.0678    0.5694 H   0  0  0  0  0  0  0  0  0  0  0  0
   -4.2264   -1.1223   -1.4332 H   0  0  0  0  0  0  0  0  0  0  0  0
    5.0470    0.1927   -1.1572 H   0  0  0  0  0  0  0  0  0  0  0  0
  1  2  1  0
  1  3  1  0
  3  4  1  0
  4  5  1  0
  5  6  1  0
  6  7  1  0
  7  8  1  0
  7  9  1  0
  7 10  1  0
  1 11  1  0
 11 12  1  0
 11 13  2  0
  1 14  1  6
  2 15  1  0
  2 16  1  0
  3 17  1  0
  3 18  1  0
  5 19  1  0
  5 20  1  0
  6 21  1  0
  6 22  1  0
  8 23  1  0
  9 24  1  0
 10 25  1  0
 12 26  1  0
M  CHG  1   7  -1
M  END
$$$$
