
     RDKit          3D

 67 70  0  0  0  0  0  0  0  0999 V2000
   -6.4820   -2.1525    0.6571 C   0  0  0  0  0  0  0  0  0  0  0  0
   -6.5193   -1.7870   -0.7957 C   0  0  0  0  0  0  0  0  0  0  0  0
   -7.2845   -0.6804   -1.1575 N   0  0  0  0  0  0  0  0  0  0  0  0
   -8.5885   -0.7883   -1.6262 C   0  0  0  0  0  0  0  0  0  0  0  0
   -8.6588   -1.1046   -3.1269 C   0  0  0  0  0  0  0  0  0  0  0  0
   -6.5688    0.8483   -1.1948 S   0  0  0  0  0  6  0  0  0  0  0  0
   -7.6175    1.8279   -1.7141 O   0  0  0  0  0  0  0  0  0  0  0  0
   -5.4544    0.8734   -2.2105 O   0  0  0  0  0  0  0  0  0  0  0  0
   -5.9638    1.3832    0.3538 C   0  0  0  0  0  0  0  0  0  0  0  0
   -4.6058    1.6220    0.5197 C   0  0  0  0  0  0  0  0  0  0  0  0
   -4.0797    2.0351    1.7130 C   0  0  0  0  0  0  0  0  0  0  0  0
   -2.7204    2.2588    1.9870 N   0  0  0  0  0  0  0  0  0  0  0  0
   -1.7036    1.5850    1.2685 C   0  0  0  0  0  0  0  0  0  0  0  0
   -2.0104    0.6505    0.3661 N   0  0  0  0  0  0  0  0  0  0  0  0
   -1.0642   -0.0015   -0.3094 C   0  0  0  0  0  0  0  0  0  0  0  0
    0.2726    0.2982   -0.0692 C   0  0  0  0  0  0  0  0  0  0  0  0
    0.6217    1.2579    0.8553 C   0  0  0  0  0  0  0  0  0  0  0  0
    2.0071    1.5979    1.1304 C   0  0  0  0  0  0  0  0  0  0  0  0
    2.2658    2.5888    2.0782 C   0  0  0  0  0  0  0  0  0  0  0  0
    3.5662    2.9385    2.3770 C   0  0  0  0  0  0  0  0  0  0  0  0
    4.5852    2.3332    1.7636 N   0  0  0  0  0  0  0  0  0  0  0  0
    4.3924    1.3610    0.8328 C   0  0  0  0  0  0  0  0  0  0  0  0
    5.5434    0.7229    0.1966 C   0  0  0  0  0  0  0  0  0  0  0  0
    5.4376   -0.2666   -0.7527 C   0  0  0  0  0  0  0  0  0  0  0  0
    6.5746   -0.8311   -1.3082 C   0  0  0  0  0  0  0  0  0  0  0  0
    7.8543   -0.4492   -0.9561 C   0  0  0  0  0  0  0  0  0  0  0  0
    8.9675   -1.0779   -1.5680 N   0  0  0  0  0  0  0  0  0  0  0  0
    9.5952   -2.2480   -1.0627 C   0  0  0  0  0  0  0  0  0  0  0  0
    9.1198   -2.7418   -0.0050 O   0  0  0  0  0  0  0  0  0  0  0  0
   10.7229   -2.8540   -1.7170 N   0  0  0  0  0  0  0  0  0  0  0  0
   11.3080   -4.0468   -1.1397 C   0  0  0  0  0  0  0  0  0  0  0  0
    7.9639    0.5418   -0.0058 C   0  0  0  0  0  0  0  0  0  0  0  0
    6.8378    1.1049    0.5481 C   0  0  0  0  0  0  0  0  0  0  0  0
    3.0899    1.0114    0.5335 C   0  0  0  0  0  0  0  0  0  0  0  0
   -0.3869    1.8742    1.4983 N   0  0  0  0  0  0  0  0  0  0  0  0
   -4.9497    2.2184    2.7847 C   0  0  0  0  0  0  0  0  0  0  0  0
   -6.2800    1.9815    2.6113 C   0  0  0  0  0  0  0  0  0  0  0  0
   -6.8116    1.5655    1.4150 C   0  0  0  0  0  0  0  0  0  0  0  0
   -8.5514    1.2717    1.2516 Cl  0  0  0  0  0  0  0  0  0  0  0  0
   -6.6775   -1.3180    1.3460 H   0  0  0  0  0  0  0  0  0  0  0  0
   -7.1579   -3.0324    0.8792 H   0  0  0  0  0  0  0  0  0  0  0  0
   -5.4681   -2.5390    0.8909 H   0  0  0  0  0  0  0  0  0  0  0  0
   -5.4498   -1.6648   -1.1429 H   0  0  0  0  0  0  0  0  0  0  0  0
   -6.8387   -2.7354   -1.3304 H   0  0  0  0  0  0  0  0  0  0  0  0
   -9.2284   -1.5509   -1.1337 H   0  0  0  0  0  0  0  0  0  0  0  0
   -9.1260    0.1944   -1.4834 H   0  0  0  0  0  0  0  0  0  0  0  0
   -7.7689   -1.6861   -3.3939 H   0  0  0  0  0  0  0  0  0  0  0  0
   -8.7201   -0.1460   -3.6884 H   0  0  0  0  0  0  0  0  0  0  0  0
   -9.5925   -1.6811   -3.3426 H   0  0  0  0  0  0  0  0  0  0  0  0
   -3.9541    1.4922   -0.3277 H   0  0  0  0  0  0  0  0  0  0  0  0
   -2.3986    2.9334    2.7329 H   0  0  0  0  0  0  0  0  0  0  0  0
   -1.2985   -0.7557   -1.0388 H   0  0  0  0  0  0  0  0  0  0  0  0
    1.0416   -0.2200   -0.6060 H   0  0  0  0  0  0  0  0  0  0  0  0
    1.4192    3.0750    2.5713 H   0  0  0  0  0  0  0  0  0  0  0  0
    3.7769    3.7023    3.1063 H   0  0  0  0  0  0  0  0  0  0  0  0
    4.4664   -0.6125   -1.0738 H   0  0  0  0  0  0  0  0  0  0  0  0
    6.4849   -1.6226   -2.0679 H   0  0  0  0  0  0  0  0  0  0  0  0
    9.3536   -0.6624   -2.4398 H   0  0  0  0  0  0  0  0  0  0  0  0
   11.1005   -2.4408   -2.5797 H   0  0  0  0  0  0  0  0  0  0  0  0
   10.5907   -4.6201   -0.5253 H   0  0  0  0  0  0  0  0  0  0  0  0
   12.1554   -3.7609   -0.4835 H   0  0  0  0  0  0  0  0  0  0  0  0
   11.6651   -4.7430   -1.9471 H   0  0  0  0  0  0  0  0  0  0  0  0
    8.9577    0.8660    0.2938 H   0  0  0  0  0  0  0  0  0  0  0  0
    6.9028    1.8880    1.2988 H   0  0  0  0  0  0  0  0  0  0  0  0
    2.8940    0.2461   -0.1990 H   0  0  0  0  0  0  0  0  0  0  0  0
   -4.5972    2.5473    3.7641 H   0  0  0  0  0  0  0  0  0  0  0  0
   -6.9572    2.1244    3.4481 H   0  0  0  0  0  0  0  0  0  0  0  0
  1  2  1  0
  2  3  1  0
  3  4  1  0
  4  5  1  0
  3  6  1  0
  6  7  2  0
  6  8  2  0
  6  9  1  0
  9 10  2  0
 10 11  1  0
 11 12  1  0
 12 13  1  0
 13 14  2  0
 14 15  1  0
 15 16  2  0
 16 17  1  0
 17 18  1  0
 18 19  2  0
 19 20  1  0
 20 21  2  0
 21 22  1  0
 22 23  1  0
 23 24  2  0
 24 25  1  0
 25 26  2  0
 26 27  1  0
 27 28  1  0
 28 29  2  0
 28 30  1  0
 30 31  1  0
 26 32  1  0
 32 33  2  0
 22 34  2  0
 17 35  2  0
 11 36  2  0
 36 37  1  0
 37 38  2  0
 38 39  1  0
 38  9  1  0
 35 13  1  0
 34 18  1  0
 33 23  1  0
  1 40  1  0
  1 41  1  0
  1 42  1  0
  2 43  1  0
  2 44  1  0
  4 45  1  0
  4 46  1  0
  5 47  1  0
  5 48  1  0
  5 49  1  0
 10 50  1  0
 12 51  1  0
 15 52  1  0
 16 53  1  0
 19 54  1  0
 20 55  1  0
 24 56  1  0
 25 57  1  0
 27 58  1  0
 30 59  1  0
 31 60  1  0
 31 61  1  0
 31 62  1  0
 32 63  1  0
 33 64  1  0
 34 65  1  0
 36 66  1  0
 37 67  1  0
M  END
$$$$
