
     RDKit          3D

 64 68  0  0  0  0  0  0  0  0999 V2000
    9.5436   -0.5191    0.0126 C   0  0  0  0  0  0  0  0  0  0  0  0
    8.4918   -1.4528   -0.4626 C   0  0  0  0  0  0  0  0  0  0  0  0
    8.7622   -2.3375   -1.3069 O   0  0  0  0  0  0  0  0  0  0  0  0
    7.1773   -1.3465    0.0380 N   0  0  0  0  0  0  0  0  0  0  0  0
    6.1602   -2.2457   -0.4188 C   0  0  0  0  0  0  0  0  0  0  0  0
    4.9305   -1.4237   -0.7656 C   0  0  0  0  0  0  0  0  0  0  0  0
    4.4646   -0.6906    0.3909 N   0  0  0  0  0  0  0  0  0  0  0  0
    3.1084   -0.2463    0.4757 C   0  0  0  0  0  0  0  0  0  0  0  0
    2.5831    0.3593    1.5890 C   0  0  0  0  0  0  0  0  0  0  0  0
    1.2578    0.7921    1.6634 C   0  0  0  0  0  0  0  0  0  0  0  0
    0.4348    0.6144    0.5962 C   0  0  0  0  0  0  0  0  0  0  0  0
   -0.8948    1.0068    0.5683 O   0  0  0  0  0  0  0  0  0  0  0  0
   -1.5470    1.6329    1.6243 C   0  0  0  0  0  0  0  0  0  0  0  0
   -2.9990    1.9379    1.3218 C   0  0  1  0  0  0  0  0  0  0  0  0
   -3.0281    2.6674   -0.0064 C   0  0  0  0  0  0  0  0  0  0  0  0
   -3.0445    1.6196   -0.9115 O   0  0  0  0  0  0  0  0  0  0  0  0
   -4.0229    0.7678   -0.2713 C   0  0  2  0  0  0  0  0  0  0  0  0
   -3.6666   -0.5746   -0.9004 C   0  0  0  0  0  0  0  0  0  0  0  0
   -4.3866   -1.7184   -0.5680 N   0  0  0  0  0  0  0  0  0  0  0  0
   -4.1215   -2.5398    0.4707 C   0  0  0  0  0  0  0  0  0  0  0  0
   -5.0076   -3.6031    0.4586 C   0  0  0  0  0  0  0  0  0  0  0  0
   -5.7890   -3.3775   -0.6084 N   0  0  0  0  0  0  0  0  0  0  0  0
   -5.4294   -2.2491   -1.2368 C   0  0  0  0  0  0  0  0  0  0  0  0
   -5.3138    1.3077   -0.7285 C   0  0  0  0  0  0  0  0  0  0  0  0
   -5.4237    2.2422   -1.7530 C   0  0  0  0  0  0  0  0  0  0  0  0
   -6.6086    2.6839   -2.2649 C   0  0  0  0  0  0  0  0  0  0  0  0
   -7.7866    2.1976   -1.7630 C   0  0  0  0  0  0  0  0  0  0  0  0
   -9.2803    2.7929   -2.4540 Cl  0  0  0  0  0  0  0  0  0  0  0  0
   -7.7470    1.2718   -0.7481 C   0  0  0  0  0  0  0  0  0  0  0  0
   -6.5159    0.8420   -0.2453 C   0  0  0  0  0  0  0  0  0  0  0  0
   -6.6194   -0.2521    1.1224 Cl  0  0  0  0  0  0  0  0  0  0  0  0
   -3.7663    0.8198    1.0616 O   0  0  0  0  0  0  0  0  0  0  0  0
    0.9352    0.0099   -0.5326 C   0  0  0  0  0  0  0  0  0  0  0  0
    2.2517   -0.4170   -0.6002 C   0  0  0  0  0  0  0  0  0  0  0  0
    5.3993   -0.4158    1.4565 C   0  0  0  0  0  0  0  0  0  0  0  0
    6.8393   -0.3484    1.0029 C   0  0  0  0  0  0  0  0  0  0  0  0
    9.6987   -0.7453    1.0962 H   0  0  0  0  0  0  0  0  0  0  0  0
   10.4538   -0.6522   -0.5917 H   0  0  0  0  0  0  0  0  0  0  0  0
    9.2142    0.5435   -0.0247 H   0  0  0  0  0  0  0  0  0  0  0  0
    5.8713   -3.0013    0.3356 H   0  0  0  0  0  0  0  0  0  0  0  0
    6.4696   -2.8038   -1.3246 H   0  0  0  0  0  0  0  0  0  0  0  0
    5.1815   -0.8082   -1.6247 H   0  0  0  0  0  0  0  0  0  0  0  0
    4.1152   -2.1699   -0.9895 H   0  0  0  0  0  0  0  0  0  0  0  0
    3.2247    0.5102    2.4602 H   0  0  0  0  0  0  0  0  0  0  0  0
    0.8687    1.2670    2.5529 H   0  0  0  0  0  0  0  0  0  0  0  0
   -1.0099    2.5143    2.0059 H   0  0  0  0  0  0  0  0  0  0  0  0
   -1.5738    0.8869    2.4710 H   0  0  0  0  0  0  0  0  0  0  0  0
   -3.4469    2.5683    2.1313 H   0  0  0  0  0  0  0  0  0  0  0  0
   -2.1155    3.2917   -0.1425 H   0  0  0  0  0  0  0  0  0  0  0  0
   -3.9263    3.3173   -0.0249 H   0  0  0  0  0  0  0  0  0  0  0  0
   -2.5488   -0.6861   -0.7347 H   0  0  0  0  0  0  0  0  0  0  0  0
   -3.7107   -0.4565   -2.0337 H   0  0  0  0  0  0  0  0  0  0  0  0
   -3.3508   -2.4483    1.2375 H   0  0  0  0  0  0  0  0  0  0  0  0
   -5.0724   -4.4451    1.1525 H   0  0  0  0  0  0  0  0  0  0  0  0
   -5.9378   -1.8865   -2.1262 H   0  0  0  0  0  0  0  0  0  0  0  0
   -4.4716    2.6122   -2.1586 H   0  0  0  0  0  0  0  0  0  0  0  0
   -6.5664    3.4161   -3.0638 H   0  0  0  0  0  0  0  0  0  0  0  0
   -8.6872    0.9007   -0.3658 H   0  0  0  0  0  0  0  0  0  0  0  0
    0.3053   -0.1479   -1.4037 H   0  0  0  0  0  0  0  0  0  0  0  0
    2.6444   -0.8947   -1.5013 H   0  0  0  0  0  0  0  0  0  0  0  0
    5.3579   -1.2232    2.2452 H   0  0  0  0  0  0  0  0  0  0  0  0
    5.1673    0.5511    1.9783 H   0  0  0  0  0  0  0  0  0  0  0  0
    7.0343    0.6869    0.6566 H   0  0  0  0  0  0  0  0  0  0  0  0
    7.4704   -0.5052    1.9218 H   0  0  0  0  0  0  0  0  0  0  0  0
  1  2  1  0
  2  3  2  0
  2  4  1  0
  4  5  1  0
  5  6  1  0
  6  7  1  0
  7  8  1  0
  8  9  2  0
  9 10  1  0
 10 11  2  0
 11 12  1  0
 12 13  1  0
 13 14  1  0
 14 15  1  0
 15 16  1  0
 16 17  1  0
 17 18  1  6
 18 19  1  0
 19 20  1  0
 20 21  2  0
 21 22  1  0
 22 23  2  0
 17 24  1  0
 24 25  2  0
 25 26  1  0
 26 27  2  0
 27 28  1  0
 27 29  1  0
 29 30  2  0
 30 31  1  0
 17 32  1  0
 11 33  1  0
 33 34  2  0
  7 35  1  0
 35 36  1  0
 36  4  1  0
 34  8  1  0
 32 14  1  0
 23 19  1  0
 30 24  1  0
  1 37  1  0
  1 38  1  0
  1 39  1  0
  5 40  1  0
  5 41  1  0
  6 42  1  0
  6 43  1  0
  9 44  1  0
 10 45  1  0
 13 46  1  0
 13 47  1  0
 14 48  1  1
 15 49  1  0
 15 50  1  0
 18 51  1  0
 18 52  1  0
 20 53  1  0
 21 54  1  0
 23 55  1  0
 25 56  1  0
 26 57  1  0
 29 58  1  0
 33 59  1  0
 34 60  1  0
 35 61  1  0
 35 62  1  0
 36 63  1  0
 36 64  1  0
M  END
$$$$
