
     RDKit          3D

 34 36  0  0  0  0  0  0  0  0999 V2000
    5.2877    3.6051   -0.0936 C   0  0  0  0  0  0  0  0  0  0  0  0
    4.6778    3.0087   -1.3921 C   0  0  0  0  0  0  0  0  0  0  0  0
    4.2081    2.5399   -2.3887 C   0  0  0  0  0  0  0  0  0  0  0  0
    2.7032    2.2659   -2.1596 O   0  0  0  0  0  0  0  0  0  0  0  0
    2.2805    1.2689   -1.3765 C   0  0  0  0  0  0  0  0  0  0  0  0
    3.0118    0.3473   -0.6719 C   0  0  0  0  0  0  0  0  0  0  0  0
    2.5338   -0.6718    0.0757 C   0  0  0  0  0  0  0  0  0  0  0  0
    3.4378   -1.5772    0.7110 O   0  0  0  0  0  0  0  0  0  0  0  0
    1.1516   -0.8095    0.1826 C   0  0  0  0  0  0  0  0  0  0  0  0
    0.6229   -1.7651    0.9403 C   0  0  0  0  0  0  0  0  0  0  0  0
    1.2356   -2.6590    1.6403 O   0  0  0  0  0  0  0  0  0  0  0  0
   -0.7752   -1.8569    1.0808 C   0  0  0  0  0  0  0  0  0  0  0  0
   -1.5685   -0.9066    0.4115 C   0  0  0  0  0  0  0  0  0  0  0  0
   -2.9729   -0.9727    0.6585 C   0  0  0  0  0  0  0  0  0  0  0  0
   -3.7797    0.0367    0.2251 C   0  0  0  0  0  0  0  0  0  0  0  0
   -5.1523   -0.0381    0.3433 C   0  0  0  0  0  0  0  0  0  0  0  0
   -5.7807   -1.1269    0.8952 C   0  0  0  0  0  0  0  0  0  0  0  0
   -4.9588   -2.1737    1.3617 C   0  0  0  0  0  0  0  0  0  0  0  0
   -3.5853   -2.1038    1.2536 C   0  0  0  0  0  0  0  0  0  0  0  0
   -0.9757   -0.0136   -0.3234 O   0  0  0  0  0  0  0  0  0  0  0  0
    0.3380    0.1164   -0.4978 C   0  0  0  0  0  0  0  0  0  0  0  0
    0.8514    1.1143   -1.2572 C   0  0  0  0  0  0  0  0  0  0  0  0
    5.6861    3.9808    0.7614 H   0  0  0  0  0  0  0  0  0  0  0  0
    3.9453    3.3546   -3.2702 H   0  0  0  0  0  0  0  0  0  0  0  0
    4.5884    1.6957   -2.9753 H   0  0  0  0  0  0  0  0  0  0  0  0
    4.0995    0.5220   -0.6756 H   0  0  0  0  0  0  0  0  0  0  0  0
    4.1809   -1.0534    1.2948 H   0  0  0  0  0  0  0  0  0  0  0  0
   -1.1777   -2.6634    1.5631 H   0  0  0  0  0  0  0  0  0  0  0  0
   -3.3554    0.9169   -0.1873 H   0  0  0  0  0  0  0  0  0  0  0  0
   -5.7102    0.8579   -0.0273 H   0  0  0  0  0  0  0  0  0  0  0  0
   -6.8461   -1.1678    0.9469 H   0  0  0  0  0  0  0  0  0  0  0  0
   -5.4644   -3.0081    1.8651 H   0  0  0  0  0  0  0  0  0  0  0  0
   -3.0156   -2.8929    1.6959 H   0  0  0  0  0  0  0  0  0  0  0  0
    0.2780    1.8294   -1.8104 H   0  0  0  0  0  0  0  0  0  0  0  0
  1  2  3  0
  2  3  1  0
  3  4  1  0
  4  5  1  0
  5  6  2  0
  6  7  1  0
  7  8  1  0
  7  9  2  0
  9 10  1  0
 10 11  2  0
 10 12  1  0
 12 13  2  0
 13 14  1  0
 14 15  2  0
 15 16  1  0
 16 17  2  0
 17 18  1  0
 18 19  2  0
 13 20  1  0
 20 21  1  0
 21 22  2  0
 22  5  1  0
 21  9  1  0
 19 14  1  0
  1 23  1  0
  3 24  1  0
  3 25  1  0
  6 26  1  0
  8 27  1  0
 12 28  1  0
 15 29  1  0
 16 30  1  0
 17 31  1  0
 18 32  1  0
 19 33  1  0
 22 34  1  0
M  END
$$$$
