
     RDKit          3D

 41 44  0  0  0  0  0  0  0  0999 V2000
   -5.2331   -2.0041    0.4939 N   0  0  0  0  0  0  0  0  0  0  0  0
   -5.2199   -0.9803    0.3063 C   0  0  0  0  0  0  0  0  0  0  0  0
   -5.2268    0.5020    0.0391 C   0  0  0  0  0  0  0  0  0  0  0  0
   -6.3752    1.2106    0.4110 C   0  0  0  0  0  0  0  0  0  0  0  0
   -6.4709    2.5545    0.2483 C   0  0  0  0  0  0  0  0  0  0  0  0
   -5.3966    3.2464   -0.3079 C   0  0  0  0  0  0  0  0  0  0  0  0
   -4.2991    2.5243   -0.6588 C   0  0  0  0  0  0  0  0  0  0  0  0
   -4.1712    1.1192   -0.4992 C   0  0  0  0  0  0  0  0  0  0  0  0
   -2.9333    0.5050   -0.9467 C   0  0  0  0  0  0  0  0  0  0  0  0
   -2.1835   -0.3224   -0.1672 C   0  0  0  0  0  0  0  0  0  0  0  0
   -0.9803   -0.8667   -0.6797 C   0  0  0  0  0  0  0  0  0  0  0  0
   -0.5662   -0.5754   -1.9328 C   0  0  0  0  0  0  0  0  0  0  0  0
    0.6903   -1.0729   -2.5681 C   0  0  0  0  0  0  0  0  0  0  0  0
    2.0311    0.0800   -2.3450 S   0  0  0  0  0  0  0  0  0  0  0  0
    2.7431    0.0983   -0.7408 C   0  0  0  0  0  0  0  0  0  0  0  0
    2.3551    0.8054    0.3420 N   0  0  0  0  0  0  0  0  0  0  0  0
    3.1762    0.5421    1.3843 N   0  0  0  0  0  0  0  0  0  0  0  0
    4.0689   -0.3410    0.9021 C   0  0  0  0  0  0  0  0  0  0  0  0
    5.1989   -0.9445    1.6565 C   0  0  0  0  0  0  0  0  0  0  0  0
    6.0389   -1.8299    1.0299 C   0  0  0  0  0  0  0  0  0  0  0  0
    7.1121   -2.4071    1.6188 C   0  0  0  0  0  0  0  0  0  0  0  0
    7.3424   -2.0652    2.9183 N   0  0  0  0  0  0  0  0  0  0  0  0
    6.5531   -1.2063    3.5811 C   0  0  0  0  0  0  0  0  0  0  0  0
    5.4548   -0.6175    2.9745 C   0  0  0  0  0  0  0  0  0  0  0  0
    3.8033   -0.5863   -0.3268 O   0  0  0  0  0  0  0  0  0  0  0  0
   -1.3317    0.2716   -2.7413 C   0  0  0  0  0  0  0  0  0  0  0  0
   -2.4858    0.7860   -2.2321 C   0  0  0  0  0  0  0  0  0  0  0  0
   -7.2341    0.6772    0.8446 H   0  0  0  0  0  0  0  0  0  0  0  0
   -7.3456    3.1578    0.5220 H   0  0  0  0  0  0  0  0  0  0  0  0
   -5.4272    4.3154   -0.4510 H   0  0  0  0  0  0  0  0  0  0  0  0
   -3.4398    3.0234   -1.0844 H   0  0  0  0  0  0  0  0  0  0  0  0
   -2.4476   -0.5916    0.8283 H   0  0  0  0  0  0  0  0  0  0  0  0
   -0.3761   -1.5363   -0.0500 H   0  0  0  0  0  0  0  0  0  0  0  0
    0.9405   -2.0735   -2.1112 H   0  0  0  0  0  0  0  0  0  0  0  0
    0.4849   -1.2075   -3.6629 H   0  0  0  0  0  0  0  0  0  0  0  0
    5.8180   -2.0895   -0.0171 H   0  0  0  0  0  0  0  0  0  0  0  0
    7.7947   -3.1132    1.1273 H   0  0  0  0  0  0  0  0  0  0  0  0
    6.8034   -0.9825    4.6261 H   0  0  0  0  0  0  0  0  0  0  0  0
    4.8169    0.0673    3.4865 H   0  0  0  0  0  0  0  0  0  0  0  0
   -0.9715    0.4811   -3.7297 H   0  0  0  0  0  0  0  0  0  0  0  0
   -3.1108    1.4458   -2.8323 H   0  0  0  0  0  0  0  0  0  0  0  0
  1  2  3  0
  2  3  1  0
  3  4  2  0
  4  5  1  0
  5  6  2  0
  6  7  1  0
  7  8  2  0
  8  9  1  0
  9 10  2  0
 10 11  1  0
 11 12  2  0
 12 13  1  0
 13 14  1  0
 14 15  1  0
 15 16  2  0
 16 17  1  0
 17 18  2  0
 18 19  1  0
 19 20  2  0
 20 21  1  0
 21 22  2  0
 22 23  1  0
 23 24  2  0
 18 25  1  0
 12 26  1  0
 26 27  2  0
  8  3  1  0
 27  9  1  0
 25 15  1  0
 24 19  1  0
  4 28  1  0
  5 29  1  0
  6 30  1  0
  7 31  1  0
 10 32  1  0
 11 33  1  0
 13 34  1  0
 13 35  1  0
 20 36  1  0
 21 37  1  0
 23 38  1  0
 24 39  1  0
 26 40  1  0
 27 41  1  0
M  END
$$$$
