
     RDKit          3D

 72 75  0  0  0  0  0  0  0  0999 V2000
    9.6269   -2.3825    1.2571 O   0  0  0  0  0  0  0  0  0  0  0  0
    8.7289   -1.7045    0.4268 C   0  0  0  0  0  0  0  0  0  0  0  0
    8.1445   -2.2571   -0.5456 O   0  0  0  0  0  0  0  0  0  0  0  0
    8.5124   -0.2596    0.7844 C   0  0  0  0  0  0  0  0  0  0  0  0
    7.5363    0.3045   -0.1952 C   0  0  0  0  0  0  0  0  0  0  0  0
    6.2066    0.2753    0.1468 C   0  0  0  0  0  0  0  0  0  0  0  0
    5.2520    0.7653   -0.7147 C   0  0  0  0  0  0  0  0  0  0  0  0
    3.8846    0.8652   -0.6433 O   0  0  0  0  0  0  0  0  0  0  0  0
    3.0517    0.4758    0.4073 C   0  0  0  0  0  0  0  0  0  0  0  0
    1.5837    0.7554    0.0206 C   0  0  0  0  0  0  0  0  0  0  0  0
    0.7060    0.3731    1.1491 C   0  0  0  0  0  0  0  0  0  0  0  0
   -0.7371    0.5467    0.8878 N   0  0  0  0  0  0  0  0  0  0  0  0
   -1.0988   -0.4096   -0.0831 C   0  0  0  0  0  0  0  0  0  0  0  0
   -2.5330   -0.6692   -0.3332 C   0  0  0  0  0  0  0  0  0  0  0  0
   -3.2294   -1.1609    0.9207 C   0  0  0  0  0  0  0  0  0  0  0  0
   -2.6047   -1.8242    1.9523 C   0  0  0  0  0  0  0  0  0  0  0  0
   -3.3038   -2.2528    3.0551 C   0  0  0  0  0  0  0  0  0  0  0  0
   -4.6565   -2.0403    3.1818 C   0  0  0  0  0  0  0  0  0  0  0  0
   -5.3165   -1.3803    2.1708 C   0  0  0  0  0  0  0  0  0  0  0  0
   -4.5844   -0.9579    1.0666 C   0  0  0  0  0  0  0  0  0  0  0  0
   -2.7291   -1.7849   -1.3050 C   0  0  0  0  0  0  0  0  0  0  0  0
   -1.9153   -2.8769   -1.5130 C   0  0  0  0  0  0  0  0  0  0  0  0
   -2.2334   -3.8415   -2.4444 C   0  0  0  0  0  0  0  0  0  0  0  0
   -3.3841   -3.7738   -3.2246 C   0  0  0  0  0  0  0  0  0  0  0  0
   -4.2122   -2.6924   -3.0348 C   0  0  0  0  0  0  0  0  0  0  0  0
   -3.8832   -1.7334   -2.1001 C   0  0  0  0  0  0  0  0  0  0  0  0
   -1.0198    1.9095    0.7261 C   0  0  0  0  0  0  0  0  0  0  0  0
   -2.3512    2.3791    0.3715 C   0  0  0  0  0  0  0  0  0  0  0  0
   -3.4686    2.4237    1.1724 C   0  0  0  0  0  0  0  0  0  0  0  0
   -3.2864    1.7930    2.7967 Cl  0  0  0  0  0  0  0  0  0  0  0  0
   -4.6590    2.9406    0.7036 C   0  0  0  0  0  0  0  0  0  0  0  0
   -4.7918    3.4322   -0.5729 C   0  0  0  0  0  0  0  0  0  0  0  0
   -3.7152    3.4204   -1.4327 C   0  0  0  0  0  0  0  0  0  0  0  0
   -2.5478    2.8959   -0.9225 C   0  0  0  0  0  0  0  0  0  0  0  0
   -5.8540    2.9820    1.6074 C   0  0  0  0  0  0  0  0  0  0  0  0
   -6.9408    3.5217    0.9724 F   0  0  0  0  0  0  0  0  0  0  0  0
   -5.5772    3.8114    2.7077 F   0  0  0  0  0  0  0  0  0  0  0  0
   -6.0494    1.7093    2.0798 F   0  0  0  0  0  0  0  0  0  0  0  0
    5.6765    1.2911   -1.9414 C   0  0  0  0  0  0  0  0  0  0  0  0
    7.0160    1.3301   -2.3049 C   0  0  0  0  0  0  0  0  0  0  0  0
    7.9541    0.8216   -1.4004 C   0  0  0  0  0  0  0  0  0  0  0  0
   10.0210   -3.2569    0.8786 H   0  0  0  0  0  0  0  0  0  0  0  0
    9.4710    0.2767    0.7969 H   0  0  0  0  0  0  0  0  0  0  0  0
    8.0697   -0.2556    1.8016 H   0  0  0  0  0  0  0  0  0  0  0  0
    5.7674   -0.0998    1.0489 H   0  0  0  0  0  0  0  0  0  0  0  0
    3.1347   -0.5793    0.7094 H   0  0  0  0  0  0  0  0  0  0  0  0
    3.3204    1.0786    1.3060 H   0  0  0  0  0  0  0  0  0  0  0  0
    1.5806    1.7919   -0.3032 H   0  0  0  0  0  0  0  0  0  0  0  0
    1.3858    0.0845   -0.8590 H   0  0  0  0  0  0  0  0  0  0  0  0
    0.9632    1.0164    2.0138 H   0  0  0  0  0  0  0  0  0  0  0  0
    0.8853   -0.6639    1.4249 H   0  0  0  0  0  0  0  0  0  0  0  0
   -0.6182   -0.2424   -1.0811 H   0  0  0  0  0  0  0  0  0  0  0  0
   -0.6221   -1.3809    0.2578 H   0  0  0  0  0  0  0  0  0  0  0  0
   -3.0781    0.1917   -0.6947 H   0  0  0  0  0  0  0  0  0  0  0  0
   -1.5659   -2.0148    1.9056 H   0  0  0  0  0  0  0  0  0  0  0  0
   -2.7578   -2.7768    3.8498 H   0  0  0  0  0  0  0  0  0  0  0  0
   -5.1370   -2.4053    4.0775 H   0  0  0  0  0  0  0  0  0  0  0  0
   -6.3845   -1.1991    2.2477 H   0  0  0  0  0  0  0  0  0  0  0  0
   -5.1699   -0.4488    0.3174 H   0  0  0  0  0  0  0  0  0  0  0  0
   -1.0210   -2.9369   -0.9143 H   0  0  0  0  0  0  0  0  0  0  0  0
   -1.5804   -4.6823   -2.5849 H   0  0  0  0  0  0  0  0  0  0  0  0
   -3.6706   -4.5098   -3.9641 H   0  0  0  0  0  0  0  0  0  0  0  0
   -5.1082   -2.6049   -3.6154 H   0  0  0  0  0  0  0  0  0  0  0  0
   -4.5563   -0.9027   -1.9837 H   0  0  0  0  0  0  0  0  0  0  0  0
   -0.6430    2.4206    1.6807 H   0  0  0  0  0  0  0  0  0  0  0  0
   -0.2693    2.3191   -0.0295 H   0  0  0  0  0  0  0  0  0  0  0  0
   -5.7120    3.8425   -0.9693 H   0  0  0  0  0  0  0  0  0  0  0  0
   -3.7184    3.7881   -2.4661 H   0  0  0  0  0  0  0  0  0  0  0  0
   -1.6850    2.8837   -1.6089 H   0  0  0  0  0  0  0  0  0  0  0  0
    5.0600    1.7218   -2.7451 H   0  0  0  0  0  0  0  0  0  0  0  0
    7.4048    1.7209   -3.2267 H   0  0  0  0  0  0  0  0  0  0  0  0
    9.0365    0.8023   -1.5803 H   0  0  0  0  0  0  0  0  0  0  0  0
  1  2  1  0
  2  3  2  0
  2  4  1  0
  4  5  1  0
  5  6  2  0
  6  7  1  0
  7  8  1  0
  8  9  1  0
  9 10  1  0
 10 11  1  0
 11 12  1  0
 12 13  1  0
 13 14  1  0
 14 15  1  0
 15 16  2  0
 16 17  1  0
 17 18  2  0
 18 19  1  0
 19 20  2  0
 14 21  1  0
 21 22  2  0
 22 23  1  0
 23 24  2  0
 24 25  1  0
 25 26  2  0
 12 27  1  0
 27 28  1  0
 28 29  2  0
 29 30  1  0
 29 31  1  0
 31 32  2  0
 32 33  1  0
 33 34  2  0
 31 35  1  0
 35 36  1  0
 35 37  1  0
 35 38  1  0
  7 39  2  0
 39 40  1  0
 40 41  2  0
 41  5  1  0
 20 15  1  0
 26 21  1  0
 34 28  1  0
  1 42  1  0
  4 43  1  0
  4 44  1  0
  6 45  1  0
  9 46  1  0
  9 47  1  0
 10 48  1  0
 10 49  1  0
 11 50  1  0
 11 51  1  0
 13 52  1  0
 13 53  1  0
 14 54  1  0
 16 55  1  0
 17 56  1  0
 18 57  1  0
 19 58  1  0
 20 59  1  0
 22 60  1  0
 23 61  1  0
 24 62  1  0
 25 63  1  0
 26 64  1  0
 27 65  1  0
 27 66  1  0
 32 67  1  0
 33 68  1  0
 34 69  1  0
 39 70  1  0
 40 71  1  0
 41 72  1  0
M  END
$$$$
