
     RDKit          3D

 57 62  0  0  0  0  0  0  0  0999 V2000
    4.9396    1.7234    0.5824 O   0  0  0  0  0  0  0  0  0  0  0  0
    4.9835    0.4913    0.8675 C   0  0  0  0  0  0  0  0  0  0  0  0
    6.2486   -0.0341    1.2047 N   0  0  0  0  0  0  0  0  0  0  0  0
    7.4859    0.7039    1.2469 C   0  0  0  0  0  0  0  0  0  0  0  0
    8.0787    0.9505   -0.0951 C   0  0  0  0  0  0  0  0  0  0  0  0
    7.8346    2.0810   -0.8426 C   0  0  0  0  0  0  0  0  0  0  0  0
    8.3817    2.2965   -2.0802 C   0  0  0  0  0  0  0  0  0  0  0  0
    9.1985    1.3844   -2.6203 N   0  0  0  0  0  0  0  0  0  0  0  0
    9.4611    0.2717   -1.9261 C   0  0  0  0  0  0  0  0  0  0  0  0
    8.9332    0.0174   -0.6830 C   0  0  0  0  0  0  0  0  0  0  0  0
    3.7557   -0.3199    0.8386 C   0  0  0  0  0  0  0  0  0  0  0  0
    3.7782   -1.6727    1.0611 C   0  0  0  0  0  0  0  0  0  0  0  0
    2.6435   -2.4713    1.0468 C   0  0  0  0  0  0  0  0  0  0  0  0
    1.4341   -1.8510    0.7925 C   0  0  0  0  0  0  0  0  0  0  0  0
    1.3836   -0.5028    0.5672 C   0  0  0  0  0  0  0  0  0  0  0  0
    2.5330    0.2746    0.5868 C   0  0  0  0  0  0  0  0  0  0  0  0
   -0.0558   -0.1628    0.3321 C   0  0  0  0  0  0  0  0  0  0  0  0
   -0.7694   -1.4367    0.4441 C   0  0  0  0  0  0  0  0  0  0  0  0
   -2.0253   -2.0387    0.3798 C   0  0  0  0  0  0  0  0  0  0  0  0
   -3.2958   -1.3614    0.1111 C   0  0  0  0  0  0  0  0  0  0  0  0
   -4.3540   -1.6987    0.9307 C   0  0  0  0  0  0  0  0  0  0  0  0
   -5.5755   -1.0915    0.7242 C   0  0  0  0  0  0  0  0  0  0  0  0
   -5.7980   -0.1497   -0.2751 C   0  0  0  0  0  0  0  0  0  0  0  0
   -7.1042    0.4701   -0.4551 C   0  0  0  0  0  0  0  0  0  0  0  0
   -7.5562    0.8693   -1.6861 C   0  0  0  0  0  0  0  0  0  0  0  0
   -8.8168    1.4646   -1.8232 C   0  0  0  0  0  0  0  0  0  0  0  0
   -9.6463    1.6727   -0.7428 C   0  0  0  0  0  0  0  0  0  0  0  0
  -10.8994    2.2657   -0.8856 O   0  0  0  0  0  0  0  0  0  0  0  0
   -9.1767    1.2637    0.5002 C   0  0  0  0  0  0  0  0  0  0  0  0
   -7.9340    0.6787    0.6217 C   0  0  0  0  0  0  0  0  0  0  0  0
   -4.7209    0.1655   -1.0772 C   0  0  0  0  0  0  0  0  0  0  0  0
   -3.4720   -0.4326   -0.8920 C   0  0  0  0  0  0  0  0  0  0  0  0
   -1.8281   -3.3537    0.6175 N   0  0  0  0  0  0  0  0  0  0  0  0
   -0.5730   -3.6366    0.8245 N   0  0  0  0  0  0  0  0  0  0  0  0
    0.1078   -2.4576    0.7216 C   0  0  0  0  0  0  0  0  0  0  0  0
    6.2990   -1.0620    1.4495 H   0  0  0  0  0  0  0  0  0  0  0  0
    7.3729    1.6622    1.8055 H   0  0  0  0  0  0  0  0  0  0  0  0
    8.2219    0.1161    1.8276 H   0  0  0  0  0  0  0  0  0  0  0  0
    7.1729    2.8648   -0.4412 H   0  0  0  0  0  0  0  0  0  0  0  0
    8.1408    3.2246   -2.6197 H   0  0  0  0  0  0  0  0  0  0  0  0
   10.1238   -0.5079   -2.3219 H   0  0  0  0  0  0  0  0  0  0  0  0
    9.1342   -0.8797   -0.1030 H   0  0  0  0  0  0  0  0  0  0  0  0
    4.7129   -2.2142    1.2663 H   0  0  0  0  0  0  0  0  0  0  0  0
    2.6995   -3.5358    1.2269 H   0  0  0  0  0  0  0  0  0  0  0  0
    2.4514    1.3180    0.4070 H   0  0  0  0  0  0  0  0  0  0  0  0
   -0.3651    0.5810    1.0956 H   0  0  0  0  0  0  0  0  0  0  0  0
   -0.1702    0.3093   -0.6494 H   0  0  0  0  0  0  0  0  0  0  0  0
   -4.2148   -2.4407    1.7330 H   0  0  0  0  0  0  0  0  0  0  0  0
   -6.4213   -1.3390    1.3527 H   0  0  0  0  0  0  0  0  0  0  0  0
   -6.9347    0.7241   -2.5600 H   0  0  0  0  0  0  0  0  0  0  0  0
   -9.1752    1.7823   -2.8087 H   0  0  0  0  0  0  0  0  0  0  0  0
  -11.6079    2.1575   -0.1715 H   0  0  0  0  0  0  0  0  0  0  0  0
   -9.8196    1.4216    1.3573 H   0  0  0  0  0  0  0  0  0  0  0  0
   -7.5489    0.3498    1.6005 H   0  0  0  0  0  0  0  0  0  0  0  0
   -4.8667    0.8944   -1.8624 H   0  0  0  0  0  0  0  0  0  0  0  0
   -2.6390   -0.1738   -1.5303 H   0  0  0  0  0  0  0  0  0  0  0  0
   -0.1457   -4.5633    1.0287 H   0  0  0  0  0  0  0  0  0  0  0  0
  1  2  2  0
  2  3  1  0
  3  4  1  0
  4  5  1  0
  5  6  2  0
  6  7  1  0
  7  8  2  0
  8  9  1  0
  9 10  2  0
  2 11  1  0
 11 12  2  0
 12 13  1  0
 13 14  2  0
 14 15  1  0
 15 16  2  0
 15 17  1  0
 17 18  1  0
 18 19  1  0
 19 20  1  0
 20 21  2  0
 21 22  1  0
 22 23  2  0
 23 24  1  0
 24 25  2  0
 25 26  1  0
 26 27  2  0
 27 28  1  0
 27 29  1  0
 29 30  2  0
 23 31  1  0
 31 32  2  0
 19 33  2  0
 33 34  1  0
 34 35  1  0
 10  5  1  0
 16 11  1  0
 35 18  2  0
 35 14  1  0
 32 20  1  0
 30 24  1  0
  3 36  1  0
  4 37  1  0
  4 38  1  0
  6 39  1  0
  7 40  1  0
  9 41  1  0
 10 42  1  0
 12 43  1  0
 13 44  1  0
 16 45  1  0
 17 46  1  0
 17 47  1  0
 21 48  1  0
 22 49  1  0
 25 50  1  0
 26 51  1  0
 28 52  1  0
 29 53  1  0
 30 54  1  0
 31 55  1  0
 32 56  1  0
 34 57  1  0
M  END
$$$$
