
     RDKit          3D

 48 51  0  0  0  0  0  0  0  0999 V2000
   -1.5076   -2.9178    2.4840 C   0  0  0  0  0  0  0  0  0  0  0  0
   -1.4270   -1.8058    1.5345 C   0  0  0  0  0  0  0  0  0  0  0  0
   -2.4895   -1.6687    0.6230 C   0  0  0  0  0  0  0  0  0  0  0  0
   -2.4726   -0.6509   -0.2887 C   0  0  0  0  0  0  0  0  0  0  0  0
   -3.5015   -0.4593   -1.2287 N   0  0  0  0  0  0  0  0  0  0  0  0
   -3.4963    0.6879   -2.1499 C   0  0  0  0  0  0  0  0  0  0  0  0
   -4.9169    1.2166   -2.2246 C   0  0  0  0  0  0  0  0  0  0  0  0
   -5.7048    0.7894   -1.1665 O   0  0  0  0  0  0  0  0  0  0  0  0
   -5.9012   -0.5782   -1.1167 C   0  0  0  0  0  0  0  0  0  0  0  0
   -4.6086   -1.3462   -1.3599 C   0  0  0  0  0  0  0  0  0  0  0  0
   -1.4033    0.2167   -0.2839 N   0  0  0  0  0  0  0  0  0  0  0  0
   -0.3781    0.1188    0.5647 C   0  0  0  0  0  0  0  0  0  0  0  0
    0.6774    1.0399    0.5131 C   0  0  0  0  0  0  0  0  0  0  0  0
    1.7233    0.9262    1.3933 C   0  0  0  0  0  0  0  0  0  0  0  0
    2.8342    1.9006    1.3241 C   0  0  0  0  0  0  0  0  0  0  0  0
    4.0116    1.4310    0.5841 C   0  0  0  0  0  0  0  0  0  0  0  0
    5.1295    0.9979    1.2602 C   0  0  0  0  0  0  0  0  0  0  0  0
    6.2265    0.5575    0.6203 N   0  0  0  0  0  0  0  0  0  0  0  0
    6.2728    0.5234   -0.7194 C   0  0  0  0  0  0  0  0  0  0  0  0
    7.4641    0.0469   -1.3397 N   0  0  0  0  0  0  0  0  0  0  0  0
    5.2028    0.9374   -1.4151 N   0  0  0  0  0  0  0  0  0  0  0  0
    4.0771    1.3890   -0.7843 C   0  0  0  0  0  0  0  0  0  0  0  0
    3.0152    1.8029   -1.6066 N   0  0  0  0  0  0  0  0  0  0  0  0
    1.6996   -0.1091    2.3157 C   0  0  0  0  0  0  0  0  0  0  0  0
    0.6593   -1.0120    2.3624 C   0  0  0  0  0  0  0  0  0  0  0  0
   -0.3961   -0.9055    1.4812 C   0  0  0  0  0  0  0  0  0  0  0  0
   -0.5431   -3.3946    2.7367 H   0  0  0  0  0  0  0  0  0  0  0  0
   -2.0882   -2.6185    3.4037 H   0  0  0  0  0  0  0  0  0  0  0  0
   -2.1104   -3.7249    2.0179 H   0  0  0  0  0  0  0  0  0  0  0  0
   -3.3131   -2.3650    0.6497 H   0  0  0  0  0  0  0  0  0  0  0  0
   -2.7631    1.4490   -1.8573 H   0  0  0  0  0  0  0  0  0  0  0  0
   -3.2155    0.3266   -3.1609 H   0  0  0  0  0  0  0  0  0  0  0  0
   -5.4291    0.9638   -3.1549 H   0  0  0  0  0  0  0  0  0  0  0  0
   -4.8325    2.3293   -2.1069 H   0  0  0  0  0  0  0  0  0  0  0  0
   -6.6304   -0.8385   -1.8909 H   0  0  0  0  0  0  0  0  0  0  0  0
   -6.2549   -0.8551   -0.1151 H   0  0  0  0  0  0  0  0  0  0  0  0
   -4.5902   -2.2682   -0.7813 H   0  0  0  0  0  0  0  0  0  0  0  0
   -4.6123   -1.6782   -2.4413 H   0  0  0  0  0  0  0  0  0  0  0  0
    0.6285    1.8291   -0.2293 H   0  0  0  0  0  0  0  0  0  0  0  0
    2.4946    2.8739    0.9017 H   0  0  0  0  0  0  0  0  0  0  0  0
    3.0939    2.1510    2.3916 H   0  0  0  0  0  0  0  0  0  0  0  0
    5.1634    0.9964    2.3410 H   0  0  0  0  0  0  0  0  0  0  0  0
    7.3699   -0.7659   -1.9856 H   0  0  0  0  0  0  0  0  0  0  0  0
    8.3980    0.4735   -1.1725 H   0  0  0  0  0  0  0  0  0  0  0  0
    2.9510    2.8185   -1.8450 H   0  0  0  0  0  0  0  0  0  0  0  0
    2.2960    1.1600   -1.9880 H   0  0  0  0  0  0  0  0  0  0  0  0
    2.5280   -0.1810    2.9973 H   0  0  0  0  0  0  0  0  0  0  0  0
    0.6695   -1.8098    3.0953 H   0  0  0  0  0  0  0  0  0  0  0  0
  1  2  1  0
  2  3  2  0
  3  4  1  0
  4  5  1  0
  5  6  1  0
  6  7  1  0
  7  8  1  0
  8  9  1  0
  9 10  1  0
  4 11  2  0
 11 12  1  0
 12 13  2  0
 13 14  1  0
 14 15  1  0
 15 16  1  0
 16 17  2  0
 17 18  1  0
 18 19  2  0
 19 20  1  0
 19 21  1  0
 21 22  2  0
 22 23  1  0
 14 24  2  0
 24 25  1  0
 25 26  2  0
 26  2  1  0
 10  5  1  0
 26 12  1  0
 22 16  1  0
  1 27  1  0
  1 28  1  0
  1 29  1  0
  3 30  1  0
  6 31  1  0
  6 32  1  0
  7 33  1  0
  7 34  1  0
  9 35  1  0
  9 36  1  0
 10 37  1  0
 10 38  1  0
 13 39  1  0
 15 40  1  0
 15 41  1  0
 17 42  1  0
 20 43  1  0
 20 44  1  0
 23 45  1  0
 23 46  1  0
 24 47  1  0
 25 48  1  0
M  END
$$$$
