
     RDKit          3D

 49 52  0  0  0  0  0  0  0  0999 V2000
   -1.7906    0.6323    0.7976 C   0  0  2  0  0  0  0  0  0  0  0  0
   -2.2563    1.8336    1.5133 N   0  0  0  0  0  0  0  0  0  0  0  0
   -1.7942    0.9741   -0.6466 C   0  0  0  0  0  0  0  0  0  0  0  0
   -1.3965    0.0110   -1.5428 O   0  0  0  0  0  0  0  0  0  0  0  0
   -0.2248   -0.6574   -1.6961 C   0  0  0  0  0  0  0  0  0  0  0  0
   -0.3178   -1.5582   -2.7687 C   0  0  0  0  0  0  0  0  0  0  0  0
    0.7108   -2.3581   -3.1455 N   0  0  0  0  0  0  0  0  0  0  0  0
    1.8668   -2.2896   -2.4690 C   0  0  0  0  0  0  0  0  0  0  0  0
    2.0347   -1.4345   -1.4099 C   0  0  0  0  0  0  0  0  0  0  0  0
    0.9850   -0.6266   -1.0349 C   0  0  0  0  0  0  0  0  0  0  0  0
    3.2293   -1.2616   -0.5922 C   0  0  0  0  0  0  0  0  0  0  0  0
    3.5583   -0.0372   -0.0091 C   0  0  0  0  0  0  0  0  0  0  0  0
    4.6718    0.1544    0.7638 C   0  0  0  0  0  0  0  0  0  0  0  0
    5.5348   -0.8750    1.0052 C   0  0  0  0  0  0  0  0  0  0  0  0
    6.4992   -0.3444    1.7856 N   0  0  0  0  0  0  0  0  0  0  0  0
    6.2647    0.9191    2.0188 N   0  0  0  0  0  0  0  0  0  0  0  0
    5.1307    1.2948    1.4049 C   0  0  0  0  0  0  0  0  0  0  0  0
    4.5422    2.6537    1.4395 C   0  0  0  0  0  0  0  0  0  0  0  0
    5.2512   -2.0891    0.4543 C   0  0  0  0  0  0  0  0  0  0  0  0
    4.1260   -2.2795   -0.3258 C   0  0  0  0  0  0  0  0  0  0  0  0
   -2.8054   -0.4477    1.1501 C   0  0  0  0  0  0  0  0  0  0  0  0
   -4.1795   -0.0795    0.7199 C   0  0  0  0  0  0  0  0  0  0  0  0
   -4.6987   -0.3970   -0.5238 C   0  0  0  0  0  0  0  0  0  0  0  0
   -5.9910   -0.0377   -0.8968 C   0  0  0  0  0  0  0  0  0  0  0  0
   -6.7963    0.6602   -0.0071 C   0  0  0  0  0  0  0  0  0  0  0  0
   -8.5853    1.1870   -0.4535 Br  0  0  0  0  0  0  0  0  0  0  0  0
   -6.3115    0.9927    1.2396 C   0  0  0  0  0  0  0  0  0  0  0  0
   -5.0263    0.6234    1.5824 C   0  0  0  0  0  0  0  0  0  0  0  0
   -0.8356    0.3821    1.2496 H   0  0  0  0  0  0  0  0  0  0  0  0
   -3.1421    2.1152    1.0376 H   0  0  0  0  0  0  0  0  0  0  0  0
   -2.4368    1.6581    2.5082 H   0  0  0  0  0  0  0  0  0  0  0  0
   -1.2410    1.9336   -0.7726 H   0  0  0  0  0  0  0  0  0  0  0  0
   -2.8600    1.2468   -0.9060 H   0  0  0  0  0  0  0  0  0  0  0  0
   -1.1908   -1.7306   -3.4167 H   0  0  0  0  0  0  0  0  0  0  0  0
    2.7664   -2.8811   -2.6755 H   0  0  0  0  0  0  0  0  0  0  0  0
    0.9864    0.0786   -0.2374 H   0  0  0  0  0  0  0  0  0  0  0  0
    2.8923    0.8022   -0.1818 H   0  0  0  0  0  0  0  0  0  0  0  0
    7.3102   -0.8871    2.1414 H   0  0  0  0  0  0  0  0  0  0  0  0
    4.3847    2.9793    2.4959 H   0  0  0  0  0  0  0  0  0  0  0  0
    5.2491    3.3467    0.9307 H   0  0  0  0  0  0  0  0  0  0  0  0
    3.5956    2.6858    0.8715 H   0  0  0  0  0  0  0  0  0  0  0  0
    5.9349   -2.9012    0.6465 H   0  0  0  0  0  0  0  0  0  0  0  0
    3.8992   -3.2447   -0.7648 H   0  0  0  0  0  0  0  0  0  0  0  0
   -2.5646   -1.4199    0.6894 H   0  0  0  0  0  0  0  0  0  0  0  0
   -2.8250   -0.5604    2.2560 H   0  0  0  0  0  0  0  0  0  0  0  0
   -4.0858   -0.9381   -1.2246 H   0  0  0  0  0  0  0  0  0  0  0  0
   -6.4066   -0.2780   -1.8597 H   0  0  0  0  0  0  0  0  0  0  0  0
   -6.9454    1.5363    1.9265 H   0  0  0  0  0  0  0  0  0  0  0  0
   -4.7166    0.9134    2.5626 H   0  0  0  0  0  0  0  0  0  0  0  0
  1  2  1  0
  1  3  1  0
  3  4  1  0
  4  5  1  0
  5  6  2  0
  6  7  1  0
  7  8  2  0
  8  9  1  0
  9 10  2  0
  9 11  1  0
 11 12  2  0
 12 13  1  0
 13 14  2  0
 14 15  1  0
 15 16  1  0
 16 17  2  0
 17 18  1  0
 14 19  1  0
 19 20  2  0
  1 21  1  0
 21 22  1  0
 22 23  2  0
 23 24  1  0
 24 25  2  0
 25 26  1  0
 25 27  1  0
 27 28  2  0
 10  5  1  0
 20 11  1  0
 28 22  1  0
 17 13  1  0
  1 29  1  1
  2 30  1  0
  2 31  1  0
  3 32  1  0
  3 33  1  0
  6 34  1  0
  8 35  1  0
 10 36  1  0
 12 37  1  0
 15 38  1  0
 18 39  1  0
 18 40  1  0
 18 41  1  0
 19 42  1  0
 20 43  1  0
 21 44  1  0
 21 45  1  0
 23 46  1  0
 24 47  1  0
 27 48  1  0
 28 49  1  0
M  END
$$$$
