
     RDKit          3D

 72 75  0  0  0  0  0  0  0  0999 V2000
   -3.0836   -6.3092   -0.3148 C   0  0  0  0  0  0  0  0  0  0  0  0
   -2.9697   -4.8686    0.2021 C   0  0  0  0  0  0  0  0  0  0  0  0
   -1.6637   -4.2566   -0.1155 C   0  0  0  0  0  0  0  0  0  0  0  0
   -1.6208   -2.9126   -0.0381 O   0  0  0  0  0  0  0  0  0  0  0  0
   -0.5707   -2.0873    0.1971 C   0  0  0  0  0  0  0  0  0  0  0  0
   -0.9872   -0.7525   -0.1186 C   0  0  0  0  0  0  0  0  0  0  0  0
   -0.2060    0.3211    0.0147 C   0  0  0  0  0  0  0  0  0  0  0  0
    1.0058    0.1099    0.5119 C   0  0  0  0  0  0  0  0  0  0  0  0
    1.5223   -1.1718    0.8764 C   0  0  0  0  0  0  0  0  0  0  0  0
    0.6729   -2.2791    0.6953 C   0  0  0  0  0  0  0  0  0  0  0  0
    1.8578    1.3896    1.0541 S   0  0  0  0  0  0  0  0  0  0  0  0
    2.7777    1.0880    2.3033 O   0  0  0  0  0  0  0  0  0  0  0  0
    1.0421    2.5774    1.5370 O   0  0  0  0  0  0  0  0  0  0  0  0
    3.0172    2.1554   -0.0778 N   0  0  0  0  0  0  0  0  0  0  0  0
    3.6247    0.8614   -0.4243 C   0  0  0  0  0  0  0  0  0  0  0  0
    4.8438    0.6323    0.2220 C   0  0  0  0  0  0  0  0  0  0  0  0
    6.0769    0.0979   -0.2698 C   0  0  0  0  0  0  0  0  0  0  0  0
    6.7365   -0.7029    0.8388 C   0  0  0  0  0  0  0  0  0  0  0  0
    7.9089   -0.0009    1.3671 C   0  0  0  0  0  0  0  0  0  0  0  0
    7.6676    1.4281    0.9036 C   0  0  0  0  0  0  0  0  0  0  0  0
    6.9049    1.3611   -0.2828 N   0  0  0  0  0  0  0  0  0  0  0  0
    7.5524    1.5540   -1.5198 C   0  0  0  0  0  0  0  0  0  0  0  0
   -2.3883   -0.4722   -0.5731 C   0  0  0  0  0  0  0  0  0  0  0  0
   -3.0014   -1.2674   -1.4387 N   0  0  0  0  0  0  0  0  0  0  0  0
   -4.3467   -1.0020   -1.6026 C   0  0  0  0  0  0  0  0  0  0  0  0
   -5.0215   -1.6651   -2.4007 O   0  0  0  0  0  0  0  0  0  0  0  0
   -4.9940    0.0674   -0.8913 C   0  0  0  0  0  0  0  0  0  0  0  0
   -4.1796    0.7837   -0.0226 C   0  0  0  0  0  0  0  0  0  0  0  0
   -2.9579    0.4751    0.0718 N   0  0  0  0  0  0  0  0  0  0  0  0
   -5.0494    1.7111    0.4883 C   0  0  0  0  0  0  0  0  0  0  0  0
   -4.6337    2.9033    1.2853 C   0  0  0  0  0  0  0  0  0  0  0  0
   -4.9299    4.1993    0.5360 C   0  0  0  0  0  0  0  0  0  0  0  0
   -6.4184    4.4997    0.4952 C   0  0  0  0  0  0  0  0  0  0  0  0
   -6.2839    1.5192    0.0046 N   0  0  0  0  0  0  0  0  0  0  0  0
   -6.2124    0.5413   -0.8630 N   0  0  0  0  0  0  0  0  0  0  0  0
   -7.2559    0.1954   -1.8250 C   0  0  0  0  0  0  0  0  0  0  0  0
   -3.6354   -6.2478   -1.3247 H   0  0  0  0  0  0  0  0  0  0  0  0
   -2.0770   -6.7126   -0.4618 H   0  0  0  0  0  0  0  0  0  0  0  0
   -3.6988   -6.9518    0.3005 H   0  0  0  0  0  0  0  0  0  0  0  0
   -3.8008   -4.2541    0.0059 H   0  0  0  0  0  0  0  0  0  0  0  0
   -2.9264   -4.9647    1.3765 H   0  0  0  0  0  0  0  0  0  0  0  0
   -1.7758   -4.3074   -1.3540 H   0  0  0  0  0  0  0  0  0  0  0  0
   -0.8413   -4.9114    0.0726 H   0  0  0  0  0  0  0  0  0  0  0  0
   -0.3638    1.2610   -0.3877 H   0  0  0  0  0  0  0  0  0  0  0  0
    2.4845   -1.4400    1.3532 H   0  0  0  0  0  0  0  0  0  0  0  0
    0.9941   -3.2934    0.8340 H   0  0  0  0  0  0  0  0  0  0  0  0
    2.3125    2.4066   -0.8890 H   0  0  0  0  0  0  0  0  0  0  0  0
    4.2024    1.4148   -1.5259 H   0  0  0  0  0  0  0  0  0  0  0  0
    3.1378    0.1417   -1.0229 H   0  0  0  0  0  0  0  0  0  0  0  0
    4.9669    1.3997    1.0724 H   0  0  0  0  0  0  0  0  0  0  0  0
    4.4580   -0.2580    1.0619 H   0  0  0  0  0  0  0  0  0  0  0  0
    6.0343   -0.3880   -1.2105 H   0  0  0  0  0  0  0  0  0  0  0  0
    6.9620   -1.7230    0.3869 H   0  0  0  0  0  0  0  0  0  0  0  0
    6.0298   -0.9780    1.6732 H   0  0  0  0  0  0  0  0  0  0  0  0
    7.9406   -0.0170    2.4802 H   0  0  0  0  0  0  0  0  0  0  0  0
    8.8792   -0.3870    1.0034 H   0  0  0  0  0  0  0  0  0  0  0  0
    7.0765    1.9194    1.7042 H   0  0  0  0  0  0  0  0  0  0  0  0
    8.6368    1.9625    0.7068 H   0  0  0  0  0  0  0  0  0  0  0  0
    8.5897    1.1431   -1.5097 H   0  0  0  0  0  0  0  0  0  0  0  0
    6.9335    1.1641   -2.3456 H   0  0  0  0  0  0  0  0  0  0  0  0
    7.6573    2.6664   -1.6837 H   0  0  0  0  0  0  0  0  0  0  0  0
   -2.3437    1.1811    0.6348 H   0  0  0  0  0  0  0  0  0  0  0  0
   -3.5011    2.9061    1.3555 H   0  0  0  0  0  0  0  0  0  0  0  0
   -5.0531    2.9462    2.2678 H   0  0  0  0  0  0  0  0  0  0  0  0
   -4.6388    4.0597   -0.5364 H   0  0  0  0  0  0  0  0  0  0  0  0
   -4.4011    5.0268    0.9624 H   0  0  0  0  0  0  0  0  0  0  0  0
   -6.7648    4.7434    1.5494 H   0  0  0  0  0  0  0  0  0  0  0  0
   -6.5532    5.4215   -0.1096 H   0  0  0  0  0  0  0  0  0  0  0  0
   -7.0624    3.7054    0.1378 H   0  0  0  0  0  0  0  0  0  0  0  0
   -8.2009    0.5687   -1.4682 H   0  0  0  0  0  0  0  0  0  0  0  0
   -7.1777   -0.8071   -2.1899 H   0  0  0  0  0  0  0  0  0  0  0  0
   -6.9159    0.8797   -2.7211 H   0  0  0  0  0  0  0  0  0  0  0  0
  1  2  1  0
  2  3  1  0
  3  4  1  0
  4  5  1  0
  5  6  2  0
  6  7  1  0
  7  8  2  0
  8  9  1  0
  9 10  2  0
  8 11  1  0
 11 12  2  0
 11 13  2  0
 11 14  1  0
 14 15  1  0
 15 16  1  0
 16 17  1  0
 17 18  1  0
 18 19  1  0
 19 20  1  0
 20 21  1  0
 21 22  1  0
  6 23  1  0
 23 24  2  0
 24 25  1  0
 25 26  2  0
 25 27  1  0
 27 28  2  0
 28 29  1  0
 28 30  1  0
 30 31  1  0
 31 32  1  0
 32 33  1  0
 30 34  2  0
 34 35  1  0
 35 36  1  0
 10  5  1  0
 21 17  1  0
 29 23  1  0
 35 27  1  0
  1 37  1  0
  1 38  1  0
  1 39  1  0
  2 40  1  0
  2 41  1  0
  3 42  1  0
  3 43  1  0
  7 44  1  0
  9 45  1  0
 10 46  1  0
 14 47  1  0
 15 48  1  0
 15 49  1  0
 16 50  1  0
 16 51  1  0
 17 52  1  0
 18 53  1  0
 18 54  1  0
 19 55  1  0
 19 56  1  0
 20 57  1  0
 20 58  1  0
 22 59  1  0
 22 60  1  0
 22 61  1  0
 29 62  1  0
 31 63  1  0
 31 64  1  0
 32 65  1  0
 32 66  1  0
 33 67  1  0
 33 68  1  0
 33 69  1  0
 36 70  1  0
 36 71  1  0
 36 72  1  0
M  END
$$$$
