
     RDKit          3D

 66 68  0  0  0  0  0  0  0  0999 V2000
    6.2795   -0.2650    2.9856 C   0  0  0  0  0  0  0  0  0  0  0  0
    5.3020    0.6386    2.2240 C   0  0  0  0  0  0  0  0  0  0  0  0
    3.9663    0.5582    2.3378 C   0  0  0  0  0  0  0  0  0  0  0  0
    3.1931    1.3955    1.6274 C   0  0  0  0  0  0  0  0  0  0  0  0
    1.7119    1.5445    1.5244 C   0  0  0  0  0  0  0  0  0  0  0  0
    1.1277    0.8531    0.4045 N   0  0  0  0  0  0  0  0  0  0  0  0
    1.2041   -0.5351    0.2590 C   0  0  0  0  0  0  0  0  0  0  0  0
    1.8309   -1.2112    1.1845 O   0  0  0  0  0  0  0  0  0  0  0  0
    0.6783   -1.3919   -0.8015 C   0  0  2  0  0  0  0  0  0  0  0  0
    1.9239   -1.8540   -1.5613 C   0  0  0  0  0  0  0  0  0  0  0  0
    1.9753   -1.1551   -2.6755 C   0  0  0  0  0  0  0  0  0  0  0  0
    0.8102   -0.1969   -2.7634 C   0  0  0  0  0  0  0  0  0  0  0  0
   -0.0962   -0.8499   -1.8511 N   0  0  0  0  0  0  0  0  0  0  0  0
   -1.5079   -0.9825   -2.0549 C   0  0  0  0  0  0  0  0  0  0  0  0
   -1.9774   -0.4603   -3.1248 O   0  0  0  0  0  0  0  0  0  0  0  0
   -2.4355   -1.6739   -1.1611 C   0  0  0  0  0  0  0  0  0  0  0  0
   -3.3085   -0.8497   -0.3032 C   0  0  0  0  0  0  0  0  0  0  0  0
   -2.8305    0.1498    0.6561 C   0  0  0  0  0  0  0  0  0  0  0  0
   -2.1466    1.3127    0.0537 C   0  0  0  0  0  0  0  0  0  0  0  0
   -3.0944    2.4370   -0.3753 C   0  0  0  0  0  0  0  0  0  0  0  0
   -4.0261    2.8351    0.7170 C   0  0  0  0  0  0  0  0  0  0  0  0
   -4.8298    1.6167    1.1326 C   0  0  0  0  0  0  0  0  0  0  0  0
   -3.9212    0.5270    1.6577 C   0  0  0  0  0  0  0  0  0  0  0  0
   -3.4520   -2.3107   -2.1154 N   0  0  0  0  0  0  0  0  0  0  0  0
   -4.4396   -3.0454   -1.4119 C   0  0  0  0  0  0  0  0  0  0  0  0
   -5.3247   -3.7719   -2.4085 C   0  0  0  0  0  0  0  0  0  0  0  0
   -6.2737   -4.4960   -2.0294 O   0  0  0  0  0  0  0  0  0  0  0  0
   -5.0923   -3.6420   -3.7635 O   0  0  0  0  0  0  0  0  0  0  0  0
    4.3676    2.3858    0.7206 S   0  0  0  0  0  0  0  0  0  0  0  0
    5.8280    1.5759    1.3841 C   0  0  0  0  0  0  0  0  0  0  0  0
    7.1964    1.9069    1.0520 C   0  0  0  0  0  0  0  0  0  0  0  0
    7.4571    2.3554   -0.1292 N   0  0  0  0  0  0  0  0  0  0  0  0
    8.2766    1.7693    1.9526 N   0  0  0  0  0  0  0  0  0  0  0  0
    5.7543   -1.0178    3.5685 H   0  0  0  0  0  0  0  0  0  0  0  0
    6.9811   -0.7310    2.2661 H   0  0  0  0  0  0  0  0  0  0  0  0
    6.8833    0.3556    3.6786 H   0  0  0  0  0  0  0  0  0  0  0  0
    3.4806   -0.1877    3.0253 H   0  0  0  0  0  0  0  0  0  0  0  0
    1.4843    2.6201    1.5327 H   0  0  0  0  0  0  0  0  0  0  0  0
    1.3118    1.1506    2.5052 H   0  0  0  0  0  0  0  0  0  0  0  0
    0.6398    1.4198   -0.3092 H   0  0  0  0  0  0  0  0  0  0  0  0
    0.1927   -2.3178   -0.3629 H   0  0  0  0  0  0  0  0  0  0  0  0
    2.5757   -2.6213   -1.1661 H   0  0  0  0  0  0  0  0  0  0  0  0
    2.7301   -1.2367   -3.4328 H   0  0  0  0  0  0  0  0  0  0  0  0
    1.0831    0.7814   -2.3996 H   0  0  0  0  0  0  0  0  0  0  0  0
    0.4099   -0.1885   -3.8071 H   0  0  0  0  0  0  0  0  0  0  0  0
   -1.9909   -2.4958   -0.5735 H   0  0  0  0  0  0  0  0  0  0  0  0
   -3.9991   -1.5351    0.3185 H   0  0  0  0  0  0  0  0  0  0  0  0
   -4.1080   -0.3187   -0.9418 H   0  0  0  0  0  0  0  0  0  0  0  0
   -2.0268   -0.3161    1.3565 H   0  0  0  0  0  0  0  0  0  0  0  0
   -1.6207    1.0396   -0.8617 H   0  0  0  0  0  0  0  0  0  0  0  0
   -1.4539    1.7772    0.8031 H   0  0  0  0  0  0  0  0  0  0  0  0
   -3.5927    2.1994   -1.3330 H   0  0  0  0  0  0  0  0  0  0  0  0
   -2.4229    3.3151   -0.5909 H   0  0  0  0  0  0  0  0  0  0  0  0
   -3.4515    3.2435    1.5570 H   0  0  0  0  0  0  0  0  0  0  0  0
   -4.7555    3.5571    0.2800 H   0  0  0  0  0  0  0  0  0  0  0  0
   -5.4919    1.8958    1.9756 H   0  0  0  0  0  0  0  0  0  0  0  0
   -5.4295    1.2671    0.2896 H   0  0  0  0  0  0  0  0  0  0  0  0
   -4.5345   -0.3495    1.8639 H   0  0  0  0  0  0  0  0  0  0  0  0
   -3.4221    0.9094    2.5648 H   0  0  0  0  0  0  0  0  0  0  0  0
   -2.9297   -2.9433   -2.7530 H   0  0  0  0  0  0  0  0  0  0  0  0
   -4.0987   -3.7953   -0.7033 H   0  0  0  0  0  0  0  0  0  0  0  0
   -5.1750   -2.3117   -0.9450 H   0  0  0  0  0  0  0  0  0  0  0  0
   -5.4459   -4.2685   -4.4743 H   0  0  0  0  0  0  0  0  0  0  0  0
    6.7104    2.4864   -0.8508 H   0  0  0  0  0  0  0  0  0  0  0  0
    9.0884    1.1736    1.7207 H   0  0  0  0  0  0  0  0  0  0  0  0
    8.2509    2.2733    2.8554 H   0  0  0  0  0  0  0  0  0  0  0  0
  1  2  1  0
  2  3  1  0
  3  4  2  0
  4  5  1  0
  5  6  1  0
  6  7  1  0
  7  8  2  0
  7  9  1  0
  9 10  1  0
 10 11  2  0
 11 12  1  0
 12 13  1  0
 13 14  1  0
 14 15  2  0
 14 16  1  0
 16 17  1  0
 17 18  1  0
 18 19  1  0
 19 20  1  0
 20 21  1  0
 21 22  1  0
 22 23  1  0
 16 24  1  0
 24 25  1  0
 25 26  1  0
 26 27  2  0
 26 28  1  0
  4 29  1  0
 29 30  1  0
 30 31  1  0
 31 32  2  3
 31 33  1  0
 30  2  2  0
 13  9  1  0
 23 18  1  0
  1 34  1  0
  1 35  1  0
  1 36  1  0
  3 37  1  0
  5 38  1  0
  5 39  1  0
  6 40  1  0
  9 41  1  1
 10 42  1  0
 11 43  1  0
 12 44  1  0
 12 45  1  0
 16 46  1  0
 17 47  1  0
 17 48  1  0
 18 49  1  0
 19 50  1  0
 19 51  1  0
 20 52  1  0
 20 53  1  0
 21 54  1  0
 21 55  1  0
 22 56  1  0
 22 57  1  0
 23 58  1  0
 23 59  1  0
 24 60  1  0
 25 61  1  0
 25 62  1  0
 28 63  1  0
 32 64  1  0
 33 65  1  0
 33 66  1  0
M  END
$$$$
