
     RDKit          3D

 57 61  0  0  0  0  0  0  0  0999 V2000
    5.9813    1.9018    3.9664 N   0  0  0  0  0  0  0  0  0  0  0  0
    5.7232    1.5832    2.8955 C   0  0  0  0  0  0  0  0  0  0  0  0
    5.3839    1.2024    1.5535 C   0  0  0  0  0  0  0  0  0  0  0  0
    6.0654    1.7013    0.4516 C   0  0  0  0  0  0  0  0  0  0  0  0
    5.7584    1.3513   -0.8368 C   0  0  0  0  0  0  0  0  0  0  0  0
    4.7089    0.4486   -1.0560 C   0  0  0  0  0  0  0  0  0  0  0  0
    4.3931    0.0845   -2.4012 N   0  0  0  0  0  0  0  0  0  0  0  0
    3.3339   -0.8273   -2.6711 C   0  0  1  0  0  0  0  0  0  0  0  0
    3.4986   -2.1940   -2.0350 C   0  0  0  0  0  0  0  0  0  0  0  0
    2.0858   -2.7520   -2.2492 C   0  0  0  0  0  0  0  0  0  0  0  0
    1.3019   -1.6232   -1.7919 N   0  0  0  0  0  0  0  0  0  0  0  0
    0.0643   -1.7171   -1.1187 C   0  0  0  0  0  0  0  0  0  0  0  0
   -0.4141   -2.8567   -0.8895 O   0  0  0  0  0  0  0  0  0  0  0  0
   -0.6012   -0.5549   -0.7225 O   0  0  0  0  0  0  0  0  0  0  0  0
   -1.8311   -0.6309   -0.0536 C   0  0  1  0  0  0  0  0  0  0  0  0
   -1.7236   -0.0796    1.3519 C   0  0  0  0  0  0  0  0  0  0  0  0
   -1.4919    1.3979    1.3731 C   0  0  0  0  0  0  0  0  0  0  0  0
   -2.6189    2.0961    0.6450 C   0  0  0  0  0  0  0  0  0  0  0  0
   -2.6204    1.5597   -0.7777 C   0  0  0  0  0  0  0  0  0  0  0  0
   -2.9373    0.0792   -0.7623 C   0  0  0  0  0  0  0  0  0  0  0  0
   -4.2341   -0.2109   -0.0603 C   0  0  0  0  0  0  0  0  0  0  0  0
   -4.1600    0.3373    1.3685 C   0  0  2  0  0  0  0  0  0  0  0  0
   -5.4463    0.0062    2.0214 C   0  0  0  0  0  0  0  0  0  0  0  0
   -5.8443   -1.3500    2.1494 N   0  0  0  0  0  0  0  0  0  0  0  0
   -6.1825    0.9265    2.4610 O   0  0  0  0  0  0  0  0  0  0  0  0
   -3.9573    1.8170    1.2512 C   0  0  0  0  0  0  0  0  0  0  0  0
   -3.0365   -0.3557    2.0745 C   0  0  0  0  0  0  0  0  0  0  0  0
    1.9903   -0.3846   -2.1367 C   0  0  0  0  0  0  0  0  0  0  0  0
    4.0564   -0.0289   -0.0003 N   0  0  0  0  0  0  0  0  0  0  0  0
    4.3651    0.3199    1.2519 C   0  0  0  0  0  0  0  0  0  0  0  0
    6.8840    2.4067    0.6437 H   0  0  0  0  0  0  0  0  0  0  0  0
    6.2673    1.7207   -1.7015 H   0  0  0  0  0  0  0  0  0  0  0  0
    4.9368    0.4835   -3.2036 H   0  0  0  0  0  0  0  0  0  0  0  0
    3.2004   -0.9739   -3.7939 H   0  0  0  0  0  0  0  0  0  0  0  0
    4.2477   -2.8191   -2.5578 H   0  0  0  0  0  0  0  0  0  0  0  0
    3.6212   -2.1110   -0.9621 H   0  0  0  0  0  0  0  0  0  0  0  0
    1.9155   -2.8325   -3.3465 H   0  0  0  0  0  0  0  0  0  0  0  0
    1.9103   -3.6713   -1.6938 H   0  0  0  0  0  0  0  0  0  0  0  0
   -2.1139   -1.7084    0.0678 H   0  0  0  0  0  0  0  0  0  0  0  0
   -0.9267   -0.5770    1.9321 H   0  0  0  0  0  0  0  0  0  0  0  0
   -0.5528    1.7046    0.8828 H   0  0  0  0  0  0  0  0  0  0  0  0
   -1.5408    1.7201    2.4413 H   0  0  0  0  0  0  0  0  0  0  0  0
   -2.4290    3.1786    0.5702 H   0  0  0  0  0  0  0  0  0  0  0  0
   -3.2566    2.1343   -1.4533 H   0  0  0  0  0  0  0  0  0  0  0  0
   -1.5740    1.6598   -1.1481 H   0  0  0  0  0  0  0  0  0  0  0  0
   -3.0576   -0.2290   -1.8156 H   0  0  0  0  0  0  0  0  0  0  0  0
   -4.3311   -1.3116    0.0384 H   0  0  0  0  0  0  0  0  0  0  0  0
   -5.1106    0.1936   -0.5977 H   0  0  0  0  0  0  0  0  0  0  0  0
   -5.6507   -1.9338    2.9833 H   0  0  0  0  0  0  0  0  0  0  0  0
   -6.3722   -1.8187    1.3597 H   0  0  0  0  0  0  0  0  0  0  0  0
   -4.7282    2.2069    0.5257 H   0  0  0  0  0  0  0  0  0  0  0  0
   -4.1345    2.3693    2.1933 H   0  0  0  0  0  0  0  0  0  0  0  0
   -3.2626   -1.4412    2.1021 H   0  0  0  0  0  0  0  0  0  0  0  0
   -2.9233    0.0695    3.0974 H   0  0  0  0  0  0  0  0  0  0  0  0
    2.1064    0.2568   -1.2480 H   0  0  0  0  0  0  0  0  0  0  0  0
    1.4495    0.1607   -2.9430 H   0  0  0  0  0  0  0  0  0  0  0  0
    3.8145   -0.0852    2.1127 H   0  0  0  0  0  0  0  0  0  0  0  0
  1  2  3  0
  2  3  1  0
  3  4  2  0
  4  5  1  0
  5  6  2  0
  6  7  1  0
  7  8  1  0
  8  9  1  0
  9 10  1  0
 10 11  1  0
 11 12  1  0
 12 13  2  0
 12 14  1  0
 14 15  1  0
 15 16  1  0
 16 17  1  0
 17 18  1  0
 18 19  1  0
 19 20  1  0
 20 21  1  0
 21 22  1  0
 22 23  1  1
 23 24  1  0
 23 25  2  0
 22 26  1  0
 22 27  1  0
 11 28  1  0
  6 29  1  0
 29 30  2  0
 30  3  1  0
 28  8  1  0
 20 15  1  0
 27 16  1  0
 26 18  1  0
  4 31  1  0
  5 32  1  0
  7 33  1  0
  8 34  1  6
  9 35  1  0
  9 36  1  0
 10 37  1  0
 10 38  1  0
 15 39  1  1
 16 40  1  0
 17 41  1  0
 17 42  1  0
 18 43  1  0
 19 44  1  0
 19 45  1  0
 20 46  1  0
 21 47  1  0
 21 48  1  0
 24 49  1  0
 24 50  1  0
 26 51  1  0
 26 52  1  0
 27 53  1  0
 27 54  1  0
 28 55  1  0
 28 56  1  0
 30 57  1  0
M  END
$$$$
