
     RDKit          3D

 29 30  0  0  0  0  0  0  0  0999 V2000
    4.9556    1.9570   -2.2614 O   0  0  0  0  0  0  0  0  0  0  0  0
    4.3779    2.1071   -1.1605 C   0  0  0  0  0  0  0  0  0  0  0  0
    4.9332    3.0268   -0.2831 O   0  0  0  0  0  0  0  0  0  0  0  0
    3.1764    1.3636   -0.7911 C   0  0  0  0  0  0  0  0  0  0  0  0
    2.5954    1.5844    0.4432 C   0  0  0  0  0  0  0  0  0  0  0  0
    1.4618    0.8986    0.8204 C   0  0  0  0  0  0  0  0  0  0  0  0
    0.8559   -0.0272    0.0048 C   0  0  0  0  0  0  0  0  0  0  0  0
   -0.2822   -0.6889    0.4322 O   0  0  0  0  0  0  0  0  0  0  0  0
   -0.9469   -1.6498   -0.3631 C   0  0  0  0  0  0  0  0  0  0  0  0
   -2.1528   -2.2252    0.3187 C   0  0  0  0  0  0  0  0  0  0  0  0
   -3.1427   -1.2364    0.6501 N   0  0  0  0  0  0  0  0  0  0  0  0
   -3.1906   -0.5542    1.8087 C   0  0  0  0  0  0  0  0  0  0  0  0
   -4.2782    0.2886    1.7342 C   0  0  0  0  0  0  0  0  0  0  0  0
   -4.8791    0.1180    0.5471 N   0  0  0  0  0  0  0  0  0  0  0  0
   -4.1629   -0.8283   -0.1087 C   0  0  0  0  0  0  0  0  0  0  0  0
    1.4530   -0.2348   -1.2285 C   0  0  0  0  0  0  0  0  0  0  0  0
    2.5933    0.4432   -1.6294 C   0  0  0  0  0  0  0  0  0  0  0  0
    5.9034    3.2881   -0.2948 H   0  0  0  0  0  0  0  0  0  0  0  0
    3.0577    2.3197    1.1182 H   0  0  0  0  0  0  0  0  0  0  0  0
    1.0531    1.1109    1.7923 H   0  0  0  0  0  0  0  0  0  0  0  0
   -0.2246   -2.4967   -0.5046 H   0  0  0  0  0  0  0  0  0  0  0  0
   -1.2071   -1.2539   -1.3646 H   0  0  0  0  0  0  0  0  0  0  0  0
   -2.5969   -2.9654   -0.4100 H   0  0  0  0  0  0  0  0  0  0  0  0
   -1.8729   -2.8362    1.2008 H   0  0  0  0  0  0  0  0  0  0  0  0
   -2.5432   -0.5999    2.6743 H   0  0  0  0  0  0  0  0  0  0  0  0
   -4.6496    0.9982    2.4684 H   0  0  0  0  0  0  0  0  0  0  0  0
   -4.3550   -1.2202   -1.0957 H   0  0  0  0  0  0  0  0  0  0  0  0
    1.0278   -0.9393   -1.9007 H   0  0  0  0  0  0  0  0  0  0  0  0
    3.0402    0.2523   -2.6171 H   0  0  0  0  0  0  0  0  0  0  0  0
  1  2  2  0
  2  3  1  0
  2  4  1  0
  4  5  2  0
  5  6  1  0
  6  7  2  0
  7  8  1  0
  8  9  1  0
  9 10  1  0
 10 11  1  0
 11 12  1  0
 12 13  2  0
 13 14  1  0
 14 15  2  0
  7 16  1  0
 16 17  2  0
 17  4  1  0
 15 11  1  0
  3 18  1  0
  5 19  1  0
  6 20  1  0
  9 21  1  0
  9 22  1  0
 10 23  1  0
 10 24  1  0
 12 25  1  0
 13 26  1  0
 15 27  1  0
 16 28  1  0
 17 29  1  0
M  END
$$$$
