
     RDKit          3D

 57 59  0  0  0  0  0  0  0  0999 V2000
    6.7595   -1.0287   -0.4322 C   0  0  0  0  0  0  0  0  0  0  0  0
    5.6943   -2.1009   -0.4755 C   0  0  0  0  0  0  0  0  0  0  0  0
    4.7154   -1.7877    0.6635 C   0  0  0  0  0  0  0  0  0  0  0  0
    4.1647   -0.4208    0.3750 C   0  0  0  0  0  0  0  0  0  0  0  0
    3.1723    0.0496    1.4172 C   0  0  0  0  0  0  0  0  0  0  0  0
    2.7231    1.4384    0.9691 C   0  0  0  0  0  0  0  0  0  0  0  0
    1.9552    1.2817   -0.6610 S   0  0  0  0  0  0  0  0  0  0  0  0
    0.4270    0.3413   -0.5602 C   0  0  0  0  0  0  0  0  0  0  0  0
    0.2866   -0.9881   -0.6789 N   0  0  0  0  0  0  0  0  0  0  0  0
   -1.0168   -1.2795   -0.5401 C   0  0  0  0  0  0  0  0  0  0  0  0
   -1.6455   -2.6174   -0.5970 C   0  0  0  0  0  0  0  0  0  0  0  0
   -2.8723   -2.8285   -0.0038 C   0  0  0  0  0  0  0  0  0  0  0  0
   -3.4774   -4.0696   -0.0449 C   0  0  0  0  0  0  0  0  0  0  0  0
   -2.8721   -5.1385   -0.6818 C   0  0  0  0  0  0  0  0  0  0  0  0
   -3.5187   -6.4848   -0.7320 C   0  0  0  0  0  0  0  0  0  0  0  0
   -1.6459   -4.9013   -1.2669 C   0  0  0  0  0  0  0  0  0  0  0  0
   -1.0247   -3.6655   -1.2361 C   0  0  0  0  0  0  0  0  0  0  0  0
   -1.6392   -0.1060   -0.3385 N   0  0  0  0  0  0  0  0  0  0  0  0
   -0.7952    0.9100   -0.3432 N   0  0  0  0  0  0  0  0  0  0  0  0
   -1.0658    2.2844   -0.1662 C   0  0  0  0  0  0  0  0  0  0  0  0
   -0.1238    3.1028   -0.2034 O   0  0  0  0  0  0  0  0  0  0  0  0
   -2.3776    2.7562    0.0522 N   0  0  0  0  0  0  0  0  0  0  0  0
   -3.5196    1.8546    0.1030 C   0  0  0  0  0  0  0  0  0  0  0  0
   -2.6516    4.1594    0.2345 C   0  0  0  0  0  0  0  0  0  0  0  0
   -2.9400    4.9260   -0.8804 C   0  0  0  0  0  0  0  0  0  0  0  0
   -3.1997    6.2755   -0.7142 C   0  0  0  0  0  0  0  0  0  0  0  0
   -3.1825    6.8878    0.5205 C   0  0  0  0  0  0  0  0  0  0  0  0
   -2.8897    6.0834    1.6057 C   0  0  0  0  0  0  0  0  0  0  0  0
   -2.6250    4.7337    1.4820 C   0  0  0  0  0  0  0  0  0  0  0  0
    6.4849   -0.1517   -1.0737 H   0  0  0  0  0  0  0  0  0  0  0  0
    7.7562   -1.4294   -0.7634 H   0  0  0  0  0  0  0  0  0  0  0  0
    6.9262   -0.6254    0.5878 H   0  0  0  0  0  0  0  0  0  0  0  0
    5.1732   -2.0527   -1.4468 H   0  0  0  0  0  0  0  0  0  0  0  0
    6.1230   -3.1155   -0.3387 H   0  0  0  0  0  0  0  0  0  0  0  0
    3.9374   -2.5542    0.7357 H   0  0  0  0  0  0  0  0  0  0  0  0
    5.2873   -1.8064    1.6259 H   0  0  0  0  0  0  0  0  0  0  0  0
    3.6534   -0.4585   -0.6056 H   0  0  0  0  0  0  0  0  0  0  0  0
    5.0081    0.3013    0.3753 H   0  0  0  0  0  0  0  0  0  0  0  0
    2.3129   -0.6228    1.5207 H   0  0  0  0  0  0  0  0  0  0  0  0
    3.6619    0.1098    2.4122 H   0  0  0  0  0  0  0  0  0  0  0  0
    3.6494    2.0342    0.8372 H   0  0  0  0  0  0  0  0  0  0  0  0
    2.0283    1.8750    1.7171 H   0  0  0  0  0  0  0  0  0  0  0  0
   -3.3587   -2.0035    0.4980 H   0  0  0  0  0  0  0  0  0  0  0  0
   -4.4361   -4.2409    0.4165 H   0  0  0  0  0  0  0  0  0  0  0  0
   -4.5723   -6.3573   -0.3608 H   0  0  0  0  0  0  0  0  0  0  0  0
   -3.6286   -6.8501   -1.7806 H   0  0  0  0  0  0  0  0  0  0  0  0
   -3.0407   -7.2097   -0.0640 H   0  0  0  0  0  0  0  0  0  0  0  0
   -1.1880   -5.7668   -1.7653 H   0  0  0  0  0  0  0  0  0  0  0  0
   -0.0624   -3.5474   -1.7151 H   0  0  0  0  0  0  0  0  0  0  0  0
   -4.4706    2.4164    0.0643 H   0  0  0  0  0  0  0  0  0  0  0  0
   -3.5146    1.2543   -0.8552 H   0  0  0  0  0  0  0  0  0  0  0  0
   -3.5092    1.2098    0.9994 H   0  0  0  0  0  0  0  0  0  0  0  0
   -2.9601    4.4697   -1.8596 H   0  0  0  0  0  0  0  0  0  0  0  0
   -3.4211    6.8440   -1.6046 H   0  0  0  0  0  0  0  0  0  0  0  0
   -3.3907    7.9592    0.6333 H   0  0  0  0  0  0  0  0  0  0  0  0
   -2.8699    6.5452    2.5927 H   0  0  0  0  0  0  0  0  0  0  0  0
   -2.3939    4.1059    2.3511 H   0  0  0  0  0  0  0  0  0  0  0  0
  1  2  1  0
  2  3  1  0
  3  4  1  0
  4  5  1  0
  5  6  1  0
  6  7  1  0
  7  8  1  0
  8  9  2  0
  9 10  1  0
 10 11  1  0
 11 12  2  0
 12 13  1  0
 13 14  2  0
 14 15  1  0
 14 16  1  0
 16 17  2  0
 10 18  2  0
 18 19  1  0
 19 20  1  0
 20 21  2  0
 20 22  1  0
 22 23  1  0
 22 24  1  0
 24 25  2  0
 25 26  1  0
 26 27  2  0
 27 28  1  0
 28 29  2  0
 19  8  1  0
 29 24  1  0
 17 11  1  0
  1 30  1  0
  1 31  1  0
  1 32  1  0
  2 33  1  0
  2 34  1  0
  3 35  1  0
  3 36  1  0
  4 37  1  0
  4 38  1  0
  5 39  1  0
  5 40  1  0
  6 41  1  0
  6 42  1  0
 12 43  1  0
 13 44  1  0
 15 45  1  0
 15 46  1  0
 15 47  1  0
 16 48  1  0
 17 49  1  0
 23 50  1  0
 23 51  1  0
 23 52  1  0
 25 53  1  0
 26 54  1  0
 27 55  1  0
 28 56  1  0
 29 57  1  0
M  END
$$$$
