
     RDKit          3D

 57 60  0  0  0  0  0  0  0  0999 V2000
    0.5852   -0.5019    0.6362 C   0  0  2  0  0  0  0  0  0  0  0  0
    1.5255   -0.7887    1.7432 C   0  0  0  0  0  0  0  0  0  0  0  0
    2.7101   -1.2690    0.9167 C   0  0  2  0  0  0  0  0  0  0  0  0
    4.0133   -1.1673    1.6404 C   0  0  0  0  0  0  0  0  0  0  0  0
    2.6510   -0.4574   -0.3555 C   0  0  2  0  0  0  0  0  0  0  0  0
    2.4737   -1.3827   -1.4119 O   0  0  0  0  0  0  0  0  0  0  0  0
    3.8800    0.2689   -0.6572 C   0  0  0  0  0  0  0  0  0  0  0  0
    4.4153    1.1479   -0.0068 O   0  0  0  0  0  0  0  0  0  0  0  0
    4.7550    0.0698   -1.8672 C   0  0  0  0  0  0  0  0  0  0  0  0
    4.2281   -0.9343   -2.6968 O   0  0  0  0  0  0  0  0  0  0  0  0
    1.4038    0.3752   -0.2840 C   0  0  2  0  0  0  0  0  0  0  0  0
    1.6526    1.7444    0.2887 C   0  0  0  0  0  0  0  0  0  0  0  0
    0.6501    0.4385   -1.5684 C   0  0  0  0  0  0  0  0  0  0  0  0
   -0.7877    0.8038   -1.4320 C   0  0  2  0  0  0  0  0  0  0  0  0
   -1.0063    2.1520   -1.2555 O   0  0  0  0  0  0  0  0  0  0  0  0
   -1.5072    0.0074   -0.3748 C   0  0  1  0  0  0  0  0  0  0  0  0
   -1.3826   -1.3145   -0.7594 F   0  0  0  0  0  0  0  0  0  0  0  0
   -0.7056    0.1430    0.9280 C   0  0  1  0  0  0  0  0  0  0  0  0
   -1.4291   -0.4803    2.1023 C   0  0  0  0  0  0  0  0  0  0  0  0
   -2.7814    0.1939    2.1765 C   0  0  0  0  0  0  0  0  0  0  0  0
   -3.5562   -0.2468    0.9948 C   0  0  0  0  0  0  0  0  0  0  0  0
   -4.6008   -1.0530    1.0929 C   0  0  0  0  0  0  0  0  0  0  0  0
   -5.2341   -1.3778   -0.1801 C   0  0  0  0  0  0  0  0  0  0  0  0
   -6.2314   -2.1357   -0.1796 O   0  0  0  0  0  0  0  0  0  0  0  0
   -4.7544   -0.8568   -1.4539 C   0  0  0  0  0  0  0  0  0  0  0  0
   -3.7060   -0.0669   -1.3816 C   0  0  0  0  0  0  0  0  0  0  0  0
   -2.9362    0.3764   -0.1938 C   0  0  2  0  0  0  0  0  0  0  0  0
   -3.1739    1.8650   -0.0887 C   0  0  0  0  0  0  0  0  0  0  0  0
    0.3929   -1.4560    0.1029 H   0  0  0  0  0  0  0  0  0  0  0  0
    1.7985    0.0305    2.4008 H   0  0  0  0  0  0  0  0  0  0  0  0
    1.0846   -1.6500    2.3264 H   0  0  0  0  0  0  0  0  0  0  0  0
    2.5198   -2.3617    0.7401 H   0  0  0  0  0  0  0  0  0  0  0  0
    4.8138   -1.2992    0.9117 H   0  0  0  0  0  0  0  0  0  0  0  0
    4.0835   -2.0411    2.3320 H   0  0  0  0  0  0  0  0  0  0  0  0
    4.1189   -0.2806    2.2942 H   0  0  0  0  0  0  0  0  0  0  0  0
    2.9993   -2.1787   -1.1503 H   0  0  0  0  0  0  0  0  0  0  0  0
    4.8235    1.0330   -2.4326 H   0  0  0  0  0  0  0  0  0  0  0  0
    5.7838   -0.2214   -1.6055 H   0  0  0  0  0  0  0  0  0  0  0  0
    3.7868   -0.4777   -3.4640 H   0  0  0  0  0  0  0  0  0  0  0  0
    2.4132    2.2963   -0.3007 H   0  0  0  0  0  0  0  0  0  0  0  0
    0.7522    2.3883    0.2583 H   0  0  0  0  0  0  0  0  0  0  0  0
    1.9975    1.7453    1.3215 H   0  0  0  0  0  0  0  0  0  0  0  0
    0.7106   -0.5636   -2.0691 H   0  0  0  0  0  0  0  0  0  0  0  0
    1.1220    1.2074   -2.2291 H   0  0  0  0  0  0  0  0  0  0  0  0
   -1.2612    0.4715   -2.4071 H   0  0  0  0  0  0  0  0  0  0  0  0
   -0.8336    2.6981   -2.0482 H   0  0  0  0  0  0  0  0  0  0  0  0
   -0.6541    1.2270    1.1496 H   0  0  0  0  0  0  0  0  0  0  0  0
   -0.8442   -0.2222    2.9912 H   0  0  0  0  0  0  0  0  0  0  0  0
   -1.5076   -1.5670    1.9309 H   0  0  0  0  0  0  0  0  0  0  0  0
   -2.6258    1.2799    2.2197 H   0  0  0  0  0  0  0  0  0  0  0  0
   -3.2388   -0.1634    3.1248 H   0  0  0  0  0  0  0  0  0  0  0  0
   -4.9199   -1.4142    2.0586 H   0  0  0  0  0  0  0  0  0  0  0  0
   -5.2110   -1.0884   -2.4052 H   0  0  0  0  0  0  0  0  0  0  0  0
   -3.3197    0.3396   -2.3133 H   0  0  0  0  0  0  0  0  0  0  0  0
   -4.1616    2.0003    0.4266 H   0  0  0  0  0  0  0  0  0  0  0  0
   -2.4481    2.3753    0.5416 H   0  0  0  0  0  0  0  0  0  0  0  0
   -3.3260    2.3399   -1.0781 H   0  0  0  0  0  0  0  0  0  0  0  0
  1  2  1  0
  2  3  1  0
  3  4  1  0
  3  5  1  0
  5  6  1  6
  5  7  1  0
  7  8  2  0
  7  9  1  0
  9 10  1  0
  5 11  1  0
 11 12  1  1
 11 13  1  0
 13 14  1  0
 14 15  1  0
 14 16  1  0
 16 17  1  6
 16 18  1  0
 18 19  1  0
 19 20  1  0
 20 21  1  0
 21 22  2  0
 22 23  1  0
 23 24  2  0
 23 25  1  0
 25 26  2  0
 26 27  1  0
 27 28  1  1
 11  1  1  0
 27 16  1  0
 18  1  1  0
 27 21  1  0
  1 29  1  6
  2 30  1  0
  2 31  1  0
  3 32  1  6
  4 33  1  0
  4 34  1  0
  4 35  1  0
  6 36  1  0
  9 37  1  0
  9 38  1  0
 10 39  1  0
 12 40  1  0
 12 41  1  0
 12 42  1  0
 13 43  1  0
 13 44  1  0
 14 45  1  6
 15 46  1  0
 18 47  1  1
 19 48  1  0
 19 49  1  0
 20 50  1  0
 20 51  1  0
 22 52  1  0
 25 53  1  0
 26 54  1  0
 28 55  1  0
 28 56  1  0
 28 57  1  0
M  END
$$$$
