
     RDKit          3D

 41 44  0  0  0  0  0  0  0  0999 V2000
    4.6340   -1.5540    0.0548 C   0  0  0  0  0  0  0  0  0  0  0  0
    3.8796   -0.3359    0.5325 C   0  0  2  0  0  0  0  0  0  0  0  0
    3.3404   -0.7198    1.8037 O   0  0  0  0  0  0  0  0  0  0  0  0
    2.7731    0.0598   -0.3473 C   0  0  0  0  0  0  0  0  0  0  0  0
    2.9608    0.8448   -1.4368 C   0  0  0  0  0  0  0  0  0  0  0  0
    1.8803    1.1744   -2.1974 N   0  0  0  0  0  0  0  0  0  0  0  0
    0.6389    0.7551   -1.9145 C   0  0  0  0  0  0  0  0  0  0  0  0
    0.3762   -0.0453   -0.8228 C   0  0  0  0  0  0  0  0  0  0  0  0
   -0.9480   -0.5332   -0.4624 C   0  0  0  0  0  0  0  0  0  0  0  0
   -1.3172   -1.7811   -0.1179 N   0  0  0  0  0  0  0  0  0  0  0  0
   -2.6401   -1.8495    0.1438 C   0  0  0  0  0  0  0  0  0  0  0  0
   -3.4372   -2.9312    0.5309 C   0  0  0  0  0  0  0  0  0  0  0  0
   -4.7706   -2.6885    0.7258 C   0  0  0  0  0  0  0  0  0  0  0  0
   -5.2802   -1.4227    0.5415 C   0  0  0  0  0  0  0  0  0  0  0  0
   -6.6084   -1.1554    0.7300 F   0  0  0  0  0  0  0  0  0  0  0  0
   -4.4424   -0.4038    0.1608 C   0  0  0  0  0  0  0  0  0  0  0  0
   -3.1144   -0.6143   -0.0402 N   0  0  0  0  0  0  0  0  0  0  0  0
   -2.0908    0.2156   -0.4138 C   0  0  0  0  0  0  0  0  0  0  0  0
   -2.3425    1.6447   -0.6569 C   0  0  0  0  0  0  0  0  0  0  0  0
   -2.4803    2.4335    0.6824 C   0  0  0  0  0  0  0  0  0  0  0  0
   -1.4221    2.7254   -0.3368 C   0  0  0  0  0  0  0  0  0  0  0  0
    1.4601   -0.3819   -0.0508 C   0  0  0  0  0  0  0  0  0  0  0  0
    4.8065    0.8131    0.7914 C   0  0  0  0  0  0  0  0  0  0  0  0
    5.5273    1.1882   -0.3026 F   0  0  0  0  0  0  0  0  0  0  0  0
    4.0885    1.9515    1.1886 F   0  0  0  0  0  0  0  0  0  0  0  0
    5.6601    0.5331    1.8485 F   0  0  0  0  0  0  0  0  0  0  0  0
    3.9577   -2.2462   -0.5149 H   0  0  0  0  0  0  0  0  0  0  0  0
    5.0095   -2.1548    0.9130 H   0  0  0  0  0  0  0  0  0  0  0  0
    5.4782   -1.3232   -0.5961 H   0  0  0  0  0  0  0  0  0  0  0  0
    3.2795    0.1091    2.3420 H   0  0  0  0  0  0  0  0  0  0  0  0
    3.9237    1.2225   -1.7447 H   0  0  0  0  0  0  0  0  0  0  0  0
   -0.1642    1.0582   -2.5641 H   0  0  0  0  0  0  0  0  0  0  0  0
   -3.0067   -3.9114    0.6669 H   0  0  0  0  0  0  0  0  0  0  0  0
   -5.4602   -3.4690    1.0264 H   0  0  0  0  0  0  0  0  0  0  0  0
   -4.8582    0.5958    0.0177 H   0  0  0  0  0  0  0  0  0  0  0  0
   -3.1767    1.8411   -1.3752 H   0  0  0  0  0  0  0  0  0  0  0  0
   -2.1297    1.9620    1.5987 H   0  0  0  0  0  0  0  0  0  0  0  0
   -3.3610    3.0691    0.7905 H   0  0  0  0  0  0  0  0  0  0  0  0
   -1.6087    3.6964   -0.8841 H   0  0  0  0  0  0  0  0  0  0  0  0
   -0.3817    2.6352   -0.0346 H   0  0  0  0  0  0  0  0  0  0  0  0
    1.3666   -1.0074    0.8316 H   0  0  0  0  0  0  0  0  0  0  0  0
  1  2  1  0
  2  3  1  1
  2  4  1  0
  4  5  2  0
  5  6  1  0
  6  7  2  0
  7  8  1  0
  8  9  1  0
  9 10  1  0
 10 11  2  0
 11 12  1  0
 12 13  2  0
 13 14  1  0
 14 15  1  0
 14 16  2  0
 16 17  1  0
 17 18  1  0
 18 19  1  0
 19 20  1  0
 20 21  1  0
  8 22  2  0
  2 23  1  0
 23 24  1  0
 23 25  1  0
 23 26  1  0
 22  4  1  0
 18  9  2  0
 21 19  1  0
 17 11  1  0
  1 27  1  0
  1 28  1  0
  1 29  1  0
  3 30  1  0
  5 31  1  0
  7 32  1  0
 12 33  1  0
 13 34  1  0
 16 35  1  0
 19 36  1  0
 20 37  1  0
 20 38  1  0
 21 39  1  0
 21 40  1  0
 22 41  1  0
M  END
$$$$
