
     RDKit          3D

 43 46  0  0  0  0  0  0  0  0999 V2000
    4.6110    0.2967    0.5999 C   0  0  0  0  0  0  0  0  0  0  0  0
    3.1666    0.1806    0.5154 N   0  0  0  0  0  0  0  0  0  0  0  0
    2.8604   -1.2421    0.4125 C   0  0  0  0  0  0  0  0  0  0  0  0
    1.5646   -1.4650   -0.3075 C   0  0  0  0  0  0  0  0  0  0  0  0
    0.6137   -0.3124   -0.2754 C   0  0  0  0  0  0  0  0  0  0  0  0
    1.3838    0.5871   -1.1612 C   0  0  0  0  0  0  0  0  0  0  0  0
    2.7489    0.8739   -0.6824 C   0  0  0  0  0  0  0  0  0  0  0  0
   -0.6345   -0.0302    0.2066 C   0  0  0  0  0  0  0  0  0  0  0  0
   -1.2220    1.3306    0.0012 C   0  0  0  0  0  0  0  0  0  0  0  0
   -0.2596    2.2463    0.3229 C   0  0  0  0  0  0  0  0  0  0  0  0
   -0.6813    3.5384    0.1205 C   0  0  0  0  0  0  0  0  0  0  0  0
   -1.9623    3.8246   -0.3601 C   0  0  0  0  0  0  0  0  0  0  0  0
   -2.8754    2.8089   -0.6574 C   0  0  0  0  0  0  0  0  0  0  0  0
   -2.5243    1.4889   -0.4806 C   0  0  0  0  0  0  0  0  0  0  0  0
   -3.5700    0.5060   -0.7987 C   0  0  0  0  0  0  0  0  0  0  0  0
   -3.6395   -0.7686   -0.3651 C   0  0  0  0  0  0  0  0  0  0  0  0
   -2.6897   -1.4632    0.5206 C   0  0  0  0  0  0  0  0  0  0  0  0
   -3.2130   -2.5574    1.1362 C   0  0  0  0  0  0  0  0  0  0  0  0
   -2.4073   -3.2806    2.0196 C   0  0  0  0  0  0  0  0  0  0  0  0
   -1.0803   -2.9260    2.3003 C   0  0  0  0  0  0  0  0  0  0  0  0
   -0.5242   -1.8390    1.7047 C   0  0  0  0  0  0  0  0  0  0  0  0
   -1.3562   -1.1675    0.8463 C   0  0  0  0  0  0  0  0  0  0  0  0
    5.0340   -0.5254   -0.0135 H   0  0  0  0  0  0  0  0  0  0  0  0
    4.9610    1.2768    0.1870 H   0  0  0  0  0  0  0  0  0  0  0  0
    4.9237    0.1484    1.6513 H   0  0  0  0  0  0  0  0  0  0  0  0
    2.7653   -1.6590    1.4324 H   0  0  0  0  0  0  0  0  0  0  0  0
    3.6863   -1.7772   -0.1003 H   0  0  0  0  0  0  0  0  0  0  0  0
    1.0877   -2.4012    0.0262 H   0  0  0  0  0  0  0  0  0  0  0  0
    1.8748   -1.7201   -1.3636 H   0  0  0  0  0  0  0  0  0  0  0  0
    1.5449    0.0559   -2.1846 H   0  0  0  0  0  0  0  0  0  0  0  0
    0.7976    1.4676   -1.5347 H   0  0  0  0  0  0  0  0  0  0  0  0
    3.5125    0.7491   -1.4799 H   0  0  0  0  0  0  0  0  0  0  0  0
    2.7836    1.9656   -0.4174 H   0  0  0  0  0  0  0  0  0  0  0  0
    0.6694    1.9095    0.7051 H   0  0  0  0  0  0  0  0  0  0  0  0
    0.0376    4.3249    0.3541 H   0  0  0  0  0  0  0  0  0  0  0  0
   -2.2675    4.8699   -0.5109 H   0  0  0  0  0  0  0  0  0  0  0  0
   -3.8704    3.0003   -1.0291 H   0  0  0  0  0  0  0  0  0  0  0  0
   -4.3355    0.8983   -1.4459 H   0  0  0  0  0  0  0  0  0  0  0  0
   -4.4792   -1.3548   -0.6935 H   0  0  0  0  0  0  0  0  0  0  0  0
   -4.2193   -2.8192    0.9186 H   0  0  0  0  0  0  0  0  0  0  0  0
   -2.8193   -4.1707    2.5248 H   0  0  0  0  0  0  0  0  0  0  0  0
   -0.4454   -3.4755    2.9813 H   0  0  0  0  0  0  0  0  0  0  0  0
    0.4488   -1.3931    1.8159 H   0  0  0  0  0  0  0  0  0  0  0  0
  1  2  1  0
  2  3  1  0
  3  4  1  0
  4  5  1  0
  5  6  1  0
  6  7  1  0
  5  8  2  3
  8  9  1  0
  9 10  2  0
 10 11  1  0
 11 12  2  0
 12 13  1  0
 13 14  2  0
 14 15  1  0
 15 16  2  0
 16 17  1  0
 17 18  2  0
 18 19  1  0
 19 20  2  0
 20 21  1  0
 21 22  2  0
  7  2  1  0
 22  8  1  0
 14  9  1  0
 22 17  1  0
  1 23  1  0
  1 24  1  0
  1 25  1  0
  3 26  1  0
  3 27  1  0
  4 28  1  0
  4 29  1  0
  6 30  1  0
  6 31  1  0
  7 32  1  0
  7 33  1  0
 10 34  1  0
 11 35  1  0
 12 36  1  0
 13 37  1  0
 15 38  1  0
 16 39  1  0
 18 40  1  0
 19 41  1  0
 20 42  1  0
 21 43  1  0
M  END
$$$$
