
     RDKit          3D

132139  0  0  0  0  0  0  0  0999 V2000
  -10.0282    1.2389   -4.3568 C   0  0  0  0  0  0  0  0  0  0  0  0
  -10.6417    1.0213   -3.0079 C   0  0  0  0  0  0  0  0  0  0  0  0
  -11.8931    1.3113   -2.7447 C   0  0  0  0  0  0  0  0  0  0  0  0
  -12.2482    1.8785   -1.4261 C   0  0  1  0  0  0  0  0  0  0  0  0
  -13.1916    0.9804   -0.6444 C   0  0  0  0  0  0  0  0  0  0  0  0
  -12.4383   -0.1760   -0.0856 C   0  0  0  0  0  0  0  0  0  0  0  0
  -13.2225   -1.2003    0.3689 N   0  0  0  0  0  0  0  0  0  0  0  0
  -12.6688   -2.3125    0.8680 C   0  0  0  0  0  0  0  0  0  0  0  0
  -13.4120   -3.2495    1.2839 O   0  0  0  0  0  0  0  0  0  0  0  0
  -11.2962   -2.4508    0.9353 C   0  0  0  0  0  0  0  0  0  0  0  0
  -10.5025   -1.4117    0.4748 C   0  0  0  0  0  0  0  0  0  0  0  0
  -11.0949   -0.2791   -0.0332 C   0  0  0  0  0  0  0  0  0  0  0  0
  -10.1948    0.8132   -0.5595 C   0  0  1  0  0  0  0  0  0  0  0  0
   -9.7456    0.4362   -1.9269 C   0  0  0  0  0  0  0  0  0  0  0  0
  -10.9769    2.1188   -0.6871 C   0  0  2  0  0  0  0  0  0  0  0  0
  -11.1292    2.8969    0.5610 C   0  0  0  0  0  0  0  0  0  0  0  0
  -11.0429    2.0677    1.8168 C   0  0  0  0  0  0  0  0  0  0  0  0
   -9.8756    1.1580    1.8278 C   0  0  0  0  0  0  0  0  0  0  0  0
   -9.2255    1.0709    0.4600 N   0  0  0  0  0  0  0  0  0  0  0  0
   -7.8336    1.2951    0.4295 C   0  0  0  0  0  0  0  0  0  0  0  0
   -7.3598    1.5570    1.6165 O   0  0  0  0  0  0  0  0  0  0  0  0
   -6.8982    1.2824   -0.6555 C   0  0  0  0  0  0  0  0  0  0  0  0
   -5.4739    1.6341   -0.4534 C   0  0  0  0  0  0  0  0  0  0  0  0
   -4.5936    0.8973    0.3378 N   0  0  0  0  0  0  0  0  0  0  0  0
   -4.6965    0.9078    1.7532 C   0  0  0  0  0  0  0  0  0  0  0  0
   -4.4958   -0.5026   -0.1196 C   0  0  0  0  0  0  0  0  0  0  0  0
   -3.3889   -1.1822    0.6098 C   0  0  0  0  0  0  0  0  0  0  0  0
   -2.0412   -0.5486    0.2988 C   0  0  0  0  0  0  0  0  0  0  0  0
   -0.9179   -1.1971    1.0524 C   0  0  0  0  0  0  0  0  0  0  0  0
   -0.7650   -2.6720    0.7556 C   0  0  0  0  0  0  0  0  0  0  0  0
    0.3677   -3.2783    1.5311 C   0  0  0  0  0  0  0  0  0  0  0  0
    1.6792   -2.6250    1.1926 C   0  0  0  0  0  0  0  0  0  0  0  0
    2.0316   -2.7820   -0.2520 C   0  0  0  0  0  0  0  0  0  0  0  0
    3.3500   -2.1369   -0.5986 C   0  0  0  0  0  0  0  0  0  0  0  0
    4.4660   -2.7191    0.2123 C   0  0  0  0  0  0  0  0  0  0  0  0
    5.7612   -2.1270   -0.1475 N   0  0  0  0  0  0  0  0  0  0  0  0
    6.1136   -2.5888   -1.5028 C   0  0  0  0  0  0  0  0  0  0  0  0
    5.6245   -0.6662   -0.2595 C   0  0  0  0  0  0  0  0  0  0  0  0
    7.0896   -0.1993   -0.5732 C   0  0  0  0  0  0  0  0  0  0  0  0
    7.9076   -0.6060    0.5592 C   0  0  0  0  0  0  0  0  0  0  0  0
    7.2760   -1.2476    1.5269 O   0  0  0  0  0  0  0  0  0  0  0  0
    9.2841   -0.4509    0.8558 N   0  0  0  0  0  0  0  0  0  0  0  0
    9.7372   -0.9519    2.1661 C   0  0  0  0  0  0  0  0  0  0  0  0
   11.0616   -1.6200    2.1728 C   0  0  0  0  0  0  0  0  0  0  0  0
   12.0397   -0.6155    1.5461 C   0  0  0  0  0  0  0  0  0  0  0  0
   11.5837   -0.5162    0.1039 C   0  0  2  0  0  0  0  0  0  0  0  0
   12.6245    0.2133   -0.7118 C   0  0  1  0  0  0  0  0  0  0  0  0
   12.1529    0.3227   -2.1105 C   0  0  0  0  0  0  0  0  0  0  0  0
   10.9294    0.7356   -2.3511 C   0  0  0  0  0  0  0  0  0  0  0  0
   10.5954    1.6922   -3.4626 C   0  0  0  0  0  0  0  0  0  0  0  0
    9.8248    0.2210   -1.4662 C   0  0  0  0  0  0  0  0  0  0  0  0
   10.2575    0.1726    0.0008 C   0  0  1  0  0  0  0  0  0  0  0  0
   10.4344    1.5924    0.4591 C   0  0  0  0  0  0  0  0  0  0  0  0
    9.3288    2.2570    0.9483 C   0  0  0  0  0  0  0  0  0  0  0  0
    9.4380    3.5718    1.3742 C   0  0  0  0  0  0  0  0  0  0  0  0
   10.6751    4.1581    1.2849 C   0  0  0  0  0  0  0  0  0  0  0  0
   10.7760    5.3636    1.6761 O   0  0  0  0  0  0  0  0  0  0  0  0
   11.7285    3.4714    0.8008 N   0  0  0  0  0  0  0  0  0  0  0  0
   11.6409    2.1934    0.3819 C   0  0  0  0  0  0  0  0  0  0  0  0
   12.9022    1.5854   -0.1152 C   0  0  0  0  0  0  0  0  0  0  0  0
   -9.0760    1.8043   -4.1705 H   0  0  0  0  0  0  0  0  0  0  0  0
  -10.6710    1.8235   -5.0245 H   0  0  0  0  0  0  0  0  0  0  0  0
   -9.7410    0.2661   -4.7591 H   0  0  0  0  0  0  0  0  0  0  0  0
  -12.6442    1.1343   -3.4975 H   0  0  0  0  0  0  0  0  0  0  0  0
  -12.7519    2.8859   -1.5288 H   0  0  0  0  0  0  0  0  0  0  0  0
  -13.7592    1.5138    0.1260 H   0  0  0  0  0  0  0  0  0  0  0  0
  -13.8961    0.5554   -1.3832 H   0  0  0  0  0  0  0  0  0  0  0  0
  -14.2614   -1.1484    0.3408 H   0  0  0  0  0  0  0  0  0  0  0  0
  -10.8559   -3.3398    1.3324 H   0  0  0  0  0  0  0  0  0  0  0  0
   -9.4350   -1.5469    0.5383 H   0  0  0  0  0  0  0  0  0  0  0  0
   -9.9954   -0.6881   -2.0235 H   0  0  0  0  0  0  0  0  0  0  0  0
   -8.7271    0.5097   -2.2130 H   0  0  0  0  0  0  0  0  0  0  0  0
  -10.3314    2.7429   -1.3819 H   0  0  0  0  0  0  0  0  0  0  0  0
  -12.1310    3.3806    0.5439 H   0  0  0  0  0  0  0  0  0  0  0  0
  -10.3913    3.7445    0.6340 H   0  0  0  0  0  0  0  0  0  0  0  0
  -10.8611    2.8249    2.6459 H   0  0  0  0  0  0  0  0  0  0  0  0
  -12.0166    1.6196    2.0909 H   0  0  0  0  0  0  0  0  0  0  0  0
   -9.0844    1.4575    2.5567 H   0  0  0  0  0  0  0  0  0  0  0  0
  -10.1565    0.1471    2.0866 H   0  0  0  0  0  0  0  0  0  0  0  0
   -7.2879    1.9845   -1.4598 H   0  0  0  0  0  0  0  0  0  0  0  0
   -6.8913    0.2502   -1.1181 H   0  0  0  0  0  0  0  0  0  0  0  0
   -5.3670    2.7550   -0.2086 H   0  0  0  0  0  0  0  0  0  0  0  0
   -5.0197    1.6355   -1.5121 H   0  0  0  0  0  0  0  0  0  0  0  0
   -4.8630    1.8988    2.1816 H   0  0  0  0  0  0  0  0  0  0  0  0
   -3.6276    0.6679    2.1281 H   0  0  0  0  0  0  0  0  0  0  0  0
   -5.2773    0.0731    2.1726 H   0  0  0  0  0  0  0  0  0  0  0  0
   -5.4356   -1.0491    0.0827 H   0  0  0  0  0  0  0  0  0  0  0  0
   -4.3050   -0.5160   -1.1897 H   0  0  0  0  0  0  0  0  0  0  0  0
   -3.5332   -1.3121    1.6854 H   0  0  0  0  0  0  0  0  0  0  0  0
   -3.3098   -2.2340    0.1985 H   0  0  0  0  0  0  0  0  0  0  0  0
   -2.0774    0.5214    0.4391 H   0  0  0  0  0  0  0  0  0  0  0  0
   -1.8053   -0.7000   -0.7969 H   0  0  0  0  0  0  0  0  0  0  0  0
   -1.1259   -1.0967    2.1403 H   0  0  0  0  0  0  0  0  0  0  0  0
    0.0122   -0.6459    0.7767 H   0  0  0  0  0  0  0  0  0  0  0  0
   -0.5983   -2.7993   -0.3131 H   0  0  0  0  0  0  0  0  0  0  0  0
   -1.7184   -3.2142    1.0178 H   0  0  0  0  0  0  0  0  0  0  0  0
    0.4093   -4.3660    1.2760 H   0  0  0  0  0  0  0  0  0  0  0  0
    0.2249   -3.1751    2.6366 H   0  0  0  0  0  0  0  0  0  0  0  0
    2.4952   -3.1286    1.7946 H   0  0  0  0  0  0  0  0  0  0  0  0
    1.6629   -1.5735    1.5243 H   0  0  0  0  0  0  0  0  0  0  0  0
    1.2628   -2.3324   -0.9304 H   0  0  0  0  0  0  0  0  0  0  0  0
    2.1433   -3.8740   -0.4763 H   0  0  0  0  0  0  0  0  0  0  0  0
    3.2822   -1.0192   -0.4545 H   0  0  0  0  0  0  0  0  0  0  0  0
    3.5730   -2.3327   -1.6678 H   0  0  0  0  0  0  0  0  0  0  0  0
    4.5648   -3.7920    0.0515 H   0  0  0  0  0  0  0  0  0  0  0  0
    4.3432   -2.5239    1.2980 H   0  0  0  0  0  0  0  0  0  0  0  0
    5.4828   -3.4911   -1.7225 H   0  0  0  0  0  0  0  0  0  0  0  0
    5.8529   -1.8492   -2.2672 H   0  0  0  0  0  0  0  0  0  0  0  0
    7.1823   -2.8546   -1.5174 H   0  0  0  0  0  0  0  0  0  0  0  0
    5.3191   -0.1943    0.6667 H   0  0  0  0  0  0  0  0  0  0  0  0
    5.0729   -0.3767   -1.1609 H   0  0  0  0  0  0  0  0  0  0  0  0
    7.3408   -0.7070   -1.5110 H   0  0  0  0  0  0  0  0  0  0  0  0
    6.9611    0.9101   -0.6756 H   0  0  0  0  0  0  0  0  0  0  0  0
    8.9395   -1.6411    2.5502 H   0  0  0  0  0  0  0  0  0  0  0  0
    9.7696   -0.0948    2.8728 H   0  0  0  0  0  0  0  0  0  0  0  0
   11.3355   -1.7984    3.2359 H   0  0  0  0  0  0  0  0  0  0  0  0
   11.1113   -2.5345    1.5626 H   0  0  0  0  0  0  0  0  0  0  0  0
   11.9038    0.3189    2.1016 H   0  0  0  0  0  0  0  0  0  0  0  0
   13.0812   -0.9407    1.6379 H   0  0  0  0  0  0  0  0  0  0  0  0
   11.5336   -1.5617   -0.2883 H   0  0  0  0  0  0  0  0  0  0  0  0
   13.5386   -0.4233   -0.7142 H   0  0  0  0  0  0  0  0  0  0  0  0
   12.7707    0.0825   -2.9842 H   0  0  0  0  0  0  0  0  0  0  0  0
   10.4783    2.7226   -3.0610 H   0  0  0  0  0  0  0  0  0  0  0  0
    9.6051    1.3833   -3.8546 H   0  0  0  0  0  0  0  0  0  0  0  0
   11.3389    1.6416   -4.2587 H   0  0  0  0  0  0  0  0  0  0  0  0
    9.5386   -0.7742   -1.8050 H   0  0  0  0  0  0  0  0  0  0  0  0
    9.0064    0.9323   -1.5936 H   0  0  0  0  0  0  0  0  0  0  0  0
    8.3510    1.8174    1.0329 H   0  0  0  0  0  0  0  0  0  0  0  0
    8.5524    4.0852    1.7556 H   0  0  0  0  0  0  0  0  0  0  0  0
   12.6387    3.9878    0.7652 H   0  0  0  0  0  0  0  0  0  0  0  0
   13.3465    2.2812   -0.8477 H   0  0  0  0  0  0  0  0  0  0  0  0
   13.6149    1.4867    0.7337 H   0  0  0  0  0  0  0  0  0  0  0  0
  1  2  1  0
  2  3  2  0
  3  4  1  0
  4  5  1  0
  5  6  1  0
  6  7  1  0
  7  8  1  0
  8  9  2  0
  8 10  1  0
 10 11  2  0
 11 12  1  0
 12 13  1  0
 13 14  1  0
 13 15  1  0
 15 16  1  0
 16 17  1  0
 17 18  1  0
 18 19  1  0
 19 20  1  0
 20 21  2  0
 20 22  1  0
 22 23  1  0
 23 24  1  0
 24 25  1  0
 24 26  1  0
 26 27  1  0
 27 28  1  0
 28 29  1  0
 29 30  1  0
 30 31  1  0
 31 32  1  0
 32 33  1  0
 33 34  1  0
 34 35  1  0
 35 36  1  0
 36 37  1  0
 36 38  1  0
 38 39  1  0
 39 40  1  0
 40 41  2  0
 40 42  1  0
 42 43  1  0
 43 44  1  0
 44 45  1  0
 45 46  1  0
 46 47  1  0
 47 48  1  0
 48 49  2  0
 49 50  1  0
 49 51  1  0
 51 52  1  0
 52 53  1  0
 53 54  1  0
 54 55  2  0
 55 56  1  0
 56 57  2  0
 56 58  1  0
 58 59  1  0
 59 60  1  0
 14  2  1  0
 52 42  1  1
 59 53  2  0
 15  4  1  0
 52 46  1  0
 12  6  2  0
 13 19  1  1
 60 47  1  0
  1 61  1  0
  1 62  1  0
  1 63  1  0
  3 64  1  0
  4 65  1  6
  5 66  1  0
  5 67  1  0
  7 68  1  0
 10 69  1  0
 11 70  1  0
 14 71  1  0
 14 72  1  0
 15 73  1  6
 16 74  1  0
 16 75  1  0
 17 76  1  0
 17 77  1  0
 18 78  1  0
 18 79  1  0
 22 80  1  0
 22 81  1  0
 23 82  1  0
 23 83  1  0
 25 84  1  0
 25 85  1  0
 25 86  1  0
 26 87  1  0
 26 88  1  0
 27 89  1  0
 27 90  1  0
 28 91  1  0
 28 92  1  0
 29 93  1  0
 29 94  1  0
 30 95  1  0
 30 96  1  0
 31 97  1  0
 31 98  1  0
 32 99  1  0
 32100  1  0
 33101  1  0
 33102  1  0
 34103  1  0
 34104  1  0
 35105  1  0
 35106  1  0
 37107  1  0
 37108  1  0
 37109  1  0
 38110  1  0
 38111  1  0
 39112  1  0
 39113  1  0
 43114  1  0
 43115  1  0
 44116  1  0
 44117  1  0
 45118  1  0
 45119  1  0
 46120  1  6
 47121  1  6
 48122  1  0
 50123  1  0
 50124  1  0
 50125  1  0
 51126  1  0
 51127  1  0
 54128  1  0
 55129  1  0
 58130  1  0
 60131  1  0
 60132  1  0
M  END
$$$$
