
     RDKit          3D

 55 58  0  0  0  0  0  0  0  0999 V2000
   -6.0108   -0.7783    1.6600 C   0  0  0  0  0  0  0  0  0  0  0  0
   -5.8715   -0.6528    0.3023 O   0  0  0  0  0  0  0  0  0  0  0  0
   -5.8312    0.6493   -0.1747 C   0  0  0  0  0  0  0  0  0  0  0  0
   -4.6779    1.3701    0.4304 C   0  0  2  0  0  0  0  0  0  0  0  0
   -4.5470    2.7981   -0.0070 C   0  0  0  0  0  0  0  0  0  0  0  0
   -3.1920    3.1338    0.6263 C   0  0  0  0  0  0  0  0  0  0  0  0
   -2.4969    1.7929    0.7338 C   0  0  0  0  0  0  0  0  0  0  0  0
   -3.4017    0.8201    0.1776 N   0  0  0  0  0  0  0  0  0  0  0  0
   -2.9831    0.4984   -1.4239 S   0  0  0  0  0  6  0  0  0  0  0  0
   -2.9483    1.7173   -2.3148 O   0  0  0  0  0  0  0  0  0  0  0  0
   -3.8736   -0.4947   -2.1047 O   0  0  0  0  0  0  0  0  0  0  0  0
   -1.3513   -0.1806   -1.5059 C   0  0  0  0  0  0  0  0  0  0  0  0
   -0.2564    0.6399   -1.7211 C   0  0  0  0  0  0  0  0  0  0  0  0
    1.0306    0.1510   -1.7907 C   0  0  0  0  0  0  0  0  0  0  0  0
    1.2527   -1.2168   -1.6410 C   0  0  0  0  0  0  0  0  0  0  0  0
    0.1464   -2.0078   -1.4283 C   0  0  0  0  0  0  0  0  0  0  0  0
   -1.1382   -1.5260   -1.3579 C   0  0  0  0  0  0  0  0  0  0  0  0
    0.6371   -3.3894   -1.3056 C   0  0  0  0  0  0  0  0  0  0  0  0
   -0.1045   -4.3894   -1.1042 O   0  0  0  0  0  0  0  0  0  0  0  0
    2.0879   -3.3392   -1.4609 C   0  0  0  0  0  0  0  0  0  0  0  0
    2.8549   -4.3289   -1.4155 O   0  0  0  0  0  0  0  0  0  0  0  0
    2.4416   -1.9868   -1.6667 N   0  0  0  0  0  0  0  0  0  0  0  0
    3.7685   -1.4592   -1.8708 C   0  0  0  0  0  0  0  0  0  0  0  0
    4.4267   -1.0952   -0.5912 C   0  0  0  0  0  0  0  0  0  0  0  0
    5.1759   -2.0517    0.0621 C   0  0  0  0  0  0  0  0  0  0  0  0
    5.8052   -1.7427    1.2612 C   0  0  0  0  0  0  0  0  0  0  0  0
    5.6983   -0.4849    1.8234 C   0  0  0  0  0  0  0  0  0  0  0  0
    6.3560   -0.2545    3.0222 O   0  0  0  0  0  0  0  0  0  0  0  0
    6.2876    0.9986    3.6451 C   0  0  0  0  0  0  0  0  0  0  0  0
    4.9513    0.4716    1.1740 C   0  0  0  0  0  0  0  0  0  0  0  0
    4.3289    0.1537   -0.0192 C   0  0  0  0  0  0  0  0  0  0  0  0
   -6.0356   -1.8915    1.8639 H   0  0  0  0  0  0  0  0  0  0  0  0
   -6.9346   -0.3637    2.0790 H   0  0  0  0  0  0  0  0  0  0  0  0
   -5.0934   -0.4560    2.2398 H   0  0  0  0  0  0  0  0  0  0  0  0
   -5.8245    0.6067   -1.2671 H   0  0  0  0  0  0  0  0  0  0  0  0
   -6.7767    1.2040    0.0974 H   0  0  0  0  0  0  0  0  0  0  0  0
   -4.8186    1.4100    1.5431 H   0  0  0  0  0  0  0  0  0  0  0  0
   -4.4503    2.9673   -1.0770 H   0  0  0  0  0  0  0  0  0  0  0  0
   -5.3574    3.4496    0.3814 H   0  0  0  0  0  0  0  0  0  0  0  0
   -2.6271    3.8807    0.0653 H   0  0  0  0  0  0  0  0  0  0  0  0
   -3.4670    3.5456    1.6434 H   0  0  0  0  0  0  0  0  0  0  0  0
   -2.4288    1.5654    1.8202 H   0  0  0  0  0  0  0  0  0  0  0  0
   -1.5009    1.8081    0.2497 H   0  0  0  0  0  0  0  0  0  0  0  0
   -0.3910    1.7225   -1.8483 H   0  0  0  0  0  0  0  0  0  0  0  0
    1.8646    0.8135   -1.9593 H   0  0  0  0  0  0  0  0  0  0  0  0
   -1.9985   -2.1613   -1.1901 H   0  0  0  0  0  0  0  0  0  0  0  0
    4.4225   -2.2036   -2.4128 H   0  0  0  0  0  0  0  0  0  0  0  0
    3.7415   -0.5759   -2.5641 H   0  0  0  0  0  0  0  0  0  0  0  0
    5.2909   -3.0546   -0.3380 H   0  0  0  0  0  0  0  0  0  0  0  0
    6.3858   -2.4997    1.7592 H   0  0  0  0  0  0  0  0  0  0  0  0
    6.8741    0.9945    4.5895 H   0  0  0  0  0  0  0  0  0  0  0  0
    5.2385    1.2581    3.9551 H   0  0  0  0  0  0  0  0  0  0  0  0
    6.6730    1.8054    3.0011 H   0  0  0  0  0  0  0  0  0  0  0  0
    4.8884    1.4439    1.6409 H   0  0  0  0  0  0  0  0  0  0  0  0
    3.7601    0.9152   -0.4948 H   0  0  0  0  0  0  0  0  0  0  0  0
  1  2  1  0
  2  3  1  0
  3  4  1  0
  4  5  1  0
  5  6  1  0
  6  7  1  0
  7  8  1  0
  8  9  1  0
  9 10  2  0
  9 11  2  0
  9 12  1  0
 12 13  2  0
 13 14  1  0
 14 15  2  0
 15 16  1  0
 16 17  2  0
 16 18  1  0
 18 19  2  0
 18 20  1  0
 20 21  2  0
 20 22  1  0
 22 23  1  0
 23 24  1  0
 24 25  2  0
 25 26  1  0
 26 27  2  0
 27 28  1  0
 28 29  1  0
 27 30  1  0
 30 31  2  0
  8  4  1  0
 17 12  1  0
 31 24  1  0
 22 15  1  0
  1 32  1  0
  1 33  1  0
  1 34  1  0
  3 35  1  0
  3 36  1  0
  4 37  1  1
  5 38  1  0
  5 39  1  0
  6 40  1  0
  6 41  1  0
  7 42  1  0
  7 43  1  0
 13 44  1  0
 14 45  1  0
 17 46  1  0
 23 47  1  0
 23 48  1  0
 25 49  1  0
 26 50  1  0
 29 51  1  0
 29 52  1  0
 29 53  1  0
 30 54  1  0
 31 55  1  0
M  END
$$$$
