
     RDKit          3D

 51 54  0  0  0  0  0  0  0  0999 V2000
   -2.1608    0.7672    0.0129 C   0  0  2  0  0  0  0  0  0  0  0  0
   -3.1143    1.3984    0.9414 C   0  0  0  0  0  0  0  0  0  0  0  0
   -4.4510    1.2087    0.2160 C   0  0  0  0  0  0  0  0  0  0  0  0
   -4.2211    0.0549   -0.7202 C   0  0  0  0  0  0  0  0  0  0  0  0
   -5.1217   -0.1933   -1.5071 O   0  0  0  0  0  0  0  0  0  0  0  0
   -2.8968   -0.4889   -0.4121 C   0  0  2  0  0  0  0  0  0  0  0  0
   -2.9743   -1.4930    0.6982 C   0  0  0  0  0  0  0  0  0  0  0  0
   -2.1437   -0.9881   -1.6176 C   0  0  0  0  0  0  0  0  0  0  0  0
   -0.7272   -1.2916   -1.2709 C   0  0  0  0  0  0  0  0  0  0  0  0
   -0.0273   -0.1160   -0.6108 C   0  0  1  0  0  0  0  0  0  0  0  0
   -0.8559    0.3076    0.5952 C   0  0  1  0  0  0  0  0  0  0  0  0
   -0.2480    1.4773    1.3031 C   0  0  0  0  0  0  0  0  0  0  0  0
    1.2322    1.3464    1.5100 C   0  0  0  0  0  0  0  0  0  0  0  0
    1.6941   -0.0618    1.1656 C   0  0  2  0  0  0  0  0  0  0  0  0
    3.1198   -0.2573    1.5296 C   0  0  0  0  0  0  0  0  0  0  0  0
    4.1430   -0.0279    0.5061 C   0  0  2  0  0  0  0  0  0  0  0  0
    5.0526    0.9617    0.9539 O   0  0  0  0  0  0  0  0  0  0  0  0
    3.7239    0.3140   -0.8647 C   0  0  0  0  0  0  0  0  0  0  0  0
    2.2656    0.4897   -1.1005 C   0  0  0  0  0  0  0  0  0  0  0  0
    1.3811   -0.4121   -0.2836 C   0  0  2  0  0  0  0  0  0  0  0  0
    1.8052   -1.8451   -0.4492 C   0  0  0  0  0  0  0  0  0  0  0  0
   -2.0017    1.4040   -0.8689 H   0  0  0  0  0  0  0  0  0  0  0  0
   -2.8608    2.4785    1.0117 H   0  0  0  0  0  0  0  0  0  0  0  0
   -3.1433    0.9783    1.9521 H   0  0  0  0  0  0  0  0  0  0  0  0
   -4.5748    2.1277   -0.4107 H   0  0  0  0  0  0  0  0  0  0  0  0
   -5.2718    1.0441    0.9138 H   0  0  0  0  0  0  0  0  0  0  0  0
   -2.2379   -2.3110    0.6037 H   0  0  0  0  0  0  0  0  0  0  0  0
   -2.9281   -1.0395    1.7054 H   0  0  0  0  0  0  0  0  0  0  0  0
   -3.9815   -2.0015    0.6498 H   0  0  0  0  0  0  0  0  0  0  0  0
   -2.6134   -1.9322   -1.9645 H   0  0  0  0  0  0  0  0  0  0  0  0
   -2.2399   -0.2133   -2.3994 H   0  0  0  0  0  0  0  0  0  0  0  0
   -0.6721   -2.2228   -0.7017 H   0  0  0  0  0  0  0  0  0  0  0  0
   -0.1995   -1.4117   -2.2610 H   0  0  0  0  0  0  0  0  0  0  0  0
   -0.1369    0.7222   -1.3316 H   0  0  0  0  0  0  0  0  0  0  0  0
   -0.9913   -0.5733    1.2436 H   0  0  0  0  0  0  0  0  0  0  0  0
   -0.7876    1.5876    2.2783 H   0  0  0  0  0  0  0  0  0  0  0  0
   -0.4969    2.3990    0.7345 H   0  0  0  0  0  0  0  0  0  0  0  0
    1.8406    2.1310    1.0334 H   0  0  0  0  0  0  0  0  0  0  0  0
    1.4395    1.4479    2.6046 H   0  0  0  0  0  0  0  0  0  0  0  0
    1.0259   -0.7240    1.7784 H   0  0  0  0  0  0  0  0  0  0  0  0
    3.2020   -1.2890    1.9867 H   0  0  0  0  0  0  0  0  0  0  0  0
    3.2930    0.4015    2.4311 H   0  0  0  0  0  0  0  0  0  0  0  0
    4.8134   -0.9379    0.4472 H   0  0  0  0  0  0  0  0  0  0  0  0
    5.9472    0.8235    0.5734 H   0  0  0  0  0  0  0  0  0  0  0  0
    4.2055    1.2639   -1.2358 H   0  0  0  0  0  0  0  0  0  0  0  0
    4.0669   -0.4383   -1.6236 H   0  0  0  0  0  0  0  0  0  0  0  0
    1.8960    1.5338   -0.9190 H   0  0  0  0  0  0  0  0  0  0  0  0
    2.0019    0.2936   -2.1656 H   0  0  0  0  0  0  0  0  0  0  0  0
    2.9007   -1.8741   -0.7214 H   0  0  0  0  0  0  0  0  0  0  0  0
    1.7393   -2.4195    0.5100 H   0  0  0  0  0  0  0  0  0  0  0  0
    1.2898   -2.3991   -1.2373 H   0  0  0  0  0  0  0  0  0  0  0  0
  1  2  1  0
  2  3  1  0
  3  4  1  0
  4  5  2  0
  4  6  1  0
  6  7  1  1
  6  8  1  0
  8  9  1  0
  9 10  1  0
 10 11  1  0
 11 12  1  0
 12 13  1  0
 13 14  1  0
 14 15  1  0
 15 16  1  0
 16 17  1  0
 16 18  1  0
 18 19  1  0
 19 20  1  0
 20 21  1  1
  6  1  1  0
 20 10  1  0
 11  1  1  0
 20 14  1  0
  1 22  1  6
  2 23  1  0
  2 24  1  0
  3 25  1  0
  3 26  1  0
  7 27  1  0
  7 28  1  0
  7 29  1  0
  8 30  1  0
  8 31  1  0
  9 32  1  0
  9 33  1  0
 10 34  1  6
 11 35  1  1
 12 36  1  0
 12 37  1  0
 13 38  1  0
 13 39  1  0
 14 40  1  1
 15 41  1  0
 15 42  1  0
 16 43  1  6
 17 44  1  0
 18 45  1  0
 18 46  1  0
 19 47  1  0
 19 48  1  0
 21 49  1  0
 21 50  1  0
 21 51  1  0
M  END
$$$$
