
     RDKit          3D

 56 58  0  0  0  0  0  0  0  0999 V2000
    6.2488   -1.4068   -1.9657 C   0  0  0  0  0  0  0  0  0  0  0  0
    5.3136   -0.2259   -2.1058 C   0  0  0  0  0  0  0  0  0  0  0  0
    5.1681    0.5527   -0.9490 N   0  0  0  0  0  0  0  0  0  0  0  0
    6.2521    1.3045   -0.4928 C   0  0  0  0  0  0  0  0  0  0  0  0
    5.9713    2.0930    0.7624 C   0  0  0  0  0  0  0  0  0  0  0  0
    3.9482    0.5354   -0.2567 C   0  0  0  0  0  0  0  0  0  0  0  0
    3.6035   -0.7420    0.4225 C   0  0  0  0  0  0  0  0  0  0  0  0
    2.3128   -0.6476    1.1174 N   0  0  0  0  0  0  0  0  0  0  0  0
    1.1172   -0.4037    0.4209 C   0  0  0  0  0  0  0  0  0  0  0  0
    1.2417   -0.2771   -0.8461 O   0  0  0  0  0  0  0  0  0  0  0  0
   -0.1751   -0.2922    1.0221 C   0  0  0  0  0  0  0  0  0  0  0  0
   -0.5920   -0.4840    2.3098 C   0  0  0  0  0  0  0  0  0  0  0  0
    0.2117   -0.9024    3.4762 C   0  0  0  0  0  0  0  0  0  0  0  0
   -1.9249   -0.2380    2.3895 N   0  0  0  0  0  0  0  0  0  0  0  0
   -2.3725    0.1040    1.1910 C   0  0  0  0  0  0  0  0  0  0  0  0
   -3.7704    0.4927    0.9128 C   0  0  0  0  0  0  0  0  0  0  0  0
   -4.5036   -0.2078    0.1104 C   0  0  0  0  0  0  0  0  0  0  0  0
   -4.1845   -1.4182   -0.6303 C   0  0  0  0  0  0  0  0  0  0  0  0
   -3.1003   -2.0678   -0.6173 O   0  0  0  0  0  0  0  0  0  0  0  0
   -5.3497   -1.7396   -1.3838 N   0  0  0  0  0  0  0  0  0  0  0  0
   -6.3719   -0.7696   -1.1301 C   0  0  0  0  0  0  0  0  0  0  0  0
   -7.6737   -0.6302   -1.6074 C   0  0  0  0  0  0  0  0  0  0  0  0
   -8.4867    0.4083   -1.2108 C   0  0  0  0  0  0  0  0  0  0  0  0
   -7.9985    1.3354   -0.3168 C   0  0  0  0  0  0  0  0  0  0  0  0
   -8.7899    2.3586    0.0782 F   0  0  0  0  0  0  0  0  0  0  0  0
   -6.7119    1.2096    0.1636 C   0  0  0  0  0  0  0  0  0  0  0  0
   -5.8895    0.1626   -0.2349 C   0  0  0  0  0  0  0  0  0  0  0  0
   -1.3189    0.0844    0.3120 C   0  0  0  0  0  0  0  0  0  0  0  0
   -1.3566    0.4409   -1.1256 C   0  0  0  0  0  0  0  0  0  0  0  0
    7.2906   -1.1078   -1.7977 H   0  0  0  0  0  0  0  0  0  0  0  0
    5.9380   -2.1250   -1.1987 H   0  0  0  0  0  0  0  0  0  0  0  0
    6.2225   -1.9540   -2.9478 H   0  0  0  0  0  0  0  0  0  0  0  0
    5.7177    0.3965   -2.9349 H   0  0  0  0  0  0  0  0  0  0  0  0
    4.3243   -0.6047   -2.4332 H   0  0  0  0  0  0  0  0  0  0  0  0
    6.4840    2.0871   -1.2766 H   0  0  0  0  0  0  0  0  0  0  0  0
    7.1884    0.7416   -0.2993 H   0  0  0  0  0  0  0  0  0  0  0  0
    6.9129    2.6031    1.0765 H   0  0  0  0  0  0  0  0  0  0  0  0
    5.2282    2.9036    0.6195 H   0  0  0  0  0  0  0  0  0  0  0  0
    5.6814    1.4715    1.6262 H   0  0  0  0  0  0  0  0  0  0  0  0
    3.9810    1.3223    0.5543 H   0  0  0  0  0  0  0  0  0  0  0  0
    3.1495    0.8828   -0.9347 H   0  0  0  0  0  0  0  0  0  0  0  0
    4.3595   -1.0428    1.1531 H   0  0  0  0  0  0  0  0  0  0  0  0
    3.4913   -1.5246   -0.3878 H   0  0  0  0  0  0  0  0  0  0  0  0
    2.3103   -0.7633    2.1736 H   0  0  0  0  0  0  0  0  0  0  0  0
    0.8815   -0.1329    3.8751 H   0  0  0  0  0  0  0  0  0  0  0  0
    0.7003   -1.8961    3.3438 H   0  0  0  0  0  0  0  0  0  0  0  0
   -0.5048   -1.1033    4.3372 H   0  0  0  0  0  0  0  0  0  0  0  0
   -2.5039   -0.3030    3.2377 H   0  0  0  0  0  0  0  0  0  0  0  0
   -4.1526    1.3820    1.4051 H   0  0  0  0  0  0  0  0  0  0  0  0
   -5.4481   -2.5569   -2.0251 H   0  0  0  0  0  0  0  0  0  0  0  0
   -8.0522   -1.3698   -2.3157 H   0  0  0  0  0  0  0  0  0  0  0  0
   -9.5109    0.4920   -1.6055 H   0  0  0  0  0  0  0  0  0  0  0  0
   -6.3044    1.9211    0.8642 H   0  0  0  0  0  0  0  0  0  0  0  0
   -1.0749   -0.3998   -1.7905 H   0  0  0  0  0  0  0  0  0  0  0  0
   -2.3953    0.7260   -1.3865 H   0  0  0  0  0  0  0  0  0  0  0  0
   -0.7328    1.3255   -1.3600 H   0  0  0  0  0  0  0  0  0  0  0  0
  1  2  1  0
  2  3  1  0
  3  4  1  0
  4  5  1  0
  3  6  1  0
  6  7  1  0
  7  8  1  0
  8  9  1  0
  9 10  2  0
  9 11  1  0
 11 12  2  0
 12 13  1  0
 12 14  1  0
 14 15  1  0
 15 16  1  0
 16 17  2  0
 17 18  1  0
 18 19  2  0
 18 20  1  0
 20 21  1  0
 21 22  2  0
 22 23  1  0
 23 24  2  0
 24 25  1  0
 24 26  1  0
 26 27  2  0
 15 28  2  0
 28 29  1  0
 28 11  1  0
 27 17  1  0
 27 21  1  0
  1 30  1  0
  1 31  1  0
  1 32  1  0
  2 33  1  0
  2 34  1  0
  4 35  1  0
  4 36  1  0
  5 37  1  0
  5 38  1  0
  5 39  1  0
  6 40  1  0
  6 41  1  0
  7 42  1  0
  7 43  1  0
  8 44  1  0
 13 45  1  0
 13 46  1  0
 13 47  1  0
 14 48  1  0
 16 49  1  0
 20 50  1  0
 22 51  1  0
 23 52  1  0
 26 53  1  0
 29 54  1  0
 29 55  1  0
 29 56  1  0
M  END
$$$$
