
     RDKit          3D

 53 56  0  0  0  0  0  0  0  0999 V2000
   -5.9391   -1.1532    4.2469 C   0  0  0  0  0  0  0  0  0  0  0  0
   -4.5293   -1.0864    4.0085 O   0  0  0  0  0  0  0  0  0  0  0  0
   -4.1247   -0.6630    2.7305 C   0  0  0  0  0  0  0  0  0  0  0  0
   -2.7892   -0.5698    2.4152 C   0  0  0  0  0  0  0  0  0  0  0  0
   -2.3315   -0.1542    1.1588 C   0  0  0  0  0  0  0  0  0  0  0  0
   -0.8949   -0.0955    0.9442 C   0  0  0  0  0  0  0  0  0  0  0  0
   -0.0802   -0.4078    1.8570 O   0  0  0  0  0  0  0  0  0  0  0  0
   -0.3671    0.3124   -0.2912 N   0  0  0  0  0  0  0  0  0  0  0  0
    1.0353    0.3866   -0.5514 C   0  0  0  0  0  0  0  0  0  0  0  0
    1.6693   -0.7277   -1.0545 C   0  0  0  0  0  0  0  0  0  0  0  0
    3.0427   -0.6953   -1.3229 C   0  0  0  0  0  0  0  0  0  0  0  0
    3.7834    0.4365   -1.0934 C   0  0  0  0  0  0  0  0  0  0  0  0
    5.1643    0.4576   -1.3671 N   0  0  0  0  0  0  0  0  0  0  0  0
    6.1132    0.0875   -0.3746 C   0  0  0  0  0  0  0  0  0  0  0  0
    5.6646   -0.2566    0.7493 O   0  0  0  0  0  0  0  0  0  0  0  0
    7.5390    0.0998   -0.6281 C   0  0  0  0  0  0  0  0  0  0  0  0
    8.4146   -0.2662    0.3627 C   0  0  0  0  0  0  0  0  0  0  0  0
    9.7765   -0.2754    0.1853 C   0  0  0  0  0  0  0  0  0  0  0  0
   10.2838    0.0990   -1.0406 C   0  0  0  0  0  0  0  0  0  0  0  0
    9.3717    0.4620   -2.0171 C   0  0  0  0  0  0  0  0  0  0  0  0
    8.0436    0.4595   -1.8083 N   0  0  0  0  0  0  0  0  0  0  0  0
    3.1406    1.5405   -0.5919 C   0  0  0  0  0  0  0  0  0  0  0  0
    1.7701    1.5210   -0.3198 C   0  0  0  0  0  0  0  0  0  0  0  0
   -3.2793    0.1640    0.2322 C   0  0  0  0  0  0  0  0  0  0  0  0
   -4.6439    0.0888    0.4943 C   0  0  0  0  0  0  0  0  0  0  0  0
   -5.6438    0.4323   -0.5067 C   0  0  0  0  0  0  0  0  0  0  0  0
   -5.5658    0.0047   -1.8106 C   0  0  0  0  0  0  0  0  0  0  0  0
   -6.5107    0.3396   -2.7210 N   0  0  0  0  0  0  0  0  0  0  0  0
   -7.5365    1.0956   -2.3563 C   0  0  0  0  0  0  0  0  0  0  0  0
   -8.4120    1.3991   -3.2231 O   0  0  0  0  0  0  0  0  0  0  0  0
   -7.6282    1.5222   -1.0857 N   0  0  0  0  0  0  0  0  0  0  0  0
   -6.7166    1.2183   -0.1412 C   0  0  0  0  0  0  0  0  0  0  0  0
   -6.8385    1.6368    1.0352 O   0  0  0  0  0  0  0  0  0  0  0  0
   -5.0296   -0.3267    1.7482 C   0  0  0  0  0  0  0  0  0  0  0  0
   -6.4023   -1.8843    3.5602 H   0  0  0  0  0  0  0  0  0  0  0  0
   -6.1542   -1.3437    5.3078 H   0  0  0  0  0  0  0  0  0  0  0  0
   -6.4152   -0.1569    4.0115 H   0  0  0  0  0  0  0  0  0  0  0  0
   -2.0545   -0.8270    3.1652 H   0  0  0  0  0  0  0  0  0  0  0  0
   -1.0072    0.5776   -1.0680 H   0  0  0  0  0  0  0  0  0  0  0  0
    1.1145   -1.6427   -1.2490 H   0  0  0  0  0  0  0  0  0  0  0  0
    3.5156   -1.5843   -1.7176 H   0  0  0  0  0  0  0  0  0  0  0  0
    5.5268    0.7437   -2.3001 H   0  0  0  0  0  0  0  0  0  0  0  0
    7.9954   -0.5572    1.3195 H   0  0  0  0  0  0  0  0  0  0  0  0
   10.4390   -0.5685    0.9845 H   0  0  0  0  0  0  0  0  0  0  0  0
   11.3574    0.1020   -1.2122 H   0  0  0  0  0  0  0  0  0  0  0  0
    9.7829    0.7548   -2.9779 H   0  0  0  0  0  0  0  0  0  0  0  0
    3.7269    2.4303   -0.4123 H   0  0  0  0  0  0  0  0  0  0  0  0
    1.2990    2.4130    0.0756 H   0  0  0  0  0  0  0  0  0  0  0  0
   -2.9808    0.4876   -0.7445 H   0  0  0  0  0  0  0  0  0  0  0  0
   -4.7188   -0.6109   -2.0817 H   0  0  0  0  0  0  0  0  0  0  0  0
   -6.4375    0.0066   -3.7090 H   0  0  0  0  0  0  0  0  0  0  0  0
   -8.4443    2.1145   -0.8272 H   0  0  0  0  0  0  0  0  0  0  0  0
   -6.0949   -0.4053    2.0124 H   0  0  0  0  0  0  0  0  0  0  0  0
  1  2  1  0
  2  3  1  0
  3  4  2  0
  4  5  1  0
  5  6  1  0
  6  7  2  0
  6  8  1  0
  8  9  1  0
  9 10  2  0
 10 11  1  0
 11 12  2  0
 12 13  1  0
 13 14  1  0
 14 15  2  0
 14 16  1  0
 16 17  2  0
 17 18  1  0
 18 19  2  0
 19 20  1  0
 20 21  2  0
 12 22  1  0
 22 23  2  0
  5 24  2  0
 24 25  1  0
 25 26  1  0
 26 27  2  0
 27 28  1  0
 28 29  1  0
 29 30  2  0
 29 31  1  0
 31 32  1  0
 32 33  2  0
 25 34  2  0
 34  3  1  0
 23  9  1  0
 32 26  1  0
 21 16  1  0
  1 35  1  0
  1 36  1  0
  1 37  1  0
  4 38  1  0
  8 39  1  0
 10 40  1  0
 11 41  1  0
 13 42  1  0
 17 43  1  0
 18 44  1  0
 19 45  1  0
 20 46  1  0
 22 47  1  0
 23 48  1  0
 24 49  1  0
 27 50  1  0
 28 51  1  0
 31 52  1  0
 34 53  1  0
M  END
$$$$
