
     RDKit          3D

 47 50  0  0  0  0  0  0  0  0999 V2000
    1.8262    0.7474   -2.8128 O   0  0  0  0  0  0  0  0  0  0  0  0
    1.8997    0.1282   -1.7214 C   0  0  0  0  0  0  0  0  0  0  0  0
    3.1618    0.2223   -1.0082 C   0  0  0  0  0  0  0  0  0  0  0  0
    4.3184   -0.2713   -1.5964 C   0  0  0  0  0  0  0  0  0  0  0  0
    5.5388   -0.1933   -0.9598 C   0  0  0  0  0  0  0  0  0  0  0  0
    5.6789    0.3750    0.2890 C   0  0  0  0  0  0  0  0  0  0  0  0
    7.0213    0.4532    0.9517 C   0  0  0  0  0  0  0  0  0  0  0  0
    7.9366    1.0868    0.0959 F   0  0  0  0  0  0  0  0  0  0  0  0
    6.9927    1.1981    2.0938 F   0  0  0  0  0  0  0  0  0  0  0  0
    7.5396   -0.8068    1.1768 F   0  0  0  0  0  0  0  0  0  0  0  0
    4.5352    0.8673    0.8808 C   0  0  0  0  0  0  0  0  0  0  0  0
    3.3056    0.7896    0.2406 C   0  0  0  0  0  0  0  0  0  0  0  0
    0.7779   -0.5976   -1.2714 N   0  0  0  0  0  0  0  0  0  0  0  0
    0.8275   -1.3299   -0.0296 C   0  0  0  0  0  0  0  0  0  0  0  0
   -0.2940   -0.9974    0.8819 C   0  0  0  0  0  0  0  0  0  0  0  0
   -1.5795   -0.5831    0.2675 C   0  0  0  0  0  0  0  0  0  0  0  0
   -2.5372   -1.7544    0.2040 C   0  0  0  0  0  0  0  0  0  0  0  0
   -3.9715   -1.4078    0.1798 C   0  0  0  0  0  0  0  0  0  0  0  0
   -4.3568   -0.0288    0.4548 C   0  0  0  0  0  0  0  0  0  0  0  0
   -5.6577    0.4257    0.2569 C   0  0  0  0  0  0  0  0  0  0  0  0
   -5.9781    1.7269    0.5365 C   0  0  0  0  0  0  0  0  0  0  0  0
   -5.0663    2.6449    1.0166 C   0  0  0  0  0  0  0  0  0  0  0  0
   -3.7779    2.2000    1.2136 C   0  0  0  0  0  0  0  0  0  0  0  0
   -3.4475    0.8774    0.9304 C   0  0  0  0  0  0  0  0  0  0  0  0
   -2.1350    0.4285    1.1318 O   0  0  0  0  0  0  0  0  0  0  0  0
   -1.4825    0.0465   -1.0956 C   0  0  0  0  0  0  0  0  0  0  0  0
   -0.4776   -0.6528   -1.9873 C   0  0  0  0  0  0  0  0  0  0  0  0
    4.2113   -0.7220   -2.5828 H   0  0  0  0  0  0  0  0  0  0  0  0
    6.4458   -0.5850   -1.4278 H   0  0  0  0  0  0  0  0  0  0  0  0
    4.5916    1.3193    1.8517 H   0  0  0  0  0  0  0  0  0  0  0  0
    2.3954    1.1831    0.7188 H   0  0  0  0  0  0  0  0  0  0  0  0
    0.8066   -2.4383   -0.2545 H   0  0  0  0  0  0  0  0  0  0  0  0
    1.7871   -1.1341    0.4972 H   0  0  0  0  0  0  0  0  0  0  0  0
   -0.5130   -1.9193    1.5043 H   0  0  0  0  0  0  0  0  0  0  0  0
    0.0528   -0.1983    1.5793 H   0  0  0  0  0  0  0  0  0  0  0  0
   -2.2673   -2.4111   -0.6581 H   0  0  0  0  0  0  0  0  0  0  0  0
   -2.3549   -2.3921    1.1188 H   0  0  0  0  0  0  0  0  0  0  0  0
   -4.5956   -2.1004    0.8350 H   0  0  0  0  0  0  0  0  0  0  0  0
   -4.3645   -1.6433   -0.8566 H   0  0  0  0  0  0  0  0  0  0  0  0
   -6.3901   -0.2832   -0.1219 H   0  0  0  0  0  0  0  0  0  0  0  0
   -7.0119    2.0331    0.3631 H   0  0  0  0  0  0  0  0  0  0  0  0
   -5.3724    3.6630    1.2211 H   0  0  0  0  0  0  0  0  0  0  0  0
   -3.0133    2.8579    1.5866 H   0  0  0  0  0  0  0  0  0  0  0  0
   -1.2922    1.1115   -0.9821 H   0  0  0  0  0  0  0  0  0  0  0  0
   -2.4661   -0.0520   -1.6006 H   0  0  0  0  0  0  0  0  0  0  0  0
   -0.7738   -1.7183   -2.0348 H   0  0  0  0  0  0  0  0  0  0  0  0
   -0.4742   -0.1649   -2.9587 H   0  0  0  0  0  0  0  0  0  0  0  0
  1  2  2  0
  2  3  1  0
  3  4  2  0
  4  5  1  0
  5  6  2  0
  6  7  1  0
  7  8  1  0
  7  9  1  0
  7 10  1  0
  6 11  1  0
 11 12  2  0
  2 13  1  0
 13 14  1  0
 14 15  1  0
 15 16  1  0
 16 17  1  0
 17 18  1  0
 18 19  1  0
 19 20  2  0
 20 21  1  0
 21 22  2  0
 22 23  1  0
 23 24  2  0
 24 25  1  0
 16 26  1  0
 26 27  1  0
 12  3  1  0
 27 13  1  0
 25 16  1  0
 24 19  1  0
  4 28  1  0
  5 29  1  0
 11 30  1  0
 12 31  1  0
 14 32  1  0
 14 33  1  0
 15 34  1  0
 15 35  1  0
 17 36  1  0
 17 37  1  0
 18 38  1  0
 18 39  1  0
 20 40  1  0
 21 41  1  0
 22 42  1  0
 23 43  1  0
 26 44  1  0
 26 45  1  0
 27 46  1  0
 27 47  1  0
M  END
$$$$
