
     RDKit          3D

 54 58  0  0  0  0  0  0  0  0999 V2000
   -1.4211   -2.1616    2.2589 C   0  0  0  0  0  0  0  0  0  0  0  0
   -2.4921   -1.9125    1.2893 C   0  0  0  0  0  0  0  0  0  0  0  0
   -3.8142   -2.0484    1.6960 C   0  0  0  0  0  0  0  0  0  0  0  0
   -4.8419   -1.8324    0.8135 C   0  0  0  0  0  0  0  0  0  0  0  0
   -4.5437   -1.4782   -0.4825 C   0  0  0  0  0  0  0  0  0  0  0  0
   -3.2292   -1.3458   -0.8765 C   0  0  0  0  0  0  0  0  0  0  0  0
   -2.1837   -1.5559   -0.0147 C   0  0  0  0  0  0  0  0  0  0  0  0
   -0.8393   -1.4222   -0.4354 N   0  0  0  0  0  0  0  0  0  0  0  0
   -0.2458   -2.3992   -1.1412 N   0  0  0  0  0  0  0  0  0  0  0  0
    1.0174   -2.0821   -1.4060 C   0  0  0  0  0  0  0  0  0  0  0  0
    2.0138   -2.8848   -2.1595 C   0  0  0  0  0  0  0  0  0  0  0  0
    1.2110   -0.8434   -0.8324 C   0  0  0  0  0  0  0  0  0  0  0  0
    2.4568   -0.0973   -0.8665 C   0  0  0  0  0  0  0  0  0  0  0  0
    2.6787    0.7696   -1.9074 C   0  0  0  0  0  0  0  0  0  0  0  0
    3.8476    1.4985   -1.9810 C   0  0  0  0  0  0  0  0  0  0  0  0
    4.0065    2.3342   -3.0357 F   0  0  0  0  0  0  0  0  0  0  0  0
    4.7886    1.3419   -0.9907 C   0  0  0  0  0  0  0  0  0  0  0  0
    5.9275    2.0624   -1.0774 N   0  0  0  0  0  0  0  0  0  0  0  0
    6.9010    1.9629   -0.1424 C   0  0  0  0  0  0  0  0  0  0  0  0
    6.7084    1.1042    0.9120 C   0  0  0  0  0  0  0  0  0  0  0  0
    5.5611    0.3879    0.9862 N   0  0  0  0  0  0  0  0  0  0  0  0
    4.5999    0.4837    0.0661 C   0  0  0  0  0  0  0  0  0  0  0  0
    3.4183   -0.2288    0.1051 C   0  0  0  0  0  0  0  0  0  0  0  0
    0.0287   -0.4269   -0.2172 C   0  0  0  0  0  0  0  0  0  0  0  0
   -0.1814    0.7836    0.4445 N   0  0  0  0  0  0  0  0  0  0  0  0
   -1.4034    1.3555    0.8348 C   0  0  0  0  0  0  0  0  0  0  0  0
   -1.6685    1.4928    2.1893 C   0  0  0  0  0  0  0  0  0  0  0  0
   -2.8147    2.0554    2.6941 C   0  0  0  0  0  0  0  0  0  0  0  0
   -3.7471    2.5051    1.7823 C   0  0  0  0  0  0  0  0  0  0  0  0
   -3.5193    2.3871    0.4316 C   0  0  0  0  0  0  0  0  0  0  0  0
   -2.3307    1.8051   -0.0581 C   0  0  0  0  0  0  0  0  0  0  0  0
   -2.0872    1.7403   -1.4799 C   0  0  0  0  0  0  0  0  0  0  0  0
   -1.0366    1.2982   -1.9653 O   0  0  0  0  0  0  0  0  0  0  0  0
   -3.0683    2.1906   -2.3505 O   0  0  0  0  0  0  0  0  0  0  0  0
   -0.5809   -2.7551    1.8142 H   0  0  0  0  0  0  0  0  0  0  0  0
   -1.0572   -1.2557    2.7728 H   0  0  0  0  0  0  0  0  0  0  0  0
   -1.8162   -2.8224    3.0856 H   0  0  0  0  0  0  0  0  0  0  0  0
   -4.0031   -2.3285    2.7279 H   0  0  0  0  0  0  0  0  0  0  0  0
   -5.8872   -1.9425    1.1479 H   0  0  0  0  0  0  0  0  0  0  0  0
   -5.3836   -1.3147   -1.1537 H   0  0  0  0  0  0  0  0  0  0  0  0
   -3.0473   -1.0589   -1.9271 H   0  0  0  0  0  0  0  0  0  0  0  0
    1.4408   -3.5064   -2.8824 H   0  0  0  0  0  0  0  0  0  0  0  0
    2.6424   -3.5170   -1.4962 H   0  0  0  0  0  0  0  0  0  0  0  0
    2.6705   -2.1726   -2.7126 H   0  0  0  0  0  0  0  0  0  0  0  0
    1.9447    0.8834   -2.6668 H   0  0  0  0  0  0  0  0  0  0  0  0
    7.7742    2.5679   -0.2822 H   0  0  0  0  0  0  0  0  0  0  0  0
    7.4895    1.0243    1.6640 H   0  0  0  0  0  0  0  0  0  0  0  0
    3.2730   -0.9087    0.9447 H   0  0  0  0  0  0  0  0  0  0  0  0
    0.7156    1.3336    0.6800 H   0  0  0  0  0  0  0  0  0  0  0  0
   -0.9296    1.1361    2.9020 H   0  0  0  0  0  0  0  0  0  0  0  0
   -3.0071    2.1566    3.7611 H   0  0  0  0  0  0  0  0  0  0  0  0
   -4.6530    2.9493    2.1862 H   0  0  0  0  0  0  0  0  0  0  0  0
   -4.2298    2.7293   -0.2971 H   0  0  0  0  0  0  0  0  0  0  0  0
   -3.0528    1.9623   -3.3518 H   0  0  0  0  0  0  0  0  0  0  0  0
  1  2  1  0
  2  3  2  0
  3  4  1  0
  4  5  2  0
  5  6  1  0
  6  7  2  0
  7  8  1  0
  8  9  1  0
  9 10  2  0
 10 11  1  0
 10 12  1  0
 12 13  1  0
 13 14  2  0
 14 15  1  0
 15 16  1  0
 15 17  2  0
 17 18  1  0
 18 19  2  0
 19 20  1  0
 20 21  2  0
 21 22  1  0
 22 23  2  0
 12 24  2  0
 24 25  1  0
 25 26  1  0
 26 27  2  0
 27 28  1  0
 28 29  2  0
 29 30  1  0
 30 31  2  0
 31 32  1  0
 32 33  2  0
 32 34  1  0
  7  2  1  0
 24  8  1  0
 31 26  1  0
 23 13  1  0
 22 17  1  0
  1 35  1  0
  1 36  1  0
  1 37  1  0
  3 38  1  0
  4 39  1  0
  5 40  1  0
  6 41  1  0
 11 42  1  0
 11 43  1  0
 11 44  1  0
 14 45  1  0
 19 46  1  0
 20 47  1  0
 23 48  1  0
 25 49  1  0
 27 50  1  0
 28 51  1  0
 29 52  1  0
 30 53  1  0
 34 54  1  0
M  END
$$$$
