
     RDKit          3D

 94 99  0  0  0  0  0  0  0  0999 V2000
    8.9543    4.7889    1.9618 C   0  0  0  0  0  0  0  0  0  0  0  0
    8.6347    3.6422    1.5963 C   0  0  0  0  0  0  0  0  0  0  0  0
    8.2706    2.2372    1.1471 C   0  0  0  0  0  0  0  0  0  0  0  0
    7.2740    1.5367    1.6705 C   0  0  0  0  0  0  0  0  0  0  0  0
    7.1792    0.1722    1.4918 C   0  0  0  0  0  0  0  0  0  0  0  0
    6.0738   -0.5424    1.9754 N   0  0  0  0  0  0  0  0  0  0  0  0
    4.7266   -0.0434    1.9130 C   0  0  0  0  0  0  0  0  0  0  0  0
    4.3887    1.0874    2.5586 N   0  0  0  0  0  0  0  0  0  0  0  0
    3.1567    1.6048    2.4168 C   0  0  0  0  0  0  0  0  0  0  0  0
    2.2171    0.9970    1.6185 C   0  0  0  0  0  0  0  0  0  0  0  0
    2.5494   -0.1641    0.9576 C   0  0  0  0  0  0  0  0  0  0  0  0
    1.6899   -0.8450    0.1583 O   0  0  0  0  0  0  0  0  0  0  0  0
    0.4267   -0.5209   -0.2344 C   0  0  0  0  0  0  0  0  0  0  0  0
   -0.6715   -1.1932    0.1656 C   0  0  0  0  0  0  0  0  0  0  0  0
   -1.9492   -0.8883   -0.2046 C   0  0  0  0  0  0  0  0  0  0  0  0
   -2.1778    0.1970   -1.0664 C   0  0  0  0  0  0  0  0  0  0  0  0
   -3.4792    0.4932   -1.4432 N   0  0  0  0  0  0  0  0  0  0  0  0
   -4.6588   -0.1447   -1.0839 C   0  0  0  0  0  0  0  0  0  0  0  0
   -4.6542   -1.1280   -0.3404 O   0  0  0  0  0  0  0  0  0  0  0  0
   -6.0032    0.2404   -1.5356 N   0  0  0  0  0  0  0  0  0  0  0  0
   -7.0269   -0.6242   -1.0877 C   0  0  0  0  0  0  0  0  0  0  0  0
   -6.9338   -2.0144   -1.3106 C   0  0  0  0  0  0  0  0  0  0  0  0
   -8.0208   -2.5935   -0.7308 C   0  0  0  0  0  0  0  0  0  0  0  0
   -8.2586   -4.0520   -0.6983 C   0  0  0  0  0  0  0  0  0  0  0  0
   -9.0471   -4.4616   -1.8885 C   0  0  0  0  0  0  0  0  0  0  0  0
   -8.9598   -4.4544    0.5910 C   0  0  0  0  0  0  0  0  0  0  0  0
   -6.8893   -4.7608   -0.7362 C   0  0  0  0  0  0  0  0  0  0  0  0
   -8.7301   -1.6003   -0.2008 N   0  0  0  0  0  0  0  0  0  0  0  0
   -8.1378   -0.4108   -0.4079 N   0  0  0  0  0  0  0  0  0  0  0  0
   -8.6844    0.7958    0.0384 C   0  0  0  0  0  0  0  0  0  0  0  0
  -10.0180    0.7081    0.6748 C   0  0  0  0  0  0  0  0  0  0  0  0
  -10.4544    1.9098    1.1173 C   0  0  0  0  0  0  0  0  0  0  0  0
   -9.9831    3.1350    1.1290 C   0  0  0  0  0  0  0  0  0  0  0  0
  -10.5099    4.2859    1.6175 O   0  0  0  0  0  0  0  0  0  0  0  0
   -9.7965    5.5382    1.5012 C   0  0  0  0  0  0  0  0  0  0  0  0
   -8.6437    3.2322    0.4934 C   0  0  0  0  0  0  0  0  0  0  0  0
   -8.2250    2.0318    0.0529 C   0  0  0  0  0  0  0  0  0  0  0  0
   -1.0811    0.8900   -1.4853 C   0  0  0  0  0  0  0  0  0  0  0  0
   -1.2499    1.9745   -2.3484 C   0  0  0  0  0  0  0  0  0  0  0  0
   -0.1493    2.6977   -2.7839 C   0  0  0  0  0  0  0  0  0  0  0  0
    1.1036    2.3784   -2.4032 C   0  0  0  0  0  0  0  0  0  0  0  0
    1.3021    1.2793   -1.5305 C   0  0  0  0  0  0  0  0  0  0  0  0
    0.2231    0.5662   -1.0942 C   0  0  0  0  0  0  0  0  0  0  0  0
    3.8532   -0.6738    1.1298 N   0  0  0  0  0  0  0  0  0  0  0  0
    8.1821   -0.4209    0.7448 C   0  0  0  0  0  0  0  0  0  0  0  0
    9.2235    0.2565    0.1876 C   0  0  0  0  0  0  0  0  0  0  0  0
   10.3282   -0.4471   -0.4586 C   0  0  0  0  0  0  0  0  0  0  0  0
   10.9328    0.1199   -1.3828 O   0  0  0  0  0  0  0  0  0  0  0  0
   10.6888   -1.7443   -0.0040 N   0  0  0  0  0  0  0  0  0  0  0  0
   11.8040   -2.5175   -0.4680 C   0  0  0  0  0  0  0  0  0  0  0  0
   13.1280   -1.8085   -0.2205 C   0  0  0  0  0  0  0  0  0  0  0  0
   13.1962   -0.5971   -0.8839 O   0  0  0  0  0  0  0  0  0  0  0  0
   14.4036    0.0195   -0.6651 C   0  0  0  0  0  0  0  0  0  0  0  0
    9.3007    1.6158    0.3713 C   0  0  0  0  0  0  0  0  0  0  0  0
    9.2436    5.7635    2.2818 H   0  0  0  0  0  0  0  0  0  0  0  0
    6.5192    2.0698    2.2835 H   0  0  0  0  0  0  0  0  0  0  0  0
    6.2259   -1.4815    2.3516 H   0  0  0  0  0  0  0  0  0  0  0  0
    2.8458    2.5225    2.9234 H   0  0  0  0  0  0  0  0  0  0  0  0
    1.2280    1.4050    1.4917 H   0  0  0  0  0  0  0  0  0  0  0  0
   -0.4723   -2.0535    0.8490 H   0  0  0  0  0  0  0  0  0  0  0  0
   -2.7342   -1.4485    0.1896 H   0  0  0  0  0  0  0  0  0  0  0  0
   -3.5978    1.3621   -2.0936 H   0  0  0  0  0  0  0  0  0  0  0  0
   -6.0964    1.0497   -2.1327 H   0  0  0  0  0  0  0  0  0  0  0  0
   -6.1599   -2.5221   -1.8608 H   0  0  0  0  0  0  0  0  0  0  0  0
  -10.1467   -4.3677   -1.7205 H   0  0  0  0  0  0  0  0  0  0  0  0
   -8.7724   -5.5320   -2.1575 H   0  0  0  0  0  0  0  0  0  0  0  0
   -8.7599   -3.9017   -2.8145 H   0  0  0  0  0  0  0  0  0  0  0  0
   -8.9559   -5.5592    0.6646 H   0  0  0  0  0  0  0  0  0  0  0  0
   -9.9536   -4.0323    0.6396 H   0  0  0  0  0  0  0  0  0  0  0  0
   -8.3427   -4.0397    1.4324 H   0  0  0  0  0  0  0  0  0  0  0  0
   -7.0662   -5.8492   -0.6199 H   0  0  0  0  0  0  0  0  0  0  0  0
   -6.3888   -4.5178   -1.6871 H   0  0  0  0  0  0  0  0  0  0  0  0
   -6.3443   -4.3387    0.1613 H   0  0  0  0  0  0  0  0  0  0  0  0
  -10.4943   -0.2114    0.7593 H   0  0  0  0  0  0  0  0  0  0  0  0
  -11.5301    1.7787    1.5758 H   0  0  0  0  0  0  0  0  0  0  0  0
  -10.3246    6.3333    2.0352 H   0  0  0  0  0  0  0  0  0  0  0  0
   -8.8290    5.3438    2.0343 H   0  0  0  0  0  0  0  0  0  0  0  0
   -9.6014    5.7922    0.4577 H   0  0  0  0  0  0  0  0  0  0  0  0
   -8.2027    4.1548    0.4463 H   0  0  0  0  0  0  0  0  0  0  0  0
   -7.1650    2.1257   -0.4400 H   0  0  0  0  0  0  0  0  0  0  0  0
   -2.1950    2.2863   -2.7389 H   0  0  0  0  0  0  0  0  0  0  0  0
   -0.3096    3.5596   -3.4730 H   0  0  0  0  0  0  0  0  0  0  0  0
    2.0176    2.8975   -2.6579 H   0  0  0  0  0  0  0  0  0  0  0  0
    2.3022    1.0269   -1.2618 H   0  0  0  0  0  0  0  0  0  0  0  0
    8.1118   -1.4828    0.6047 H   0  0  0  0  0  0  0  0  0  0  0  0
   10.0286   -2.1428    0.7488 H   0  0  0  0  0  0  0  0  0  0  0  0
   11.7229   -2.9432   -1.4754 H   0  0  0  0  0  0  0  0  0  0  0  0
   11.8644   -3.4190    0.2239 H   0  0  0  0  0  0  0  0  0  0  0  0
   14.0097   -2.4387   -0.2702 H   0  0  0  0  0  0  0  0  0  0  0  0
   13.0607   -1.5247    0.8963 H   0  0  0  0  0  0  0  0  0  0  0  0
   14.5437    0.2608    0.4371 H   0  0  0  0  0  0  0  0  0  0  0  0
   14.6342    0.9339   -1.1917 H   0  0  0  0  0  0  0  0  0  0  0  0
   15.1665   -0.8283   -0.8519 H   0  0  0  0  0  0  0  0  0  0  0  0
   10.0995    2.1884   -0.0124 H   0  0  0  0  0  0  0  0  0  0  0  0
  1  2  3  0
  2  3  1  0
  3  4  2  0
  4  5  1  0
  5  6  1  0
  6  7  1  0
  7  8  2  0
  8  9  1  0
  9 10  2  0
 10 11  1  0
 11 12  1  0
 12 13  1  0
 13 14  2  0
 14 15  1  0
 15 16  2  0
 16 17  1  0
 17 18  1  0
 18 19  2  0
 18 20  1  0
 20 21  1  0
 21 22  2  0
 22 23  1  0
 23 24  1  0
 24 25  1  0
 24 26  1  0
 24 27  1  0
 23 28  2  0
 28 29  1  0
 29 30  1  0
 30 31  2  0
 31 32  1  0
 32 33  2  0
 33 34  1  0
 34 35  1  0
 33 36  1  0
 36 37  2  0
 16 38  1  0
 38 39  2  0
 39 40  1  0
 40 41  2  0
 41 42  1  0
 42 43  2  0
 11 44  2  0
  5 45  2  0
 45 46  1  0
 46 47  1  0
 47 48  2  0
 47 49  1  0
 49 50  1  0
 50 51  1  0
 51 52  1  0
 52 53  1  0
 46 54  2  0
 54  3  1  0
 44  7  1  0
 43 13  1  0
 29 21  1  0
 37 30  1  0
 43 38  1  0
  1 55  1  0
  4 56  1  0
  6 57  1  0
  9 58  1  0
 10 59  1  0
 14 60  1  0
 15 61  1  0
 17 62  1  0
 20 63  1  0
 22 64  1  0
 25 65  1  0
 25 66  1  0
 25 67  1  0
 26 68  1  0
 26 69  1  0
 26 70  1  0
 27 71  1  0
 27 72  1  0
 27 73  1  0
 31 74  1  0
 32 75  1  0
 35 76  1  0
 35 77  1  0
 35 78  1  0
 36 79  1  0
 37 80  1  0
 39 81  1  0
 40 82  1  0
 41 83  1  0
 42 84  1  0
 45 85  1  0
 49 86  1  0
 50 87  1  0
 50 88  1  0
 51 89  1  0
 51 90  1  0
 53 91  1  0
 53 92  1  0
 53 93  1  0
 54 94  1  0
M  END
$$$$
