
     RDKit          3D

 50 53  0  0  0  0  0  0  0  0999 V2000
    4.1510    1.2406    1.1946 C   0  0  0  0  0  0  0  0  0  0  0  0
    5.2893    0.6010    0.4973 C   0  0  0  0  0  0  0  0  0  0  0  0
    6.6325    0.9905    0.5790 C   0  0  0  0  0  0  0  0  0  0  0  0
    7.3668    0.2153   -0.2146 N   0  0  0  0  0  0  0  0  0  0  0  0
    6.6043   -0.6837   -0.8355 C   0  0  0  0  0  0  0  0  0  0  0  0
    6.8150   -1.6547   -1.7268 N   0  0  0  0  0  0  0  0  0  0  0  0
    5.8116   -2.4023   -2.2003 C   0  0  0  0  0  0  0  0  0  0  0  0
    4.5478   -2.2331   -1.8189 N   0  0  0  0  0  0  0  0  0  0  0  0
    4.2823   -1.2443   -0.8997 C   0  0  0  0  0  0  0  0  0  0  0  0
    2.8798   -1.0703   -0.4845 C   0  0  0  0  0  0  0  0  0  0  0  0
    2.4452   -1.1737    0.8050 C   0  0  0  0  0  0  0  0  0  0  0  0
    1.1225   -0.9854    1.1128 C   0  0  0  0  0  0  0  0  0  0  0  0
    0.1513   -0.6823    0.1502 C   0  0  0  0  0  0  0  0  0  0  0  0
   -1.1819   -0.5057    0.5558 N   0  0  0  0  0  0  0  0  0  0  0  0
   -2.2798   -0.2023   -0.2490 C   0  0  0  0  0  0  0  0  0  0  0  0
   -2.1275   -0.0598   -1.4775 O   0  0  0  0  0  0  0  0  0  0  0  0
   -3.6042   -0.0451    0.2927 N   0  0  0  0  0  0  0  0  0  0  0  0
   -3.9115   -0.1554    1.6833 C   0  0  0  0  0  0  0  0  0  0  0  0
   -3.8333    1.1272    2.4480 C   0  0  0  0  0  0  0  0  0  0  0  0
   -2.5794    1.7142    2.4188 O   0  0  0  0  0  0  0  0  0  0  0  0
   -4.6826    0.2470   -0.6021 C   0  0  0  0  0  0  0  0  0  0  0  0
   -4.9612    1.5816   -0.8543 C   0  0  0  0  0  0  0  0  0  0  0  0
   -6.0011    1.8886   -1.7177 C   0  0  0  0  0  0  0  0  0  0  0  0
   -6.7320    0.8782   -2.3041 C   0  0  0  0  0  0  0  0  0  0  0  0
   -6.4247   -0.4228   -2.0288 C   0  0  0  0  0  0  0  0  0  0  0  0
   -7.3759   -1.6859   -2.7928 Cl  0  0  0  0  0  0  0  0  0  0  0  0
   -5.3990   -0.7737   -1.1764 C   0  0  0  0  0  0  0  0  0  0  0  0
    0.6268   -0.5883   -1.1262 C   0  0  0  0  0  0  0  0  0  0  0  0
    1.9548   -0.7736   -1.4610 C   0  0  0  0  0  0  0  0  0  0  0  0
    5.2865   -0.4624   -0.4008 C   0  0  0  0  0  0  0  0  0  0  0  0
    3.2739    1.4380    0.5612 H   0  0  0  0  0  0  0  0  0  0  0  0
    4.5473    2.2711    1.4952 H   0  0  0  0  0  0  0  0  0  0  0  0
    3.9139    0.7729    2.1657 H   0  0  0  0  0  0  0  0  0  0  0  0
    6.9620    1.8136    1.2170 H   0  0  0  0  0  0  0  0  0  0  0  0
    8.4146    0.2816   -0.3528 H   0  0  0  0  0  0  0  0  0  0  0  0
    5.9934   -3.1994   -2.9354 H   0  0  0  0  0  0  0  0  0  0  0  0
    3.1544   -1.4153    1.5846 H   0  0  0  0  0  0  0  0  0  0  0  0
    0.7758   -1.0699    2.1588 H   0  0  0  0  0  0  0  0  0  0  0  0
   -1.4056   -0.6147    1.6035 H   0  0  0  0  0  0  0  0  0  0  0  0
   -4.9701   -0.5264    1.7735 H   0  0  0  0  0  0  0  0  0  0  0  0
   -3.3154   -0.9192    2.2240 H   0  0  0  0  0  0  0  0  0  0  0  0
   -4.0536    0.8955    3.5130 H   0  0  0  0  0  0  0  0  0  0  0  0
   -4.6346    1.8353    2.1284 H   0  0  0  0  0  0  0  0  0  0  0  0
   -2.4521    2.1811    1.5525 H   0  0  0  0  0  0  0  0  0  0  0  0
   -4.3877    2.3636   -0.3940 H   0  0  0  0  0  0  0  0  0  0  0  0
   -6.2122    2.9473   -1.9095 H   0  0  0  0  0  0  0  0  0  0  0  0
   -7.5448    1.1019   -2.9786 H   0  0  0  0  0  0  0  0  0  0  0  0
   -5.1389   -1.7962   -0.9447 H   0  0  0  0  0  0  0  0  0  0  0  0
   -0.0320   -0.3626   -1.9251 H   0  0  0  0  0  0  0  0  0  0  0  0
    2.2382   -0.6775   -2.5106 H   0  0  0  0  0  0  0  0  0  0  0  0
  1  2  1  0
  2  3  2  0
  3  4  1  0
  4  5  1  0
  5  6  2  0
  6  7  1  0
  7  8  2  0
  8  9  1  0
  9 10  1  0
 10 11  2  0
 11 12  1  0
 12 13  2  0
 13 14  1  0
 14 15  1  0
 15 16  2  0
 15 17  1  0
 17 18  1  0
 18 19  1  0
 19 20  1  0
 17 21  1  0
 21 22  2  0
 22 23  1  0
 23 24  2  0
 24 25  1  0
 25 26  1  0
 25 27  2  0
 13 28  1  0
 28 29  2  0
  9 30  2  0
 30  2  1  0
 30  5  1  0
 29 10  1  0
 27 21  1  0
  1 31  1  0
  1 32  1  0
  1 33  1  0
  3 34  1  0
  4 35  1  0
  7 36  1  0
 11 37  1  0
 12 38  1  0
 14 39  1  0
 18 40  1  0
 18 41  1  0
 19 42  1  0
 19 43  1  0
 20 44  1  0
 22 45  1  0
 23 46  1  0
 24 47  1  0
 27 48  1  0
 28 49  1  0
 29 50  1  0
M  END
$$$$
