
     RDKit          3D

 62 65  0  0  0  0  0  0  0  0999 V2000
   10.5035    0.8620    1.3017 C   0  0  0  0  0  0  0  0  0  0  0  0
   10.3059   -0.3753    1.8698 O   0  0  0  0  0  0  0  0  0  0  0  0
    9.9628   -1.3334    0.9322 C   0  0  0  0  0  0  0  0  0  0  0  0
    8.7109   -1.0379    0.1654 C   0  0  0  0  0  0  0  0  0  0  0  0
    7.5945   -0.9243    1.0485 O   0  0  0  0  0  0  0  0  0  0  0  0
    6.3378   -0.6560    0.4733 C   0  0  0  0  0  0  0  0  0  0  0  0
    5.2408   -0.5523    1.2840 C   0  0  0  0  0  0  0  0  0  0  0  0
    4.0121   -0.2887    0.7455 N   0  0  0  0  0  0  0  0  0  0  0  0
    3.8668   -0.1290   -0.5757 C   0  0  0  0  0  0  0  0  0  0  0  0
    2.5716    0.1537   -1.1645 C   0  0  0  0  0  0  0  0  0  0  0  0
    2.4757    0.3586   -2.5107 F   0  0  0  0  0  0  0  0  0  0  0  0
    1.4471    0.2241   -0.4712 C   0  0  0  0  0  0  0  0  0  0  0  0
    0.1745    0.5154   -1.1153 C   0  0  0  0  0  0  0  0  0  0  0  0
    0.1085    1.5415   -2.0579 C   0  0  0  0  0  0  0  0  0  0  0  0
   -1.0583    1.8610   -2.7113 C   0  0  0  0  0  0  0  0  0  0  0  0
   -2.2446    1.1574   -2.4525 C   0  0  0  0  0  0  0  0  0  0  0  0
   -3.3489    1.5288   -3.1457 F   0  0  0  0  0  0  0  0  0  0  0  0
   -2.1792    0.1567   -1.5334 C   0  0  0  0  0  0  0  0  0  0  0  0
   -3.4283   -0.6274   -1.2184 C   0  0  1  0  0  0  0  0  0  0  0  0
   -3.7170   -1.3821   -2.5337 C   0  0  0  0  0  0  0  0  0  0  0  0
   -3.1536   -1.6405   -0.2570 N   0  0  0  0  0  0  0  0  0  0  0  0
   -3.7998   -2.1423    0.6702 C   0  0  0  0  0  0  0  0  0  0  0  0
   -3.2966   -3.1510    1.4948 N   0  0  0  0  0  0  0  0  0  0  0  0
   -5.4510   -1.5355    0.9639 S   0  0  0  0  0  0  0  0  0  0  0  0
   -5.5744   -0.0039    0.0279 C   0  0  1  0  0  0  0  0  0  0  0  0
   -6.9652    0.4838   -0.1438 C   0  0  0  0  0  0  0  0  0  0  0  0
   -7.5075    0.2787   -1.2643 O   0  0  0  0  0  0  0  0  0  0  0  0
   -7.6140    1.1405    0.9194 N   0  0  0  0  0  0  0  0  0  0  0  0
   -8.9792    1.6207    0.7419 C   0  0  0  0  0  0  0  0  0  0  0  0
   -6.9121    1.3224    2.1708 C   0  0  0  0  0  0  0  0  0  0  0  0
   -4.5585    1.0646    0.2975 C   0  0  0  0  0  0  0  0  0  0  0  0
   -4.5798    0.2602   -0.9829 C   0  0  1  0  0  0  0  0  0  0  0  0
   -1.0019   -0.1610   -0.8776 C   0  0  0  0  0  0  0  0  0  0  0  0
    4.9784   -0.2372   -1.3745 C   0  0  0  0  0  0  0  0  0  0  0  0
    6.1964   -0.4981   -0.8465 N   0  0  0  0  0  0  0  0  0  0  0  0
   10.7957    1.6099    2.0872 H   0  0  0  0  0  0  0  0  0  0  0  0
    9.5355    1.2047    0.8622 H   0  0  0  0  0  0  0  0  0  0  0  0
   11.2356    0.8462    0.4757 H   0  0  0  0  0  0  0  0  0  0  0  0
    9.8221   -2.2900    1.5162 H   0  0  0  0  0  0  0  0  0  0  0  0
   10.8089   -1.5139    0.2283 H   0  0  0  0  0  0  0  0  0  0  0  0
    8.5256   -1.8826   -0.5541 H   0  0  0  0  0  0  0  0  0  0  0  0
    8.7962   -0.1338   -0.4680 H   0  0  0  0  0  0  0  0  0  0  0  0
    5.3131   -0.6747    2.3656 H   0  0  0  0  0  0  0  0  0  0  0  0
    1.5378    0.0509    0.6022 H   0  0  0  0  0  0  0  0  0  0  0  0
    1.0369    2.0918   -2.2524 H   0  0  0  0  0  0  0  0  0  0  0  0
   -1.0780    2.6738   -3.4463 H   0  0  0  0  0  0  0  0  0  0  0  0
   -3.4744   -0.7399   -3.4020 H   0  0  0  0  0  0  0  0  0  0  0  0
   -3.1155   -2.2899   -2.6183 H   0  0  0  0  0  0  0  0  0  0  0  0
   -4.7856   -1.6732   -2.5762 H   0  0  0  0  0  0  0  0  0  0  0  0
   -2.3531   -3.0748    1.9095 H   0  0  0  0  0  0  0  0  0  0  0  0
   -3.8678   -3.9880    1.6991 H   0  0  0  0  0  0  0  0  0  0  0  0
   -9.6870    0.7504    0.8266 H   0  0  0  0  0  0  0  0  0  0  0  0
   -9.0661    2.0127   -0.2879 H   0  0  0  0  0  0  0  0  0  0  0  0
   -9.2410    2.4151    1.4804 H   0  0  0  0  0  0  0  0  0  0  0  0
   -6.1357    0.5347    2.3212 H   0  0  0  0  0  0  0  0  0  0  0  0
   -7.6371    1.1779    3.0072 H   0  0  0  0  0  0  0  0  0  0  0  0
   -6.4208    2.3112    2.2250 H   0  0  0  0  0  0  0  0  0  0  0  0
   -3.8274    0.8162    1.0823 H   0  0  0  0  0  0  0  0  0  0  0  0
   -4.8361    2.1292    0.2797 H   0  0  0  0  0  0  0  0  0  0  0  0
   -4.9796    0.8633   -1.8621 H   0  0  0  0  0  0  0  0  0  0  0  0
   -0.9456   -0.9641   -0.1388 H   0  0  0  0  0  0  0  0  0  0  0  0
    4.9259   -0.1175   -2.4618 H   0  0  0  0  0  0  0  0  0  0  0  0
  1  2  1  0
  2  3  1  0
  3  4  1  0
  4  5  1  0
  5  6  1  0
  6  7  2  0
  7  8  1  0
  8  9  2  0
  9 10  1  0
 10 11  1  0
 10 12  2  0
 12 13  1  0
 13 14  2  0
 14 15  1  0
 15 16  2  0
 16 17  1  0
 16 18  1  0
 18 19  1  0
 19 20  1  6
 19 21  1  0
 21 22  2  0
 22 23  1  0
 22 24  1  0
 24 25  1  0
 25 26  1  6
 26 27  2  0
 26 28  1  0
 28 29  1  0
 28 30  1  0
 25 31  1  0
 31 32  1  0
 18 33  2  0
  9 34  1  0
 34 35  2  0
 35  6  1  0
 33 13  1  0
 32 19  1  0
 32 25  1  0
  1 36  1  0
  1 37  1  0
  1 38  1  0
  3 39  1  0
  3 40  1  0
  4 41  1  0
  4 42  1  0
  7 43  1  0
 12 44  1  0
 14 45  1  0
 15 46  1  0
 20 47  1  0
 20 48  1  0
 20 49  1  0
 23 50  1  0
 23 51  1  0
 29 52  1  0
 29 53  1  0
 29 54  1  0
 30 55  1  0
 30 56  1  0
 30 57  1  0
 31 58  1  0
 31 59  1  0
 32 60  1  6
 33 61  1  0
 34 62  1  0
M  END
$$$$
