
     RDKit          3D

 73 75  0  0  0  0  0  0  0  0999 V2000
   -5.0724   -4.7198    0.9364 C   0  0  0  0  0  0  0  0  0  0  0  0
   -5.2432   -4.6342    2.4022 C   0  0  0  0  0  0  0  0  0  0  0  0
   -5.3669   -3.2519    2.9333 C   0  0  0  0  0  0  0  0  0  0  0  0
   -4.2317   -2.3385    2.7436 C   0  0  0  0  0  0  0  0  0  0  0  0
   -3.8667   -1.8599    1.3904 C   0  0  2  0  0  0  0  0  0  0  0  0
   -2.6637   -1.0129    1.5796 N   0  0  0  0  0  0  0  0  0  0  0  0
   -1.6277   -1.0330    0.5988 C   0  0  0  0  0  0  0  0  0  0  0  0
   -1.7389   -1.7442   -0.4218 O   0  0  0  0  0  0  0  0  0  0  0  0
   -0.4783   -0.2862    0.7328 O   0  0  0  0  0  0  0  0  0  0  0  0
    0.5825   -0.2902   -0.2587 C   0  0  2  0  0  0  0  0  0  0  0  0
    1.7594   -0.9074    0.3991 C   0  0  0  0  0  0  0  0  0  0  0  0
    2.9678   -1.0256   -0.3373 N   0  0  0  0  0  0  0  0  0  0  0  0
    3.3291   -2.0050   -1.1661 C   0  0  0  0  0  0  0  0  0  0  0  0
    4.5626   -1.7419   -1.6117 N   0  0  0  0  0  0  0  0  0  0  0  0
    4.9941   -0.5923   -1.0672 C   0  0  0  0  0  0  0  0  0  0  0  0
    6.2716    0.0819   -1.2647 C   0  0  0  0  0  0  0  0  0  0  0  0
    6.5907    1.2690   -0.6295 C   0  0  0  0  0  0  0  0  0  0  0  0
    7.7906    1.9015   -0.8170 C   0  0  0  0  0  0  0  0  0  0  0  0
    8.7465    1.3770   -1.6611 C   0  0  0  0  0  0  0  0  0  0  0  0
   10.0618    2.0940   -1.8383 C   0  0  0  0  0  0  0  0  0  0  0  0
   10.7707    1.4372   -2.7946 F   0  0  0  0  0  0  0  0  0  0  0  0
    9.8554    3.4205   -2.1366 F   0  0  0  0  0  0  0  0  0  0  0  0
   10.7885    2.0518   -0.6476 F   0  0  0  0  0  0  0  0  0  0  0  0
    8.4609    0.1958   -2.3125 C   0  0  0  0  0  0  0  0  0  0  0  0
    7.2178   -0.4364   -2.1006 C   0  0  0  0  0  0  0  0  0  0  0  0
    3.9747   -0.1576   -0.2679 C   0  0  0  0  0  0  0  0  0  0  0  0
    0.6996    1.1102   -0.7382 C   0  0  0  0  0  0  0  0  0  0  0  0
    1.7273    1.3570   -1.8021 C   0  0  0  0  0  0  0  0  0  0  0  0
   -0.6699    1.4655   -1.3449 C   0  0  0  0  0  0  0  0  0  0  0  0
    0.8841    2.0928    0.4162 C   0  0  0  0  0  0  0  0  0  0  0  0
   -4.9243   -0.9060    0.9120 C   0  0  0  0  0  0  0  0  0  0  0  0
   -6.0882   -1.3239    0.6713 O   0  0  0  0  0  0  0  0  0  0  0  0
   -4.6946    0.5086    0.7007 C   0  0  0  0  0  0  0  0  0  0  0  0
   -3.5494    0.9489    0.9043 O   0  0  0  0  0  0  0  0  0  0  0  0
   -5.7115    1.3930    0.2775 N   0  0  0  0  0  0  0  0  0  0  0  0
   -5.4953    2.7696    0.0761 C   0  0  0  0  0  0  0  0  0  0  0  0
   -6.4809    3.6791   -0.3546 C   0  0  0  0  0  0  0  0  0  0  0  0
   -5.8778    4.9167   -0.4121 C   0  0  0  0  0  0  0  0  0  0  0  0
   -4.6145    4.7900   -0.0459 N   0  0  0  0  0  0  0  0  0  0  0  0
   -4.4002    3.4967    0.2434 N   0  0  0  0  0  0  0  0  0  0  0  0
   -4.0170   -4.8422    0.5983 H   0  0  0  0  0  0  0  0  0  0  0  0
   -5.5811   -3.9219    0.4054 H   0  0  0  0  0  0  0  0  0  0  0  0
   -5.5405   -5.7320    0.6214 H   0  0  0  0  0  0  0  0  0  0  0  0
   -6.1639   -5.2231    2.6954 H   0  0  0  0  0  0  0  0  0  0  0  0
   -4.3496   -5.1206    2.9366 H   0  0  0  0  0  0  0  0  0  0  0  0
   -6.3357   -2.8036    2.4953 H   0  0  0  0  0  0  0  0  0  0  0  0
   -5.5794   -3.3608    4.0479 H   0  0  0  0  0  0  0  0  0  0  0  0
   -4.3481   -1.4121    3.3872 H   0  0  0  0  0  0  0  0  0  0  0  0
   -3.2953   -2.8089    3.2133 H   0  0  0  0  0  0  0  0  0  0  0  0
   -3.7107   -2.5657    0.5905 H   0  0  0  0  0  0  0  0  0  0  0  0
   -2.5656   -0.4203    2.4291 H   0  0  0  0  0  0  0  0  0  0  0  0
    0.2236   -0.9364   -1.1174 H   0  0  0  0  0  0  0  0  0  0  0  0
    1.8980   -0.3701    1.3905 H   0  0  0  0  0  0  0  0  0  0  0  0
    1.4433   -1.9478    0.7238 H   0  0  0  0  0  0  0  0  0  0  0  0
    2.7503   -2.8911   -1.4647 H   0  0  0  0  0  0  0  0  0  0  0  0
    5.8412    1.6854    0.0412 H   0  0  0  0  0  0  0  0  0  0  0  0
    8.0375    2.8431   -0.3078 H   0  0  0  0  0  0  0  0  0  0  0  0
    9.1760   -0.2478   -2.9782 H   0  0  0  0  0  0  0  0  0  0  0  0
    7.0065   -1.3648   -2.6171 H   0  0  0  0  0  0  0  0  0  0  0  0
    4.0272    0.7610    0.3185 H   0  0  0  0  0  0  0  0  0  0  0  0
    2.0796    0.4590   -2.3111 H   0  0  0  0  0  0  0  0  0  0  0  0
    2.5176    2.0192   -1.3919 H   0  0  0  0  0  0  0  0  0  0  0  0
    1.2879    1.9885   -2.6405 H   0  0  0  0  0  0  0  0  0  0  0  0
   -1.0521    0.6696   -2.0024 H   0  0  0  0  0  0  0  0  0  0  0  0
   -0.4722    2.3795   -1.9683 H   0  0  0  0  0  0  0  0  0  0  0  0
   -1.3219    1.7063   -0.4836 H   0  0  0  0  0  0  0  0  0  0  0  0
    0.3273    3.0383    0.2600 H   0  0  0  0  0  0  0  0  0  0  0  0
    0.5055    1.6622    1.3727 H   0  0  0  0  0  0  0  0  0  0  0  0
    1.9704    2.3672    0.4864 H   0  0  0  0  0  0  0  0  0  0  0  0
   -6.6614    0.9506    0.1166 H   0  0  0  0  0  0  0  0  0  0  0  0
   -7.4889    3.3858   -0.5748 H   0  0  0  0  0  0  0  0  0  0  0  0
   -6.3935    5.8259   -0.7139 H   0  0  0  0  0  0  0  0  0  0  0  0
   -3.4546    3.1795    0.5554 H   0  0  0  0  0  0  0  0  0  0  0  0
  1  2  1  0
  2  3  1  0
  3  4  1  0
  4  5  1  0
  5  6  1  0
  6  7  1  0
  7  8  2  0
  7  9  1  0
  9 10  1  0
 10 11  1  0
 11 12  1  0
 12 13  1  0
 13 14  2  0
 14 15  1  0
 15 16  1  0
 16 17  2  0
 17 18  1  0
 18 19  2  0
 19 20  1  0
 20 21  1  0
 20 22  1  0
 20 23  1  0
 19 24  1  0
 24 25  2  0
 15 26  2  0
 10 27  1  0
 27 28  1  0
 27 29  1  0
 27 30  1  0
  5 31  1  0
 31 32  2  0
 31 33  1  0
 33 34  2  0
 33 35  1  0
 35 36  1  0
 36 37  2  0
 37 38  1  0
 38 39  2  0
 39 40  1  0
 26 12  1  0
 40 36  1  0
 25 16  1  0
  1 41  1  0
  1 42  1  0
  1 43  1  0
  2 44  1  0
  2 45  1  0
  3 46  1  0
  3 47  1  0
  4 48  1  0
  4 49  1  0
  5 50  1  6
  6 51  1  0
 10 52  1  6
 11 53  1  0
 11 54  1  0
 13 55  1  0
 17 56  1  0
 18 57  1  0
 24 58  1  0
 25 59  1  0
 26 60  1  0
 28 61  1  0
 28 62  1  0
 28 63  1  0
 29 64  1  0
 29 65  1  0
 29 66  1  0
 30 67  1  0
 30 68  1  0
 30 69  1  0
 35 70  1  0
 37 71  1  0
 38 72  1  0
 40 73  1  0
M  END
$$$$
