
     RDKit          3D

 35 37  0  0  0  0  0  0  0  0999 V2000
    5.5245   -1.1791    0.6053 O   0  0  0  0  0  0  0  0  0  0  0  0
    4.9607   -0.2749   -0.0885 C   0  0  0  0  0  0  0  0  0  0  0  0
    5.7349    0.8282   -0.4342 O   0  0  0  0  0  0  0  0  0  0  0  0
    3.5600   -0.3527   -0.5250 C   0  0  0  0  0  0  0  0  0  0  0  0
    2.6116    0.1048    0.5844 C   0  0  0  0  0  0  0  0  0  0  0  0
    1.2324    0.0202    0.1432 N   0  0  0  0  0  0  0  0  0  0  0  0
    0.4957    0.9449   -0.4668 C   0  0  0  0  0  0  0  0  0  0  0  0
   -0.7875    0.4813   -0.7264 C   0  0  0  0  0  0  0  0  0  0  0  0
   -1.8398    1.2789   -1.3870 C   0  0  0  0  0  0  0  0  0  0  0  0
   -2.8239    1.8052   -0.4509 N   0  0  0  0  0  0  0  0  0  0  0  0
   -3.9731    1.2500   -0.0363 C   0  0  0  0  0  0  0  0  0  0  0  0
   -4.6305    2.0811    0.8706 C   0  0  0  0  0  0  0  0  0  0  0  0
   -3.8399    3.1574    0.9900 N   0  0  0  0  0  0  0  0  0  0  0  0
   -2.7623    2.9989    0.2047 C   0  0  0  0  0  0  0  0  0  0  0  0
   -0.8157   -0.8049   -0.2383 C   0  0  0  0  0  0  0  0  0  0  0  0
   -1.8320   -1.7316   -0.2291 C   0  0  0  0  0  0  0  0  0  0  0  0
   -1.5815   -2.9724    0.3362 C   0  0  0  0  0  0  0  0  0  0  0  0
   -2.8252   -4.1856    0.3792 Cl  0  0  0  0  0  0  0  0  0  0  0  0
   -0.3434   -3.2598    0.8716 C   0  0  0  0  0  0  0  0  0  0  0  0
    0.6646   -2.3035    0.8477 C   0  0  0  0  0  0  0  0  0  0  0  0
    0.4311   -1.0604    0.2876 C   0  0  0  0  0  0  0  0  0  0  0  0
    6.4570    1.1768    0.1841 H   0  0  0  0  0  0  0  0  0  0  0  0
    3.2850   -1.3442   -0.9046 H   0  0  0  0  0  0  0  0  0  0  0  0
    3.4258    0.3486   -1.3818 H   0  0  0  0  0  0  0  0  0  0  0  0
    2.8018   -0.5939    1.4376 H   0  0  0  0  0  0  0  0  0  0  0  0
    2.8694    1.1503    0.8611 H   0  0  0  0  0  0  0  0  0  0  0  0
    0.8972    1.9333   -0.7118 H   0  0  0  0  0  0  0  0  0  0  0  0
   -1.3620    2.1599   -1.8617 H   0  0  0  0  0  0  0  0  0  0  0  0
   -2.3342    0.7017   -2.2008 H   0  0  0  0  0  0  0  0  0  0  0  0
   -4.3723    0.2784   -0.3474 H   0  0  0  0  0  0  0  0  0  0  0  0
   -5.5893    1.8625    1.3597 H   0  0  0  0  0  0  0  0  0  0  0  0
   -1.9580    3.7128    0.1046 H   0  0  0  0  0  0  0  0  0  0  0  0
   -2.7879   -1.4735   -0.6587 H   0  0  0  0  0  0  0  0  0  0  0  0
   -0.1392   -4.2266    1.3163 H   0  0  0  0  0  0  0  0  0  0  0  0
    1.6459   -2.5123    1.2654 H   0  0  0  0  0  0  0  0  0  0  0  0
  1  2  2  0
  2  3  1  0
  2  4  1  0
  4  5  1  0
  5  6  1  0
  6  7  1  0
  7  8  2  0
  8  9  1  0
  9 10  1  0
 10 11  1  0
 11 12  2  0
 12 13  1  0
 13 14  2  0
  8 15  1  0
 15 16  2  0
 16 17  1  0
 17 18  1  0
 17 19  2  0
 19 20  1  0
 20 21  2  0
 21  6  1  0
 14 10  1  0
 21 15  1  0
  3 22  1  0
  4 23  1  0
  4 24  1  0
  5 25  1  0
  5 26  1  0
  7 27  1  0
  9 28  1  0
  9 29  1  0
 11 30  1  0
 12 31  1  0
 14 32  1  0
 16 33  1  0
 19 34  1  0
 20 35  1  0
M  END
$$$$
