
     RDKit          3D

 63 62  0  0  0  0  0  0  0  0999 V2000
   -2.2255    4.2080   -1.0786 C   0  0  0  0  0  0  0  0  0  0  0  0
   -2.5400    3.1029   -0.0993 C   0  0  0  0  0  0  0  0  0  0  0  0
   -2.4549    3.3015    1.1382 O   0  0  0  0  0  0  0  0  0  0  0  0
   -2.9364    1.8221   -0.5477 N   0  0  0  0  0  0  0  0  0  0  0  0
   -3.2349    0.7681    0.4621 C   0  0  1  0  0  0  0  0  0  0  0  0
   -4.6209    0.3498    0.1642 C   0  0  0  0  0  0  0  0  0  0  0  0
   -5.2890   -0.6833    0.9715 C   0  0  0  0  0  0  0  0  0  0  0  0
   -4.7232   -2.0495    1.0111 C   0  0  0  0  0  0  0  0  0  0  0  0
   -5.4916   -0.2437    2.4232 C   0  0  0  0  0  0  0  0  0  0  0  0
   -2.1621   -0.2112    0.3041 C   0  0  0  0  0  0  0  0  0  0  0  0
   -1.9955   -1.2047    1.0761 O   0  0  0  0  0  0  0  0  0  0  0  0
   -1.1852   -0.1411   -0.7496 N   0  0  0  0  0  0  0  0  0  0  0  0
   -0.1197   -1.1345   -0.8881 C   0  0  2  0  0  0  0  0  0  0  0  0
    1.1985   -0.4954   -0.7519 C   0  0  0  0  0  0  0  0  0  0  0  0
    1.2728    0.7838   -0.6501 O   0  0  0  0  0  0  0  0  0  0  0  0
    2.4525   -1.1427   -0.7146 N   0  0  0  0  0  0  0  0  0  0  0  0
    3.7101   -0.4244   -0.5789 C   0  0  2  0  0  0  0  0  0  0  0  0
    4.5369   -0.7443   -1.7542 C   0  0  0  0  0  0  0  0  0  0  0  0
    4.1303   -1.4867   -2.6114 O   0  0  0  0  0  0  0  0  0  0  0  0
    4.4574   -0.8512    0.6645 C   0  0  0  0  0  0  0  0  0  0  0  0
    5.7510   -0.1376    0.8387 C   0  0  0  0  0  0  0  0  0  0  0  0
    5.6323    1.3429    0.9553 C   0  0  0  0  0  0  0  0  0  0  0  0
    4.7908    1.7785    2.1322 C   0  0  0  0  0  0  0  0  0  0  0  0
    4.7224    3.2263    2.1789 N   0  0  0  0  0  0  0  0  0  0  0  0
   -0.3347   -1.8363   -2.1975 C   0  0  0  0  0  0  0  0  0  0  0  0
    0.6576   -2.9117   -2.5243 C   0  0  0  0  0  0  0  0  0  0  0  0
   -1.7338   -2.3934   -2.3104 C   0  0  0  0  0  0  0  0  0  0  0  0
   -1.5178    4.9305   -0.6485 H   0  0  0  0  0  0  0  0  0  0  0  0
   -3.2080    4.6424   -1.3480 H   0  0  0  0  0  0  0  0  0  0  0  0
   -1.7663    3.7929   -2.0004 H   0  0  0  0  0  0  0  0  0  0  0  0
   -3.0357    1.5743   -1.5453 H   0  0  0  0  0  0  0  0  0  0  0  0
   -3.1232    1.2396    1.4600 H   0  0  0  0  0  0  0  0  0  0  0  0
   -5.3205    1.2531    0.1289 H   0  0  0  0  0  0  0  0  0  0  0  0
   -4.6369    0.0246   -0.9332 H   0  0  0  0  0  0  0  0  0  0  0  0
   -6.3609   -0.7630    0.5820 H   0  0  0  0  0  0  0  0  0  0  0  0
   -4.1737   -2.3856    0.1222 H   0  0  0  0  0  0  0  0  0  0  0  0
   -5.6261   -2.7621    1.0455 H   0  0  0  0  0  0  0  0  0  0  0  0
   -4.2171   -2.3155    1.9846 H   0  0  0  0  0  0  0  0  0  0  0  0
   -5.9039    0.7681    2.4591 H   0  0  0  0  0  0  0  0  0  0  0  0
   -4.5617   -0.3829    3.0057 H   0  0  0  0  0  0  0  0  0  0  0  0
   -6.2551   -0.9347    2.8469 H   0  0  0  0  0  0  0  0  0  0  0  0
   -1.2526    0.6420   -1.4192 H   0  0  0  0  0  0  0  0  0  0  0  0
   -0.2469   -1.8665   -0.0735 H   0  0  0  0  0  0  0  0  0  0  0  0
    2.4898   -2.1798   -0.7760 H   0  0  0  0  0  0  0  0  0  0  0  0
    3.5076    0.6648   -0.5151 H   0  0  0  0  0  0  0  0  0  0  0  0
    5.5162   -0.3101   -1.8494 H   0  0  0  0  0  0  0  0  0  0  0  0
    4.6716   -1.9351    0.5566 H   0  0  0  0  0  0  0  0  0  0  0  0
    3.8404   -0.7211    1.5833 H   0  0  0  0  0  0  0  0  0  0  0  0
    6.4693   -0.3750    0.0342 H   0  0  0  0  0  0  0  0  0  0  0  0
    6.2164   -0.5129    1.7814 H   0  0  0  0  0  0  0  0  0  0  0  0
    6.6581    1.7506    1.1291 H   0  0  0  0  0  0  0  0  0  0  0  0
    5.2444    1.8393    0.0535 H   0  0  0  0  0  0  0  0  0  0  0  0
    3.7839    1.3309    2.1323 H   0  0  0  0  0  0  0  0  0  0  0  0
    5.2724    1.4595    3.1028 H   0  0  0  0  0  0  0  0  0  0  0  0
    3.7474    3.5365    2.1130 H   0  0  0  0  0  0  0  0  0  0  0  0
    5.3143    3.6184    1.4139 H   0  0  0  0  0  0  0  0  0  0  0  0
   -0.2525   -1.0819   -3.0362 H   0  0  0  0  0  0  0  0  0  0  0  0
    0.8010   -3.5730   -1.6314 H   0  0  0  0  0  0  0  0  0  0  0  0
    0.1880   -3.5048   -3.3614 H   0  0  0  0  0  0  0  0  0  0  0  0
    1.5979   -2.4966   -2.9297 H   0  0  0  0  0  0  0  0  0  0  0  0
   -1.7301   -3.0706   -3.2012 H   0  0  0  0  0  0  0  0  0  0  0  0
   -2.4332   -1.5773   -2.5563 H   0  0  0  0  0  0  0  0  0  0  0  0
   -1.9616   -2.9115   -1.3708 H   0  0  0  0  0  0  0  0  0  0  0  0
  1  2  1  0
  2  3  2  0
  2  4  1  0
  4  5  1  0
  5  6  1  0
  6  7  1  0
  7  8  1  0
  7  9  1  0
  5 10  1  0
 10 11  2  0
 10 12  1  0
 12 13  1  0
 13 14  1  0
 14 15  2  0
 14 16  1  0
 16 17  1  0
 17 18  1  0
 18 19  2  0
 17 20  1  0
 20 21  1  0
 21 22  1  0
 22 23  1  0
 23 24  1  0
 13 25  1  0
 25 26  1  0
 25 27  1  0
  1 28  1  0
  1 29  1  0
  1 30  1  0
  4 31  1  0
  5 32  1  1
  6 33  1  0
  6 34  1  0
  7 35  1  0
  8 36  1  0
  8 37  1  0
  8 38  1  0
  9 39  1  0
  9 40  1  0
  9 41  1  0
 12 42  1  0
 13 43  1  1
 16 44  1  0
 17 45  1  1
 18 46  1  0
 20 47  1  0
 20 48  1  0
 21 49  1  0
 21 50  1  0
 22 51  1  0
 22 52  1  0
 23 53  1  0
 23 54  1  0
 24 55  1  0
 24 56  1  0
 25 57  1  0
 26 58  1  0
 26 59  1  0
 26 60  1  0
 27 61  1  0
 27 62  1  0
 27 63  1  0
M  END
$$$$
