
     RDKit          3D

 28 30  0  0  0  0  0  0  0  0999 V2000
   -3.5454    3.1903    0.7342 F   0  0  0  0  0  0  0  0  0  0  0  0
   -2.8149    2.0661    0.5762 C   0  0  0  0  0  0  0  0  0  0  0  0
   -2.1034    1.8375   -0.5775 C   0  0  0  0  0  0  0  0  0  0  0  0
   -1.3647    0.6821   -0.7150 C   0  0  0  0  0  0  0  0  0  0  0  0
   -1.2990   -0.2813    0.2663 C   0  0  0  0  0  0  0  0  0  0  0  0
   -0.5153   -1.4954    0.1069 C   0  0  0  0  0  0  0  0  0  0  0  0
   -1.0113   -2.7464    0.0910 N   0  0  0  0  0  0  0  0  0  0  0  0
    0.0398   -3.5696   -0.0760 C   0  0  0  0  0  0  0  0  0  0  0  0
    1.1631   -2.8350   -0.1612 N   0  0  0  0  0  0  0  0  0  0  0  0
    0.8703   -1.5224   -0.0521 C   0  0  0  0  0  0  0  0  0  0  0  0
    1.7343   -0.3661   -0.0837 C   0  0  0  0  0  0  0  0  0  0  0  0
    1.8435    0.4580    1.0072 C   0  0  0  0  0  0  0  0  0  0  0  0
    2.6678    1.5619    0.9771 C   0  0  0  0  0  0  0  0  0  0  0  0
    3.3589    1.8086   -0.1445 N   0  0  0  0  0  0  0  0  0  0  0  0
    3.2905    1.0398   -1.2362 C   0  0  0  0  0  0  0  0  0  0  0  0
    2.4547   -0.0850   -1.2144 C   0  0  0  0  0  0  0  0  0  0  0  0
   -2.0173   -0.0404    1.4192 C   0  0  0  0  0  0  0  0  0  0  0  0
   -2.7683    1.1226    1.5726 C   0  0  0  0  0  0  0  0  0  0  0  0
   -2.1521    2.5934   -1.3556 H   0  0  0  0  0  0  0  0  0  0  0  0
   -0.8145    0.5521   -1.6599 H   0  0  0  0  0  0  0  0  0  0  0  0
   -2.0352   -3.0085    0.1923 H   0  0  0  0  0  0  0  0  0  0  0  0
   -0.0150   -4.6586   -0.1330 H   0  0  0  0  0  0  0  0  0  0  0  0
    1.2895    0.2516    1.8902 H   0  0  0  0  0  0  0  0  0  0  0  0
    2.7803    2.2319    1.8132 H   0  0  0  0  0  0  0  0  0  0  0  0
    3.8808    1.3158   -2.0909 H   0  0  0  0  0  0  0  0  0  0  0  0
    2.4361   -0.6704   -2.1197 H   0  0  0  0  0  0  0  0  0  0  0  0
   -2.0236   -0.7433    2.2424 H   0  0  0  0  0  0  0  0  0  0  0  0
   -3.3296    1.3107    2.4751 H   0  0  0  0  0  0  0  0  0  0  0  0
  1  2  1  0
  2  3  2  0
  3  4  1  0
  4  5  2  0
  5  6  1  0
  6  7  1  0
  7  8  1  0
  8  9  2  0
  9 10  1  0
 10 11  1  0
 11 12  2  0
 12 13  1  0
 13 14  2  0
 14 15  1  0
 15 16  2  0
  5 17  1  0
 17 18  2  0
 18  2  1  0
 10  6  2  0
 16 11  1  0
  3 19  1  0
  4 20  1  0
  7 21  1  0
  8 22  1  0
 12 23  1  0
 13 24  1  0
 15 25  1  0
 16 26  1  0
 17 27  1  0
 18 28  1  0
M  END
$$$$
