
     RDKit          3D

 73 78  0  0  0  0  0  0  0  0999 V2000
   -3.2600    6.2869   -2.6518 C   0  0  0  0  0  0  0  0  0  0  0  0
   -2.7134    5.0163   -2.4042 O   0  0  0  0  0  0  0  0  0  0  0  0
   -2.0974    4.6857   -1.2162 C   0  0  0  0  0  0  0  0  0  0  0  0
   -1.5832    3.4035   -1.0555 C   0  0  0  0  0  0  0  0  0  0  0  0
   -0.9602    3.0252    0.1101 C   0  0  0  0  0  0  0  0  0  0  0  0
   -0.4321    1.7399    0.3073 N   0  0  0  0  0  0  0  0  0  0  0  0
    0.9252    1.4183   -0.0778 C   0  0  0  0  0  0  0  0  0  0  0  0
    1.6453    2.0253   -0.9118 O   0  0  0  0  0  0  0  0  0  0  0  0
    1.3504    0.2644    0.6544 N   0  0  0  0  0  0  0  0  0  0  0  0
    2.6289   -0.3456    0.5329 C   0  0  0  0  0  0  0  0  0  0  0  0
    3.6767    0.0601    1.3291 C   0  0  0  0  0  0  0  0  0  0  0  0
    4.9288   -0.5508    1.1956 C   0  0  0  0  0  0  0  0  0  0  0  0
    5.1420   -1.5557    0.2810 C   0  0  0  0  0  0  0  0  0  0  0  0
    6.4780   -2.1480    0.1933 C   0  0  0  0  0  0  0  0  0  0  0  0
    7.2185   -2.4989    1.3030 C   0  0  0  0  0  0  0  0  0  0  0  0
    8.4790   -3.0554    1.2089 C   0  0  0  0  0  0  0  0  0  0  0  0
    9.0544   -3.2849   -0.0274 C   0  0  0  0  0  0  0  0  0  0  0  0
   10.3838   -3.8699   -0.1270 C   0  0  0  0  0  0  0  0  0  0  0  0
   10.8624   -4.0611   -1.2689 O   0  0  0  0  0  0  0  0  0  0  0  0
   11.1264   -4.2168    0.9738 O   0  0  0  0  0  0  0  0  0  0  0  0
    8.3180   -2.9357   -1.1371 C   0  0  0  0  0  0  0  0  0  0  0  0
    7.0588   -2.3798   -1.0446 C   0  0  0  0  0  0  0  0  0  0  0  0
    6.3352   -2.0367   -2.1427 F   0  0  0  0  0  0  0  0  0  0  0  0
    4.0997   -1.9465   -0.4983 C   0  0  0  0  0  0  0  0  0  0  0  0
    2.8619   -1.3560   -0.3797 C   0  0  0  0  0  0  0  0  0  0  0  0
    0.2418   -0.0901    1.4693 C   0  0  0  0  0  0  0  0  0  0  0  0
    0.3172   -0.8024    2.4928 O   0  0  0  0  0  0  0  0  0  0  0  0
   -1.0025    0.5358    0.8837 C   0  0  0  0  0  0  0  0  0  0  0  0
   -1.5398   -0.4292   -0.1042 C   0  0  0  0  0  0  0  0  0  0  0  0
   -2.8975   -0.0635   -0.5555 C   0  0  0  0  0  0  0  0  0  0  0  0
   -3.8209    0.2856    0.4455 N   0  0  0  0  0  0  0  0  0  0  0  0
   -5.1311    0.6448    0.0717 C   0  0  0  0  0  0  0  0  0  0  0  0
   -5.8828   -0.3746   -0.6511 C   0  0  0  0  0  0  0  0  0  0  0  0
   -6.0663   -0.2631   -1.9731 N   0  0  0  0  0  0  0  0  0  0  0  0
   -6.7518   -1.1929   -2.6355 C   0  0  0  0  0  0  0  0  0  0  0  0
   -7.2896   -2.2823   -2.0119 C   0  0  0  0  0  0  0  0  0  0  0  0
   -7.1271   -2.4395   -0.6551 C   0  0  0  0  0  0  0  0  0  0  0  0
   -6.4070   -1.4552    0.0165 C   0  0  0  0  0  0  0  0  0  0  0  0
   -6.2082   -1.5863    1.4796 C   0  0  0  0  0  0  0  0  0  0  0  0
   -3.3834    0.4669    1.7517 C   0  0  0  0  0  0  0  0  0  0  0  0
   -1.9597    0.7771    1.9802 C   0  0  0  0  0  0  0  0  0  0  0  0
   -0.8633    3.9350    1.0910 N   0  0  0  0  0  0  0  0  0  0  0  0
   -1.3636    5.1878    0.9388 C   0  0  0  0  0  0  0  0  0  0  0  0
   -1.9728    5.5538   -0.2040 N   0  0  0  0  0  0  0  0  0  0  0  0
   -4.3559    6.2272   -2.3857 H   0  0  0  0  0  0  0  0  0  0  0  0
   -3.1033    6.5099   -3.7198 H   0  0  0  0  0  0  0  0  0  0  0  0
   -2.7854    7.0474   -1.9939 H   0  0  0  0  0  0  0  0  0  0  0  0
   -1.6656    2.6865   -1.8537 H   0  0  0  0  0  0  0  0  0  0  0  0
    3.4976    0.8483    2.0424 H   0  0  0  0  0  0  0  0  0  0  0  0
    5.7539   -0.2389    1.8152 H   0  0  0  0  0  0  0  0  0  0  0  0
    6.7653   -2.3180    2.2699 H   0  0  0  0  0  0  0  0  0  0  0  0
    9.0412   -3.3226    2.0823 H   0  0  0  0  0  0  0  0  0  0  0  0
   11.8609   -4.9315    0.9588 H   0  0  0  0  0  0  0  0  0  0  0  0
    8.7680   -3.1153   -2.1037 H   0  0  0  0  0  0  0  0  0  0  0  0
    4.2150   -2.7310   -1.2312 H   0  0  0  0  0  0  0  0  0  0  0  0
    2.0298   -1.6574   -0.9917 H   0  0  0  0  0  0  0  0  0  0  0  0
   -1.4393   -1.4682    0.2680 H   0  0  0  0  0  0  0  0  0  0  0  0
   -0.8617   -0.3867   -1.0074 H   0  0  0  0  0  0  0  0  0  0  0  0
   -2.8743    0.7058   -1.3450 H   0  0  0  0  0  0  0  0  0  0  0  0
   -3.3160   -0.9769   -1.0830 H   0  0  0  0  0  0  0  0  0  0  0  0
   -5.0556    1.5667   -0.5811 H   0  0  0  0  0  0  0  0  0  0  0  0
   -5.6644    1.0345    0.9886 H   0  0  0  0  0  0  0  0  0  0  0  0
   -6.8699   -1.0517   -3.7044 H   0  0  0  0  0  0  0  0  0  0  0  0
   -7.8377   -3.0118   -2.5868 H   0  0  0  0  0  0  0  0  0  0  0  0
   -7.5381   -3.2891   -0.1250 H   0  0  0  0  0  0  0  0  0  0  0  0
   -5.3030   -2.2001    1.7187 H   0  0  0  0  0  0  0  0  0  0  0  0
   -7.0680   -2.1854    1.8748 H   0  0  0  0  0  0  0  0  0  0  0  0
   -6.2157   -0.6265    2.0020 H   0  0  0  0  0  0  0  0  0  0  0  0
   -3.6442   -0.4657    2.3387 H   0  0  0  0  0  0  0  0  0  0  0  0
   -4.0123    1.2562    2.2613 H   0  0  0  0  0  0  0  0  0  0  0  0
   -1.6029    0.2328    2.9046 H   0  0  0  0  0  0  0  0  0  0  0  0
   -1.8607    1.8626    2.2934 H   0  0  0  0  0  0  0  0  0  0  0  0
   -1.2765    5.9075    1.7393 H   0  0  0  0  0  0  0  0  0  0  0  0
  1  2  1  0
  2  3  1  0
  3  4  2  0
  4  5  1  0
  5  6  1  0
  6  7  1  0
  7  8  2  0
  7  9  1  0
  9 10  1  0
 10 11  2  0
 11 12  1  0
 12 13  2  0
 13 14  1  0
 14 15  2  0
 15 16  1  0
 16 17  2  0
 17 18  1  0
 18 19  2  0
 18 20  1  0
 17 21  1  0
 21 22  2  0
 22 23  1  0
 13 24  1  0
 24 25  2  0
  9 26  1  0
 26 27  2  0
 26 28  1  0
 28 29  1  0
 29 30  1  0
 30 31  1  0
 31 32  1  0
 32 33  1  0
 33 34  2  0
 34 35  1  0
 35 36  2  0
 36 37  1  0
 37 38  2  0
 38 39  1  0
 31 40  1  0
 40 41  1  0
  5 42  2  0
 42 43  1  0
 43 44  2  0
 44  3  1  0
 28  6  1  0
 38 33  1  0
 25 10  1  0
 41 28  1  0
 22 14  1  0
  1 45  1  0
  1 46  1  0
  1 47  1  0
  4 48  1  0
 11 49  1  0
 12 50  1  0
 15 51  1  0
 16 52  1  0
 20 53  1  0
 21 54  1  0
 24 55  1  0
 25 56  1  0
 29 57  1  0
 29 58  1  0
 30 59  1  0
 30 60  1  0
 32 61  1  0
 32 62  1  0
 35 63  1  0
 36 64  1  0
 37 65  1  0
 39 66  1  0
 39 67  1  0
 39 68  1  0
 40 69  1  0
 40 70  1  0
 41 71  1  0
 41 72  1  0
 43 73  1  0
M  END
$$$$
