
     RDKit          3D

 44 45  0  0  0  0  0  0  0  0999 V2000
   -4.1614    2.8982   -1.1305 C   0  0  0  0  0  0  0  0  0  0  0  0
   -3.4194    1.7541   -0.8256 O   0  0  0  0  0  0  0  0  0  0  0  0
   -3.9715    0.6401   -0.1867 C   0  0  0  0  0  0  0  0  0  0  0  0
   -5.3025    0.6603    0.1616 C   0  0  0  0  0  0  0  0  0  0  0  0
   -5.8617   -0.4385    0.7957 C   0  0  0  0  0  0  0  0  0  0  0  0
   -5.0545   -1.5242    1.0574 C   0  0  0  0  0  0  0  0  0  0  0  0
   -5.5536   -2.6188    1.6736 F   0  0  0  0  0  0  0  0  0  0  0  0
   -3.7154   -1.5240    0.6980 C   0  0  0  0  0  0  0  0  0  0  0  0
   -3.1393   -0.4402    0.0659 C   0  0  0  0  0  0  0  0  0  0  0  0
   -1.6990   -0.4210   -0.3290 C   0  0  0  0  0  0  0  0  0  0  0  0
   -1.0877   -1.7355    0.0853 C   0  0  0  0  0  0  0  0  0  0  0  0
    0.3608   -1.8425   -0.2562 C   0  0  0  0  0  0  0  0  0  0  0  0
    1.2031   -0.7780    0.4017 C   0  0  0  0  0  0  0  0  0  0  0  0
    2.6561   -0.8968    0.0504 C   0  0  1  0  0  0  0  0  0  0  0  0
    2.9110   -0.7749   -1.4366 C   0  0  0  0  0  0  0  0  0  0  0  0
    4.3517   -0.2417   -1.3771 C   0  0  0  0  0  0  0  0  0  0  0  0
    4.1878    0.7131   -0.2130 C   0  0  2  0  0  0  0  0  0  0  0  0
    5.5191    1.1844    0.3219 C   0  0  0  0  0  0  0  0  0  0  0  0
    5.2665    2.0283    1.4581 N   0  0  0  0  0  0  0  0  0  0  0  0
    3.4563   -0.0003    0.6970 O   0  0  0  0  0  0  0  0  0  0  0  0
   -4.7930    2.7667   -2.0422 H   0  0  0  0  0  0  0  0  0  0  0  0
   -4.8127    3.2417   -0.3236 H   0  0  0  0  0  0  0  0  0  0  0  0
   -3.4568    3.7258   -1.3755 H   0  0  0  0  0  0  0  0  0  0  0  0
   -5.9622    1.4960   -0.0295 H   0  0  0  0  0  0  0  0  0  0  0  0
   -6.9162   -0.4290    1.0745 H   0  0  0  0  0  0  0  0  0  0  0  0
   -3.1270   -2.4018    0.9268 H   0  0  0  0  0  0  0  0  0  0  0  0
   -1.2230    0.4437    0.1659 H   0  0  0  0  0  0  0  0  0  0  0  0
   -1.6706   -0.3424   -1.4329 H   0  0  0  0  0  0  0  0  0  0  0  0
   -1.6248   -2.5386   -0.4600 H   0  0  0  0  0  0  0  0  0  0  0  0
   -1.1923   -1.8099    1.1869 H   0  0  0  0  0  0  0  0  0  0  0  0
    0.7300   -2.8186    0.0900 H   0  0  0  0  0  0  0  0  0  0  0  0
    0.5365   -1.8027   -1.3549 H   0  0  0  0  0  0  0  0  0  0  0  0
    0.8522    0.2293    0.1146 H   0  0  0  0  0  0  0  0  0  0  0  0
    1.1246   -0.8536    1.5050 H   0  0  0  0  0  0  0  0  0  0  0  0
    2.9741   -1.9396    0.3296 H   0  0  0  0  0  0  0  0  0  0  0  0
    2.2856   -0.0078   -1.9220 H   0  0  0  0  0  0  0  0  0  0  0  0
    2.9102   -1.7508   -1.9558 H   0  0  0  0  0  0  0  0  0  0  0  0
    4.9719   -1.1164   -1.0838 H   0  0  0  0  0  0  0  0  0  0  0  0
    4.6521    0.2443   -2.2986 H   0  0  0  0  0  0  0  0  0  0  0  0
    3.6636    1.6231   -0.5993 H   0  0  0  0  0  0  0  0  0  0  0  0
    6.2132    0.3518    0.5380 H   0  0  0  0  0  0  0  0  0  0  0  0
    5.9913    1.8056   -0.4671 H   0  0  0  0  0  0  0  0  0  0  0  0
    6.1576    2.3629    1.9110 H   0  0  0  0  0  0  0  0  0  0  0  0
    4.7692    2.8782    1.1364 H   0  0  0  0  0  0  0  0  0  0  0  0
  1  2  1  0
  2  3  1  0
  3  4  2  0
  4  5  1  0
  5  6  2  0
  6  7  1  0
  6  8  1  0
  8  9  2  0
  9 10  1  0
 10 11  1  0
 11 12  1  0
 12 13  1  0
 13 14  1  0
 14 15  1  0
 15 16  1  0
 16 17  1  0
 17 18  1  0
 18 19  1  0
 17 20  1  0
  9  3  1  0
 20 14  1  0
  1 21  1  0
  1 22  1  0
  1 23  1  0
  4 24  1  0
  5 25  1  0
  8 26  1  0
 10 27  1  0
 10 28  1  0
 11 29  1  0
 11 30  1  0
 12 31  1  0
 12 32  1  0
 13 33  1  0
 13 34  1  0
 14 35  1  1
 15 36  1  0
 15 37  1  0
 16 38  1  0
 16 39  1  0
 17 40  1  6
 18 41  1  0
 18 42  1  0
 19 43  1  0
 19 44  1  0
M  END
$$$$
