
     RDKit          3D

 53 56  0  0  0  0  0  0  0  0999 V2000
    8.8955   -1.7502    4.3632 C   0  0  0  0  0  0  0  0  0  0  0  0
    7.9073   -1.4733    3.9533 C   0  0  0  0  0  0  0  0  0  0  0  0
    6.6555   -1.1163    3.4075 C   0  0  0  0  0  0  0  0  0  0  0  0
    6.1127    0.1157    2.9757 C   0  0  0  0  0  0  0  0  0  0  0  0
    4.9624   -0.0258    2.4225 N   0  0  0  0  0  0  0  0  0  0  0  0
    4.1279   -1.0072    2.1323 C   0  0  0  0  0  0  0  0  0  0  0  0
    3.1201   -0.8512    1.1540 C   0  0  0  0  0  0  0  0  0  0  0  0
    2.2489   -1.7742    0.7850 F   0  0  0  0  0  0  0  0  0  0  0  0
    3.0166    0.3571    0.5686 C   0  0  0  0  0  0  0  0  0  0  0  0
    2.1754    0.8221   -0.4741 C   0  0  0  0  0  0  0  0  0  0  0  0
    2.8655    1.5350   -1.4875 C   0  0  0  0  0  0  0  0  0  0  0  0
    2.2105    1.9761   -2.5792 C   0  0  0  0  0  0  0  0  0  0  0  0
    0.8295    1.7379   -2.6956 C   0  0  0  0  0  0  0  0  0  0  0  0
    0.2161    2.1916   -3.8069 F   0  0  0  0  0  0  0  0  0  0  0  0
    0.1705    1.0624   -1.7030 C   0  0  0  0  0  0  0  0  0  0  0  0
   -1.3189    0.9410   -1.7694 C   0  0  1  0  0  0  0  0  0  0  0  0
   -1.9380    2.2928   -1.7591 C   0  0  0  0  0  0  0  0  0  0  0  0
   -1.5534    0.1936   -2.9932 N   0  0  0  0  0  0  0  0  0  0  0  0
   -2.6292   -0.3730   -3.3231 C   0  0  0  0  0  0  0  0  0  0  0  0
   -2.8493   -1.1055   -4.4820 N   0  0  0  0  0  0  0  0  0  0  0  0
   -3.9705   -0.2180   -2.0908 S   0  0  0  0  0  0  0  0  0  0  0  0
   -3.0776   -0.4156   -0.5115 C   0  0  1  0  0  0  0  0  0  0  0  0
   -3.9330   -0.5142    0.6655 C   0  0  0  0  0  0  0  0  0  0  0  0
   -3.5237   -1.3513    1.5581 O   0  0  0  0  0  0  0  0  0  0  0  0
   -5.1226    0.1480    0.9716 N   0  0  0  0  0  0  0  0  0  0  0  0
   -5.7625    1.2040    0.2040 C   0  0  0  0  0  0  0  0  0  0  0  0
   -5.8787   -0.2727    2.1759 C   0  0  0  0  0  0  0  0  0  0  0  0
   -1.8372   -1.2715   -0.5788 C   0  0  0  0  0  0  0  0  0  0  0  0
   -1.7678    0.2040   -0.5205 C   0  0  1  0  0  0  0  0  0  0  0  0
    0.8468    0.6128   -0.6167 C   0  0  0  0  0  0  0  0  0  0  0  0
    4.6721   -2.2809    2.5870 C   0  0  0  0  0  0  0  0  0  0  0  0
    5.8310   -2.2170    3.1545 N   0  0  0  0  0  0  0  0  0  0  0  0
    9.9088   -2.0191    4.7871 H   0  0  0  0  0  0  0  0  0  0  0  0
    6.7440    0.9614    3.1452 H   0  0  0  0  0  0  0  0  0  0  0  0
    3.6251    1.1442    1.0644 H   0  0  0  0  0  0  0  0  0  0  0  0
    3.9253    1.8318   -1.3227 H   0  0  0  0  0  0  0  0  0  0  0  0
    2.7387    2.5024   -3.3736 H   0  0  0  0  0  0  0  0  0  0  0  0
   -3.0403    2.2218   -1.4752 H   0  0  0  0  0  0  0  0  0  0  0  0
   -1.4874    2.9313   -0.9849 H   0  0  0  0  0  0  0  0  0  0  0  0
   -1.8488    2.8171   -2.7419 H   0  0  0  0  0  0  0  0  0  0  0  0
   -3.0886   -2.1891   -4.3430 H   0  0  0  0  0  0  0  0  0  0  0  0
   -2.8369   -0.8594   -5.4496 H   0  0  0  0  0  0  0  0  0  0  0  0
   -5.9282    0.7697   -0.8007 H   0  0  0  0  0  0  0  0  0  0  0  0
   -5.0508    2.0676    0.1501 H   0  0  0  0  0  0  0  0  0  0  0  0
   -6.7010    1.5457    0.6538 H   0  0  0  0  0  0  0  0  0  0  0  0
   -6.8125   -0.7413    1.7375 H   0  0  0  0  0  0  0  0  0  0  0  0
   -5.3362   -0.9983    2.7802 H   0  0  0  0  0  0  0  0  0  0  0  0
   -6.1719    0.5904    2.7639 H   0  0  0  0  0  0  0  0  0  0  0  0
   -1.6066   -1.8361    0.3317 H   0  0  0  0  0  0  0  0  0  0  0  0
   -1.6305   -1.8121   -1.5376 H   0  0  0  0  0  0  0  0  0  0  0  0
   -1.4743    0.7105    0.4193 H   0  0  0  0  0  0  0  0  0  0  0  0
    0.3197    0.0138    0.1148 H   0  0  0  0  0  0  0  0  0  0  0  0
    4.0505   -3.1302    2.3940 H   0  0  0  0  0  0  0  0  0  0  0  0
  1  2  3  0
  2  3  1  0
  3  4  2  0
  4  5  1  0
  5  6  2  0
  6  7  1  0
  7  8  1  0
  7  9  2  0
  9 10  1  0
 10 11  2  0
 11 12  1  0
 12 13  2  0
 13 14  1  0
 13 15  1  0
 15 16  1  0
 16 17  1  6
 16 18  1  0
 18 19  2  0
 19 20  1  0
 19 21  1  0
 21 22  1  0
 22 23  1  1
 23 24  2  0
 23 25  1  0
 25 26  1  0
 25 27  1  0
 22 28  1  0
 28 29  1  0
 15 30  2  0
  6 31  1  0
 31 32  2  0
 32  3  1  0
 30 10  1  0
 29 16  1  0
 29 22  1  0
  1 33  1  0
  4 34  1  0
  9 35  1  0
 11 36  1  0
 12 37  1  0
 17 38  1  0
 17 39  1  0
 17 40  1  0
 20 41  1  0
 20 42  1  0
 26 43  1  0
 26 44  1  0
 26 45  1  0
 27 46  1  0
 27 47  1  0
 27 48  1  0
 28 49  1  0
 28 50  1  0
 29 51  1  1
 30 52  1  0
 31 53  1  0
M  END
$$$$
