
     RDKit          3D

 56 58  0  0  0  0  0  0  0  0999 V2000
    8.4968   -1.8492    0.7114 C   0  0  0  0  0  0  0  0  0  0  0  0
    8.2180   -0.9702   -0.4321 N   0  0  0  0  0  0  0  0  0  0  0  0
    8.4106   -1.7915   -1.6156 C   0  0  0  0  0  0  0  0  0  0  0  0
    6.8214   -0.5730   -0.2903 C   0  0  0  0  0  0  0  0  0  0  0  0
    6.3915    0.3389   -1.4097 C   0  0  0  0  0  0  0  0  0  0  0  0
    5.0037    0.7031   -1.2163 N   0  0  0  0  0  0  0  0  0  0  0  0
    3.9249   -0.1887   -1.1768 C   0  0  0  0  0  0  0  0  0  0  0  0
    4.1568   -1.4215   -1.3224 O   0  0  0  0  0  0  0  0  0  0  0  0
    2.5376    0.2280   -0.9751 C   0  0  0  0  0  0  0  0  0  0  0  0
    2.1433    1.5250   -0.7976 C   0  0  0  0  0  0  0  0  0  0  0  0
    0.8411    1.9119   -0.6061 C   0  0  0  0  0  0  0  0  0  0  0  0
   -0.1493    0.9456   -0.5880 C   0  0  0  0  0  0  0  0  0  0  0  0
   -1.5518    1.3680   -0.3763 C   0  0  0  0  0  0  0  0  0  0  0  0
   -2.2455    2.2985   -0.1939 N   0  0  0  0  0  0  0  0  0  0  0  0
   -3.5222    2.3498   -0.0340 N   0  0  0  0  0  0  0  0  0  0  0  0
   -4.2716    3.5991    0.1892 C   0  0  0  0  0  0  0  0  0  0  0  0
   -4.1660    1.1951   -0.0784 C   0  0  0  0  0  0  0  0  0  0  0  0
   -5.3972    0.7425    0.0245 N   0  0  0  0  0  0  0  0  0  0  0  0
   -5.7041   -0.6182   -0.0833 C   0  0  0  0  0  0  0  0  0  0  0  0
   -7.2225   -0.7308    0.0471 C   0  0  0  0  0  0  0  0  0  0  0  0
   -7.5928   -0.0913    1.3615 C   0  0  0  0  0  0  0  0  0  0  0  0
   -6.4824    0.0518    2.3364 C   0  0  0  0  0  0  0  0  0  0  0  0
   -5.4486   -1.0195    2.3270 C   0  0  0  0  0  0  0  0  0  0  0  0
   -5.1485   -1.5471    0.9426 C   0  0  0  0  0  0  0  0  0  0  0  0
   -2.8957    0.0261   -0.3561 S   0  0  0  0  0  0  0  0  0  0  0  0
    0.2056   -0.3716   -0.7633 C   0  0  0  0  0  0  0  0  0  0  0  0
    1.5259   -0.7257   -0.9536 C   0  0  0  0  0  0  0  0  0  0  0  0
    7.7478   -2.6807    0.7063 H   0  0  0  0  0  0  0  0  0  0  0  0
    8.3230   -1.2639    1.6174 H   0  0  0  0  0  0  0  0  0  0  0  0
    9.4993   -2.2982    0.6324 H   0  0  0  0  0  0  0  0  0  0  0  0
    9.4296   -2.2311   -1.5434 H   0  0  0  0  0  0  0  0  0  0  0  0
    7.7120   -2.6616   -1.5646 H   0  0  0  0  0  0  0  0  0  0  0  0
    8.2623   -1.1940   -2.5170 H   0  0  0  0  0  0  0  0  0  0  0  0
    6.7410   -0.0758    0.6974 H   0  0  0  0  0  0  0  0  0  0  0  0
    6.2433   -1.5101   -0.3450 H   0  0  0  0  0  0  0  0  0  0  0  0
    6.4857   -0.1936   -2.3972 H   0  0  0  0  0  0  0  0  0  0  0  0
    7.0044    1.2466   -1.4861 H   0  0  0  0  0  0  0  0  0  0  0  0
    4.7840    1.7218   -1.0949 H   0  0  0  0  0  0  0  0  0  0  0  0
    2.8960    2.3121   -0.8056 H   0  0  0  0  0  0  0  0  0  0  0  0
    0.5603    2.9373   -0.4689 H   0  0  0  0  0  0  0  0  0  0  0  0
   -4.7445    3.9498   -0.7696 H   0  0  0  0  0  0  0  0  0  0  0  0
   -3.6568    4.3936    0.6007 H   0  0  0  0  0  0  0  0  0  0  0  0
   -5.1326    3.4247    0.8761 H   0  0  0  0  0  0  0  0  0  0  0  0
   -5.4391   -0.9935   -1.1108 H   0  0  0  0  0  0  0  0  0  0  0  0
   -7.5153   -1.8042    0.0552 H   0  0  0  0  0  0  0  0  0  0  0  0
   -7.7318   -0.1977   -0.7940 H   0  0  0  0  0  0  0  0  0  0  0  0
   -7.9455    0.9543    1.1183 H   0  0  0  0  0  0  0  0  0  0  0  0
   -8.4918   -0.5960    1.7754 H   0  0  0  0  0  0  0  0  0  0  0  0
   -6.9528    0.0366    3.3659 H   0  0  0  0  0  0  0  0  0  0  0  0
   -5.9689    1.0433    2.3081 H   0  0  0  0  0  0  0  0  0  0  0  0
   -4.5224   -0.6197    2.7889 H   0  0  0  0  0  0  0  0  0  0  0  0
   -5.7819   -1.8528    3.0131 H   0  0  0  0  0  0  0  0  0  0  0  0
   -4.1195   -1.8729    0.8019 H   0  0  0  0  0  0  0  0  0  0  0  0
   -5.7664   -2.4943    0.8516 H   0  0  0  0  0  0  0  0  0  0  0  0
   -0.5898   -1.1072   -0.7446 H   0  0  0  0  0  0  0  0  0  0  0  0
    1.7914   -1.7580   -1.0894 H   0  0  0  0  0  0  0  0  0  0  0  0
  1  2  1  0
  2  3  1  0
  2  4  1  0
  4  5  1  0
  5  6  1  0
  6  7  1  0
  7  8  2  0
  7  9  1  0
  9 10  2  0
 10 11  1  0
 11 12  2  0
 12 13  1  0
 13 14  2  0
 14 15  1  0
 15 16  1  0
 15 17  1  0
 17 18  2  0
 18 19  1  0
 19 20  1  0
 20 21  1  0
 21 22  1  0
 22 23  1  0
 23 24  1  0
 17 25  1  0
 12 26  1  0
 26 27  2  0
 27  9  1  0
 25 13  1  0
 24 19  1  0
  1 28  1  0
  1 29  1  0
  1 30  1  0
  3 31  1  0
  3 32  1  0
  3 33  1  0
  4 34  1  0
  4 35  1  0
  5 36  1  0
  5 37  1  0
  6 38  1  0
 10 39  1  0
 11 40  1  0
 16 41  1  0
 16 42  1  0
 16 43  1  0
 19 44  1  0
 20 45  1  0
 20 46  1  0
 21 47  1  0
 21 48  1  0
 22 49  1  0
 22 50  1  0
 23 51  1  0
 23 52  1  0
 24 53  1  0
 24 54  1  0
 26 55  1  0
 27 56  1  0
M  END
$$$$
