
     RDKit          3D

 53 56  0  0  0  0  0  0  0  0999 V2000
    5.8922    0.8429    1.1128 N   0  0  0  0  0  0  0  0  0  0  0  0
    6.3945   -0.4263    0.7171 C   0  0  0  0  0  0  0  0  0  0  0  0
    7.5213   -0.7527    1.2108 O   0  0  0  0  0  0  0  0  0  0  0  0
    5.6538   -1.3112   -0.2099 C   0  0  0  0  0  0  0  0  0  0  0  0
    5.4121   -0.6811   -1.5479 C   0  0  0  0  0  0  0  0  0  0  0  0
    4.3205    0.3373   -1.5626 C   0  0  0  0  0  0  0  0  0  0  0  0
    3.0596   -0.1154   -0.8598 C   0  0  0  0  0  0  0  0  0  0  0  0
    2.8202    0.7708    0.2213 N   0  0  0  0  0  0  0  0  0  0  0  0
    1.6394    0.4721    0.9928 C   0  0  1  0  0  0  0  0  0  0  0  0
    1.2585    1.3070    2.1521 C   0  0  0  0  0  0  0  0  0  0  0  0
    0.5508    1.5291    0.8553 C   0  0  2  0  0  0  0  0  0  0  0  0
   -0.8435    1.1163    0.6738 C   0  0  0  0  0  0  0  0  0  0  0  0
   -1.7367    1.8737   -0.0596 C   0  0  0  0  0  0  0  0  0  0  0  0
   -3.0592    1.4492   -0.2115 C   0  0  0  0  0  0  0  0  0  0  0  0
   -3.4886    0.2767    0.3644 C   0  0  0  0  0  0  0  0  0  0  0  0
   -4.8523   -0.2171    0.2417 C   0  0  0  0  0  0  0  0  0  0  0  0
   -5.2150   -1.4008    0.8449 C   0  0  0  0  0  0  0  0  0  0  0  0
   -6.4777   -1.9270    0.7729 C   0  0  0  0  0  0  0  0  0  0  0  0
   -7.4230   -1.2279    0.0587 C   0  0  0  0  0  0  0  0  0  0  0  0
   -7.0898   -0.0407   -0.5557 C   0  0  0  0  0  0  0  0  0  0  0  0
   -8.1325    0.6813   -1.3139 C   0  0  0  0  0  0  0  0  0  0  0  0
   -8.8162   -0.1862   -2.1497 F   0  0  0  0  0  0  0  0  0  0  0  0
   -9.0700    1.2187   -0.4389 F   0  0  0  0  0  0  0  0  0  0  0  0
   -7.5803    1.7186   -2.0379 F   0  0  0  0  0  0  0  0  0  0  0  0
   -5.7936    0.4743   -0.4667 C   0  0  0  0  0  0  0  0  0  0  0  0
   -2.5635   -0.4260    1.0745 N   0  0  0  0  0  0  0  0  0  0  0  0
   -1.2925   -0.0578    1.2445 C   0  0  0  0  0  0  0  0  0  0  0  0
    3.2087   -1.5600   -0.4644 C   0  0  0  0  0  0  0  0  0  0  0  0
    4.3801   -1.8035    0.4348 C   0  0  0  0  0  0  0  0  0  0  0  0
    6.3242    1.6858    0.6770 H   0  0  0  0  0  0  0  0  0  0  0  0
    5.1173    0.9174    1.8163 H   0  0  0  0  0  0  0  0  0  0  0  0
    6.3101   -2.2111   -0.3983 H   0  0  0  0  0  0  0  0  0  0  0  0
    6.3493   -0.1705   -1.8647 H   0  0  0  0  0  0  0  0  0  0  0  0
    5.1520   -1.4831   -2.2820 H   0  0  0  0  0  0  0  0  0  0  0  0
    4.1147    0.6108   -2.6112 H   0  0  0  0  0  0  0  0  0  0  0  0
    4.7464    1.2735   -1.0959 H   0  0  0  0  0  0  0  0  0  0  0  0
    2.2246   -0.0730   -1.5994 H   0  0  0  0  0  0  0  0  0  0  0  0
    2.8663    1.7425   -0.1090 H   0  0  0  0  0  0  0  0  0  0  0  0
    1.2673   -0.5587    0.9384 H   0  0  0  0  0  0  0  0  0  0  0  0
    2.0056    2.0717    2.5034 H   0  0  0  0  0  0  0  0  0  0  0  0
    0.6823    0.8798    2.9730 H   0  0  0  0  0  0  0  0  0  0  0  0
    0.8208    2.5025    0.3600 H   0  0  0  0  0  0  0  0  0  0  0  0
   -1.4265    2.8080   -0.5283 H   0  0  0  0  0  0  0  0  0  0  0  0
   -3.7471    2.0569   -0.7910 H   0  0  0  0  0  0  0  0  0  0  0  0
   -4.4700   -1.9468    1.4048 H   0  0  0  0  0  0  0  0  0  0  0  0
   -6.7778   -2.8550    1.2409 H   0  0  0  0  0  0  0  0  0  0  0  0
   -8.4264   -1.6282   -0.0093 H   0  0  0  0  0  0  0  0  0  0  0  0
   -5.5992    1.3988   -0.9652 H   0  0  0  0  0  0  0  0  0  0  0  0
   -0.5723   -0.6311    1.8134 H   0  0  0  0  0  0  0  0  0  0  0  0
    3.4176   -2.1227   -1.4211 H   0  0  0  0  0  0  0  0  0  0  0  0
    2.3115   -2.0053   -0.0435 H   0  0  0  0  0  0  0  0  0  0  0  0
    4.2029   -1.3065    1.4135 H   0  0  0  0  0  0  0  0  0  0  0  0
    4.4290   -2.8900    0.6413 H   0  0  0  0  0  0  0  0  0  0  0  0
  1  2  1  0
  2  3  2  0
  2  4  1  0
  4  5  1  0
  5  6  1  0
  6  7  1  0
  7  8  1  0
  8  9  1  0
  9 10  1  0
 10 11  1  0
 11 12  1  0
 12 13  2  0
 13 14  1  0
 14 15  2  0
 15 16  1  0
 16 17  2  0
 17 18  1  0
 18 19  2  0
 19 20  1  0
 20 21  1  0
 21 22  1  0
 21 23  1  0
 21 24  1  0
 20 25  2  0
 15 26  1  0
 26 27  2  0
  7 28  1  0
 28 29  1  0
 29  4  1  0
 11  9  1  0
 27 12  1  0
 25 16  1  0
  1 30  1  0
  1 31  1  0
  4 32  1  0
  5 33  1  0
  5 34  1  0
  6 35  1  0
  6 36  1  0
  7 37  1  0
  8 38  1  0
  9 39  1  1
 10 40  1  0
 10 41  1  0
 11 42  1  6
 13 43  1  0
 14 44  1  0
 17 45  1  0
 18 46  1  0
 19 47  1  0
 25 48  1  0
 27 49  1  0
 28 50  1  0
 28 51  1  0
 29 52  1  0
 29 53  1  0
M  END
$$$$
