
     RDKit          3D

 38 40  0  0  0  0  0  0  0  0999 V2000
    2.1841   -2.5136    0.0954 O   0  0  0  0  0  0  0  0  0  0  0  0
    2.4595   -1.2819    0.0915 C   0  0  0  0  0  0  0  0  0  0  0  0
    3.6964   -0.6716   -0.3297 C   0  0  0  0  0  0  0  0  0  0  0  0
    4.8869   -1.1835   -0.8254 C   0  0  0  0  0  0  0  0  0  0  0  0
    5.9288   -0.3417   -1.1534 C   0  0  0  0  0  0  0  0  0  0  0  0
    5.7944    1.0310   -0.9895 C   0  0  0  0  0  0  0  0  0  0  0  0
    4.6216    1.5301   -0.5016 C   0  0  0  0  0  0  0  0  0  0  0  0
    3.5580    0.6841   -0.1657 C   0  0  0  0  0  0  0  0  0  0  0  0
    2.2197    0.9837    0.3689 C   0  0  0  0  0  0  0  0  0  0  0  0
    1.5503   -0.2862    0.5197 N   0  0  0  0  0  0  0  0  0  0  0  0
    0.2074   -0.4164    1.0207 C   0  0  0  0  0  0  0  0  0  0  0  0
   -0.7401   -0.3530   -0.1144 C   0  0  0  0  0  0  0  0  0  0  0  0
   -0.2730   -0.2053   -1.2718 O   0  0  0  0  0  0  0  0  0  0  0  0
   -2.1480   -0.4560    0.0895 N   0  0  0  0  0  0  0  0  0  0  0  0
   -2.7669   -0.6272    1.3868 C   0  0  0  0  0  0  0  0  0  0  0  0
   -4.2536   -0.4590    1.0992 C   0  0  0  0  0  0  0  0  0  0  0  0
   -4.3240   -1.1202   -0.2753 C   0  0  0  0  0  0  0  0  0  0  0  0
   -3.1456   -0.4053   -0.9530 C   0  0  1  0  0  0  0  0  0  0  0  0
   -3.6392    1.0899   -1.2018 B   0  0  0  0  0  0  0  0  0  0  0  0
   -2.7794    2.1777   -0.6946 O   0  0  0  0  0  0  0  0  0  0  0  0
   -5.0451    1.4254   -1.4081 O   0  0  0  0  0  0  0  0  0  0  0  0
    4.9457   -2.2529   -0.9356 H   0  0  0  0  0  0  0  0  0  0  0  0
    6.8605   -0.7335   -1.5406 H   0  0  0  0  0  0  0  0  0  0  0  0
    6.6326    1.6620   -1.2572 H   0  0  0  0  0  0  0  0  0  0  0  0
    4.4924    2.6035   -0.3643 H   0  0  0  0  0  0  0  0  0  0  0  0
    2.3239    1.5033    1.3421 H   0  0  0  0  0  0  0  0  0  0  0  0
    1.6639    1.5935   -0.3620 H   0  0  0  0  0  0  0  0  0  0  0  0
   -0.0325    0.3110    1.8179 H   0  0  0  0  0  0  0  0  0  0  0  0
    0.1515   -1.4259    1.5130 H   0  0  0  0  0  0  0  0  0  0  0  0
   -2.5722   -1.6862    1.6924 H   0  0  0  0  0  0  0  0  0  0  0  0
   -2.4007    0.0989    2.1355 H   0  0  0  0  0  0  0  0  0  0  0  0
   -4.8890   -0.9456    1.8388 H   0  0  0  0  0  0  0  0  0  0  0  0
   -4.4598    0.6266    0.9635 H   0  0  0  0  0  0  0  0  0  0  0  0
   -5.2671   -0.9427   -0.7865 H   0  0  0  0  0  0  0  0  0  0  0  0
   -4.0550   -2.1950   -0.1612 H   0  0  0  0  0  0  0  0  0  0  0  0
   -2.8418   -0.9014   -1.8785 H   0  0  0  0  0  0  0  0  0  0  0  0
   -3.1461    3.0568   -0.9636 H   0  0  0  0  0  0  0  0  0  0  0  0
   -5.3986    1.0263   -2.2607 H   0  0  0  0  0  0  0  0  0  0  0  0
  1  2  2  0
  2  3  1  0
  3  4  2  0
  4  5  1  0
  5  6  2  0
  6  7  1  0
  7  8  2  0
  8  9  1  0
  9 10  1  0
 10 11  1  0
 11 12  1  0
 12 13  2  0
 12 14  1  0
 14 15  1  0
 15 16  1  0
 16 17  1  0
 17 18  1  0
 18 19  1  0
 19 20  1  0
 19 21  1  0
 10  2  1  0
 18 14  1  0
  8  3  1  0
  4 22  1  0
  5 23  1  0
  6 24  1  0
  7 25  1  0
  9 26  1  0
  9 27  1  0
 11 28  1  0
 11 29  1  0
 15 30  1  0
 15 31  1  0
 16 32  1  0
 16 33  1  0
 17 34  1  0
 17 35  1  0
 18 36  1  6
 20 37  1  0
 21 38  1  0
M  END
$$$$
