
     RDKit          3D

 90 95  0  0  0  0  0  0  0  0999 V2000
   -8.7380   -6.3385    1.3688 C   0  0  0  0  0  0  0  0  0  0  0  0
   -8.4236   -5.6484    0.1962 O   0  0  0  0  0  0  0  0  0  0  0  0
   -8.2370   -4.2819    0.1707 C   0  0  0  0  0  0  0  0  0  0  0  0
   -8.3747   -3.5918    1.3697 C   0  0  0  0  0  0  0  0  0  0  0  0
   -8.1918   -2.2237    1.3714 C   0  0  0  0  0  0  0  0  0  0  0  0
   -7.8742   -1.5020    0.2180 C   0  0  0  0  0  0  0  0  0  0  0  0
   -7.6851   -0.1031    0.2580 N   0  0  0  0  0  0  0  0  0  0  0  0
   -8.5793    0.8093    0.5421 N   0  0  0  0  0  0  0  0  0  0  0  0
   -8.0645    2.0275    0.4891 C   0  0  0  0  0  0  0  0  0  0  0  0
   -8.7347    3.3392    0.7501 C   0  0  0  0  0  0  0  0  0  0  0  0
   -7.8119    4.1686    1.6128 C   0  0  0  0  0  0  0  0  0  0  0  0
   -8.8620    3.9939   -0.6216 C   0  0  0  0  0  0  0  0  0  0  0  0
   -6.7190    1.8668    0.1381 C   0  0  0  0  0  0  0  0  0  0  0  0
   -6.5089    0.5202   -0.0004 C   0  0  0  0  0  0  0  0  0  0  0  0
   -5.2804   -0.1343   -0.3416 N   0  0  0  0  0  0  0  0  0  0  0  0
   -4.1202    0.6109   -0.5113 C   0  0  0  0  0  0  0  0  0  0  0  0
   -4.0169    1.8628   -0.3835 O   0  0  0  0  0  0  0  0  0  0  0  0
   -2.8880   -0.0504   -0.8652 N   0  0  0  0  0  0  0  0  0  0  0  0
   -1.6923    0.6878   -1.0300 C   0  0  0  0  0  0  0  0  0  0  0  0
   -1.3591    1.1896   -2.2587 C   0  0  0  0  0  0  0  0  0  0  0  0
   -0.2085    1.9224   -2.3836 C   0  0  0  0  0  0  0  0  0  0  0  0
    0.6368    2.1814   -1.3259 C   0  0  0  0  0  0  0  0  0  0  0  0
    1.7757    2.9118   -1.4668 O   0  0  0  0  0  0  0  0  0  0  0  0
    3.0911    2.4712   -1.2761 C   0  0  0  0  0  0  0  0  0  0  0  0
    4.1250    3.3724   -1.4381 C   0  0  0  0  0  0  0  0  0  0  0  0
    5.4094    2.9384   -1.2507 C   0  0  0  0  0  0  0  0  0  0  0  0
    5.6047    1.6583   -0.9172 N   0  0  0  0  0  0  0  0  0  0  0  0
    4.6523    0.7424   -0.7465 C   0  0  0  0  0  0  0  0  0  0  0  0
    4.8748   -0.5965   -0.3810 N   0  0  0  0  0  0  0  0  0  0  0  0
    6.1369   -1.1835   -0.1287 C   0  0  0  0  0  0  0  0  0  0  0  0
    6.1776   -2.5054    0.3717 C   0  0  0  0  0  0  0  0  0  0  0  0
    7.3581   -3.1429    0.6436 C   0  0  0  0  0  0  0  0  0  0  0  0
    7.4151   -4.4430    1.1375 O   0  0  0  0  0  0  0  0  0  0  0  0
    6.2419   -5.1906    1.3908 C   0  0  0  0  0  0  0  0  0  0  0  0
    8.5645   -2.5095    0.4358 C   0  0  0  0  0  0  0  0  0  0  0  0
    8.5844   -1.2220   -0.0502 C   0  0  0  0  0  0  0  0  0  0  0  0
    9.8514   -0.5483   -0.2622 C   0  0  0  0  0  0  0  0  0  0  0  0
   10.8994   -1.1726    0.0394 O   0  0  0  0  0  0  0  0  0  0  0  0
   10.0032    0.7542   -0.7800 N   0  0  0  0  0  0  0  0  0  0  0  0
   11.2216    1.4684   -1.0013 C   0  0  0  0  0  0  0  0  0  0  0  0
   12.0596    1.7388    0.1981 C   0  0  0  0  0  0  0  0  0  0  0  0
   12.4993    0.6358    0.8740 O   0  0  0  0  0  0  0  0  0  0  0  0
    7.3648   -0.6052   -0.3155 C   0  0  0  0  0  0  0  0  0  0  0  0
    3.3771    1.2116   -0.9430 N   0  0  0  0  0  0  0  0  0  0  0  0
    0.2980    1.6749   -0.0894 C   0  0  0  0  0  0  0  0  0  0  0  0
    1.0833    1.8981    1.0076 C   0  0  0  0  0  0  0  0  0  0  0  0
    0.7569    1.3966    2.2719 C   0  0  0  0  0  0  0  0  0  0  0  0
   -0.3939    0.6621    2.3874 C   0  0  0  0  0  0  0  0  0  0  0  0
   -1.2042    0.4237    1.3024 C   0  0  0  0  0  0  0  0  0  0  0  0
   -0.8835    0.9173    0.0561 C   0  0  0  0  0  0  0  0  0  0  0  0
   -7.7494   -2.2358   -0.9480 C   0  0  0  0  0  0  0  0  0  0  0  0
   -7.9228   -3.5981   -0.9928 C   0  0  0  0  0  0  0  0  0  0  0  0
   -9.6252   -5.8820    1.8528 H   0  0  0  0  0  0  0  0  0  0  0  0
   -7.8872   -6.3198    2.0819 H   0  0  0  0  0  0  0  0  0  0  0  0
   -8.9665   -7.4042    1.1819 H   0  0  0  0  0  0  0  0  0  0  0  0
   -8.6170   -4.0658    2.3000 H   0  0  0  0  0  0  0  0  0  0  0  0
   -8.2847   -1.6182    2.2747 H   0  0  0  0  0  0  0  0  0  0  0  0
   -9.6955    3.2267    1.2386 H   0  0  0  0  0  0  0  0  0  0  0  0
   -8.2176    5.1851    1.6968 H   0  0  0  0  0  0  0  0  0  0  0  0
   -6.8160    4.2760    1.1189 H   0  0  0  0  0  0  0  0  0  0  0  0
   -7.7502    3.7303    2.6220 H   0  0  0  0  0  0  0  0  0  0  0  0
   -9.7342    3.5503   -1.1721 H   0  0  0  0  0  0  0  0  0  0  0  0
   -9.0707    5.0768   -0.5613 H   0  0  0  0  0  0  0  0  0  0  0  0
   -7.9545    3.8037   -1.2083 H   0  0  0  0  0  0  0  0  0  0  0  0
   -6.0378    2.7094    0.0183 H   0  0  0  0  0  0  0  0  0  0  0  0
   -5.3153   -1.1907   -0.4587 H   0  0  0  0  0  0  0  0  0  0  0  0
   -2.8597   -1.0775   -1.0055 H   0  0  0  0  0  0  0  0  0  0  0  0
   -2.0168    0.9976   -3.1230 H   0  0  0  0  0  0  0  0  0  0  0  0
    0.0546    2.3170   -3.3368 H   0  0  0  0  0  0  0  0  0  0  0  0
    3.8818    4.4007   -1.7113 H   0  0  0  0  0  0  0  0  0  0  0  0
    6.2534    3.6368   -1.3733 H   0  0  0  0  0  0  0  0  0  0  0  0
    4.0033   -1.2061   -0.2908 H   0  0  0  0  0  0  0  0  0  0  0  0
    5.2405   -3.0146    0.5391 H   0  0  0  0  0  0  0  0  0  0  0  0
    5.5735   -5.1346    0.5111 H   0  0  0  0  0  0  0  0  0  0  0  0
    5.7322   -4.6997    2.2585 H   0  0  0  0  0  0  0  0  0  0  0  0
    6.5307   -6.2251    1.6412 H   0  0  0  0  0  0  0  0  0  0  0  0
    9.5034   -2.9982    0.6460 H   0  0  0  0  0  0  0  0  0  0  0  0
    9.0858    1.2387   -1.0297 H   0  0  0  0  0  0  0  0  0  0  0  0
   10.9598    2.4743   -1.4444 H   0  0  0  0  0  0  0  0  0  0  0  0
   11.8714    1.0029   -1.7735 H   0  0  0  0  0  0  0  0  0  0  0  0
   12.9565    2.3204   -0.1663 H   0  0  0  0  0  0  0  0  0  0  0  0
   11.5578    2.4784    0.8906 H   0  0  0  0  0  0  0  0  0  0  0  0
   13.4207    0.4039    0.5746 H   0  0  0  0  0  0  0  0  0  0  0  0
    7.3742    0.3983   -0.6998 H   0  0  0  0  0  0  0  0  0  0  0  0
    1.9670    2.4870    0.9323 H   0  0  0  0  0  0  0  0  0  0  0  0
    1.4195    1.6068    3.1031 H   0  0  0  0  0  0  0  0  0  0  0  0
   -0.6518    0.2665    3.3672 H   0  0  0  0  0  0  0  0  0  0  0  0
   -2.1094   -0.1695    1.4623 H   0  0  0  0  0  0  0  0  0  0  0  0
   -7.5051   -1.7111   -1.8586 H   0  0  0  0  0  0  0  0  0  0  0  0
   -7.8101   -4.0993   -1.9312 H   0  0  0  0  0  0  0  0  0  0  0  0
  1  2  1  0
  2  3  1  0
  3  4  2  0
  4  5  1  0
  5  6  2  0
  6  7  1  0
  7  8  1  0
  8  9  2  0
  9 10  1  0
 10 11  1  0
 10 12  1  0
  9 13  1  0
 13 14  2  0
 14 15  1  0
 15 16  1  0
 16 17  2  0
 16 18  1  0
 18 19  1  0
 19 20  2  0
 20 21  1  0
 21 22  2  0
 22 23  1  0
 23 24  1  0
 24 25  2  0
 25 26  1  0
 26 27  2  0
 27 28  1  0
 28 29  1  0
 29 30  1  0
 30 31  2  0
 31 32  1  0
 32 33  1  0
 33 34  1  0
 32 35  2  0
 35 36  1  0
 36 37  1  0
 37 38  2  0
 37 39  1  0
 39 40  1  0
 40 41  1  0
 41 42  1  0
 36 43  2  0
 28 44  2  0
 22 45  1  0
 45 46  2  0
 46 47  1  0
 47 48  2  0
 48 49  1  0
 49 50  2  0
  6 51  1  0
 51 52  2  0
 52  3  1  0
 14  7  1  0
 50 19  1  0
 44 24  1  0
 50 45  1  0
 43 30  1  0
  1 53  1  0
  1 54  1  0
  1 55  1  0
  4 56  1  0
  5 57  1  0
 10 58  1  0
 11 59  1  0
 11 60  1  0
 11 61  1  0
 12 62  1  0
 12 63  1  0
 12 64  1  0
 13 65  1  0
 15 66  1  0
 18 67  1  0
 20 68  1  0
 21 69  1  0
 25 70  1  0
 26 71  1  0
 29 72  1  0
 31 73  1  0
 34 74  1  0
 34 75  1  0
 34 76  1  0
 35 77  1  0
 39 78  1  0
 40 79  1  0
 40 80  1  0
 41 81  1  0
 41 82  1  0
 42 83  1  0
 43 84  1  0
 46 85  1  0
 47 86  1  0
 48 87  1  0
 49 88  1  0
 51 89  1  0
 52 90  1  0
M  END
$$$$
