
     RDKit          3D

 73 77  0  0  0  0  0  0  0  0999 V2000
   -8.8303    3.0626    2.2825 C   0  0  0  0  0  0  0  0  0  0  0  0
   -8.0033    1.9342    2.0682 O   0  0  0  0  0  0  0  0  0  0  0  0
   -7.7215    1.4982    0.7721 C   0  0  0  0  0  0  0  0  0  0  0  0
   -8.1391    2.0132   -0.4044 N   0  0  0  0  0  0  0  0  0  0  0  0
   -7.6678    1.3324   -1.4303 N   0  0  0  0  0  0  0  0  0  0  0  0
   -7.8822    1.5591   -2.8509 C   0  0  0  0  0  0  0  0  0  0  0  0
   -6.9121    0.3324   -0.9060 C   0  0  0  0  0  0  0  0  0  0  0  0
   -6.9296    0.4140    0.4668 C   0  0  0  0  0  0  0  0  0  0  0  0
   -6.2763   -0.4383    1.3927 N   0  0  0  0  0  0  0  0  0  0  0  0
   -5.4779   -1.5209    0.8700 C   0  0  0  0  0  0  0  0  0  0  0  0
   -6.0347   -2.7043    0.5807 N   0  0  0  0  0  0  0  0  0  0  0  0
   -5.3682   -3.7593    0.0933 C   0  0  0  0  0  0  0  0  0  0  0  0
   -3.9951   -3.5807   -0.1177 C   0  0  0  0  0  0  0  0  0  0  0  0
   -3.1549   -4.6818   -0.6549 C   0  0  0  0  0  0  0  0  0  0  0  0
   -3.3797   -2.3788    0.1666 C   0  0  0  0  0  0  0  0  0  0  0  0
   -1.9486   -2.2394   -0.0577 C   0  0  0  0  0  0  0  0  0  0  0  0
   -1.1824   -2.4354   -1.1857 C   0  0  0  0  0  0  0  0  0  0  0  0
    0.1149   -2.1792   -0.9053 N   0  0  0  0  0  0  0  0  0  0  0  0
    0.2229   -1.8210    0.3730 C   0  0  0  0  0  0  0  0  0  0  0  0
    1.3270   -1.4763    1.1013 C   0  0  0  0  0  0  0  0  0  0  0  0
    2.6417   -1.4299    0.6049 N   0  0  0  0  0  0  0  0  0  0  0  0
    3.1322   -0.2131    0.0750 C   0  0  0  0  0  0  0  0  0  0  0  0
    2.3647    0.7736    0.0742 O   0  0  0  0  0  0  0  0  0  0  0  0
    4.5057   -0.0900   -0.4657 C   0  0  1  0  0  0  0  0  0  0  0  0
    4.5811   -1.0055   -1.6660 C   0  0  0  0  0  0  0  0  0  0  0  0
    4.7894    1.2641   -0.7462 N   0  0  0  0  0  0  0  0  0  0  0  0
    4.8657    2.0385    0.4450 C   0  0  0  0  0  0  0  0  0  0  0  0
    6.1269    1.7457    1.2505 C   0  0  0  0  0  0  0  0  0  0  0  0
    7.2523    1.9953    0.4150 N   0  0  0  0  0  0  0  0  0  0  0  0
    7.7888    3.3048    0.5238 C   0  0  0  0  0  0  0  0  0  0  0  0
    7.2410    1.3958   -0.8683 C   0  0  2  0  0  0  0  0  0  0  0  0
    8.3178    1.9790   -1.7460 C   0  0  0  0  0  0  0  0  0  0  0  0
    5.9241    1.5042   -1.5921 C   0  0  0  0  0  0  0  0  0  0  0  0
    1.1440   -1.1461    2.4429 C   0  0  0  0  0  0  0  0  0  0  0  0
   -0.1062   -1.1717    2.9945 C   0  0  0  0  0  0  0  0  0  0  0  0
   -1.1972   -1.5203    2.2453 C   0  0  0  0  0  0  0  0  0  0  0  0
   -1.0394   -1.8489    0.9238 C   0  0  0  0  0  0  0  0  0  0  0  0
   -4.1544   -1.3930    0.6520 N   0  0  0  0  0  0  0  0  0  0  0  0
   -8.6854    3.4130    3.3228 H   0  0  0  0  0  0  0  0  0  0  0  0
   -8.5174    3.8721    1.5941 H   0  0  0  0  0  0  0  0  0  0  0  0
   -9.9050    2.8161    2.1786 H   0  0  0  0  0  0  0  0  0  0  0  0
   -7.0495    2.1887   -3.2193 H   0  0  0  0  0  0  0  0  0  0  0  0
   -7.8209    0.5856   -3.3845 H   0  0  0  0  0  0  0  0  0  0  0  0
   -8.8734    2.0259   -2.9835 H   0  0  0  0  0  0  0  0  0  0  0  0
   -6.3880   -0.4005   -1.5006 H   0  0  0  0  0  0  0  0  0  0  0  0
   -6.3802   -0.2730    2.4172 H   0  0  0  0  0  0  0  0  0  0  0  0
   -5.8330   -4.7085   -0.1347 H   0  0  0  0  0  0  0  0  0  0  0  0
   -2.1182   -4.5791   -0.2685 H   0  0  0  0  0  0  0  0  0  0  0  0
   -3.0584   -4.6246   -1.7763 H   0  0  0  0  0  0  0  0  0  0  0  0
   -3.5526   -5.6752   -0.4353 H   0  0  0  0  0  0  0  0  0  0  0  0
   -1.6097   -2.7500   -2.1371 H   0  0  0  0  0  0  0  0  0  0  0  0
    0.8873   -2.2569   -1.5976 H   0  0  0  0  0  0  0  0  0  0  0  0
    3.2283   -2.3018    0.6404 H   0  0  0  0  0  0  0  0  0  0  0  0
    5.2355   -0.4294    0.3211 H   0  0  0  0  0  0  0  0  0  0  0  0
    3.8758   -0.6180   -2.4229 H   0  0  0  0  0  0  0  0  0  0  0  0
    5.5878   -1.2082   -2.0262 H   0  0  0  0  0  0  0  0  0  0  0  0
    4.1522   -1.9960   -1.3305 H   0  0  0  0  0  0  0  0  0  0  0  0
    4.0339    1.8947    1.1424 H   0  0  0  0  0  0  0  0  0  0  0  0
    4.8945    3.1207    0.2024 H   0  0  0  0  0  0  0  0  0  0  0  0
    6.1425    2.4887    2.0750 H   0  0  0  0  0  0  0  0  0  0  0  0
    6.1079    0.7558    1.7303 H   0  0  0  0  0  0  0  0  0  0  0  0
    7.0997    4.0257    1.0465 H   0  0  0  0  0  0  0  0  0  0  0  0
    8.7093    3.2865    1.1797 H   0  0  0  0  0  0  0  0  0  0  0  0
    8.0761    3.7905   -0.4059 H   0  0  0  0  0  0  0  0  0  0  0  0
    7.5095    0.3067   -0.7338 H   0  0  0  0  0  0  0  0  0  0  0  0
    8.7036    1.1805   -2.4471 H   0  0  0  0  0  0  0  0  0  0  0  0
    7.9594    2.7935   -2.4068 H   0  0  0  0  0  0  0  0  0  0  0  0
    9.2192    2.2788   -1.1598 H   0  0  0  0  0  0  0  0  0  0  0  0
    5.8436    2.5467   -1.9747 H   0  0  0  0  0  0  0  0  0  0  0  0
    5.9667    0.8448   -2.4709 H   0  0  0  0  0  0  0  0  0  0  0  0
    2.0128   -0.8665    3.0481 H   0  0  0  0  0  0  0  0  0  0  0  0
   -0.2059   -0.9088    4.0369 H   0  0  0  0  0  0  0  0  0  0  0  0
   -2.1875   -1.5458    2.6636 H   0  0  0  0  0  0  0  0  0  0  0  0
  1  2  1  0
  2  3  1  0
  3  4  2  0
  4  5  1  0
  5  6  1  0
  5  7  1  0
  7  8  2  0
  8  9  1  0
  9 10  1  0
 10 11  2  0
 11 12  1  0
 12 13  2  0
 13 14  1  0
 13 15  1  0
 15 16  1  0
 16 17  2  0
 17 18  1  0
 18 19  1  0
 19 20  2  0
 20 21  1  0
 21 22  1  0
 22 23  2  0
 22 24  1  0
 24 25  1  0
 24 26  1  0
 26 27  1  0
 27 28  1  0
 28 29  1  0
 29 30  1  0
 29 31  1  0
 31 32  1  0
 31 33  1  0
 20 34  1  0
 34 35  2  0
 35 36  1  0
 36 37  2  0
 15 38  2  0
  8  3  1  0
 38 10  1  0
 37 16  1  0
 37 19  1  0
 33 26  1  0
  1 39  1  0
  1 40  1  0
  1 41  1  0
  6 42  1  0
  6 43  1  0
  6 44  1  0
  7 45  1  0
  9 46  1  0
 12 47  1  0
 14 48  1  0
 14 49  1  0
 14 50  1  0
 17 51  1  0
 18 52  1  0
 21 53  1  0
 24 54  1  1
 25 55  1  0
 25 56  1  0
 25 57  1  0
 27 58  1  0
 27 59  1  0
 28 60  1  0
 28 61  1  0
 30 62  1  0
 30 63  1  0
 30 64  1  0
 31 65  1  1
 32 66  1  0
 32 67  1  0
 32 68  1  0
 33 69  1  0
 33 70  1  0
 34 71  1  0
 35 72  1  0
 36 73  1  0
M  END
$$$$
