
     RDKit          3D

 63 66  0  0  0  0  0  0  0  0999 V2000
    0.7834   -2.5241   -0.5505 C   0  0  0  0  0  0  0  0  0  0  0  0
    1.2231   -1.5405    0.5584 C   0  0  1  0  0  0  0  0  0  0  0  0
    2.4705   -0.9387    0.1077 C   0  0  0  0  0  0  0  0  0  0  0  0
    3.6424   -1.2996    0.7754 C   0  0  0  0  0  0  0  0  0  0  0  0
    4.8768   -0.8120    0.4311 C   0  0  0  0  0  0  0  0  0  0  0  0
    5.0188    0.0763   -0.6131 C   0  0  0  0  0  0  0  0  0  0  0  0
    6.3159    0.6062   -0.9956 C   0  0  0  0  0  0  0  0  0  0  0  0
    7.4300   -0.1931   -1.1105 C   0  0  0  0  0  0  0  0  0  0  0  0
    8.6666    0.3288   -1.4778 C   0  0  0  0  0  0  0  0  0  0  0  0
    8.8070    1.6696   -1.7377 C   0  0  0  0  0  0  0  0  0  0  0  0
   10.0007    2.2230   -2.1008 F   0  0  0  0  0  0  0  0  0  0  0  0
    7.7065    2.4800   -1.6278 C   0  0  0  0  0  0  0  0  0  0  0  0
    6.4734    1.9479   -1.2595 C   0  0  0  0  0  0  0  0  0  0  0  0
    5.4168    2.7638   -1.1604 F   0  0  0  0  0  0  0  0  0  0  0  0
    3.8660    0.4462   -1.2882 C   0  0  0  0  0  0  0  0  0  0  0  0
    2.6169   -0.0509   -0.9358 C   0  0  0  0  0  0  0  0  0  0  0  0
    0.1533   -0.6738    0.9059 N   0  0  0  0  0  0  0  0  0  0  0  0
   -0.4080    0.3292    0.0612 C   0  0  0  0  0  0  0  0  0  0  0  0
   -1.7324    0.8816    0.5419 C   0  0  0  0  0  0  0  0  0  0  0  0
   -2.5256   -0.1351    1.3001 C   0  0  2  0  0  0  0  0  0  0  0  0
   -2.7973   -1.3798    0.5041 C   0  0  0  0  0  0  0  0  0  0  0  0
   -3.5597   -1.0795   -0.7462 C   0  0  0  0  0  0  0  0  0  0  0  0
   -4.8527   -0.4786   -0.5230 N   0  0  0  0  0  0  0  0  0  0  0  0
   -5.6483   -0.1683   -2.0468 S   0  0  0  0  0  6  0  0  0  0  0  0
   -4.7083    0.9388   -2.9756 N   0  0  0  0  0  0  0  0  0  0  0  0
   -5.8428   -1.4677   -2.7965 O   0  0  0  0  0  0  0  0  0  0  0  0
   -6.9994    0.4297   -1.8246 O   0  0  0  0  0  0  0  0  0  0  0  0
   -3.7890    0.4314    1.7787 C   0  0  0  0  0  0  0  0  0  0  0  0
   -4.6530   -0.3264    2.5592 C   0  0  0  0  0  0  0  0  0  0  0  0
   -5.8531    0.1526    3.0366 C   0  0  0  0  0  0  0  0  0  0  0  0
   -6.2383    1.4394    2.7409 C   0  0  0  0  0  0  0  0  0  0  0  0
   -7.4295    1.9396    3.2049 F   0  0  0  0  0  0  0  0  0  0  0  0
   -5.3958    2.2106    1.9670 C   0  0  0  0  0  0  0  0  0  0  0  0
   -4.1971    1.7222    1.4942 C   0  0  0  0  0  0  0  0  0  0  0  0
   -1.7514   -0.4370    2.4737 O   0  0  0  0  0  0  0  0  0  0  0  0
   -0.4353   -0.8024    2.2218 C   0  0  0  0  0  0  0  0  0  0  0  0
    0.3076   -1.2681    3.1481 O   0  0  0  0  0  0  0  0  0  0  0  0
    0.0967   -3.2464   -0.0874 H   0  0  0  0  0  0  0  0  0  0  0  0
    1.6776   -3.0842   -0.8722 H   0  0  0  0  0  0  0  0  0  0  0  0
    0.3844   -1.9964   -1.4164 H   0  0  0  0  0  0  0  0  0  0  0  0
    1.4539   -2.2311    1.4167 H   0  0  0  0  0  0  0  0  0  0  0  0
    3.6230   -2.0046    1.6225 H   0  0  0  0  0  0  0  0  0  0  0  0
    5.7717   -1.1031    0.9596 H   0  0  0  0  0  0  0  0  0  0  0  0
    7.3541   -1.2563   -0.9123 H   0  0  0  0  0  0  0  0  0  0  0  0
    9.5317   -0.3041   -1.5649 H   0  0  0  0  0  0  0  0  0  0  0  0
    7.8323    3.5348   -1.8357 H   0  0  0  0  0  0  0  0  0  0  0  0
    3.9434    1.1480   -2.1201 H   0  0  0  0  0  0  0  0  0  0  0  0
    1.7487    0.2569   -1.4982 H   0  0  0  0  0  0  0  0  0  0  0  0
    0.2564    1.2473   -0.0005 H   0  0  0  0  0  0  0  0  0  0  0  0
   -0.5579    0.0023   -0.9839 H   0  0  0  0  0  0  0  0  0  0  0  0
   -2.2847    1.2645   -0.3466 H   0  0  0  0  0  0  0  0  0  0  0  0
   -1.5391    1.7223    1.2553 H   0  0  0  0  0  0  0  0  0  0  0  0
   -1.9037   -1.9908    0.3426 H   0  0  0  0  0  0  0  0  0  0  0  0
   -3.4880   -2.0035    1.1463 H   0  0  0  0  0  0  0  0  0  0  0  0
   -2.9488   -0.5010   -1.4608 H   0  0  0  0  0  0  0  0  0  0  0  0
   -3.7732   -2.0777   -1.2323 H   0  0  0  0  0  0  0  0  0  0  0  0
   -5.5053   -1.1738   -0.0460 H   0  0  0  0  0  0  0  0  0  0  0  0
   -4.7392    1.8628   -2.5164 H   0  0  0  0  0  0  0  0  0  0  0  0
   -3.7209    0.6167   -3.0039 H   0  0  0  0  0  0  0  0  0  0  0  0
   -4.4204   -1.3617    2.8405 H   0  0  0  0  0  0  0  0  0  0  0  0
   -6.5180   -0.4677    3.6520 H   0  0  0  0  0  0  0  0  0  0  0  0
   -5.6992    3.2301    1.7317 H   0  0  0  0  0  0  0  0  0  0  0  0
   -3.5341    2.3176    0.8897 H   0  0  0  0  0  0  0  0  0  0  0  0
  1  2  1  0
  2  3  1  0
  3  4  2  0
  4  5  1  0
  5  6  2  0
  6  7  1  0
  7  8  2  0
  8  9  1  0
  9 10  2  0
 10 11  1  0
 10 12  1  0
 12 13  2  0
 13 14  1  0
  6 15  1  0
 15 16  2  0
  2 17  1  0
 17 18  1  0
 18 19  1  0
 19 20  1  0
 20 21  1  6
 21 22  1  0
 22 23  1  0
 23 24  1  0
 24 25  1  0
 24 26  2  0
 24 27  2  0
 20 28  1  0
 28 29  2  0
 29 30  1  0
 30 31  2  0
 31 32  1  0
 31 33  1  0
 33 34  2  0
 20 35  1  0
 35 36  1  0
 36 37  2  0
 16  3  1  0
 36 17  1  0
 13  7  1  0
 34 28  1  0
  1 38  1  0
  1 39  1  0
  1 40  1  0
  2 41  1  1
  4 42  1  0
  5 43  1  0
  8 44  1  0
  9 45  1  0
 12 46  1  0
 15 47  1  0
 16 48  1  0
 18 49  1  0
 18 50  1  0
 19 51  1  0
 19 52  1  0
 21 53  1  0
 21 54  1  0
 22 55  1  0
 22 56  1  0
 23 57  1  0
 25 58  1  0
 25 59  1  0
 29 60  1  0
 30 61  1  0
 33 62  1  0
 34 63  1  0
M  END
$$$$
