
     RDKit          3D

 54 57  0  0  0  0  0  0  0  0999 V2000
   -3.0827    4.3731    1.3759 C   0  0  0  0  0  0  0  0  0  0  0  0
   -1.7471    3.7245    1.2393 C   0  0  0  0  0  0  0  0  0  0  0  0
   -0.7650    4.2389    1.7994 O   0  0  0  0  0  0  0  0  0  0  0  0
   -1.6207    2.5428    0.4796 N   0  0  0  0  0  0  0  0  0  0  0  0
   -0.3474    1.9415    0.2804 C   0  0  0  0  0  0  0  0  0  0  0  0
    0.7646    2.7642    0.1204 C   0  0  0  0  0  0  0  0  0  0  0  0
    1.9898    2.1606   -0.0579 C   0  0  0  0  0  0  0  0  0  0  0  0
    2.1376    0.7917   -0.0814 C   0  0  0  0  0  0  0  0  0  0  0  0
    3.4578    0.1765   -0.2729 C   0  0  0  0  0  0  0  0  0  0  0  0
    4.5808    0.8141    0.2049 C   0  0  0  0  0  0  0  0  0  0  0  0
    5.8547    0.2779    0.0513 C   0  0  0  0  0  0  0  0  0  0  0  0
    6.0155   -0.9219   -0.5933 C   0  0  0  0  0  0  0  0  0  0  0  0
    7.3345   -1.5065   -0.7687 C   0  0  0  0  0  0  0  0  0  0  0  0
    8.3442   -0.9099   -0.3264 O   0  0  0  0  0  0  0  0  0  0  0  0
    7.5235   -2.7157   -1.4154 O   0  0  0  0  0  0  0  0  0  0  0  0
    4.8806   -1.5643   -1.0750 C   0  0  0  0  0  0  0  0  0  0  0  0
    3.6234   -1.0169   -0.9134 C   0  0  0  0  0  0  0  0  0  0  0  0
    1.0234   -0.0075    0.0784 C   0  0  0  0  0  0  0  0  0  0  0  0
   -0.2116    0.5478    0.2577 C   0  0  0  0  0  0  0  0  0  0  0  0
   -1.4833   -0.2150    0.4287 C   0  0  2  0  0  0  0  0  0  0  0  0
   -1.3903   -1.5754   -0.0273 N   0  0  0  0  0  0  0  0  0  0  0  0
   -2.3497   -2.5522    0.2973 C   0  0  0  0  0  0  0  0  0  0  0  0
   -2.2343   -3.8460   -0.2355 C   0  0  0  0  0  0  0  0  0  0  0  0
   -3.1127   -4.8555    0.0470 C   0  0  0  0  0  0  0  0  0  0  0  0
   -4.1711   -4.6210    0.8917 C   0  0  0  0  0  0  0  0  0  0  0  0
   -5.3255   -5.8861    1.2838 Cl  0  0  0  0  0  0  0  0  0  0  0  0
   -4.3170   -3.3675    1.4331 C   0  0  0  0  0  0  0  0  0  0  0  0
   -3.4216   -2.3497    1.1415 C   0  0  0  0  0  0  0  0  0  0  0  0
   -2.5470    0.4492   -0.4492 C   0  0  0  0  0  0  0  0  0  0  0  0
   -2.7874    1.8810   -0.1164 C   0  0  2  0  0  0  0  0  0  0  0  0
   -3.2767    2.5948   -1.3415 C   0  0  0  0  0  0  0  0  0  0  0  0
   -3.0092    5.2761    2.0231 H   0  0  0  0  0  0  0  0  0  0  0  0
   -3.4137    4.7078    0.3735 H   0  0  0  0  0  0  0  0  0  0  0  0
   -3.8248    3.6481    1.7460 H   0  0  0  0  0  0  0  0  0  0  0  0
    0.6424    3.8466    0.1336 H   0  0  0  0  0  0  0  0  0  0  0  0
    2.8635    2.8096   -0.1834 H   0  0  0  0  0  0  0  0  0  0  0  0
    4.5204    1.7568    0.7188 H   0  0  0  0  0  0  0  0  0  0  0  0
    6.7340    0.7833    0.4288 H   0  0  0  0  0  0  0  0  0  0  0  0
    8.3683   -3.2274   -1.1940 H   0  0  0  0  0  0  0  0  0  0  0  0
    5.0205   -2.5210   -1.5878 H   0  0  0  0  0  0  0  0  0  0  0  0
    2.7377   -1.5118   -1.2858 H   0  0  0  0  0  0  0  0  0  0  0  0
    1.1214   -1.0711    0.0665 H   0  0  0  0  0  0  0  0  0  0  0  0
   -1.7901   -0.1249    1.4743 H   0  0  0  0  0  0  0  0  0  0  0  0
   -0.5847   -1.8430   -0.6237 H   0  0  0  0  0  0  0  0  0  0  0  0
   -1.3964   -4.0446   -0.9089 H   0  0  0  0  0  0  0  0  0  0  0  0
   -2.9913   -5.8568   -0.3885 H   0  0  0  0  0  0  0  0  0  0  0  0
   -5.1574   -3.1618    2.1105 H   0  0  0  0  0  0  0  0  0  0  0  0
   -3.5582   -1.3738    1.5985 H   0  0  0  0  0  0  0  0  0  0  0  0
   -2.2661    0.3594   -1.5282 H   0  0  0  0  0  0  0  0  0  0  0  0
   -3.4745   -0.1215   -0.3408 H   0  0  0  0  0  0  0  0  0  0  0  0
   -3.5981    1.9463    0.6599 H   0  0  0  0  0  0  0  0  0  0  0  0
   -3.4483    1.9003   -2.2030 H   0  0  0  0  0  0  0  0  0  0  0  0
   -4.2732    3.0897   -1.1759 H   0  0  0  0  0  0  0  0  0  0  0  0
   -2.5615    3.3663   -1.7191 H   0  0  0  0  0  0  0  0  0  0  0  0
  1  2  1  0
  2  3  2  0
  2  4  1  0
  4  5  1  0
  5  6  2  0
  6  7  1  0
  7  8  2  0
  8  9  1  0
  9 10  2  0
 10 11  1  0
 11 12  2  0
 12 13  1  0
 13 14  2  0
 13 15  1  0
 12 16  1  0
 16 17  2  0
  8 18  1  0
 18 19  2  0
 19 20  1  0
 20 21  1  0
 21 22  1  0
 22 23  2  0
 23 24  1  0
 24 25  2  0
 25 26  1  0
 25 27  1  0
 27 28  2  0
 20 29  1  0
 29 30  1  0
 30 31  1  0
 30  4  1  0
 19  5  1  0
 28 22  1  0
 17  9  1  0
  1 32  1  0
  1 33  1  0
  1 34  1  0
  6 35  1  0
  7 36  1  0
 10 37  1  0
 11 38  1  0
 15 39  1  0
 16 40  1  0
 17 41  1  0
 18 42  1  0
 20 43  1  1
 21 44  1  0
 23 45  1  0
 24 46  1  0
 27 47  1  0
 28 48  1  0
 29 49  1  0
 29 50  1  0
 30 51  1  1
 31 52  1  0
 31 53  1  0
 31 54  1  0
M  END
$$$$
