
     RDKit          3D

 39 40  0  0  0  0  0  0  0  0999 V2000
    5.4939    1.7667    0.0695 O   0  0  0  0  0  0  0  0  0  0  0  0
    4.3491    0.9830    0.0163 C   0  0  0  0  0  0  0  0  0  0  0  0
    4.3007   -0.2808   -0.5294 C   0  0  0  0  0  0  0  0  0  0  0  0
    3.0541   -0.9193   -0.4922 C   0  0  0  0  0  0  0  0  0  0  0  0
    3.1205   -2.2035   -1.0772 O   0  0  0  0  0  0  0  0  0  0  0  0
    1.8875   -0.3606    0.0535 C   0  0  0  0  0  0  0  0  0  0  0  0
    2.0084    0.8980    0.5778 C   0  0  0  0  0  0  0  0  0  0  0  0
    0.7263    1.4006    1.1233 C   0  0  0  0  0  0  0  0  0  0  0  0
   -0.3469    1.4064    0.0827 C   0  0  0  0  0  0  0  0  0  0  0  0
   -0.5535    1.1263   -1.0846 O   0  0  0  0  0  0  0  0  0  0  0  0
   -1.5770    1.9446    0.7079 C   0  0  0  0  0  0  0  0  0  0  0  0
   -2.7322    2.0252   -0.2096 C   0  0  0  0  0  0  0  0  0  0  0  0
   -3.2568    0.7276   -0.7651 C   0  0  0  0  0  0  0  0  0  0  0  0
   -3.6695   -0.2161    0.2738 C   0  0  0  0  0  0  0  0  0  0  0  0
   -3.0963   -1.4003    0.2288 C   0  0  0  0  0  0  0  0  0  0  0  0
   -2.1742   -2.3075   -0.4071 C   0  0  0  0  0  0  0  0  0  0  0  0
   -1.0795   -2.7857    0.4912 C   0  0  0  0  0  0  0  0  0  0  0  0
   -0.1056   -1.8694    0.8674 O   0  0  0  0  0  0  0  0  0  0  0  0
    0.7930   -1.3057   -0.0685 C   0  0  0  0  0  0  0  0  0  0  0  0
    0.6003   -1.7200   -1.2656 O   0  0  0  0  0  0  0  0  0  0  0  0
    3.2163    1.5482    0.5557 C   0  0  0  0  0  0  0  0  0  0  0  0
    3.1800    3.1577    1.2753 Cl  0  0  0  0  0  0  0  0  0  0  0  0
    6.3869    1.3305   -0.1604 H   0  0  0  0  0  0  0  0  0  0  0  0
    5.1838   -0.6998   -0.9404 H   0  0  0  0  0  0  0  0  0  0  0  0
    3.4914   -2.3275   -2.0107 H   0  0  0  0  0  0  0  0  0  0  0  0
    0.4148    0.7749    1.9979 H   0  0  0  0  0  0  0  0  0  0  0  0
    0.8639    2.4269    1.5044 H   0  0  0  0  0  0  0  0  0  0  0  0
   -1.7860    1.3238    1.6200 H   0  0  0  0  0  0  0  0  0  0  0  0
   -1.3510    2.9620    1.1447 H   0  0  0  0  0  0  0  0  0  0  0  0
   -2.5105    2.6838   -1.0946 H   0  0  0  0  0  0  0  0  0  0  0  0
   -3.5794    2.5339    0.3039 H   0  0  0  0  0  0  0  0  0  0  0  0
   -2.6623    0.2989   -1.5845 H   0  0  0  0  0  0  0  0  0  0  0  0
   -4.2232    1.0236   -1.2792 H   0  0  0  0  0  0  0  0  0  0  0  0
   -4.3875    0.0859    0.9919 H   0  0  0  0  0  0  0  0  0  0  0  0
   -3.4749   -2.0155    1.0644 H   0  0  0  0  0  0  0  0  0  0  0  0
   -1.6836   -1.9153   -1.3264 H   0  0  0  0  0  0  0  0  0  0  0  0
   -2.7179   -3.2330   -0.7825 H   0  0  0  0  0  0  0  0  0  0  0  0
   -0.5793   -3.7018    0.0285 H   0  0  0  0  0  0  0  0  0  0  0  0
   -1.5240   -3.1669    1.4636 H   0  0  0  0  0  0  0  0  0  0  0  0
  1  2  1  0
  2  3  2  0
  3  4  1  0
  4  5  1  0
  4  6  2  0
  6  7  1  0
  7  8  1  0
  8  9  1  0
  9 10  2  0
  9 11  1  0
 11 12  1  0
 12 13  1  0
 13 14  1  0
 14 15  2  0
 15 16  1  0
 16 17  1  0
 17 18  1  0
 18 19  1  0
 19 20  2  0
  7 21  2  0
 21 22  1  0
 21  2  1  0
 19  6  1  0
  1 23  1  0
  3 24  1  0
  5 25  1  0
  8 26  1  0
  8 27  1  0
 11 28  1  0
 11 29  1  0
 12 30  1  0
 12 31  1  0
 13 32  1  0
 13 33  1  0
 14 34  1  0
 15 35  1  0
 16 36  1  0
 16 37  1  0
 17 38  1  0
 17 39  1  0
M  END
$$$$
