
     RDKit          3D

 27 28  0  0  0  0  0  0  0  0999 V2000
   -5.5570   -0.9019    0.9231 O   0  0  0  0  0  0  0  0  0  0  0  0
   -4.2405   -0.6354    0.5756 C   0  0  0  0  0  0  0  0  0  0  0  0
   -3.3177   -0.9786    1.5699 C   0  0  0  0  0  0  0  0  0  0  0  0
   -1.9696   -0.7461    1.3086 C   0  0  0  0  0  0  0  0  0  0  0  0
   -1.5790   -0.1961    0.1058 C   0  0  0  0  0  0  0  0  0  0  0  0
   -0.2771    0.0874   -0.2842 O   0  0  0  0  0  0  0  0  0  0  0  0
    0.7769   -0.1919    0.5880 C   0  0  0  0  0  0  0  0  0  0  0  0
    2.1080    0.1829   -0.0093 C   0  0  0  0  0  0  0  0  0  0  0  0
    2.8090   -0.7667   -0.7581 C   0  0  0  0  0  0  0  0  0  0  0  0
    4.0442   -0.4387   -1.3198 C   0  0  0  0  0  0  0  0  0  0  0  0
    4.5638    0.8381   -1.1250 C   0  0  0  0  0  0  0  0  0  0  0  0
    3.8830    1.7866   -0.3878 C   0  0  0  0  0  0  0  0  0  0  0  0
    2.6641    1.4329    0.1551 C   0  0  0  0  0  0  0  0  0  0  0  0
   -2.5164    0.1339   -0.8606 C   0  0  0  0  0  0  0  0  0  0  0  0
   -3.8548   -0.0910   -0.6150 C   0  0  0  0  0  0  0  0  0  0  0  0
   -6.1254   -1.2901    0.1551 H   0  0  0  0  0  0  0  0  0  0  0  0
   -3.6008   -1.4139    2.5271 H   0  0  0  0  0  0  0  0  0  0  0  0
   -1.1812   -0.9766    2.0114 H   0  0  0  0  0  0  0  0  0  0  0  0
    0.6135    0.4249    1.5112 H   0  0  0  0  0  0  0  0  0  0  0  0
    0.7842   -1.2442    0.9271 H   0  0  0  0  0  0  0  0  0  0  0  0
    2.3572   -1.7319   -0.8726 H   0  0  0  0  0  0  0  0  0  0  0  0
    4.5699   -1.1923   -1.8970 H   0  0  0  0  0  0  0  0  0  0  0  0
    5.5272    1.0396   -1.5836 H   0  0  0  0  0  0  0  0  0  0  0  0
    4.3065    2.7842   -0.2453 H   0  0  0  0  0  0  0  0  0  0  0  0
    2.1004    2.1631    0.7445 H   0  0  0  0  0  0  0  0  0  0  0  0
   -2.2770    0.5677   -1.8237 H   0  0  0  0  0  0  0  0  0  0  0  0
   -4.6113    0.1435   -1.3206 H   0  0  0  0  0  0  0  0  0  0  0  0
  1  2  1  0
  2  3  2  0
  3  4  1  0
  4  5  2  0
  5  6  1  0
  6  7  1  0
  7  8  1  0
  8  9  2  0
  9 10  1  0
 10 11  2  0
 11 12  1  0
 12 13  2  0
  5 14  1  0
 14 15  2  0
 15  2  1  0
 13  8  1  0
  1 16  1  0
  3 17  1  0
  4 18  1  0
  7 19  1  0
  7 20  1  0
  9 21  1  0
 10 22  1  0
 11 23  1  0
 12 24  1  0
 13 25  1  0
 14 26  1  0
 15 27  1  0
M  END
$$$$
