
     RDKit          3D

 69 74  0  0  0  0  0  0  0  0999 V2000
   -6.5276    2.3425   -1.6284 C   0  0  0  0  0  0  0  0  0  0  0  0
   -6.7288    2.5831   -0.2147 N   0  0  0  0  0  0  0  0  0  0  0  0
   -8.0091    3.2074    0.1433 C   0  0  0  0  0  0  0  0  0  0  0  0
   -5.8189    2.2766    0.7921 C   0  0  0  0  0  0  0  0  0  0  0  0
   -6.1179    2.5417    2.0003 O   0  0  0  0  0  0  0  0  0  0  0  0
   -4.5041    1.6602    0.6143 C   0  0  0  0  0  0  0  0  0  0  0  0
   -3.3211    2.3651    0.5925 C   0  0  0  0  0  0  0  0  0  0  0  0
   -2.3001    1.4936    0.4211 C   0  0  0  0  0  0  0  0  0  0  0  0
   -0.9182    1.5717    0.3260 C   0  0  0  0  0  0  0  0  0  0  0  0
   -0.1688    0.4765    0.1599 N   0  0  0  0  0  0  0  0  0  0  0  0
   -0.7281   -0.7603    0.0770 C   0  0  0  0  0  0  0  0  0  0  0  0
    0.0946   -1.9133   -0.0747 N   0  0  0  0  0  0  0  0  0  0  0  0
    1.4992   -1.7431   -0.0562 C   0  0  0  0  0  0  0  0  0  0  0  0
    2.3919   -2.7761   -0.1854 C   0  0  0  0  0  0  0  0  0  0  0  0
    3.7458   -2.5304   -0.1352 C   0  0  0  0  0  0  0  0  0  0  0  0
    4.2718   -1.2730    0.0426 C   0  0  0  0  0  0  0  0  0  0  0  0
    5.6451   -0.9765    0.1244 N   0  0  0  0  0  0  0  0  0  0  0  0
    6.4261   -0.9517    1.3701 C   0  0  0  0  0  0  0  0  0  0  0  0
    7.8508   -1.1012    0.8892 C   0  0  0  0  0  0  0  0  0  0  0  0
    7.8230   -0.2535   -0.3682 C   0  0  0  0  0  0  0  0  0  0  0  0
    8.9854   -0.4814   -1.2678 C   0  0  0  0  0  0  0  0  0  0  0  0
   10.0695    0.4475   -0.7121 C   0  0  0  0  0  0  0  0  0  0  0  0
    9.2992    1.4428    0.1358 C   0  0  0  0  0  0  0  0  0  0  0  0
    7.8966    1.1585   -0.0714 N   0  0  0  0  0  0  0  0  0  0  0  0
    6.5134   -0.6503   -0.9385 C   0  0  0  0  0  0  0  0  0  0  0  0
    6.2473   -0.6823   -2.1580 O   0  0  0  0  0  0  0  0  0  0  0  0
    3.3338   -0.2473    0.1688 C   0  0  0  0  0  0  0  0  0  0  0  0
    2.0169   -0.5007    0.1179 N   0  0  0  0  0  0  0  0  0  0  0  0
   -2.0640   -0.8290    0.1690 N   0  0  0  0  0  0  0  0  0  0  0  0
   -2.8755    0.2524    0.3389 C   0  0  0  0  0  0  0  0  0  0  0  0
   -4.2260    0.3660    0.4585 N   0  0  0  0  0  0  0  0  0  0  0  0
   -5.1148   -0.7737    0.4181 C   0  0  0  0  0  0  0  0  0  0  0  0
   -5.4494   -1.2358   -0.9576 C   0  0  0  0  0  0  0  0  0  0  0  0
   -6.7375   -1.9907   -1.0754 C   0  0  0  0  0  0  0  0  0  0  0  0
   -7.7410   -1.6920    0.0080 C   0  0  0  0  0  0  0  0  0  0  0  0
   -7.0552   -1.8450    1.2382 O   0  0  0  0  0  0  0  0  0  0  0  0
   -6.3090   -0.6565    1.3299 C   0  0  0  0  0  0  0  0  0  0  0  0
   -7.1949    1.4910   -1.8967 H   0  0  0  0  0  0  0  0  0  0  0  0
   -5.4921    2.0247   -1.8265 H   0  0  0  0  0  0  0  0  0  0  0  0
   -6.8484    3.1901   -2.2710 H   0  0  0  0  0  0  0  0  0  0  0  0
   -8.1930    3.1274    1.2340 H   0  0  0  0  0  0  0  0  0  0  0  0
   -8.8530    2.7171   -0.3574 H   0  0  0  0  0  0  0  0  0  0  0  0
   -7.9169    4.3008   -0.1152 H   0  0  0  0  0  0  0  0  0  0  0  0
   -3.1815    3.4396    0.6914 H   0  0  0  0  0  0  0  0  0  0  0  0
   -0.5021    2.5767    0.3970 H   0  0  0  0  0  0  0  0  0  0  0  0
   -0.2922   -2.8600   -0.1939 H   0  0  0  0  0  0  0  0  0  0  0  0
    1.9698   -3.7663   -0.3260 H   0  0  0  0  0  0  0  0  0  0  0  0
    4.4346   -3.3614   -0.2405 H   0  0  0  0  0  0  0  0  0  0  0  0
    6.3566    0.0654    1.8392 H   0  0  0  0  0  0  0  0  0  0  0  0
    6.1540   -1.7611    2.0563 H   0  0  0  0  0  0  0  0  0  0  0  0
    8.5215   -0.6218    1.6098 H   0  0  0  0  0  0  0  0  0  0  0  0
    8.0945   -2.1390    0.6587 H   0  0  0  0  0  0  0  0  0  0  0  0
    9.3656   -1.5229   -1.2666 H   0  0  0  0  0  0  0  0  0  0  0  0
    8.7331   -0.1232   -2.2876 H   0  0  0  0  0  0  0  0  0  0  0  0
   10.5789    0.9809   -1.5370 H   0  0  0  0  0  0  0  0  0  0  0  0
   10.7988   -0.1286   -0.1429 H   0  0  0  0  0  0  0  0  0  0  0  0
    9.5640    1.3242    1.1925 H   0  0  0  0  0  0  0  0  0  0  0  0
    9.5538    2.4650   -0.1605 H   0  0  0  0  0  0  0  0  0  0  0  0
    7.4701    1.7251   -0.8185 H   0  0  0  0  0  0  0  0  0  0  0  0
    3.7128    0.7508    0.3087 H   0  0  0  0  0  0  0  0  0  0  0  0
   -4.5257   -1.6290    0.8780 H   0  0  0  0  0  0  0  0  0  0  0  0
   -4.6561   -1.9082   -1.4022 H   0  0  0  0  0  0  0  0  0  0  0  0
   -5.4836   -0.3581   -1.6321 H   0  0  0  0  0  0  0  0  0  0  0  0
   -7.2452   -1.7889   -2.0530 H   0  0  0  0  0  0  0  0  0  0  0  0
   -6.5664   -3.0899   -1.0620 H   0  0  0  0  0  0  0  0  0  0  0  0
   -8.5922   -2.3792   -0.0925 H   0  0  0  0  0  0  0  0  0  0  0  0
   -8.1435   -0.6505   -0.0813 H   0  0  0  0  0  0  0  0  0  0  0  0
   -7.0046    0.1413    1.0880 H   0  0  0  0  0  0  0  0  0  0  0  0
   -6.0114   -0.5539    2.3888 H   0  0  0  0  0  0  0  0  0  0  0  0
  1  2  1  0
  2  3  1  0
  2  4  1  0
  4  5  2  0
  4  6  1  0
  6  7  2  0
  7  8  1  0
  8  9  2  0
  9 10  1  0
 10 11  2  0
 11 12  1  0
 12 13  1  0
 13 14  2  0
 14 15  1  0
 15 16  2  0
 16 17  1  0
 17 18  1  0
 18 19  1  0
 19 20  1  0
 20 21  1  0
 21 22  1  0
 22 23  1  0
 23 24  1  0
 20 25  1  0
 25 26  2  0
 16 27  1  0
 27 28  2  0
 11 29  1  0
 29 30  2  0
 30 31  1  0
 31 32  1  0
 32 33  1  0
 33 34  1  0
 34 35  1  0
 35 36  1  0
 36 37  1  0
 31  6  1  0
 37 32  1  0
 30  8  1  0
 28 13  1  0
 25 17  1  0
 24 20  1  0
  1 38  1  0
  1 39  1  0
  1 40  1  0
  3 41  1  0
  3 42  1  0
  3 43  1  0
  7 44  1  0
  9 45  1  0
 12 46  1  0
 14 47  1  0
 15 48  1  0
 18 49  1  0
 18 50  1  0
 19 51  1  0
 19 52  1  0
 21 53  1  0
 21 54  1  0
 22 55  1  0
 22 56  1  0
 23 57  1  0
 23 58  1  0
 24 59  1  0
 27 60  1  0
 32 61  1  0
 33 62  1  0
 33 63  1  0
 34 64  1  0
 34 65  1  0
 35 66  1  0
 35 67  1  0
 37 68  1  0
 37 69  1  0
M  END
$$$$
