
     RDKit          3D

 27 27  0  0  0  0  0  0  0  0999 V2000
    1.9226    0.2141   -0.5045 C   0  0  1  0  0  0  0  0  0  0  0  0
    3.0825    0.1125   -1.2948 O   0  0  0  0  0  0  0  0  0  0  0  0
    0.9092    0.5857   -1.3586 O   0  0  0  0  0  0  0  0  0  0  0  0
   -0.2983    0.8681   -0.7273 C   0  0  2  0  0  0  0  0  0  0  0  0
   -0.4455    2.3407   -0.4174 C   0  0  0  0  0  0  0  0  0  0  0  0
   -1.6601    2.6193    0.2168 O   0  0  0  0  0  0  0  0  0  0  0  0
   -0.3753    0.0249    0.5402 C   0  0  1  0  0  0  0  0  0  0  0  0
   -1.9986   -0.0397    1.2688 S   0  0  0  0  0  0  0  0  0  0  0  0
   -3.1761   -0.9093    0.2024 C   0  0  0  0  0  0  0  0  0  0  0  0
    0.1743   -1.3259    0.1221 C   0  0  2  0  0  0  0  0  0  0  0  0
   -0.2372   -2.3568    0.9188 O   0  0  0  0  0  0  0  0  0  0  0  0
    1.6962   -1.1464    0.1339 C   0  0  1  0  0  0  0  0  0  0  0  0
    2.3227   -2.1649   -0.5782 O   0  0  0  0  0  0  0  0  0  0  0  0
    2.0633    0.9723    0.2964 H   0  0  0  0  0  0  0  0  0  0  0  0
    3.8434    0.5630   -0.8065 H   0  0  0  0  0  0  0  0  0  0  0  0
   -1.1308    0.5553   -1.3874 H   0  0  0  0  0  0  0  0  0  0  0  0
   -0.4385    2.8881   -1.3707 H   0  0  0  0  0  0  0  0  0  0  0  0
    0.3639    2.7137    0.2384 H   0  0  0  0  0  0  0  0  0  0  0  0
   -1.5329    2.9089    1.1629 H   0  0  0  0  0  0  0  0  0  0  0  0
    0.3292    0.5038    1.2565 H   0  0  0  0  0  0  0  0  0  0  0  0
   -3.5823   -1.8274    0.7093 H   0  0  0  0  0  0  0  0  0  0  0  0
   -4.0618   -0.2499    0.0340 H   0  0  0  0  0  0  0  0  0  0  0  0
   -2.6775   -1.2214   -0.7181 H   0  0  0  0  0  0  0  0  0  0  0  0
   -0.0847   -1.5607   -0.9180 H   0  0  0  0  0  0  0  0  0  0  0  0
   -0.2452   -2.1654    1.8769 H   0  0  0  0  0  0  0  0  0  0  0  0
    2.0392   -1.1302    1.1756 H   0  0  0  0  0  0  0  0  0  0  0  0
    3.1980   -1.7723   -0.8683 H   0  0  0  0  0  0  0  0  0  0  0  0
  1  2  1  0
  1  3  1  0
  3  4  1  0
  4  5  1  0
  5  6  1  0
  4  7  1  0
  7  8  1  0
  8  9  1  0
  7 10  1  0
 10 11  1  0
 10 12  1  0
 12 13  1  0
 12  1  1  0
  1 14  1  1
  2 15  1  0
  4 16  1  6
  5 17  1  0
  5 18  1  0
  6 19  1  0
  7 20  1  1
  9 21  1  0
  9 22  1  0
  9 23  1  0
 10 24  1  6
 11 25  1  0
 12 26  1  1
 13 27  1  0
M  END
$$$$
