
     RDKit          3D

 62 66  0  0  0  0  0  0  0  0999 V2000
    7.8140    2.7190   -0.0890 C   0  0  0  0  0  0  0  0  0  0  0  0
    7.5910    1.4368   -1.2881 S   0  0  0  0  0  6  0  0  0  0  0  0
    7.8263    2.0246   -2.6682 O   0  0  0  0  0  0  0  0  0  0  0  0
    8.5378    0.3097   -1.1064 O   0  0  0  0  0  0  0  0  0  0  0  0
    5.9326    0.8558   -1.2434 C   0  0  0  0  0  0  0  0  0  0  0  0
    4.9370    1.4120   -2.0247 C   0  0  0  0  0  0  0  0  0  0  0  0
    3.6444    0.9820   -2.0102 C   0  0  0  0  0  0  0  0  0  0  0  0
    3.3266   -0.0743   -1.1578 C   0  0  0  0  0  0  0  0  0  0  0  0
    4.2702   -0.6691   -0.3568 C   0  0  0  0  0  0  0  0  0  0  0  0
    5.5611   -0.2012   -0.4057 C   0  0  0  0  0  0  0  0  0  0  0  0
    3.9558   -1.7962    0.5600 C   0  0  0  0  0  0  0  0  0  0  0  0
    2.5955   -2.3556    0.2960 C   0  0  0  0  0  0  0  0  0  0  0  0
    1.5727   -1.2661    0.0582 C   0  0  0  0  0  0  0  0  0  0  0  0
    1.5021   -0.2821    1.1744 C   0  0  0  0  0  0  0  0  0  0  0  0
    1.2811   -0.8693    2.5267 C   0  0  0  0  0  0  0  0  0  0  0  0
   -0.2058   -0.6881    2.8654 C   0  0  0  0  0  0  0  0  0  0  0  0
   -0.9223   -1.0764    1.6654 N   0  0  0  0  0  0  0  0  0  0  0  0
   -2.0076   -0.2287    1.3126 C   0  0  0  0  0  0  0  0  0  0  0  0
   -2.2929    0.7845    2.0284 O   0  0  0  0  0  0  0  0  0  0  0  0
   -2.8283   -0.4298    0.1844 N   0  0  0  0  0  0  0  0  0  0  0  0
   -3.9428    0.4625   -0.1553 C   0  0  1  0  0  0  0  0  0  0  0  0
   -4.0449    0.7723   -1.6599 C   0  0  0  0  0  0  0  0  0  0  0  0
   -5.0458   -0.0916   -0.9779 C   0  0  2  0  0  0  0  0  0  0  0  0
   -6.4084    0.4865   -0.8906 C   0  0  0  0  0  0  0  0  0  0  0  0
   -7.5211   -0.3097   -1.0656 C   0  0  0  0  0  0  0  0  0  0  0  0
   -8.7945    0.2007   -0.9898 C   0  0  0  0  0  0  0  0  0  0  0  0
   -9.0206    1.5352   -0.7348 C   0  0  0  0  0  0  0  0  0  0  0  0
   -7.9122    2.3389   -0.5584 C   0  0  0  0  0  0  0  0  0  0  0  0
   -6.6308    1.8198   -0.6358 C   0  0  0  0  0  0  0  0  0  0  0  0
   -0.6185   -2.2185    0.8400 C   0  0  0  0  0  0  0  0  0  0  0  0
    0.2497   -1.8560   -0.3327 C   0  0  0  0  0  0  0  0  0  0  0  0
    2.0264   -0.5517   -1.1031 O   0  0  0  0  0  0  0  0  0  0  0  0
    8.7306    3.3140   -0.3413 H   0  0  0  0  0  0  0  0  0  0  0  0
    6.9081    3.3510   -0.0416 H   0  0  0  0  0  0  0  0  0  0  0  0
    7.9318    2.2852    0.9366 H   0  0  0  0  0  0  0  0  0  0  0  0
    5.2015    2.2356   -2.6845 H   0  0  0  0  0  0  0  0  0  0  0  0
    2.8520    1.4091   -2.6182 H   0  0  0  0  0  0  0  0  0  0  0  0
    6.3625   -0.6170    0.1949 H   0  0  0  0  0  0  0  0  0  0  0  0
    4.1066   -1.4644    1.6135 H   0  0  0  0  0  0  0  0  0  0  0  0
    4.7198   -2.5962    0.3392 H   0  0  0  0  0  0  0  0  0  0  0  0
    2.3082   -3.0639    1.0806 H   0  0  0  0  0  0  0  0  0  0  0  0
    2.6617   -2.9235   -0.6759 H   0  0  0  0  0  0  0  0  0  0  0  0
    0.7743    0.5014    0.8981 H   0  0  0  0  0  0  0  0  0  0  0  0
    2.4998    0.2453    1.2065 H   0  0  0  0  0  0  0  0  0  0  0  0
    1.8749   -0.3607    3.3278 H   0  0  0  0  0  0  0  0  0  0  0  0
    1.4678   -1.9617    2.5774 H   0  0  0  0  0  0  0  0  0  0  0  0
   -0.3374    0.3922    3.0717 H   0  0  0  0  0  0  0  0  0  0  0  0
   -0.5147   -1.3421    3.6965 H   0  0  0  0  0  0  0  0  0  0  0  0
   -2.6649   -1.2275   -0.4490 H   0  0  0  0  0  0  0  0  0  0  0  0
   -4.1202    1.3220    0.5231 H   0  0  0  0  0  0  0  0  0  0  0  0
   -3.3415    0.2906   -2.3424 H   0  0  0  0  0  0  0  0  0  0  0  0
   -4.3366    1.8125   -1.9435 H   0  0  0  0  0  0  0  0  0  0  0  0
   -5.0065   -1.1797   -1.1845 H   0  0  0  0  0  0  0  0  0  0  0  0
   -7.3543   -1.3727   -1.2690 H   0  0  0  0  0  0  0  0  0  0  0  0
   -9.6696   -0.4192   -1.1263 H   0  0  0  0  0  0  0  0  0  0  0  0
  -10.0369    1.9292   -0.6769 H   0  0  0  0  0  0  0  0  0  0  0  0
   -8.0795    3.3772   -0.3599 H   0  0  0  0  0  0  0  0  0  0  0  0
   -5.7607    2.4496   -0.4977 H   0  0  0  0  0  0  0  0  0  0  0  0
   -0.1335   -3.0225    1.4643 H   0  0  0  0  0  0  0  0  0  0  0  0
   -1.5464   -2.6510    0.4695 H   0  0  0  0  0  0  0  0  0  0  0  0
    0.3965   -2.7621   -0.9364 H   0  0  0  0  0  0  0  0  0  0  0  0
   -0.3215   -1.1268   -0.9513 H   0  0  0  0  0  0  0  0  0  0  0  0
  1  2  1  0
  2  3  2  0
  2  4  2  0
  2  5  1  0
  5  6  2  0
  6  7  1  0
  7  8  2  0
  8  9  1  0
  9 10  2  0
  9 11  1  0
 11 12  1  0
 12 13  1  0
 13 14  1  0
 14 15  1  0
 15 16  1  0
 16 17  1  0
 17 18  1  0
 18 19  2  0
 18 20  1  0
 20 21  1  0
 21 22  1  0
 22 23  1  0
 23 24  1  0
 24 25  2  0
 25 26  1  0
 26 27  2  0
 27 28  1  0
 28 29  2  0
 17 30  1  0
 30 31  1  0
 13 32  1  0
 10  5  1  0
 31 13  1  0
 32  8  1  0
 23 21  1  0
 29 24  1  0
  1 33  1  0
  1 34  1  0
  1 35  1  0
  6 36  1  0
  7 37  1  0
 10 38  1  0
 11 39  1  0
 11 40  1  0
 12 41  1  0
 12 42  1  0
 14 43  1  0
 14 44  1  0
 15 45  1  0
 15 46  1  0
 16 47  1  0
 16 48  1  0
 20 49  1  0
 21 50  1  1
 22 51  1  0
 22 52  1  0
 23 53  1  6
 25 54  1  0
 26 55  1  0
 27 56  1  0
 28 57  1  0
 29 58  1  0
 30 59  1  0
 30 60  1  0
 31 61  1  0
 31 62  1  0
M  END
$$$$
