
     RDKit          3D

 30 30  0  0  0  0  0  0  0  0999 V2000
    4.1919    1.4643   -1.1552 C   0  0  0  0  0  0  0  0  0  0  0  0
    2.9657    0.7473   -0.7169 C   0  0  0  0  0  0  0  0  0  0  0  0
    2.9875   -0.1097    0.3551 C   0  0  0  0  0  0  0  0  0  0  0  0
    1.8388   -0.7590    0.7388 C   0  0  0  0  0  0  0  0  0  0  0  0
    0.6354   -0.6027    0.1023 C   0  0  0  0  0  0  0  0  0  0  0  0
   -0.5172   -1.3028    0.5240 N   0  0  0  0  0  0  0  0  0  0  0  0
   -1.8608   -1.2546   -0.0095 C   0  0  0  0  0  0  0  0  0  0  0  0
   -2.5367    0.0594    0.2401 C   0  0  0  0  0  0  0  0  0  0  0  0
   -3.9499    0.0389   -0.3528 C   0  0  0  0  0  0  0  0  0  0  0  0
   -4.5562    1.3399   -0.0797 N   0  0  0  0  0  0  0  0  0  0  0  0
    0.6652    0.2650   -0.9646 C   0  0  0  0  0  0  0  0  0  0  0  0
    1.7856    0.9370   -1.3867 C   0  0  0  0  0  0  0  0  0  0  0  0
    2.0090   -1.6128    1.8582 N   0  0  0  0  0  4  0  0  0  0  0  0
    1.5087   -2.7283    2.4300 O   0  0  0  0  0  1  0  0  0  0  0  0
    2.8688   -1.4471    2.7409 O   0  0  0  0  0  0  0  0  0  0  0  0
    4.0989    1.8503   -2.1835 H   0  0  0  0  0  0  0  0  0  0  0  0
    4.4749    2.2601   -0.4221 H   0  0  0  0  0  0  0  0  0  0  0  0
    5.0283    0.7174   -1.0711 H   0  0  0  0  0  0  0  0  0  0  0  0
    3.9369   -0.2314    0.8548 H   0  0  0  0  0  0  0  0  0  0  0  0
   -0.3988   -1.9596    1.3457 H   0  0  0  0  0  0  0  0  0  0  0  0
   -2.5015   -2.0572    0.4085 H   0  0  0  0  0  0  0  0  0  0  0  0
   -1.8093   -1.4766   -1.1208 H   0  0  0  0  0  0  0  0  0  0  0  0
   -2.6466    0.1415    1.3572 H   0  0  0  0  0  0  0  0  0  0  0  0
   -2.0281    0.9291   -0.1575 H   0  0  0  0  0  0  0  0  0  0  0  0
   -4.5450   -0.7836    0.0544 H   0  0  0  0  0  0  0  0  0  0  0  0
   -3.8655   -0.0534   -1.4509 H   0  0  0  0  0  0  0  0  0  0  0  0
   -3.9062    2.1088   -0.2583 H   0  0  0  0  0  0  0  0  0  0  0  0
   -5.4476    1.4466   -0.6225 H   0  0  0  0  0  0  0  0  0  0  0  0
   -0.2129    0.4603   -1.5466 H   0  0  0  0  0  0  0  0  0  0  0  0
    1.7865    1.6130   -2.2258 H   0  0  0  0  0  0  0  0  0  0  0  0
  1  2  1  0
  2  3  2  0
  3  4  1  0
  4  5  2  0
  5  6  1  0
  6  7  1  0
  7  8  1  0
  8  9  1  0
  9 10  1  0
  5 11  1  0
 11 12  2  0
  4 13  1  0
 13 14  1  0
 13 15  2  0
 12  2  1  0
  1 16  1  0
  1 17  1  0
  1 18  1  0
  3 19  1  0
  6 20  1  0
  7 21  1  0
  7 22  1  0
  8 23  1  0
  8 24  1  0
  9 25  1  0
  9 26  1  0
 10 27  1  0
 10 28  1  0
 11 29  1  0
 12 30  1  0
M  CHG  2  13   1  14  -1
M  END
$$$$
