
     RDKit          3D

 55 59  0  0  0  0  0  0  0  0999 V2000
   -2.5129   -4.0105    1.6567 O   0  0  0  0  0  0  0  0  0  0  0  0
   -2.7494   -2.7855    1.6386 C   0  0  0  0  0  0  0  0  0  0  0  0
   -4.0277   -2.1946    2.0187 C   0  0  0  0  0  0  0  0  0  0  0  0
   -5.0844   -2.7519    2.4158 O   0  0  0  0  0  0  0  0  0  0  0  0
   -3.8823   -0.7714    1.8574 N   0  0  0  0  0  0  0  0  0  0  0  0
   -4.9297    0.1907    2.1310 C   0  0  0  0  0  0  0  0  0  0  0  0
   -5.7734    0.4625    0.9377 C   0  0  0  0  0  0  0  0  0  0  0  0
   -6.9016   -0.2934    0.6882 C   0  0  0  0  0  0  0  0  0  0  0  0
   -7.7101   -0.0691   -0.4116 C   0  0  0  0  0  0  0  0  0  0  0  0
   -7.4046    0.9391   -1.3102 C   0  0  0  0  0  0  0  0  0  0  0  0
   -8.1902    1.1768   -2.4026 F   0  0  0  0  0  0  0  0  0  0  0  0
   -6.2867    1.6965   -1.0732 C   0  0  0  0  0  0  0  0  0  0  0  0
   -5.4745    1.4646    0.0397 C   0  0  0  0  0  0  0  0  0  0  0  0
   -2.5703   -0.4735    1.3957 C   0  0  0  0  0  0  0  0  0  0  0  0
   -1.9135    0.7048    1.0830 C   0  0  0  0  0  0  0  0  0  0  0  0
   -0.5889    0.6795    0.6426 C   0  0  0  0  0  0  0  0  0  0  0  0
    0.1039   -0.5064    0.5052 C   0  0  0  0  0  0  0  0  0  0  0  0
    1.7726   -0.5204   -0.0510 S   0  0  0  0  0  6  0  0  0  0  0  0
    2.3972    0.7489    0.4587 O   0  0  0  0  0  0  0  0  0  0  0  0
    2.4196   -1.7318    0.5339 O   0  0  0  0  0  0  0  0  0  0  0  0
    1.7712   -0.6457   -1.7371 N   0  0  0  0  0  0  0  0  0  0  0  0
    1.1333    0.4347   -2.4611 C   0  0  0  0  0  0  0  0  0  0  0  0
    2.2956    0.3479   -3.4593 C   0  0  0  0  0  0  0  0  0  0  0  0
    2.9844   -0.5765   -2.4464 C   0  0  1  0  0  0  0  0  0  0  0  0
    4.1639    0.0708   -1.8301 C   0  0  0  0  0  0  0  0  0  0  0  0
    4.5056   -0.6010   -0.6399 O   0  0  0  0  0  0  0  0  0  0  0  0
    5.5968   -0.1311    0.0820 C   0  0  0  0  0  0  0  0  0  0  0  0
    6.3364    0.9480   -0.3242 C   0  0  0  0  0  0  0  0  0  0  0  0
    7.4108    1.3748    0.4288 C   0  0  0  0  0  0  0  0  0  0  0  0
    7.7690    0.7366    1.5986 C   0  0  0  0  0  0  0  0  0  0  0  0
    7.0307   -0.3591    2.0260 C   0  0  0  0  0  0  0  0  0  0  0  0
    5.9528   -0.7662    1.2456 C   0  0  0  0  0  0  0  0  0  0  0  0
   -0.5676   -1.6655    0.8213 C   0  0  0  0  0  0  0  0  0  0  0  0
   -1.8760   -1.6785    1.2593 C   0  0  0  0  0  0  0  0  0  0  0  0
   -5.5947   -0.1475    2.9548 H   0  0  0  0  0  0  0  0  0  0  0  0
   -4.4383    1.1236    2.5110 H   0  0  0  0  0  0  0  0  0  0  0  0
   -7.1206   -1.0770    1.4055 H   0  0  0  0  0  0  0  0  0  0  0  0
   -8.5910   -0.6646   -0.6001 H   0  0  0  0  0  0  0  0  0  0  0  0
   -6.0193    2.4923   -1.7554 H   0  0  0  0  0  0  0  0  0  0  0  0
   -4.5950    2.0592    0.2278 H   0  0  0  0  0  0  0  0  0  0  0  0
   -2.4344    1.6388    1.1830 H   0  0  0  0  0  0  0  0  0  0  0  0
   -0.0843    1.6120    0.4003 H   0  0  0  0  0  0  0  0  0  0  0  0
    1.1272    1.3865   -1.9110 H   0  0  0  0  0  0  0  0  0  0  0  0
    0.1504    0.1778   -2.8884 H   0  0  0  0  0  0  0  0  0  0  0  0
    2.7867    1.3120   -3.5871 H   0  0  0  0  0  0  0  0  0  0  0  0
    1.9797   -0.1830   -4.3913 H   0  0  0  0  0  0  0  0  0  0  0  0
    3.2504   -1.5454   -2.9261 H   0  0  0  0  0  0  0  0  0  0  0  0
    4.0764    1.1649   -1.6952 H   0  0  0  0  0  0  0  0  0  0  0  0
    5.0367   -0.0721   -2.5263 H   0  0  0  0  0  0  0  0  0  0  0  0
    6.0631    1.4622   -1.2489 H   0  0  0  0  0  0  0  0  0  0  0  0
    8.0051    2.2310    0.1152 H   0  0  0  0  0  0  0  0  0  0  0  0
    8.6059    1.0551    2.2016 H   0  0  0  0  0  0  0  0  0  0  0  0
    7.2810   -0.8859    2.9385 H   0  0  0  0  0  0  0  0  0  0  0  0
    5.3529   -1.6251    1.5559 H   0  0  0  0  0  0  0  0  0  0  0  0
   -0.0378   -2.6038    0.7187 H   0  0  0  0  0  0  0  0  0  0  0  0
  1  2  2  0
  2  3  1  0
  3  4  2  0
  3  5  1  0
  5  6  1  0
  6  7  1  0
  7  8  2  0
  8  9  1  0
  9 10  2  0
 10 11  1  0
 10 12  1  0
 12 13  2  0
  5 14  1  0
 14 15  2  0
 15 16  1  0
 16 17  2  0
 17 18  1  0
 18 19  2  0
 18 20  2  0
 18 21  1  0
 21 22  1  0
 22 23  1  0
 23 24  1  0
 24 25  1  0
 25 26  1  0
 26 27  1  0
 27 28  2  0
 28 29  1  0
 29 30  2  0
 30 31  1  0
 31 32  2  0
 17 33  1  0
 33 34  2  0
 34  2  1  0
 13  7  1  0
 34 14  1  0
 24 21  1  0
 32 27  1  0
  6 35  1  0
  6 36  1  0
  8 37  1  0
  9 38  1  0
 12 39  1  0
 13 40  1  0
 15 41  1  0
 16 42  1  0
 22 43  1  0
 22 44  1  0
 23 45  1  0
 23 46  1  0
 24 47  1  6
 25 48  1  0
 25 49  1  0
 28 50  1  0
 29 51  1  0
 30 52  1  0
 31 53  1  0
 32 54  1  0
 33 55  1  0
M  END
$$$$
