
     RDKit          3D

 50 52  0  0  0  0  0  0  0  0999 V2000
    5.7388   -0.8239    1.3924 C   0  0  0  0  0  0  0  0  0  0  0  0
    5.7636   -1.7238    0.2541 N   0  0  0  0  0  0  0  0  0  0  0  0
    6.7308   -2.7632    0.5613 C   0  0  0  0  0  0  0  0  0  0  0  0
    4.4632   -2.3613    0.1929 C   0  0  0  0  0  0  0  0  0  0  0  0
    3.3664   -1.3680    0.0218 C   0  0  0  0  0  0  0  0  0  0  0  0
    2.9627   -1.0033   -1.2525 C   0  0  0  0  0  0  0  0  0  0  0  0
    1.9405   -0.0775   -1.4045 C   0  0  0  0  0  0  0  0  0  0  0  0
    1.3015    0.5020   -0.3365 C   0  0  0  0  0  0  0  0  0  0  0  0
    0.2406    1.4627   -0.5587 C   0  0  0  0  0  0  0  0  0  0  0  0
   -0.0780    1.7504   -1.7409 O   0  0  0  0  0  0  0  0  0  0  0  0
   -0.4839    2.1197    0.4671 N   0  0  0  0  0  0  0  0  0  0  0  0
   -1.5145    3.0529    0.1467 C   0  0  0  0  0  0  0  0  0  0  0  0
   -1.1865    4.3930   -0.0053 C   0  0  0  0  0  0  0  0  0  0  0  0
   -2.2080    5.2782   -0.3167 C   0  0  0  0  0  0  0  0  0  0  0  0
   -3.5116    4.8565   -0.4734 C   0  0  0  0  0  0  0  0  0  0  0  0
   -4.7822    5.9993   -0.8672 Cl  0  0  0  0  0  0  0  0  0  0  0  0
   -3.7810    3.5048   -0.3096 C   0  0  0  0  0  0  0  0  0  0  0  0
   -2.8021    2.5915   -0.0011 C   0  0  0  0  0  0  0  0  0  0  0  0
   -3.0393    1.1673    0.1794 C   0  0  0  0  0  0  0  0  0  0  0  0
   -2.0978    0.3705    0.4634 O   0  0  0  0  0  0  0  0  0  0  0  0
   -4.3240    0.5787    0.0520 N   0  0  0  0  0  0  0  0  0  0  0  0
   -4.5418   -0.8221    0.2322 C   0  0  0  0  0  0  0  0  0  0  0  0
   -5.8183   -1.3199    0.0920 C   0  0  0  0  0  0  0  0  0  0  0  0
   -6.1254   -2.6588    0.2474 C   0  0  0  0  0  0  0  0  0  0  0  0
   -5.0781   -3.5097    0.5578 C   0  0  0  0  0  0  0  0  0  0  0  0
   -5.3633   -5.2399    0.7777 Cl  0  0  0  0  0  0  0  0  0  0  0  0
   -3.8245   -2.9731    0.6881 C   0  0  0  0  0  0  0  0  0  0  0  0
   -3.5578   -1.6622    0.5301 N   0  0  0  0  0  0  0  0  0  0  0  0
    1.6965    0.1451    0.9288 C   0  0  0  0  0  0  0  0  0  0  0  0
    2.7255   -0.7868    1.0975 C   0  0  0  0  0  0  0  0  0  0  0  0
    5.0653    0.0071    1.1751 H   0  0  0  0  0  0  0  0  0  0  0  0
    6.7851   -0.5098    1.5839 H   0  0  0  0  0  0  0  0  0  0  0  0
    5.4365   -1.4222    2.2876 H   0  0  0  0  0  0  0  0  0  0  0  0
    6.5364   -3.6624   -0.0453 H   0  0  0  0  0  0  0  0  0  0  0  0
    7.7391   -2.3231    0.3879 H   0  0  0  0  0  0  0  0  0  0  0  0
    6.6222   -3.0756    1.6362 H   0  0  0  0  0  0  0  0  0  0  0  0
    4.2245   -2.9437    1.0950 H   0  0  0  0  0  0  0  0  0  0  0  0
    4.4699   -2.9924   -0.7277 H   0  0  0  0  0  0  0  0  0  0  0  0
    3.4588   -1.4531   -2.1174 H   0  0  0  0  0  0  0  0  0  0  0  0
    1.6218    0.2104   -2.4002 H   0  0  0  0  0  0  0  0  0  0  0  0
   -0.2305    1.8910    1.4543 H   0  0  0  0  0  0  0  0  0  0  0  0
   -0.1702    4.7464    0.1131 H   0  0  0  0  0  0  0  0  0  0  0  0
   -1.9686    6.3372   -0.4401 H   0  0  0  0  0  0  0  0  0  0  0  0
   -4.7871    3.1768   -0.4301 H   0  0  0  0  0  0  0  0  0  0  0  0
   -5.1216    1.2006   -0.1804 H   0  0  0  0  0  0  0  0  0  0  0  0
   -6.6616   -0.6713   -0.1523 H   0  0  0  0  0  0  0  0  0  0  0  0
   -7.1215   -3.0455    0.1377 H   0  0  0  0  0  0  0  0  0  0  0  0
   -3.0040   -3.6256    0.9291 H   0  0  0  0  0  0  0  0  0  0  0  0
    1.2488    0.5512    1.8206 H   0  0  0  0  0  0  0  0  0  0  0  0
    3.0446   -1.0752    2.0952 H   0  0  0  0  0  0  0  0  0  0  0  0
  1  2  1  0
  2  3  1  0
  2  4  1  0
  4  5  1  0
  5  6  2  0
  6  7  1  0
  7  8  2  0
  8  9  1  0
  9 10  2  0
  9 11  1  0
 11 12  1  0
 12 13  2  0
 13 14  1  0
 14 15  2  0
 15 16  1  0
 15 17  1  0
 17 18  2  0
 18 19  1  0
 19 20  2  0
 19 21  1  0
 21 22  1  0
 22 23  2  0
 23 24  1  0
 24 25  2  0
 25 26  1  0
 25 27  1  0
 27 28  2  0
  8 29  1  0
 29 30  2  0
 30  5  1  0
 18 12  1  0
 28 22  1  0
  1 31  1  0
  1 32  1  0
  1 33  1  0
  3 34  1  0
  3 35  1  0
  3 36  1  0
  4 37  1  0
  4 38  1  0
  6 39  1  0
  7 40  1  0
 11 41  1  0
 13 42  1  0
 14 43  1  0
 17 44  1  0
 21 45  1  0
 23 46  1  0
 24 47  1  0
 27 48  1  0
 29 49  1  0
 30 50  1  0
M  END
$$$$
