
     RDKit          3D

 63 67  0  0  0  0  0  0  0  0999 V2000
  -10.3755   -1.4117    1.8252 N   0  0  0  0  0  0  0  0  0  0  0  0
   -9.4776   -1.5329    0.7458 C   0  0  0  0  0  0  0  0  0  0  0  0
   -9.8276   -2.2605   -0.2205 O   0  0  0  0  0  0  0  0  0  0  0  0
   -8.1960   -0.8415    0.7524 C   0  0  0  0  0  0  0  0  0  0  0  0
   -7.8658   -0.0572    1.8373 C   0  0  0  0  0  0  0  0  0  0  0  0
   -6.6677    0.6052    1.8716 C   0  0  0  0  0  0  0  0  0  0  0  0
   -5.7413    0.5191    0.8292 C   0  0  0  0  0  0  0  0  0  0  0  0
   -6.0632   -0.2607   -0.2555 C   0  0  0  0  0  0  0  0  0  0  0  0
   -5.1741   -0.3653   -1.2943 C   0  0  0  0  0  0  0  0  0  0  0  0
   -3.9121    0.2756   -1.3604 N   0  0  0  0  0  0  0  0  0  0  0  0
   -3.0340    0.1023   -2.5101 C   0  0  0  0  0  0  0  0  0  0  0  0
   -1.7913    0.8879   -2.3019 C   0  0  0  0  0  0  0  0  0  0  0  0
   -1.7296    2.1888   -2.7395 C   0  0  0  0  0  0  0  0  0  0  0  0
   -0.5617    2.8914   -2.5303 C   0  0  0  0  0  0  0  0  0  0  0  0
    0.5072    2.2952   -1.8990 C   0  0  0  0  0  0  0  0  0  0  0  0
    0.4659    0.9702   -1.4449 C   0  0  0  0  0  0  0  0  0  0  0  0
    1.6278    0.4646   -0.8086 N   0  0  0  0  0  0  0  0  0  0  0  0
    1.8228   -0.8111   -0.2788 C   0  0  0  0  0  0  0  0  0  0  0  0
    0.8580   -1.6311   -0.3671 O   0  0  0  0  0  0  0  0  0  0  0  0
    3.0673   -1.2076    0.3515 C   0  0  0  0  0  0  0  0  0  0  0  0
    3.1773   -2.5078    0.8602 C   0  0  0  0  0  0  0  0  0  0  0  0
    4.3447   -2.9363    1.4722 C   0  0  0  0  0  0  0  0  0  0  0  0
    5.3850   -2.0941    1.5793 N   0  0  0  0  0  0  0  0  0  0  0  0
    5.3189   -0.8519    1.1086 C   0  0  0  0  0  0  0  0  0  0  0  0
    6.3912    0.0756    1.1981 N   0  0  0  0  0  0  0  0  0  0  0  0
    6.3382    1.4116    0.6887 C   0  0  0  0  0  0  0  0  0  0  0  0
    7.7390    1.9805    0.7331 C   0  0  0  0  0  0  0  0  0  0  0  0
    8.7753    1.0346    0.2080 C   0  0  0  0  0  0  0  0  0  0  0  0
    8.7010   -0.3415    0.8017 C   0  0  0  0  0  0  0  0  0  0  0  0
    7.6107   -0.3655    1.8471 C   0  0  0  0  0  0  0  0  0  0  0  0
    4.1428   -0.3925    0.4821 C   0  0  0  0  0  0  0  0  0  0  0  0
   -0.6984    0.3079   -1.6670 C   0  0  0  0  0  0  0  0  0  0  0  0
   -5.5514   -1.1507   -2.3349 N   0  0  0  0  0  0  0  0  0  0  0  0
   -6.7359   -1.7920   -2.3448 C   0  0  0  0  0  0  0  0  0  0  0  0
   -7.6062   -1.6981   -1.3431 N   0  0  0  0  0  0  0  0  0  0  0  0
   -7.2917   -0.9346   -0.2813 C   0  0  0  0  0  0  0  0  0  0  0  0
  -10.3142   -2.0825    2.6123 H   0  0  0  0  0  0  0  0  0  0  0  0
  -11.0780   -0.6648    1.8228 H   0  0  0  0  0  0  0  0  0  0  0  0
   -8.5783    0.0244    2.6664 H   0  0  0  0  0  0  0  0  0  0  0  0
   -6.3915    1.2248    2.7139 H   0  0  0  0  0  0  0  0  0  0  0  0
   -4.8059    1.0499    0.8805 H   0  0  0  0  0  0  0  0  0  0  0  0
   -3.5770    0.8787   -0.6062 H   0  0  0  0  0  0  0  0  0  0  0  0
   -3.5620    0.5350   -3.3779 H   0  0  0  0  0  0  0  0  0  0  0  0
   -2.8061   -0.9661   -2.6925 H   0  0  0  0  0  0  0  0  0  0  0  0
   -2.5925    2.6395   -3.2382 H   0  0  0  0  0  0  0  0  0  0  0  0
   -0.5405    3.9139   -2.8850 H   0  0  0  0  0  0  0  0  0  0  0  0
    1.3957    2.8889   -1.7610 H   0  0  0  0  0  0  0  0  0  0  0  0
    2.4754    1.1177   -0.7071 H   0  0  0  0  0  0  0  0  0  0  0  0
    2.3458   -3.1752    0.7724 H   0  0  0  0  0  0  0  0  0  0  0  0
    4.4672   -3.9344    1.8776 H   0  0  0  0  0  0  0  0  0  0  0  0
    5.7186    2.0404    1.3553 H   0  0  0  0  0  0  0  0  0  0  0  0
    5.9349    1.4585   -0.3454 H   0  0  0  0  0  0  0  0  0  0  0  0
    7.7337    2.8677    0.0378 H   0  0  0  0  0  0  0  0  0  0  0  0
    7.9748    2.3968    1.7309 H   0  0  0  0  0  0  0  0  0  0  0  0
    9.7710    1.4698    0.4588 H   0  0  0  0  0  0  0  0  0  0  0  0
    8.7356    1.0104   -0.9056 H   0  0  0  0  0  0  0  0  0  0  0  0
    8.3656   -1.0368   -0.0152 H   0  0  0  0  0  0  0  0  0  0  0  0
    9.6726   -0.7014    1.2004 H   0  0  0  0  0  0  0  0  0  0  0  0
    7.5447   -1.3850    2.2478 H   0  0  0  0  0  0  0  0  0  0  0  0
    7.8118    0.3495    2.6735 H   0  0  0  0  0  0  0  0  0  0  0  0
    4.1347    0.6193    0.1167 H   0  0  0  0  0  0  0  0  0  0  0  0
   -0.8353   -0.7073   -1.3605 H   0  0  0  0  0  0  0  0  0  0  0  0
   -6.9732   -2.3974   -3.1981 H   0  0  0  0  0  0  0  0  0  0  0  0
  1  2  1  0
  2  3  2  0
  2  4  1  0
  4  5  2  0
  5  6  1  0
  6  7  2  0
  7  8  1  0
  8  9  2  0
  9 10  1  0
 10 11  1  0
 11 12  1  0
 12 13  2  0
 13 14  1  0
 14 15  2  0
 15 16  1  0
 16 17  1  0
 17 18  1  0
 18 19  2  0
 18 20  1  0
 20 21  2  0
 21 22  1  0
 22 23  2  0
 23 24  1  0
 24 25  1  0
 25 26  1  0
 26 27  1  0
 27 28  1  0
 28 29  1  0
 29 30  1  0
 24 31  2  0
 16 32  2  0
  9 33  1  0
 33 34  2  0
 34 35  1  0
 35 36  2  0
 36  4  1  0
 36  8  1  0
 32 12  1  0
 31 20  1  0
 30 25  1  0
  1 37  1  0
  1 38  1  0
  5 39  1  0
  6 40  1  0
  7 41  1  0
 10 42  1  0
 11 43  1  0
 11 44  1  0
 13 45  1  0
 14 46  1  0
 15 47  1  0
 17 48  1  0
 21 49  1  0
 22 50  1  0
 26 51  1  0
 26 52  1  0
 27 53  1  0
 27 54  1  0
 28 55  1  0
 28 56  1  0
 29 57  1  0
 29 58  1  0
 30 59  1  0
 30 60  1  0
 31 61  1  0
 32 62  1  0
 34 63  1  0
M  END
$$$$
