
     RDKit          3D

 74 79  0  0  0  0  0  0  0  0999 V2000
   -0.2341   -1.2985   -3.5484 C   0  0  0  0  0  0  0  0  0  0  0  0
   -0.5488   -2.0934   -2.4612 C   0  0  0  0  0  0  0  0  0  0  0  0
   -0.8321   -1.5719   -1.2225 C   0  0  0  0  0  0  0  0  0  0  0  0
   -0.8032   -0.1912   -1.0471 C   0  0  0  0  0  0  0  0  0  0  0  0
   -1.0634    0.3396    0.2760 C   0  0  0  0  0  0  0  0  0  0  0  0
   -0.0858    0.5172    1.2784 C   0  0  0  0  0  0  0  0  0  0  0  0
    1.3093    0.1629    1.0360 C   0  0  0  0  0  0  0  0  0  0  0  0
    2.0548    0.8483    0.1027 C   0  0  0  0  0  0  0  0  0  0  0  0
    3.3778    0.5229   -0.1521 C   0  0  0  0  0  0  0  0  0  0  0  0
    3.9121   -0.5298    0.5827 C   0  0  0  0  0  0  0  0  0  0  0  0
    5.2418   -0.8829    0.3491 O   0  0  0  0  0  0  0  0  0  0  0  0
    6.0284   -0.1912   -0.6080 C   0  0  0  0  0  0  0  0  0  0  0  0
    7.4045   -0.7702   -0.6595 C   0  0  0  0  0  0  0  0  0  0  0  0
    8.1131   -0.7040    0.5814 N   0  0  0  0  0  0  0  0  0  0  0  0
    9.4200   -1.2880    0.4110 C   0  0  0  0  0  0  0  0  0  0  0  0
   10.2969   -0.1969   -0.2043 C   0  0  0  0  0  0  0  0  0  0  0  0
    9.6201    1.0756    0.2370 C   0  0  0  0  0  0  0  0  0  0  0  0
    8.4083    0.6247    1.0238 C   0  0  0  0  0  0  0  0  0  0  0  0
    3.1801   -1.2100    1.5063 C   0  0  0  0  0  0  0  0  0  0  0  0
    1.8854   -0.8641    1.7306 C   0  0  0  0  0  0  0  0  0  0  0  0
   -0.6492    1.0087    2.3358 O   0  0  0  0  0  0  0  0  0  0  0  0
   -1.9483    1.1835    2.1350 C   0  0  0  0  0  0  0  0  0  0  0  0
   -2.9237    1.6552    2.9204 N   0  0  0  0  0  0  0  0  0  0  0  0
   -4.1774    1.7239    2.4539 C   0  0  0  0  0  0  0  0  0  0  0  0
   -4.4763    1.3318    1.2212 N   0  0  0  0  0  0  0  0  0  0  0  0
   -3.5621    0.8484    0.3712 C   0  0  0  0  0  0  0  0  0  0  0  0
   -3.8636    0.4213   -0.9207 N   0  0  0  0  0  0  0  0  0  0  0  0
   -5.1473    0.4335   -1.5574 C   0  0  0  0  0  0  0  0  0  0  0  0
   -6.2232   -0.3996   -0.9502 C   0  0  0  0  0  0  0  0  0  0  0  0
   -6.6635    0.0703    0.3112 N   0  0  0  0  0  0  0  0  0  0  0  0
   -7.4620    1.2611    0.1891 C   0  0  0  0  0  0  0  0  0  0  0  0
   -8.6093    1.3197    1.1339 C   0  0  0  0  0  0  0  0  0  0  0  0
   -9.3982    0.0981    0.9006 N   0  0  0  0  0  0  0  0  0  0  0  0
   -8.6193   -0.9935    1.3804 C   0  0  0  0  0  0  0  0  0  0  0  0
   -7.1522   -0.9057    1.2153 C   0  0  0  0  0  0  0  0  0  0  0  0
   -2.2350    0.7622    0.8257 C   0  0  0  0  0  0  0  0  0  0  0  0
   -0.4912    0.6225   -2.1205 C   0  0  0  0  0  0  0  0  0  0  0  0
   -0.2122    0.0758   -3.3480 C   0  0  0  0  0  0  0  0  0  0  0  0
   -0.0139   -1.7264   -4.5163 H   0  0  0  0  0  0  0  0  0  0  0  0
   -0.5577   -3.1719   -2.6481 H   0  0  0  0  0  0  0  0  0  0  0  0
   -1.0764   -2.2393   -0.3898 H   0  0  0  0  0  0  0  0  0  0  0  0
    1.6316    1.6839   -0.4785 H   0  0  0  0  0  0  0  0  0  0  0  0
    3.9754    1.0556   -0.8850 H   0  0  0  0  0  0  0  0  0  0  0  0
    5.5518   -0.3760   -1.6038 H   0  0  0  0  0  0  0  0  0  0  0  0
    6.0258    0.9033   -0.4314 H   0  0  0  0  0  0  0  0  0  0  0  0
    7.9854   -0.2453   -1.4659 H   0  0  0  0  0  0  0  0  0  0  0  0
    7.3093   -1.8485   -0.9339 H   0  0  0  0  0  0  0  0  0  0  0  0
    9.3613   -2.1653   -0.2749 H   0  0  0  0  0  0  0  0  0  0  0  0
    9.8244   -1.5774    1.3940 H   0  0  0  0  0  0  0  0  0  0  0  0
   11.2839   -0.2848    0.2560 H   0  0  0  0  0  0  0  0  0  0  0  0
   10.3010   -0.2691   -1.3043 H   0  0  0  0  0  0  0  0  0  0  0  0
    9.3694    1.7262   -0.6099 H   0  0  0  0  0  0  0  0  0  0  0  0
   10.2633    1.6354    0.9311 H   0  0  0  0  0  0  0  0  0  0  0  0
    7.5632    1.3334    0.9551 H   0  0  0  0  0  0  0  0  0  0  0  0
    8.6766    0.5503    2.1147 H   0  0  0  0  0  0  0  0  0  0  0  0
    3.6648   -2.0275    2.0500 H   0  0  0  0  0  0  0  0  0  0  0  0
    1.2675   -1.3838    2.4597 H   0  0  0  0  0  0  0  0  0  0  0  0
   -5.0008    2.1080    3.0790 H   0  0  0  0  0  0  0  0  0  0  0  0
   -3.0983    0.0250   -1.5503 H   0  0  0  0  0  0  0  0  0  0  0  0
   -5.0808    0.1531   -2.6457 H   0  0  0  0  0  0  0  0  0  0  0  0
   -5.5420    1.5089   -1.6291 H   0  0  0  0  0  0  0  0  0  0  0  0
   -7.1297   -0.3700   -1.6368 H   0  0  0  0  0  0  0  0  0  0  0  0
   -5.9330   -1.4819   -0.9407 H   0  0  0  0  0  0  0  0  0  0  0  0
   -6.8577    2.1654    0.2168 H   0  0  0  0  0  0  0  0  0  0  0  0
   -7.9029    1.2174   -0.8535 H   0  0  0  0  0  0  0  0  0  0  0  0
   -8.2553    1.2974    2.1934 H   0  0  0  0  0  0  0  0  0  0  0  0
   -9.2147    2.2115    0.8959 H   0  0  0  0  0  0  0  0  0  0  0  0
   -9.4547    0.0152   -0.1612 H   0  0  0  0  0  0  0  0  0  0  0  0
   -8.8923   -1.1422    2.4670 H   0  0  0  0  0  0  0  0  0  0  0  0
   -9.0203   -1.9263    0.8843 H   0  0  0  0  0  0  0  0  0  0  0  0
   -6.6868   -0.7054    2.2260 H   0  0  0  0  0  0  0  0  0  0  0  0
   -6.7571   -1.9025    0.9162 H   0  0  0  0  0  0  0  0  0  0  0  0
   -0.4834    1.6860   -1.9248 H   0  0  0  0  0  0  0  0  0  0  0  0
    0.0321    0.7517   -4.1821 H   0  0  0  0  0  0  0  0  0  0  0  0
  1  2  2  0
  2  3  1  0
  3  4  2  0
  4  5  1  0
  5  6  2  0
  6  7  1  0
  7  8  2  0
  8  9  1  0
  9 10  2  0
 10 11  1  0
 11 12  1  0
 12 13  1  0
 13 14  1  0
 14 15  1  0
 15 16  1  0
 16 17  1  0
 17 18  1  0
 10 19  1  0
 19 20  2  0
  6 21  1  0
 21 22  1  0
 22 23  2  0
 23 24  1  0
 24 25  2  0
 25 26  1  0
 26 27  1  0
 27 28  1  0
 28 29  1  0
 29 30  1  0
 30 31  1  0
 31 32  1  0
 32 33  1  0
 33 34  1  0
 34 35  1  0
 26 36  2  0
  4 37  1  0
 37 38  2  0
 38  1  1  0
 36  5  1  0
 20  7  1  0
 36 22  1  0
 18 14  1  0
 35 30  1  0
  1 39  1  0
  2 40  1  0
  3 41  1  0
  8 42  1  0
  9 43  1  0
 12 44  1  0
 12 45  1  0
 13 46  1  0
 13 47  1  0
 15 48  1  0
 15 49  1  0
 16 50  1  0
 16 51  1  0
 17 52  1  0
 17 53  1  0
 18 54  1  0
 18 55  1  0
 19 56  1  0
 20 57  1  0
 24 58  1  0
 27 59  1  0
 28 60  1  0
 28 61  1  0
 29 62  1  0
 29 63  1  0
 31 64  1  0
 31 65  1  0
 32 66  1  0
 32 67  1  0
 33 68  1  0
 34 69  1  0
 34 70  1  0
 35 71  1  0
 35 72  1  0
 37 73  1  0
 38 74  1  0
M  END
$$$$
