
     RDKit          3D

 58 59  0  0  0  0  0  0  0  0999 V2000
    1.2044   -1.6650   -1.2352 C   0  0  1  0  0  0  0  0  0  0  0  0
    0.9445   -2.6634   -0.1268 C   0  0  0  0  0  0  0  0  0  0  0  0
    0.6369   -1.8020    1.0849 C   0  0  1  0  0  0  0  0  0  0  0  0
    1.8132   -1.2521    1.6171 O   0  0  0  0  0  0  0  0  0  0  0  0
   -0.2095   -0.6964    0.4840 C   0  0  2  0  0  0  0  0  0  0  0  0
   -1.6533   -1.0393    0.5115 C   0  0  0  0  0  0  0  0  0  0  0  0
   -2.5005   -0.2562    1.1626 C   0  0  0  0  0  0  0  0  0  0  0  0
   -3.9551   -0.5451    1.2268 C   0  0  1  0  0  0  0  0  0  0  0  0
   -4.6346    0.6603    1.2607 O   0  0  0  0  0  0  0  0  0  0  0  0
   -4.4550   -1.3727    0.1038 C   0  0  0  0  0  0  0  0  0  0  0  0
   -4.2480   -0.7384   -1.2540 C   0  0  0  0  0  0  0  0  0  0  0  0
   -5.9415   -1.5653    0.2828 C   0  0  0  0  0  0  0  0  0  0  0  0
   -6.5997   -0.2613    0.2720 C   0  0  0  0  0  0  0  0  0  0  0  0
   -7.1705    0.8260    0.2541 C   0  0  0  0  0  0  0  0  0  0  0  0
   -7.8336    2.1250    0.2284 C   0  0  0  0  0  0  0  0  0  0  0  0
    0.3513   -0.4729   -0.8801 C   0  0  1  0  0  0  0  0  0  0  0  0
    1.2959    0.7212   -0.8555 C   0  0  0  0  0  0  0  0  0  0  0  0
    2.6634    0.1577   -0.6904 C   0  0  0  0  0  0  0  0  0  0  0  0
    2.6324   -1.2129   -1.2560 C   0  0  0  0  0  0  0  0  0  0  0  0
    3.7137    0.7566   -0.1446 C   0  0  0  0  0  0  0  0  0  0  0  0
    5.0443    0.1026   -0.0269 C   0  0  0  0  0  0  0  0  0  0  0  0
    6.0970    0.8926   -0.7740 C   0  0  0  0  0  0  0  0  0  0  0  0
    6.1810    2.2726   -0.1963 C   0  0  0  0  0  0  0  0  0  0  0  0
    7.2277    3.0679   -0.9319 C   0  0  0  0  0  0  0  0  0  0  0  0
    7.4740    4.3824   -0.5597 O   0  0  0  0  0  0  0  0  0  0  0  0
    7.8731    2.5284   -1.8837 O   0  0  0  0  0  0  0  0  0  0  0  0
    0.9011   -2.0200   -2.2219 H   0  0  0  0  0  0  0  0  0  0  0  0
    1.8175   -3.3129    0.0718 H   0  0  0  0  0  0  0  0  0  0  0  0
    0.0332   -3.2066   -0.3958 H   0  0  0  0  0  0  0  0  0  0  0  0
    0.0763   -2.3753    1.8525 H   0  0  0  0  0  0  0  0  0  0  0  0
    2.5489   -1.9086    1.6516 H   0  0  0  0  0  0  0  0  0  0  0  0
    0.0050    0.2032    1.1251 H   0  0  0  0  0  0  0  0  0  0  0  0
   -1.9889   -1.9128    0.0058 H   0  0  0  0  0  0  0  0  0  0  0  0
   -2.1041    0.6256    1.6632 H   0  0  0  0  0  0  0  0  0  0  0  0
   -4.1609   -1.0669    2.1716 H   0  0  0  0  0  0  0  0  0  0  0  0
   -4.2349    1.2930    1.8972 H   0  0  0  0  0  0  0  0  0  0  0  0
   -4.0166   -2.4102    0.1216 H   0  0  0  0  0  0  0  0  0  0  0  0
   -5.1828   -0.2195   -1.6192 H   0  0  0  0  0  0  0  0  0  0  0  0
   -3.4745    0.0300   -1.2846 H   0  0  0  0  0  0  0  0  0  0  0  0
   -4.0918   -1.5708   -1.9714 H   0  0  0  0  0  0  0  0  0  0  0  0
   -6.3707   -2.2104   -0.5110 H   0  0  0  0  0  0  0  0  0  0  0  0
   -6.1239   -1.9974    1.2991 H   0  0  0  0  0  0  0  0  0  0  0  0
   -8.6630    2.1151   -0.5078 H   0  0  0  0  0  0  0  0  0  0  0  0
   -8.1737    2.4358    1.2289 H   0  0  0  0  0  0  0  0  0  0  0  0
   -7.1452    2.9314   -0.1416 H   0  0  0  0  0  0  0  0  0  0  0  0
   -0.4359   -0.2625   -1.6337 H   0  0  0  0  0  0  0  0  0  0  0  0
    1.2360    1.3369   -1.7664 H   0  0  0  0  0  0  0  0  0  0  0  0
    1.1281    1.3327    0.0678 H   0  0  0  0  0  0  0  0  0  0  0  0
    3.0629   -1.2275   -2.2803 H   0  0  0  0  0  0  0  0  0  0  0  0
    3.2614   -1.9060   -0.6576 H   0  0  0  0  0  0  0  0  0  0  0  0
    3.5460    1.7586    0.2148 H   0  0  0  0  0  0  0  0  0  0  0  0
    5.0299   -0.9038   -0.4855 H   0  0  0  0  0  0  0  0  0  0  0  0
    5.3558    0.0203    1.0348 H   0  0  0  0  0  0  0  0  0  0  0  0
    5.7119    1.0197   -1.8237 H   0  0  0  0  0  0  0  0  0  0  0  0
    7.0585    0.3805   -0.7925 H   0  0  0  0  0  0  0  0  0  0  0  0
    5.2181    2.8082   -0.2769 H   0  0  0  0  0  0  0  0  0  0  0  0
    6.4843    2.2399    0.8681 H   0  0  0  0  0  0  0  0  0  0  0  0
    7.7405    5.0300   -1.2967 H   0  0  0  0  0  0  0  0  0  0  0  0
  1  2  1  0
  2  3  1  0
  3  4  1  0
  3  5  1  0
  5  6  1  0
  6  7  2  0
  7  8  1  0
  8  9  1  0
  8 10  1  0
 10 11  1  0
 10 12  1  0
 12 13  1  0
 13 14  3  0
 14 15  1  0
  5 16  1  0
 16 17  1  0
 17 18  1  0
 18 19  1  0
 18 20  2  0
 20 21  1  0
 21 22  1  0
 22 23  1  0
 23 24  1  0
 24 25  1  0
 24 26  2  0
 16  1  1  0
 19  1  1  0
  1 27  1  6
  2 28  1  0
  2 29  1  0
  3 30  1  1
  4 31  1  0
  5 32  1  1
  6 33  1  0
  7 34  1  0
  8 35  1  1
  9 36  1  0
 10 37  1  0
 11 38  1  0
 11 39  1  0
 11 40  1  0
 12 41  1  0
 12 42  1  0
 15 43  1  0
 15 44  1  0
 15 45  1  0
 16 46  1  6
 17 47  1  0
 17 48  1  0
 19 49  1  0
 19 50  1  0
 20 51  1  0
 21 52  1  0
 21 53  1  0
 22 54  1  0
 22 55  1  0
 23 56  1  0
 23 57  1  0
 25 58  1  0
M  END
$$$$
