
     RDKit          3D

 43 45  0  0  0  0  0  0  0  0999 V2000
   -5.2146   -0.7986    1.4157 C   0  0  0  0  0  0  0  0  0  0  0  0
   -4.7762   -0.1766    0.1354 C   0  0  0  0  0  0  0  0  0  0  0  0
   -5.2093   -0.9441   -1.0828 C   0  0  0  0  0  0  0  0  0  0  0  0
   -5.2696    1.2506    0.0162 C   0  0  0  0  0  0  0  0  0  0  0  0
   -3.2788   -0.0816    0.0461 C   0  0  0  0  0  0  0  0  0  0  0  0
   -2.5906   -0.5710    1.1308 C   0  0  0  0  0  0  0  0  0  0  0  0
   -1.2318   -0.4922    1.0652 C   0  0  0  0  0  0  0  0  0  0  0  0
   -0.4577    0.0114    0.0593 C   0  0  0  0  0  0  0  0  0  0  0  0
    1.2085    0.2709   -0.3648 S   0  0  0  0  0  0  0  0  0  0  0  0
    2.4646   -0.2018    0.7265 C   0  0  0  0  0  0  0  0  0  0  0  0
    2.5316   -0.7870    1.9672 C   0  0  0  0  0  0  0  0  0  0  0  0
    3.6516   -1.0935    2.6974 C   0  0  0  0  0  0  0  0  0  0  0  0
    4.8656   -0.7863    2.1389 C   0  0  0  0  0  0  0  0  0  0  0  0
    4.8884   -0.2012    0.9051 C   0  0  0  0  0  0  0  0  0  0  0  0
    3.7353    0.0898    0.2050 C   0  0  0  0  0  0  0  0  0  0  0  0
    3.9924    0.6776   -1.0170 C   0  0  0  0  0  0  0  0  0  0  0  0
    2.8600    1.0234   -1.8313 N   0  0  0  0  0  0  0  0  0  0  0  0
    5.2145    0.9485   -1.4985 N   0  0  0  0  0  0  0  0  0  0  0  0
    6.2856    0.6415   -0.7707 C   0  0  0  0  0  0  0  0  0  0  0  0
    7.5455    0.9563   -1.3420 N   0  0  0  0  0  0  0  0  0  0  0  0
    6.1429    0.0635    0.4392 N   0  0  0  0  0  0  0  0  0  0  0  0
   -1.2070    0.5016   -1.0315 C   0  0  0  0  0  0  0  0  0  0  0  0
   -2.6123    0.4532   -1.0339 C   0  0  0  0  0  0  0  0  0  0  0  0
   -6.3200   -0.8598    1.3933 H   0  0  0  0  0  0  0  0  0  0  0  0
   -4.8862   -0.1748    2.2541 H   0  0  0  0  0  0  0  0  0  0  0  0
   -4.7790   -1.8038    1.5203 H   0  0  0  0  0  0  0  0  0  0  0  0
   -6.1808   -1.4714   -0.9268 H   0  0  0  0  0  0  0  0  0  0  0  0
   -5.2688   -0.2326   -1.9487 H   0  0  0  0  0  0  0  0  0  0  0  0
   -4.4242   -1.6859   -1.4053 H   0  0  0  0  0  0  0  0  0  0  0  0
   -4.6770    1.9347    0.6543 H   0  0  0  0  0  0  0  0  0  0  0  0
   -5.0828    1.5339   -1.0485 H   0  0  0  0  0  0  0  0  0  0  0  0
   -6.3616    1.3388    0.1872 H   0  0  0  0  0  0  0  0  0  0  0  0
   -2.9702   -1.0101    2.0297 H   0  0  0  0  0  0  0  0  0  0  0  0
   -0.5935   -0.8424    1.8522 H   0  0  0  0  0  0  0  0  0  0  0  0
    1.5746   -1.0177    2.3832 H   0  0  0  0  0  0  0  0  0  0  0  0
    3.5242   -1.5515    3.6551 H   0  0  0  0  0  0  0  0  0  0  0  0
    5.7475   -1.0242    2.7066 H   0  0  0  0  0  0  0  0  0  0  0  0
    2.7436    0.1236   -2.3869 H   0  0  0  0  0  0  0  0  0  0  0  0
    2.6772    2.0148   -1.4913 H   0  0  0  0  0  0  0  0  0  0  0  0
    7.9477    0.5745   -2.2279 H   0  0  0  0  0  0  0  0  0  0  0  0
    8.0351    1.6429   -0.7411 H   0  0  0  0  0  0  0  0  0  0  0  0
   -0.9377    0.9685   -1.9975 H   0  0  0  0  0  0  0  0  0  0  0  0
   -3.3071    0.7883   -1.7931 H   0  0  0  0  0  0  0  0  0  0  0  0
  1  2  1  0
  2  3  1  0
  2  4  1  0
  2  5  1  0
  5  6  2  0
  6  7  1  0
  7  8  2  0
  8  9  1  0
  9 10  1  0
 10 11  2  0
 11 12  1  0
 12 13  2  0
 13 14  1  0
 14 15  2  0
 15 16  1  0
 16 17  1  0
 16 18  2  0
 18 19  1  0
 19 20  1  0
 19 21  2  0
  8 22  1  0
 22 23  2  0
 23  5  1  0
 15 10  1  0
 21 14  1  0
  1 24  1  0
  1 25  1  0
  1 26  1  0
  3 27  1  0
  3 28  1  0
  3 29  1  0
  4 30  1  0
  4 31  1  0
  4 32  1  0
  6 33  1  0
  7 34  1  0
 11 35  1  0
 12 36  1  0
 13 37  1  0
 17 38  1  0
 17 39  1  0
 20 40  1  0
 20 41  1  0
 22 42  1  0
 23 43  1  0
M  END
$$$$
