
     RDKit          3D

 45 49  0  0  0  0  0  0  0  0999 V2000
   -5.3757    2.5467    0.6198 N   0  0  0  0  0  0  0  0  0  0  0  0
   -4.4277    1.5447    0.2273 C   0  0  0  0  0  0  0  0  0  0  0  0
   -4.1703    0.4992    0.8944 N   0  0  0  0  0  0  0  0  0  0  0  0
   -3.2366   -0.5486    0.5716 C   0  0  2  0  0  0  0  0  0  0  0  0
   -3.7401   -1.9058    1.0010 C   0  0  0  0  0  0  0  0  0  0  0  0
   -2.8058   -2.8983    0.6755 F   0  0  0  0  0  0  0  0  0  0  0  0
   -1.9147   -0.3095    1.2241 C   0  0  0  0  0  0  0  0  0  0  0  0
   -0.7761   -0.2132    0.4831 C   0  0  0  0  0  0  0  0  0  0  0  0
    0.5027   -0.0126    1.0345 C   0  0  0  0  0  0  0  0  0  0  0  0
    1.6251    0.0861    0.1856 N   0  0  0  0  0  0  0  0  0  0  0  0
    2.9829   -0.0363    0.5183 C   0  0  0  0  0  0  0  0  0  0  0  0
    3.3852   -0.3222    1.7634 N   0  0  0  0  0  0  0  0  0  0  0  0
    4.6517   -0.4532    2.1498 C   0  0  0  0  0  0  0  0  0  0  0  0
    5.6883   -0.2960    1.2518 C   0  0  0  0  0  0  0  0  0  0  0  0
    5.3089    0.0028   -0.0563 C   0  0  0  0  0  0  0  0  0  0  0  0
    6.3210    0.1652   -0.9739 C   0  0  0  0  0  0  0  0  0  0  0  0
    5.9966    0.4624   -2.2831 C   0  0  0  0  0  0  0  0  0  0  0  0
    7.2633    0.6710   -3.4543 Cl  0  0  0  0  0  0  0  0  0  0  0  0
    4.6621    0.5803   -2.5976 C   0  0  0  0  0  0  0  0  0  0  0  0
    3.6810    0.4158   -1.6758 N   0  0  0  0  0  0  0  0  0  0  0  0
    3.9922    0.1299   -0.4166 C   0  0  0  0  0  0  0  0  0  0  0  0
    0.5325    0.0835    2.4054 C   0  0  0  0  0  0  0  0  0  0  0  0
   -0.5916   -0.0057    3.2186 C   0  0  0  0  0  0  0  0  0  0  0  0
   -1.8270   -0.2061    2.5850 C   0  0  0  0  0  0  0  0  0  0  0  0
   -3.2518   -0.2837    3.5960 Cl  0  0  0  0  0  0  0  0  0  0  0  0
   -3.0467   -0.6458   -0.9394 C   0  0  1  0  0  0  0  0  0  0  0  0
   -4.3290   -0.6312   -1.7192 C   0  0  0  0  0  0  0  0  0  0  0  0
   -3.3824    0.5248   -1.7194 C   0  0  1  0  0  0  0  0  0  0  0  0
   -3.7062    1.6885   -0.9794 O   0  0  0  0  0  0  0  0  0  0  0  0
   -6.2564    2.7171    0.1242 H   0  0  0  0  0  0  0  0  0  0  0  0
   -5.1326    3.1194    1.4576 H   0  0  0  0  0  0  0  0  0  0  0  0
   -3.9823   -2.0264    2.0475 H   0  0  0  0  0  0  0  0  0  0  0  0
   -4.7070   -2.1342    0.4488 H   0  0  0  0  0  0  0  0  0  0  0  0
   -0.8157   -0.2875   -0.5840 H   0  0  0  0  0  0  0  0  0  0  0  0
    1.4248    0.2805   -0.8423 H   0  0  0  0  0  0  0  0  0  0  0  0
    4.9395   -0.6875    3.1762 H   0  0  0  0  0  0  0  0  0  0  0  0
    6.7010   -0.4012    1.5616 H   0  0  0  0  0  0  0  0  0  0  0  0
    7.3590    0.0595   -0.6645 H   0  0  0  0  0  0  0  0  0  0  0  0
    4.3850    0.8085   -3.5983 H   0  0  0  0  0  0  0  0  0  0  0  0
    1.5066    0.2492    2.8942 H   0  0  0  0  0  0  0  0  0  0  0  0
   -0.5299    0.0745    4.2954 H   0  0  0  0  0  0  0  0  0  0  0  0
   -2.3303   -1.3907   -1.3104 H   0  0  0  0  0  0  0  0  0  0  0  0
   -5.2990   -0.5200   -1.1992 H   0  0  0  0  0  0  0  0  0  0  0  0
   -4.4215   -1.2287   -2.6572 H   0  0  0  0  0  0  0  0  0  0  0  0
   -2.8529    0.7346   -2.6653 H   0  0  0  0  0  0  0  0  0  0  0  0
  1  2  1  0
  2  3  2  0
  3  4  1  0
  4  5  1  1
  5  6  1  0
  4  7  1  0
  7  8  2  0
  8  9  1  0
  9 10  1  0
 10 11  1  0
 11 12  2  0
 12 13  1  0
 13 14  2  0
 14 15  1  0
 15 16  2  0
 16 17  1  0
 17 18  1  0
 17 19  2  0
 19 20  1  0
 20 21  2  0
  9 22  2  0
 22 23  1  0
 23 24  2  0
 24 25  1  0
  4 26  1  0
 26 27  1  0
 27 28  1  0
 28 29  1  0
 29  2  1  0
 24  7  1  0
 28 26  1  0
 21 11  1  0
 21 15  1  0
  1 30  1  0
  1 31  1  0
  5 32  1  0
  5 33  1  0
  8 34  1  0
 10 35  1  0
 13 36  1  0
 14 37  1  0
 16 38  1  0
 19 39  1  0
 22 40  1  0
 23 41  1  0
 26 42  1  1
 27 43  1  0
 27 44  1  0
 28 45  1  6
M  END
$$$$
