
     RDKit          3D

 71 76  0  0  0  0  0  0  0  0999 V2000
   -7.6653   -2.1263    1.2035 C   0  0  0  0  0  0  0  0  0  0  0  0
   -7.3675   -0.6065    1.3182 C   0  0  1  0  0  0  0  0  0  0  0  0
   -6.2165   -0.2707    0.8738 O   0  0  0  0  0  0  0  0  0  0  0  0
   -4.9840    0.2613    0.7332 C   0  0  0  0  0  0  0  0  0  0  0  0
   -4.2147   -0.0085   -0.3791 C   0  0  0  0  0  0  0  0  0  0  0  0
   -3.0130    0.5232   -0.4969 C   0  0  0  0  0  0  0  0  0  0  0  0
   -2.0231    0.4080   -1.5325 N   0  0  0  0  0  0  0  0  0  0  0  0
   -2.3263    0.5405   -2.8324 C   0  0  0  0  0  0  0  0  0  0  0  0
   -1.1966    0.3834   -3.5754 N   0  0  0  0  0  0  0  0  0  0  0  0
   -0.1918    0.1515   -2.7067 C   0  0  0  0  0  0  0  0  0  0  0  0
    1.1611   -0.0769   -2.9053 C   0  0  0  0  0  0  0  0  0  0  0  0
    2.0147   -0.2914   -1.8511 C   0  0  0  0  0  0  0  0  0  0  0  0
    3.4361   -0.5291   -2.0434 C   0  0  0  0  0  0  0  0  0  0  0  0
    4.0401   -0.5565   -3.2741 C   0  0  0  0  0  0  0  0  0  0  0  0
    5.4015   -0.7829   -3.4194 C   0  0  0  0  0  0  0  0  0  0  0  0
    6.1336   -0.9782   -2.3235 N   0  0  0  0  0  0  0  0  0  0  0  0
    5.5779   -0.9584   -1.1069 C   0  0  0  0  0  0  0  0  0  0  0  0
    6.4261   -1.1718    0.0176 N   0  0  0  0  0  0  0  0  0  0  0  0
    7.8423   -1.3857   -0.1098 C   0  0  0  0  0  0  0  0  0  0  0  0
    8.4153   -1.6556    1.2702 C   0  0  0  0  0  0  0  0  0  0  0  0
    9.4864   -0.6707    1.6647 C   0  0  0  0  0  0  0  0  0  0  0  0
    9.0802    0.7108    1.5382 N   0  0  0  0  0  0  0  0  0  0  0  0
    8.2733    1.1714    2.6346 C   0  0  0  0  0  0  0  0  0  0  0  0
    8.4888    1.0015    0.2489 C   0  0  0  0  0  0  0  0  0  0  0  0
    8.5705   -0.1850   -0.6856 C   0  0  0  0  0  0  0  0  0  0  0  0
    4.2613   -0.7384   -0.9839 N   0  0  0  0  0  0  0  0  0  0  0  0
    1.4584   -0.2689   -0.5769 C   0  0  0  0  0  0  0  0  0  0  0  0
    0.1158   -0.0434   -0.3627 C   0  0  0  0  0  0  0  0  0  0  0  0
   -0.7242    0.1698   -1.4321 C   0  0  0  0  0  0  0  0  0  0  0  0
   -2.7990    1.4985    0.9789 S   0  0  0  0  0  0  0  0  0  0  0  0
   -4.4281    1.0934    1.6741 C   0  0  0  0  0  0  0  0  0  0  0  0
   -4.8671    1.6434    2.9427 C   0  0  0  0  0  0  0  0  0  0  0  0
   -6.1175    1.4588    3.5316 N   0  0  0  0  0  0  0  0  0  0  0  0
   -4.0526    2.3816    3.6227 O   0  0  0  0  0  0  0  0  0  0  0  0
   -8.5748    0.1028    0.7259 C   0  0  0  0  0  0  0  0  0  0  0  0
   -9.5700    0.6369    1.5108 C   0  0  0  0  0  0  0  0  0  0  0  0
  -10.6597    1.2911    0.9768 C   0  0  0  0  0  0  0  0  0  0  0  0
  -10.7834    1.4302   -0.3857 C   0  0  0  0  0  0  0  0  0  0  0  0
   -9.8029    0.9053   -1.1900 C   0  0  0  0  0  0  0  0  0  0  0  0
   -8.7009    0.2425   -0.6296 C   0  0  0  0  0  0  0  0  0  0  0  0
   -7.4810   -0.4244   -1.6883 Cl  0  0  0  0  0  0  0  0  0  0  0  0
   -7.1596   -2.5179    0.3148 H   0  0  0  0  0  0  0  0  0  0  0  0
   -7.2682   -2.6511    2.0970 H   0  0  0  0  0  0  0  0  0  0  0  0
   -8.7647   -2.2707    1.2070 H   0  0  0  0  0  0  0  0  0  0  0  0
   -7.5207   -0.4406    2.4416 H   0  0  0  0  0  0  0  0  0  0  0  0
   -4.5921   -0.6885   -1.1986 H   0  0  0  0  0  0  0  0  0  0  0  0
   -3.2812    0.7400   -3.3077 H   0  0  0  0  0  0  0  0  0  0  0  0
    1.4987   -0.0748   -3.9418 H   0  0  0  0  0  0  0  0  0  0  0  0
    3.4389   -0.3973   -4.1634 H   0  0  0  0  0  0  0  0  0  0  0  0
    5.8552   -0.8013   -4.3850 H   0  0  0  0  0  0  0  0  0  0  0  0
    5.9641   -1.1673    0.9756 H   0  0  0  0  0  0  0  0  0  0  0  0
    8.0023   -2.2256   -0.8110 H   0  0  0  0  0  0  0  0  0  0  0  0
    7.6186   -1.7674    2.0105 H   0  0  0  0  0  0  0  0  0  0  0  0
    8.9249   -2.6528    1.1999 H   0  0  0  0  0  0  0  0  0  0  0  0
    9.6960   -0.8460    2.7402 H   0  0  0  0  0  0  0  0  0  0  0  0
   10.4199   -0.8293    1.1238 H   0  0  0  0  0  0  0  0  0  0  0  0
    7.2056    0.9651    2.5147 H   0  0  0  0  0  0  0  0  0  0  0  0
    8.7120    0.7889    3.5743 H   0  0  0  0  0  0  0  0  0  0  0  0
    8.3737    2.2954    2.6536 H   0  0  0  0  0  0  0  0  0  0  0  0
    9.0705    1.8231   -0.2135 H   0  0  0  0  0  0  0  0  0  0  0  0
    7.4464    1.3569    0.3524 H   0  0  0  0  0  0  0  0  0  0  0  0
    8.1164    0.0744   -1.6340 H   0  0  0  0  0  0  0  0  0  0  0  0
    9.6333   -0.4880   -0.7937 H   0  0  0  0  0  0  0  0  0  0  0  0
    2.1367   -0.4397    0.2641 H   0  0  0  0  0  0  0  0  0  0  0  0
   -0.3216   -0.0249    0.6271 H   0  0  0  0  0  0  0  0  0  0  0  0
   -6.9064    2.0954    3.3151 H   0  0  0  0  0  0  0  0  0  0  0  0
   -6.2850    0.6818    4.1989 H   0  0  0  0  0  0  0  0  0  0  0  0
   -9.4842    0.5347    2.5990 H   0  0  0  0  0  0  0  0  0  0  0  0
  -11.4133    1.6918    1.6567 H   0  0  0  0  0  0  0  0  0  0  0  0
  -11.6567    1.9546   -0.8052 H   0  0  0  0  0  0  0  0  0  0  0  0
   -9.8828    1.0045   -2.2599 H   0  0  0  0  0  0  0  0  0  0  0  0
  1  2  1  0
  2  3  1  0
  3  4  1  0
  4  5  1  0
  5  6  2  0
  6  7  1  0
  7  8  1  0
  8  9  2  0
  9 10  1  0
 10 11  2  0
 11 12  1  0
 12 13  1  0
 13 14  2  0
 14 15  1  0
 15 16  2  0
 16 17  1  0
 17 18  1  0
 18 19  1  0
 19 20  1  0
 20 21  1  0
 21 22  1  0
 22 23  1  0
 22 24  1  0
 24 25  1  0
 17 26  2  0
 12 27  2  0
 27 28  1  0
 28 29  2  0
  6 30  1  0
 30 31  1  0
 31 32  1  0
 32 33  1  0
 32 34  2  0
  2 35  1  0
 35 36  2  0
 36 37  1  0
 37 38  2  0
 38 39  1  0
 39 40  2  0
 40 41  1  0
 31  4  2  0
 40 35  1  0
 29  7  1  0
 29 10  1  0
 26 13  1  0
 25 19  1  0
  1 42  1  0
  1 43  1  0
  1 44  1  0
  2 45  1  1
  5 46  1  0
  8 47  1  0
 11 48  1  0
 14 49  1  0
 15 50  1  0
 18 51  1  0
 19 52  1  0
 20 53  1  0
 20 54  1  0
 21 55  1  0
 21 56  1  0
 23 57  1  0
 23 58  1  0
 23 59  1  0
 24 60  1  0
 24 61  1  0
 25 62  1  0
 25 63  1  0
 27 64  1  0
 28 65  1  0
 33 66  1  0
 33 67  1  0
 36 68  1  0
 37 69  1  0
 38 70  1  0
 39 71  1  0
M  END
$$$$
