
     RDKit          3D

 53 57  0  0  0  0  0  0  0  0999 V2000
   -3.4625   -0.5453   -1.1885 C   0  0  0  0  0  0  0  0  0  0  0  0
   -2.5525   -0.3942   -0.0721 N   0  0  0  0  0  0  0  0  0  0  0  0
   -2.6865    0.4361    0.9655 C   0  0  0  0  0  0  0  0  0  0  0  0
   -3.7379    1.3382    1.2763 N   0  0  0  0  0  0  0  0  0  0  0  0
   -5.0088    1.4002    0.6863 C   0  0  0  0  0  0  0  0  0  0  0  0
   -5.4822    2.6115    0.1922 C   0  0  0  0  0  0  0  0  0  0  0  0
   -6.7285    2.6810   -0.3444 C   0  0  0  0  0  0  0  0  0  0  0  0
   -7.5526    1.5686   -0.4147 C   0  0  0  0  0  0  0  0  0  0  0  0
   -8.8948    1.7089   -1.0208 C   0  0  0  0  0  0  0  0  0  0  0  0
   -9.4879    2.8862   -0.6130 F   0  0  0  0  0  0  0  0  0  0  0  0
   -8.7946    1.6756   -2.4068 F   0  0  0  0  0  0  0  0  0  0  0  0
   -9.7015    0.6734   -0.5591 F   0  0  0  0  0  0  0  0  0  0  0  0
   -7.0954    0.3638    0.0724 C   0  0  0  0  0  0  0  0  0  0  0  0
   -5.8407    0.3051    0.6095 C   0  0  0  0  0  0  0  0  0  0  0  0
   -1.5665    0.2411    1.7430 N   0  0  0  0  0  0  0  0  0  0  0  0
   -0.7663   -0.6789    1.2053 C   0  0  0  0  0  0  0  0  0  0  0  0
    0.4586   -1.2579    1.5456 C   0  0  0  0  0  0  0  0  0  0  0  0
    1.0853   -2.2183    0.7943 C   0  0  0  0  0  0  0  0  0  0  0  0
    2.2789   -2.8307    1.0674 O   0  0  0  0  0  0  0  0  0  0  0  0
    3.5441   -2.5402    0.7512 C   0  0  0  0  0  0  0  0  0  0  0  0
    4.3584   -3.6323    0.4090 C   0  0  0  0  0  0  0  0  0  0  0  0
    5.6631   -3.4017    0.0736 C   0  0  0  0  0  0  0  0  0  0  0  0
    6.1504   -2.1576    0.0723 N   0  0  0  0  0  0  0  0  0  0  0  0
    5.3931   -1.0758    0.3971 C   0  0  0  0  0  0  0  0  0  0  0  0
    5.9897    0.2404    0.3647 C   0  0  0  0  0  0  0  0  0  0  0  0
    5.4687    1.4361    0.6378 N   0  0  0  0  0  0  0  0  0  0  0  0
    6.3844    2.3967    0.4775 C   0  0  0  0  0  0  0  0  0  0  0  0
    7.5529    1.7859    0.0809 C   0  0  0  0  0  0  0  0  0  0  0  0
    8.8602    2.4162   -0.2312 C   0  0  0  0  0  0  0  0  0  0  0  0
    9.1444    2.1704   -1.5649 F   0  0  0  0  0  0  0  0  0  0  0  0
    9.8312    1.8259    0.5621 F   0  0  0  0  0  0  0  0  0  0  0  0
    8.8142    3.7513    0.0215 F   0  0  0  0  0  0  0  0  0  0  0  0
    7.2863    0.4603    0.0186 N   0  0  0  0  0  0  0  0  0  0  0  0
    4.0738   -1.2837    0.7394 C   0  0  0  0  0  0  0  0  0  0  0  0
    0.4156   -2.6121   -0.3853 C   0  0  0  0  0  0  0  0  0  0  0  0
   -0.7946   -2.0484   -0.7338 C   0  0  0  0  0  0  0  0  0  0  0  0
   -1.3854   -1.0881    0.0526 C   0  0  0  0  0  0  0  0  0  0  0  0
   -4.2165   -1.3102   -1.0009 H   0  0  0  0  0  0  0  0  0  0  0  0
   -3.9224    0.4193   -1.4504 H   0  0  0  0  0  0  0  0  0  0  0  0
   -2.8563   -0.8819   -2.0920 H   0  0  0  0  0  0  0  0  0  0  0  0
   -3.5421    2.0542    2.0495 H   0  0  0  0  0  0  0  0  0  0  0  0
   -4.8236    3.4717    0.2548 H   0  0  0  0  0  0  0  0  0  0  0  0
   -7.0855    3.6294   -0.7267 H   0  0  0  0  0  0  0  0  0  0  0  0
   -7.7473   -0.5292    0.0236 H   0  0  0  0  0  0  0  0  0  0  0  0
   -5.4901   -0.6734    0.9967 H   0  0  0  0  0  0  0  0  0  0  0  0
    0.9331   -0.9341    2.4459 H   0  0  0  0  0  0  0  0  0  0  0  0
    3.9640   -4.6401    0.4078 H   0  0  0  0  0  0  0  0  0  0  0  0
    6.2703   -4.2717   -0.1880 H   0  0  0  0  0  0  0  0  0  0  0  0
    6.2626    3.4613    0.6229 H   0  0  0  0  0  0  0  0  0  0  0  0
    8.0117   -0.2377   -0.2606 H   0  0  0  0  0  0  0  0  0  0  0  0
    3.4374   -0.4293    1.0081 H   0  0  0  0  0  0  0  0  0  0  0  0
    0.8951   -3.3684   -0.9901 H   0  0  0  0  0  0  0  0  0  0  0  0
   -1.3042   -2.3677   -1.6560 H   0  0  0  0  0  0  0  0  0  0  0  0
  1  2  1  0
  2  3  1  0
  3  4  1  0
  4  5  1  0
  5  6  2  0
  6  7  1  0
  7  8  2  0
  8  9  1  0
  9 10  1  0
  9 11  1  0
  9 12  1  0
  8 13  1  0
 13 14  2  0
  3 15  2  0
 15 16  1  0
 16 17  2  0
 17 18  1  0
 18 19  1  0
 19 20  1  0
 20 21  2  0
 21 22  1  0
 22 23  2  0
 23 24  1  0
 24 25  1  0
 25 26  2  0
 26 27  1  0
 27 28  2  0
 28 29  1  0
 29 30  1  0
 29 31  1  0
 29 32  1  0
 28 33  1  0
 24 34  2  0
 18 35  2  0
 35 36  1  0
 36 37  2  0
 37  2  1  0
 14  5  1  0
 37 16  1  0
 34 20  1  0
 33 25  1  0
  1 38  1  0
  1 39  1  0
  1 40  1  0
  4 41  1  0
  6 42  1  0
  7 43  1  0
 13 44  1  0
 14 45  1  0
 17 46  1  0
 21 47  1  0
 22 48  1  0
 27 49  1  0
 33 50  1  0
 34 51  1  0
 35 52  1  0
 36 53  1  0
M  END
$$$$
