
     RDKit          3D

 41 44  0  0  0  0  0  0  0  0999 V2000
   -0.7557   -0.0320   -0.6203 O   0  0  0  0  0  0  0  0  0  0  0  0
   -0.9232    0.2469    0.5900 C   0  0  0  0  0  0  0  0  0  0  0  0
    0.0977   -0.1418    1.6231 C   0  0  0  0  0  0  0  0  0  0  0  0
    1.2063   -0.8285    1.0478 N   0  0  0  0  0  0  0  0  0  0  0  0
    1.1202   -2.1878    0.9986 C   0  0  0  0  0  0  0  0  0  0  0  0
    0.1172   -2.8065    1.4380 O   0  0  0  0  0  0  0  0  0  0  0  0
    2.1824   -2.8603    0.4449 C   0  0  0  0  0  0  0  0  0  0  0  0
    3.2838   -2.2226   -0.0404 C   0  0  0  0  0  0  0  0  0  0  0  0
    3.3246   -0.8565    0.0305 C   0  0  0  0  0  0  0  0  0  0  0  0
    4.4552   -0.2394   -0.4757 C   0  0  0  0  0  0  0  0  0  0  0  0
    4.5575    1.1180   -0.4410 C   0  0  0  0  0  0  0  0  0  0  0  0
    5.7396    1.8302   -0.9660 C   0  0  0  0  0  0  0  0  0  0  0  0
    5.7368    1.7975   -2.3651 F   0  0  0  0  0  0  0  0  0  0  0  0
    5.6863    3.1602   -0.6147 F   0  0  0  0  0  0  0  0  0  0  0  0
    6.9256    1.3240   -0.4658 F   0  0  0  0  0  0  0  0  0  0  0  0
    3.5183    1.8310    0.1033 C   0  0  0  0  0  0  0  0  0  0  0  0
    2.3819    1.2187    0.6127 C   0  0  0  0  0  0  0  0  0  0  0  0
    2.2629   -0.1493    0.5860 C   0  0  0  0  0  0  0  0  0  0  0  0
   -2.1066    0.9363    0.9248 N   0  0  0  0  0  0  0  0  0  0  0  0
   -3.0351    1.2801   -0.0767 C   0  0  0  0  0  0  0  0  0  0  0  0
   -2.8708    2.8258   -1.0372 S   0  0  0  0  0  0  0  0  0  0  0  0
   -4.3376    2.5482   -2.0461 C   0  0  0  0  0  0  0  0  0  0  0  0
   -4.8267    1.3153   -1.5735 C   0  0  0  0  0  0  0  0  0  0  0  0
   -6.4452    0.6401   -2.4266 Br  0  0  0  0  0  0  0  0  0  0  0  0
   -4.1219    0.7369   -0.5834 C   0  0  0  0  0  0  0  0  0  0  0  0
   -4.6011   -0.5651   -0.0035 C   0  0  0  0  0  0  0  0  0  0  0  0
   -5.6722   -1.2769   -0.3815 N   0  0  0  0  0  0  0  0  0  0  0  0
   -5.8043   -2.3573    0.3544 N   0  0  0  0  0  0  0  0  0  0  0  0
   -4.8070   -2.3514    1.2246 C   0  0  0  0  0  0  0  0  0  0  0  0
   -4.0730   -1.2505    1.0006 N   0  0  0  0  0  0  0  0  0  0  0  0
    0.4006    0.7804    2.1386 H   0  0  0  0  0  0  0  0  0  0  0  0
   -0.3989   -0.8447    2.3602 H   0  0  0  0  0  0  0  0  0  0  0  0
    2.1549   -3.9418    0.3862 H   0  0  0  0  0  0  0  0  0  0  0  0
    4.0978   -2.8059   -0.4689 H   0  0  0  0  0  0  0  0  0  0  0  0
    5.2609   -0.8232   -0.8998 H   0  0  0  0  0  0  0  0  0  0  0  0
    3.5635    2.9000    0.1474 H   0  0  0  0  0  0  0  0  0  0  0  0
    1.5887    1.8106    1.0240 H   0  0  0  0  0  0  0  0  0  0  0  0
   -2.2966    1.1913    1.9047 H   0  0  0  0  0  0  0  0  0  0  0  0
   -4.6971    3.1953   -2.8007 H   0  0  0  0  0  0  0  0  0  0  0  0
   -4.6514   -3.1193    1.9665 H   0  0  0  0  0  0  0  0  0  0  0  0
   -3.2383   -1.0258    1.5651 H   0  0  0  0  0  0  0  0  0  0  0  0
  1  2  2  0
  2  3  1  0
  3  4  1  0
  4  5  1  0
  5  6  2  0
  5  7  1  0
  7  8  2  0
  8  9  1  0
  9 10  2  0
 10 11  1  0
 11 12  1  0
 12 13  1  0
 12 14  1  0
 12 15  1  0
 11 16  2  0
 16 17  1  0
 17 18  2  0
  2 19  1  0
 19 20  1  0
 20 21  1  0
 21 22  1  0
 22 23  2  0
 23 24  1  0
 23 25  1  0
 25 26  1  0
 26 27  2  0
 27 28  1  0
 28 29  2  0
 29 30  1  0
 18  4  1  0
 25 20  2  0
 30 26  1  0
 18  9  1  0
  3 31  1  0
  3 32  1  0
  7 33  1  0
  8 34  1  0
 10 35  1  0
 16 36  1  0
 17 37  1  0
 19 38  1  0
 22 39  1  0
 29 40  1  0
 30 41  1  0
M  END
$$$$
