
     RDKit          3D

 39 42  0  0  0  0  0  0  0  0999 V2000
    0.8074   -1.1299   -1.8132 O   0  0  0  0  0  0  0  0  0  0  0  0
    1.0713   -0.4643   -0.7720 C   0  0  0  0  0  0  0  0  0  0  0  0
    2.4520   -0.2043   -0.4323 C   0  0  0  0  0  0  0  0  0  0  0  0
    3.4391   -0.6515   -1.1931 C   0  0  0  0  0  0  0  0  0  0  0  0
    4.8278   -0.4006   -0.8684 C   0  0  0  0  0  0  0  0  0  0  0  0
    5.3026    0.2896    0.2008 C   0  0  0  0  0  0  0  0  0  0  0  0
    6.6765    0.4632    0.4038 C   0  0  0  0  0  0  0  0  0  0  0  0
    7.5982   -0.0587   -0.4720 C   0  0  0  0  0  0  0  0  0  0  0  0
    7.1134   -0.7512   -1.5445 N   0  0  0  0  0  0  0  0  0  0  0  0
    5.7982   -0.9160   -1.7365 C   0  0  0  0  0  0  0  0  0  0  0  0
   -0.0432    0.0030    0.0275 C   0  0  0  0  0  0  0  0  0  0  0  0
    0.1988    0.7329    1.1719 C   0  0  0  0  0  0  0  0  0  0  0  0
   -0.8635    1.1862    1.9464 C   0  0  0  0  0  0  0  0  0  0  0  0
   -2.1532    0.8972    1.5561 C   0  0  0  0  0  0  0  0  0  0  0  0
   -3.2316    1.3295    2.2982 C   0  0  0  0  0  0  0  0  0  0  0  0
   -4.5192    1.0456    1.9159 C   0  0  0  0  0  0  0  0  0  0  0  0
   -4.7621    0.3175    0.7744 C   0  0  0  0  0  0  0  0  0  0  0  0
   -6.0816    0.0540    0.4260 C   0  0  0  0  0  0  0  0  0  0  0  0
   -6.3557   -0.6726   -0.7115 C   0  0  0  0  0  0  0  0  0  0  0  0
   -5.3041   -1.1195   -1.4753 C   0  0  0  0  0  0  0  0  0  0  0  0
   -3.9662   -0.8671   -1.1456 C   0  0  0  0  0  0  0  0  0  0  0  0
   -3.6927   -0.1439   -0.0135 C   0  0  0  0  0  0  0  0  0  0  0  0
   -2.4060    0.1592    0.3994 C   0  0  0  0  0  0  0  0  0  0  0  0
   -1.3643   -0.2887   -0.3654 C   0  0  0  0  0  0  0  0  0  0  0  0
    2.7456    0.3523    0.4347 H   0  0  0  0  0  0  0  0  0  0  0  0
    3.1728   -1.2188   -2.0785 H   0  0  0  0  0  0  0  0  0  0  0  0
    4.6257    0.7078    0.8994 H   0  0  0  0  0  0  0  0  0  0  0  0
    7.0123    1.0127    1.2573 H   0  0  0  0  0  0  0  0  0  0  0  0
    8.6632    0.0536   -0.3499 H   0  0  0  0  0  0  0  0  0  0  0  0
    5.4750   -1.4724   -2.6017 H   0  0  0  0  0  0  0  0  0  0  0  0
    1.2220    0.9627    1.4825 H   0  0  0  0  0  0  0  0  0  0  0  0
   -0.6613    1.7593    2.8442 H   0  0  0  0  0  0  0  0  0  0  0  0
   -3.0455    1.9077    3.2049 H   0  0  0  0  0  0  0  0  0  0  0  0
   -5.3792    1.3847    2.4986 H   0  0  0  0  0  0  0  0  0  0  0  0
   -6.9108    0.4092    1.0327 H   0  0  0  0  0  0  0  0  0  0  0  0
   -7.3666   -0.9018   -1.0217 H   0  0  0  0  0  0  0  0  0  0  0  0
   -5.4591   -1.6928   -2.3761 H   0  0  0  0  0  0  0  0  0  0  0  0
   -3.1941   -1.2232   -1.7506 H   0  0  0  0  0  0  0  0  0  0  0  0
   -1.4414   -0.8507   -1.2524 H   0  0  0  0  0  0  0  0  0  0  0  0
  1  2  2  0
  2  3  1  0
  3  4  2  0
  4  5  1  0
  5  6  2  0
  6  7  1  0
  7  8  2  0
  8  9  1  0
  9 10  2  0
  2 11  1  0
 11 12  2  0
 12 13  1  0
 13 14  2  0
 14 15  1  0
 15 16  2  0
 16 17  1  0
 17 18  2  0
 18 19  1  0
 19 20  2  0
 20 21  1  0
 21 22  2  0
 22 23  1  0
 23 24  2  0
 10  5  1  0
 24 11  1  0
 23 14  1  0
 22 17  1  0
  3 25  1  0
  4 26  1  0
  6 27  1  0
  7 28  1  0
  8 29  1  0
 10 30  1  0
 12 31  1  0
 13 32  1  0
 15 33  1  0
 16 34  1  0
 18 35  1  0
 19 36  1  0
 20 37  1  0
 21 38  1  0
 24 39  1  0
M  END
$$$$
