
     RDKit          3D

 50 52  0  0  0  0  0  0  0  0999 V2000
   -7.5180    1.7343   -1.0689 N   0  0  0  0  0  0  0  0  0  0  0  0
   -6.7983    0.9055   -0.1342 C   0  0  0  0  0  0  0  0  0  0  0  0
   -6.9336    0.9112    1.2242 C   0  0  0  0  0  0  0  0  0  0  0  0
   -6.1417    0.0287    1.9520 C   0  0  0  0  0  0  0  0  0  0  0  0
   -5.2510   -0.8180    1.2832 C   0  0  0  0  0  0  0  0  0  0  0  0
   -5.1188   -0.8160   -0.1168 C   0  0  0  0  0  0  0  0  0  0  0  0
   -3.9074   -2.0434   -0.5403 S   0  0  0  0  0  0  0  0  0  0  0  0
   -2.2248   -1.4576   -0.4501 C   0  0  0  0  0  0  0  0  0  0  0  0
   -1.7997   -1.5344    0.8947 C   0  0  0  0  0  0  0  0  0  0  0  0
   -0.5130   -1.1588    1.2454 C   0  0  0  0  0  0  0  0  0  0  0  0
    0.3156   -0.7158    0.2384 C   0  0  0  0  0  0  0  0  0  0  0  0
    1.6673   -0.3255    0.6123 C   0  0  0  0  0  0  0  0  0  0  0  0
    2.2535   -0.3203    1.7896 C   0  0  0  0  0  0  0  0  0  0  0  0
    3.6213    0.0735    2.1745 C   0  0  0  0  0  0  0  0  0  0  0  0
    3.8644   -0.0493    3.4325 O   0  0  0  0  0  0  0  0  0  0  0  0
    4.7174    0.5619    1.4166 N   0  0  0  0  0  0  0  0  0  0  0  0
    4.9067    0.8503    0.0342 C   0  0  0  0  0  0  0  0  0  0  0  0
    6.3100    1.2859   -0.3231 C   0  0  0  0  0  0  0  0  0  0  0  0
    7.3128    0.5637    0.2553 O   0  0  0  0  0  0  0  0  0  0  0  0
    7.0119   -0.0140    1.4594 C   0  0  0  0  0  0  0  0  0  0  0  0
    5.9640    0.8611    2.1130 C   0  0  0  0  0  0  0  0  0  0  0  0
   -0.0608   -0.6265   -1.0856 C   0  0  0  0  0  0  0  0  0  0  0  0
   -1.3286   -0.9962   -1.4322 C   0  0  0  0  0  0  0  0  0  0  0  0
   -2.0726   -1.0630   -2.6720 C   0  0  0  0  0  0  0  0  0  0  0  0
   -2.5011   -2.3894   -2.9405 F   0  0  0  0  0  0  0  0  0  0  0  0
   -1.5395   -0.5154   -3.8030 F   0  0  0  0  0  0  0  0  0  0  0  0
   -3.3110   -0.3896   -2.5380 F   0  0  0  0  0  0  0  0  0  0  0  0
    0.9278   -0.1454   -2.0227 C   0  0  0  0  0  0  0  0  0  0  0  0
    0.6061   -0.0629   -3.3441 F   0  0  0  0  0  0  0  0  0  0  0  0
    1.4105    1.1395   -1.6560 F   0  0  0  0  0  0  0  0  0  0  0  0
    2.0970   -0.9446   -2.0076 F   0  0  0  0  0  0  0  0  0  0  0  0
   -5.9292    0.0778   -0.7754 C   0  0  0  0  0  0  0  0  0  0  0  0
   -7.0426    2.6583   -0.8571 H   0  0  0  0  0  0  0  0  0  0  0  0
   -8.2777    1.5288   -1.7578 H   0  0  0  0  0  0  0  0  0  0  0  0
   -7.6519    1.6085    1.6207 H   0  0  0  0  0  0  0  0  0  0  0  0
   -6.3090    0.0954    3.0175 H   0  0  0  0  0  0  0  0  0  0  0  0
   -4.7402   -1.4171    2.0556 H   0  0  0  0  0  0  0  0  0  0  0  0
   -2.3972   -1.8763    1.7577 H   0  0  0  0  0  0  0  0  0  0  0  0
   -0.2075   -1.2278    2.2984 H   0  0  0  0  0  0  0  0  0  0  0  0
    2.4388    0.0366   -0.0500 H   0  0  0  0  0  0  0  0  0  0  0  0
    1.6140   -0.6652    2.6048 H   0  0  0  0  0  0  0  0  0  0  0  0
    4.1689    1.6059   -0.3112 H   0  0  0  0  0  0  0  0  0  0  0  0
    4.7373   -0.0835   -0.5459 H   0  0  0  0  0  0  0  0  0  0  0  0
    6.4080    1.3267   -1.4516 H   0  0  0  0  0  0  0  0  0  0  0  0
    6.4097    2.3474   -0.0217 H   0  0  0  0  0  0  0  0  0  0  0  0
    6.6057   -1.0526    1.3581 H   0  0  0  0  0  0  0  0  0  0  0  0
    7.9100   -0.0206    2.0917 H   0  0  0  0  0  0  0  0  0  0  0  0
    6.1971    1.9120    1.9352 H   0  0  0  0  0  0  0  0  0  0  0  0
    5.8647    0.6225    3.2024 H   0  0  0  0  0  0  0  0  0  0  0  0
   -5.7651   -0.0065   -1.8367 H   0  0  0  0  0  0  0  0  0  0  0  0
  1  2  1  0
  2  3  2  0
  3  4  1  0
  4  5  2  0
  5  6  1  0
  6  7  1  0
  7  8  1  0
  8  9  2  0
  9 10  1  0
 10 11  2  0
 11 12  1  0
 12 13  2  0
 13 14  1  0
 14 15  2  0
 14 16  1  0
 16 17  1  0
 17 18  1  0
 18 19  1  0
 19 20  1  0
 20 21  1  0
 11 22  1  0
 22 23  2  0
 23 24  1  0
 24 25  1  0
 24 26  1  0
 24 27  1  0
 22 28  1  0
 28 29  1  0
 28 30  1  0
 28 31  1  0
  6 32  2  0
 32  2  1  0
 23  8  1  0
 21 16  1  0
  1 33  1  0
  1 34  1  0
  3 35  1  0
  4 36  1  0
  5 37  1  0
  9 38  1  0
 10 39  1  0
 12 40  1  0
 13 41  1  0
 17 42  1  0
 17 43  1  0
 18 44  1  0
 18 45  1  0
 20 46  1  0
 20 47  1  0
 21 48  1  0
 21 49  1  0
 32 50  1  0
M  END
$$$$
