
     RDKit          3D

 51 54  0  0  0  0  0  0  0  0999 V2000
   -7.0309   -0.6392    1.7355 O   0  0  0  0  0  0  0  0  0  0  0  0
   -7.0461   -0.8891    0.5042 C   0  0  0  0  0  0  0  0  0  0  0  0
   -8.2923   -1.4164   -0.1545 C   0  0  0  0  0  0  0  0  0  0  0  0
   -8.0579   -1.6088   -1.4955 O   0  0  0  0  0  0  0  0  0  0  0  0
   -5.8553   -0.6572   -0.2325 N   0  0  0  0  0  0  0  0  0  0  0  0
   -4.6787   -0.1506    0.4332 C   0  0  0  0  0  0  0  0  0  0  0  0
   -3.5173   -1.0636    0.2395 C   0  0  0  0  0  0  0  0  0  0  0  0
   -2.1917   -0.5259    0.6355 C   0  0  0  0  0  0  0  0  0  0  0  0
   -2.0149    0.8702    0.5426 N   0  0  0  0  0  0  0  0  0  0  0  0
   -0.8150    1.3727    1.1461 C   0  0  0  0  0  0  0  0  0  0  0  0
    0.3453    0.7352    0.4714 C   0  0  0  0  0  0  0  0  0  0  0  0
    0.9372    1.2953   -0.6432 C   0  0  0  0  0  0  0  0  0  0  0  0
    2.0109    0.7252   -1.2827 C   0  0  0  0  0  0  0  0  0  0  0  0
    2.5467   -0.4518   -0.8240 C   0  0  0  0  0  0  0  0  0  0  0  0
    3.6201   -0.9976   -1.4835 O   0  0  0  0  0  0  0  0  0  0  0  0
    4.9429   -0.6227   -1.0719 C   0  0  0  0  0  0  0  0  0  0  0  0
    5.5656    0.0098   -0.3450 N   0  0  0  0  0  0  0  0  0  0  0  0
    6.8722    0.1275   -0.2338 C   0  0  0  0  0  0  0  0  0  0  0  0
    7.6076    0.9111    0.6675 C   0  0  0  0  0  0  0  0  0  0  0  0
    8.9767    0.9014    0.6283 C   0  0  0  0  0  0  0  0  0  0  0  0
    9.7116    0.1587   -0.2550 C   0  0  0  0  0  0  0  0  0  0  0  0
    8.9978   -0.6230   -1.1545 C   0  0  0  0  0  0  0  0  0  0  0  0
    7.6007   -0.6069   -1.1073 C   0  0  0  0  0  0  0  0  0  0  0  0
    6.3424   -1.4431   -2.0596 S   0  0  0  0  0  0  0  0  0  0  0  0
    1.9795   -1.0377    0.2868 C   0  0  0  0  0  0  0  0  0  0  0  0
    0.8935   -0.4481    0.9224 C   0  0  0  0  0  0  0  0  0  0  0  0
   -3.1505    1.7040    0.6896 C   0  0  0  0  0  0  0  0  0  0  0  0
   -4.2976    1.2051   -0.1466 C   0  0  0  0  0  0  0  0  0  0  0  0
   -8.6093   -2.3751    0.3012 H   0  0  0  0  0  0  0  0  0  0  0  0
   -9.0938   -0.6815    0.0370 H   0  0  0  0  0  0  0  0  0  0  0  0
   -8.8965   -1.4259   -1.9866 H   0  0  0  0  0  0  0  0  0  0  0  0
   -5.8172   -0.8480   -1.2523 H   0  0  0  0  0  0  0  0  0  0  0  0
   -4.8664    0.0044    1.5144 H   0  0  0  0  0  0  0  0  0  0  0  0
   -3.6977   -2.0795    0.7003 H   0  0  0  0  0  0  0  0  0  0  0  0
   -3.4651   -1.2911   -0.8667 H   0  0  0  0  0  0  0  0  0  0  0  0
   -1.3505   -1.0162    0.0874 H   0  0  0  0  0  0  0  0  0  0  0  0
   -2.0225   -0.8226    1.7133 H   0  0  0  0  0  0  0  0  0  0  0  0
   -0.6944    2.4565    1.0533 H   0  0  0  0  0  0  0  0  0  0  0  0
   -0.7592    1.0986    2.2212 H   0  0  0  0  0  0  0  0  0  0  0  0
    0.5039    2.2373   -1.0056 H   0  0  0  0  0  0  0  0  0  0  0  0
    2.4337    1.2045   -2.1478 H   0  0  0  0  0  0  0  0  0  0  0  0
    7.1414    1.5431    1.4160 H   0  0  0  0  0  0  0  0  0  0  0  0
    9.5356    1.5144    1.3338 H   0  0  0  0  0  0  0  0  0  0  0  0
   10.7721    0.1697   -0.2637 H   0  0  0  0  0  0  0  0  0  0  0  0
    9.4731   -1.2495   -1.8967 H   0  0  0  0  0  0  0  0  0  0  0  0
    2.3825   -1.9827    0.6838 H   0  0  0  0  0  0  0  0  0  0  0  0
    0.4382   -0.8936    1.7924 H   0  0  0  0  0  0  0  0  0  0  0  0
   -3.4607    1.8905    1.7340 H   0  0  0  0  0  0  0  0  0  0  0  0
   -2.8828    2.7194    0.2733 H   0  0  0  0  0  0  0  0  0  0  0  0
   -3.9183    1.0712   -1.1907 H   0  0  0  0  0  0  0  0  0  0  0  0
   -5.1485    1.9218   -0.1170 H   0  0  0  0  0  0  0  0  0  0  0  0
  1  2  2  0
  2  3  1  0
  3  4  1  0
  2  5  1  0
  5  6  1  0
  6  7  1  0
  7  8  1  0
  8  9  1  0
  9 10  1  0
 10 11  1  0
 11 12  2  0
 12 13  1  0
 13 14  2  0
 14 15  1  0
 15 16  1  0
 16 17  2  0
 17 18  1  0
 18 19  2  0
 19 20  1  0
 20 21  2  0
 21 22  1  0
 22 23  2  0
 23 24  1  0
 14 25  1  0
 25 26  2  0
  9 27  1  0
 27 28  1  0
 28  6  1  0
 26 11  1  0
 24 16  1  0
 23 18  1  0
  3 29  1  0
  3 30  1  0
  4 31  1  0
  5 32  1  0
  6 33  1  0
  7 34  1  0
  7 35  1  0
  8 36  1  0
  8 37  1  0
 10 38  1  0
 10 39  1  0
 12 40  1  0
 13 41  1  0
 19 42  1  0
 20 43  1  0
 21 44  1  0
 22 45  1  0
 25 46  1  0
 26 47  1  0
 27 48  1  0
 27 49  1  0
 28 50  1  0
 28 51  1  0
M  END
$$$$
