
     RDKit          3D

 35 36  0  0  0  0  0  0  0  0999 V2000
    3.7068   -3.3496   -0.0911 N   0  0  0  0  0  0  0  0  0  0  0  0
    3.3416   -2.1044    0.4604 C   0  0  0  0  0  0  0  0  0  0  0  0
    3.8774   -1.6017    1.5825 N   0  0  0  0  0  0  0  0  0  0  0  0
    3.4766   -0.3863    2.0568 C   0  0  0  0  0  0  0  0  0  0  0  0
    4.0770    0.0816    3.2344 N   0  0  0  0  0  0  0  0  0  0  0  0
    2.5131    0.2311    1.2951 C   0  0  0  0  0  0  0  0  0  0  0  0
    2.1550    1.5055    1.8695 N   0  0  0  0  0  0  0  0  0  0  0  0
    1.5659    1.5142    2.9568 O   0  0  0  0  0  0  0  0  0  0  0  0
    1.9309   -0.2492    0.1304 C   0  0  0  0  0  0  0  0  0  0  0  0
    1.0275    0.5494   -0.4023 O   0  0  0  0  0  0  0  0  0  0  0  0
    0.1636    1.3131   -0.9119 C   0  0  0  0  0  0  0  0  0  0  0  0
   -1.2203    0.6085   -0.9922 C   0  0  0  0  0  0  0  0  0  0  0  0
   -2.2102    1.5725   -1.6018 C   0  0  0  0  0  0  0  0  0  0  0  0
   -3.4553    0.8259   -1.9410 C   0  0  0  0  0  0  0  0  0  0  0  0
   -3.8031   -0.1840   -0.9092 C   0  0  0  0  0  0  0  0  0  0  0  0
   -3.1750   -0.0140    0.4299 C   0  0  0  0  0  0  0  0  0  0  0  0
   -1.6790    0.1562    0.3713 C   0  0  0  0  0  0  0  0  0  0  0  0
    2.4063   -1.4486   -0.2317 N   0  0  0  0  0  0  0  0  0  0  0  0
    4.3338   -4.1531   -0.2407 H   0  0  0  0  0  0  0  0  0  0  0  0
    3.1192   -3.9172   -0.7376 H   0  0  0  0  0  0  0  0  0  0  0  0
    4.4660    0.9994    2.8759 H   0  0  0  0  0  0  0  0  0  0  0  0
    4.0107   -0.5102    4.0887 H   0  0  0  0  0  0  0  0  0  0  0  0
    0.2769    1.6125   -2.0279 H   0  0  0  0  0  0  0  0  0  0  0  0
   -0.1198    2.2907   -0.3870 H   0  0  0  0  0  0  0  0  0  0  0  0
   -1.0835   -0.2430   -1.6557 H   0  0  0  0  0  0  0  0  0  0  0  0
   -1.7530    1.9789   -2.5287 H   0  0  0  0  0  0  0  0  0  0  0  0
   -2.4041    2.3976   -0.8727 H   0  0  0  0  0  0  0  0  0  0  0  0
   -3.3074    0.3470   -2.9503 H   0  0  0  0  0  0  0  0  0  0  0  0
   -4.2946    1.5638   -2.0617 H   0  0  0  0  0  0  0  0  0  0  0  0
   -3.5538   -1.1996   -1.2791 H   0  0  0  0  0  0  0  0  0  0  0  0
   -4.9149   -0.1875   -0.7627 H   0  0  0  0  0  0  0  0  0  0  0  0
   -3.6113    0.8137    1.0047 H   0  0  0  0  0  0  0  0  0  0  0  0
   -3.3474   -0.9763    0.9961 H   0  0  0  0  0  0  0  0  0  0  0  0
   -1.1371   -0.7710    0.6414 H   0  0  0  0  0  0  0  0  0  0  0  0
   -1.3785    0.9343    1.1076 H   0  0  0  0  0  0  0  0  0  0  0  0
  1  2  1  0
  2  3  2  0
  3  4  1  0
  4  5  1  0
  4  6  2  0
  6  7  1  0
  7  8  2  0
  6  9  1  0
  9 10  1  0
 10 11  1  0
 11 12  1  0
 12 13  1  0
 13 14  1  0
 14 15  1  0
 15 16  1  0
 16 17  1  0
  9 18  2  0
 18  2  1  0
 17 12  1  0
  1 19  1  0
  1 20  1  0
  5 21  1  0
  5 22  1  0
 11 23  1  0
 11 24  1  0
 12 25  1  0
 13 26  1  0
 13 27  1  0
 14 28  1  0
 14 29  1  0
 15 30  1  0
 15 31  1  0
 16 32  1  0
 16 33  1  0
 17 34  1  0
 17 35  1  0
M  END
$$$$
