
     RDKit          3D

 47 50  0  0  0  0  0  0  0  0999 V2000
   -5.4931   -0.6579   -1.5248 C   0  0  0  0  0  0  0  0  0  0  0  0
   -5.0224    0.5444   -0.6982 C   0  0  0  0  0  0  0  0  0  0  0  0
   -4.4796    1.5815   -1.6509 C   0  0  0  0  0  0  0  0  0  0  0  0
   -6.2689    1.1315   -0.0603 C   0  0  0  0  0  0  0  0  0  0  0  0
   -4.1189    0.1624    0.3344 N   0  0  0  0  0  0  0  0  0  0  0  0
   -2.8554   -0.4966    0.1125 C   0  0  0  0  0  0  0  0  0  0  0  0
   -2.5458   -0.7439   -1.0709 O   0  0  0  0  0  0  0  0  0  0  0  0
   -2.0249   -0.8297    1.2662 C   0  0  0  0  0  0  0  0  0  0  0  0
   -2.4453   -1.0688    2.5712 C   0  0  0  0  0  0  0  0  0  0  0  0
   -1.3696   -1.3341    3.3343 N   0  0  0  0  0  0  0  0  0  0  0  0
   -0.2789   -1.2705    2.5520 C   0  0  0  0  0  0  0  0  0  0  0  0
    1.0497   -1.4410    2.7828 N   0  0  0  0  0  0  0  0  0  0  0  0
    1.9289   -1.3055    1.7798 C   0  0  0  0  0  0  0  0  0  0  0  0
    1.5774   -0.9950    0.4820 C   0  0  0  0  0  0  0  0  0  0  0  0
    2.5750   -0.8376   -0.5767 C   0  0  0  0  0  0  0  0  0  0  0  0
    2.6086   -1.3666   -1.8126 N   0  0  0  0  0  0  0  0  0  0  0  0
    3.7201   -0.9304   -2.4521 C   0  0  0  0  0  0  0  0  0  0  0  0
    4.4128   -0.1128   -1.6263 N   0  0  0  0  0  0  0  0  0  0  0  0
    3.7116   -0.0570   -0.4810 C   0  0  0  0  0  0  0  0  0  0  0  0
    4.2450    0.7838    0.5952 C   0  0  0  0  0  0  0  0  0  0  0  0
    5.7471    0.4840    0.6537 C   0  0  0  0  0  0  0  0  0  0  0  0
    6.3766    0.9601   -0.6297 C   0  0  0  0  0  0  0  0  0  0  0  0
    5.6532    0.5876   -1.8714 C   0  0  0  0  0  0  0  0  0  0  0  0
    0.2567   -0.8265    0.2557 N   0  0  0  0  0  0  0  0  0  0  0  0
   -0.6534   -0.9594    1.2612 C   0  0  0  0  0  0  0  0  0  0  0  0
   -6.6013   -0.6946   -1.5997 H   0  0  0  0  0  0  0  0  0  0  0  0
   -5.0013   -0.6185   -2.5086 H   0  0  0  0  0  0  0  0  0  0  0  0
   -5.1591   -1.5568   -0.9676 H   0  0  0  0  0  0  0  0  0  0  0  0
   -3.9570    1.1417   -2.5228 H   0  0  0  0  0  0  0  0  0  0  0  0
   -3.9155    2.3414   -1.1062 H   0  0  0  0  0  0  0  0  0  0  0  0
   -5.3801    2.1089   -2.0800 H   0  0  0  0  0  0  0  0  0  0  0  0
   -6.4556    0.6985    0.9539 H   0  0  0  0  0  0  0  0  0  0  0  0
   -7.1126    0.9702   -0.7569 H   0  0  0  0  0  0  0  0  0  0  0  0
   -6.1746    2.2402    0.0297 H   0  0  0  0  0  0  0  0  0  0  0  0
   -4.3554    0.3581    1.3285 H   0  0  0  0  0  0  0  0  0  0  0  0
   -3.4754   -1.0385    2.8901 H   0  0  0  0  0  0  0  0  0  0  0  0
   -1.3788   -1.5482    4.3445 H   0  0  0  0  0  0  0  0  0  0  0  0
    2.9681   -1.4624    2.0521 H   0  0  0  0  0  0  0  0  0  0  0  0
    3.9962   -1.2061   -3.4711 H   0  0  0  0  0  0  0  0  0  0  0  0
    3.7635    0.7206    1.5607 H   0  0  0  0  0  0  0  0  0  0  0  0
    4.2095    1.8805    0.3177 H   0  0  0  0  0  0  0  0  0  0  0  0
    5.8697   -0.5875    0.8467 H   0  0  0  0  0  0  0  0  0  0  0  0
    6.1459    1.1127    1.4761 H   0  0  0  0  0  0  0  0  0  0  0  0
    6.4935    2.0708   -0.5350 H   0  0  0  0  0  0  0  0  0  0  0  0
    7.4184    0.5742   -0.6689 H   0  0  0  0  0  0  0  0  0  0  0  0
    5.4623    1.5101   -2.4596 H   0  0  0  0  0  0  0  0  0  0  0  0
    6.3332   -0.0175   -2.5424 H   0  0  0  0  0  0  0  0  0  0  0  0
  1  2  1  0
  2  3  1  0
  2  4  1  0
  2  5  1  0
  5  6  1  0
  6  7  2  0
  6  8  1  0
  8  9  2  0
  9 10  1  0
 10 11  1  0
 11 12  2  0
 12 13  1  0
 13 14  2  0
 14 15  1  0
 15 16  1  0
 16 17  2  0
 17 18  1  0
 18 19  1  0
 19 20  1  0
 20 21  1  0
 21 22  1  0
 22 23  1  0
 14 24  1  0
 24 25  2  0
 25  8  1  0
 25 11  1  0
 19 15  2  0
 23 18  1  0
  1 26  1  0
  1 27  1  0
  1 28  1  0
  3 29  1  0
  3 30  1  0
  3 31  1  0
  4 32  1  0
  4 33  1  0
  4 34  1  0
  5 35  1  0
  9 36  1  0
 10 37  1  0
 13 38  1  0
 17 39  1  0
 20 40  1  0
 20 41  1  0
 21 42  1  0
 21 43  1  0
 22 44  1  0
 22 45  1  0
 23 46  1  0
 23 47  1  0
M  END
$$$$
