
     RDKit          3D

 64 69  0  0  0  0  0  0  0  0999 V2000
   -9.8212    1.0825    0.2319 C   0  0  0  0  0  0  0  0  0  0  0  0
   -9.2984   -0.1228   -0.3815 N   0  0  0  0  0  0  0  0  0  0  0  0
   -9.8974   -0.7094   -1.4108 N   0  0  0  0  0  0  0  0  0  0  0  0
   -9.2144   -1.8060   -1.7719 C   0  0  0  0  0  0  0  0  0  0  0  0
   -8.1426   -1.8850   -0.9122 C   0  0  0  0  0  0  0  0  0  0  0  0
   -8.2127   -0.8096   -0.0376 C   0  0  0  0  0  0  0  0  0  0  0  0
   -7.2507   -0.5844    0.9681 N   0  0  0  0  0  0  0  0  0  0  0  0
   -5.9110   -0.1554    0.6554 C   0  0  0  0  0  0  0  0  0  0  0  0
   -5.6284    0.4230   -0.5592 C   0  0  0  0  0  0  0  0  0  0  0  0
   -4.3596    0.8064   -0.9262 C   0  0  0  0  0  0  0  0  0  0  0  0
   -3.3015    0.6080   -0.0442 C   0  0  0  0  0  0  0  0  0  0  0  0
   -3.5755    0.0316    1.1691 C   0  0  0  0  0  0  0  0  0  0  0  0
   -4.8734   -0.3539    1.5325 C   0  0  0  0  0  0  0  0  0  0  0  0
   -2.4720   -0.1983    2.0940 C   0  0  0  0  0  0  0  0  0  0  0  0
   -2.6588   -1.0162    3.0325 O   0  0  0  0  0  0  0  0  0  0  0  0
   -1.2112    0.5388    1.8724 C   0  0  0  0  0  0  0  0  0  0  0  0
   -0.8824    0.6859    0.4094 C   0  0  0  0  0  0  0  0  0  0  0  0
    0.0429    1.8917    0.1791 C   0  0  0  0  0  0  0  0  0  0  0  0
    1.2893    1.6483    0.9548 C   0  0  0  0  0  0  0  0  0  0  0  0
    1.9823    0.5166    0.3307 N   0  0  0  0  0  0  0  0  0  0  0  0
    3.3244    0.6478   -0.1091 C   0  0  0  0  0  0  0  0  0  0  0  0
    3.8678    1.7986    0.0651 O   0  0  0  0  0  0  0  0  0  0  0  0
    4.0996   -0.3702   -0.7133 N   0  0  0  0  0  0  0  0  0  0  0  0
    5.4596   -0.2209   -1.1566 C   0  0  1  0  0  0  0  0  0  0  0  0
    5.9303    1.0863   -1.6586 C   0  0  0  0  0  0  0  0  0  0  0  0
    6.4498    0.5273   -0.3806 C   0  0  2  0  0  0  0  0  0  0  0  0
    7.8940    0.2194   -0.3635 C   0  0  0  0  0  0  0  0  0  0  0  0
    8.5793   -0.3887   -1.3989 C   0  0  0  0  0  0  0  0  0  0  0  0
    9.9328   -0.6446   -1.3251 C   0  0  0  0  0  0  0  0  0  0  0  0
   10.6525   -0.2935   -0.1949 C   0  0  0  0  0  0  0  0  0  0  0  0
    9.9963    0.3071    0.8372 C   0  0  0  0  0  0  0  0  0  0  0  0
    8.6455    0.5514    0.7401 C   0  0  0  0  0  0  0  0  0  0  0  0
    1.2363   -0.6892    0.2048 C   0  0  0  0  0  0  0  0  0  0  0  0
   -0.2179   -0.5571   -0.0707 C   0  0  0  0  0  0  0  0  0  0  0  0
   -2.0200    0.9732   -0.3678 O   0  0  0  0  0  0  0  0  0  0  0  0
  -10.9408    0.9989    0.2128 H   0  0  0  0  0  0  0  0  0  0  0  0
   -9.5589    1.1805    1.2992 H   0  0  0  0  0  0  0  0  0  0  0  0
   -9.5151    2.0046   -0.2859 H   0  0  0  0  0  0  0  0  0  0  0  0
   -9.4875   -2.4570   -2.5769 H   0  0  0  0  0  0  0  0  0  0  0  0
   -7.3632   -2.6551   -0.9105 H   0  0  0  0  0  0  0  0  0  0  0  0
   -7.4879   -0.7186    1.9691 H   0  0  0  0  0  0  0  0  0  0  0  0
   -6.4677    0.5694   -1.2353 H   0  0  0  0  0  0  0  0  0  0  0  0
   -4.1240    1.2584   -1.8642 H   0  0  0  0  0  0  0  0  0  0  0  0
   -5.0300   -0.8039    2.5034 H   0  0  0  0  0  0  0  0  0  0  0  0
   -1.3092    1.5325    2.3373 H   0  0  0  0  0  0  0  0  0  0  0  0
   -0.3489    0.0324    2.3542 H   0  0  0  0  0  0  0  0  0  0  0  0
   -0.5004    2.8123    0.4447 H   0  0  0  0  0  0  0  0  0  0  0  0
    0.2832    1.8406   -0.9180 H   0  0  0  0  0  0  0  0  0  0  0  0
    1.0587    1.4523    2.0228 H   0  0  0  0  0  0  0  0  0  0  0  0
    1.9615    2.5351    0.8601 H   0  0  0  0  0  0  0  0  0  0  0  0
    3.6329   -1.3144   -0.8422 H   0  0  0  0  0  0  0  0  0  0  0  0
    5.8574   -1.1266   -1.7104 H   0  0  0  0  0  0  0  0  0  0  0  0
    6.6344    1.0482   -2.5442 H   0  0  0  0  0  0  0  0  0  0  0  0
    5.3382    2.0036   -1.6788 H   0  0  0  0  0  0  0  0  0  0  0  0
    6.0771    0.9322    0.5925 H   0  0  0  0  0  0  0  0  0  0  0  0
    8.0616   -0.6780   -2.2953 H   0  0  0  0  0  0  0  0  0  0  0  0
   10.4879   -1.1185   -2.1213 H   0  0  0  0  0  0  0  0  0  0  0  0
   11.7254   -0.4946   -0.1320 H   0  0  0  0  0  0  0  0  0  0  0  0
   10.5394    0.5874    1.7235 H   0  0  0  0  0  0  0  0  0  0  0  0
    8.1719    1.0353    1.5955 H   0  0  0  0  0  0  0  0  0  0  0  0
    1.6611   -1.2661   -0.6710 H   0  0  0  0  0  0  0  0  0  0  0  0
    1.4199   -1.3933    1.0756 H   0  0  0  0  0  0  0  0  0  0  0  0
   -0.7310   -1.4219    0.4465 H   0  0  0  0  0  0  0  0  0  0  0  0
   -0.4797   -0.7077   -1.1455 H   0  0  0  0  0  0  0  0  0  0  0  0
  1  2  1  0
  2  3  1  0
  3  4  2  0
  4  5  1  0
  5  6  2  0
  6  7  1  0
  7  8  1  0
  8  9  2  0
  9 10  1  0
 10 11  2  0
 11 12  1  0
 12 13  2  0
 12 14  1  0
 14 15  2  0
 14 16  1  0
 16 17  1  0
 17 18  1  0
 18 19  1  0
 19 20  1  0
 20 21  1  0
 21 22  2  0
 21 23  1  0
 23 24  1  0
 24 25  1  0
 25 26  1  0
 26 27  1  0
 27 28  2  0
 28 29  1  0
 29 30  2  0
 30 31  1  0
 31 32  2  0
 20 33  1  0
 33 34  1  0
 17 35  1  0
  6  2  1  0
 13  8  1  0
 34 17  1  0
 35 11  1  0
 26 24  1  0
 32 27  1  0
  1 36  1  0
  1 37  1  0
  1 38  1  0
  4 39  1  0
  5 40  1  0
  7 41  1  0
  9 42  1  0
 10 43  1  0
 13 44  1  0
 16 45  1  0
 16 46  1  0
 18 47  1  0
 18 48  1  0
 19 49  1  0
 19 50  1  0
 23 51  1  0
 24 52  1  6
 25 53  1  0
 25 54  1  0
 26 55  1  1
 28 56  1  0
 29 57  1  0
 30 58  1  0
 31 59  1  0
 32 60  1  0
 33 61  1  0
 33 62  1  0
 34 63  1  0
 34 64  1  0
M  END
$$$$
