
     RDKit          3D

 33 34  0  0  0  0  0  0  0  0999 V2000
    3.8930   -2.3401   -0.8823 O   0  0  0  0  0  0  0  0  0  0  0  0
    2.6791   -1.8040   -0.4997 C   0  0  0  0  0  0  0  0  0  0  0  0
    1.8978   -2.7359   -0.6953 O   0  0  0  0  0  0  0  0  0  0  0  0
    2.5875   -0.4371   -0.0119 C   0  0  0  0  0  0  0  0  0  0  0  0
    3.7323    0.3227    0.0502 C   0  0  0  0  0  0  0  0  0  0  0  0
    3.7764    1.6111    0.4805 C   0  0  0  0  0  0  0  0  0  0  0  0
    2.5893    2.1885    0.8803 C   0  0  0  0  0  0  0  0  0  0  0  0
    1.4288    1.4469    0.8274 C   0  0  0  0  0  0  0  0  0  0  0  0
    1.4082    0.1458    0.3884 C   0  0  0  0  0  0  0  0  0  0  0  0
    0.1773   -0.5632    0.3791 N   0  0  0  0  0  0  0  0  0  0  0  0
   -1.1285   -0.0138    0.7394 C   0  0  0  0  0  0  0  0  0  0  0  0
   -2.1143   -1.1172    0.7865 C   0  0  0  0  0  0  0  0  0  0  0  0
   -2.8537   -1.3290   -0.5140 C   0  0  0  0  0  0  0  0  0  0  0  0
   -3.6584   -0.0265   -0.6667 C   0  0  0  0  0  0  0  0  0  0  0  0
   -2.6066    0.9741   -1.0869 C   0  0  0  0  0  0  0  0  0  0  0  0
   -1.4927    1.1399   -0.1372 C   0  0  0  0  0  0  0  0  0  0  0  0
    4.2105   -3.2702   -0.6809 H   0  0  0  0  0  0  0  0  0  0  0  0
    4.6856   -0.1250   -0.2654 H   0  0  0  0  0  0  0  0  0  0  0  0
    4.7131    2.1567    0.5052 H   0  0  0  0  0  0  0  0  0  0  0  0
    2.6629    3.2247    1.2198 H   0  0  0  0  0  0  0  0  0  0  0  0
    0.5865    2.0234    1.1779 H   0  0  0  0  0  0  0  0  0  0  0  0
    0.1823   -1.5618    0.0948 H   0  0  0  0  0  0  0  0  0  0  0  0
   -1.0096    0.3672    1.7771 H   0  0  0  0  0  0  0  0  0  0  0  0
   -1.5720   -2.0505    1.0458 H   0  0  0  0  0  0  0  0  0  0  0  0
   -2.8945   -0.9867    1.5668 H   0  0  0  0  0  0  0  0  0  0  0  0
   -3.5553   -2.1569   -0.4359 H   0  0  0  0  0  0  0  0  0  0  0  0
   -2.1454   -1.3923   -1.3534 H   0  0  0  0  0  0  0  0  0  0  0  0
   -4.0358    0.2801    0.3273 H   0  0  0  0  0  0  0  0  0  0  0  0
   -4.4391   -0.1172   -1.4144 H   0  0  0  0  0  0  0  0  0  0  0  0
   -2.2678    0.7592   -2.1410 H   0  0  0  0  0  0  0  0  0  0  0  0
   -3.1732    1.9454   -1.1952 H   0  0  0  0  0  0  0  0  0  0  0  0
   -1.6853    2.0558    0.4676 H   0  0  0  0  0  0  0  0  0  0  0  0
   -0.5786    1.3862   -0.7630 H   0  0  0  0  0  0  0  0  0  0  0  0
  1  2  1  0
  2  3  2  0
  2  4  1  0
  4  5  2  0
  5  6  1  0
  6  7  2  0
  7  8  1  0
  8  9  2  0
  9 10  1  0
 10 11  1  0
 11 12  1  0
 12 13  1  0
 13 14  1  0
 14 15  1  0
 15 16  1  0
  9  4  1  0
 16 11  1  0
  1 17  1  0
  5 18  1  0
  6 19  1  0
  7 20  1  0
  8 21  1  0
 10 22  1  0
 11 23  1  0
 12 24  1  0
 12 25  1  0
 13 26  1  0
 13 27  1  0
 14 28  1  0
 14 29  1  0
 15 30  1  0
 15 31  1  0
 16 32  1  0
 16 33  1  0
M  END
$$$$
