
     RDKit          3D

 52 57  0  0  0  0  0  0  0  0999 V2000
    7.1285   -1.9788   -2.1471 C   0  0  0  0  0  0  0  0  0  0  0  0
    6.0176   -2.4333   -1.4908 C   0  0  0  0  0  0  0  0  0  0  0  0
    5.4079   -1.6070   -0.5626 C   0  0  0  0  0  0  0  0  0  0  0  0
    5.8779   -0.3455   -0.2759 C   0  0  0  0  0  0  0  0  0  0  0  0
    5.2460    0.4494    0.6536 C   0  0  0  0  0  0  0  0  0  0  0  0
    4.0496    0.0029    1.3840 C   0  0  0  0  0  0  0  0  0  0  0  0
    3.9875   -0.6640    2.5816 C   0  0  0  0  0  0  0  0  0  0  0  0
    2.7001   -0.8659    2.8655 N   0  0  0  0  0  0  0  0  0  0  0  0
    1.9704   -0.3514    1.8935 N   0  0  0  0  0  0  0  0  0  0  0  0
    0.6191   -0.2856    1.6910 C   0  0  0  0  0  0  0  0  0  0  0  0
    0.0555    0.3084    0.5857 C   0  0  0  0  0  0  0  0  0  0  0  0
   -1.4094    0.3563    0.4068 C   0  0  0  0  0  0  0  0  0  0  0  0
   -1.9269    0.3341   -0.8783 C   0  0  0  0  0  0  0  0  0  0  0  0
   -3.2823    0.3760   -1.0927 C   0  0  0  0  0  0  0  0  0  0  0  0
   -4.1222    0.4406   -0.0137 C   0  0  0  0  0  0  0  0  0  0  0  0
   -5.5369    0.4862   -0.1767 N   0  0  0  0  0  0  0  0  0  0  0  0
   -6.1522    0.4738   -1.4889 C   0  0  0  0  0  0  0  0  0  0  0  0
   -7.6576    0.3210   -1.2452 C   0  0  0  0  0  0  0  0  0  0  0  0
   -7.9328   -0.8044   -0.3665 N   0  0  0  0  0  0  0  0  0  0  0  0
   -7.3713   -0.6413    0.9447 C   0  0  0  0  0  0  0  0  0  0  0  0
   -6.4171    0.5464    0.9739 C   0  0  0  0  0  0  0  0  0  0  0  0
   -3.5995    0.4608    1.2137 N   0  0  0  0  0  0  0  0  0  0  0  0
   -2.2785    0.4215    1.4737 C   0  0  0  0  0  0  0  0  0  0  0  0
    0.8952    0.8610   -0.3577 C   0  0  0  0  0  0  0  0  0  0  0  0
    2.2242    0.7941   -0.1547 N   0  0  0  0  0  0  0  0  0  0  0  0
    2.7554    0.1975    0.9532 C   0  0  0  0  0  0  0  0  0  0  0  0
    5.7613    1.6979    0.8969 C   0  0  0  0  0  0  0  0  0  0  0  0
    6.8815    2.1446    0.2287 C   0  0  0  0  0  0  0  0  0  0  0  0
    7.4521    1.3196   -0.6672 N   0  0  0  0  0  0  0  0  0  0  0  0
    6.9987    0.0898   -0.9505 C   0  0  0  0  0  0  0  0  0  0  0  0
    7.6381   -0.7170   -1.8922 C   0  0  0  0  0  0  0  0  0  0  0  0
    7.6427   -2.5954   -2.8877 H   0  0  0  0  0  0  0  0  0  0  0  0
    5.6181   -3.4230   -1.6911 H   0  0  0  0  0  0  0  0  0  0  0  0
    4.5396   -1.9497   -0.0429 H   0  0  0  0  0  0  0  0  0  0  0  0
    4.8632   -0.9643    3.1768 H   0  0  0  0  0  0  0  0  0  0  0  0
   -0.0358   -0.7199    2.4326 H   0  0  0  0  0  0  0  0  0  0  0  0
   -1.2308    0.2823   -1.7169 H   0  0  0  0  0  0  0  0  0  0  0  0
   -3.7047    0.3593   -2.0998 H   0  0  0  0  0  0  0  0  0  0  0  0
   -5.8366   -0.3711   -2.1079 H   0  0  0  0  0  0  0  0  0  0  0  0
   -6.0309    1.4584   -1.9850 H   0  0  0  0  0  0  0  0  0  0  0  0
   -8.0040    1.2359   -0.7160 H   0  0  0  0  0  0  0  0  0  0  0  0
   -8.1618    0.1440   -2.2035 H   0  0  0  0  0  0  0  0  0  0  0  0
   -7.5526   -1.6829   -0.7859 H   0  0  0  0  0  0  0  0  0  0  0  0
   -6.8149   -1.5524    1.2540 H   0  0  0  0  0  0  0  0  0  0  0  0
   -8.1782   -0.4290    1.6705 H   0  0  0  0  0  0  0  0  0  0  0  0
   -5.8026    0.4373    1.8934 H   0  0  0  0  0  0  0  0  0  0  0  0
   -6.9767    1.4867    1.0283 H   0  0  0  0  0  0  0  0  0  0  0  0
   -1.8927    0.4398    2.4849 H   0  0  0  0  0  0  0  0  0  0  0  0
    0.5156    1.3370   -1.2390 H   0  0  0  0  0  0  0  0  0  0  0  0
    5.2682    2.3239    1.6253 H   0  0  0  0  0  0  0  0  0  0  0  0
    7.2789    3.1415    0.4340 H   0  0  0  0  0  0  0  0  0  0  0  0
    8.5163   -0.3461   -2.4052 H   0  0  0  0  0  0  0  0  0  0  0  0
  1  2  2  0
  2  3  1  0
  3  4  2  0
  4  5  1  0
  5  6  1  0
  6  7  1  0
  7  8  2  0
  8  9  1  0
  9 10  1  0
 10 11  2  0
 11 12  1  0
 12 13  2  0
 13 14  1  0
 14 15  2  0
 15 16  1  0
 16 17  1  0
 17 18  1  0
 18 19  1  0
 19 20  1  0
 20 21  1  0
 15 22  1  0
 22 23  2  0
 11 24  1  0
 24 25  2  0
 25 26  1  0
  5 27  2  0
 27 28  1  0
 28 29  2  0
 29 30  1  0
 30 31  2  0
 31  1  1  0
 30  4  1  0
 26  6  2  0
 26  9  1  0
 23 12  1  0
 21 16  1  0
  1 32  1  0
  2 33  1  0
  3 34  1  0
  7 35  1  0
 10 36  1  0
 13 37  1  0
 14 38  1  0
 17 39  1  0
 17 40  1  0
 18 41  1  0
 18 42  1  0
 19 43  1  0
 20 44  1  0
 20 45  1  0
 21 46  1  0
 21 47  1  0
 23 48  1  0
 24 49  1  0
 27 50  1  0
 28 51  1  0
 31 52  1  0
M  END
$$$$
