
     RDKit          3D

 25 26  0  0  0  0  0  0  0  0999 V2000
   -4.5213   -0.6742    0.5516 N   0  0  0  0  0  0  0  0  0  0  0  0
   -3.1619   -0.2403    0.5443 C   0  0  0  0  0  0  0  0  0  0  0  0
   -2.3249   -0.5426    1.6075 C   0  0  0  0  0  0  0  0  0  0  0  0
   -1.0056   -0.0887    1.5390 C   0  0  0  0  0  0  0  0  0  0  0  0
    0.1456   -0.4125    2.8291 Cl  0  0  0  0  0  0  0  0  0  0  0  0
   -0.6331    0.6276    0.4169 C   0  0  0  0  0  0  0  0  0  0  0  0
    0.6967    1.1250    0.2732 N   0  0  0  0  0  0  0  0  0  0  0  0
    1.7754    0.4227   -0.3370 C   0  0  0  0  0  0  0  0  0  0  0  0
    1.5776   -0.5270   -1.1659 N   0  0  0  0  0  0  0  0  0  0  0  0
    2.8342   -1.0748   -1.6408 C   0  0  0  0  0  0  0  0  0  0  0  0
    3.8912   -0.3263   -0.8931 C   0  0  0  0  0  0  0  0  0  0  0  0
    3.1580    0.6707   -0.1175 N   0  0  0  0  0  0  0  0  0  0  0  0
   -1.4653    0.9306   -0.6447 C   0  0  0  0  0  0  0  0  0  0  0  0
   -0.9485    1.8358   -2.0354 Cl  0  0  0  0  0  0  0  0  0  0  0  0
   -2.7788    0.4775   -0.5742 C   0  0  0  0  0  0  0  0  0  0  0  0
   -5.3034   -0.1247    1.0100 H   0  0  0  0  0  0  0  0  0  0  0  0
   -5.1742   -1.4304    0.2438 H   0  0  0  0  0  0  0  0  0  0  0  0
   -2.6615   -1.1061    2.4644 H   0  0  0  0  0  0  0  0  0  0  0  0
    0.8365    2.0863    0.6638 H   0  0  0  0  0  0  0  0  0  0  0  0
    2.9149   -0.8240   -2.7356 H   0  0  0  0  0  0  0  0  0  0  0  0
    2.9321   -2.1606   -1.4615 H   0  0  0  0  0  0  0  0  0  0  0  0
    4.5879    0.2098   -1.5830 H   0  0  0  0  0  0  0  0  0  0  0  0
    4.5020   -0.9603   -0.2201 H   0  0  0  0  0  0  0  0  0  0  0  0
    3.5820    1.4158    0.4786 H   0  0  0  0  0  0  0  0  0  0  0  0
   -3.4556    0.6906   -1.3752 H   0  0  0  0  0  0  0  0  0  0  0  0
  1  2  1  0
  2  3  2  0
  3  4  1  0
  4  5  1  0
  4  6  2  0
  6  7  1  0
  7  8  1  0
  8  9  2  0
  9 10  1  0
 10 11  1  0
 11 12  1  0
  6 13  1  0
 13 14  1  0
 13 15  2  0
 15  2  1  0
 12  8  1  0
  1 16  1  0
  1 17  1  0
  3 18  1  0
  7 19  1  0
 10 20  1  0
 10 21  1  0
 11 22  1  0
 11 23  1  0
 12 24  1  0
 15 25  1  0
M  END
$$$$
