
     RDKit          3D

 30 31  0  0  0  0  0  0  0  0999 V2000
   -4.9404    0.5521   -1.6632 N   0  0  0  0  0  0  0  0  0  0  0  0
   -3.6460    0.5640   -1.0703 C   0  0  0  0  0  0  0  0  0  0  0  0
   -2.6604    0.6270   -1.9870 N   0  0  0  0  0  0  0  0  0  0  0  0
   -1.3481    0.6478   -1.6078 C   0  0  0  0  0  0  0  0  0  0  0  0
   -0.4038    0.7061   -2.4348 O   0  0  0  0  0  0  0  0  0  0  0  0
   -1.1052    0.6020   -0.2785 N   0  0  0  0  0  0  0  0  0  0  0  0
   -2.0552    0.5383    0.6805 C   0  0  0  0  0  0  0  0  0  0  0  0
   -3.3792    0.5178    0.2847 C   0  0  0  0  0  0  0  0  0  0  0  0
    0.3059    0.6250    0.1107 C   0  0  2  0  0  0  0  0  0  0  0  0
    1.1279    0.2685   -0.9354 O   0  0  0  0  0  0  0  0  0  0  0  0
    2.3724    0.1580   -0.3183 C   0  0  2  0  0  0  0  0  0  0  0  0
    3.3435   -0.6396   -1.1640 C   0  0  0  0  0  0  0  0  0  0  0  0
    2.8772   -1.9298   -1.3923 O   0  0  0  0  0  0  0  0  0  0  0  0
    2.0925   -0.6936    0.9154 C   0  0  1  0  0  0  0  0  0  0  0  0
    2.7367   -0.1503    2.0310 O   0  0  0  0  0  0  0  0  0  0  0  0
    0.6181   -0.4698    1.1244 C   0  0  1  0  0  0  0  0  0  0  0  0
    0.3144   -0.0703    2.4256 O   0  0  0  0  0  0  0  0  0  0  0  0
   -5.7405   -0.0993   -1.4088 H   0  0  0  0  0  0  0  0  0  0  0  0
   -5.8630    0.1002   -1.6583 H   0  0  0  0  0  0  0  0  0  0  0  0
   -1.8417    0.5029    1.7236 H   0  0  0  0  0  0  0  0  0  0  0  0
   -4.2246    0.4687    0.9456 H   0  0  0  0  0  0  0  0  0  0  0  0
    0.5200    1.6132    0.5352 H   0  0  0  0  0  0  0  0  0  0  0  0
    2.8053    1.1234   -0.0049 H   0  0  0  0  0  0  0  0  0  0  0  0
    3.5374   -0.1303   -2.1324 H   0  0  0  0  0  0  0  0  0  0  0  0
    4.2908   -0.7308   -0.5977 H   0  0  0  0  0  0  0  0  0  0  0  0
    3.4465   -2.6138   -0.9739 H   0  0  0  0  0  0  0  0  0  0  0  0
    2.3108   -1.7541    0.7632 H   0  0  0  0  0  0  0  0  0  0  0  0
    3.4621    0.4706    1.8129 H   0  0  0  0  0  0  0  0  0  0  0  0
    0.0405   -1.3687    0.8251 H   0  0  0  0  0  0  0  0  0  0  0  0
    1.0060    0.5649    2.7353 H   0  0  0  0  0  0  0  0  0  0  0  0
  1  2  1  0
  2  3  2  0
  3  4  1  0
  4  5  2  0
  4  6  1  0
  6  7  1  0
  7  8  2  0
  6  9  1  0
  9 10  1  0
 10 11  1  0
 11 12  1  0
 12 13  1  0
 11 14  1  0
 14 15  1  0
 14 16  1  0
 16 17  1  0
  8  2  1  0
 16  9  1  0
  1 18  1  0
  1 19  1  0
  7 20  1  0
  8 21  1  0
  9 22  1  1
 11 23  1  1
 12 24  1  0
 12 25  1  0
 13 26  1  0
 14 27  1  6
 15 28  1  0
 16 29  1  6
 17 30  1  0
M  END
$$$$
