
     RDKit          3D

 66 69  0  0  0  0  0  0  0  0999 V2000
    0.2186   -1.7771    1.8551 C   0  0  0  0  0  0  0  0  0  0  0  0
    0.4782   -0.4439    1.2533 C   0  0  1  0  0  0  0  0  0  0  0  0
    1.8835   -0.2792    0.7839 C   0  0  0  0  0  0  0  0  0  0  0  0
    2.8879   -0.3083    1.7660 C   0  0  0  0  0  0  0  0  0  0  0  0
    4.2178   -0.1462    1.4349 C   0  0  0  0  0  0  0  0  0  0  0  0
    4.6190    0.0521    0.1325 C   0  0  0  0  0  0  0  0  0  0  0  0
    6.0469    0.2146   -0.1545 C   0  0  0  0  0  0  0  0  0  0  0  0
    6.5088    0.9846   -1.1872 C   0  0  0  0  0  0  0  0  0  0  0  0
    7.8440    1.1207   -1.4367 C   0  0  0  0  0  0  0  0  0  0  0  0
    8.7404    0.4646   -0.6243 C   0  0  0  0  0  0  0  0  0  0  0  0
    9.9599    0.6014   -0.8656 O   0  0  0  0  0  0  0  0  0  0  0  0
    8.2728   -0.2942    0.3929 N   0  0  0  0  0  0  0  0  0  0  0  0
    9.2654   -0.9570    1.2035 C   0  0  0  0  0  0  0  0  0  0  0  0
    6.9591   -0.4353    0.6479 C   0  0  0  0  0  0  0  0  0  0  0  0
    3.6312    0.0798   -0.8157 C   0  0  0  0  0  0  0  0  0  0  0  0
    2.2704   -0.0854   -0.4853 C   0  0  0  0  0  0  0  0  0  0  0  0
   -0.5200    0.0841    0.3978 N   0  0  0  0  0  0  0  0  0  0  0  0
   -1.1719    1.3801    0.6244 C   0  0  0  0  0  0  0  0  0  0  0  0
   -2.6836    1.2989    0.4942 C   0  0  0  0  0  0  0  0  0  0  0  0
   -3.1757    0.4491   -0.5925 C   0  0  2  0  0  0  0  0  0  0  0  0
   -4.1019    1.1889   -1.4894 C   0  0  0  0  0  0  0  0  0  0  0  0
   -5.3481    1.7494   -0.9901 C   0  0  0  0  0  0  0  0  0  0  0  0
   -5.3405    2.7595    0.0923 C   0  0  0  0  0  0  0  0  0  0  0  0
   -6.4169    0.7184   -0.6015 C   0  0  0  0  0  0  0  0  0  0  0  0
   -5.9754    2.4480   -2.1591 C   0  0  0  0  0  0  0  0  0  0  0  0
   -6.4702    2.9791   -3.0831 N   0  0  0  0  0  0  0  0  0  0  0  0
   -3.8254   -0.8249   -0.2057 C   0  0  0  0  0  0  0  0  0  0  0  0
   -4.0124   -1.2534    1.0861 C   0  0  0  0  0  0  0  0  0  0  0  0
   -4.6271   -2.4730    1.3283 C   0  0  0  0  0  0  0  0  0  0  0  0
   -5.0528   -3.2584    0.2849 C   0  0  0  0  0  0  0  0  0  0  0  0
   -5.6609   -4.4736    0.4816 F   0  0  0  0  0  0  0  0  0  0  0  0
   -4.8767   -2.8495   -1.0042 C   0  0  0  0  0  0  0  0  0  0  0  0
   -4.2620   -1.6330   -1.2385 C   0  0  0  0  0  0  0  0  0  0  0  0
   -2.0572    0.0721   -1.3980 O   0  0  0  0  0  0  0  0  0  0  0  0
   -0.9735   -0.5667   -0.7802 C   0  0  0  0  0  0  0  0  0  0  0  0
   -0.4237   -1.6073   -1.1834 O   0  0  0  0  0  0  0  0  0  0  0  0
   -0.5786   -1.6379    2.6431 H   0  0  0  0  0  0  0  0  0  0  0  0
    1.1450   -2.0551    2.4214 H   0  0  0  0  0  0  0  0  0  0  0  0
   -0.1050   -2.5566    1.1606 H   0  0  0  0  0  0  0  0  0  0  0  0
    0.4635    0.3053    2.1585 H   0  0  0  0  0  0  0  0  0  0  0  0
    2.5598   -0.4622    2.7875 H   0  0  0  0  0  0  0  0  0  0  0  0
    4.9638   -0.1748    2.2277 H   0  0  0  0  0  0  0  0  0  0  0  0
    5.8131    1.4984   -1.8292 H   0  0  0  0  0  0  0  0  0  0  0  0
    8.1863    1.7413   -2.2690 H   0  0  0  0  0  0  0  0  0  0  0  0
    9.9070   -0.1836    1.7189 H   0  0  0  0  0  0  0  0  0  0  0  0
    8.8122   -1.5656    2.0072 H   0  0  0  0  0  0  0  0  0  0  0  0
    9.9282   -1.6104    0.5798 H   0  0  0  0  0  0  0  0  0  0  0  0
    6.6340   -1.0679    1.4898 H   0  0  0  0  0  0  0  0  0  0  0  0
    3.9201    0.2340   -1.8459 H   0  0  0  0  0  0  0  0  0  0  0  0
    1.5623   -0.0259   -1.3023 H   0  0  0  0  0  0  0  0  0  0  0  0
   -0.8940    1.8274    1.5737 H   0  0  0  0  0  0  0  0  0  0  0  0
   -0.8029    2.0104   -0.2456 H   0  0  0  0  0  0  0  0  0  0  0  0
   -2.9424    2.3784    0.2205 H   0  0  0  0  0  0  0  0  0  0  0  0
   -3.0836    1.1908    1.4960 H   0  0  0  0  0  0  0  0  0  0  0  0
   -3.4937    2.0506   -1.9208 H   0  0  0  0  0  0  0  0  0  0  0  0
   -4.3301    0.5677   -2.3796 H   0  0  0  0  0  0  0  0  0  0  0  0
   -5.1164    2.3943    1.1066 H   0  0  0  0  0  0  0  0  0  0  0  0
   -4.8395    3.7298   -0.1667 H   0  0  0  0  0  0  0  0  0  0  0  0
   -6.4303    3.0987    0.1883 H   0  0  0  0  0  0  0  0  0  0  0  0
   -6.2805    0.3266    0.4113 H   0  0  0  0  0  0  0  0  0  0  0  0
   -7.3588    1.3477   -0.5287 H   0  0  0  0  0  0  0  0  0  0  0  0
   -6.6293   -0.0007   -1.3926 H   0  0  0  0  0  0  0  0  0  0  0  0
   -3.6775   -0.6404    1.9106 H   0  0  0  0  0  0  0  0  0  0  0  0
   -4.7864   -2.8338    2.3470 H   0  0  0  0  0  0  0  0  0  0  0  0
   -5.2196   -3.4781   -1.8428 H   0  0  0  0  0  0  0  0  0  0  0  0
   -4.1543   -1.3876   -2.2961 H   0  0  0  0  0  0  0  0  0  0  0  0
  1  2  1  0
  2  3  1  0
  3  4  2  0
  4  5  1  0
  5  6  2  0
  6  7  1  0
  7  8  1  0
  8  9  2  0
  9 10  1  0
 10 11  2  0
 10 12  1  0
 12 13  1  0
 12 14  1  0
  6 15  1  0
 15 16  2  0
  2 17  1  0
 17 18  1  0
 18 19  1  0
 19 20  1  0
 20 21  1  6
 21 22  1  0
 22 23  1  0
 22 24  1  0
 22 25  1  0
 25 26  3  0
 20 27  1  0
 27 28  2  0
 28 29  1  0
 29 30  2  0
 30 31  1  0
 30 32  1  0
 32 33  2  0
 20 34  1  0
 34 35  1  0
 35 36  2  0
 16  3  1  0
 35 17  1  0
 14  7  2  0
 33 27  1  0
  1 37  1  0
  1 38  1  0
  1 39  1  0
  2 40  1  1
  4 41  1  0
  5 42  1  0
  8 43  1  0
  9 44  1  0
 13 45  1  0
 13 46  1  0
 13 47  1  0
 14 48  1  0
 15 49  1  0
 16 50  1  0
 18 51  1  0
 18 52  1  0
 19 53  1  0
 19 54  1  0
 21 55  1  0
 21 56  1  0
 23 57  1  0
 23 58  1  0
 23 59  1  0
 24 60  1  0
 24 61  1  0
 24 62  1  0
 28 63  1  0
 29 64  1  0
 32 65  1  0
 33 66  1  0
M  END
$$$$
