
     RDKit          3D

 46 50  0  0  0  0  0  0  0  0999 V2000
    2.3298   -1.0466    4.2318 O   0  0  0  0  0  0  0  0  0  0  0  0
    1.2685   -1.2696    3.5977 C   0  0  0  0  0  0  0  0  0  0  0  0
    0.0812   -1.6577    4.0637 N   0  0  0  0  0  0  0  0  0  0  0  0
   -0.7441   -1.7689    3.0436 N   0  0  0  0  0  0  0  0  0  0  0  0
   -0.1088   -1.4540    1.8849 C   0  0  0  0  0  0  0  0  0  0  0  0
   -0.6717   -1.4535    0.5415 C   0  0  0  0  0  0  0  0  0  0  0  0
   -0.2260   -2.3110   -0.4406 C   0  0  0  0  0  0  0  0  0  0  0  0
   -0.7440   -2.3270   -1.7159 C   0  0  0  0  0  0  0  0  0  0  0  0
   -1.7438   -1.4500   -2.0105 N   0  0  0  0  0  0  0  0  0  0  0  0
   -2.2235   -0.5888   -1.1005 C   0  0  0  0  0  0  0  0  0  0  0  0
   -3.2679    0.3009   -1.4712 N   0  0  0  0  0  0  0  0  0  0  0  0
   -3.8440    1.2575   -0.5638 C   0  0  0  0  0  0  0  0  0  0  0  0
   -4.9280    2.0687   -1.2156 C   0  0  0  0  0  0  0  0  0  0  0  0
   -5.9210    1.0095   -0.7934 C   0  0  0  0  0  0  0  0  0  0  0  0
   -4.9313    0.6156    0.3035 C   0  0  0  0  0  0  0  0  0  0  0  0
   -1.6875   -0.5863    0.1854 C   0  0  0  0  0  0  0  0  0  0  0  0
    1.1495   -1.1437    2.2472 N   0  0  0  0  0  0  0  0  0  0  0  0
    2.1823   -0.7483    1.3514 C   0  0  0  0  0  0  0  0  0  0  0  0
    2.9719   -1.6737    0.6990 C   0  0  0  0  0  0  0  0  0  0  0  0
    3.9759   -1.2993   -0.1715 C   0  0  0  0  0  0  0  0  0  0  0  0
    4.2332    0.0288   -0.4272 C   0  0  0  0  0  0  0  0  0  0  0  0
    5.2445    0.3893   -1.3036 C   0  0  0  0  0  0  0  0  0  0  0  0
    5.4916    1.7316   -1.5510 C   0  0  0  0  0  0  0  0  0  0  0  0
    4.7159    2.6809   -0.9112 C   0  0  0  0  0  0  0  0  0  0  0  0
    3.7144    2.2962   -0.0425 C   0  0  0  0  0  0  0  0  0  0  0  0
    3.4535    0.9669    0.2163 C   0  0  0  0  0  0  0  0  0  0  0  0
    2.4512    0.5849    1.0856 C   0  0  0  0  0  0  0  0  0  0  0  0
   -0.1472   -1.8405    5.0701 H   0  0  0  0  0  0  0  0  0  0  0  0
    0.5668   -3.0104   -0.2166 H   0  0  0  0  0  0  0  0  0  0  0  0
   -0.4093   -2.9853   -2.4881 H   0  0  0  0  0  0  0  0  0  0  0  0
   -3.6372    0.2626   -2.4445 H   0  0  0  0  0  0  0  0  0  0  0  0
   -3.1380    1.8196    0.0703 H   0  0  0  0  0  0  0  0  0  0  0  0
   -5.1608    3.0375   -0.7202 H   0  0  0  0  0  0  0  0  0  0  0  0
   -4.8049    2.1554   -2.3174 H   0  0  0  0  0  0  0  0  0  0  0  0
   -6.8759    1.3978   -0.3861 H   0  0  0  0  0  0  0  0  0  0  0  0
   -6.0273    0.2161   -1.5665 H   0  0  0  0  0  0  0  0  0  0  0  0
   -5.1118    1.1281    1.2531 H   0  0  0  0  0  0  0  0  0  0  0  0
   -4.8205   -0.4639    0.4483 H   0  0  0  0  0  0  0  0  0  0  0  0
   -2.0862    0.1150    0.9072 H   0  0  0  0  0  0  0  0  0  0  0  0
    2.8014   -2.7251    0.8731 H   0  0  0  0  0  0  0  0  0  0  0  0
    4.5970   -2.0445   -0.6842 H   0  0  0  0  0  0  0  0  0  0  0  0
    5.8613   -0.3468   -1.8129 H   0  0  0  0  0  0  0  0  0  0  0  0
    6.2784    2.0356   -2.2334 H   0  0  0  0  0  0  0  0  0  0  0  0
    4.9350    3.7204   -1.1265 H   0  0  0  0  0  0  0  0  0  0  0  0
    3.1275    3.0645    0.4402 H   0  0  0  0  0  0  0  0  0  0  0  0
    1.8301    1.3120    1.5988 H   0  0  0  0  0  0  0  0  0  0  0  0
  1  2  2  0
  2  3  1  0
  3  4  1  0
  4  5  2  0
  5  6  1  0
  6  7  2  0
  7  8  1  0
  8  9  2  0
  9 10  1  0
 10 11  1  0
 11 12  1  0
 12 13  1  0
 13 14  1  0
 14 15  1  0
 10 16  2  0
  5 17  1  0
 17 18  1  0
 18 19  2  0
 19 20  1  0
 20 21  2  0
 21 22  1  0
 22 23  2  0
 23 24  1  0
 24 25  2  0
 25 26  1  0
 26 27  2  0
 17  2  1  0
 27 18  1  0
 16  6  1  0
 26 21  1  0
 15 12  1  0
  3 28  1  0
  7 29  1  0
  8 30  1  0
 11 31  1  0
 12 32  1  0
 13 33  1  0
 13 34  1  0
 14 35  1  0
 14 36  1  0
 15 37  1  0
 15 38  1  0
 16 39  1  0
 19 40  1  0
 20 41  1  0
 22 42  1  0
 23 43  1  0
 24 44  1  0
 25 45  1  0
 27 46  1  0
M  END
$$$$
