
     RDKit          3D

 41 44  0  0  0  0  0  0  0  0999 V2000
   -1.9702    3.0609   -0.7183 O   0  0  0  0  0  0  0  0  0  0  0  0
   -2.9969    3.0255    0.0348 C   0  0  0  0  0  0  0  0  0  0  0  0
   -3.4528    4.2591    0.4844 O   0  0  0  0  0  0  0  0  0  0  0  0
   -3.6579    1.7580    0.4051 C   0  0  0  0  0  0  0  0  0  0  0  0
   -2.9060    0.6441   -0.2516 C   0  0  0  0  0  0  0  0  0  0  0  0
   -1.8308    0.8568   -1.0241 N   0  0  0  0  0  0  0  0  0  0  0  0
   -1.1509   -0.1124   -1.6144 N   0  0  0  0  0  0  0  0  0  0  0  0
   -0.0029    0.1042   -2.4406 C   0  0  0  0  0  0  0  0  0  0  0  0
    1.2793    0.0933   -1.6960 C   0  0  0  0  0  0  0  0  0  0  0  0
    2.1960   -0.4791   -1.2950 N   0  0  0  0  0  0  0  0  0  0  0  0
    3.2318   -0.0620   -0.5885 C   0  0  0  0  0  0  0  0  0  0  0  0
    4.3484   -0.7903   -0.1074 C   0  0  0  0  0  0  0  0  0  0  0  0
    5.3228   -0.1463    0.6171 C   0  0  0  0  0  0  0  0  0  0  0  0
    6.5198   -0.9073    1.1374 C   0  0  0  0  0  0  0  0  0  0  0  0
    6.2515   -2.2584    1.2024 F   0  0  0  0  0  0  0  0  0  0  0  0
    6.8023   -0.3999    2.3915 F   0  0  0  0  0  0  0  0  0  0  0  0
    7.5835   -0.6176    0.3063 F   0  0  0  0  0  0  0  0  0  0  0  0
    5.2978    1.1950    0.9218 C   0  0  0  0  0  0  0  0  0  0  0  0
    4.1999    1.9304    0.4534 C   0  0  0  0  0  0  0  0  0  0  0  0
    3.2505    1.2573   -0.2634 C   0  0  0  0  0  0  0  0  0  0  0  0
    1.6835    1.8150   -1.0491 S   0  0  0  0  0  0  0  0  0  0  0  0
   -1.5794   -1.3747   -1.4151 C   0  0  0  0  0  0  0  0  0  0  0  0
   -0.9619   -2.3250   -1.9576 O   0  0  0  0  0  0  0  0  0  0  0  0
   -2.6747   -1.6724   -0.6356 C   0  0  0  0  0  0  0  0  0  0  0  0
   -3.1377   -2.9464   -0.4119 C   0  0  0  0  0  0  0  0  0  0  0  0
   -4.2325   -3.2368    0.3679 C   0  0  0  0  0  0  0  0  0  0  0  0
   -4.9206   -2.1801    0.9723 C   0  0  0  0  0  0  0  0  0  0  0  0
   -4.4751   -0.8941    0.7627 C   0  0  0  0  0  0  0  0  0  0  0  0
   -3.3791   -0.6334   -0.0208 C   0  0  0  0  0  0  0  0  0  0  0  0
   -2.8233    5.0080    0.7582 H   0  0  0  0  0  0  0  0  0  0  0  0
   -3.6984    1.6132    1.5083 H   0  0  0  0  0  0  0  0  0  0  0  0
   -4.7163    1.7859    0.0673 H   0  0  0  0  0  0  0  0  0  0  0  0
    0.1040   -0.7072   -3.2194 H   0  0  0  0  0  0  0  0  0  0  0  0
   -0.1814    1.0200   -3.0352 H   0  0  0  0  0  0  0  0  0  0  0  0
    4.4699   -1.8390   -0.2860 H   0  0  0  0  0  0  0  0  0  0  0  0
    6.0611    1.6740    1.4833 H   0  0  0  0  0  0  0  0  0  0  0  0
    4.0972    3.0060    0.6493 H   0  0  0  0  0  0  0  0  0  0  0  0
   -2.5912   -3.7530   -0.8889 H   0  0  0  0  0  0  0  0  0  0  0  0
   -4.5713   -4.2492    0.5242 H   0  0  0  0  0  0  0  0  0  0  0  0
   -5.7713   -2.4312    1.5759 H   0  0  0  0  0  0  0  0  0  0  0  0
   -5.0168   -0.0909    1.2358 H   0  0  0  0  0  0  0  0  0  0  0  0
  1  2  2  0
  2  3  1  0
  2  4  1  0
  4  5  1  0
  5  6  2  0
  6  7  1  0
  7  8  1  0
  8  9  1  0
  9 10  2  0
 10 11  1  0
 11 12  2  0
 12 13  1  0
 13 14  1  0
 14 15  1  0
 14 16  1  0
 14 17  1  0
 13 18  2  0
 18 19  1  0
 19 20  2  0
 20 21  1  0
  7 22  1  0
 22 23  2  0
 22 24  1  0
 24 25  2  0
 25 26  1  0
 26 27  2  0
 27 28  1  0
 28 29  2  0
 29  5  1  0
 21  9  1  0
 29 24  1  0
 20 11  1  0
  3 30  1  0
  4 31  1  0
  4 32  1  0
  8 33  1  0
  8 34  1  0
 12 35  1  0
 18 36  1  0
 19 37  1  0
 25 38  1  0
 26 39  1  0
 27 40  1  0
 28 41  1  0
M  END
$$$$
