
     RDKit          3D

 24 26  0  0  0  0  0  0  0  0999 V2000
   -1.9261    2.6915    0.1161 C   0  0  0  0  0  0  0  0  0  0  0  0
   -1.4662    1.6898   -0.7342 O   0  0  0  0  0  0  0  0  0  0  0  0
   -0.7560    0.5649   -0.4045 C   0  0  0  0  0  0  0  0  0  0  0  0
    0.6345    0.5411   -0.3762 C   0  0  0  0  0  0  0  0  0  0  0  0
    1.2954    1.6357   -0.6760 O   0  0  0  0  0  0  0  0  0  0  0  0
    2.6175    1.6659   -0.6641 C   0  0  0  0  0  0  0  0  0  0  0  0
    3.3088    2.6933   -0.9445 O   0  0  0  0  0  0  0  0  0  0  0  0
    3.3698    0.5561   -0.3380 C   0  0  0  0  0  0  0  0  0  0  0  0
    2.7284   -0.6387   -0.0094 C   0  0  0  0  0  0  0  0  0  0  0  0
    1.3562   -0.6082   -0.0394 C   0  0  0  0  0  0  0  0  0  0  0  0
    0.6722   -1.7715    0.2796 C   0  0  0  0  0  0  0  0  0  0  0  0
   -0.7050   -1.7480    0.2516 C   0  0  0  0  0  0  0  0  0  0  0  0
   -1.4115   -0.6061   -0.0829 C   0  0  0  0  0  0  0  0  0  0  0  0
   -2.6886   -0.8453   -0.0349 O   0  0  0  0  0  0  0  0  0  0  0  0
   -2.8699   -2.0965    0.3168 C   0  0  0  0  0  0  0  0  0  0  0  0
   -1.6429   -2.7401    0.5181 C   0  0  0  0  0  0  0  0  0  0  0  0
   -1.3242    3.6341    0.0023 H   0  0  0  0  0  0  0  0  0  0  0  0
   -2.9817    3.0023   -0.1187 H   0  0  0  0  0  0  0  0  0  0  0  0
   -1.9220    2.4400    1.1941 H   0  0  0  0  0  0  0  0  0  0  0  0
    4.4526    0.5267   -0.3129 H   0  0  0  0  0  0  0  0  0  0  0  0
    3.2761   -1.5514    0.2576 H   0  0  0  0  0  0  0  0  0  0  0  0
    1.2071   -2.6791    0.5451 H   0  0  0  0  0  0  0  0  0  0  0  0
   -3.8082   -2.6146    0.4490 H   0  0  0  0  0  0  0  0  0  0  0  0
   -1.4164   -3.7418    0.8054 H   0  0  0  0  0  0  0  0  0  0  0  0
  1  2  1  0
  2  3  1  0
  3  4  2  0
  4  5  1  0
  5  6  1  0
  6  7  2  0
  6  8  1  0
  8  9  2  0
  9 10  1  0
 10 11  2  0
 11 12  1  0
 12 13  2  0
 13 14  1  0
 14 15  1  0
 15 16  2  0
 13  3  1  0
 10  4  1  0
 16 12  1  0
  1 17  1  0
  1 18  1  0
  1 19  1  0
  8 20  1  0
  9 21  1  0
 11 22  1  0
 15 23  1  0
 16 24  1  0
M  END
$$$$
