
     RDKit          3D

 44 45  0  0  0  0  0  0  0  0999 V2000
   -0.6676   -1.0436   -1.8381 C   0  0  0  0  0  0  0  0  0  0  0  0
   -0.2506   -1.0332   -0.4011 C   0  0  1  0  0  0  0  0  0  0  0  0
   -1.3808   -1.5299    0.5043 C   0  0  0  0  0  0  0  0  0  0  0  0
   -2.5882   -0.6747    0.3791 C   0  0  0  0  0  0  0  0  0  0  0  0
   -3.6032   -0.8948   -0.5187 C   0  0  0  0  0  0  0  0  0  0  0  0
   -4.7129   -0.0971   -0.6260 C   0  0  0  0  0  0  0  0  0  0  0  0
   -4.8211    0.9903    0.2138 C   0  0  0  0  0  0  0  0  0  0  0  0
   -5.9400    1.8309    0.1363 O   0  0  0  0  0  0  0  0  0  0  0  0
   -3.8397    1.2644    1.1338 C   0  0  0  0  0  0  0  0  0  0  0  0
   -3.9632    2.3640    1.9732 O   0  0  0  0  0  0  0  0  0  0  0  0
   -2.7398    0.4385    1.2103 C   0  0  0  0  0  0  0  0  0  0  0  0
    0.9221   -1.9243   -0.1657 C   0  0  2  0  0  0  0  0  0  0  0  0
    1.3453   -1.9330    1.2943 C   0  0  0  0  0  0  0  0  0  0  0  0
    2.1622   -1.5486   -0.9467 C   0  0  0  0  0  0  0  0  0  0  0  0
    2.6595   -0.1943   -0.6449 C   0  0  0  0  0  0  0  0  0  0  0  0
    2.2358    0.9124   -1.3491 C   0  0  0  0  0  0  0  0  0  0  0  0
    2.7331    2.1784   -1.0304 C   0  0  0  0  0  0  0  0  0  0  0  0
    3.6522    2.3554   -0.0134 C   0  0  0  0  0  0  0  0  0  0  0  0
    4.1614    3.6188    0.3195 O   0  0  0  0  0  0  0  0  0  0  0  0
    4.0708    1.2605    0.6824 C   0  0  0  0  0  0  0  0  0  0  0  0
    4.9864    1.4201    1.6989 O   0  0  0  0  0  0  0  0  0  0  0  0
    3.5761    0.0122    0.3632 C   0  0  0  0  0  0  0  0  0  0  0  0
   -1.3047   -1.9380   -2.0106 H   0  0  0  0  0  0  0  0  0  0  0  0
   -1.1997   -0.1019   -2.1179 H   0  0  0  0  0  0  0  0  0  0  0  0
    0.2163   -1.1116   -2.4859 H   0  0  0  0  0  0  0  0  0  0  0  0
   -0.0580    0.0115   -0.0458 H   0  0  0  0  0  0  0  0  0  0  0  0
   -1.6603   -2.5684    0.2901 H   0  0  0  0  0  0  0  0  0  0  0  0
   -1.0503   -1.4359    1.5599 H   0  0  0  0  0  0  0  0  0  0  0  0
   -3.5411   -1.7399   -1.1854 H   0  0  0  0  0  0  0  0  0  0  0  0
   -5.5164   -0.2625   -1.3295 H   0  0  0  0  0  0  0  0  0  0  0  0
   -6.4201    1.9770   -0.7621 H   0  0  0  0  0  0  0  0  0  0  0  0
   -4.4437    3.2099    1.6468 H   0  0  0  0  0  0  0  0  0  0  0  0
   -1.9680    0.6576    1.9367 H   0  0  0  0  0  0  0  0  0  0  0  0
    0.6526   -2.9556   -0.4529 H   0  0  0  0  0  0  0  0  0  0  0  0
    2.3022   -2.5179    1.3373 H   0  0  0  0  0  0  0  0  0  0  0  0
    0.6265   -2.5336    1.8880 H   0  0  0  0  0  0  0  0  0  0  0  0
    1.5006   -0.9407    1.7127 H   0  0  0  0  0  0  0  0  0  0  0  0
    2.9365   -2.3142   -0.6265 H   0  0  0  0  0  0  0  0  0  0  0  0
    2.0768   -1.6953   -2.0290 H   0  0  0  0  0  0  0  0  0  0  0  0
    1.5214    0.8523   -2.1562 H   0  0  0  0  0  0  0  0  0  0  0  0
    2.4053    3.0491   -1.5779 H   0  0  0  0  0  0  0  0  0  0  0  0
    4.9981    3.9488   -0.1717 H   0  0  0  0  0  0  0  0  0  0  0  0
    5.9859    1.4578    1.4617 H   0  0  0  0  0  0  0  0  0  0  0  0
    3.9419   -0.8209    0.9455 H   0  0  0  0  0  0  0  0  0  0  0  0
  1  2  1  0
  2  3  1  0
  3  4  1  0
  4  5  2  0
  5  6  1  0
  6  7  2  0
  7  8  1  0
  7  9  1  0
  9 10  1  0
  9 11  2  0
  2 12  1  0
 12 13  1  0
 12 14  1  0
 14 15  1  0
 15 16  2  0
 16 17  1  0
 17 18  2  0
 18 19  1  0
 18 20  1  0
 20 21  1  0
 20 22  2  0
 11  4  1  0
 22 15  1  0
  1 23  1  0
  1 24  1  0
  1 25  1  0
  2 26  1  1
  3 27  1  0
  3 28  1  0
  5 29  1  0
  6 30  1  0
  8 31  1  0
 10 32  1  0
 11 33  1  0
 12 34  1  6
 13 35  1  0
 13 36  1  0
 13 37  1  0
 14 38  1  0
 14 39  1  0
 16 40  1  0
 17 41  1  0
 19 42  1  0
 21 43  1  0
 22 44  1  0
M  END
$$$$
