
     RDKit          3D

 61 64  0  0  0  0  0  0  0  0999 V2000
   -8.5298   -3.0488   -0.7030 C   0  0  0  0  0  0  0  0  0  0  0  0
   -7.9228   -1.7951   -0.8246 O   0  0  0  0  0  0  0  0  0  0  0  0
   -6.5614   -1.6008   -0.8373 C   0  0  0  0  0  0  0  0  0  0  0  0
   -6.0235   -0.3428   -0.9592 C   0  0  0  0  0  0  0  0  0  0  0  0
   -4.6580   -0.1758   -0.9688 C   0  0  0  0  0  0  0  0  0  0  0  0
   -3.7731   -1.2195   -0.8610 C   0  0  0  0  0  0  0  0  0  0  0  0
   -2.3344   -1.1095   -0.8601 C   0  0  0  0  0  0  0  0  0  0  0  0
   -1.6784   -2.1449   -1.2979 O   0  0  0  0  0  0  0  0  0  0  0  0
   -1.5274    0.0102   -0.4385 C   0  0  0  0  0  0  0  0  0  0  0  0
   -0.2760    0.3458   -0.9789 C   0  0  0  0  0  0  0  0  0  0  0  0
    0.3470   -0.4046   -2.0981 C   0  0  0  0  0  0  0  0  0  0  0  0
    0.2146    1.4207   -0.3204 N   0  0  0  0  0  0  0  0  0  0  0  0
    1.4743    2.0312   -0.6568 C   0  0  0  0  0  0  0  0  0  0  0  0
    2.6517    1.4104    0.0009 C   0  0  0  0  0  0  0  0  0  0  0  0
    3.4434    0.5054   -0.7098 C   0  0  0  0  0  0  0  0  0  0  0  0
    4.5601   -0.1289   -0.1493 C   0  0  0  0  0  0  0  0  0  0  0  0
    5.3039   -1.0065   -0.8823 O   0  0  0  0  0  0  0  0  0  0  0  0
    6.4255   -1.6947   -0.4524 C   0  0  1  0  0  0  0  0  0  0  0  0
    6.2210   -3.2001   -0.5725 C   0  0  0  0  0  0  0  0  0  0  0  0
    7.5664   -1.2757   -1.3121 C   0  0  0  0  0  0  0  0  0  0  0  0
    8.6862   -1.7800   -1.1038 O   0  0  0  0  0  0  0  0  0  0  0  0
    7.3949   -0.3518   -2.3169 O   0  0  0  0  0  0  0  0  0  0  0  0
    4.8713    0.1661    1.1550 C   0  0  0  0  0  0  0  0  0  0  0  0
    4.1026    1.0639    1.8905 C   0  0  0  0  0  0  0  0  0  0  0  0
    2.9961    1.6764    1.2959 C   0  0  0  0  0  0  0  0  0  0  0  0
    2.2840    2.5634    2.0618 F   0  0  0  0  0  0  0  0  0  0  0  0
   -0.6666    1.7936    0.6229 C   0  0  0  0  0  0  0  0  0  0  0  0
   -0.6589    2.7848    1.5396 N   0  0  0  0  0  0  0  0  0  0  0  0
   -1.6421    3.0038    2.4232 C   0  0  0  0  0  0  0  0  0  0  0  0
   -1.5928    4.0449    3.3557 O   0  0  0  0  0  0  0  0  0  0  0  0
   -0.4401    4.8813    3.3369 C   0  0  0  0  0  0  0  0  0  0  0  0
   -2.7112    2.1441    2.3638 C   0  0  0  0  0  0  0  0  0  0  0  0
   -2.7853    1.1173    1.4587 C   0  0  0  0  0  0  0  0  0  0  0  0
   -1.7638    0.9136    0.5584 C   0  0  0  0  0  0  0  0  0  0  0  0
   -4.3491   -2.4810   -0.7389 C   0  0  0  0  0  0  0  0  0  0  0  0
   -5.7066   -2.6921   -0.7250 C   0  0  0  0  0  0  0  0  0  0  0  0
   -8.3905   -3.6479   -1.6211 H   0  0  0  0  0  0  0  0  0  0  0  0
   -9.6042   -2.8913   -0.4647 H   0  0  0  0  0  0  0  0  0  0  0  0
   -8.0570   -3.6367    0.1278 H   0  0  0  0  0  0  0  0  0  0  0  0
   -6.6915    0.4951   -1.0459 H   0  0  0  0  0  0  0  0  0  0  0  0
   -4.2203    0.8270   -1.0664 H   0  0  0  0  0  0  0  0  0  0  0  0
   -0.3896   -0.8685   -2.7572 H   0  0  0  0  0  0  0  0  0  0  0  0
    0.9414    0.2952   -2.7229 H   0  0  0  0  0  0  0  0  0  0  0  0
    1.0460   -1.1999   -1.7263 H   0  0  0  0  0  0  0  0  0  0  0  0
    1.4641    3.1311   -0.4284 H   0  0  0  0  0  0  0  0  0  0  0  0
    1.6253    1.9733   -1.7622 H   0  0  0  0  0  0  0  0  0  0  0  0
    3.2082    0.2695   -1.7262 H   0  0  0  0  0  0  0  0  0  0  0  0
    6.7492   -1.5164    0.5874 H   0  0  0  0  0  0  0  0  0  0  0  0
    6.9711   -3.6792    0.0798 H   0  0  0  0  0  0  0  0  0  0  0  0
    5.2238   -3.4337   -0.1770 H   0  0  0  0  0  0  0  0  0  0  0  0
    6.3566   -3.5553   -1.6169 H   0  0  0  0  0  0  0  0  0  0  0  0
    8.1744    0.1845   -2.7185 H   0  0  0  0  0  0  0  0  0  0  0  0
    5.7261   -0.2777    1.6877 H   0  0  0  0  0  0  0  0  0  0  0  0
    4.3470    1.3012    2.9284 H   0  0  0  0  0  0  0  0  0  0  0  0
    0.3863    4.2618    3.7684 H   0  0  0  0  0  0  0  0  0  0  0  0
   -0.5990    5.8209    3.8869 H   0  0  0  0  0  0  0  0  0  0  0  0
   -0.1888    5.0395    2.2641 H   0  0  0  0  0  0  0  0  0  0  0  0
   -3.5500    2.2577    3.0507 H   0  0  0  0  0  0  0  0  0  0  0  0
   -3.6197    0.4299    1.4388 H   0  0  0  0  0  0  0  0  0  0  0  0
   -3.6994   -3.3259   -0.6515 H   0  0  0  0  0  0  0  0  0  0  0  0
   -6.1511   -3.6784   -0.6300 H   0  0  0  0  0  0  0  0  0  0  0  0
  1  2  1  0
  2  3  1  0
  3  4  2  0
  4  5  1  0
  5  6  2  0
  6  7  1  0
  7  8  2  0
  7  9  1  0
  9 10  2  0
 10 11  1  0
 10 12  1  0
 12 13  1  0
 13 14  1  0
 14 15  2  0
 15 16  1  0
 16 17  1  0
 17 18  1  0
 18 19  1  0
 18 20  1  0
 20 21  2  0
 20 22  1  0
 16 23  2  0
 23 24  1  0
 24 25  2  0
 25 26  1  0
 12 27  1  0
 27 28  2  0
 28 29  1  0
 29 30  1  0
 30 31  1  0
 29 32  2  0
 32 33  1  0
 33 34  2  0
  6 35  1  0
 35 36  2  0
 36  3  1  0
 34  9  1  0
 25 14  1  0
 34 27  1  0
  1 37  1  0
  1 38  1  0
  1 39  1  0
  4 40  1  0
  5 41  1  0
 11 42  1  0
 11 43  1  0
 11 44  1  0
 13 45  1  0
 13 46  1  0
 15 47  1  0
 18 48  1  1
 19 49  1  0
 19 50  1  0
 19 51  1  0
 22 52  1  0
 23 53  1  0
 24 54  1  0
 31 55  1  0
 31 56  1  0
 31 57  1  0
 32 58  1  0
 33 59  1  0
 35 60  1  0
 36 61  1  0
M  END
$$$$
