
     RDKit          3D

 50 52  0  0  0  0  0  0  0  0999 V2000
   -4.4011    2.2565    0.7234 C   0  0  0  0  0  0  0  0  0  0  0  0
   -4.9949    0.8626    0.5926 C   0  0  0  0  0  0  0  0  0  0  0  0
   -4.0060   -0.0015    0.0506 N   0  0  0  0  0  0  0  0  0  0  0  0
   -4.3641   -1.3563   -0.1491 C   0  0  0  0  0  0  0  0  0  0  0  0
   -4.5750   -2.1653    1.1139 C   0  0  0  0  0  0  0  0  0  0  0  0
   -2.6732    0.2562    0.5069 C   0  0  0  0  0  0  0  0  0  0  0  0
   -1.6862   -0.7405   -0.0524 C   0  0  0  0  0  0  0  0  0  0  0  0
   -0.3215   -0.4975    0.3353 N   0  0  0  0  0  0  0  0  0  0  0  0
    0.5858    0.3011   -0.3982 C   0  0  0  0  0  0  0  0  0  0  0  0
    1.9442    0.4841   -0.2639 C   0  0  0  0  0  0  0  0  0  0  0  0
    2.6207    1.3227   -1.1161 C   0  0  0  0  0  0  0  0  0  0  0  0
    1.9475    2.0087   -2.1365 C   0  0  0  0  0  0  0  0  0  0  0  0
    2.8173    3.0640   -3.2088 Cl  0  0  0  0  0  0  0  0  0  0  0  0
    0.5884    1.7834   -2.2183 C   0  0  0  0  0  0  0  0  0  0  0  0
   -0.1235    0.9496   -1.3820 C   0  0  0  0  0  0  0  0  0  0  0  0
    2.7509   -0.1745    0.7615 C   0  0  0  0  0  0  0  0  0  0  0  0
    2.4388   -0.7283    1.8821 N   0  0  0  0  0  0  0  0  0  0  0  0
    1.1390   -0.8768    2.5009 C   0  0  0  0  0  0  0  0  0  0  0  0
    0.0475   -1.1634    1.5618 C   0  0  0  0  0  0  0  0  0  0  0  0
   -0.6808   -2.1609    1.8957 O   0  0  0  0  0  0  0  0  0  0  0  0
    4.1891   -0.1855    0.4111 C   0  0  0  0  0  0  0  0  0  0  0  0
    5.1618    0.6866    0.8568 C   0  0  0  0  0  0  0  0  0  0  0  0
    6.4535    0.5088    0.4096 C   0  0  0  0  0  0  0  0  0  0  0  0
    6.7580   -0.5117   -0.4567 C   0  0  0  0  0  0  0  0  0  0  0  0
    5.7863   -1.3821   -0.9010 C   0  0  0  0  0  0  0  0  0  0  0  0
    4.4915   -1.2144   -0.4611 C   0  0  0  0  0  0  0  0  0  0  0  0
    3.6062   -2.1227   -0.9544 F   0  0  0  0  0  0  0  0  0  0  0  0
   -5.2149    2.9988    0.9178 H   0  0  0  0  0  0  0  0  0  0  0  0
   -3.7169    2.2366    1.6015 H   0  0  0  0  0  0  0  0  0  0  0  0
   -3.9141    2.5887   -0.1971 H   0  0  0  0  0  0  0  0  0  0  0  0
   -5.8125    0.9625   -0.1799 H   0  0  0  0  0  0  0  0  0  0  0  0
   -5.4630    0.5379    1.5248 H   0  0  0  0  0  0  0  0  0  0  0  0
   -3.6038   -1.8760   -0.7563 H   0  0  0  0  0  0  0  0  0  0  0  0
   -5.2920   -1.3688   -0.7815 H   0  0  0  0  0  0  0  0  0  0  0  0
   -3.8840   -3.0320    1.1898 H   0  0  0  0  0  0  0  0  0  0  0  0
   -5.6000   -2.6392    1.0533 H   0  0  0  0  0  0  0  0  0  0  0  0
   -4.5333   -1.5353    2.0230 H   0  0  0  0  0  0  0  0  0  0  0  0
   -2.4198    1.3110    0.3355 H   0  0  0  0  0  0  0  0  0  0  0  0
   -2.7463    0.1205    1.6443 H   0  0  0  0  0  0  0  0  0  0  0  0
   -1.7867   -0.7841   -1.1258 H   0  0  0  0  0  0  0  0  0  0  0  0
   -2.0348   -1.7153    0.4251 H   0  0  0  0  0  0  0  0  0  0  0  0
    3.6669    1.4189   -0.9568 H   0  0  0  0  0  0  0  0  0  0  0  0
    0.0838    2.3341   -3.0247 H   0  0  0  0  0  0  0  0  0  0  0  0
   -1.1814    0.8669   -1.5579 H   0  0  0  0  0  0  0  0  0  0  0  0
    0.9505    0.1080    3.0118 H   0  0  0  0  0  0  0  0  0  0  0  0
    1.1720   -1.6095    3.3205 H   0  0  0  0  0  0  0  0  0  0  0  0
    4.7857    1.4428    1.5344 H   0  0  0  0  0  0  0  0  0  0  0  0
    7.1644    1.2227    0.7940 H   0  0  0  0  0  0  0  0  0  0  0  0
    7.7975   -0.6276   -0.7946 H   0  0  0  0  0  0  0  0  0  0  0  0
    6.0825   -2.1647   -1.5798 H   0  0  0  0  0  0  0  0  0  0  0  0
  1  2  1  0
  2  3  1  0
  3  4  1  0
  4  5  1  0
  3  6  1  0
  6  7  1  0
  7  8  1  0
  8  9  1  0
  9 10  2  0
 10 11  1  0
 11 12  2  0
 12 13  1  0
 12 14  1  0
 14 15  2  0
 10 16  1  0
 16 17  2  0
 17 18  1  0
 18 19  1  0
 19 20  2  0
 16 21  1  0
 21 22  2  0
 22 23  1  0
 23 24  2  0
 24 25  1  0
 25 26  2  0
 26 27  1  0
 19  8  1  0
 26 21  1  0
 15  9  1  0
  1 28  1  0
  1 29  1  0
  1 30  1  0
  2 31  1  0
  2 32  1  0
  4 33  1  0
  4 34  1  0
  5 35  1  0
  5 36  1  0
  5 37  1  0
  6 38  1  0
  6 39  1  0
  7 40  1  0
  7 41  1  0
 11 42  1  0
 14 43  1  0
 15 44  1  0
 18 45  1  0
 18 46  1  0
 22 47  1  0
 23 48  1  0
 24 49  1  0
 25 50  1  0
M  END
$$$$
