
     RDKit          3D

 61 68  0  0  0  0  0  0  0  0999 V2000
    4.4201   -1.0674   -1.6906 C   0  0  0  0  0  0  0  0  0  0  0  0
    4.4233   -0.9528   -0.2756 N   0  0  0  0  0  0  0  0  0  0  0  0
    3.1953   -0.7427    0.3805 C   0  0  2  0  0  0  0  0  0  0  0  0
    2.1279   -1.7732    0.0239 C   0  0  0  0  0  0  0  0  0  0  0  0
    1.1067   -1.6650    1.1326 C   0  0  1  0  0  0  0  0  0  0  0  0
    1.2404   -0.5648    1.9034 O   0  0  0  0  0  0  0  0  0  0  0  0
    1.4384    0.6574    1.2566 C   0  0  1  0  0  0  0  0  0  0  0  0
    1.9183    1.5638    2.3989 C   0  0  0  0  0  0  0  0  0  0  0  0
    2.5541    0.6106    0.2329 C   0  0  2  0  0  0  0  0  0  0  0  0
    2.1172    0.7677   -1.0593 O   0  0  0  0  0  0  0  0  0  0  0  0
    2.7261    1.8121   -1.7255 C   0  0  0  0  0  0  0  0  0  0  0  0
    0.2055    1.1984    0.7374 N   0  0  0  0  0  0  0  0  0  0  0  0
   -0.1189    2.5049    0.5610 C   0  0  0  0  0  0  0  0  0  0  0  0
    0.6165    3.6497    0.7630 C   0  0  0  0  0  0  0  0  0  0  0  0
    0.0222    4.8787    0.4841 C   0  0  0  0  0  0  0  0  0  0  0  0
   -1.2694    4.9805    0.0146 C   0  0  0  0  0  0  0  0  0  0  0  0
   -2.0078    3.8335   -0.1902 C   0  0  0  0  0  0  0  0  0  0  0  0
   -1.4105    2.6254    0.0889 C   0  0  0  0  0  0  0  0  0  0  0  0
   -1.9058    1.3517   -0.0384 C   0  0  0  0  0  0  0  0  0  0  0  0
   -3.1185    0.8204   -0.4669 C   0  0  0  0  0  0  0  0  0  0  0  0
   -3.3626   -0.5338   -0.5114 C   0  0  0  0  0  0  0  0  0  0  0  0
   -2.3220   -1.3586   -0.1026 C   0  0  0  0  0  0  0  0  0  0  0  0
   -2.2135   -2.7295   -0.0366 C   0  0  0  0  0  0  0  0  0  0  0  0
   -3.0235   -3.7967   -0.3090 C   0  0  0  0  0  0  0  0  0  0  0  0
   -2.6038   -5.1265   -0.1321 C   0  0  0  0  0  0  0  0  0  0  0  0
   -1.3338   -5.3294    0.3306 C   0  0  0  0  0  0  0  0  0  0  0  0
   -0.4866   -4.2648    0.6164 C   0  0  0  0  0  0  0  0  0  0  0  0
   -0.9168   -2.9791    0.4365 C   0  0  0  0  0  0  0  0  0  0  0  0
   -0.2688   -1.8359    0.6490 N   0  0  0  0  0  0  0  0  0  0  0  0
   -1.1159   -0.8537    0.3250 C   0  0  0  0  0  0  0  0  0  0  0  0
   -0.9224    0.5071    0.3536 C   0  0  0  0  0  0  0  0  0  0  0  0
   -4.7142   -0.7543   -0.9902 C   0  0  0  0  0  0  0  0  0  0  0  0
   -5.3397   -1.8295   -1.1810 O   0  0  0  0  0  0  0  0  0  0  0  0
   -5.2809    0.5420   -1.2346 N   0  0  0  0  0  0  0  0  0  0  0  0
   -4.3188    1.5453   -0.9439 C   0  0  0  0  0  0  0  0  0  0  0  0
    4.8979   -2.0191   -2.0518 H   0  0  0  0  0  0  0  0  0  0  0  0
    3.4105   -0.9485   -2.1670 H   0  0  0  0  0  0  0  0  0  0  0  0
    5.0582   -0.2682   -2.1202 H   0  0  0  0  0  0  0  0  0  0  0  0
    5.0208   -1.6864    0.1455 H   0  0  0  0  0  0  0  0  0  0  0  0
    3.3517   -0.8809    1.5002 H   0  0  0  0  0  0  0  0  0  0  0  0
    1.6151   -1.4284   -0.9147 H   0  0  0  0  0  0  0  0  0  0  0  0
    2.5475   -2.7793   -0.0869 H   0  0  0  0  0  0  0  0  0  0  0  0
    1.2864   -2.5571    1.7891 H   0  0  0  0  0  0  0  0  0  0  0  0
    2.8767    2.0611    2.1745 H   0  0  0  0  0  0  0  0  0  0  0  0
    2.2045    0.9184    3.3101 H   0  0  0  0  0  0  0  0  0  0  0  0
    1.1232    2.1976    2.8023 H   0  0  0  0  0  0  0  0  0  0  0  0
    3.3383    1.3788    0.4605 H   0  0  0  0  0  0  0  0  0  0  0  0
    3.8216    1.7412   -1.8139 H   0  0  0  0  0  0  0  0  0  0  0  0
    2.3986    2.7698   -1.2767 H   0  0  0  0  0  0  0  0  0  0  0  0
    2.3635    1.8201   -2.7994 H   0  0  0  0  0  0  0  0  0  0  0  0
    1.6376    3.6043    1.1018 H   0  0  0  0  0  0  0  0  0  0  0  0
    0.6192    5.7554    0.6521 H   0  0  0  0  0  0  0  0  0  0  0  0
   -1.7430    5.9186   -0.2052 H   0  0  0  0  0  0  0  0  0  0  0  0
   -3.0189    3.9157   -0.5571 H   0  0  0  0  0  0  0  0  0  0  0  0
   -4.0044   -3.6567   -0.6662 H   0  0  0  0  0  0  0  0  0  0  0  0
   -3.3096   -5.9068   -0.3722 H   0  0  0  0  0  0  0  0  0  0  0  0
   -0.9846   -6.3412    0.4759 H   0  0  0  0  0  0  0  0  0  0  0  0
    0.5168   -4.4403    0.9822 H   0  0  0  0  0  0  0  0  0  0  0  0
   -6.2510    0.7142   -1.5736 H   0  0  0  0  0  0  0  0  0  0  0  0
   -4.7415    2.2244   -0.1635 H   0  0  0  0  0  0  0  0  0  0  0  0
   -4.0927    2.2016   -1.8123 H   0  0  0  0  0  0  0  0  0  0  0  0
  1  2  1  0
  2  3  1  0
  3  4  1  0
  4  5  1  0
  5  6  1  0
  6  7  1  0
  7  8  1  1
  7  9  1  0
  9 10  1  0
 10 11  1  0
  7 12  1  0
 12 13  1  0
 13 14  2  0
 14 15  1  0
 15 16  2  0
 16 17  1  0
 17 18  2  0
 18 19  1  0
 19 20  2  0
 20 21  1  0
 21 22  2  0
 22 23  1  0
 23 24  2  0
 24 25  1  0
 25 26  2  0
 26 27  1  0
 27 28  2  0
 28 29  1  0
 29 30  1  0
 30 31  2  0
 21 32  1  0
 32 33  2  0
 32 34  1  0
 34 35  1  0
  9  3  1  0
 31 12  1  0
 29  5  1  0
 18 13  1  0
 31 19  1  0
 35 20  1  0
 30 22  1  0
 28 23  1  0
  1 36  1  0
  1 37  1  0
  1 38  1  0
  2 39  1  0
  3 40  1  1
  4 41  1  0
  4 42  1  0
  5 43  1  1
  8 44  1  0
  8 45  1  0
  8 46  1  0
  9 47  1  1
 11 48  1  0
 11 49  1  0
 11 50  1  0
 14 51  1  0
 15 52  1  0
 16 53  1  0
 17 54  1  0
 24 55  1  0
 25 56  1  0
 26 57  1  0
 27 58  1  0
 34 59  1  0
 35 60  1  0
 35 61  1  0
M  END
$$$$
