
     RDKit          3D

 32 34  0  0  0  0  0  0  0  0999 V2000
    5.9655    2.7672    0.5829 O   0  0  0  0  0  0  0  0  0  0  0  0
    5.6439    1.4870    0.1903 C   0  0  0  0  0  0  0  0  0  0  0  0
    6.6943    0.8611   -0.1769 O   0  0  0  0  0  0  0  0  0  0  0  0
    4.3128    0.8877    0.1784 C   0  0  0  0  0  0  0  0  0  0  0  0
    3.1678    1.5237    0.5603 C   0  0  0  0  0  0  0  0  0  0  0  0
    1.9193    0.8944    0.5289 C   0  0  0  0  0  0  0  0  0  0  0  0
    1.8085   -0.4119    0.1023 C   0  0  0  0  0  0  0  0  0  0  0  0
    2.9874   -1.0064   -0.2709 C   0  0  0  0  0  0  0  0  0  0  0  0
    4.2363   -0.4196   -0.2538 C   0  0  0  0  0  0  0  0  0  0  0  0
    0.5251   -1.1103    0.0553 C   0  0  0  0  0  0  0  0  0  0  0  0
    0.4136   -2.4289   -0.3699 C   0  0  0  0  0  0  0  0  0  0  0  0
   -0.9303   -2.6974   -0.2629 C   0  0  0  0  0  0  0  0  0  0  0  0
   -1.5777   -1.5498    0.2156 C   0  0  0  0  0  0  0  0  0  0  0  0
   -0.6428   -0.6554    0.3782 O   0  0  0  0  0  0  0  0  0  0  0  0
   -3.0172   -1.5910    0.4128 C   0  0  0  0  0  0  0  0  0  0  0  0
   -3.8128   -0.5734    0.1505 C   0  0  0  0  0  0  0  0  0  0  0  0
   -3.2868    1.0366   -0.4913 S   0  0  0  0  0  0  0  0  0  0  0  0
   -4.8763    1.8451   -0.2468 C   0  0  0  0  0  0  0  0  0  0  0  0
   -5.1269    3.0991   -0.3482 N   0  0  0  0  0  0  0  0  0  0  0  0
   -5.7848    0.8047    0.0833 N   0  0  0  0  0  0  0  0  0  0  0  0
   -5.2621   -0.4754    0.2984 C   0  0  0  0  0  0  0  0  0  0  0  0
   -5.9494   -1.4870    0.5968 O   0  0  0  0  0  0  0  0  0  0  0  0
    6.8069    2.9693    1.1075 H   0  0  0  0  0  0  0  0  0  0  0  0
    3.2737    2.5518    0.8934 H   0  0  0  0  0  0  0  0  0  0  0  0
    1.0406    1.4529    0.8462 H   0  0  0  0  0  0  0  0  0  0  0  0
    2.9368   -2.0446   -0.6161 H   0  0  0  0  0  0  0  0  0  0  0  0
    5.1219   -0.9669   -0.5685 H   0  0  0  0  0  0  0  0  0  0  0  0
    1.1881   -3.1193   -0.7166 H   0  0  0  0  0  0  0  0  0  0  0  0
   -1.3413   -3.6622   -0.5241 H   0  0  0  0  0  0  0  0  0  0  0  0
   -3.5087   -2.4939    0.7977 H   0  0  0  0  0  0  0  0  0  0  0  0
   -6.1026    3.4836   -0.1839 H   0  0  0  0  0  0  0  0  0  0  0  0
   -6.8228    1.0292    0.1548 H   0  0  0  0  0  0  0  0  0  0  0  0
  1  2  1  0
  2  3  2  0
  2  4  1  0
  4  5  2  0
  5  6  1  0
  6  7  2  0
  7  8  1  0
  8  9  2  0
  7 10  1  0
 10 11  2  0
 11 12  1  0
 12 13  2  0
 13 14  1  0
 13 15  1  0
 15 16  2  0
 16 17  1  0
 17 18  1  0
 18 19  2  3
 18 20  1  0
 20 21  1  0
 21 22  2  0
  9  4  1  0
 14 10  1  0
 21 16  1  0
  1 23  1  0
  5 24  1  0
  6 25  1  0
  8 26  1  0
  9 27  1  0
 11 28  1  0
 12 29  1  0
 15 30  1  0
 19 31  1  0
 20 32  1  0
M  END
$$$$
