
     RDKit          3D

 42 45  0  0  0  0  0  0  0  0999 V2000
   -6.2317   -2.3830   -0.7980 C   0  0  0  0  0  0  0  0  0  0  0  0
   -4.9232   -1.6903   -0.6919 C   0  0  0  0  0  0  0  0  0  0  0  0
   -3.9727   -1.7877    0.3097 C   0  0  0  0  0  0  0  0  0  0  0  0
   -2.9024   -0.9686    0.0080 C   0  0  0  0  0  0  0  0  0  0  0  0
   -1.7311   -0.8021    0.7943 N   0  0  0  0  0  0  0  0  0  0  0  0
   -0.6763    0.0551    0.4409 C   0  0  0  0  0  0  0  0  0  0  0  0
    0.3503   -0.3530   -0.3494 N   0  0  0  0  0  0  0  0  0  0  0  0
    1.3763    0.4381   -0.7022 C   0  0  0  0  0  0  0  0  0  0  0  0
    2.4821   -0.0803   -1.5805 C   0  0  1  0  0  0  0  0  0  0  0  0
    2.8102    0.8336   -2.5720 O   0  0  0  0  0  0  0  0  0  0  0  0
    3.6401   -0.5225   -0.7776 C   0  0  0  0  0  0  0  0  0  0  0  0
    4.5768    0.3789   -0.3091 C   0  0  0  0  0  0  0  0  0  0  0  0
    5.6618   -0.0308    0.4442 C   0  0  0  0  0  0  0  0  0  0  0  0
    5.8465   -1.3394    0.7519 C   0  0  0  0  0  0  0  0  0  0  0  0
    6.8989   -1.8053    1.4933 F   0  0  0  0  0  0  0  0  0  0  0  0
    4.9271   -2.2703    0.2989 C   0  0  0  0  0  0  0  0  0  0  0  0
    3.8401   -1.8463   -0.4579 C   0  0  0  0  0  0  0  0  0  0  0  0
    1.3803    1.7019   -0.2441 N   0  0  0  0  0  0  0  0  0  0  0  0
    0.3774    2.1640    0.5510 C   0  0  0  0  0  0  0  0  0  0  0  0
    0.3694    3.4560    1.0290 C   0  0  0  0  0  0  0  0  0  0  0  0
   -0.6700    3.9010    1.8426 C   0  0  0  0  0  0  0  0  0  0  0  0
   -1.7092    3.0745    2.1906 C   0  0  0  0  0  0  0  0  0  0  0  0
   -1.7159    1.7607    1.7138 C   0  0  0  0  0  0  0  0  0  0  0  0
   -0.6740    1.3462    0.9099 C   0  0  0  0  0  0  0  0  0  0  0  0
   -3.2270   -0.3985   -1.1599 N   0  0  0  0  0  0  0  0  0  0  0  0
   -4.4066   -0.8084   -1.5862 N   0  0  0  0  0  0  0  0  0  0  0  0
   -6.5929   -2.4995    0.2631 H   0  0  0  0  0  0  0  0  0  0  0  0
   -6.9350   -1.7392   -1.3370 H   0  0  0  0  0  0  0  0  0  0  0  0
   -6.1454   -3.4088   -1.1888 H   0  0  0  0  0  0  0  0  0  0  0  0
   -4.0987   -2.4172    1.1659 H   0  0  0  0  0  0  0  0  0  0  0  0
   -1.6378   -1.3425    1.6883 H   0  0  0  0  0  0  0  0  0  0  0  0
    2.0592   -0.9664   -2.1197 H   0  0  0  0  0  0  0  0  0  0  0  0
    1.9737    1.0749   -3.0403 H   0  0  0  0  0  0  0  0  0  0  0  0
    4.4882    1.4416   -0.5188 H   0  0  0  0  0  0  0  0  0  0  0  0
    6.3721    0.7011    0.7927 H   0  0  0  0  0  0  0  0  0  0  0  0
    5.0730   -3.3090    0.5429 H   0  0  0  0  0  0  0  0  0  0  0  0
    3.1024   -2.5718   -0.8243 H   0  0  0  0  0  0  0  0  0  0  0  0
    1.1914    4.1185    0.7577 H   0  0  0  0  0  0  0  0  0  0  0  0
   -0.6754    4.9278    2.2223 H   0  0  0  0  0  0  0  0  0  0  0  0
   -2.5321    3.3623    2.8116 H   0  0  0  0  0  0  0  0  0  0  0  0
   -2.5184    1.0743    1.9644 H   0  0  0  0  0  0  0  0  0  0  0  0
   -4.8216   -0.4694   -2.4807 H   0  0  0  0  0  0  0  0  0  0  0  0
  1  2  1  0
  2  3  2  0
  3  4  1  0
  4  5  1  0
  5  6  1  0
  6  7  2  0
  7  8  1  0
  8  9  1  0
  9 10  1  0
  9 11  1  0
 11 12  2  0
 12 13  1  0
 13 14  2  0
 14 15  1  0
 14 16  1  0
 16 17  2  0
  8 18  2  0
 18 19  1  0
 19 20  2  0
 20 21  1  0
 21 22  2  0
 22 23  1  0
 23 24  2  0
  4 25  2  0
 25 26  1  0
 26  2  1  0
 24  6  1  0
 17 11  1  0
 24 19  1  0
  1 27  1  0
  1 28  1  0
  1 29  1  0
  3 30  1  0
  5 31  1  0
  9 32  1  6
 10 33  1  0
 12 34  1  0
 13 35  1  0
 16 36  1  0
 17 37  1  0
 20 38  1  0
 21 39  1  0
 22 40  1  0
 23 41  1  0
 26 42  1  0
M  END
$$$$
