
     RDKit          3D

 44 46  0  0  0  0  0  0  0  0999 V2000
    1.0041   -1.9434   -0.8963 C   0  0  1  0  0  0  0  0  0  0  0  0
    1.0417   -2.5904    0.4597 C   0  0  0  0  0  0  0  0  0  0  0  0
    1.3086   -1.5247    1.4669 C   0  0  0  0  0  0  0  0  0  0  0  0
    1.4418   -0.2719    0.5763 C   0  0  2  0  0  0  0  0  0  0  0  0
    0.0727    0.3312    0.5463 C   0  0  2  0  0  0  0  0  0  0  0  0
   -0.8740   -0.7055   -0.0205 C   0  0  2  0  0  0  0  0  0  0  0  0
   -0.3439   -1.3826   -1.2610 C   0  0  0  0  0  0  0  0  0  0  0  0
   -2.2615   -0.1887   -0.1958 C   0  0  0  0  0  0  0  0  0  0  0  0
   -3.1429   -0.5052    0.8319 C   0  0  0  0  0  0  0  0  0  0  0  0
   -4.4890   -0.1255    0.8596 C   0  0  0  0  0  0  0  0  0  0  0  0
   -4.9079    0.6079   -0.2306 C   0  0  0  0  0  0  0  0  0  0  0  0
   -6.2274    0.9863   -0.2154 F   0  0  0  0  0  0  0  0  0  0  0  0
   -4.0656    0.9491   -1.2818 C   0  0  0  0  0  0  0  0  0  0  0  0
   -2.7402    0.5455   -1.2563 C   0  0  0  0  0  0  0  0  0  0  0  0
    0.0149    1.6396   -0.0941 C   0  0  0  0  0  0  0  0  0  0  0  0
    0.9077    2.3363   -0.6654 O   0  0  0  0  0  0  0  0  0  0  0  0
   -0.9717    2.5513   -0.3018 O   0  0  0  0  0  0  0  0  0  0  0  0
   -0.8047    3.7892   -0.9627 C   0  0  0  0  0  0  0  0  0  0  0  0
    1.8640   -0.7678   -0.6888 N   0  0  0  0  0  0  0  0  0  0  0  0
    3.2069   -1.2253   -0.7624 C   0  0  0  0  0  0  0  0  0  0  0  0
    4.2710   -0.2110   -0.6893 C   0  0  0  0  0  0  0  0  0  0  0  0
    4.4943    1.0941   -0.5831 C   0  0  0  0  0  0  0  0  0  0  0  0
    6.4364    1.9645   -0.5299 I   0  0  0  0  0  0  0  0  0  0  0  0
    1.4039   -2.6407   -1.6414 H   0  0  0  0  0  0  0  0  0  0  0  0
    0.1664   -3.2363    0.6714 H   0  0  0  0  0  0  0  0  0  0  0  0
    1.9144   -3.3064    0.4786 H   0  0  0  0  0  0  0  0  0  0  0  0
    0.5311   -1.3920    2.2384 H   0  0  0  0  0  0  0  0  0  0  0  0
    2.2582   -1.6458    2.0211 H   0  0  0  0  0  0  0  0  0  0  0  0
    2.1804    0.4196    1.0108 H   0  0  0  0  0  0  0  0  0  0  0  0
   -0.2259    0.4367    1.6351 H   0  0  0  0  0  0  0  0  0  0  0  0
   -0.8993   -1.5117    0.7806 H   0  0  0  0  0  0  0  0  0  0  0  0
   -1.0796   -2.1124   -1.5934 H   0  0  0  0  0  0  0  0  0  0  0  0
   -0.1692   -0.5740   -2.0194 H   0  0  0  0  0  0  0  0  0  0  0  0
   -2.8393   -1.0890    1.7166 H   0  0  0  0  0  0  0  0  0  0  0  0
   -5.1342   -0.3978    1.6831 H   0  0  0  0  0  0  0  0  0  0  0  0
   -4.4359    1.5255   -2.1177 H   0  0  0  0  0  0  0  0  0  0  0  0
   -2.0466    0.7687   -2.0348 H   0  0  0  0  0  0  0  0  0  0  0  0
   -1.8087    4.2412   -1.2015 H   0  0  0  0  0  0  0  0  0  0  0  0
   -0.3174    4.4976   -0.2627 H   0  0  0  0  0  0  0  0  0  0  0  0
   -0.1753    3.7258   -1.8757 H   0  0  0  0  0  0  0  0  0  0  0  0
    3.4180   -2.0179    0.0269 H   0  0  0  0  0  0  0  0  0  0  0  0
    3.2770   -1.8310   -1.7167 H   0  0  0  0  0  0  0  0  0  0  0  0
    5.2401   -0.7626   -0.7525 H   0  0  0  0  0  0  0  0  0  0  0  0
    3.5065    1.5494   -0.5440 H   0  0  0  0  0  0  0  0  0  0  0  0
  1  2  1  0
  2  3  1  0
  3  4  1  0
  4  5  1  0
  5  6  1  0
  6  7  1  0
  6  8  1  0
  8  9  2  0
  9 10  1  0
 10 11  2  0
 11 12  1  0
 11 13  1  0
 13 14  2  0
  5 15  1  0
 15 16  2  0
 15 17  1  0
 17 18  1  0
  4 19  1  0
 19 20  1  0
 20 21  1  0
 21 22  2  0
 22 23  1  0
  7  1  1  0
 14  8  1  0
 19  1  1  0
  1 24  1  6
  2 25  1  0
  2 26  1  0
  3 27  1  0
  3 28  1  0
  4 29  1  1
  5 30  1  1
  6 31  1  1
  7 32  1  0
  7 33  1  0
  9 34  1  0
 10 35  1  0
 13 36  1  0
 14 37  1  0
 18 38  1  0
 18 39  1  0
 18 40  1  0
 20 41  1  0
 20 42  1  0
 21 43  1  0
 22 44  1  0
M  END
$$$$
