
     RDKit          3D

 49 52  0  0  0  0  0  0  0  0999 V2000
   -6.3280    2.2573    0.4536 C   0  0  0  0  0  0  0  0  0  0  0  0
   -5.4167    1.2160    0.6171 O   0  0  0  0  0  0  0  0  0  0  0  0
   -5.3474    0.4924   -0.5893 C   0  0  0  0  0  0  0  0  0  0  0  0
   -4.3456   -0.6558   -0.4164 C   0  0  2  0  0  0  0  0  0  0  0  0
   -4.7819   -1.5682    0.6817 C   0  0  0  0  0  0  0  0  0  0  0  0
   -3.5128   -1.7798    1.4799 C   0  0  0  0  0  0  0  0  0  0  0  0
   -2.7993   -0.4715    1.2986 C   0  0  0  0  0  0  0  0  0  0  0  0
   -3.0436   -0.1500   -0.0938 N   0  0  0  0  0  0  0  0  0  0  0  0
   -1.9021   -0.9190   -1.1333 S   0  0  0  0  0  6  0  0  0  0  0  0
   -2.3064   -0.5590   -2.5542 O   0  0  0  0  0  0  0  0  0  0  0  0
   -2.0465   -2.4172   -1.0260 O   0  0  0  0  0  0  0  0  0  0  0  0
   -0.2687   -0.4104   -0.8139 C   0  0  0  0  0  0  0  0  0  0  0  0
    0.4738   -1.1122    0.1039 C   0  0  0  0  0  0  0  0  0  0  0  0
    1.7653   -0.6997    0.3478 C   0  0  0  0  0  0  0  0  0  0  0  0
    2.3526    0.3951   -0.2923 C   0  0  0  0  0  0  0  0  0  0  0  0
    1.5916    1.0837   -1.2075 C   0  0  0  0  0  0  0  0  0  0  0  0
    0.2763    0.6726   -1.4635 C   0  0  0  0  0  0  0  0  0  0  0  0
    2.4331    2.1582   -1.7157 C   0  0  0  0  0  0  0  0  0  0  0  0
    2.1232    3.0211   -2.5706 O   0  0  0  0  0  0  0  0  0  0  0  0
    3.7231    2.0607   -1.0501 C   0  0  0  0  0  0  0  0  0  0  0  0
    4.7379    2.8204   -1.2190 O   0  0  0  0  0  0  0  0  0  0  0  0
    3.6597    0.9695   -0.1753 N   0  0  0  0  0  0  0  0  0  0  0  0
    4.6986    0.4781    0.7026 C   0  0  0  0  0  0  0  0  0  0  0  0
    5.5645   -0.5596    0.0181 C   0  0  0  0  0  0  0  0  0  0  0  0
    6.6328   -1.0412    0.9741 C   0  0  0  0  0  0  0  0  0  0  0  0
    7.5784   -0.0562    1.5090 C   0  0  0  0  0  0  0  0  0  0  0  0
    6.5407   -0.4838    2.3248 O   0  0  0  0  0  0  0  0  0  0  0  0
   -5.9472    2.8907   -0.3744 H   0  0  0  0  0  0  0  0  0  0  0  0
   -6.4581    2.8463    1.3663 H   0  0  0  0  0  0  0  0  0  0  0  0
   -7.3144    1.8718    0.1081 H   0  0  0  0  0  0  0  0  0  0  0  0
   -6.3440    0.0811   -0.8488 H   0  0  0  0  0  0  0  0  0  0  0  0
   -4.9957    1.1708   -1.3753 H   0  0  0  0  0  0  0  0  0  0  0  0
   -4.3567   -1.2288   -1.3703 H   0  0  0  0  0  0  0  0  0  0  0  0
   -5.1035   -2.5716    0.3326 H   0  0  0  0  0  0  0  0  0  0  0  0
   -5.5546   -1.1305    1.3528 H   0  0  0  0  0  0  0  0  0  0  0  0
   -2.9305   -2.6476    1.1385 H   0  0  0  0  0  0  0  0  0  0  0  0
   -3.7751   -1.9627    2.5583 H   0  0  0  0  0  0  0  0  0  0  0  0
   -1.7299   -0.5013    1.5483 H   0  0  0  0  0  0  0  0  0  0  0  0
   -3.2796    0.2832    1.9515 H   0  0  0  0  0  0  0  0  0  0  0  0
    0.0722   -1.9826    0.6425 H   0  0  0  0  0  0  0  0  0  0  0  0
    2.3613   -1.2338    1.0603 H   0  0  0  0  0  0  0  0  0  0  0  0
   -0.2779    1.2527   -2.1950 H   0  0  0  0  0  0  0  0  0  0  0  0
    4.2584    0.0016    1.5981 H   0  0  0  0  0  0  0  0  0  0  0  0
    5.3726    1.2957    1.0463 H   0  0  0  0  0  0  0  0  0  0  0  0
    6.0545   -0.1350   -0.8709 H   0  0  0  0  0  0  0  0  0  0  0  0
    4.9534   -1.4456   -0.2816 H   0  0  0  0  0  0  0  0  0  0  0  0
    6.8011   -2.1364    1.0714 H   0  0  0  0  0  0  0  0  0  0  0  0
    7.5585    0.9570    1.0668 H   0  0  0  0  0  0  0  0  0  0  0  0
    8.5826   -0.4166    1.8172 H   0  0  0  0  0  0  0  0  0  0  0  0
  1  2  1  0
  2  3  1  0
  3  4  1  0
  4  5  1  0
  5  6  1  0
  6  7  1  0
  7  8  1  0
  8  9  1  0
  9 10  2  0
  9 11  2  0
  9 12  1  0
 12 13  2  0
 13 14  1  0
 14 15  2  0
 15 16  1  0
 16 17  2  0
 16 18  1  0
 18 19  2  0
 18 20  1  0
 20 21  2  0
 20 22  1  0
 22 23  1  0
 23 24  1  0
 24 25  1  0
 25 26  1  0
 26 27  1  0
  8  4  1  0
 17 12  1  0
 27 25  1  0
 22 15  1  0
  1 28  1  0
  1 29  1  0
  1 30  1  0
  3 31  1  0
  3 32  1  0
  4 33  1  6
  5 34  1  0
  5 35  1  0
  6 36  1  0
  6 37  1  0
  7 38  1  0
  7 39  1  0
 13 40  1  0
 14 41  1  0
 17 42  1  0
 23 43  1  0
 23 44  1  0
 24 45  1  0
 24 46  1  0
 25 47  1  0
 26 48  1  0
 26 49  1  0
M  END
$$$$
