
     RDKit          3D

 53 55  0  0  0  0  0  0  0  0999 V2000
   -3.5234    3.8960    0.1542 C   0  0  0  0  0  0  0  0  0  0  0  0
   -2.2176    3.1815    0.0604 C   0  0  0  0  0  0  0  0  0  0  0  0
   -2.2974    1.7727    0.1276 N   0  0  0  0  0  0  0  0  0  0  0  0
   -1.0439    1.0857    0.0415 C   0  0  0  0  0  0  0  0  0  0  0  0
   -0.1455    1.2855    1.2066 C   0  0  0  0  0  0  0  0  0  0  0  0
    1.1300    0.5103    1.0136 C   0  0  0  0  0  0  0  0  0  0  0  0
    1.8872    0.9289   -0.2116 C   0  0  0  0  0  0  0  0  0  0  0  0
    3.1034    0.1395   -0.3059 N   0  0  0  0  0  0  0  0  0  0  0  0
    4.3659    0.4878    0.2622 C   0  0  0  0  0  0  0  0  0  0  0  0
    4.6165    1.5346    0.9338 O   0  0  0  0  0  0  0  0  0  0  0  0
    5.3417   -0.5547   -0.0486 C   0  0  0  0  0  0  0  0  0  0  0  0
    6.6786   -0.7453    0.2324 C   0  0  0  0  0  0  0  0  0  0  0  0
    7.3789   -1.8486   -0.1943 C   0  0  0  0  0  0  0  0  0  0  0  0
    6.7357   -2.8021   -0.9270 C   0  0  0  0  0  0  0  0  0  0  0  0
    5.4090   -2.6454   -1.2244 C   0  0  0  0  0  0  0  0  0  0  0  0
    4.7177   -1.5354   -0.7914 C   0  0  0  0  0  0  0  0  0  0  0  0
    3.3143   -1.1045   -0.9552 C   0  0  0  0  0  0  0  0  0  0  0  0
    2.4695   -1.7691   -1.5817 O   0  0  0  0  0  0  0  0  0  0  0  0
   -3.3055    1.1940    0.9211 C   0  0  0  0  0  0  0  0  0  0  0  0
   -3.2182   -0.2851    0.8308 C   0  0  0  0  0  0  0  0  0  0  0  0
   -2.6946   -1.0724    1.8516 C   0  0  0  0  0  0  0  0  0  0  0  0
   -2.6542   -2.4489    1.6795 C   0  0  0  0  0  0  0  0  0  0  0  0
   -3.1110   -3.0734    0.5386 C   0  0  0  0  0  0  0  0  0  0  0  0
   -3.6283   -2.2759   -0.4660 C   0  0  0  0  0  0  0  0  0  0  0  0
   -3.6799   -0.8915   -0.3174 C   0  0  0  0  0  0  0  0  0  0  0  0
   -4.1965   -0.0820   -1.3176 O   0  0  0  0  0  0  0  0  0  0  0  0
   -4.6698   -0.7055   -2.4956 C   0  0  0  0  0  0  0  0  0  0  0  0
   -4.3364    3.3730   -0.4220 H   0  0  0  0  0  0  0  0  0  0  0  0
   -3.8492    4.1065    1.2023 H   0  0  0  0  0  0  0  0  0  0  0  0
   -3.4189    4.8859   -0.3396 H   0  0  0  0  0  0  0  0  0  0  0  0
   -1.7733    3.4511   -0.9420 H   0  0  0  0  0  0  0  0  0  0  0  0
   -1.5363    3.6095    0.8279 H   0  0  0  0  0  0  0  0  0  0  0  0
   -1.2030    0.0278   -0.1569 H   0  0  0  0  0  0  0  0  0  0  0  0
   -0.5194    1.5213   -0.8579 H   0  0  0  0  0  0  0  0  0  0  0  0
    0.0858    2.3642    1.3281 H   0  0  0  0  0  0  0  0  0  0  0  0
   -0.5818    0.9300    2.1714 H   0  0  0  0  0  0  0  0  0  0  0  0
    1.8265    0.6200    1.8733 H   0  0  0  0  0  0  0  0  0  0  0  0
    0.9231   -0.5927    0.8899 H   0  0  0  0  0  0  0  0  0  0  0  0
    2.1758    1.9919   -0.0903 H   0  0  0  0  0  0  0  0  0  0  0  0
    1.3102    0.7785   -1.1516 H   0  0  0  0  0  0  0  0  0  0  0  0
    7.2023    0.0164    0.8212 H   0  0  0  0  0  0  0  0  0  0  0  0
    8.4354   -1.9680    0.0452 H   0  0  0  0  0  0  0  0  0  0  0  0
    7.3203   -3.6568   -1.2449 H   0  0  0  0  0  0  0  0  0  0  0  0
    4.8997   -3.3993   -1.8041 H   0  0  0  0  0  0  0  0  0  0  0  0
   -3.2891    1.5203    1.9963 H   0  0  0  0  0  0  0  0  0  0  0  0
   -4.3099    1.4733    0.5361 H   0  0  0  0  0  0  0  0  0  0  0  0
   -2.3326   -0.5971    2.7536 H   0  0  0  0  0  0  0  0  0  0  0  0
   -2.2418   -3.0580    2.4847 H   0  0  0  0  0  0  0  0  0  0  0  0
   -3.0620   -4.1491    0.4433 H   0  0  0  0  0  0  0  0  0  0  0  0
   -3.9948   -2.7377   -1.3743 H   0  0  0  0  0  0  0  0  0  0  0  0
   -5.4020   -1.5139   -2.2101 H   0  0  0  0  0  0  0  0  0  0  0  0
   -5.2078    0.0230   -3.1427 H   0  0  0  0  0  0  0  0  0  0  0  0
   -3.8829   -1.1971   -3.0812 H   0  0  0  0  0  0  0  0  0  0  0  0
  1  2  1  0
  2  3  1  0
  3  4  1  0
  4  5  1  0
  5  6  1  0
  6  7  1  0
  7  8  1  0
  8  9  1  0
  9 10  2  0
  9 11  1  0
 11 12  2  0
 12 13  1  0
 13 14  2  0
 14 15  1  0
 15 16  2  0
 16 17  1  0
 17 18  2  0
  3 19  1  0
 19 20  1  0
 20 21  2  0
 21 22  1  0
 22 23  2  0
 23 24  1  0
 24 25  2  0
 25 26  1  0
 26 27  1  0
 17  8  1  0
 25 20  1  0
 16 11  1  0
  1 28  1  0
  1 29  1  0
  1 30  1  0
  2 31  1  0
  2 32  1  0
  4 33  1  0
  4 34  1  0
  5 35  1  0
  5 36  1  0
  6 37  1  0
  6 38  1  0
  7 39  1  0
  7 40  1  0
 12 41  1  0
 13 42  1  0
 14 43  1  0
 15 44  1  0
 19 45  1  0
 19 46  1  0
 21 47  1  0
 22 48  1  0
 23 49  1  0
 24 50  1  0
 27 51  1  0
 27 52  1  0
 27 53  1  0
M  END
$$$$
