
     RDKit          3D

 85 88  0  0  0  0  0  0  0  0999 V2000
   -3.3514    0.5991   -1.8653 C   0  0  2  0  0  0  0  0  0  0  0  0
   -4.1752    0.3985   -3.1140 C   0  0  0  0  0  0  0  0  0  0  0  0
   -3.8167    1.5386   -4.0611 C   0  0  0  0  0  0  0  0  0  0  0  0
   -2.3766    1.3961   -4.4521 C   0  0  0  0  0  0  0  0  0  0  0  0
   -1.6730    0.2990   -3.7016 C   0  0  0  0  0  0  0  0  0  0  0  0
   -1.8956    0.3783   -2.2115 C   0  0  2  0  0  0  0  0  0  0  0  0
   -1.3704   -0.9109   -1.6212 C   0  0  0  0  0  0  0  0  0  0  0  0
   -1.4672   -0.9509   -0.1980 N   0  0  0  0  0  0  0  0  0  0  0  0
   -0.2465   -0.8308    0.5087 C   0  0  0  0  0  0  0  0  0  0  0  0
    0.4442    0.4879    0.4472 C   0  0  1  0  0  0  0  0  0  0  0  0
   -0.2820    1.5280    0.9747 O   0  0  0  0  0  0  0  0  0  0  0  0
    1.7957    0.4338    1.1015 C   0  0  2  0  0  0  0  0  0  0  0  0
    2.4923    1.7935    1.0450 C   0  0  0  0  0  0  0  0  0  0  0  0
    2.7495    2.3742   -0.6189 S   0  0  0  0  0  0  0  0  0  0  0  0
    3.6354    3.9129   -0.5915 C   0  0  0  0  0  0  0  0  0  0  0  0
    3.9253    4.5326   -1.8131 C   0  0  0  0  0  0  0  0  0  0  0  0
    4.6204    5.7016   -1.7710 C   0  0  0  0  0  0  0  0  0  0  0  0
    5.0499    6.3010   -0.5951 C   0  0  0  0  0  0  0  0  0  0  0  0
    4.7692    5.7012    0.5917 C   0  0  0  0  0  0  0  0  0  0  0  0
    4.0663    4.5171    0.5801 C   0  0  0  0  0  0  0  0  0  0  0  0
    2.6306   -0.6072    0.6130 N   0  0  0  0  0  0  0  0  0  0  0  0
    3.3819   -1.6035    1.2452 C   0  0  0  0  0  0  0  0  0  0  0  0
    3.0969   -1.3053    2.4628 O   0  0  0  0  0  0  0  0  0  0  0  0
    4.2498   -2.6954    0.9147 C   0  0  0  0  0  0  0  0  0  0  0  0
    4.6293   -3.2037   -0.2991 C   0  0  0  0  0  0  0  0  0  0  0  0
    4.0786   -2.5657   -1.5060 C   0  0  0  0  0  0  0  0  0  0  0  0
    5.4801   -4.2620   -0.4907 C   0  0  0  0  0  0  0  0  0  0  0  0
    5.8102   -4.7106   -1.7566 O   0  0  0  0  0  0  0  0  0  0  0  0
    5.9738   -4.8370    0.6387 C   0  0  0  0  0  0  0  0  0  0  0  0
    5.6393   -4.3833    1.8894 C   0  0  0  0  0  0  0  0  0  0  0  0
    4.7844   -3.3220    2.0138 C   0  0  0  0  0  0  0  0  0  0  0  0
   -2.6015   -0.2639    0.2784 C   0  0  1  0  0  0  0  0  0  0  0  0
   -3.7047   -0.3617   -0.7753 C   0  0  0  0  0  0  0  0  0  0  0  0
   -3.2208   -0.8448    1.5151 C   0  0  0  0  0  0  0  0  0  0  0  0
   -2.6346   -1.8727    1.9669 O   0  0  0  0  0  0  0  0  0  0  0  0
   -4.3761   -0.1977    2.0414 N   0  0  0  0  0  0  0  0  0  0  0  0
   -4.8537   -0.8788    3.2297 C   0  0  0  0  0  0  0  0  0  0  0  0
   -5.2222   -2.3252    2.9338 C   0  0  0  0  0  0  0  0  0  0  0  0
   -6.1079   -0.1857    3.7014 C   0  0  0  0  0  0  0  0  0  0  0  0
   -3.8555   -0.8859    4.3510 C   0  0  0  0  0  0  0  0  0  0  0  0
   -3.5617    1.6261   -1.4988 H   0  0  0  0  0  0  0  0  0  0  0  0
   -5.2446    0.4226   -2.8777 H   0  0  0  0  0  0  0  0  0  0  0  0
   -3.8803   -0.5914   -3.5548 H   0  0  0  0  0  0  0  0  0  0  0  0
   -4.4983    1.6047   -4.9327 H   0  0  0  0  0  0  0  0  0  0  0  0
   -3.9337    2.4784   -3.4847 H   0  0  0  0  0  0  0  0  0  0  0  0
   -2.3632    1.1169   -5.5279 H   0  0  0  0  0  0  0  0  0  0  0  0
   -1.8215    2.3514   -4.3841 H   0  0  0  0  0  0  0  0  0  0  0  0
   -0.5627    0.4644   -3.8457 H   0  0  0  0  0  0  0  0  0  0  0  0
   -1.8797   -0.6848   -4.1303 H   0  0  0  0  0  0  0  0  0  0  0  0
   -1.3503    1.2421   -1.7892 H   0  0  0  0  0  0  0  0  0  0  0  0
   -0.3577   -1.0579   -2.0180 H   0  0  0  0  0  0  0  0  0  0  0  0
   -1.9821   -1.7349   -2.0343 H   0  0  0  0  0  0  0  0  0  0  0  0
   -0.3643   -1.1142    1.5782 H   0  0  0  0  0  0  0  0  0  0  0  0
    0.4750   -1.5786    0.0741 H   0  0  0  0  0  0  0  0  0  0  0  0
    0.6614    0.6434   -0.6472 H   0  0  0  0  0  0  0  0  0  0  0  0
   -0.4200    2.3020    0.3798 H   0  0  0  0  0  0  0  0  0  0  0  0
    1.6416    0.2986    2.1886 H   0  0  0  0  0  0  0  0  0  0  0  0
    3.4181    1.6704    1.6122 H   0  0  0  0  0  0  0  0  0  0  0  0
    1.8468    2.5039    1.5975 H   0  0  0  0  0  0  0  0  0  0  0  0
    3.6193    4.1157   -2.7635 H   0  0  0  0  0  0  0  0  0  0  0  0
    4.8843    6.2408   -2.6653 H   0  0  0  0  0  0  0  0  0  0  0  0
    5.6089    7.2298   -0.5000 H   0  0  0  0  0  0  0  0  0  0  0  0
    5.0203    6.0114    1.6022 H   0  0  0  0  0  0  0  0  0  0  0  0
    3.7891    3.9503    1.4750 H   0  0  0  0  0  0  0  0  0  0  0  0
    2.7078   -0.6471   -0.4205 H   0  0  0  0  0  0  0  0  0  0  0  0
    4.4360   -3.1209   -2.4156 H   0  0  0  0  0  0  0  0  0  0  0  0
    2.9770   -2.6309   -1.4493 H   0  0  0  0  0  0  0  0  0  0  0  0
    4.4421   -1.5231   -1.5550 H   0  0  0  0  0  0  0  0  0  0  0  0
    5.1828   -5.1872   -2.3908 H   0  0  0  0  0  0  0  0  0  0  0  0
    6.6486   -5.6745    0.5850 H   0  0  0  0  0  0  0  0  0  0  0  0
    6.0522   -4.8707    2.7566 H   0  0  0  0  0  0  0  0  0  0  0  0
    4.5811   -3.0348    3.0446 H   0  0  0  0  0  0  0  0  0  0  0  0
   -2.4045    0.8008    0.4277 H   0  0  0  0  0  0  0  0  0  0  0  0
   -3.7738   -1.3926   -1.1737 H   0  0  0  0  0  0  0  0  0  0  0  0
   -4.6814   -0.0596   -0.3410 H   0  0  0  0  0  0  0  0  0  0  0  0
   -4.7434    0.6602    1.5451 H   0  0  0  0  0  0  0  0  0  0  0  0
   -6.0468   -2.5953    3.6228 H   0  0  0  0  0  0  0  0  0  0  0  0
   -4.3714   -3.0039    3.1312 H   0  0  0  0  0  0  0  0  0  0  0  0
   -5.6264   -2.4291    1.9000 H   0  0  0  0  0  0  0  0  0  0  0  0
   -6.6624   -0.7437    4.4608 H   0  0  0  0  0  0  0  0  0  0  0  0
   -5.8904    0.8529    4.0346 H   0  0  0  0  0  0  0  0  0  0  0  0
   -6.7550   -0.0343    2.7848 H   0  0  0  0  0  0  0  0  0  0  0  0
   -3.3166   -1.8711    4.3559 H   0  0  0  0  0  0  0  0  0  0  0  0
   -4.4299   -0.8531    5.3079 H   0  0  0  0  0  0  0  0  0  0  0  0
   -3.1415   -0.0416    4.3333 H   0  0  0  0  0  0  0  0  0  0  0  0
  1  2  1  0
  2  3  1  0
  3  4  1  0
  4  5  1  0
  5  6  1  0
  6  7  1  0
  7  8  1  0
  8  9  1  0
  9 10  1  0
 10 11  1  0
 10 12  1  0
 12 13  1  0
 13 14  1  0
 14 15  1  0
 15 16  2  0
 16 17  1  0
 17 18  2  0
 18 19  1  0
 19 20  2  0
 12 21  1  0
 21 22  1  0
 22 23  2  0
 22 24  1  0
 24 25  2  0
 25 26  1  0
 25 27  1  0
 27 28  1  0
 27 29  2  0
 29 30  1  0
 30 31  2  0
  8 32  1  0
 32 33  1  0
 32 34  1  0
 34 35  2  0
 34 36  1  0
 36 37  1  0
 37 38  1  0
 37 39  1  0
 37 40  1  0
  6  1  1  0
 20 15  1  0
 31 24  1  0
 33  1  1  0
  1 41  1  1
  2 42  1  0
  2 43  1  0
  3 44  1  0
  3 45  1  0
  4 46  1  0
  4 47  1  0
  5 48  1  0
  5 49  1  0
  6 50  1  1
  7 51  1  0
  7 52  1  0
  9 53  1  0
  9 54  1  0
 10 55  1  6
 11 56  1  0
 12 57  1  1
 13 58  1  0
 13 59  1  0
 16 60  1  0
 17 61  1  0
 18 62  1  0
 19 63  1  0
 20 64  1  0
 21 65  1  0
 26 66  1  0
 26 67  1  0
 26 68  1  0
 28 69  1  0
 29 70  1  0
 30 71  1  0
 31 72  1  0
 32 73  1  1
 33 74  1  0
 33 75  1  0
 36 76  1  0
 38 77  1  0
 38 78  1  0
 38 79  1  0
 39 80  1  0
 39 81  1  0
 39 82  1  0
 40 83  1  0
 40 84  1  0
 40 85  1  0
M  END
$$$$
