
     RDKit          3D

 42 42  0  0  0  0  0  0  0  0999 V2000
    4.8178    0.9689    1.6965 C   0  0  0  0  0  0  0  0  0  0  0  0
    4.4621    1.2513    0.2753 C   0  0  0  0  0  0  0  0  0  0  0  0
    3.4829    0.4056   -0.3143 N   0  0  0  0  0  0  0  0  0  0  0  0
    3.8610   -0.9315   -0.5173 C   0  0  0  0  0  0  0  0  0  0  0  0
    4.9549   -1.0144   -1.5969 C   0  0  0  0  0  0  0  0  0  0  0  0
    2.1799    0.6808    0.1310 C   0  0  0  0  0  0  0  0  0  0  0  0
    1.1429   -0.1720   -0.5184 C   0  0  0  0  0  0  0  0  0  0  0  0
   -0.2027    0.1649   -0.0574 N   0  0  0  0  0  0  0  0  0  0  0  0
   -1.2010   -0.6014   -0.6917 C   0  0  0  0  0  0  0  0  0  0  0  0
   -0.6630   -1.4014   -1.5154 O   0  0  0  0  0  0  0  0  0  0  0  0
   -2.6390   -0.5718   -0.5163 C   0  0  0  0  0  0  0  0  0  0  0  0
   -3.3821   -1.4216   -1.3142 C   0  0  0  0  0  0  0  0  0  0  0  0
   -4.7391   -1.4866   -1.2701 C   0  0  0  0  0  0  0  0  0  0  0  0
   -5.6062   -2.5936   -2.3144 Cl  0  0  0  0  0  0  0  0  0  0  0  0
   -5.4196   -0.6741   -0.3959 C   0  0  0  0  0  0  0  0  0  0  0  0
   -6.8444   -0.7105   -0.3166 N   0  0  0  0  0  0  0  0  0  0  0  0
   -4.7577    0.2018    0.4341 C   0  0  0  0  0  0  0  0  0  0  0  0
   -3.3878    0.2091    0.3325 C   0  0  0  0  0  0  0  0  0  0  0  0
   -2.6839    1.0725    1.1503 O   0  0  0  0  0  0  0  0  0  0  0  0
   -3.2671    1.9411    2.0821 C   0  0  0  0  0  0  0  0  0  0  0  0
    5.8947    1.2890    1.8116 H   0  0  0  0  0  0  0  0  0  0  0  0
    4.1982    1.5683    2.4241 H   0  0  0  0  0  0  0  0  0  0  0  0
    4.7951   -0.0703    2.0166 H   0  0  0  0  0  0  0  0  0  0  0  0
    3.9976    2.2876    0.2834 H   0  0  0  0  0  0  0  0  0  0  0  0
    5.3659    1.3985   -0.3776 H   0  0  0  0  0  0  0  0  0  0  0  0
    3.0306   -1.5094   -0.9601 H   0  0  0  0  0  0  0  0  0  0  0  0
    4.1717   -1.4859    0.3868 H   0  0  0  0  0  0  0  0  0  0  0  0
    4.4626   -0.8283   -2.5795 H   0  0  0  0  0  0  0  0  0  0  0  0
    5.3062   -2.0672   -1.5867 H   0  0  0  0  0  0  0  0  0  0  0  0
    5.7479   -0.3000   -1.3971 H   0  0  0  0  0  0  0  0  0  0  0  0
    2.0550    0.6860    1.2390 H   0  0  0  0  0  0  0  0  0  0  0  0
    1.9663    1.7616   -0.1486 H   0  0  0  0  0  0  0  0  0  0  0  0
    1.1944   -0.0731   -1.6162 H   0  0  0  0  0  0  0  0  0  0  0  0
    1.2877   -1.2458   -0.2554 H   0  0  0  0  0  0  0  0  0  0  0  0
   -0.5130    0.8647    0.6446 H   0  0  0  0  0  0  0  0  0  0  0  0
   -2.8874   -2.0936   -2.0360 H   0  0  0  0  0  0  0  0  0  0  0  0
   -7.5331   -1.1615    0.3479 H   0  0  0  0  0  0  0  0  0  0  0  0
   -7.1189   -0.1331   -1.1384 H   0  0  0  0  0  0  0  0  0  0  0  0
   -5.2733    0.8475    1.1235 H   0  0  0  0  0  0  0  0  0  0  0  0
   -4.0294    1.3659    2.6583 H   0  0  0  0  0  0  0  0  0  0  0  0
   -2.4486    2.3089    2.7514 H   0  0  0  0  0  0  0  0  0  0  0  0
   -3.7780    2.8213    1.6455 H   0  0  0  0  0  0  0  0  0  0  0  0
  1  2  1  0
  2  3  1  0
  3  4  1  0
  4  5  1  0
  3  6  1  0
  6  7  1  0
  7  8  1  0
  8  9  1  0
  9 10  2  0
  9 11  1  0
 11 12  2  0
 12 13  1  0
 13 14  1  0
 13 15  2  0
 15 16  1  0
 15 17  1  0
 17 18  2  0
 18 19  1  0
 19 20  1  0
 18 11  1  0
  1 21  1  0
  1 22  1  0
  1 23  1  0
  2 24  1  0
  2 25  1  0
  4 26  1  0
  4 27  1  0
  5 28  1  0
  5 29  1  0
  5 30  1  0
  6 31  1  0
  6 32  1  0
  7 33  1  0
  7 34  1  0
  8 35  1  0
 12 36  1  0
 16 37  1  0
 16 38  1  0
 17 39  1  0
 20 40  1  0
 20 41  1  0
 20 42  1  0
M  END
$$$$
