
     RDKit          3D

 50 49  0  0  0  0  0  0  0  0999 V2000
   -3.1949    2.0362   -0.1022 C   0  0  1  0  0  0  0  0  0  0  0  0
   -3.9676    2.7047    0.8417 O   0  0  0  0  0  0  0  0  0  0  0  0
   -2.0682    2.8959   -0.5985 C   0  0  0  0  0  0  0  0  0  0  0  0
   -2.6021    4.1338   -1.2335 C   0  0  0  0  0  0  0  0  0  0  0  0
   -3.9048    4.6167   -1.4411 O   0  0  0  0  0  0  0  0  0  0  0  0
   -1.7846    4.9631   -1.7019 O   0  0  0  0  0  0  0  0  0  0  0  0
   -2.6319    0.8104    0.5210 C   0  0  0  0  0  0  0  0  0  0  0  0
   -3.0820    0.8469    1.6962 O   0  0  0  0  0  0  0  0  0  0  0  0
   -1.7949   -0.0724   -0.2192 N   0  0  0  0  0  0  0  0  0  0  0  0
   -1.2509   -1.2550    0.3797 C   0  0  1  0  0  0  0  0  0  0  0  0
   -1.8602   -2.4578   -0.2970 C   0  0  0  0  0  0  0  0  0  0  0  0
   -1.3298   -3.7516    0.2859 C   0  0  0  0  0  0  0  0  0  0  0  0
   -1.6742   -3.7943    1.7753 C   0  0  0  0  0  0  0  0  0  0  0  0
   -2.0329   -4.9394   -0.3330 C   0  0  0  0  0  0  0  0  0  0  0  0
    0.2053   -1.3145    0.4711 C   0  0  0  0  0  0  0  0  0  0  0  0
    1.1301   -2.0927    0.8902 O   0  0  0  0  0  0  0  0  0  0  0  0
    0.8946   -0.1638   -0.0606 N   0  0  0  0  0  0  0  0  0  0  0  0
    2.3635   -0.1859    0.0131 C   0  0  0  0  0  0  0  0  0  0  0  0
    2.9607    1.0614   -0.5698 C   0  0  0  0  0  0  0  0  0  0  0  0
    4.4731    1.0625   -0.5056 C   0  0  0  0  0  0  0  0  0  0  0  0
    5.0470    2.3321   -1.1004 C   0  0  0  0  0  0  0  0  0  0  0  0
    4.9716    0.9979    0.9277 C   0  0  0  0  0  0  0  0  0  0  0  0
   -3.8610    1.7496   -0.9347 H   0  0  0  0  0  0  0  0  0  0  0  0
   -4.8458    2.2943    0.9726 H   0  0  0  0  0  0  0  0  0  0  0  0
   -1.4857    2.3250   -1.3379 H   0  0  0  0  0  0  0  0  0  0  0  0
   -1.4594    3.1912    0.2631 H   0  0  0  0  0  0  0  0  0  0  0  0
   -4.1995    5.4830   -0.9695 H   0  0  0  0  0  0  0  0  0  0  0  0
   -1.6177    0.2099   -1.2081 H   0  0  0  0  0  0  0  0  0  0  0  0
   -1.6352   -1.2577    1.4421 H   0  0  0  0  0  0  0  0  0  0  0  0
   -1.6435   -2.4661   -1.3854 H   0  0  0  0  0  0  0  0  0  0  0  0
   -2.9636   -2.4734   -0.1912 H   0  0  0  0  0  0  0  0  0  0  0  0
   -0.2473   -3.8053    0.0984 H   0  0  0  0  0  0  0  0  0  0  0  0
   -2.6215   -3.2249    1.9407 H   0  0  0  0  0  0  0  0  0  0  0  0
   -1.8440   -4.8421    2.0998 H   0  0  0  0  0  0  0  0  0  0  0  0
   -0.8698   -3.3480    2.3631 H   0  0  0  0  0  0  0  0  0  0  0  0
   -1.7038   -5.1612   -1.3563 H   0  0  0  0  0  0  0  0  0  0  0  0
   -3.1246   -4.6822   -0.4027 H   0  0  0  0  0  0  0  0  0  0  0  0
   -1.9781   -5.8373    0.3220 H   0  0  0  0  0  0  0  0  0  0  0  0
    0.4562    0.7003   -0.5007 H   0  0  0  0  0  0  0  0  0  0  0  0
    2.6842   -0.3868    1.0558 H   0  0  0  0  0  0  0  0  0  0  0  0
    2.6577   -1.0834   -0.5689 H   0  0  0  0  0  0  0  0  0  0  0  0
    2.5957    1.9494   -0.0560 H   0  0  0  0  0  0  0  0  0  0  0  0
    2.6863    1.0939   -1.6394 H   0  0  0  0  0  0  0  0  0  0  0  0
    4.9293    0.2086   -1.0483 H   0  0  0  0  0  0  0  0  0  0  0  0
    5.2917    3.0904   -0.3135 H   0  0  0  0  0  0  0  0  0  0  0  0
    6.0390    2.1127   -1.5827 H   0  0  0  0  0  0  0  0  0  0  0  0
    4.3939    2.7220   -1.8956 H   0  0  0  0  0  0  0  0  0  0  0  0
    4.6110    0.1316    1.4871 H   0  0  0  0  0  0  0  0  0  0  0  0
    4.7971    1.9777    1.4121 H   0  0  0  0  0  0  0  0  0  0  0  0
    6.0916    0.8947    0.8407 H   0  0  0  0  0  0  0  0  0  0  0  0
  1  2  1  0
  1  3  1  0
  3  4  1  0
  4  5  1  0
  4  6  2  0
  1  7  1  0
  7  8  2  0
  7  9  1  0
  9 10  1  0
 10 11  1  0
 11 12  1  0
 12 13  1  0
 12 14  1  0
 10 15  1  0
 15 16  2  0
 15 17  1  0
 17 18  1  0
 18 19  1  0
 19 20  1  0
 20 21  1  0
 20 22  1  0
  1 23  1  6
  2 24  1  0
  3 25  1  0
  3 26  1  0
  5 27  1  0
  9 28  1  0
 10 29  1  1
 11 30  1  0
 11 31  1  0
 12 32  1  0
 13 33  1  0
 13 34  1  0
 13 35  1  0
 14 36  1  0
 14 37  1  0
 14 38  1  0
 17 39  1  0
 18 40  1  0
 18 41  1  0
 19 42  1  0
 19 43  1  0
 20 44  1  0
 21 45  1  0
 21 46  1  0
 21 47  1  0
 22 48  1  0
 22 49  1  0
 22 50  1  0
M  END
$$$$
