
     RDKit          3D

 35 38  0  0  0  0  0  0  0  0999 V2000
    0.7413    0.7032   -2.0972 O   0  0  0  0  0  0  0  0  0  0  0  0
    1.6756    0.4934   -1.2885 C   0  0  0  0  0  0  0  0  0  0  0  0
    2.9201    0.6539   -1.7090 O   0  0  0  0  0  0  0  0  0  0  0  0
    3.9664    0.4680   -0.9705 C   0  0  0  0  0  0  0  0  0  0  0  0
    5.2215    0.6568   -1.4863 C   0  0  0  0  0  0  0  0  0  0  0  0
    6.3275    0.4606   -0.7065 C   0  0  0  0  0  0  0  0  0  0  0  0
    6.1183    0.0666    0.6137 C   0  0  0  0  0  0  0  0  0  0  0  0
    4.8558   -0.1235    1.1333 C   0  0  0  0  0  0  0  0  0  0  0  0
    3.7410    0.0745    0.3466 C   0  0  0  0  0  0  0  0  0  0  0  0
    2.4639   -0.1052    0.8295 C   0  0  0  0  0  0  0  0  0  0  0  0
    1.3706    0.1090   -0.0103 C   0  0  0  0  0  0  0  0  0  0  0  0
    0.0142   -0.0774    0.4871 C   0  0  0  0  0  0  0  0  0  0  0  0
   -1.1791    0.0802   -0.1705 C   0  0  0  0  0  0  0  0  0  0  0  0
   -2.2311   -0.1888    0.6389 N   0  0  0  0  0  0  0  0  0  0  0  0
   -3.6212   -0.1405    0.3339 C   0  0  0  0  0  0  0  0  0  0  0  0
   -4.3912    0.9582    0.5928 C   0  0  0  0  0  0  0  0  0  0  0  0
   -5.7310    0.9566    0.2795 C   0  0  0  0  0  0  0  0  0  0  0  0
   -6.2996   -0.1637   -0.3002 C   0  0  0  0  0  0  0  0  0  0  0  0
   -5.5364   -1.2690   -0.5633 C   0  0  0  0  0  0  0  0  0  0  0  0
   -4.2021   -1.2424   -0.2414 C   0  0  0  0  0  0  0  0  0  0  0  0
   -1.6832   -0.5210    1.8258 C   0  0  0  0  0  0  0  0  0  0  0  0
   -2.5939   -0.9338    3.1391 S   0  0  0  0  0  0  0  0  0  0  0  0
   -0.3447   -0.4582    1.7472 N   0  0  0  0  0  0  0  0  0  0  0  0
    5.3167    0.9675   -2.5345 H   0  0  0  0  0  0  0  0  0  0  0  0
    7.3348    0.6050   -1.0964 H   0  0  0  0  0  0  0  0  0  0  0  0
    6.9870   -0.0868    1.2239 H   0  0  0  0  0  0  0  0  0  0  0  0
    4.7190   -0.4287    2.1587 H   0  0  0  0  0  0  0  0  0  0  0  0
    2.3025   -0.4107    1.8531 H   0  0  0  0  0  0  0  0  0  0  0  0
   -1.3342    0.3768   -1.1962 H   0  0  0  0  0  0  0  0  0  0  0  0
   -3.9296    1.8326    1.0494 H   0  0  0  0  0  0  0  0  0  0  0  0
   -6.3489    1.8414    0.4886 H   0  0  0  0  0  0  0  0  0  0  0  0
   -7.3507   -0.2069   -0.5626 H   0  0  0  0  0  0  0  0  0  0  0  0
   -5.9973   -2.1506   -1.0227 H   0  0  0  0  0  0  0  0  0  0  0  0
   -3.6370   -2.1363   -0.4663 H   0  0  0  0  0  0  0  0  0  0  0  0
    0.3349   -0.6609    2.5062 H   0  0  0  0  0  0  0  0  0  0  0  0
  1  2  2  0
  2  3  1  0
  3  4  1  0
  4  5  2  0
  5  6  1  0
  6  7  2  0
  7  8  1  0
  8  9  2  0
  9 10  1  0
 10 11  2  0
 11 12  1  0
 12 13  2  0
 13 14  1  0
 14 15  1  0
 15 16  2  0
 16 17  1  0
 17 18  2  0
 18 19  1  0
 19 20  2  0
 14 21  1  0
 21 22  2  0
 21 23  1  0
 11  2  1  0
 23 12  1  0
  9  4  1  0
 20 15  1  0
  5 24  1  0
  6 25  1  0
  7 26  1  0
  8 27  1  0
 10 28  1  0
 13 29  1  0
 16 30  1  0
 17 31  1  0
 18 32  1  0
 19 33  1  0
 20 34  1  0
 23 35  1  0
M  END
$$$$
