
     RDKit          3D

 36 39  0  0  0  0  0  0  0  0999 V2000
    2.9213   -1.6020    1.8484 Cl  0  0  0  0  0  0  0  0  0  0  0  0
    3.9053   -0.4892    0.9268 C   0  0  0  0  0  0  0  0  0  0  0  0
    3.4128   -0.3320   -0.3497 C   0  0  0  0  0  0  0  0  0  0  0  0
    2.3068   -0.8492   -1.0790 N   0  0  0  0  0  0  0  0  0  0  0  0
    0.9536   -0.6816   -0.7364 C   0  0  0  0  0  0  0  0  0  0  0  0
    0.5233    0.5771   -0.9605 N   0  0  0  0  0  0  0  0  0  0  0  0
   -0.7733    0.9095   -0.6959 C   0  0  0  0  0  0  0  0  0  0  0  0
   -1.6732   -0.0411   -0.1927 C   0  0  0  0  0  0  0  0  0  0  0  0
   -1.1906   -1.2751    0.0097 N   0  0  0  0  0  0  0  0  0  0  0  0
   -1.7877   -2.3833    0.4703 C   0  0  0  0  0  0  0  0  0  0  0  0
   -0.9210   -3.3862    0.5030 N   0  0  0  0  0  0  0  0  0  0  0  0
    0.2654   -2.9467    0.0618 C   0  0  0  0  0  0  0  0  0  0  0  0
    0.0748   -1.6196   -0.2425 C   0  0  0  0  0  0  0  0  0  0  0  0
   -3.0052    0.4343    0.0398 C   0  0  0  0  0  0  0  0  0  0  0  0
   -4.1941   -0.1652   -0.3128 C   0  0  0  0  0  0  0  0  0  0  0  0
   -5.4429    0.3645   -0.0597 C   0  0  0  0  0  0  0  0  0  0  0  0
   -5.5446    1.5796    0.5908 C   0  0  0  0  0  0  0  0  0  0  0  0
   -4.3774    2.2195    0.9643 C   0  0  0  0  0  0  0  0  0  0  0  0
   -3.1178    1.6700    0.7016 C   0  0  0  0  0  0  0  0  0  0  0  0
    4.0994    0.5352   -1.2207 C   0  0  0  0  0  0  0  0  0  0  0  0
    5.2446    1.2220   -0.8149 C   0  0  0  0  0  0  0  0  0  0  0  0
    5.6955    1.0308    0.4716 C   0  0  0  0  0  0  0  0  0  0  0  0
    5.0254    0.1873    1.3112 C   0  0  0  0  0  0  0  0  0  0  0  0
    2.4264   -1.4202   -1.9569 H   0  0  0  0  0  0  0  0  0  0  0  0
   -1.0959    1.9458   -0.8904 H   0  0  0  0  0  0  0  0  0  0  0  0
   -2.8437   -2.4184    0.7679 H   0  0  0  0  0  0  0  0  0  0  0  0
    1.2195   -3.4578   -0.0579 H   0  0  0  0  0  0  0  0  0  0  0  0
   -4.1044   -1.1201   -0.8211 H   0  0  0  0  0  0  0  0  0  0  0  0
   -6.3170   -0.1717   -0.3710 H   0  0  0  0  0  0  0  0  0  0  0  0
   -6.4741    2.0461    0.8161 H   0  0  0  0  0  0  0  0  0  0  0  0
   -4.4652    3.1895    1.4820 H   0  0  0  0  0  0  0  0  0  0  0  0
   -2.2813    2.2882    1.0563 H   0  0  0  0  0  0  0  0  0  0  0  0
    3.8724    0.7942   -2.2662 H   0  0  0  0  0  0  0  0  0  0  0  0
    5.8181    1.8929   -1.4132 H   0  0  0  0  0  0  0  0  0  0  0  0
    6.5592    1.5165    0.8537 H   0  0  0  0  0  0  0  0  0  0  0  0
    5.2853   -0.0440    2.3532 H   0  0  0  0  0  0  0  0  0  0  0  0
  1  2  1  0
  2  3  2  0
  3  4  1  0
  4  5  1  0
  5  6  2  0
  6  7  1  0
  7  8  2  0
  8  9  1  0
  9 10  1  0
 10 11  2  0
 11 12  1  0
 12 13  2  0
  8 14  1  0
 14 15  2  0
 15 16  1  0
 16 17  2  0
 17 18  1  0
 18 19  2  0
  3 20  1  0
 20 21  2  0
 21 22  1  0
 22 23  2  0
 23  2  1  0
 13  5  1  0
 19 14  1  0
 13  9  1  0
  4 24  1  0
  7 25  1  0
 10 26  1  0
 12 27  1  0
 15 28  1  0
 16 29  1  0
 17 30  1  0
 18 31  1  0
 19 32  1  0
 20 33  1  0
 21 34  1  0
 22 35  1  0
 23 36  1  0
M  END
$$$$
