
     RDKit          3D

 75 80  0  0  0  0  0  0  0  0999 V2000
   -0.6883    7.3233    1.6103 C   0  0  0  0  0  0  0  0  0  0  0  0
   -0.7676    7.1798    0.1307 N   0  0  0  0  0  0  0  0  0  0  0  0
   -2.0706    6.5542   -0.0722 C   0  0  1  0  0  0  0  0  0  0  0  0
   -2.4586    6.7754   -1.5554 C   0  0  0  0  0  0  0  0  0  0  0  0
   -2.0386    5.0593    0.0422 C   0  0  0  0  0  0  0  0  0  0  0  0
   -3.2180    4.5297   -0.2217 O   0  0  0  0  0  0  0  0  0  0  0  0
   -0.9606    4.2548    0.3722 N   0  0  0  0  0  0  0  0  0  0  0  0
   -1.1903    2.8278    0.3469 C   0  0  0  0  0  0  0  0  0  0  0  0
   -2.3900    2.1793    0.3489 C   0  0  0  0  0  0  0  0  0  0  0  0
   -2.4635    0.8300    0.1076 C   0  0  0  0  0  0  0  0  0  0  0  0
   -1.3604    0.0598   -0.1436 C   0  0  0  0  0  0  0  0  0  0  0  0
   -1.6523   -1.2674   -0.6181 C   0  0  0  0  0  0  0  0  0  0  0  0
   -2.4156   -2.1841   -0.0097 C   0  0  0  0  0  0  0  0  0  0  0  0
   -2.9756   -2.4015    1.3111 C   0  0  0  0  0  0  0  0  0  0  0  0
   -3.1194   -3.7041    1.7107 C   0  0  0  0  0  0  0  0  0  0  0  0
   -3.6070   -4.2584    2.7428 C   0  0  0  0  0  0  0  0  0  0  0  0
   -4.1816   -3.1439    3.8419 C   0  0  0  0  0  0  0  0  0  0  0  0
   -4.5168   -4.0902    4.7060 O   0  0  0  0  0  0  0  0  0  0  0  0
   -4.9056   -4.7916    5.6596 C   0  0  0  0  0  0  0  0  0  0  0  0
   -4.0008   -2.0147    3.3632 N   0  0  0  0  0  0  0  0  0  0  0  0
   -3.4629   -1.5230    2.2301 C   0  0  0  0  0  0  0  0  0  0  0  0
   -2.6668   -3.1582   -1.0229 N   0  0  0  0  0  0  0  0  0  0  0  0
   -2.0813   -2.8087   -2.1390 C   0  0  0  0  0  0  0  0  0  0  0  0
   -2.2518   -3.4317   -3.3722 C   0  0  0  0  0  0  0  0  0  0  0  0
   -1.7099   -2.8298   -4.4888 C   0  0  0  0  0  0  0  0  0  0  0  0
   -2.0808   -3.4033   -5.8182 C   0  0  0  0  0  0  0  0  0  0  0  0
   -0.9839   -1.6115   -4.3706 C   0  0  0  0  0  0  0  0  0  0  0  0
   -0.9316   -1.1408   -3.0458 C   0  0  0  0  0  0  0  0  0  0  0  0
   -1.4292   -1.6577   -1.9632 N   0  0  0  0  0  0  0  0  0  0  0  0
   -0.1984    0.6688   -0.1144 C   0  0  0  0  0  0  0  0  0  0  0  0
    1.1480    0.0374   -0.1059 C   0  0  0  0  0  0  0  0  0  0  0  0
    2.2175   -0.4788   -0.0832 C   0  0  0  0  0  0  0  0  0  0  0  0
    3.4488   -1.0630   -0.0427 C   0  0  0  0  0  0  0  0  0  0  0  0
    4.0424   -2.1183   -0.4723 C   0  0  0  0  0  0  0  0  0  0  0  0
    5.4161   -2.3972   -0.3864 C   0  0  0  0  0  0  0  0  0  0  0  0
    6.2790   -1.3887    0.2650 C   0  0  0  0  0  0  0  0  0  0  0  0
    7.6411   -1.7601    0.2193 C   0  0  0  0  0  0  0  0  0  0  0  0
    8.2968   -2.8298   -0.4751 C   0  0  0  0  0  0  0  0  0  0  0  0
    8.3784   -0.6950    0.8925 N   0  0  0  0  0  0  0  0  0  0  0  0
    7.8567    0.4130    1.4122 C   0  0  0  0  0  0  0  0  0  0  0  0
    6.5093    0.6320    1.3372 C   0  0  0  0  0  0  0  0  0  0  0  0
    5.7001   -0.3059    0.7373 C   0  0  0  0  0  0  0  0  0  0  0  0
    4.3803   -0.1231    0.6131 C   0  0  0  0  0  0  0  0  0  0  0  0
   -0.1323    2.0655    0.1232 N   0  0  0  0  0  0  0  0  0  0  0  0
    0.0592    8.0609    1.8393 H   0  0  0  0  0  0  0  0  0  0  0  0
   -0.5208    6.3429    2.0374 H   0  0  0  0  0  0  0  0  0  0  0  0
   -1.7077    7.7182    1.9520 H   0  0  0  0  0  0  0  0  0  0  0  0
   -0.8329    8.1529   -0.1960 H   0  0  0  0  0  0  0  0  0  0  0  0
   -2.8152    7.0100    0.5156 H   0  0  0  0  0  0  0  0  0  0  0  0
   -1.7647    6.1413   -2.1649 H   0  0  0  0  0  0  0  0  0  0  0  0
   -3.4968    6.4721   -1.7279 H   0  0  0  0  0  0  0  0  0  0  0  0
   -2.2924    7.8223   -1.8126 H   0  0  0  0  0  0  0  0  0  0  0  0
   -0.0222    4.6034    0.5099 H   0  0  0  0  0  0  0  0  0  0  0  0
   -3.2902    2.7294    0.5958 H   0  0  0  0  0  0  0  0  0  0  0  0
   -3.4279    0.3375    0.0117 H   0  0  0  0  0  0  0  0  0  0  0  0
   -2.6982   -4.4680    0.9182 H   0  0  0  0  0  0  0  0  0  0  0  0
   -3.9022   -5.2295    3.0668 H   0  0  0  0  0  0  0  0  0  0  0  0
   -4.8375   -4.5681    6.8010 H   0  0  0  0  0  0  0  0  0  0  0  0
   -5.8706   -5.4138    5.5201 H   0  0  0  0  0  0  0  0  0  0  0  0
   -4.1709   -5.8144    5.6600 H   0  0  0  0  0  0  0  0  0  0  0  0
   -3.4968   -0.4481    2.0720 H   0  0  0  0  0  0  0  0  0  0  0  0
   -2.7941   -4.3572   -3.4450 H   0  0  0  0  0  0  0  0  0  0  0  0
   -2.9709   -4.1404   -5.6247 H   0  0  0  0  0  0  0  0  0  0  0  0
   -1.3041   -3.9014   -6.3302 H   0  0  0  0  0  0  0  0  0  0  0  0
   -2.6923   -2.6185   -6.3670 H   0  0  0  0  0  0  0  0  0  0  0  0
   -0.5787   -1.1146   -5.1977 H   0  0  0  0  0  0  0  0  0  0  0  0
   -0.3964   -0.1940   -2.9371 H   0  0  0  0  0  0  0  0  0  0  0  0
    3.4897   -2.8807   -1.0145 H   0  0  0  0  0  0  0  0  0  0  0  0
    5.8694   -3.2740   -0.7484 H   0  0  0  0  0  0  0  0  0  0  0  0
    9.2102   -2.3303   -1.0072 H   0  0  0  0  0  0  0  0  0  0  0  0
    7.7075   -3.1281   -1.4048 H   0  0  0  0  0  0  0  0  0  0  0  0
    8.6114   -3.6474    0.1639 H   0  0  0  0  0  0  0  0  0  0  0  0
    8.5591    1.0862    1.8756 H   0  0  0  0  0  0  0  0  0  0  0  0
    6.0092    1.5144    1.7456 H   0  0  0  0  0  0  0  0  0  0  0  0
    3.9635    0.7274    1.0905 H   0  0  0  0  0  0  0  0  0  0  0  0
  1  2  1  0
  2  3  1  0
  3  4  1  0
  3  5  1  0
  5  6  2  0
  5  7  1  0
  7  8  1  0
  8  9  2  0
  9 10  1  0
 10 11  2  0
 11 12  1  0
 12 13  2  0
 13 14  1  0
 14 15  2  0
 15 16  1  0
 16 17  2  0
 17 18  1  0
 18 19  1  0
 17 20  1  0
 20 21  2  0
 13 22  1  0
 22 23  2  0
 23 24  1  0
 24 25  2  0
 25 26  1  0
 25 27  1  0
 27 28  2  0
 28 29  1  0
 11 30  1  0
 30 31  1  0
 31 32  3  0
 32 33  1  0
 33 34  2  0
 34 35  1  0
 35 36  2  0
 36 37  1  0
 37 38  1  0
 37 39  2  0
 39 40  1  0
 40 41  2  0
 41 42  1  0
 42 43  2  0
 30 44  2  0
 44  8  1  0
 29 12  1  0
 43 33  1  0
 21 14  1  0
 29 23  1  0
 42 36  1  0
  1 45  1  0
  1 46  1  0
  1 47  1  0
  2 48  1  0
  3 49  1  1
  4 50  1  0
  4 51  1  0
  4 52  1  0
  7 53  1  0
  9 54  1  0
 10 55  1  0
 15 56  1  0
 16 57  1  0
 19 58  1  0
 19 59  1  0
 19 60  1  0
 21 61  1  0
 24 62  1  0
 26 63  1  0
 26 64  1  0
 26 65  1  0
 27 66  1  0
 28 67  1  0
 34 68  1  0
 35 69  1  0
 38 70  1  0
 38 71  1  0
 38 72  1  0
 40 73  1  0
 41 74  1  0
 43 75  1  0
M  END
$$$$
