
     RDKit          3D

 47 47  0  0  0  0  0  0  0  0999 V2000
    2.9569    1.2784    2.6700 C   0  0  0  0  0  0  0  0  0  0  0  0
    2.6004    0.3268    1.5676 C   0  0  0  0  0  0  0  0  0  0  0  0
    2.1905   -1.0296    2.0721 C   0  0  0  0  0  0  0  0  0  0  0  0
    1.4475    0.8873    0.7095 C   0  0  0  0  0  0  0  0  0  0  0  0
    1.2033   -0.1499   -0.3324 C   0  0  2  0  0  0  0  0  0  0  0  0
    2.7842   -0.2916   -1.2734 S   0  0  0  0  0  0  0  0  0  0  0  0
    0.1353    0.1369   -1.3301 C   0  0  1  0  0  0  0  0  0  0  0  0
    0.0082   -0.9937   -2.2913 C   0  0  0  0  0  0  0  0  0  0  0  0
   -0.3502   -2.3101   -1.7494 C   0  0  0  0  0  0  0  0  0  0  0  0
    0.5758   -3.1966   -1.2427 C   0  0  0  0  0  0  0  0  0  0  0  0
    0.2224   -4.4570   -0.7504 C   0  0  0  0  0  0  0  0  0  0  0  0
   -1.0897   -4.8491   -0.7619 C   0  0  0  0  0  0  0  0  0  0  0  0
   -2.0394   -3.9872   -1.2624 C   0  0  0  0  0  0  0  0  0  0  0  0
   -1.6591   -2.7417   -1.7449 C   0  0  0  0  0  0  0  0  0  0  0  0
   -1.1077    0.6938   -0.8022 C   0  0  0  0  0  0  0  0  0  0  0  0
   -2.2156    0.0870   -0.7851 O   0  0  0  0  0  0  0  0  0  0  0  0
   -1.1903    2.0142   -0.2423 N   0  0  0  0  0  0  0  0  0  0  0  0
   -2.4217    2.5656    0.2831 C   0  0  1  0  0  0  0  0  0  0  0  0
   -2.3261    2.9069    1.7404 C   0  0  0  0  0  0  0  0  0  0  0  0
   -2.8419    3.7829   -0.4499 C   0  0  0  0  0  0  0  0  0  0  0  0
   -3.9030    4.3401   -0.0698 O   0  0  0  0  0  0  0  0  0  0  0  0
   -2.1620    4.3385   -1.5026 O   0  0  0  0  0  0  0  0  0  0  0  0
    3.8951    1.8278    2.4021 H   0  0  0  0  0  0  0  0  0  0  0  0
    2.1728    2.0479    2.8088 H   0  0  0  0  0  0  0  0  0  0  0  0
    3.1558    0.7063    3.5901 H   0  0  0  0  0  0  0  0  0  0  0  0
    3.4538    0.1845    0.8739 H   0  0  0  0  0  0  0  0  0  0  0  0
    2.6782   -1.2593    3.0564 H   0  0  0  0  0  0  0  0  0  0  0  0
    2.5157   -1.8316    1.3844 H   0  0  0  0  0  0  0  0  0  0  0  0
    1.0970   -1.0887    2.2244 H   0  0  0  0  0  0  0  0  0  0  0  0
    1.7746    1.8587    0.2731 H   0  0  0  0  0  0  0  0  0  0  0  0
    0.5812    1.0438    1.3450 H   0  0  0  0  0  0  0  0  0  0  0  0
    1.0434   -1.1244    0.1566 H   0  0  0  0  0  0  0  0  0  0  0  0
    2.7622    0.6865   -2.3012 H   0  0  0  0  0  0  0  0  0  0  0  0
    0.5853    0.9958   -1.9671 H   0  0  0  0  0  0  0  0  0  0  0  0
    0.9879   -1.1573   -2.8440 H   0  0  0  0  0  0  0  0  0  0  0  0
   -0.6788   -0.7073   -3.1548 H   0  0  0  0  0  0  0  0  0  0  0  0
    1.6469   -2.9668   -1.2073 H   0  0  0  0  0  0  0  0  0  0  0  0
    0.9733   -5.1144   -0.3654 H   0  0  0  0  0  0  0  0  0  0  0  0
   -1.3890   -5.8379   -0.3782 H   0  0  0  0  0  0  0  0  0  0  0  0
   -3.0658   -4.3285   -1.2568 H   0  0  0  0  0  0  0  0  0  0  0  0
   -2.4370   -2.1390   -2.1351 H   0  0  0  0  0  0  0  0  0  0  0  0
   -0.3588    2.6241   -0.2045 H   0  0  0  0  0  0  0  0  0  0  0  0
   -3.2335    1.8123    0.1729 H   0  0  0  0  0  0  0  0  0  0  0  0
   -2.5145    2.0006    2.3491 H   0  0  0  0  0  0  0  0  0  0  0  0
   -1.3219    3.3415    1.9350 H   0  0  0  0  0  0  0  0  0  0  0  0
   -3.0653    3.7100    1.9480 H   0  0  0  0  0  0  0  0  0  0  0  0
   -2.0763    5.3636   -1.5845 H   0  0  0  0  0  0  0  0  0  0  0  0
  1  2  1  0
  2  3  1  0
  2  4  1  0
  4  5  1  0
  5  6  1  0
  5  7  1  0
  7  8  1  0
  8  9  1  0
  9 10  2  0
 10 11  1  0
 11 12  2  0
 12 13  1  0
 13 14  2  0
  7 15  1  0
 15 16  2  0
 15 17  1  0
 17 18  1  0
 18 19  1  0
 18 20  1  0
 20 21  2  0
 20 22  1  0
 14  9  1  0
  1 23  1  0
  1 24  1  0
  1 25  1  0
  2 26  1  0
  3 27  1  0
  3 28  1  0
  3 29  1  0
  4 30  1  0
  4 31  1  0
  5 32  1  1
  6 33  1  0
  7 34  1  6
  8 35  1  0
  8 36  1  0
 10 37  1  0
 11 38  1  0
 12 39  1  0
 13 40  1  0
 14 41  1  0
 17 42  1  0
 18 43  1  1
 19 44  1  0
 19 45  1  0
 19 46  1  0
 22 47  1  0
M  END
$$$$
