
     RDKit          3D

 91 94  0  0  0  0  0  0  0  0999 V2000
    8.0862   -0.5780   -1.3337 C   0  0  0  0  0  0  0  0  0  0  0  0
    6.7388   -0.1674   -1.2586 O   0  0  0  0  0  0  0  0  0  0  0  0
    6.7653    1.2184   -1.0810 C   0  0  0  0  0  0  0  0  0  0  0  0
    5.4000    1.8109   -0.9865 C   0  0  0  0  0  0  0  0  0  0  0  0
    4.5771    1.3906    0.0149 O   0  0  0  0  0  0  0  0  0  0  0  0
    4.6215    1.4398    1.3705 C   0  0  0  0  0  0  0  0  0  0  0  0
    5.6496    2.0207    2.0773 C   0  0  0  0  0  0  0  0  0  0  0  0
    5.6401    2.0441    3.4637 C   0  0  0  0  0  0  0  0  0  0  0  0
    4.6038    1.4885    4.1782 C   0  0  0  0  0  0  0  0  0  0  0  0
    3.5628    0.9011    3.4882 C   0  0  0  0  0  0  0  0  0  0  0  0
    3.5747    0.8793    2.1241 C   0  0  0  0  0  0  0  0  0  0  0  0
    2.5126    0.2686    1.3788 N   0  0  0  0  0  0  0  0  0  0  0  0
    2.7944   -0.8592    0.5728 C   0  0  0  0  0  0  0  0  0  0  0  0
    1.9961   -1.0772   -0.6505 C   0  0  0  0  0  0  0  0  0  0  0  0
    0.6718   -0.4116   -0.6037 N   0  0  0  0  0  0  0  0  0  0  0  0
   -0.4223   -1.0765   -1.0915 C   0  0  0  0  0  0  0  0  0  0  0  0
   -0.0297   -2.2498   -1.5659 O   0  0  0  0  0  0  0  0  0  0  0  0
   -1.8729   -0.8368   -1.2217 C   0  0  2  0  0  0  0  0  0  0  0  0
   -2.3873   -2.0033   -1.7482 O   0  0  0  0  0  0  0  0  0  0  0  0
   -2.8134   -3.1090   -2.1343 C   0  0  0  0  0  0  0  0  0  0  0  0
   -3.4953   -3.1600   -3.3749 C   0  0  0  0  0  0  0  0  0  0  0  0
   -4.0091   -4.2847   -3.9157 C   0  0  0  0  0  0  0  0  0  0  0  0
   -3.8848   -5.4707   -3.2552 C   0  0  0  0  0  0  0  0  0  0  0  0
   -4.4506   -6.6816   -3.8597 C   0  0  0  0  0  0  0  0  0  0  0  0
   -4.8433   -7.5929   -2.8981 F   0  0  0  0  0  0  0  0  0  0  0  0
   -5.6004   -6.3540   -4.5896 F   0  0  0  0  0  0  0  0  0  0  0  0
   -3.5414   -7.3312   -4.6759 F   0  0  0  0  0  0  0  0  0  0  0  0
   -3.2225   -5.4879   -2.0256 C   0  0  0  0  0  0  0  0  0  0  0  0
   -2.7096   -4.3469   -1.4931 C   0  0  0  0  0  0  0  0  0  0  0  0
   -2.0379    0.0949   -2.4117 C   0  0  0  0  0  0  0  0  0  0  0  0
   -2.1215    1.5312   -2.1831 C   0  0  0  0  0  0  0  0  0  0  0  0
   -2.8241    1.9587   -0.9480 C   0  0  0  0  0  0  0  0  0  0  0  0
   -2.6060    1.0479    0.1751 N   0  0  0  0  0  0  0  0  0  0  0  0
   -2.4277    1.6962    1.4201 C   0  0  0  0  0  0  0  0  0  0  0  0
   -2.2098    1.0695    2.4546 O   0  0  0  0  0  0  0  0  0  0  0  0
   -2.4993    3.1441    1.5265 C   0  0  0  0  0  0  0  0  0  0  0  0
   -1.3898    3.9258    1.3054 C   0  0  0  0  0  0  0  0  0  0  0  0
   -1.5028    5.2629    1.4002 N   0  0  0  0  0  0  0  0  0  0  0  0
   -2.6759    5.8419    1.7061 C   0  0  0  0  0  0  0  0  0  0  0  0
   -3.8010    5.0780    1.9326 C   0  0  0  0  0  0  0  0  0  0  0  0
   -3.7292    3.7035    1.8460 C   0  0  0  0  0  0  0  0  0  0  0  0
   -4.9302    2.8751    2.1212 C   0  0  0  0  0  0  0  0  0  0  0  0
   -4.7051    2.0239    3.1916 F   0  0  0  0  0  0  0  0  0  0  0  0
   -5.9268    3.7558    2.5753 F   0  0  0  0  0  0  0  0  0  0  0  0
   -5.4303    2.2622    1.0250 F   0  0  0  0  0  0  0  0  0  0  0  0
   -2.6567   -0.3371   -0.0870 C   0  0  2  0  0  0  0  0  0  0  0  0
   -2.9315   -1.2620    1.0404 C   0  0  0  0  0  0  0  0  0  0  0  0
   -1.8949   -1.9043    1.8347 C   0  0  0  0  0  0  0  0  0  0  0  0
   -0.9882   -2.7368    1.2184 O   0  0  0  0  0  0  0  0  0  0  0  0
    0.7313    0.9050   -0.0321 C   0  0  0  0  0  0  0  0  0  0  0  0
    1.1466    0.7890    1.4298 C   0  0  0  0  0  0  0  0  0  0  0  0
    0.6859    0.0000    0.0000 Cl  0  0  0  0  0  0  0  0  0  0  0  0
    8.1583   -1.6794   -1.4769 H   0  0  0  0  0  0  0  0  0  0  0  0
    8.5493   -0.3241   -0.3784 H   0  0  0  0  0  0  0  0  0  0  0  0
    8.6229   -0.0836   -2.1633 H   0  0  0  0  0  0  0  0  0  0  0  0
    7.2087    1.6047   -2.0539 H   0  0  0  0  0  0  0  0  0  0  0  0
    7.4697    1.5464   -0.3057 H   0  0  0  0  0  0  0  0  0  0  0  0
    4.9016    1.7091   -1.9958 H   0  0  0  0  0  0  0  0  0  0  0  0
    5.5685    2.9360   -0.9007 H   0  0  0  0  0  0  0  0  0  0  0  0
    6.4941    2.4875    1.5463 H   0  0  0  0  0  0  0  0  0  0  0  0
    6.4759    2.5141    3.9829 H   0  0  0  0  0  0  0  0  0  0  0  0
    4.6596    1.5425    5.2589 H   0  0  0  0  0  0  0  0  0  0  0  0
    2.7338    0.4566    4.0617 H   0  0  0  0  0  0  0  0  0  0  0  0
    3.8908   -0.8221    0.2980 H   0  0  0  0  0  0  0  0  0  0  0  0
    2.7470   -1.7622    1.2552 H   0  0  0  0  0  0  0  0  0  0  0  0
    1.8676   -2.1703   -0.7919 H   0  0  0  0  0  0  0  0  0  0  0  0
    2.5127   -0.6091   -1.5170 H   0  0  0  0  0  0  0  0  0  0  0  0
   -3.6287   -2.2320   -3.9576 H   0  0  0  0  0  0  0  0  0  0  0  0
   -4.5294   -4.2786   -4.8781 H   0  0  0  0  0  0  0  0  0  0  0  0
   -3.1529   -6.4691   -1.5374 H   0  0  0  0  0  0  0  0  0  0  0  0
   -2.2077   -4.3708   -0.5586 H   0  0  0  0  0  0  0  0  0  0  0  0
   -3.0418   -0.2169   -2.8639 H   0  0  0  0  0  0  0  0  0  0  0  0
   -1.3357   -0.1859   -3.2349 H   0  0  0  0  0  0  0  0  0  0  0  0
   -1.1322    2.0061   -2.2815 H   0  0  0  0  0  0  0  0  0  0  0  0
   -2.7093    1.9925   -3.0391 H   0  0  0  0  0  0  0  0  0  0  0  0
   -3.9204    2.0193   -1.0966 H   0  0  0  0  0  0  0  0  0  0  0  0
   -2.4743    2.9534   -0.6468 H   0  0  0  0  0  0  0  0  0  0  0  0
   -0.4110    3.4745    1.0610 H   0  0  0  0  0  0  0  0  0  0  0  0
   -2.7764    6.9285    1.7859 H   0  0  0  0  0  0  0  0  0  0  0  0
   -4.7582    5.5512    2.1823 H   0  0  0  0  0  0  0  0  0  0  0  0
   -3.7665   -0.3633   -0.5748 H   0  0  0  0  0  0  0  0  0  0  0  0
   -3.5615   -0.6836    1.7880 H   0  0  0  0  0  0  0  0  0  0  0  0
   -3.7055   -2.0147    0.6838 H   0  0  0  0  0  0  0  0  0  0  0  0
   -2.4729   -2.6282    2.5286 H   0  0  0  0  0  0  0  0  0  0  0  0
   -1.3400   -1.3069    2.5737 H   0  0  0  0  0  0  0  0  0  0  0  0
   -0.6770   -3.4635    1.8484 H   0  0  0  0  0  0  0  0  0  0  0  0
    1.6666    1.3758   -0.5179 H   0  0  0  0  0  0  0  0  0  0  0  0
   -0.0678    1.5832   -0.2315 H   0  0  0  0  0  0  0  0  0  0  0  0
    1.1476    1.7944    1.8626 H   0  0  0  0  0  0  0  0  0  0  0  0
    0.4928    0.0794    1.9351 H   0  0  0  0  0  0  0  0  0  0  0  0
   -0.6859    0.0000    0.0000 H   0  0  0  0  0  0  0  0  0  0  0  0
  1  2  1  0
  2  3  1  0
  3  4  1  0
  4  5  1  0
  5  6  1  0
  6  7  2  0
  7  8  1  0
  8  9  2  0
  9 10  1  0
 10 11  2  0
 11 12  1  0
 12 13  1  0
 13 14  1  0
 14 15  1  0
 15 16  1  0
 16 17  2  0
 16 18  1  0
 18 19  1  6
 19 20  1  0
 20 21  2  0
 21 22  1  0
 22 23  2  0
 23 24  1  0
 24 25  1  0
 24 26  1  0
 24 27  1  0
 23 28  1  0
 28 29  2  0
 18 30  1  0
 30 31  1  0
 31 32  1  0
 32 33  1  0
 33 34  1  0
 34 35  2  0
 34 36  1  0
 36 37  2  0
 37 38  1  0
 38 39  2  0
 39 40  1  0
 40 41  2  0
 41 42  1  0
 42 43  1  0
 42 44  1  0
 42 45  1  0
 33 46  1  0
 46 47  1  0
 47 48  1  0
 48 49  1  0
 15 50  1  0
 50 51  1  0
 11  6  1  0
 51 12  1  0
 46 18  1  0
 29 20  1  0
 41 36  1  0
  1 53  1  0
  1 54  1  0
  1 55  1  0
  3 56  1  0
  3 57  1  0
  4 58  1  0
  4 59  1  0
  7 60  1  0
  8 61  1  0
  9 62  1  0
 10 63  1  0
 13 64  1  0
 13 65  1  0
 14 66  1  0
 14 67  1  0
 21 68  1  0
 22 69  1  0
 28 70  1  0
 29 71  1  0
 30 72  1  0
 30 73  1  0
 31 74  1  0
 31 75  1  0
 32 76  1  0
 32 77  1  0
 37 78  1  0
 39 79  1  0
 40 80  1  0
 46 81  1  6
 47 82  1  0
 47 83  1  0
 48 84  1  0
 48 85  1  0
 49 86  1  0
 50 87  1  0
 50 88  1  0
 51 89  1  0
 51 90  1  0
 52 91  1  0
M  END
$$$$
