
     RDKit          3D

 46 49  0  0  0  0  0  0  0  0999 V2000
    6.4795   -1.1028   -2.6198 C   0  0  0  0  0  0  0  0  0  0  0  0
    5.9705   -0.5049   -1.3830 N   0  0  0  0  0  0  0  0  0  0  0  0
    5.0904    0.6171   -1.2122 C   0  0  0  0  0  0  0  0  0  0  0  0
    4.7960    1.0229   -2.3531 O   0  0  0  0  0  0  0  0  0  0  0  0
    4.9011    0.8239    0.2146 C   0  0  0  0  0  0  0  0  0  0  0  0
    4.1423   -0.0307    0.9363 C   0  0  0  0  0  0  0  0  0  0  0  0
    3.2108   -1.4560    0.4336 S   0  0  0  0  0  0  0  0  0  0  0  0
    1.4965   -1.1374    0.1561 C   0  0  0  0  0  0  0  0  0  0  0  0
    0.7114   -0.8393   -0.9310 C   0  0  0  0  0  0  0  0  0  0  0  0
   -0.6466   -0.6264   -0.8412 C   0  0  0  0  0  0  0  0  0  0  0  0
   -1.2883   -0.7094    0.4018 C   0  0  0  0  0  0  0  0  0  0  0  0
   -0.5402   -1.0070    1.5402 C   0  0  0  0  0  0  0  0  0  0  0  0
   -1.4589   -1.0012    2.5144 N   0  0  0  0  0  0  0  0  0  0  0  0
   -2.6507   -0.7256    2.0123 N   0  0  0  0  0  0  0  0  0  0  0  0
   -2.6173   -0.5325    0.6846 C   0  0  0  0  0  0  0  0  0  0  0  0
   -3.7630   -0.2490   -0.1642 C   0  0  0  0  0  0  0  0  0  0  0  0
   -4.9480   -0.0649    0.3919 C   0  0  0  0  0  0  0  0  0  0  0  0
   -6.2117    0.2329   -0.3151 C   0  0  0  0  0  0  0  0  0  0  0  0
   -7.3519    0.3953    0.4773 C   0  0  0  0  0  0  0  0  0  0  0  0
   -8.5231    0.6592   -0.2663 C   0  0  0  0  0  0  0  0  0  0  0  0
   -8.4657    0.7317   -1.6316 C   0  0  0  0  0  0  0  0  0  0  0  0
   -7.3153    0.5642   -2.3730 C   0  0  0  0  0  0  0  0  0  0  0  0
   -6.1932    0.3132   -1.6549 N   0  0  0  0  0  0  0  0  0  0  0  0
    0.8364   -1.2144    1.3883 C   0  0  0  0  0  0  0  0  0  0  0  0
    4.0581    0.2158    2.2930 C   0  0  0  0  0  0  0  0  0  0  0  0
    4.7197    1.2813    2.8680 C   0  0  0  0  0  0  0  0  0  0  0  0
    5.4815    2.1281    2.1045 C   0  0  0  0  0  0  0  0  0  0  0  0
    5.5748    1.8985    0.7538 C   0  0  0  0  0  0  0  0  0  0  0  0
    6.0611   -2.1152   -2.7607 H   0  0  0  0  0  0  0  0  0  0  0  0
    7.5997   -1.2409   -2.5546 H   0  0  0  0  0  0  0  0  0  0  0  0
    6.2490   -0.4475   -3.4957 H   0  0  0  0  0  0  0  0  0  0  0  0
    6.3982   -1.1073   -0.6113 H   0  0  0  0  0  0  0  0  0  0  0  0
    1.3443   -0.8126   -1.8126 H   0  0  0  0  0  0  0  0  0  0  0  0
   -1.1506   -0.4054   -1.7707 H   0  0  0  0  0  0  0  0  0  0  0  0
   -1.2136   -1.1981    3.5316 H   0  0  0  0  0  0  0  0  0  0  0  0
   -3.7514   -0.1694   -1.2369 H   0  0  0  0  0  0  0  0  0  0  0  0
   -4.9866   -0.1514    1.4829 H   0  0  0  0  0  0  0  0  0  0  0  0
   -7.3823    0.3421    1.5519 H   0  0  0  0  0  0  0  0  0  0  0  0
   -9.4133    0.7859    0.3654 H   0  0  0  0  0  0  0  0  0  0  0  0
   -9.4426    0.9365   -2.1121 H   0  0  0  0  0  0  0  0  0  0  0  0
   -7.4171    0.6526   -3.4384 H   0  0  0  0  0  0  0  0  0  0  0  0
    1.2422   -1.4310    2.3786 H   0  0  0  0  0  0  0  0  0  0  0  0
    3.4990   -0.3671    3.0237 H   0  0  0  0  0  0  0  0  0  0  0  0
    4.6836    1.5114    3.9348 H   0  0  0  0  0  0  0  0  0  0  0  0
    6.0135    2.9740    2.5307 H   0  0  0  0  0  0  0  0  0  0  0  0
    6.1717    2.5606    0.1552 H   0  0  0  0  0  0  0  0  0  0  0  0
  1  2  1  0
  2  3  1  0
  3  4  2  0
  3  5  1  0
  5  6  2  0
  6  7  1  0
  7  8  1  0
  8  9  2  0
  9 10  1  0
 10 11  2  0
 11 12  1  0
 12 13  1  0
 13 14  1  0
 14 15  2  0
 15 16  1  0
 16 17  2  0
 17 18  1  0
 18 19  2  0
 19 20  1  0
 20 21  2  0
 21 22  1  0
 22 23  2  0
 12 24  2  0
  6 25  1  0
 25 26  2  0
 26 27  1  0
 27 28  2  0
 28  5  1  0
 24  8  1  0
 15 11  1  0
 23 18  1  0
  1 29  1  0
  1 30  1  0
  1 31  1  0
  2 32  1  0
  9 33  1  0
 10 34  1  0
 13 35  1  0
 16 36  1  0
 17 37  1  0
 19 38  1  0
 20 39  1  0
 21 40  1  0
 22 41  1  0
 24 42  1  0
 25 43  1  0
 26 44  1  0
 27 45  1  0
 28 46  1  0
M  END
$$$$
