
     RDKit          3D

 36 38  0  0  0  0  0  0  0  0999 V2000
   -1.5170    2.7493    1.5395 C   0  0  0  0  0  0  0  0  0  0  0  0
   -2.1522    1.5622    0.8945 C   0  0  0  0  0  0  0  0  0  0  0  0
   -1.5953    0.5472    0.1546 C   0  0  0  0  0  0  0  0  0  0  0  0
   -0.1271    0.5361   -0.1051 C   0  0  0  0  0  0  0  0  0  0  0  0
    0.6048    0.0960    1.1290 C   0  0  0  0  0  0  0  0  0  0  0  0
    2.0573    0.0696    0.9216 N   0  0  0  0  0  0  0  0  0  0  0  0
    2.5280   -0.7881   -0.0940 C   0  0  0  0  0  0  0  0  0  0  0  0
    1.8834   -1.5264   -0.8388 O   0  0  0  0  0  0  0  0  0  0  0  0
    3.9892   -0.7716   -0.2552 C   0  0  0  0  0  0  0  0  0  0  0  0
    5.0205   -0.0691    0.4020 C   0  0  0  0  0  0  0  0  0  0  0  0
    6.2812   -0.3068   -0.0187 C   0  0  0  0  0  0  0  0  0  0  0  0
    6.4735   -1.1969   -1.0361 C   0  0  0  0  0  0  0  0  0  0  0  0
    4.8865   -1.8007   -1.5145 S   0  0  0  0  0  0  0  0  0  0  0  0
   -2.6117   -0.3006   -0.2093 C   0  0  0  0  0  0  0  0  0  0  0  0
   -2.5179   -1.4556   -0.9583 C   0  0  0  0  0  0  0  0  0  0  0  0
   -3.7163   -2.1289   -1.1802 C   0  0  0  0  0  0  0  0  0  0  0  0
   -4.9157   -1.6561   -0.6745 C   0  0  0  0  0  0  0  0  0  0  0  0
   -4.9489   -0.4828    0.0758 C   0  0  0  0  0  0  0  0  0  0  0  0
   -3.7770    0.2242    0.3236 C   0  0  0  0  0  0  0  0  0  0  0  0
   -3.4754    1.3544    0.9894 N   0  0  0  0  0  0  0  0  0  0  0  0
   -2.1734    3.6354    1.4794 H   0  0  0  0  0  0  0  0  0  0  0  0
   -0.5251    2.9433    1.1164 H   0  0  0  0  0  0  0  0  0  0  0  0
   -1.3797    2.5756    2.6357 H   0  0  0  0  0  0  0  0  0  0  0  0
    0.2271    1.5742   -0.3198 H   0  0  0  0  0  0  0  0  0  0  0  0
    0.0233   -0.1232   -0.9672 H   0  0  0  0  0  0  0  0  0  0  0  0
    0.3996    0.8226    1.9358 H   0  0  0  0  0  0  0  0  0  0  0  0
    0.2866   -0.9095    1.4835 H   0  0  0  0  0  0  0  0  0  0  0  0
    2.6912    0.6697    1.5138 H   0  0  0  0  0  0  0  0  0  0  0  0
    4.6982    0.6002    1.1883 H   0  0  0  0  0  0  0  0  0  0  0  0
    7.1221    0.2174    0.4632 H   0  0  0  0  0  0  0  0  0  0  0  0
    7.5116   -1.4550   -1.4514 H   0  0  0  0  0  0  0  0  0  0  0  0
   -1.5898   -1.8229   -1.3507 H   0  0  0  0  0  0  0  0  0  0  0  0
   -3.7187   -3.0526   -1.7660 H   0  0  0  0  0  0  0  0  0  0  0  0
   -5.8613   -2.1513   -0.8264 H   0  0  0  0  0  0  0  0  0  0  0  0
   -5.8749   -0.0982    0.4786 H   0  0  0  0  0  0  0  0  0  0  0  0
   -4.2069    1.9189    1.4731 H   0  0  0  0  0  0  0  0  0  0  0  0
  1  2  1  0
  2  3  2  0
  3  4  1  0
  4  5  1  0
  5  6  1  0
  6  7  1  0
  7  8  2  0
  7  9  1  0
  9 10  2  0
 10 11  1  0
 11 12  2  0
 12 13  1  0
  3 14  1  0
 14 15  2  0
 15 16  1  0
 16 17  2  0
 17 18  1  0
 18 19  2  0
 19 20  1  0
 20  2  1  0
 13  9  1  0
 19 14  1  0
  1 21  1  0
  1 22  1  0
  1 23  1  0
  4 24  1  0
  4 25  1  0
  5 26  1  0
  5 27  1  0
  6 28  1  0
 10 29  1  0
 11 30  1  0
 12 31  1  0
 15 32  1  0
 16 33  1  0
 17 34  1  0
 18 35  1  0
 20 36  1  0
M  END
$$$$
