
     RDKit          3D

 49 54  0  0  0  0  0  0  0  0999 V2000
   -7.9664    0.3632    1.0381 C   0  0  0  0  0  0  0  0  0  0  0  0
   -6.5760    0.7626    1.0595 N   0  0  0  0  0  0  0  0  0  0  0  0
   -6.1550    2.0831    1.3640 C   0  0  0  0  0  0  0  0  0  0  0  0
   -7.0340    2.9558    1.5432 O   0  0  0  0  0  0  0  0  0  0  0  0
   -4.7328    2.4951    1.4834 C   0  0  0  0  0  0  0  0  0  0  0  0
   -3.8383    1.4801    1.0864 O   0  0  0  0  0  0  0  0  0  0  0  0
   -4.2564    0.2064    0.7932 C   0  0  0  0  0  0  0  0  0  0  0  0
   -5.5742   -0.1943    0.7665 C   0  0  0  0  0  0  0  0  0  0  0  0
   -5.9076   -1.4907    0.4631 C   0  0  0  0  0  0  0  0  0  0  0  0
   -4.9893   -2.4214    0.1813 N   0  0  0  0  0  0  0  0  0  0  0  0
   -3.6974   -2.0349    0.2060 C   0  0  0  0  0  0  0  0  0  0  0  0
   -2.7628   -3.0141   -0.0861 C   0  0  0  0  0  0  0  0  0  0  0  0
   -1.4407   -2.6541   -0.0670 C   0  0  0  0  0  0  0  0  0  0  0  0
   -1.0259   -1.3707    0.2290 C   0  0  0  0  0  0  0  0  0  0  0  0
    0.7234   -0.9767    0.2429 S   0  0  0  0  0  0  0  0  0  0  0  0
    1.2051   -0.4527   -1.4079 C   0  0  0  0  0  0  0  0  0  0  0  0
    0.4549   -0.3541   -2.5040 N   0  0  0  0  0  0  0  0  0  0  0  0
    1.2467    0.0729   -3.4698 N   0  0  0  0  0  0  0  0  0  0  0  0
    2.4977    0.2500   -3.0074 C   0  0  0  0  0  0  0  0  0  0  0  0
    3.6892    0.6695   -3.5647 C   0  0  0  0  0  0  0  0  0  0  0  0
    3.6993    0.9971   -4.8647 F   0  0  0  0  0  0  0  0  0  0  0  0
    4.8154    0.7364   -2.7731 C   0  0  0  0  0  0  0  0  0  0  0  0
    4.8029    0.3990   -1.4359 C   0  0  0  0  0  0  0  0  0  0  0  0
    6.0247    0.4845   -0.6219 C   0  0  0  0  0  0  0  0  0  0  0  0
    7.3280    0.2868   -1.0247 C   0  0  0  0  0  0  0  0  0  0  0  0
    8.1054    0.4684    0.0529 N   0  0  0  0  0  0  0  0  0  0  0  0
    7.3531    0.7641    1.0841 N   0  0  0  0  0  0  0  0  0  0  0  0
    7.8188    1.0326    2.4304 C   0  0  0  0  0  0  0  0  0  0  0  0
    6.0579    0.7878    0.7241 C   0  0  0  0  0  0  0  0  0  0  0  0
    3.5928   -0.0142   -0.9218 C   0  0  0  0  0  0  0  0  0  0  0  0
    2.4783   -0.0804   -1.7048 N   0  0  0  0  0  0  0  0  0  0  0  0
   -1.9709   -0.4177    0.5149 C   0  0  0  0  0  0  0  0  0  0  0  0
   -3.2984   -0.7490    0.5032 C   0  0  0  0  0  0  0  0  0  0  0  0
   -8.1416   -0.5109    1.7320 H   0  0  0  0  0  0  0  0  0  0  0  0
   -8.3159    0.0369    0.0499 H   0  0  0  0  0  0  0  0  0  0  0  0
   -8.6372    1.1745    1.3897 H   0  0  0  0  0  0  0  0  0  0  0  0
   -4.5480    2.8139    2.5351 H   0  0  0  0  0  0  0  0  0  0  0  0
   -4.5855    3.4222    0.8686 H   0  0  0  0  0  0  0  0  0  0  0  0
   -6.9686   -1.7674    0.4531 H   0  0  0  0  0  0  0  0  0  0  0  0
   -3.0568   -4.0392   -0.3245 H   0  0  0  0  0  0  0  0  0  0  0  0
   -0.7270   -3.4572   -0.3038 H   0  0  0  0  0  0  0  0  0  0  0  0
    5.7592    1.0672   -3.2078 H   0  0  0  0  0  0  0  0  0  0  0  0
    7.6110    0.0332   -2.0391 H   0  0  0  0  0  0  0  0  0  0  0  0
    8.0820    0.0565    2.8834 H   0  0  0  0  0  0  0  0  0  0  0  0
    7.0380    1.5016    3.0430 H   0  0  0  0  0  0  0  0  0  0  0  0
    8.7552    1.6212    2.3848 H   0  0  0  0  0  0  0  0  0  0  0  0
    5.1926    1.0002    1.3476 H   0  0  0  0  0  0  0  0  0  0  0  0
    3.5600   -0.2848    0.1280 H   0  0  0  0  0  0  0  0  0  0  0  0
   -1.6850    0.5827    0.7475 H   0  0  0  0  0  0  0  0  0  0  0  0
  1  2  1  0
  2  3  1  0
  3  4  2  0
  3  5  1  0
  5  6  1  0
  6  7  1  0
  7  8  2  0
  8  9  1  0
  9 10  2  0
 10 11  1  0
 11 12  2  0
 12 13  1  0
 13 14  2  0
 14 15  1  0
 15 16  1  0
 16 17  2  0
 17 18  1  0
 18 19  2  0
 19 20  1  0
 20 21  1  0
 20 22  2  0
 22 23  1  0
 23 24  1  0
 24 25  1  0
 25 26  2  0
 26 27  1  0
 27 28  1  0
 27 29  1  0
 23 30  2  0
 30 31  1  0
 14 32  1  0
 32 33  2  0
  8  2  1  0
 33 11  1  0
 33  7  1  0
 31 16  1  0
 31 19  1  0
 29 24  2  0
  1 34  1  0
  1 35  1  0
  1 36  1  0
  5 37  1  0
  5 38  1  0
  9 39  1  0
 12 40  1  0
 13 41  1  0
 22 42  1  0
 25 43  1  0
 28 44  1  0
 28 45  1  0
 28 46  1  0
 29 47  1  0
 30 48  1  0
 32 49  1  0
M  END
$$$$
