
     RDKit          3D

 84 89  0  0  0  0  0  0  0  0999 V2000
    2.2400   -1.9904   -0.1635 C   0  0  0  0  0  0  0  0  0  0  0  0
    3.5799   -1.3786   -0.3360 C   0  0  0  0  0  0  0  0  0  0  0  0
    4.0191   -0.2759    0.2193 C   0  0  0  0  0  0  0  0  0  0  0  0
    3.3398    0.6538    1.1498 C   0  0  0  0  0  0  0  0  0  0  0  0
    3.9959    1.6914    1.5467 O   0  0  0  0  0  0  0  0  0  0  0  0
    2.0496    0.5472    1.6646 N   0  0  0  0  0  0  0  0  0  0  0  0
    1.4896    1.5386    2.5754 C   0  0  2  0  0  0  0  0  0  0  0  0
    1.2818    0.9057    3.9619 C   0  0  0  0  0  0  0  0  0  0  0  0
    0.1705    2.0417    2.1583 C   0  0  0  0  0  0  0  0  0  0  0  0
   -0.4110    2.9731    2.7805 O   0  0  0  0  0  0  0  0  0  0  0  0
   -0.5711    1.5331    1.0273 N   0  0  0  0  0  0  0  0  0  0  0  0
   -1.8493    2.0658    0.6618 C   0  0  1  0  0  0  0  0  0  0  0  0
   -1.7606    2.6982   -0.6992 C   0  0  0  0  0  0  0  0  0  0  0  0
   -0.8009    3.7987   -0.8150 C   0  0  0  0  0  0  0  0  0  0  0  0
   -1.0983    5.1650   -0.6774 C   0  0  0  0  0  0  0  0  0  0  0  0
    0.0355    5.8248   -0.8049 N   0  0  0  0  0  0  0  0  0  0  0  0
    1.0513    4.9804   -1.0172 C   0  0  0  0  0  0  0  0  0  0  0  0
    2.3913    5.2282   -1.2122 C   0  0  0  0  0  0  0  0  0  0  0  0
    3.2275    4.1547   -1.4222 C   0  0  0  0  0  0  0  0  0  0  0  0
    2.7672    2.8560   -1.4428 C   0  0  0  0  0  0  0  0  0  0  0  0
    1.4276    2.6217   -1.2464 C   0  0  0  0  0  0  0  0  0  0  0  0
    0.5625    3.6686   -1.0325 C   0  0  0  0  0  0  0  0  0  0  0  0
   -2.9248    1.0212    0.6783 C   0  0  0  0  0  0  0  0  0  0  0  0
   -4.0907    1.3818    0.3682 O   0  0  0  0  0  0  0  0  0  0  0  0
   -2.7132   -0.3280    1.0185 N   0  0  0  0  0  0  0  0  0  0  0  0
   -3.8094   -1.3133    1.0264 C   0  0  1  0  0  0  0  0  0  0  0  0
   -3.4967   -2.4379    0.0630 C   0  0  0  0  0  0  0  0  0  0  0  0
   -3.3348   -1.9644   -1.3213 C   0  0  0  0  0  0  0  0  0  0  0  0
   -4.3995   -1.8738   -2.2089 C   0  0  0  0  0  0  0  0  0  0  0  0
   -4.2567   -1.4394   -3.4902 C   0  0  0  0  0  0  0  0  0  0  0  0
   -3.0178   -1.0701   -3.9459 C   0  0  0  0  0  0  0  0  0  0  0  0
   -1.9113   -1.1412   -3.0956 C   0  0  0  0  0  0  0  0  0  0  0  0
   -2.0962   -1.5884   -1.7981 C   0  0  0  0  0  0  0  0  0  0  0  0
   -3.9452   -1.7781    2.4319 C   0  0  0  0  0  0  0  0  0  0  0  0
   -3.1646   -1.3803    3.3150 O   0  0  0  0  0  0  0  0  0  0  0  0
   -4.9800   -2.7231    2.9170 C   0  0  1  0  0  0  0  0  0  0  0  0
   -6.0100   -3.2643    1.9456 C   0  0  0  0  0  0  0  0  0  0  0  0
   -4.4951   -3.7696    3.9214 C   0  0  0  0  0  0  0  0  0  0  0  0
   -5.3147   -2.6993    4.2732 O   0  0  0  0  0  0  0  0  0  0  0  0
    5.4198   -0.0541   -0.2439 C   0  0  0  0  0  0  0  0  0  0  0  0
    5.7252   -1.1648   -1.1239 C   0  0  0  0  0  0  0  0  0  0  0  0
    6.8680   -1.5229   -1.8610 C   0  0  0  0  0  0  0  0  0  0  0  0
    6.9233   -2.6477   -2.6451 C   0  0  0  0  0  0  0  0  0  0  0  0
    5.8027   -3.4455   -2.6992 C   0  0  0  0  0  0  0  0  0  0  0  0
    4.6800   -3.1052   -1.9827 C   0  0  0  0  0  0  0  0  0  0  0  0
    4.6287   -1.9725   -1.1945 C   0  0  0  0  0  0  0  0  0  0  0  0
    2.2121   -2.9096   -0.8380 H   0  0  0  0  0  0  0  0  0  0  0  0
    1.4242   -1.3651   -0.5759 H   0  0  0  0  0  0  0  0  0  0  0  0
    2.0559   -2.3970    0.8455 H   0  0  0  0  0  0  0  0  0  0  0  0
    1.4551   -0.2514    1.4111 H   0  0  0  0  0  0  0  0  0  0  0  0
    2.2541    2.3246    2.7247 H   0  0  0  0  0  0  0  0  0  0  0  0
    1.4004    1.6739    4.7467 H   0  0  0  0  0  0  0  0  0  0  0  0
    0.2667    0.4791    4.0445 H   0  0  0  0  0  0  0  0  0  0  0  0
    1.9895    0.0663    4.1092 H   0  0  0  0  0  0  0  0  0  0  0  0
   -0.1318    0.7498    0.5074 H   0  0  0  0  0  0  0  0  0  0  0  0
   -2.1589    2.9068    1.3486 H   0  0  0  0  0  0  0  0  0  0  0  0
   -2.7700    3.0772   -1.0188 H   0  0  0  0  0  0  0  0  0  0  0  0
   -1.5172    1.9287   -1.4897 H   0  0  0  0  0  0  0  0  0  0  0  0
   -2.1040    5.5167   -0.5005 H   0  0  0  0  0  0  0  0  0  0  0  0
    0.1305    6.8806   -0.7471 H   0  0  0  0  0  0  0  0  0  0  0  0
    2.7998    6.2443   -1.2039 H   0  0  0  0  0  0  0  0  0  0  0  0
    4.2916    4.3444   -1.5770 H   0  0  0  0  0  0  0  0  0  0  0  0
    3.4768    2.0336   -1.6158 H   0  0  0  0  0  0  0  0  0  0  0  0
    1.0406    1.6190   -1.2715 H   0  0  0  0  0  0  0  0  0  0  0  0
   -1.7440   -0.6160    1.2686 H   0  0  0  0  0  0  0  0  0  0  0  0
   -4.7584   -0.8388    0.7375 H   0  0  0  0  0  0  0  0  0  0  0  0
   -4.1665   -3.3085    0.1612 H   0  0  0  0  0  0  0  0  0  0  0  0
   -2.4833   -2.8205    0.3934 H   0  0  0  0  0  0  0  0  0  0  0  0
   -5.3656   -2.1722   -1.8189 H   0  0  0  0  0  0  0  0  0  0  0  0
   -5.1538   -1.4054   -4.1055 H   0  0  0  0  0  0  0  0  0  0  0  0
   -2.9178   -0.7232   -4.9762 H   0  0  0  0  0  0  0  0  0  0  0  0
   -0.9704   -0.8448   -3.4889 H   0  0  0  0  0  0  0  0  0  0  0  0
   -1.2098   -1.6247   -1.1844 H   0  0  0  0  0  0  0  0  0  0  0  0
   -5.7249   -4.2855    1.6698 H   0  0  0  0  0  0  0  0  0  0  0  0
   -7.0111   -3.3843    2.4628 H   0  0  0  0  0  0  0  0  0  0  0  0
   -6.2221   -2.5794    1.1106 H   0  0  0  0  0  0  0  0  0  0  0  0
   -3.4610   -3.6720    4.3015 H   0  0  0  0  0  0  0  0  0  0  0  0
   -4.9509   -4.7637    3.9290 H   0  0  0  0  0  0  0  0  0  0  0  0
    5.4379    0.9128   -0.8312 H   0  0  0  0  0  0  0  0  0  0  0  0
    6.1207    0.0275    0.6166 H   0  0  0  0  0  0  0  0  0  0  0  0
    7.7331   -0.8755   -1.7999 H   0  0  0  0  0  0  0  0  0  0  0  0
    7.8297   -2.8739   -3.1897 H   0  0  0  0  0  0  0  0  0  0  0  0
    5.8691   -4.3374   -3.3314 H   0  0  0  0  0  0  0  0  0  0  0  0
    3.8089   -3.7576   -2.0490 H   0  0  0  0  0  0  0  0  0  0  0  0
  1  2  1  0
  2  3  2  0
  3  4  1  0
  4  5  2  0
  4  6  1  0
  6  7  1  0
  7  8  1  0
  7  9  1  0
  9 10  2  0
  9 11  1  0
 11 12  1  0
 12 13  1  0
 13 14  1  0
 14 15  2  0
 15 16  1  0
 16 17  1  0
 17 18  2  0
 18 19  1  0
 19 20  2  0
 20 21  1  0
 21 22  2  0
 12 23  1  0
 23 24  2  0
 23 25  1  0
 25 26  1  0
 26 27  1  0
 27 28  1  0
 28 29  2  0
 29 30  1  0
 30 31  2  0
 31 32  1  0
 32 33  2  0
 26 34  1  0
 34 35  2  0
 34 36  1  0
 36 37  1  6
 36 38  1  0
 38 39  1  0
  3 40  1  0
 40 41  1  0
 41 42  2  0
 42 43  1  0
 43 44  2  0
 44 45  1  0
 45 46  2  0
 46  2  1  0
 22 14  1  0
 33 28  1  0
 39 36  1  0
 46 41  1  0
 22 17  1  0
  1 47  1  0
  1 48  1  0
  1 49  1  0
  6 50  1  0
  7 51  1  1
  8 52  1  0
  8 53  1  0
  8 54  1  0
 11 55  1  0
 12 56  1  1
 13 57  1  0
 13 58  1  0
 15 59  1  0
 16 60  1  0
 18 61  1  0
 19 62  1  0
 20 63  1  0
 21 64  1  0
 25 65  1  0
 26 66  1  6
 27 67  1  0
 27 68  1  0
 29 69  1  0
 30 70  1  0
 31 71  1  0
 32 72  1  0
 33 73  1  0
 37 74  1  0
 37 75  1  0
 37 76  1  0
 38 77  1  0
 38 78  1  0
 40 79  1  0
 40 80  1  0
 42 81  1  0
 43 82  1  0
 44 83  1  0
 45 84  1  0
M  END
$$$$
