
     RDKit          3D

 44 47  0  0  0  0  0  0  0  0999 V2000
    1.7064    1.2043   -0.3459 O   0  0  0  0  0  0  0  0  0  0  0  0
    1.2431    0.0494   -0.2281 C   0  0  0  0  0  0  0  0  0  0  0  0
    2.0854   -0.9565    0.3024 N   0  0  0  0  0  0  0  0  0  0  0  0
    3.4253   -0.6779    0.6957 C   0  0  0  0  0  0  0  0  0  0  0  0
    4.4740   -0.8027   -0.2096 C   0  0  0  0  0  0  0  0  0  0  0  0
    5.7807   -0.5363    0.1550 C   0  0  0  0  0  0  0  0  0  0  0  0
    6.0212   -0.1381    1.4576 C   0  0  0  0  0  0  0  0  0  0  0  0
    7.3203    0.1240    1.8106 F   0  0  0  0  0  0  0  0  0  0  0  0
    4.9949   -0.0143    2.3495 C   0  0  0  0  0  0  0  0  0  0  0  0
    3.6732   -0.2819    1.9873 C   0  0  0  0  0  0  0  0  0  0  0  0
   -0.0811   -0.2073   -0.6212 N   0  0  0  0  0  0  0  0  0  0  0  0
   -0.7105   -1.4478   -0.5398 N   0  0  0  0  0  0  0  0  0  0  0  0
   -1.9922   -1.3423   -0.5080 C   0  0  0  0  0  0  0  0  0  0  0  0
   -2.9878   -2.4060   -0.4261 C   0  0  0  0  0  0  0  0  0  0  0  0
   -2.6715   -3.7461   -0.3683 C   0  0  0  0  0  0  0  0  0  0  0  0
   -3.6989   -4.6857   -0.2918 C   0  0  0  0  0  0  0  0  0  0  0  0
   -4.9881   -4.3229   -0.2727 N   0  0  0  0  0  0  0  0  0  0  0  0
   -5.3296   -3.0094   -0.3285 C   0  0  0  0  0  0  0  0  0  0  0  0
   -4.3180   -2.0763   -0.4042 C   0  0  0  0  0  0  0  0  0  0  0  0
   -2.3183    0.0974   -0.5588 C   0  0  0  0  0  0  0  0  0  0  0  0
   -1.0669    0.6783   -1.1722 C   0  0  0  0  0  0  0  0  0  0  0  0
   -0.9279    2.0771   -0.7685 C   0  0  0  0  0  0  0  0  0  0  0  0
   -1.0277    3.1220   -1.6548 C   0  0  0  0  0  0  0  0  0  0  0  0
   -0.8927    4.4458   -1.2527 C   0  0  0  0  0  0  0  0  0  0  0  0
   -0.6508    4.7431    0.0714 C   0  0  0  0  0  0  0  0  0  0  0  0
   -0.5181    6.0401    0.4677 F   0  0  0  0  0  0  0  0  0  0  0  0
   -0.5484    3.7218    0.9660 C   0  0  0  0  0  0  0  0  0  0  0  0
   -0.6857    2.3920    0.5527 C   0  0  0  0  0  0  0  0  0  0  0  0
    1.7534   -1.9601    0.4291 H   0  0  0  0  0  0  0  0  0  0  0  0
    4.3004   -1.1123   -1.2284 H   0  0  0  0  0  0  0  0  0  0  0  0
    6.6177   -0.6267   -0.5351 H   0  0  0  0  0  0  0  0  0  0  0  0
    5.1733    0.2935    3.3599 H   0  0  0  0  0  0  0  0  0  0  0  0
    2.8979   -0.1714    2.7212 H   0  0  0  0  0  0  0  0  0  0  0  0
   -1.6391   -4.0300   -0.3839 H   0  0  0  0  0  0  0  0  0  0  0  0
   -3.4607   -5.7324   -0.2464 H   0  0  0  0  0  0  0  0  0  0  0  0
   -6.3835   -2.7681   -0.3102 H   0  0  0  0  0  0  0  0  0  0  0  0
   -4.6261   -1.0283   -0.4477 H   0  0  0  0  0  0  0  0  0  0  0  0
   -3.2228    0.3143   -1.1575 H   0  0  0  0  0  0  0  0  0  0  0  0
   -2.4123    0.4413    0.4922 H   0  0  0  0  0  0  0  0  0  0  0  0
   -1.1768    0.5608   -2.2741 H   0  0  0  0  0  0  0  0  0  0  0  0
   -1.2138    2.9195   -2.6814 H   0  0  0  0  0  0  0  0  0  0  0  0
   -0.9683    5.2761   -1.9360 H   0  0  0  0  0  0  0  0  0  0  0  0
   -0.3564    3.9493    2.0196 H   0  0  0  0  0  0  0  0  0  0  0  0
   -0.5932    1.6305    1.3141 H   0  0  0  0  0  0  0  0  0  0  0  0
  1  2  2  0
  2  3  1  0
  3  4  1  0
  4  5  2  0
  5  6  1  0
  6  7  2  0
  7  8  1  0
  7  9  1  0
  9 10  2  0
  2 11  1  0
 11 12  1  0
 12 13  2  0
 13 14  1  0
 14 15  2  0
 15 16  1  0
 16 17  2  0
 17 18  1  0
 18 19  2  0
 13 20  1  0
 20 21  1  0
 21 22  1  0
 22 23  2  0
 23 24  1  0
 24 25  2  0
 25 26  1  0
 25 27  1  0
 27 28  2  0
 10  4  1  0
 21 11  1  0
 28 22  1  0
 19 14  1  0
  3 29  1  0
  5 30  1  0
  6 31  1  0
  9 32  1  0
 10 33  1  0
 15 34  1  0
 16 35  1  0
 18 36  1  0
 19 37  1  0
 20 38  1  0
 20 39  1  0
 21 40  1  0
 23 41  1  0
 24 42  1  0
 27 43  1  0
 28 44  1  0
M  END
$$$$
