
     RDKit          3D

 34 35  0  0  0  0  0  0  0  0999 V2000
    6.4021   -0.7812    0.4971 N   0  0  0  0  0  0  0  0  0  0  0  0
    5.6467    0.6930    1.0470 S   0  0  0  0  0  0  0  0  0  0  0  0
    5.7343    0.8525    2.5171 O   0  0  0  0  0  0  0  0  0  0  0  0
    6.3353    1.8548    0.3846 O   0  0  0  0  0  0  0  0  0  0  0  0
    3.9615    0.6484    0.5670 C   0  0  0  0  0  0  0  0  0  0  0  0
    3.6619    1.2100   -0.6780 C   0  0  0  0  0  0  0  0  0  0  0  0
    2.3352    1.2033   -1.1187 C   0  0  0  0  0  0  0  0  0  0  0  0
    1.3192    0.6598   -0.3613 C   0  0  0  0  0  0  0  0  0  0  0  0
    1.6740    0.1251    0.8485 C   0  0  0  0  0  0  0  0  0  0  0  0
    2.9658    0.1070    1.3278 C   0  0  0  0  0  0  0  0  0  0  0  0
   -0.0082    0.7078   -0.9076 C   0  0  0  0  0  0  0  0  0  0  0  0
   -0.1862    1.2647   -2.0192 O   0  0  0  0  0  0  0  0  0  0  0  0
   -1.1781    0.1726   -0.3001 N   0  0  0  0  0  0  0  0  0  0  0  0
   -2.3528    0.3967   -1.1223 C   0  0  0  0  0  0  0  0  0  0  0  0
   -3.5795   -0.1596   -0.5198 C   0  0  0  0  0  0  0  0  0  0  0  0
   -3.6566   -1.5294   -0.6527 C   0  0  0  0  0  0  0  0  0  0  0  0
   -2.7270   -2.3173   -1.2670 F   0  0  0  0  0  0  0  0  0  0  0  0
   -4.7592   -2.2185   -0.1331 C   0  0  0  0  0  0  0  0  0  0  0  0
   -4.8897   -3.5663   -0.2345 F   0  0  0  0  0  0  0  0  0  0  0  0
   -5.7408   -1.4977    0.5006 C   0  0  0  0  0  0  0  0  0  0  0  0
   -6.8138   -2.1784    1.0052 F   0  0  0  0  0  0  0  0  0  0  0  0
   -5.6584   -0.1247    0.6311 C   0  0  0  0  0  0  0  0  0  0  0  0
   -6.6239    0.5958    1.2566 F   0  0  0  0  0  0  0  0  0  0  0  0
   -4.5653    0.5516    0.1149 C   0  0  0  0  0  0  0  0  0  0  0  0
   -4.3935    1.8929    0.1928 F   0  0  0  0  0  0  0  0  0  0  0  0
    5.8260   -1.5655    0.8977 H   0  0  0  0  0  0  0  0  0  0  0  0
    6.2594   -0.8286   -0.5299 H   0  0  0  0  0  0  0  0  0  0  0  0
    4.4314    1.6374   -1.2839 H   0  0  0  0  0  0  0  0  0  0  0  0
    2.1679    1.6532   -2.0901 H   0  0  0  0  0  0  0  0  0  0  0  0
    0.8932   -0.3070    1.4606 H   0  0  0  0  0  0  0  0  0  0  0  0
    3.2234   -0.3230    2.2918 H   0  0  0  0  0  0  0  0  0  0  0  0
   -1.0159   -0.2974    0.6397 H   0  0  0  0  0  0  0  0  0  0  0  0
   -2.2278   -0.0240   -2.1397 H   0  0  0  0  0  0  0  0  0  0  0  0
   -2.4603    1.4920   -1.2444 H   0  0  0  0  0  0  0  0  0  0  0  0
  1  2  1  0
  2  3  2  0
  2  4  2  0
  2  5  1  0
  5  6  2  0
  6  7  1  0
  7  8  2  0
  8  9  1  0
  9 10  2  0
  8 11  1  0
 11 12  2  0
 11 13  1  0
 13 14  1  0
 14 15  1  0
 15 16  2  0
 16 17  1  0
 16 18  1  0
 18 19  1  0
 18 20  2  0
 20 21  1  0
 20 22  1  0
 22 23  1  0
 22 24  2  0
 24 25  1  0
 10  5  1  0
 24 15  1  0
  1 26  1  0
  1 27  1  0
  6 28  1  0
  7 29  1  0
  9 30  1  0
 10 31  1  0
 13 32  1  0
 14 33  1  0
 14 34  1  0
M  END
$$$$
