
     RDKit          3D

 43 45  0  0  0  0  0  0  0  0999 V2000
    1.2106    1.3859   -0.0479 C   0  0  1  0  0  0  0  0  0  0  0  0
    1.3129    0.3655    1.4397 S   0  0  0  0  0  0  0  0  0  0  0  0
    2.8239    0.8900    2.2759 C   0  0  0  0  0  0  0  0  0  0  0  0
    3.7847    1.4083    1.2812 C   0  0  0  0  0  0  0  0  0  0  0  0
    5.1146    1.8685    1.8264 C   0  0  0  0  0  0  0  0  0  0  0  0
    3.7079    1.5536   -0.0244 C   0  0  0  0  0  0  0  0  0  0  0  0
    2.5124    1.1679   -0.7030 N   0  0  0  0  0  0  0  0  0  0  0  0
    1.8752    0.6034   -1.8328 C   0  0  0  0  0  0  0  0  0  0  0  0
    2.2186    0.0977   -2.9260 O   0  0  0  0  0  0  0  0  0  0  0  0
    0.5607    0.8288   -1.2435 C   0  0  1  0  0  0  0  0  0  0  0  0
   -0.1915   -0.4008   -1.1298 N   0  0  0  0  0  0  0  0  0  0  0  0
   -1.5137   -0.4559   -1.6026 C   0  0  0  0  0  0  0  0  0  0  0  0
   -2.1475    0.5226   -2.1468 O   0  0  0  0  0  0  0  0  0  0  0  0
   -2.6998   -1.2782   -1.7845 C   0  0  2  0  0  0  0  0  0  0  0  0
   -3.7775   -0.5624   -2.4458 N   0  0  0  0  0  0  0  0  0  0  0  0
   -3.2138   -1.7264   -0.4616 C   0  0  0  0  0  0  0  0  0  0  0  0
   -4.4459   -1.3574   -0.0452 C   0  0  0  0  0  0  0  0  0  0  0  0
   -4.9323   -1.8217    1.2855 C   0  0  0  0  0  0  0  0  0  0  0  0
   -3.8811   -1.4347    2.2793 C   0  0  0  0  0  0  0  0  0  0  0  0
   -2.6625   -1.8452    1.8761 C   0  0  0  0  0  0  0  0  0  0  0  0
   -2.5793   -2.5745    0.5799 C   0  0  0  0  0  0  0  0  0  0  0  0
    4.7958    2.0926   -0.8716 C   0  0  0  0  0  0  0  0  0  0  0  0
    4.6757    2.2249   -2.2346 O   0  0  0  0  0  0  0  0  0  0  0  0
    5.9339    2.4935   -0.5248 O   0  0  0  0  0  0  0  0  0  0  0  0
    0.9876    2.4508    0.1706 H   0  0  0  0  0  0  0  0  0  0  0  0
    2.6239    1.7071    3.0089 H   0  0  0  0  0  0  0  0  0  0  0  0
    3.2909    0.0431    2.8476 H   0  0  0  0  0  0  0  0  0  0  0  0
    5.2765    2.9612    1.6323 H   0  0  0  0  0  0  0  0  0  0  0  0
    5.9571    1.2782    1.4390 H   0  0  0  0  0  0  0  0  0  0  0  0
    5.0578    1.7851    2.9279 H   0  0  0  0  0  0  0  0  0  0  0  0
    0.0120    1.6366   -1.7915 H   0  0  0  0  0  0  0  0  0  0  0  0
   -0.0624   -1.3655   -0.7764 H   0  0  0  0  0  0  0  0  0  0  0  0
   -2.5295   -2.1871   -2.3999 H   0  0  0  0  0  0  0  0  0  0  0  0
   -4.5985   -1.1755   -2.6037 H   0  0  0  0  0  0  0  0  0  0  0  0
   -3.3802   -0.2653   -3.3886 H   0  0  0  0  0  0  0  0  0  0  0  0
   -5.0798   -0.7271   -0.6726 H   0  0  0  0  0  0  0  0  0  0  0  0
   -5.0123   -2.9059    1.2799 H   0  0  0  0  0  0  0  0  0  0  0  0
   -5.8964   -1.3058    1.5031 H   0  0  0  0  0  0  0  0  0  0  0  0
   -3.8034   -0.9116    3.2481 H   0  0  0  0  0  0  0  0  0  0  0  0
   -1.7149   -1.6897    2.4194 H   0  0  0  0  0  0  0  0  0  0  0  0
   -1.5395   -2.8484    0.3316 H   0  0  0  0  0  0  0  0  0  0  0  0
   -3.1635   -3.5330    0.7248 H   0  0  0  0  0  0  0  0  0  0  0  0
    5.0926    3.0065   -2.7195 H   0  0  0  0  0  0  0  0  0  0  0  0
  1  2  1  0
  2  3  1  0
  3  4  1  0
  4  5  1  0
  4  6  2  0
  6  7  1  0
  7  8  1  0
  8  9  2  0
  8 10  1  0
 10 11  1  0
 11 12  1  0
 12 13  2  0
 12 14  1  0
 14 15  1  0
 14 16  1  0
 16 17  2  0
 17 18  1  0
 18 19  1  0
 19 20  2  0
 20 21  1  0
  6 22  1  0
 22 23  1  0
 22 24  2  0
  7  1  1  0
 21 16  1  0
 10  1  1  0
  1 25  1  1
  3 26  1  0
  3 27  1  0
  5 28  1  0
  5 29  1  0
  5 30  1  0
 10 31  1  6
 11 32  1  0
 14 33  1  6
 15 34  1  0
 15 35  1  0
 17 36  1  0
 18 37  1  0
 18 38  1  0
 19 39  1  0
 20 40  1  0
 21 41  1  0
 21 42  1  0
 23 43  1  0
M  END
$$$$
