
     RDKit          3D

 29 30  0  0  0  0  0  0  0  0999 V2000
   -4.7012    1.5687   -0.9655 N   0  0  0  0  0  0  0  0  0  0  0  0
   -3.7085    0.7475   -0.3608 C   0  0  0  0  0  0  0  0  0  0  0  0
   -3.7788   -0.6265   -0.5488 C   0  0  0  0  0  0  0  0  0  0  0  0
   -4.7636   -1.1856   -1.2880 F   0  0  0  0  0  0  0  0  0  0  0  0
   -2.8035   -1.3694    0.0517 C   0  0  0  0  0  0  0  0  0  0  0  0
   -1.7629   -0.8472    0.8258 C   0  0  0  0  0  0  0  0  0  0  0  0
   -1.7400    0.5213    0.9804 C   0  0  0  0  0  0  0  0  0  0  0  0
   -2.6973    1.3259    0.3986 C   0  0  0  0  0  0  0  0  0  0  0  0
   -2.5959    3.0453    0.6432 Cl  0  0  0  0  0  0  0  0  0  0  0  0
   -0.6380   -1.9993    1.4904 S   0  0  0  0  0  0  0  0  0  0  0  0
   -0.0935   -1.4179    2.7735 O   0  0  0  0  0  0  0  0  0  0  0  0
   -1.3814   -3.2824    1.7846 O   0  0  0  0  0  0  0  0  0  0  0  0
    0.6819   -2.3400    0.4503 N   0  0  0  0  0  0  0  0  0  0  0  0
    1.4296   -1.1294    0.2189 C   0  0  0  0  0  0  0  0  0  0  0  0
    1.4816    0.0446    0.4808 N   0  0  0  0  0  0  0  0  0  0  0  0
    2.3644    0.8740    0.0545 N   0  0  0  0  0  0  0  0  0  0  0  0
    3.2975    0.5091   -0.7127 C   0  0  0  0  0  0  0  0  0  0  0  0
    2.9531   -1.2472   -0.9118 S   0  0  0  0  0  0  0  0  0  0  0  0
    4.6306    1.3471   -1.4627 S   0  0  0  0  0  0  0  0  0  0  0  0
    5.9612    1.2710   -0.3967 N   0  0  0  0  0  0  0  0  0  0  0  0
    4.2470    2.7549   -1.7613 O   0  0  0  0  0  0  0  0  0  0  0  0
    4.9660    0.5809   -2.7212 O   0  0  0  0  0  0  0  0  0  0  0  0
   -5.2160    2.3934   -0.5819 H   0  0  0  0  0  0  0  0  0  0  0  0
   -5.0803    1.4528   -1.9469 H   0  0  0  0  0  0  0  0  0  0  0  0
   -2.8821   -2.4471   -0.1120 H   0  0  0  0  0  0  0  0  0  0  0  0
   -0.9434    0.9017    1.5722 H   0  0  0  0  0  0  0  0  0  0  0  0
    0.9508   -3.2557    0.0228 H   0  0  0  0  0  0  0  0  0  0  0  0
    6.2193    0.2544   -0.2795 H   0  0  0  0  0  0  0  0  0  0  0  0
    5.6033    1.5550    0.5603 H   0  0  0  0  0  0  0  0  0  0  0  0
  1  2  1  0
  2  3  2  0
  3  4  1  0
  3  5  1  0
  5  6  2  0
  6  7  1  0
  7  8  2  0
  8  9  1  0
  6 10  1  0
 10 11  2  0
 10 12  2  0
 10 13  1  0
 13 14  1  0
 14 15  2  0
 15 16  1  0
 16 17  2  0
 17 18  1  0
 17 19  1  0
 19 20  1  0
 19 21  2  0
 19 22  2  0
  8  2  1  0
 18 14  1  0
  1 23  1  0
  1 24  1  0
  5 25  1  0
  7 26  1  0
 13 27  1  0
 20 28  1  0
 20 29  1  0
M  END
$$$$
