
     RDKit          3D

 55 57  0  0  0  0  0  0  0  0999 V2000
    8.4627    1.7133   -2.9843 C   0  0  0  0  0  0  0  0  0  0  0  0
    7.0757    1.9756   -2.7783 O   0  0  0  0  0  0  0  0  0  0  0  0
    6.3525    1.2846   -1.8288 C   0  0  0  0  0  0  0  0  0  0  0  0
    5.0012    1.5846   -1.6735 C   0  0  0  0  0  0  0  0  0  0  0  0
    4.2383    0.9041   -0.7211 C   0  0  0  0  0  0  0  0  0  0  0  0
    4.7969   -0.0654    0.0750 C   0  0  0  0  0  0  0  0  0  0  0  0
    3.9239   -0.7315    1.0510 C   0  0  0  0  0  0  0  0  0  0  0  0
    4.3476   -1.6946    1.8867 N   0  0  0  0  0  0  0  0  0  0  0  0
    3.3019   -2.0749    2.6309 C   0  0  0  0  0  0  0  0  0  0  0  0
    3.1085   -2.9778    3.6163 N   0  0  0  0  0  0  0  0  0  0  0  0
    1.9056   -3.1406    4.1929 C   0  0  0  0  0  0  0  0  0  0  0  0
    0.8017   -2.4042    3.8204 C   0  0  0  0  0  0  0  0  0  0  0  0
   -0.9008   -2.6775    4.6804 Br  0  0  0  0  0  0  0  0  0  0  0  0
    0.9511   -1.4728    2.8211 C   0  0  0  0  0  0  0  0  0  0  0  0
   -0.1608   -0.7149    2.4296 N   0  0  0  0  0  0  0  0  0  0  0  0
   -1.0343   -1.1854    1.3731 C   0  0  0  0  0  0  0  0  0  0  0  0
   -2.1657   -0.2110    1.1158 C   0  0  0  0  0  0  0  0  0  0  0  0
   -3.0678   -0.7046    0.0204 C   0  0  0  0  0  0  0  0  0  0  0  0
   -4.1328    0.2455   -0.1996 N   0  0  0  0  0  0  0  0  0  0  0  0
   -5.1298    0.0075   -1.1948 C   0  0  0  0  0  0  0  0  0  0  0  0
   -5.0269   -1.0639   -1.8592 O   0  0  0  0  0  0  0  0  0  0  0  0
   -6.1983    0.9965   -1.3907 C   0  0  0  0  0  0  0  0  0  0  0  0
   -5.6211    2.3544   -1.7834 C   0  0  0  0  0  0  0  0  0  0  0  0
   -7.0715    1.1968   -0.1903 C   0  0  0  0  0  0  0  0  0  0  0  0
   -7.1039    0.4706   -2.5115 C   0  0  0  0  0  0  0  0  0  0  0  0
    2.2139   -1.3290    2.2432 C   0  0  0  0  0  0  0  0  0  0  0  0
    2.6253   -0.5176    1.2767 N   0  0  0  0  0  0  0  0  0  0  0  0
    6.1319   -0.3666   -0.0735 C   0  0  0  0  0  0  0  0  0  0  0  0
    6.9044    0.3105   -1.0257 C   0  0  0  0  0  0  0  0  0  0  0  0
    9.0373    2.0722   -2.1114 H   0  0  0  0  0  0  0  0  0  0  0  0
    8.6414    0.6064   -3.0655 H   0  0  0  0  0  0  0  0  0  0  0  0
    8.8369    2.1946   -3.8981 H   0  0  0  0  0  0  0  0  0  0  0  0
    4.5727    2.3518   -2.3081 H   0  0  0  0  0  0  0  0  0  0  0  0
    3.1916    1.1398   -0.6042 H   0  0  0  0  0  0  0  0  0  0  0  0
    1.7448   -3.8741    4.9947 H   0  0  0  0  0  0  0  0  0  0  0  0
   -0.3941    0.1967    2.8761 H   0  0  0  0  0  0  0  0  0  0  0  0
   -0.4141   -1.3231    0.4645 H   0  0  0  0  0  0  0  0  0  0  0  0
   -1.4587   -2.1850    1.6155 H   0  0  0  0  0  0  0  0  0  0  0  0
   -2.7089    0.0181    2.0480 H   0  0  0  0  0  0  0  0  0  0  0  0
   -1.7052    0.7459    0.7662 H   0  0  0  0  0  0  0  0  0  0  0  0
   -2.4490   -0.8223   -0.9007 H   0  0  0  0  0  0  0  0  0  0  0  0
   -3.4634   -1.7218    0.2387 H   0  0  0  0  0  0  0  0  0  0  0  0
   -4.1725    1.1128    0.3743 H   0  0  0  0  0  0  0  0  0  0  0  0
   -6.4603    3.0958   -1.6887 H   0  0  0  0  0  0  0  0  0  0  0  0
   -4.8081    2.5658   -1.0810 H   0  0  0  0  0  0  0  0  0  0  0  0
   -5.2713    2.3015   -2.8439 H   0  0  0  0  0  0  0  0  0  0  0  0
   -6.4647    1.2671    0.7150 H   0  0  0  0  0  0  0  0  0  0  0  0
   -7.8493    0.3853   -0.1168 H   0  0  0  0  0  0  0  0  0  0  0  0
   -7.6479    2.1385   -0.3446 H   0  0  0  0  0  0  0  0  0  0  0  0
   -7.9139    1.1730   -2.7346 H   0  0  0  0  0  0  0  0  0  0  0  0
   -7.4786   -0.5111   -2.1777 H   0  0  0  0  0  0  0  0  0  0  0  0
   -6.4518    0.3342   -3.4001 H   0  0  0  0  0  0  0  0  0  0  0  0
    2.0390    0.1731    0.7739 H   0  0  0  0  0  0  0  0  0  0  0  0
    6.5676   -1.1234    0.5478 H   0  0  0  0  0  0  0  0  0  0  0  0
    7.9510    0.0900   -1.1580 H   0  0  0  0  0  0  0  0  0  0  0  0
  1  2  1  0
  2  3  1  0
  3  4  2  0
  4  5  1  0
  5  6  2  0
  6  7  1  0
  7  8  2  0
  8  9  1  0
  9 10  2  0
 10 11  1  0
 11 12  2  0
 12 13  1  0
 12 14  1  0
 14 15  1  0
 15 16  1  0
 16 17  1  0
 17 18  1  0
 18 19  1  0
 19 20  1  0
 20 21  2  0
 20 22  1  0
 22 23  1  0
 22 24  1  0
 22 25  1  0
 14 26  2  0
 26 27  1  0
  6 28  1  0
 28 29  2  0
 29  3  1  0
 27  7  1  0
 26  9  1  0
  1 30  1  0
  1 31  1  0
  1 32  1  0
  4 33  1  0
  5 34  1  0
 11 35  1  0
 15 36  1  0
 16 37  1  0
 16 38  1  0
 17 39  1  0
 17 40  1  0
 18 41  1  0
 18 42  1  0
 19 43  1  0
 23 44  1  0
 23 45  1  0
 23 46  1  0
 24 47  1  0
 24 48  1  0
 24 49  1  0
 25 50  1  0
 25 51  1  0
 25 52  1  0
 27 53  1  0
 28 54  1  0
 29 55  1  0
M  END
$$$$
