
     RDKit          3D

 54 58  0  0  0  0  0  0  0  0999 V2000
   -7.8876   -0.0351   -0.1706 C   0  0  0  0  0  0  0  0  0  0  0  0
   -6.5376   -0.2315   -0.5626 O   0  0  0  0  0  0  0  0  0  0  0  0
   -5.5912   -0.6485    0.3624 C   0  0  0  0  0  0  0  0  0  0  0  0
   -5.9732   -0.8410    1.5384 O   0  0  0  0  0  0  0  0  0  0  0  0
   -4.2214   -0.8588    0.0120 N   0  0  0  0  0  0  0  0  0  0  0  0
   -3.4067   -1.2985    1.1546 C   0  0  0  0  0  0  0  0  0  0  0  0
   -2.5423   -0.0987    1.4590 C   0  0  0  0  0  0  0  0  0  0  0  0
   -2.6138    0.3649    2.7412 C   0  0  0  0  0  0  0  0  0  0  0  0
   -1.8869    1.5045    3.0864 C   0  0  0  0  0  0  0  0  0  0  0  0
   -1.9630    2.1144    4.7254 Cl  0  0  0  0  0  0  0  0  0  0  0  0
   -1.1060    2.1570    2.1445 C   0  0  0  0  0  0  0  0  0  0  0  0
   -1.0210    1.7027    0.8387 C   0  0  0  0  0  0  0  0  0  0  0  0
   -1.7377    0.5907    0.5412 C   0  0  0  0  0  0  0  0  0  0  0  0
   -1.5306    0.2026   -0.8207 N   0  0  0  0  0  0  0  0  0  0  0  0
   -2.4975   -0.3058   -1.6655 C   0  0  0  0  0  0  0  0  0  0  0  0
   -1.8665   -0.5011   -2.8076 N   0  0  0  0  0  0  0  0  0  0  0  0
   -0.6157   -0.1494   -2.6888 N   0  0  0  0  0  0  0  0  0  0  0  0
   -0.3472    0.3119   -1.4164 C   0  0  0  0  0  0  0  0  0  0  0  0
    0.9298    0.7270   -0.8618 C   0  0  0  0  0  0  0  0  0  0  0  0
    1.9562    0.3365   -1.9921 C   0  0  0  0  0  0  0  0  0  0  0  0
    3.2555    0.9909   -1.6497 C   0  0  0  0  0  0  0  0  0  0  0  0
    3.7370    0.3864   -0.4005 N   0  0  0  0  0  0  0  0  0  0  0  0
    5.0991   -0.0160   -0.3930 C   0  0  0  0  0  0  0  0  0  0  0  0
    5.6937   -0.5014    0.7457 C   0  0  0  0  0  0  0  0  0  0  0  0
    7.0330   -0.8965    0.7337 C   0  0  0  0  0  0  0  0  0  0  0  0
    7.7410   -0.7922   -0.4278 C   0  0  0  0  0  0  0  0  0  0  0  0
    7.1535   -0.3099   -1.5623 C   0  0  0  0  0  0  0  0  0  0  0  0
    5.8667    0.0578   -1.5071 N   0  0  0  0  0  0  0  0  0  0  0  0
    2.8140    0.2580    0.6745 C   0  0  0  0  0  0  0  0  0  0  0  0
    1.4444   -0.1784    0.2419 C   0  0  0  0  0  0  0  0  0  0  0  0
   -3.9160   -0.6058   -1.3526 C   0  0  0  0  0  0  0  0  0  0  0  0
   -8.4576    0.3581   -1.0297 H   0  0  0  0  0  0  0  0  0  0  0  0
   -8.3639   -1.0248    0.0784 H   0  0  0  0  0  0  0  0  0  0  0  0
   -7.9809    0.6732    0.6629 H   0  0  0  0  0  0  0  0  0  0  0  0
   -2.8147   -2.1837    0.9276 H   0  0  0  0  0  0  0  0  0  0  0  0
   -4.0186   -1.4748    2.0380 H   0  0  0  0  0  0  0  0  0  0  0  0
   -3.2256   -0.1446    3.4776 H   0  0  0  0  0  0  0  0  0  0  0  0
   -0.5280    3.0527    2.3922 H   0  0  0  0  0  0  0  0  0  0  0  0
   -0.4844    2.2362    0.1310 H   0  0  0  0  0  0  0  0  0  0  0  0
    1.2180    1.7599   -0.7919 H   0  0  0  0  0  0  0  0  0  0  0  0
    1.5442    0.7731   -2.9190 H   0  0  0  0  0  0  0  0  0  0  0  0
    2.0010   -0.7623   -2.0055 H   0  0  0  0  0  0  0  0  0  0  0  0
    3.9883    0.9829   -2.4476 H   0  0  0  0  0  0  0  0  0  0  0  0
    2.9948    2.0490   -1.3442 H   0  0  0  0  0  0  0  0  0  0  0  0
    5.1607   -0.5944    1.6835 H   0  0  0  0  0  0  0  0  0  0  0  0
    7.5157   -1.2816    1.6246 H   0  0  0  0  0  0  0  0  0  0  0  0
    8.7963   -1.0944   -0.4710 H   0  0  0  0  0  0  0  0  0  0  0  0
    7.7172   -0.2298   -2.4759 H   0  0  0  0  0  0  0  0  0  0  0  0
    3.1925   -0.5124    1.3766 H   0  0  0  0  0  0  0  0  0  0  0  0
    2.6845    1.1912    1.2676 H   0  0  0  0  0  0  0  0  0  0  0  0
    1.5914   -1.1943   -0.2429 H   0  0  0  0  0  0  0  0  0  0  0  0
    0.8002   -0.3642    1.0769 H   0  0  0  0  0  0  0  0  0  0  0  0
   -4.4849    0.3073   -1.6912 H   0  0  0  0  0  0  0  0  0  0  0  0
   -4.3082   -1.4160   -2.0381 H   0  0  0  0  0  0  0  0  0  0  0  0
  1  2  1  0
  2  3  1  0
  3  4  2  0
  3  5  1  0
  5  6  1  0
  6  7  1  0
  7  8  2  0
  8  9  1  0
  9 10  1  0
  9 11  2  0
 11 12  1  0
 12 13  2  0
 13 14  1  0
 14 15  1  0
 15 16  2  0
 16 17  1  0
 17 18  2  0
 18 19  1  0
 19 20  1  0
 20 21  1  0
 21 22  1  0
 22 23  1  0
 23 24  2  0
 24 25  1  0
 25 26  2  0
 26 27  1  0
 27 28  2  0
 22 29  1  0
 29 30  1  0
 15 31  1  0
 31  5  1  0
 13  7  1  0
 18 14  1  0
 30 19  1  0
 28 23  1  0
  1 32  1  0
  1 33  1  0
  1 34  1  0
  6 35  1  0
  6 36  1  0
  8 37  1  0
 11 38  1  0
 12 39  1  0
 19 40  1  0
 20 41  1  0
 20 42  1  0
 21 43  1  0
 21 44  1  0
 24 45  1  0
 25 46  1  0
 26 47  1  0
 27 48  1  0
 29 49  1  0
 29 50  1  0
 30 51  1  0
 30 52  1  0
 31 53  1  0
 31 54  1  0
M  END
$$$$
