
     RDKit          3D

 44 46  0  0  0  0  0  0  0  0999 V2000
   -5.4539   -1.5057   -0.4802 C   0  0  0  0  0  0  0  0  0  0  0  0
   -5.7543   -0.1686    0.2138 C   0  0  0  0  0  0  0  0  0  0  0  0
   -7.2529   -0.2012    0.4870 C   0  0  0  0  0  0  0  0  0  0  0  0
   -4.9615   -0.1323    1.4754 C   0  0  0  0  0  0  0  0  0  0  0  0
   -3.6122   -0.2279    1.2638 O   0  0  0  0  0  0  0  0  0  0  0  0
   -2.7043    0.5438    0.6120 C   0  0  0  0  0  0  0  0  0  0  0  0
   -1.4090    0.0005    0.6551 C   0  0  0  0  0  0  0  0  0  0  0  0
   -1.1541   -1.1970    1.3114 O   0  0  0  0  0  1  0  0  0  0  0  0
   -0.3212    0.5953    0.0670 C   0  0  0  0  0  0  0  0  0  0  0  0
   -0.5512    1.7930   -0.5947 C   0  0  0  0  0  0  0  0  0  0  0  0
   -1.7866    2.3908   -0.6828 C   0  0  0  0  0  0  0  0  0  0  0  0
   -2.8247    1.7329   -0.0677 C   0  0  0  0  0  0  0  0  0  0  0  0
    1.0411    0.0849    0.0761 C   0  0  0  0  0  0  0  0  0  0  0  0
    2.0984    0.6770   -0.5038 N   0  0  0  0  0  0  0  0  0  0  0  0
    3.2161   -0.0375   -0.3206 C   0  0  0  0  0  0  0  0  0  0  0  0
    4.5108    0.1770   -0.7275 C   0  0  0  0  0  0  0  0  0  0  0  0
    5.4522   -0.7714   -0.3673 C   0  0  0  0  0  0  0  0  0  0  0  0
    5.1429   -1.9067    0.3738 C   0  0  0  0  0  0  0  0  0  0  0  0
    3.8301   -2.0838    0.7623 C   0  0  0  0  0  0  0  0  0  0  0  0
    2.8749   -1.1523    0.4152 C   0  0  0  0  0  0  0  0  0  0  0  0
    1.5569   -1.0268    0.6251 N   0  0  0  0  0  0  0  0  0  0  0  0
    6.8316   -0.5640   -0.7882 C   0  0  0  0  0  0  0  0  0  0  0  0
    7.4829    0.6827   -0.9969 N   0  0  0  0  0  0  0  0  0  0  0  0
    7.5611   -1.6051   -1.0009 N   0  0  0  0  0  4  0  0  0  0  0  0
   -5.9493   -2.2762    0.1552 H   0  0  0  0  0  0  0  0  0  0  0  0
   -4.3848   -1.6567   -0.6356 H   0  0  0  0  0  0  0  0  0  0  0  0
   -6.0374   -1.4538   -1.4386 H   0  0  0  0  0  0  0  0  0  0  0  0
   -5.5357    0.6833   -0.4209 H   0  0  0  0  0  0  0  0  0  0  0  0
   -7.5810    0.8226    0.7758 H   0  0  0  0  0  0  0  0  0  0  0  0
   -7.7801   -0.4314   -0.4654 H   0  0  0  0  0  0  0  0  0  0  0  0
   -7.5431   -0.9468    1.2298 H   0  0  0  0  0  0  0  0  0  0  0  0
   -5.2210    0.7889    2.0580 H   0  0  0  0  0  0  0  0  0  0  0  0
   -5.2958   -0.9626    2.1690 H   0  0  0  0  0  0  0  0  0  0  0  0
    0.2669    2.3267   -1.0885 H   0  0  0  0  0  0  0  0  0  0  0  0
   -1.9586    3.3162   -1.1953 H   0  0  0  0  0  0  0  0  0  0  0  0
   -3.7906    2.1593   -0.0988 H   0  0  0  0  0  0  0  0  0  0  0  0
    4.7889    1.0382   -1.2990 H   0  0  0  0  0  0  0  0  0  0  0  0
    5.8980   -2.6343    0.6429 H   0  0  0  0  0  0  0  0  0  0  0  0
    3.5496   -2.9501    1.3374 H   0  0  0  0  0  0  0  0  0  0  0  0
    1.0523   -1.7414    1.1584 H   0  0  0  0  0  0  0  0  0  0  0  0
    7.7785    1.5973   -0.5915 H   0  0  0  0  0  0  0  0  0  0  0  0
    7.9431    1.0754   -1.8448 H   0  0  0  0  0  0  0  0  0  0  0  0
    7.4449   -2.6224   -0.9568 H   0  0  0  0  0  0  0  0  0  0  0  0
    8.5420   -1.6213   -1.2988 H   0  0  0  0  0  0  0  0  0  0  0  0
  1  2  1  0
  2  3  1  0
  2  4  1  0
  4  5  1  0
  5  6  1  0
  6  7  2  0
  7  8  1  0
  7  9  1  0
  9 10  2  0
 10 11  1  0
 11 12  2  0
  9 13  1  0
 13 14  2  0
 14 15  1  0
 15 16  2  0
 16 17  1  0
 17 18  2  0
 18 19  1  0
 19 20  2  0
 20 21  1  0
 17 22  1  0
 22 23  1  0
 22 24  2  0
 12  6  1  0
 21 13  1  0
 20 15  1  0
  1 25  1  0
  1 26  1  0
  1 27  1  0
  2 28  1  0
  3 29  1  0
  3 30  1  0
  3 31  1  0
  4 32  1  0
  4 33  1  0
 10 34  1  0
 11 35  1  0
 12 36  1  0
 16 37  1  0
 18 38  1  0
 19 39  1  0
 21 40  1  0
 23 41  1  0
 23 42  1  0
 24 43  1  0
 24 44  1  0
M  CHG  2   8  -1  24   1
M  END
$$$$
