
     RDKit          3D

 54 54  0  0  0  0  0  0  0  0999 V2000
    3.9409    4.2424   -0.9830 C   0  0  0  0  0  0  0  0  0  0  0  0
    2.5540    3.7386   -0.6431 C   0  0  0  0  0  0  0  0  0  0  0  0
    1.9464    3.0223   -1.8260 C   0  0  0  0  0  0  0  0  0  0  0  0
    0.5773    2.4992   -1.5568 C   0  0  0  0  0  0  0  0  0  0  0  0
    0.5340    1.5069   -0.4167 C   0  0  1  0  0  0  0  0  0  0  0  0
   -0.9103    1.0977   -0.2988 C   0  0  0  0  0  0  0  0  0  0  0  0
   -1.5506    1.0674    0.7954 N   0  0  0  0  0  0  0  0  0  0  0  0
   -2.8872    0.6671    0.7544 N   0  0  0  0  0  0  0  0  0  0  0  0
   -3.2823   -0.6052    0.2849 C   0  0  0  0  0  0  0  0  0  0  0  0
   -2.3994   -1.4047   -0.1099 O   0  0  0  0  0  0  0  0  0  0  0  0
   -4.6410   -1.0212    0.2392 N   0  0  0  0  0  0  0  0  0  0  0  0
   -5.0255   -2.3098   -0.2456 C   0  0  0  0  0  0  0  0  0  0  0  0
   -6.1128   -2.9637    0.5445 C   0  0  0  0  0  0  0  0  0  0  0  0
   -6.4387   -2.1819    1.6301 O   0  0  0  0  0  0  0  0  0  0  0  0
   -6.8685   -0.9469    1.1089 C   0  0  0  0  0  0  0  0  0  0  0  0
   -5.6719   -0.1065    0.6976 C   0  0  0  0  0  0  0  0  0  0  0  0
    1.2520    0.2887   -0.7287 N   0  0  0  0  0  0  0  0  0  0  0  0
    2.2888   -0.2076    0.0919 C   0  0  0  0  0  0  0  0  0  0  0  0
    2.6071    0.4177    1.1263 O   0  0  0  0  0  0  0  0  0  0  0  0
    2.9266   -1.3645   -0.2607 O   0  0  0  0  0  0  0  0  0  0  0  0
    3.9563   -1.8977    0.5128 C   0  0  0  0  0  0  0  0  0  0  0  0
    5.1406   -0.9628    0.6626 C   0  0  0  0  0  0  0  0  0  0  0  0
    3.4137   -2.3440    1.8386 C   0  0  0  0  0  0  0  0  0  0  0  0
    4.4606   -3.1536   -0.2110 C   0  0  0  0  0  0  0  0  0  0  0  0
    3.8889    5.2940   -1.3864 H   0  0  0  0  0  0  0  0  0  0  0  0
    4.4659    3.5818   -1.6940 H   0  0  0  0  0  0  0  0  0  0  0  0
    4.5756    4.3026   -0.0775 H   0  0  0  0  0  0  0  0  0  0  0  0
    1.9542    4.5726   -0.2851 H   0  0  0  0  0  0  0  0  0  0  0  0
    2.6821    2.9933    0.1685 H   0  0  0  0  0  0  0  0  0  0  0  0
    1.8911    3.7630   -2.6503 H   0  0  0  0  0  0  0  0  0  0  0  0
    2.6249    2.2255   -2.1715 H   0  0  0  0  0  0  0  0  0  0  0  0
   -0.1226    3.3439   -1.3980 H   0  0  0  0  0  0  0  0  0  0  0  0
    0.2120    1.9751   -2.4666 H   0  0  0  0  0  0  0  0  0  0  0  0
    0.9338    1.9155    0.5108 H   0  0  0  0  0  0  0  0  0  0  0  0
   -1.3628    0.8240   -1.2653 H   0  0  0  0  0  0  0  0  0  0  0  0
   -3.6169    1.3285    1.0792 H   0  0  0  0  0  0  0  0  0  0  0  0
   -5.3943   -2.2541   -1.3138 H   0  0  0  0  0  0  0  0  0  0  0  0
   -4.1764   -3.0282   -0.2846 H   0  0  0  0  0  0  0  0  0  0  0  0
   -7.0579   -3.0946   -0.0572 H   0  0  0  0  0  0  0  0  0  0  0  0
   -5.8380   -3.9920    0.8910 H   0  0  0  0  0  0  0  0  0  0  0  0
   -7.4465   -0.4549    1.9163 H   0  0  0  0  0  0  0  0  0  0  0  0
   -7.4483   -1.1602    0.2068 H   0  0  0  0  0  0  0  0  0  0  0  0
   -5.3657    0.4735    1.5989 H   0  0  0  0  0  0  0  0  0  0  0  0
   -5.9193    0.5957   -0.1064 H   0  0  0  0  0  0  0  0  0  0  0  0
    0.9790   -0.2407   -1.6087 H   0  0  0  0  0  0  0  0  0  0  0  0
    5.9601   -1.2574   -0.0358 H   0  0  0  0  0  0  0  0  0  0  0  0
    5.5358   -1.0699    1.7010 H   0  0  0  0  0  0  0  0  0  0  0  0
    4.8187    0.0687    0.4593 H   0  0  0  0  0  0  0  0  0  0  0  0
    2.8141   -3.2735    1.6595 H   0  0  0  0  0  0  0  0  0  0  0  0
    2.7049   -1.6134    2.2785 H   0  0  0  0  0  0  0  0  0  0  0  0
    4.2677   -2.5619    2.5185 H   0  0  0  0  0  0  0  0  0  0  0  0
    4.3928   -2.9317   -1.2999 H   0  0  0  0  0  0  0  0  0  0  0  0
    3.7536   -3.9785   -0.0042 H   0  0  0  0  0  0  0  0  0  0  0  0
    5.4832   -3.4243    0.1100 H   0  0  0  0  0  0  0  0  0  0  0  0
  1  2  1  0
  2  3  1  0
  3  4  1  0
  4  5  1  0
  5  6  1  0
  6  7  2  3
  7  8  1  0
  8  9  1  0
  9 10  2  0
  9 11  1  0
 11 12  1  0
 12 13  1  0
 13 14  1  0
 14 15  1  0
 15 16  1  0
  5 17  1  0
 17 18  1  0
 18 19  2  0
 18 20  1  0
 20 21  1  0
 21 22  1  0
 21 23  1  0
 21 24  1  0
 16 11  1  0
  1 25  1  0
  1 26  1  0
  1 27  1  0
  2 28  1  0
  2 29  1  0
  3 30  1  0
  3 31  1  0
  4 32  1  0
  4 33  1  0
  5 34  1  1
  6 35  1  0
  8 36  1  0
 12 37  1  0
 12 38  1  0
 13 39  1  0
 13 40  1  0
 15 41  1  0
 15 42  1  0
 16 43  1  0
 16 44  1  0
 17 45  1  0
 22 46  1  0
 22 47  1  0
 22 48  1  0
 23 49  1  0
 23 50  1  0
 23 51  1  0
 24 52  1  0
 24 53  1  0
 24 54  1  0
M  END
$$$$
