
     RDKit          3D

 63 66  0  0  0  0  0  0  0  0999 V2000
    0.5033   -3.7613   -1.7719 C   0  0  0  0  0  0  0  0  0  0  0  0
    0.4644   -2.8874   -0.5668 C   0  0  1  0  0  0  0  0  0  0  0  0
    1.6595   -2.0170   -0.4014 C   0  0  0  0  0  0  0  0  0  0  0  0
    1.7366   -0.7372   -0.8666 C   0  0  0  0  0  0  0  0  0  0  0  0
    2.8865    0.0434   -0.6960 C   0  0  0  0  0  0  0  0  0  0  0  0
    3.9842   -0.4620   -0.0473 C   0  0  0  0  0  0  0  0  0  0  0  0
    5.2050    0.3581    0.1372 C   0  0  0  0  0  0  0  0  0  0  0  0
    6.4439   -0.2463    0.1740 C   0  0  0  0  0  0  0  0  0  0  0  0
    7.5629    0.5661    0.3493 C   0  0  0  0  0  0  0  0  0  0  0  0
    7.4484    1.9341    0.4832 C   0  0  0  0  0  0  0  0  0  0  0  0
    8.4962    2.6392    0.6415 O   0  0  0  0  0  0  0  0  0  0  0  0
    6.2270    2.4991    0.4436 N   0  0  0  0  0  0  0  0  0  0  0  0
    6.1543    3.9404    0.5884 C   0  0  0  0  0  0  0  0  0  0  0  0
    5.1369    1.7215    0.2743 C   0  0  0  0  0  0  0  0  0  0  0  0
    3.9174   -1.7490    0.4252 C   0  0  0  0  0  0  0  0  0  0  0  0
    2.7902   -2.5163    0.2586 C   0  0  0  0  0  0  0  0  0  0  0  0
   -0.7981   -2.2021   -0.3602 N   0  0  0  0  0  0  0  0  0  0  0  0
   -1.5967   -2.3782    0.8334 C   0  0  0  0  0  0  0  0  0  0  0  0
   -2.9785   -1.8572    0.5942 C   0  0  0  0  0  0  0  0  0  0  0  0
   -3.0094   -0.3989    0.1149 C   0  0  2  0  0  0  0  0  0  0  0  0
   -2.7364    0.4385    1.3153 C   0  0  0  0  0  0  0  0  0  0  0  0
   -2.7446    1.9081    1.1615 C   0  0  0  0  0  0  0  0  0  0  0  0
   -4.0454    2.5302    0.8474 C   0  0  0  0  0  0  0  0  0  0  0  0
   -4.0857    3.7598    0.1159 N   0  0  0  0  0  0  0  0  0  0  0  0
   -5.1610    2.0208    1.2066 O   0  0  0  0  0  0  0  0  0  0  0  0
   -4.2718   -0.1066   -0.5827 C   0  0  0  0  0  0  0  0  0  0  0  0
   -4.3362    0.9125   -1.5430 C   0  0  0  0  0  0  0  0  0  0  0  0
   -5.5116    1.1934   -2.2053 C   0  0  0  0  0  0  0  0  0  0  0  0
   -6.6661    0.4886   -1.9530 C   0  0  0  0  0  0  0  0  0  0  0  0
   -6.6140   -0.5140   -1.0122 C   0  0  0  0  0  0  0  0  0  0  0  0
   -5.4397   -0.7967   -0.3486 C   0  0  0  0  0  0  0  0  0  0  0  0
   -1.9666   -0.1822   -0.8681 O   0  0  0  0  0  0  0  0  0  0  0  0
   -1.2936   -1.3002   -1.3371 C   0  0  0  0  0  0  0  0  0  0  0  0
   -1.1042   -1.5499   -2.5692 O   0  0  0  0  0  0  0  0  0  0  0  0
    0.9389   -3.2785   -2.6702 H   0  0  0  0  0  0  0  0  0  0  0  0
    1.1736   -4.6372   -1.5479 H   0  0  0  0  0  0  0  0  0  0  0  0
   -0.5267   -4.1277   -1.9619 H   0  0  0  0  0  0  0  0  0  0  0  0
    0.5404   -3.5862    0.3467 H   0  0  0  0  0  0  0  0  0  0  0  0
    0.9004   -0.2615   -1.3915 H   0  0  0  0  0  0  0  0  0  0  0  0
    2.9129    1.0432   -1.0734 H   0  0  0  0  0  0  0  0  0  0  0  0
    6.5371   -1.3142    0.0699 H   0  0  0  0  0  0  0  0  0  0  0  0
    8.5515    0.1331    0.3838 H   0  0  0  0  0  0  0  0  0  0  0  0
    6.5501    4.3609   -0.3794 H   0  0  0  0  0  0  0  0  0  0  0  0
    5.0945    4.2810    0.6282 H   0  0  0  0  0  0  0  0  0  0  0  0
    6.6991    4.3301    1.4475 H   0  0  0  0  0  0  0  0  0  0  0  0
    4.1762    2.1991    0.2467 H   0  0  0  0  0  0  0  0  0  0  0  0
    4.8029   -2.1482    0.9453 H   0  0  0  0  0  0  0  0  0  0  0  0
    2.7597   -3.5360    0.6421 H   0  0  0  0  0  0  0  0  0  0  0  0
   -1.6942   -3.4590    1.0990 H   0  0  0  0  0  0  0  0  0  0  0  0
   -1.1242   -1.8050    1.6605 H   0  0  0  0  0  0  0  0  0  0  0  0
   -3.6386   -1.9409    1.4649 H   0  0  0  0  0  0  0  0  0  0  0  0
   -3.4054   -2.4683   -0.2553 H   0  0  0  0  0  0  0  0  0  0  0  0
   -1.7846    0.0847    1.7898 H   0  0  0  0  0  0  0  0  0  0  0  0
   -3.5184    0.1868    2.0812 H   0  0  0  0  0  0  0  0  0  0  0  0
   -2.4298    2.3752    2.1446 H   0  0  0  0  0  0  0  0  0  0  0  0
   -1.9776    2.2793    0.4294 H   0  0  0  0  0  0  0  0  0  0  0  0
   -4.3488    3.7356   -0.8891 H   0  0  0  0  0  0  0  0  0  0  0  0
   -3.8571    4.6795    0.5685 H   0  0  0  0  0  0  0  0  0  0  0  0
   -3.4540    1.5105   -1.7929 H   0  0  0  0  0  0  0  0  0  0  0  0
   -5.5592    1.9953   -2.9598 H   0  0  0  0  0  0  0  0  0  0  0  0
   -7.5798    0.7368   -2.4952 H   0  0  0  0  0  0  0  0  0  0  0  0
   -7.5346   -1.0553   -0.8302 H   0  0  0  0  0  0  0  0  0  0  0  0
   -5.4616   -1.6045    0.3873 H   0  0  0  0  0  0  0  0  0  0  0  0
  1  2  1  0
  2  3  1  0
  3  4  2  0
  4  5  1  0
  5  6  2  0
  6  7  1  0
  7  8  1  0
  8  9  2  0
  9 10  1  0
 10 11  2  0
 10 12  1  0
 12 13  1  0
 12 14  1  0
  6 15  1  0
 15 16  2  0
  2 17  1  0
 17 18  1  0
 18 19  1  0
 19 20  1  0
 20 21  1  1
 21 22  1  0
 22 23  1  0
 23 24  1  0
 23 25  2  0
 20 26  1  0
 26 27  2  0
 27 28  1  0
 28 29  2  0
 29 30  1  0
 30 31  2  0
 20 32  1  0
 32 33  1  0
 33 34  2  0
 16  3  1  0
 33 17  1  0
 14  7  2  0
 31 26  1  0
  1 35  1  0
  1 36  1  0
  1 37  1  0
  2 38  1  1
  4 39  1  0
  5 40  1  0
  8 41  1  0
  9 42  1  0
 13 43  1  0
 13 44  1  0
 13 45  1  0
 14 46  1  0
 15 47  1  0
 16 48  1  0
 18 49  1  0
 18 50  1  0
 19 51  1  0
 19 52  1  0
 21 53  1  0
 21 54  1  0
 22 55  1  0
 22 56  1  0
 24 57  1  0
 24 58  1  0
 27 59  1  0
 28 60  1  0
 29 61  1  0
 30 62  1  0
 31 63  1  0
M  END
$$$$
