
     RDKit          3D

 73 75  0  0  0  0  0  0  0  0999 V2000
   -8.4849   -1.5531   -3.4593 C   0  0  0  0  0  0  0  0  0  0  0  0
   -7.9807   -2.0385   -2.2393 O   0  0  0  0  0  0  0  0  0  0  0  0
   -7.1279   -1.2517   -1.4953 C   0  0  0  0  0  0  0  0  0  0  0  0
   -6.7482    0.0038   -1.9098 C   0  0  0  0  0  0  0  0  0  0  0  0
   -5.8895    0.7847   -1.1494 C   0  0  0  0  0  0  0  0  0  0  0  0
   -5.4236    0.2853    0.0236 C   0  0  0  0  0  0  0  0  0  0  0  0
   -4.5194    1.0275    0.8830 C   0  0  0  0  0  0  0  0  0  0  0  0
   -3.1060    0.7801    0.6834 N   0  0  0  0  0  0  0  0  0  0  0  0
   -2.3991    1.3801   -0.3551 C   0  0  0  0  0  0  0  0  0  0  0  0
   -3.0259    2.1662   -1.1314 O   0  0  0  0  0  0  0  0  0  0  0  0
   -0.9867    1.1777   -0.6236 C   0  0  1  0  0  0  0  0  0  0  0  0
   -0.2027    2.4768   -0.3334 C   0  0  0  0  0  0  0  0  0  0  0  0
   -0.6683    3.6063   -1.1674 C   0  0  0  0  0  0  0  0  0  0  0  0
   -0.1366    3.8415   -2.4272 C   0  0  0  0  0  0  0  0  0  0  0  0
   -0.5440    4.8922   -3.2210 C   0  0  0  0  0  0  0  0  0  0  0  0
   -1.5150    5.7671   -2.7841 C   0  0  0  0  0  0  0  0  0  0  0  0
   -2.0578    5.5547   -1.5369 C   0  0  0  0  0  0  0  0  0  0  0  0
   -1.6447    4.5005   -0.7484 C   0  0  0  0  0  0  0  0  0  0  0  0
   -0.4110    0.1709    0.2326 N   0  0  0  0  0  0  0  0  0  0  0  0
    0.9842   -0.1798    0.1165 C   0  0  0  0  0  0  0  0  0  0  0  0
    1.5668    0.0306   -0.9982 N   0  0  0  0  0  0  0  0  0  0  0  0
    1.7322   -0.7472    1.1745 N   0  0  0  0  0  0  0  0  0  0  0  0
    3.1055   -1.0851    1.0288 C   0  0  0  0  0  0  0  0  0  0  0  0
    3.6375   -0.8503   -0.1019 O   0  0  0  0  0  0  0  0  0  0  0  0
    3.8820   -1.6898    2.1582 C   0  0  0  0  0  0  0  0  0  0  0  0
    5.2694   -1.9570    1.7863 C   0  0  0  0  0  0  0  0  0  0  0  0
    5.6165   -3.1309    1.1680 C   0  0  0  0  0  0  0  0  0  0  0  0
    6.9375   -3.3668    0.8262 C   0  0  0  0  0  0  0  0  0  0  0  0
    7.8877   -2.4203    1.1114 C   0  0  0  0  0  0  0  0  0  0  0  0
    9.2196   -2.6376    0.7768 O   0  0  0  0  0  0  0  0  0  0  0  0
    9.6750   -3.8115    0.1385 C   0  0  0  0  0  0  0  0  0  0  0  0
    7.5787   -1.2169    1.7375 C   0  0  0  0  0  0  0  0  0  0  0  0
    8.5610   -0.2765    2.0151 O   0  0  0  0  0  0  0  0  0  0  0  0
    8.1968    0.9293    2.6540 C   0  0  0  0  0  0  0  0  0  0  0  0
    6.2447   -1.0299    2.0579 C   0  0  0  0  0  0  0  0  0  0  0  0
   -5.8114   -0.9742    0.4280 C   0  0  0  0  0  0  0  0  0  0  0  0
   -6.6553   -1.7817   -0.2857 C   0  0  0  0  0  0  0  0  0  0  0  0
   -7.0462   -3.0565    0.1276 O   0  0  0  0  0  0  0  0  0  0  0  0
   -6.5146   -3.5007    1.3674 C   0  0  0  0  0  0  0  0  0  0  0  0
   -7.7149   -1.5673   -4.2671 H   0  0  0  0  0  0  0  0  0  0  0  0
   -9.3206   -2.2495   -3.7387 H   0  0  0  0  0  0  0  0  0  0  0  0
   -8.8969   -0.5397   -3.2790 H   0  0  0  0  0  0  0  0  0  0  0  0
   -7.1356    0.3931   -2.8658 H   0  0  0  0  0  0  0  0  0  0  0  0
   -5.6426    1.7673   -1.5351 H   0  0  0  0  0  0  0  0  0  0  0  0
   -4.6491    2.1346    0.6667 H   0  0  0  0  0  0  0  0  0  0  0  0
   -4.7359    0.9392    1.9642 H   0  0  0  0  0  0  0  0  0  0  0  0
   -2.6871    0.1176    1.3893 H   0  0  0  0  0  0  0  0  0  0  0  0
   -0.7868    0.9378   -1.7025 H   0  0  0  0  0  0  0  0  0  0  0  0
    0.8858    2.2913   -0.4007 H   0  0  0  0  0  0  0  0  0  0  0  0
   -0.3829    2.6931    0.7607 H   0  0  0  0  0  0  0  0  0  0  0  0
    0.6395    3.1449   -2.7810 H   0  0  0  0  0  0  0  0  0  0  0  0
   -0.1188    5.0614   -4.2034 H   0  0  0  0  0  0  0  0  0  0  0  0
   -1.8465    6.6021   -3.4024 H   0  0  0  0  0  0  0  0  0  0  0  0
   -2.8253    6.2373   -1.1793 H   0  0  0  0  0  0  0  0  0  0  0  0
   -2.0741    4.3334    0.2427 H   0  0  0  0  0  0  0  0  0  0  0  0
   -0.9362   -0.3372    0.9432 H   0  0  0  0  0  0  0  0  0  0  0  0
    1.1771    0.4266   -1.8578 H   0  0  0  0  0  0  0  0  0  0  0  0
    1.2596   -0.9200    2.0824 H   0  0  0  0  0  0  0  0  0  0  0  0
    3.3235   -2.5717    2.4922 H   0  0  0  0  0  0  0  0  0  0  0  0
    3.8092   -0.9475    3.0041 H   0  0  0  0  0  0  0  0  0  0  0  0
    4.8776   -3.9062    0.9267 H   0  0  0  0  0  0  0  0  0  0  0  0
    7.1954   -4.3040    0.3367 H   0  0  0  0  0  0  0  0  0  0  0  0
   10.6439   -3.5549   -0.3575 H   0  0  0  0  0  0  0  0  0  0  0  0
    9.8102   -4.6624    0.8381 H   0  0  0  0  0  0  0  0  0  0  0  0
    8.9508   -4.0477   -0.6684 H   0  0  0  0  0  0  0  0  0  0  0  0
    8.0826    0.8060    3.7492 H   0  0  0  0  0  0  0  0  0  0  0  0
    7.3282    1.4246    2.1733 H   0  0  0  0  0  0  0  0  0  0  0  0
    9.0493    1.6544    2.5161 H   0  0  0  0  0  0  0  0  0  0  0  0
    6.0034   -0.0866    2.5482 H   0  0  0  0  0  0  0  0  0  0  0  0
   -5.4462   -1.3975    1.3761 H   0  0  0  0  0  0  0  0  0  0  0  0
   -5.3950   -3.4526    1.3320 H   0  0  0  0  0  0  0  0  0  0  0  0
   -6.8122   -2.7235    2.1230 H   0  0  0  0  0  0  0  0  0  0  0  0
   -6.8248   -4.5152    1.6391 H   0  0  0  0  0  0  0  0  0  0  0  0
  1  2  1  0
  2  3  1  0
  3  4  2  0
  4  5  1  0
  5  6  2  0
  6  7  1  0
  7  8  1  0
  8  9  1  0
  9 10  2  0
  9 11  1  0
 11 12  1  0
 12 13  1  0
 13 14  2  0
 14 15  1  0
 15 16  2  0
 16 17  1  0
 17 18  2  0
 11 19  1  0
 19 20  1  0
 20 21  2  3
 20 22  1  0
 22 23  1  0
 23 24  2  0
 23 25  1  0
 25 26  1  0
 26 27  2  0
 27 28  1  0
 28 29  2  0
 29 30  1  0
 30 31  1  0
 29 32  1  0
 32 33  1  0
 33 34  1  0
 32 35  2  0
  6 36  1  0
 36 37  2  0
 37 38  1  0
 38 39  1  0
 37  3  1  0
 18 13  1  0
 35 26  1  0
  1 40  1  0
  1 41  1  0
  1 42  1  0
  4 43  1  0
  5 44  1  0
  7 45  1  0
  7 46  1  0
  8 47  1  0
 11 48  1  6
 12 49  1  0
 12 50  1  0
 14 51  1  0
 15 52  1  0
 16 53  1  0
 17 54  1  0
 18 55  1  0
 19 56  1  0
 21 57  1  0
 22 58  1  0
 25 59  1  0
 25 60  1  0
 27 61  1  0
 28 62  1  0
 31 63  1  0
 31 64  1  0
 31 65  1  0
 34 66  1  0
 34 67  1  0
 34 68  1  0
 35 69  1  0
 36 70  1  0
 39 71  1  0
 39 72  1  0
 39 73  1  0
M  END
$$$$
