
     RDKit          3D

 53 56  0  0  0  0  0  0  0  0999 V2000
   -5.5745   -0.9606   -3.3603 C   0  0  0  0  0  0  0  0  0  0  0  0
   -4.5096   -1.5692   -2.4544 C   0  0  0  0  0  0  0  0  0  0  0  0
   -4.3783   -0.7028   -1.2111 C   0  0  0  0  0  0  0  0  0  0  0  0
   -3.3115   -1.2982   -0.2829 C   0  0  0  0  0  0  0  0  0  0  0  0
   -3.2266   -0.4170    0.9077 C   0  0  0  0  0  0  0  0  0  0  0  0
   -4.0006   -0.6282    2.0124 N   0  0  0  0  0  0  0  0  0  0  0  0
   -3.6681    0.3484    2.8695 C   0  0  0  0  0  0  0  0  0  0  0  0
   -4.4645    0.4280    4.4518 Cl  0  0  0  0  0  0  0  0  0  0  0  0
   -2.6865    1.1627    2.2887 C   0  0  0  0  0  0  0  0  0  0  0  0
   -2.2180    2.2951    3.0827 C   0  0  0  0  0  0  0  0  0  0  0  0
   -3.1374    3.3428    3.1423 O   0  0  0  0  0  0  0  0  0  0  0  0
   -2.4194    0.6707    1.0612 N   0  0  0  0  0  0  0  0  0  0  0  0
   -1.4547    1.2440    0.1872 C   0  0  0  0  0  0  0  0  0  0  0  0
   -0.0955    0.6912    0.2521 C   0  0  0  0  0  0  0  0  0  0  0  0
    0.3272   -0.2369   -0.6861 C   0  0  0  0  0  0  0  0  0  0  0  0
    1.5782   -0.8208   -0.7085 C   0  0  0  0  0  0  0  0  0  0  0  0
    2.5054   -0.4934    0.2426 C   0  0  0  0  0  0  0  0  0  0  0  0
    2.1353    0.4288    1.2027 C   0  0  0  0  0  0  0  0  0  0  0  0
    0.8709    0.9770    1.1721 C   0  0  0  0  0  0  0  0  0  0  0  0
    3.8276   -1.0939    0.2466 C   0  0  0  0  0  0  0  0  0  0  0  0
    3.8631   -2.4505    0.4519 C   0  0  0  0  0  0  0  0  0  0  0  0
    5.0734   -3.1171    0.4769 C   0  0  0  0  0  0  0  0  0  0  0  0
    6.2023   -2.3579    0.2890 C   0  0  0  0  0  0  0  0  0  0  0  0
    6.1538   -0.9750    0.0804 C   0  0  0  0  0  0  0  0  0  0  0  0
    4.9430   -0.3172    0.0567 C   0  0  0  0  0  0  0  0  0  0  0  0
    4.9090    1.1207   -0.1630 C   0  0  0  0  0  0  0  0  0  0  0  0
    6.0233    1.8244   -0.3317 N   0  0  0  0  0  0  0  0  0  0  0  0
    5.7489    3.1032   -0.5156 N   0  0  0  0  0  0  0  0  0  0  0  0
    4.4393    3.2114   -0.4627 N   0  0  0  0  0  0  0  0  0  0  0  0
    3.9261    2.0140   -0.2495 N   0  0  0  0  0  0  0  0  0  0  0  0
   -6.2950   -0.3285   -2.7942 H   0  0  0  0  0  0  0  0  0  0  0  0
   -6.1785   -1.8267   -3.7592 H   0  0  0  0  0  0  0  0  0  0  0  0
   -5.1432   -0.4524   -4.2362 H   0  0  0  0  0  0  0  0  0  0  0  0
   -3.5781   -1.5974   -3.0255 H   0  0  0  0  0  0  0  0  0  0  0  0
   -4.7934   -2.6154   -2.1599 H   0  0  0  0  0  0  0  0  0  0  0  0
   -5.3460   -0.7226   -0.6851 H   0  0  0  0  0  0  0  0  0  0  0  0
   -4.1100    0.3196   -1.5531 H   0  0  0  0  0  0  0  0  0  0  0  0
   -2.3620   -1.4343   -0.8176 H   0  0  0  0  0  0  0  0  0  0  0  0
   -3.7406   -2.2905    0.0231 H   0  0  0  0  0  0  0  0  0  0  0  0
   -1.2284    2.7178    2.7523 H   0  0  0  0  0  0  0  0  0  0  0  0
   -2.0396    1.9645    4.1218 H   0  0  0  0  0  0  0  0  0  0  0  0
   -3.1742    3.7561    2.2425 H   0  0  0  0  0  0  0  0  0  0  0  0
   -1.3797    2.3464    0.2583 H   0  0  0  0  0  0  0  0  0  0  0  0
   -1.8455    1.0683   -0.8590 H   0  0  0  0  0  0  0  0  0  0  0  0
   -0.2876   -0.5902   -1.5053 H   0  0  0  0  0  0  0  0  0  0  0  0
    1.9005   -1.5439   -1.4433 H   0  0  0  0  0  0  0  0  0  0  0  0
    2.8672    0.6981    1.9697 H   0  0  0  0  0  0  0  0  0  0  0  0
    0.6842    1.6730    1.9456 H   0  0  0  0  0  0  0  0  0  0  0  0
    2.9560   -3.0469    0.6010 H   0  0  0  0  0  0  0  0  0  0  0  0
    5.0850   -4.1781    0.6390 H   0  0  0  0  0  0  0  0  0  0  0  0
    7.1731   -2.8353    0.3005 H   0  0  0  0  0  0  0  0  0  0  0  0
    7.1017   -0.4641   -0.0582 H   0  0  0  0  0  0  0  0  0  0  0  0
    6.3524    3.9587   -0.6805 H   0  0  0  0  0  0  0  0  0  0  0  0
  1  2  1  0
  2  3  1  0
  3  4  1  0
  4  5  1  0
  5  6  2  0
  6  7  1  0
  7  8  1  0
  7  9  2  0
  9 10  1  0
 10 11  1  0
  9 12  1  0
 12 13  1  0
 13 14  1  0
 14 15  2  0
 15 16  1  0
 16 17  2  0
 17 18  1  0
 18 19  2  0
 17 20  1  0
 20 21  2  0
 21 22  1  0
 22 23  2  0
 23 24  1  0
 24 25  2  0
 25 26  1  0
 26 27  2  0
 27 28  1  0
 28 29  1  0
 29 30  2  0
 12  5  1  0
 19 14  1  0
 25 20  1  0
 30 26  1  0
  1 31  1  0
  1 32  1  0
  1 33  1  0
  2 34  1  0
  2 35  1  0
  3 36  1  0
  3 37  1  0
  4 38  1  0
  4 39  1  0
 10 40  1  0
 10 41  1  0
 11 42  1  0
 13 43  1  0
 13 44  1  0
 15 45  1  0
 16 46  1  0
 18 47  1  0
 19 48  1  0
 21 49  1  0
 22 50  1  0
 23 51  1  0
 24 52  1  0
 28 53  1  0
M  END
$$$$
