
     RDKit          3D

 51 53  0  0  0  0  0  0  0  0999 V2000
    8.8828    1.2131   -0.2431 C   0  0  0  0  0  0  0  0  0  0  0  0
    8.4495    0.1676    0.0771 C   0  0  0  0  0  0  0  0  0  0  0  0
    7.1213   -0.3955    0.1908 C   0  0  0  0  0  0  0  0  0  0  0  0
    6.9485   -1.6135    0.5826 O   0  0  0  0  0  0  0  0  0  0  0  0
    5.9606    0.3505   -0.1190 N   0  0  0  0  0  0  0  0  0  0  0  0
    4.7075   -0.3146    0.0252 C   0  0  0  0  0  0  0  0  0  0  0  0
    4.1868   -0.9779   -1.0411 C   0  0  0  0  0  0  0  0  0  0  0  0
    2.9651   -1.6193   -0.9208 C   0  0  0  0  0  0  0  0  0  0  0  0
    2.2544   -1.6055    0.2580 C   0  0  0  0  0  0  0  0  0  0  0  0
    0.6939   -2.3999    0.4593 S   0  0  0  0  0  6  0  0  0  0  0  0
    0.5893   -2.7725    1.9183 O   0  0  0  0  0  0  0  0  0  0  0  0
    0.6445   -3.6731   -0.3413 O   0  0  0  0  0  0  0  0  0  0  0  0
   -0.4992   -1.2956    0.0149 N   0  0  0  0  0  0  0  0  0  0  0  0
   -0.6064   -0.0985    0.7309 C   0  0  0  0  0  0  0  0  0  0  0  0
   -2.0326    0.4038    0.7441 C   0  0  0  0  0  0  0  0  0  0  0  0
   -2.6177    0.2122   -0.5473 N   0  0  0  0  0  0  0  0  0  0  0  0
   -3.9973    0.2917   -0.7407 C   0  0  0  0  0  0  0  0  0  0  0  0
   -4.3647    0.0511   -1.9684 O   0  0  0  0  0  0  0  0  0  0  0  0
   -5.0463    0.5734    0.1146 N   0  0  0  0  0  0  0  0  0  0  0  0
   -5.0871    0.9341    1.4858 C   0  0  0  0  0  0  0  0  0  0  0  0
   -6.1530    2.0487    1.4843 C   0  0  0  0  0  0  0  0  0  0  0  0
   -6.9774    1.8272    0.2390 C   0  0  0  0  0  0  0  0  0  0  0  0
   -6.4668    0.5075   -0.2827 C   0  0  0  0  0  0  0  0  0  0  0  0
   -1.7462   -0.0677   -1.6757 C   0  0  0  0  0  0  0  0  0  0  0  0
   -0.8147   -1.2122   -1.3818 C   0  0  0  0  0  0  0  0  0  0  0  0
    2.8272   -0.9140    1.3239 C   0  0  0  0  0  0  0  0  0  0  0  0
    4.0525   -0.2670    1.2135 C   0  0  0  0  0  0  0  0  0  0  0  0
    9.3011    2.1747   -0.5365 H   0  0  0  0  0  0  0  0  0  0  0  0
    7.6969    1.8204   -0.4957 H   0  0  0  0  0  0  0  0  0  0  0  0
    9.2286   -0.6527    0.3907 H   0  0  0  0  0  0  0  0  0  0  0  0
    5.9830    1.3502   -0.4422 H   0  0  0  0  0  0  0  0  0  0  0  0
    4.7272   -0.9992   -1.9668 H   0  0  0  0  0  0  0  0  0  0  0  0
    2.5308   -2.1531   -1.7540 H   0  0  0  0  0  0  0  0  0  0  0  0
   -0.2545   -0.2801    1.7741 H   0  0  0  0  0  0  0  0  0  0  0  0
    0.0519    0.6774    0.2401 H   0  0  0  0  0  0  0  0  0  0  0  0
   -2.0697    1.4665    1.0768 H   0  0  0  0  0  0  0  0  0  0  0  0
   -2.6071   -0.2822    1.4391 H   0  0  0  0  0  0  0  0  0  0  0  0
   -5.5680    0.1166    2.0746 H   0  0  0  0  0  0  0  0  0  0  0  0
   -4.1731    1.3061    1.9520 H   0  0  0  0  0  0  0  0  0  0  0  0
   -5.6610    3.0514    1.5018 H   0  0  0  0  0  0  0  0  0  0  0  0
   -6.7870    1.9806    2.3869 H   0  0  0  0  0  0  0  0  0  0  0  0
   -8.0670    1.7785    0.4850 H   0  0  0  0  0  0  0  0  0  0  0  0
   -6.7616    2.6266   -0.4875 H   0  0  0  0  0  0  0  0  0  0  0  0
   -6.9103   -0.3204    0.3168 H   0  0  0  0  0  0  0  0  0  0  0  0
   -6.5922    0.3709   -1.3539 H   0  0  0  0  0  0  0  0  0  0  0  0
   -2.3795   -0.3343   -2.5354 H   0  0  0  0  0  0  0  0  0  0  0  0
   -1.1775    0.8388   -1.9429 H   0  0  0  0  0  0  0  0  0  0  0  0
   -1.2740   -2.1701   -1.6891 H   0  0  0  0  0  0  0  0  0  0  0  0
    0.1189   -1.0882   -1.9520 H   0  0  0  0  0  0  0  0  0  0  0  0
    2.2808   -0.8979    2.2549 H   0  0  0  0  0  0  0  0  0  0  0  0
    4.4889    0.2653    2.0443 H   0  0  0  0  0  0  0  0  0  0  0  0
  1  2  2  3
  2  3  1  0
  3  4  2  0
  3  5  1  0
  5  6  1  0
  6  7  2  0
  7  8  1  0
  8  9  2  0
  9 10  1  0
 10 11  2  0
 10 12  2  0
 10 13  1  0
 13 14  1  0
 14 15  1  0
 15 16  1  0
 16 17  1  0
 17 18  2  0
 17 19  1  0
 19 20  1  0
 20 21  1  0
 21 22  1  0
 22 23  1  0
 16 24  1  0
 24 25  1  0
  9 26  1  0
 26 27  2  0
 27  6  1  0
 25 13  1  0
 23 19  1  0
  1 28  1  0
  1 29  1  0
  2 30  1  0
  5 31  1  0
  7 32  1  0
  8 33  1  0
 14 34  1  0
 14 35  1  0
 15 36  1  0
 15 37  1  0
 20 38  1  0
 20 39  1  0
 21 40  1  0
 21 41  1  0
 22 42  1  0
 22 43  1  0
 23 44  1  0
 23 45  1  0
 24 46  1  0
 24 47  1  0
 25 48  1  0
 25 49  1  0
 26 50  1  0
 27 51  1  0
M  END
$$$$
