
     RDKit          3D

 57 60  0  0  0  0  0  0  0  0999 V2000
    3.9904   -2.1589    1.8460 C   0  0  0  0  0  0  0  0  0  0  0  0
    3.2960   -1.4167    0.8772 O   0  0  0  0  0  0  0  0  0  0  0  0
    3.7544   -1.3239   -0.4280 C   0  0  0  0  0  0  0  0  0  0  0  0
    4.9423   -2.0070   -0.7282 C   0  0  0  0  0  0  0  0  0  0  0  0
    5.4470   -1.9550   -1.9983 C   0  0  0  0  0  0  0  0  0  0  0  0
    4.7912   -1.2361   -2.9736 C   0  0  0  0  0  0  0  0  0  0  0  0
    3.6481   -0.5901   -2.6472 C   0  0  0  0  0  0  0  0  0  0  0  0
    3.0860   -0.6080   -1.3660 C   0  0  0  0  0  0  0  0  0  0  0  0
    1.8551    0.1150   -1.1020 C   0  0  0  0  0  0  0  0  0  0  0  0
    1.3486    0.7453   -2.1111 O   0  0  0  0  0  0  0  0  0  0  0  0
    1.1638    0.2020    0.1177 N   0  0  0  0  0  0  0  0  0  0  0  0
   -0.0609    0.9556    0.2492 C   0  0  0  0  0  0  0  0  0  0  0  0
    0.0247    2.2967    0.5168 C   0  0  0  0  0  0  0  0  0  0  0  0
   -1.1262    3.0370    0.6605 C   0  0  0  0  0  0  0  0  0  0  0  0
   -2.3855    2.4816    0.5456 C   0  0  0  0  0  0  0  0  0  0  0  0
   -2.4357    1.1355    0.2773 C   0  0  0  0  0  0  0  0  0  0  0  0
   -1.2883    0.3520    0.1251 C   0  0  0  0  0  0  0  0  0  0  0  0
   -1.4231   -1.0242   -0.1402 N   0  0  0  0  0  0  0  0  0  0  0  0
   -0.9327   -1.5802   -1.3807 C   0  0  0  0  0  0  0  0  0  0  0  0
   -1.9549   -2.5787   -1.9604 C   0  0  0  0  0  0  0  0  0  0  0  0
   -2.1888   -3.6626   -1.0382 N   0  0  0  0  0  0  0  0  0  0  0  0
   -1.6276   -3.3738    0.2763 C   0  0  0  0  0  0  0  0  0  0  0  0
   -2.0346   -1.9888    0.7487 C   0  0  1  0  0  0  0  0  0  0  0  0
   -1.7084   -1.7992    2.1839 C   0  0  0  0  0  0  0  0  0  0  0  0
   -3.3290    3.4433    0.7338 N   0  0  0  0  0  0  0  0  0  0  0  0
   -4.7661    3.2451    0.6903 C   0  0  0  0  0  0  0  0  0  0  0  0
   -2.6469    4.5889    0.9643 C   0  0  0  0  0  0  0  0  0  0  0  0
   -3.2064    5.6889    1.1815 O   0  0  0  0  0  0  0  0  0  0  0  0
   -1.3266    4.3465    0.9206 N   0  0  0  0  0  0  0  0  0  0  0  0
   -0.2311    5.2912    1.1122 C   0  0  0  0  0  0  0  0  0  0  0  0
    3.5154   -2.1411    2.8264 H   0  0  0  0  0  0  0  0  0  0  0  0
    4.0080   -3.2196    1.4876 H   0  0  0  0  0  0  0  0  0  0  0  0
    5.0505   -1.8495    1.9137 H   0  0  0  0  0  0  0  0  0  0  0  0
    5.4479   -2.5614    0.0251 H   0  0  0  0  0  0  0  0  0  0  0  0
    6.3658   -2.4675   -2.2836 H   0  0  0  0  0  0  0  0  0  0  0  0
    5.2244   -1.2161   -3.9830 H   0  0  0  0  0  0  0  0  0  0  0  0
    3.1196   -0.0158   -3.4158 H   0  0  0  0  0  0  0  0  0  0  0  0
    1.5208   -0.2734    0.9442 H   0  0  0  0  0  0  0  0  0  0  0  0
    1.0111    2.7553    0.6116 H   0  0  0  0  0  0  0  0  0  0  0  0
   -3.4302    0.6826    0.1837 H   0  0  0  0  0  0  0  0  0  0  0  0
   -0.9178   -0.7673   -2.1341 H   0  0  0  0  0  0  0  0  0  0  0  0
    0.0365   -2.1021   -1.2514 H   0  0  0  0  0  0  0  0  0  0  0  0
   -1.5313   -2.9882   -2.8835 H   0  0  0  0  0  0  0  0  0  0  0  0
   -2.8890   -2.0434   -2.2230 H   0  0  0  0  0  0  0  0  0  0  0  0
   -3.2227   -3.7346   -0.9082 H   0  0  0  0  0  0  0  0  0  0  0  0
   -1.9339   -4.1355    1.0209 H   0  0  0  0  0  0  0  0  0  0  0  0
   -0.5256   -3.4636    0.1680 H   0  0  0  0  0  0  0  0  0  0  0  0
   -3.1513   -1.9442    0.5957 H   0  0  0  0  0  0  0  0  0  0  0  0
   -2.6231   -2.0775    2.7818 H   0  0  0  0  0  0  0  0  0  0  0  0
   -0.9328   -2.5272    2.4821 H   0  0  0  0  0  0  0  0  0  0  0  0
   -1.4777   -0.7608    2.4774 H   0  0  0  0  0  0  0  0  0  0  0  0
   -5.0538    2.5013    1.4617 H   0  0  0  0  0  0  0  0  0  0  0  0
   -5.2710    4.2086    0.7777 H   0  0  0  0  0  0  0  0  0  0  0  0
   -5.0388    2.7850   -0.2939 H   0  0  0  0  0  0  0  0  0  0  0  0
   -0.5204    6.2080    0.5246 H   0  0  0  0  0  0  0  0  0  0  0  0
    0.7203    4.8930    0.7632 H   0  0  0  0  0  0  0  0  0  0  0  0
   -0.1755    5.6336    2.1775 H   0  0  0  0  0  0  0  0  0  0  0  0
  1  2  1  0
  2  3  1  0
  3  4  2  0
  4  5  1  0
  5  6  2  0
  6  7  1  0
  7  8  2  0
  8  9  1  0
  9 10  2  0
  9 11  1  0
 11 12  1  0
 12 13  2  0
 13 14  1  0
 14 15  2  0
 15 16  1  0
 16 17  2  0
 17 18  1  0
 18 19  1  0
 19 20  1  0
 20 21  1  0
 21 22  1  0
 22 23  1  0
 23 24  1  0
 15 25  1  0
 25 26  1  0
 25 27  1  0
 27 28  2  0
 27 29  1  0
 29 30  1  0
  8  3  1  0
 17 12  1  0
 23 18  1  0
 29 14  1  0
  1 31  1  0
  1 32  1  0
  1 33  1  0
  4 34  1  0
  5 35  1  0
  6 36  1  0
  7 37  1  0
 11 38  1  0
 13 39  1  0
 16 40  1  0
 19 41  1  0
 19 42  1  0
 20 43  1  0
 20 44  1  0
 21 45  1  0
 22 46  1  0
 22 47  1  0
 23 48  1  1
 24 49  1  0
 24 50  1  0
 24 51  1  0
 26 52  1  0
 26 53  1  0
 26 54  1  0
 30 55  1  0
 30 56  1  0
 30 57  1  0
M  END
$$$$
