
     RDKit          3D

 40 43  0  0  0  0  0  0  0  0999 V2000
   -0.2622   -0.3837    1.3658 O   0  0  0  0  0  0  0  0  0  0  0  0
   -0.6033    0.7753    1.0183 C   0  0  0  0  0  0  0  0  0  0  0  0
    0.3567    1.7955    0.5197 C   0  0  0  0  0  0  0  0  0  0  0  0
    1.6702    1.2399    0.5103 N   0  0  0  0  0  0  0  0  0  0  0  0
    2.5022    1.3617    1.6602 C   0  0  0  0  0  0  0  0  0  0  0  0
    2.3893    2.3435    2.4447 O   0  0  0  0  0  0  0  0  0  0  0  0
    3.5021    0.2656    1.8719 C   0  0  0  0  0  0  0  0  0  0  0  0
    4.3660    0.2076    0.6443 C   0  0  0  0  0  0  0  0  0  0  0  0
    3.5335    0.0295   -0.5667 C   0  0  0  0  0  0  0  0  0  0  0  0
    4.0680   -0.6550   -1.6666 C   0  0  0  0  0  0  0  0  0  0  0  0
    3.2580   -0.7826   -2.7684 C   0  0  0  0  0  0  0  0  0  0  0  0
    1.9776   -0.2862   -2.8508 C   0  0  0  0  0  0  0  0  0  0  0  0
    1.4827    0.3908   -1.7289 C   0  0  0  0  0  0  0  0  0  0  0  0
    2.2490    0.5488   -0.5973 C   0  0  0  0  0  0  0  0  0  0  0  0
   -2.0095    1.0823    1.1276 N   0  0  0  0  0  0  0  0  0  0  0  0
   -2.9419    0.1351    1.5969 C   0  0  0  0  0  0  0  0  0  0  0  0
   -3.2639   -0.0290    3.4256 S   0  0  0  0  0  0  0  0  0  0  0  0
   -4.4885   -1.3595    3.2163 C   0  0  0  0  0  0  0  0  0  0  0  0
   -4.5378   -1.5465    1.8483 C   0  0  0  0  0  0  0  0  0  0  0  0
   -5.6709   -2.8186    1.2501 Cl  0  0  0  0  0  0  0  0  0  0  0  0
   -3.7579   -0.7894    1.0591 C   0  0  0  0  0  0  0  0  0  0  0  0
   -3.7944   -0.9379   -0.4394 C   0  0  0  0  0  0  0  0  0  0  0  0
   -4.5285   -1.7956   -1.1559 N   0  0  0  0  0  0  0  0  0  0  0  0
   -4.3059   -1.6234   -2.4466 N   0  0  0  0  0  0  0  0  0  0  0  0
   -3.4132   -0.6394   -2.5922 C   0  0  0  0  0  0  0  0  0  0  0  0
   -3.1103   -0.2285   -1.3235 N   0  0  0  0  0  0  0  0  0  0  0  0
    0.3532    2.6112    1.2852 H   0  0  0  0  0  0  0  0  0  0  0  0
    0.0354    2.2817   -0.4126 H   0  0  0  0  0  0  0  0  0  0  0  0
    4.0899    0.4399    2.7965 H   0  0  0  0  0  0  0  0  0  0  0  0
    2.9944   -0.7060    1.9942 H   0  0  0  0  0  0  0  0  0  0  0  0
    5.0234   -0.6885    0.7245 H   0  0  0  0  0  0  0  0  0  0  0  0
    4.9501    1.1405    0.5036 H   0  0  0  0  0  0  0  0  0  0  0  0
    5.0649   -1.0435   -1.6071 H   0  0  0  0  0  0  0  0  0  0  0  0
    3.6720   -1.3117   -3.6180 H   0  0  0  0  0  0  0  0  0  0  0  0
    1.3462   -0.3906   -3.7217 H   0  0  0  0  0  0  0  0  0  0  0  0
    0.4829    0.8047   -1.7287 H   0  0  0  0  0  0  0  0  0  0  0  0
   -2.2658    2.0602    0.8296 H   0  0  0  0  0  0  0  0  0  0  0  0
   -4.9966   -1.8250    4.0115 H   0  0  0  0  0  0  0  0  0  0  0  0
   -2.9888   -0.2206   -3.5022 H   0  0  0  0  0  0  0  0  0  0  0  0
   -2.4285    0.5477   -1.1362 H   0  0  0  0  0  0  0  0  0  0  0  0
  1  2  2  0
  2  3  1  0
  3  4  1  0
  4  5  1  0
  5  6  2  0
  5  7  1  0
  7  8  1  0
  8  9  1  0
  9 10  2  0
 10 11  1  0
 11 12  2  0
 12 13  1  0
 13 14  2  0
  2 15  1  0
 15 16  1  0
 16 17  1  0
 17 18  1  0
 18 19  2  0
 19 20  1  0
 19 21  1  0
 21 22  1  0
 22 23  2  0
 23 24  1  0
 24 25  2  0
 25 26  1  0
 14  4  1  0
 21 16  2  0
 26 22  1  0
 14  9  1  0
  3 27  1  0
  3 28  1  0
  7 29  1  0
  7 30  1  0
  8 31  1  0
  8 32  1  0
 10 33  1  0
 11 34  1  0
 12 35  1  0
 13 36  1  0
 15 37  1  0
 18 38  1  0
 25 39  1  0
 26 40  1  0
M  END
$$$$
