
     RDKit          3D

 71 76  0  0  0  0  0  0  0  0999 V2000
    5.0745    1.4170    2.9917 C   0  0  0  0  0  0  0  0  0  0  0  0
    6.0982    0.5456    2.3751 C   0  0  0  0  0  0  0  0  0  0  0  0
    7.3610    0.4815    2.9798 C   0  0  0  0  0  0  0  0  0  0  0  0
    8.3827   -0.2982    2.4864 C   0  0  0  0  0  0  0  0  0  0  0  0
    9.6952   -0.3502    3.1342 C   0  0  0  0  0  0  0  0  0  0  0  0
    9.8575    0.3503    4.1691 O   0  0  0  0  0  0  0  0  0  0  0  0
   10.7279   -1.1165    2.6641 O   0  0  0  0  0  0  0  0  0  0  0  0
    8.1099   -1.0274    1.3527 C   0  0  0  0  0  0  0  0  0  0  0  0
    6.8646   -0.9911    0.7201 C   0  0  0  0  0  0  0  0  0  0  0  0
    5.8599   -0.1984    1.2402 C   0  0  0  0  0  0  0  0  0  0  0  0
    4.5523   -0.1405    0.6003 C   0  0  0  0  0  0  0  0  0  0  0  0
    4.2755   -0.8725   -0.5485 C   0  0  0  0  0  0  0  0  0  0  0  0
    3.0178   -0.8105   -1.1579 C   0  0  0  0  0  0  0  0  0  0  0  0
    2.0353   -0.0187   -0.6222 C   0  0  0  0  0  0  0  0  0  0  0  0
    0.7751    0.0452   -1.2330 N   0  0  0  0  0  0  0  0  0  0  0  0
    0.3620    0.9745   -2.2594 C   0  0  0  0  0  0  0  0  0  0  0  0
    1.0910    1.8794   -2.7594 O   0  0  0  0  0  0  0  0  0  0  0  0
   -0.9902    0.6979   -2.6047 N   0  0  0  0  0  0  0  0  0  0  0  0
   -1.6387    0.9406   -3.8469 C   0  0  0  0  0  0  0  0  0  0  0  0
   -0.9909    1.4934   -4.9209 C   0  0  0  0  0  0  0  0  0  0  0  0
   -1.6352    1.7179   -6.1039 N   0  0  0  0  0  0  0  0  0  0  0  0
   -2.9322    1.4042   -6.2599 C   0  0  0  0  0  0  0  0  0  0  0  0
   -3.5926    0.8472   -5.1844 C   0  0  0  0  0  0  0  0  0  0  0  0
   -2.9439    0.6379   -4.0417 N   0  0  0  0  0  0  0  0  0  0  0  0
   -1.5347    0.1103   -1.3943 C   0  0  0  0  0  0  0  0  0  0  0  0
   -1.6260    1.1625   -0.3079 C   0  0  0  0  0  0  0  0  0  0  0  0
   -2.0434    0.4042    0.9595 C   0  0  0  0  0  0  0  0  0  0  0  0
   -3.3549   -0.1455    0.6805 N   0  0  0  0  0  0  0  0  0  0  0  0
   -4.0532   -0.5085    1.8886 C   0  0  0  0  0  0  0  0  0  0  0  0
   -5.3873   -1.0616    1.6572 C   0  0  0  0  0  0  0  0  0  0  0  0
   -5.6211   -2.3693    1.7652 N   0  0  0  0  0  0  0  0  0  0  0  0
   -6.8535   -2.8419    1.5466 C   0  0  0  0  0  0  0  0  0  0  0  0
   -7.9213   -2.0432    1.2089 C   0  0  0  0  0  0  0  0  0  0  0  0
   -7.7021   -0.6984    1.0932 C   0  0  0  0  0  0  0  0  0  0  0  0
   -6.4264   -0.2265    1.3215 C   0  0  0  0  0  0  0  0  0  0  0  0
   -6.2496    1.2500    1.1789 C   0  0  0  0  0  0  0  0  0  0  0  0
   -3.2598   -1.2177   -0.2705 C   0  0  0  0  0  0  0  0  0  0  0  0
   -2.8128   -0.6209   -1.5884 C   0  0  0  0  0  0  0  0  0  0  0  0
   -0.3878   -0.7688   -1.0061 C   0  0  0  0  0  0  0  0  0  0  0  0
   -0.3657   -1.9397   -0.5786 O   0  0  0  0  0  0  0  0  0  0  0  0
    2.3249    0.6967    0.5112 C   0  0  0  0  0  0  0  0  0  0  0  0
    3.5588    0.6233    1.0918 N   0  0  0  0  0  0  0  0  0  0  0  0
    5.5136    1.8857    3.9082 H   0  0  0  0  0  0  0  0  0  0  0  0
    4.1937    0.8140    3.3286 H   0  0  0  0  0  0  0  0  0  0  0  0
    4.7274    2.2346    2.3125 H   0  0  0  0  0  0  0  0  0  0  0  0
    7.5285    1.0728    3.8694 H   0  0  0  0  0  0  0  0  0  0  0  0
   11.6784   -0.7487    2.7494 H   0  0  0  0  0  0  0  0  0  0  0  0
    8.9095   -1.6413    0.9617 H   0  0  0  0  0  0  0  0  0  0  0  0
    6.7433   -1.6033   -0.1725 H   0  0  0  0  0  0  0  0  0  0  0  0
    4.9840   -1.5097   -1.0251 H   0  0  0  0  0  0  0  0  0  0  0  0
    2.8595   -1.4015   -2.0495 H   0  0  0  0  0  0  0  0  0  0  0  0
    0.0630    1.7537   -4.8150 H   0  0  0  0  0  0  0  0  0  0  0  0
   -3.4370    1.5855   -7.2022 H   0  0  0  0  0  0  0  0  0  0  0  0
   -4.6493    0.5939   -5.3187 H   0  0  0  0  0  0  0  0  0  0  0  0
   -0.6387    1.6260   -0.1984 H   0  0  0  0  0  0  0  0  0  0  0  0
   -2.4463    1.8656   -0.5260 H   0  0  0  0  0  0  0  0  0  0  0  0
   -2.0203    1.0652    1.8312 H   0  0  0  0  0  0  0  0  0  0  0  0
   -1.3150   -0.4409    1.1173 H   0  0  0  0  0  0  0  0  0  0  0  0
   -4.0979    0.3980    2.5235 H   0  0  0  0  0  0  0  0  0  0  0  0
   -3.4589   -1.2541    2.4942 H   0  0  0  0  0  0  0  0  0  0  0  0
   -7.0793   -3.9159    1.6277 H   0  0  0  0  0  0  0  0  0  0  0  0
   -8.9192   -2.4389    1.0335 H   0  0  0  0  0  0  0  0  0  0  0  0
   -8.5279   -0.0278    0.8257 H   0  0  0  0  0  0  0  0  0  0  0  0
   -5.9570    1.4456    0.1110 H   0  0  0  0  0  0  0  0  0  0  0  0
   -7.2137    1.7804    1.3361 H   0  0  0  0  0  0  0  0  0  0  0  0
   -5.5422    1.6798    1.8933 H   0  0  0  0  0  0  0  0  0  0  0  0
   -4.3120   -1.5880   -0.4524 H   0  0  0  0  0  0  0  0  0  0  0  0
   -2.6008   -2.0393    0.0672 H   0  0  0  0  0  0  0  0  0  0  0  0
   -2.7089   -1.4083   -2.3299 H   0  0  0  0  0  0  0  0  0  0  0  0
   -3.5890    0.1478   -1.8270 H   0  0  0  0  0  0  0  0  0  0  0  0
    1.6116    1.3437    0.9981 H   0  0  0  0  0  0  0  0  0  0  0  0
  1  2  1  0
  2  3  2  0
  3  4  1  0
  4  5  1  0
  5  6  2  0
  5  7  1  0
  4  8  2  0
  8  9  1  0
  9 10  2  0
 10 11  1  0
 11 12  2  0
 12 13  1  0
 13 14  2  0
 14 15  1  0
 15 16  1  0
 16 17  2  0
 16 18  1  0
 18 19  1  0
 19 20  2  0
 20 21  1  0
 21 22  2  0
 22 23  1  0
 23 24  2  0
 18 25  1  0
 25 26  1  0
 26 27  1  0
 27 28  1  0
 28 29  1  0
 29 30  1  0
 30 31  2  0
 31 32  1  0
 32 33  2  0
 33 34  1  0
 34 35  2  0
 35 36  1  0
 28 37  1  0
 37 38  1  0
 25 39  1  0
 39 40  2  0
 14 41  1  0
 41 42  2  0
 10  2  1  0
 42 11  1  0
 39 15  1  0
 24 19  1  0
 38 25  1  0
 35 30  1  0
  1 43  1  0
  1 44  1  0
  1 45  1  0
  3 46  1  0
  7 47  1  0
  8 48  1  0
  9 49  1  0
 12 50  1  0
 13 51  1  0
 20 52  1  0
 22 53  1  0
 23 54  1  0
 26 55  1  0
 26 56  1  0
 27 57  1  0
 27 58  1  0
 29 59  1  0
 29 60  1  0
 32 61  1  0
 33 62  1  0
 34 63  1  0
 36 64  1  0
 36 65  1  0
 36 66  1  0
 37 67  1  0
 37 68  1  0
 38 69  1  0
 38 70  1  0
 41 71  1  0
M  END
$$$$
