
     RDKit          3D

 44 48  0  0  0  0  0  0  0  0999 V2000
    8.6057   -0.4126    1.1362 N   0  0  0  0  0  0  0  0  0  0  0  0
    7.8898   -0.4777   -0.0700 C   0  0  0  0  0  0  0  0  0  0  0  0
    8.4444   -0.6493   -1.1853 O   0  0  0  0  0  0  0  0  0  0  0  0
    6.4275   -0.3386   -0.0196 C   0  0  0  0  0  0  0  0  0  0  0  0
    5.6853   -0.3867   -1.1824 C   0  0  0  0  0  0  0  0  0  0  0  0
    4.3225   -0.2550   -1.1077 C   0  0  0  0  0  0  0  0  0  0  0  0
    3.6304   -0.0741    0.0738 C   0  0  0  0  0  0  0  0  0  0  0  0
    2.1958    0.0655    0.1367 C   0  0  0  0  0  0  0  0  0  0  0  0
    1.5437    0.6702   -0.9214 C   0  0  0  0  0  0  0  0  0  0  0  0
    0.1733    0.8401   -0.9350 C   0  0  0  0  0  0  0  0  0  0  0  0
   -0.6018    0.4065    0.1205 C   0  0  0  0  0  0  0  0  0  0  0  0
   -1.9763    0.5488    0.1638 O   0  0  0  0  0  0  0  0  0  0  0  0
   -2.8264   -0.4411   -0.3502 C   0  0  0  0  0  0  0  0  0  0  0  0
   -2.2700   -1.5446   -0.8944 C   0  0  0  0  0  0  0  0  0  0  0  0
   -2.9483   -2.5637   -1.4197 N   0  0  0  0  0  0  0  0  0  0  0  0
   -4.3108   -2.4643   -1.3957 C   0  0  0  0  0  0  0  0  0  0  0  0
   -4.9120   -1.3589   -0.8515 C   0  0  0  0  0  0  0  0  0  0  0  0
   -6.6193   -0.8519   -0.6283 S   0  0  0  0  0  0  0  0  0  0  0  0
   -6.2828    0.7146    0.1659 C   0  0  0  0  0  0  0  0  0  0  0  0
   -7.2763    1.6459    0.6159 C   0  0  0  0  0  0  0  0  0  0  0  0
   -7.0016    2.8077    1.2052 N   0  0  0  0  0  0  0  0  0  0  0  0
   -8.1494    3.4100    1.4868 N   0  0  0  0  0  0  0  0  0  0  0  0
   -9.1521    2.6414    1.0820 N   0  0  0  0  0  0  0  0  0  0  0  0
   -8.6155    1.5586    0.5475 N   0  0  0  0  0  0  0  0  0  0  0  0
   -4.9142    0.7358    0.2021 C   0  0  0  0  0  0  0  0  0  0  0  0
   -4.2281   -0.2901   -0.3011 C   0  0  0  0  0  0  0  0  0  0  0  0
    0.0392   -0.1995    1.1833 C   0  0  0  0  0  0  0  0  0  0  0  0
    1.4134   -0.3657    1.1888 C   0  0  0  0  0  0  0  0  0  0  0  0
    4.3914   -0.0285    1.2275 C   0  0  0  0  0  0  0  0  0  0  0  0
    5.7623   -0.1591    1.1724 C   0  0  0  0  0  0  0  0  0  0  0  0
    9.2726   -1.2047    1.3377 H   0  0  0  0  0  0  0  0  0  0  0  0
    8.5217    0.3564    1.8345 H   0  0  0  0  0  0  0  0  0  0  0  0
    6.1968   -0.5275   -2.1279 H   0  0  0  0  0  0  0  0  0  0  0  0
    3.7774   -0.3004   -2.0593 H   0  0  0  0  0  0  0  0  0  0  0  0
    2.1373    1.0198   -1.7646 H   0  0  0  0  0  0  0  0  0  0  0  0
   -0.3447    1.3128   -1.7590 H   0  0  0  0  0  0  0  0  0  0  0  0
   -1.1712   -1.6306   -0.9167 H   0  0  0  0  0  0  0  0  0  0  0  0
   -4.9311   -3.2399   -1.7973 H   0  0  0  0  0  0  0  0  0  0  0  0
   -9.1342    0.7619    0.1376 H   0  0  0  0  0  0  0  0  0  0  0  0
   -4.4536    1.6650    0.6776 H   0  0  0  0  0  0  0  0  0  0  0  0
   -0.5526   -0.5428    2.0133 H   0  0  0  0  0  0  0  0  0  0  0  0
    1.9204   -0.8377    2.0151 H   0  0  0  0  0  0  0  0  0  0  0  0
    3.9553    0.1090    2.2045 H   0  0  0  0  0  0  0  0  0  0  0  0
    6.3659   -0.1246    2.0667 H   0  0  0  0  0  0  0  0  0  0  0  0
  1  2  1  0
  2  3  2  0
  2  4  1  0
  4  5  2  0
  5  6  1  0
  6  7  2  0
  7  8  1  0
  8  9  2  0
  9 10  1  0
 10 11  2  0
 11 12  1  0
 12 13  1  0
 13 14  2  0
 14 15  1  0
 15 16  2  0
 16 17  1  0
 17 18  1  0
 18 19  1  0
 19 20  1  0
 20 21  2  0
 21 22  1  0
 22 23  2  0
 23 24  1  0
 19 25  2  0
 25 26  1  0
 11 27  1  0
 27 28  2  0
  7 29  1  0
 29 30  2  0
 30  4  1  0
 28  8  1  0
 26 13  1  0
 26 17  2  0
 24 20  1  0
  1 31  1  0
  1 32  1  0
  5 33  1  0
  6 34  1  0
  9 35  1  0
 10 36  1  0
 14 37  1  0
 16 38  1  0
 24 39  1  0
 25 40  1  0
 27 41  1  0
 28 42  1  0
 29 43  1  0
 30 44  1  0
M  END
$$$$
