
     RDKit          3D

 45 48  0  0  0  0  0  0  0  0999 V2000
   -2.2283   -1.3605    1.3701 C   0  0  0  0  0  0  0  0  0  0  0  0
   -2.0413   -0.1070    0.6957 N   0  0  0  0  0  0  0  0  0  0  0  0
   -3.2161    0.6547    0.4436 C   0  0  0  0  0  0  0  0  0  0  0  0
   -3.3572    1.9099    0.9680 N   0  0  0  0  0  0  0  0  0  0  0  0
   -4.4471    2.6457    0.7488 C   0  0  0  0  0  0  0  0  0  0  0  0
   -5.4424    2.1743    0.0039 N   0  0  0  0  0  0  0  0  0  0  0  0
   -5.3865    0.9470   -0.5517 C   0  0  0  0  0  0  0  0  0  0  0  0
   -6.2554    0.2933   -1.3177 N   0  0  0  0  0  0  0  0  0  0  0  0
   -5.7082   -0.8922   -1.5967 C   0  0  0  0  0  0  0  0  0  0  0  0
   -4.4653   -0.9874   -0.9922 C   0  0  0  0  0  0  0  0  0  0  0  0
   -4.2507    0.1952   -0.3162 C   0  0  0  0  0  0  0  0  0  0  0  0
   -0.8056    0.4364    0.2625 C   0  0  1  0  0  0  0  0  0  0  0  0
    0.1191    0.6342    1.4750 C   0  0  0  0  0  0  0  0  0  0  0  0
    1.2046   -0.0245    0.6725 C   0  0  1  0  0  0  0  0  0  0  0  0
    1.8750   -1.2004    1.3174 C   0  0  0  0  0  0  0  0  0  0  0  0
    3.1102   -1.8032    0.1866 S   0  0  0  0  0  6  0  0  0  0  0  0
    3.7918   -3.0074    0.8211 O   0  0  0  0  0  0  0  0  0  0  0  0
    2.4603   -2.2795   -1.0790 O   0  0  0  0  0  0  0  0  0  0  0  0
    4.2641   -0.5390   -0.1266 C   0  0  0  0  0  0  0  0  0  0  0  0
    5.4051   -0.3395    0.6166 C   0  0  0  0  0  0  0  0  0  0  0  0
    6.3046    0.6634    0.3551 C   0  0  0  0  0  0  0  0  0  0  0  0
    6.0304    1.4994   -0.7094 C   0  0  0  0  0  0  0  0  0  0  0  0
    4.9058    1.3387   -1.4779 C   0  0  0  0  0  0  0  0  0  0  0  0
    4.0266    0.3179   -1.1817 C   0  0  0  0  0  0  0  0  0  0  0  0
    0.2012   -0.4638   -0.3591 C   0  0  0  0  0  0  0  0  0  0  0  0
   -3.2044   -1.4195    1.8930 H   0  0  0  0  0  0  0  0  0  0  0  0
   -1.4647   -1.5141    2.1878 H   0  0  0  0  0  0  0  0  0  0  0  0
   -2.1586   -2.2412    0.7092 H   0  0  0  0  0  0  0  0  0  0  0  0
   -4.5224    3.6245    1.1759 H   0  0  0  0  0  0  0  0  0  0  0  0
   -7.1770    0.6615   -1.6240 H   0  0  0  0  0  0  0  0  0  0  0  0
   -6.1563   -1.6573   -2.1958 H   0  0  0  0  0  0  0  0  0  0  0  0
   -3.7655   -1.7979   -1.0129 H   0  0  0  0  0  0  0  0  0  0  0  0
   -0.9018    1.4119   -0.2515 H   0  0  0  0  0  0  0  0  0  0  0  0
   -0.1653    0.0442    2.3629 H   0  0  0  0  0  0  0  0  0  0  0  0
    0.2978    1.6880    1.7415 H   0  0  0  0  0  0  0  0  0  0  0  0
    1.9220    0.7570    0.3165 H   0  0  0  0  0  0  0  0  0  0  0  0
    2.3140   -0.8746    2.2693 H   0  0  0  0  0  0  0  0  0  0  0  0
    1.1143   -1.9704    1.5254 H   0  0  0  0  0  0  0  0  0  0  0  0
    5.5649   -1.0318    1.4426 H   0  0  0  0  0  0  0  0  0  0  0  0
    7.1943    0.8005    0.9531 H   0  0  0  0  0  0  0  0  0  0  0  0
    6.7242    2.2915   -0.9297 H   0  0  0  0  0  0  0  0  0  0  0  0
    4.6582    1.9719   -2.3173 H   0  0  0  0  0  0  0  0  0  0  0  0
    3.1367    0.1810   -1.7801 H   0  0  0  0  0  0  0  0  0  0  0  0
    0.5144   -0.0980   -1.3613 H   0  0  0  0  0  0  0  0  0  0  0  0
   -0.0195   -1.5327   -0.4120 H   0  0  0  0  0  0  0  0  0  0  0  0
  1  2  1  0
  2  3  1  0
  3  4  2  0
  4  5  1  0
  5  6  2  0
  6  7  1  0
  7  8  1  0
  8  9  1  0
  9 10  2  0
 10 11  1  0
  2 12  1  0
 12 13  1  0
 13 14  1  0
 14 15  1  0
 15 16  1  0
 16 17  2  0
 16 18  2  0
 16 19  1  0
 19 20  2  0
 20 21  1  0
 21 22  2  0
 22 23  1  0
 23 24  2  0
 14 25  1  0
 11  3  1  0
 25 12  1  0
 11  7  2  0
 24 19  1  0
  1 26  1  0
  1 27  1  0
  1 28  1  0
  5 29  1  0
  8 30  1  0
  9 31  1  0
 10 32  1  0
 12 33  1  6
 13 34  1  0
 13 35  1  0
 14 36  1  6
 15 37  1  0
 15 38  1  0
 20 39  1  0
 21 40  1  0
 22 41  1  0
 23 42  1  0
 24 43  1  0
 25 44  1  0
 25 45  1  0
M  END
$$$$
