
     RDKit          3D

 65 70  0  0  0  0  0  0  0  0999 V2000
   -4.3598    2.9490    1.4689 O   0  0  0  0  0  0  0  0  0  0  0  0
   -5.4877    2.8136    0.9425 C   0  0  0  0  0  0  0  0  0  0  0  0
   -6.3327    3.9109    0.8603 O   0  0  0  0  0  0  0  0  0  0  0  0
   -5.9131    1.5218    0.4210 C   0  0  0  0  0  0  0  0  0  0  0  0
   -4.8304    0.5031    0.5912 C   0  0  0  0  0  0  0  0  0  0  0  0
   -3.5447    0.8189   -0.1113 C   0  0  0  0  0  0  0  0  0  0  0  0
   -2.8818   -0.5680   -0.1426 C   0  0  0  0  0  0  0  0  0  0  0  0
   -2.2996   -0.9247    1.1837 C   0  0  0  0  0  0  0  0  0  0  0  0
   -1.2961    0.0669    1.6612 C   0  0  0  0  0  0  0  0  0  0  0  0
   -0.2605    0.2015    0.6568 N   0  0  0  0  0  0  0  0  0  0  0  0
    1.0821    0.1075    1.0453 C   0  0  0  0  0  0  0  0  0  0  0  0
    1.3307   -0.0954    2.2753 O   0  0  0  0  0  0  0  0  0  0  0  0
    2.2162    0.2183    0.1859 N   0  0  0  0  0  0  0  0  0  0  0  0
    3.5429    0.0996    0.7324 C   0  0  0  0  0  0  0  0  0  0  0  0
    4.3768    1.3173    0.4823 C   0  0  0  0  0  0  0  0  0  0  0  0
    4.6157    1.5488   -0.9897 C   0  0  0  0  0  0  0  0  0  0  0  0
    5.3390    0.3606   -1.5344 C   0  0  0  0  0  0  0  0  0  0  0  0
    6.6572    0.0850   -0.8415 C   0  0  0  0  0  0  0  0  0  0  0  0
    6.4226   -0.0891    0.6253 C   0  0  0  0  0  0  0  0  0  0  0  0
    5.7357    1.1519    1.1305 C   0  0  0  0  0  0  0  0  0  0  0  0
    5.5778   -1.3277    0.8477 C   0  0  0  0  0  0  0  0  0  0  0  0
    4.2508   -1.0840    0.1331 C   0  0  0  0  0  0  0  0  0  0  0  0
    4.4545   -0.8623   -1.3272 C   0  0  0  0  0  0  0  0  0  0  0  0
   -0.6542    0.4253   -0.6853 C   0  0  0  0  0  0  0  0  0  0  0  0
   -1.7682   -0.4955   -1.1458 C   0  0  0  0  0  0  0  0  0  0  0  0
   -4.0130   -1.4087   -0.5216 C   0  0  0  0  0  0  0  0  0  0  0  0
   -4.2002   -2.6194   -1.1747 C   0  0  0  0  0  0  0  0  0  0  0  0
   -2.7166   -3.5780   -1.8115 Br  0  0  0  0  0  0  0  0  0  0  0  0
   -5.4481   -3.1800   -1.3878 C   0  0  0  0  0  0  0  0  0  0  0  0
   -6.5724   -2.5604   -0.9595 C   0  0  0  0  0  0  0  0  0  0  0  0
   -6.4246   -1.3368   -0.2959 C   0  0  0  0  0  0  0  0  0  0  0  0
   -5.1773   -0.7921   -0.0917 C   0  0  0  0  0  0  0  0  0  0  0  0
   -5.9487    4.8626    0.8237 H   0  0  0  0  0  0  0  0  0  0  0  0
   -6.2512    1.5689   -0.6380 H   0  0  0  0  0  0  0  0  0  0  0  0
   -6.8014    1.1216    0.9926 H   0  0  0  0  0  0  0  0  0  0  0  0
   -4.6935    0.3433    1.6834 H   0  0  0  0  0  0  0  0  0  0  0  0
   -2.9094    1.5675    0.3365 H   0  0  0  0  0  0  0  0  0  0  0  0
   -3.8170    1.0407   -1.1748 H   0  0  0  0  0  0  0  0  0  0  0  0
   -3.0634   -1.1671    1.9518 H   0  0  0  0  0  0  0  0  0  0  0  0
   -1.7408   -1.8918    1.0296 H   0  0  0  0  0  0  0  0  0  0  0  0
   -1.6912    1.0783    1.8659 H   0  0  0  0  0  0  0  0  0  0  0  0
   -0.8804   -0.2740    2.6379 H   0  0  0  0  0  0  0  0  0  0  0  0
    2.0835    0.3895   -0.8322 H   0  0  0  0  0  0  0  0  0  0  0  0
    3.4972   -0.0259    1.8505 H   0  0  0  0  0  0  0  0  0  0  0  0
    3.9329    2.2442    0.8911 H   0  0  0  0  0  0  0  0  0  0  0  0
    5.1738    2.4966   -1.1139 H   0  0  0  0  0  0  0  0  0  0  0  0
    3.6288    1.5978   -1.4752 H   0  0  0  0  0  0  0  0  0  0  0  0
    5.5363    0.5320   -2.6095 H   0  0  0  0  0  0  0  0  0  0  0  0
    7.4091    0.8495   -1.0835 H   0  0  0  0  0  0  0  0  0  0  0  0
    7.0175   -0.8907   -1.2378 H   0  0  0  0  0  0  0  0  0  0  0  0
    7.3869   -0.2002    1.1643 H   0  0  0  0  0  0  0  0  0  0  0  0
    5.6854    1.1691    2.2294 H   0  0  0  0  0  0  0  0  0  0  0  0
    6.3569    2.0215    0.8048 H   0  0  0  0  0  0  0  0  0  0  0  0
    5.3685   -1.5023    1.9077 H   0  0  0  0  0  0  0  0  0  0  0  0
    6.0766   -2.1719    0.3614 H   0  0  0  0  0  0  0  0  0  0  0  0
    3.5932   -1.9672    0.2690 H   0  0  0  0  0  0  0  0  0  0  0  0
    4.9336   -1.7422   -1.8144 H   0  0  0  0  0  0  0  0  0  0  0  0
    3.4850   -0.6430   -1.8049 H   0  0  0  0  0  0  0  0  0  0  0  0
    0.1928    0.4512   -1.3498 H   0  0  0  0  0  0  0  0  0  0  0  0
   -1.1083    1.4618   -0.7272 H   0  0  0  0  0  0  0  0  0  0  0  0
   -2.1436   -0.0632   -2.0953 H   0  0  0  0  0  0  0  0  0  0  0  0
   -1.2918   -1.4499   -1.3941 H   0  0  0  0  0  0  0  0  0  0  0  0
   -5.5604   -4.1307   -1.9036 H   0  0  0  0  0  0  0  0  0  0  0  0
   -7.5474   -2.9937   -1.1235 H   0  0  0  0  0  0  0  0  0  0  0  0
   -7.3306   -0.8606    0.0366 H   0  0  0  0  0  0  0  0  0  0  0  0
  1  2  2  0
  2  3  1  0
  2  4  1  0
  4  5  1  0
  5  6  1  0
  6  7  1  0
  7  8  1  0
  8  9  1  0
  9 10  1  0
 10 11  1  0
 11 12  2  0
 11 13  1  0
 13 14  1  0
 14 15  1  0
 15 16  1  0
 16 17  1  0
 17 18  1  0
 18 19  1  0
 19 20  1  0
 19 21  1  0
 21 22  1  0
 22 23  1  0
 10 24  1  0
 24 25  1  0
  7 26  1  0
 26 27  2  0
 27 28  1  0
 27 29  1  0
 29 30  2  0
 30 31  1  0
 31 32  2  0
 32  5  1  0
 25  7  1  0
 32 26  1  0
 22 14  1  0
 20 15  1  0
 23 17  1  0
  3 33  1  0
  4 34  1  0
  4 35  1  0
  5 36  1  0
  6 37  1  0
  6 38  1  0
  8 39  1  0
  8 40  1  0
  9 41  1  0
  9 42  1  0
 13 43  1  0
 14 44  1  0
 15 45  1  0
 16 46  1  0
 16 47  1  0
 17 48  1  0
 18 49  1  0
 18 50  1  0
 19 51  1  0
 20 52  1  0
 20 53  1  0
 21 54  1  0
 21 55  1  0
 22 56  1  0
 23 57  1  0
 23 58  1  0
 24 59  1  0
 24 60  1  0
 25 61  1  0
 25 62  1  0
 29 63  1  0
 30 64  1  0
 31 65  1  0
M  END
$$$$
