
     RDKit          3D

 69 71  0  0  0  0  0  0  0  0999 V2000
    7.5350   -0.8530    0.3426 C   0  0  0  0  0  0  0  0  0  0  0  0
    6.1961   -0.3258    0.8106 C   0  0  0  0  0  0  0  0  0  0  0  0
    6.0039    0.9372    0.2044 O   0  0  0  0  0  0  0  0  0  0  0  0
    4.8744    1.7090    0.4138 C   0  0  0  0  0  0  0  0  0  0  0  0
    4.7374    2.9475   -0.2086 C   0  0  0  0  0  0  0  0  0  0  0  0
    3.5913    3.6868    0.0308 C   0  0  0  0  0  0  0  0  0  0  0  0
    2.5867    3.2411    0.8590 C   0  0  0  0  0  0  0  0  0  0  0  0
    2.6780    2.0159    1.4995 C   0  0  0  0  0  0  0  0  0  0  0  0
    1.7162    1.3756    2.4147 C   0  0  0  0  0  0  0  0  0  0  0  0
    0.6930    0.5839    1.6405 C   0  0  0  0  0  0  0  0  0  0  0  0
    1.2389    0.9246    0.5416 O   0  0  0  0  0  0  0  0  0  0  0  0
   -0.3872   -0.1829    2.0916 N   0  0  0  0  0  0  0  0  0  0  0  0
   -1.1981   -0.8311    1.0045 C   0  0  1  0  0  0  0  0  0  0  0  0
   -0.8931   -2.2919    1.1849 C   0  0  0  0  0  0  0  0  0  0  0  0
   -1.4932   -3.2712    0.2719 C   0  0  0  0  0  0  0  0  0  0  0  0
   -2.9756   -3.3040    0.3093 C   0  0  0  0  0  0  0  0  0  0  0  0
   -0.9529   -4.6577    0.6001 C   0  0  0  0  0  0  0  0  0  0  0  0
   -2.5779   -0.4414    1.2104 C   0  0  0  0  0  0  0  0  0  0  0  0
   -2.9535   -0.3967    2.5634 C   0  0  0  0  0  0  0  0  0  0  0  0
   -4.2207   -0.0663    2.9901 C   0  0  0  0  0  0  0  0  0  0  0  0
   -5.1597    0.2334    2.0313 C   0  0  0  0  0  0  0  0  0  0  0  0
   -4.7855    0.1878    0.7104 C   0  0  0  0  0  0  0  0  0  0  0  0
   -3.5268   -0.1384    0.2635 C   0  0  0  0  0  0  0  0  0  0  0  0
   -3.2446   -0.1051   -1.1163 N   0  0  0  0  0  0  0  0  0  0  0  0
   -4.4032   -0.2599   -1.9771 C   0  0  0  0  0  0  0  0  0  0  0  0
   -4.7279    1.1246   -2.4903 C   0  0  0  0  0  0  0  0  0  0  0  0
   -3.5316    1.6135   -3.2858 C   0  0  0  0  0  0  0  0  0  0  0  0
   -2.4683    0.5596   -3.3460 C   0  0  0  0  0  0  0  0  0  0  0  0
   -2.0667    0.0867   -1.9335 C   0  0  0  0  0  0  0  0  0  0  0  0
    3.8424    1.3044    1.2341 C   0  0  0  0  0  0  0  0  0  0  0  0
    5.7681    3.4650   -1.0955 C   0  0  0  0  0  0  0  0  0  0  0  0
    6.9010    2.6967   -1.3125 O   0  0  0  0  0  0  0  0  0  0  0  0
    5.7634    4.5629   -1.7154 O   0  0  0  0  0  0  0  0  0  0  0  0
    7.7180   -1.8714    0.7646 H   0  0  0  0  0  0  0  0  0  0  0  0
    8.3719   -0.2181    0.7355 H   0  0  0  0  0  0  0  0  0  0  0  0
    7.6024   -0.8574   -0.7640 H   0  0  0  0  0  0  0  0  0  0  0  0
    5.4148   -1.0539    0.5917 H   0  0  0  0  0  0  0  0  0  0  0  0
    6.2759   -0.1809    1.9224 H   0  0  0  0  0  0  0  0  0  0  0  0
    3.4220    4.6537   -0.4191 H   0  0  0  0  0  0  0  0  0  0  0  0
    1.6644    3.7820    1.0824 H   0  0  0  0  0  0  0  0  0  0  0  0
    2.2366    0.7389    3.1318 H   0  0  0  0  0  0  0  0  0  0  0  0
    1.1764    2.1616    2.9827 H   0  0  0  0  0  0  0  0  0  0  0  0
   -0.3537   -0.1074    3.1069 H   0  0  0  0  0  0  0  0  0  0  0  0
   -0.7657   -0.5401    0.0456 H   0  0  0  0  0  0  0  0  0  0  0  0
   -1.1268   -2.6228    2.2379 H   0  0  0  0  0  0  0  0  0  0  0  0
    0.2351   -2.4503    1.1370 H   0  0  0  0  0  0  0  0  0  0  0  0
   -1.1040   -3.0505   -0.7584 H   0  0  0  0  0  0  0  0  0  0  0  0
   -3.3746   -4.3631    0.3461 H   0  0  0  0  0  0  0  0  0  0  0  0
   -3.4165   -2.8291    1.1973 H   0  0  0  0  0  0  0  0  0  0  0  0
   -3.3566   -2.8340   -0.6054 H   0  0  0  0  0  0  0  0  0  0  0  0
   -1.6849   -5.3616    0.1683 H   0  0  0  0  0  0  0  0  0  0  0  0
   -0.8397   -4.7226    1.6949 H   0  0  0  0  0  0  0  0  0  0  0  0
    0.0324   -4.8013    0.1170 H   0  0  0  0  0  0  0  0  0  0  0  0
   -2.2725   -0.6238    3.3845 H   0  0  0  0  0  0  0  0  0  0  0  0
   -4.4895   -0.0377    4.0385 H   0  0  0  0  0  0  0  0  0  0  0  0
   -6.1576    0.4927    2.3766 H   0  0  0  0  0  0  0  0  0  0  0  0
   -5.6359    0.4513    0.0654 H   0  0  0  0  0  0  0  0  0  0  0  0
   -4.1471   -0.8886   -2.8534 H   0  0  0  0  0  0  0  0  0  0  0  0
   -5.2673   -0.7461   -1.4767 H   0  0  0  0  0  0  0  0  0  0  0  0
   -5.5984    1.1039   -3.1630 H   0  0  0  0  0  0  0  0  0  0  0  0
   -4.8642    1.8618   -1.6756 H   0  0  0  0  0  0  0  0  0  0  0  0
   -3.0815    2.5429   -2.8447 H   0  0  0  0  0  0  0  0  0  0  0  0
   -3.7816    1.8787   -4.3307 H   0  0  0  0  0  0  0  0  0  0  0  0
   -2.6485   -0.2645   -4.0337 H   0  0  0  0  0  0  0  0  0  0  0  0
   -1.5434    1.0773   -3.7416 H   0  0  0  0  0  0  0  0  0  0  0  0
   -1.4708    0.9401   -1.5450 H   0  0  0  0  0  0  0  0  0  0  0  0
   -1.5051   -0.8374   -2.1274 H   0  0  0  0  0  0  0  0  0  0  0  0
    4.0083    0.3213    1.6946 H   0  0  0  0  0  0  0  0  0  0  0  0
    7.7686    3.1256   -1.6101 H   0  0  0  0  0  0  0  0  0  0  0  0
  1  2  1  0
  2  3  1  0
  3  4  1  0
  4  5  2  0
  5  6  1  0
  6  7  2  0
  7  8  1  0
  8  9  1  0
  9 10  1  0
 10 11  2  0
 10 12  1  0
 12 13  1  0
 13 14  1  0
 14 15  1  0
 15 16  1  0
 15 17  1  0
 13 18  1  0
 18 19  2  0
 19 20  1  0
 20 21  2  0
 21 22  1  0
 22 23  2  0
 23 24  1  0
 24 25  1  0
 25 26  1  0
 26 27  1  0
 27 28  1  0
 28 29  1  0
  8 30  2  0
  5 31  1  0
 31 32  1  0
 31 33  2  0
 30  4  1  0
 23 18  1  0
 29 24  1  0
  1 34  1  0
  1 35  1  0
  1 36  1  0
  2 37  1  0
  2 38  1  0
  6 39  1  0
  7 40  1  0
  9 41  1  0
  9 42  1  0
 12 43  1  0
 13 44  1  6
 14 45  1  0
 14 46  1  0
 15 47  1  0
 16 48  1  0
 16 49  1  0
 16 50  1  0
 17 51  1  0
 17 52  1  0
 17 53  1  0
 19 54  1  0
 20 55  1  0
 21 56  1  0
 22 57  1  0
 25 58  1  0
 25 59  1  0
 26 60  1  0
 26 61  1  0
 27 62  1  0
 27 63  1  0
 28 64  1  0
 28 65  1  0
 29 66  1  0
 29 67  1  0
 30 68  1  0
 32 69  1  0
M  END
$$$$
