
     RDKit          3D

 34 35  0  0  0  0  0  0  0  0999 V2000
   -0.5149    2.0409    1.8923 O   0  0  0  0  0  0  0  0  0  0  0  0
   -0.3071    1.5794    0.7539 C   0  0  0  0  0  0  0  0  0  0  0  0
   -0.0290    0.1123    0.6590 C   0  0  0  0  0  0  0  0  0  0  0  0
    0.0475   -0.8561    2.1314 S   0  0  0  0  0  0  0  0  0  0  0  0
    1.4052   -1.9839    2.2802 C   0  0  0  0  0  0  0  0  0  0  0  0
    2.7131   -1.1725    2.4091 C   0  0  0  0  0  0  0  0  0  0  0  0
    2.6881   -0.3534    3.5208 O   0  0  0  0  0  0  0  0  0  0  0  0
    0.1818   -0.3915   -0.5114 C   0  0  0  0  0  0  0  0  0  0  0  0
    0.5143   -2.1157   -0.7632 S   0  0  0  0  0  0  0  0  0  0  0  0
   -0.8155   -3.0595    0.0087 C   0  0  0  0  0  0  0  0  0  0  0  0
   -2.1403   -2.8467   -0.6981 C   0  0  0  0  0  0  0  0  0  0  0  0
   -3.1240   -3.5989   -0.0591 O   0  0  0  0  0  0  0  0  0  0  0  0
    0.1702    0.4318   -1.7533 C   0  0  0  0  0  0  0  0  0  0  0  0
    0.3850   -0.0752   -2.8847 O   0  0  0  0  0  0  0  0  0  0  0  0
   -0.0902    1.8528   -1.7033 C   0  0  0  0  0  0  0  0  0  0  0  0
   -0.1060    2.6429   -2.8587 C   0  0  0  0  0  0  0  0  0  0  0  0
   -0.3639    3.9913   -2.7232 C   0  0  0  0  0  0  0  0  0  0  0  0
   -0.6005    4.5499   -1.4842 C   0  0  0  0  0  0  0  0  0  0  0  0
   -0.5799    3.7505   -0.3565 C   0  0  0  0  0  0  0  0  0  0  0  0
   -0.3234    2.3861   -0.4525 C   0  0  0  0  0  0  0  0  0  0  0  0
    1.5592   -2.6034    1.4010 H   0  0  0  0  0  0  0  0  0  0  0  0
    1.3237   -2.6291    3.1795 H   0  0  0  0  0  0  0  0  0  0  0  0
    2.8483   -0.5883    1.4869 H   0  0  0  0  0  0  0  0  0  0  0  0
    3.5576   -1.8856    2.4750 H   0  0  0  0  0  0  0  0  0  0  0  0
    3.3977   -0.6030    4.1375 H   0  0  0  0  0  0  0  0  0  0  0  0
   -0.9692   -2.8639    1.0748 H   0  0  0  0  0  0  0  0  0  0  0  0
   -0.5190   -4.1437   -0.0689 H   0  0  0  0  0  0  0  0  0  0  0  0
   -2.0166   -3.2017   -1.7328 H   0  0  0  0  0  0  0  0  0  0  0  0
   -2.4669   -1.7991   -0.6592 H   0  0  0  0  0  0  0  0  0  0  0  0
   -3.9639   -3.0994    0.0169 H   0  0  0  0  0  0  0  0  0  0  0  0
    0.0839    2.1756   -3.8234 H   0  0  0  0  0  0  0  0  0  0  0  0
   -0.3816    4.6206   -3.5969 H   0  0  0  0  0  0  0  0  0  0  0  0
   -0.8058    5.6035   -1.3484 H   0  0  0  0  0  0  0  0  0  0  0  0
   -0.7577    4.1329    0.6369 H   0  0  0  0  0  0  0  0  0  0  0  0
  1  2  2  0
  2  3  1  0
  3  4  1  0
  4  5  1  0
  5  6  1  0
  6  7  1  0
  3  8  2  0
  8  9  1  0
  9 10  1  0
 10 11  1  0
 11 12  1  0
  8 13  1  0
 13 14  2  0
 13 15  1  0
 15 16  2  0
 16 17  1  0
 17 18  2  0
 18 19  1  0
 19 20  2  0
 20  2  1  0
 20 15  1  0
  5 21  1  0
  5 22  1  0
  6 23  1  0
  6 24  1  0
  7 25  1  0
 10 26  1  0
 10 27  1  0
 11 28  1  0
 11 29  1  0
 12 30  1  0
 16 31  1  0
 17 32  1  0
 18 33  1  0
 19 34  1  0
M  END
$$$$
