
     RDKit          3D

 59 62  0  0  0  0  0  0  0  0999 V2000
   -3.2378    0.5279    0.0523 C   0  0  1  0  0  0  0  0  0  0  0  0
   -2.7020   -0.2118    1.2136 C   0  0  0  0  0  0  0  0  0  0  0  0
   -3.6051   -1.1168    1.7697 O   0  0  0  0  0  0  0  0  0  0  0  0
   -3.7005   -0.1845   -1.1347 C   0  0  0  0  0  0  0  0  0  0  0  0
   -2.8339   -1.0248   -1.9669 C   0  0  0  0  0  0  0  0  0  0  0  0
   -2.1651   -2.1557   -1.4120 N   0  0  0  0  0  0  0  0  0  0  0  0
   -2.8038   -3.3535   -1.2462 C   0  0  0  0  0  0  0  0  0  0  0  0
   -1.9986   -4.3039   -0.6756 C   0  0  0  0  0  0  0  0  0  0  0  0
   -0.7810   -3.7014   -0.4596 C   0  0  0  0  0  0  0  0  0  0  0  0
   -0.9259   -2.4117   -0.9169 C   0  0  0  0  0  0  0  0  0  0  0  0
    0.1131   -1.4996   -0.8695 C   0  0  0  0  0  0  0  0  0  0  0  0
    1.3500   -1.8228   -0.3638 C   0  0  0  0  0  0  0  0  0  0  0  0
    2.3721   -0.8502   -0.3412 N   0  0  0  0  0  0  0  0  0  0  0  0
    3.7027   -0.9336    0.1188 C   0  0  0  0  0  0  0  0  0  0  0  0
    4.0927   -2.0050    0.5878 O   0  0  0  0  0  0  0  0  0  0  0  0
    4.6389    0.1082    0.0913 N   0  0  0  0  0  0  0  0  0  0  0  0
    5.9642   -0.1729    0.6127 C   0  0  0  0  0  0  0  0  0  0  0  0
    6.8548    0.9922    0.5305 C   0  0  0  0  0  0  0  0  0  0  0  0
    6.9454    1.9184    1.5727 C   0  0  0  0  0  0  0  0  0  0  0  0
    7.7679    3.0237    1.5348 C   0  0  0  0  0  0  0  0  0  0  0  0
    8.5445    3.2379    0.4203 C   0  0  0  0  0  0  0  0  0  0  0  0
    8.5017    2.3565   -0.6493 C   0  0  0  0  0  0  0  0  0  0  0  0
    7.6575    1.2450   -0.5805 C   0  0  0  0  0  0  0  0  0  0  0  0
    1.4509   -3.1178    0.0819 C   0  0  0  0  0  0  0  0  0  0  0  0
    0.4465   -4.0610    0.0552 C   0  0  0  0  0  0  0  0  0  0  0  0
   -4.2931    1.4874    0.4724 N   0  0  0  0  0  0  0  0  0  0  0  0
   -4.1455    2.4697    1.4073 C   0  0  0  0  0  0  0  0  0  0  0  0
   -5.3441    3.1104    1.4848 N   0  0  0  0  0  0  0  0  0  0  0  0
   -6.2213    2.5554    0.6305 C   0  0  0  0  0  0  0  0  0  0  0  0
   -5.5671    1.5271   -0.0158 C   0  0  0  0  0  0  0  0  0  0  0  0
   -7.6069    2.9601    0.4212 C   0  0  0  0  0  0  0  0  0  0  0  0
   -8.4152    2.2764   -0.5195 N   0  0  0  0  0  0  0  0  0  0  0  0
   -8.0846    3.9199    1.0791 O   0  0  0  0  0  0  0  0  0  0  0  0
   -2.3915    1.2296   -0.2726 H   0  0  0  0  0  0  0  0  0  0  0  0
   -2.5504    0.5480    2.0493 H   0  0  0  0  0  0  0  0  0  0  0  0
   -1.7420   -0.6646    1.0813 H   0  0  0  0  0  0  0  0  0  0  0  0
   -3.9267   -1.7809    1.1255 H   0  0  0  0  0  0  0  0  0  0  0  0
   -4.6781   -0.7280   -0.8825 H   0  0  0  0  0  0  0  0  0  0  0  0
   -4.1178    0.6165   -1.8524 H   0  0  0  0  0  0  0  0  0  0  0  0
   -3.4306   -1.4453   -2.8508 H   0  0  0  0  0  0  0  0  0  0  0  0
   -2.0532   -0.4155   -2.5234 H   0  0  0  0  0  0  0  0  0  0  0  0
   -3.8306   -3.5961   -1.5130 H   0  0  0  0  0  0  0  0  0  0  0  0
   -2.2350   -5.3269   -0.4302 H   0  0  0  0  0  0  0  0  0  0  0  0
   -0.0221   -0.4703   -1.2415 H   0  0  0  0  0  0  0  0  0  0  0  0
    2.1646    0.1111   -0.7155 H   0  0  0  0  0  0  0  0  0  0  0  0
    4.3432    1.0465   -0.3045 H   0  0  0  0  0  0  0  0  0  0  0  0
    5.9301   -0.5574    1.6542 H   0  0  0  0  0  0  0  0  0  0  0  0
    6.4191   -0.9757   -0.0219 H   0  0  0  0  0  0  0  0  0  0  0  0
    6.3392    1.7753    2.4739 H   0  0  0  0  0  0  0  0  0  0  0  0
    7.8465    3.7397    2.3251 H   0  0  0  0  0  0  0  0  0  0  0  0
    9.2402    4.0703    0.2550 H   0  0  0  0  0  0  0  0  0  0  0  0
    9.0950    2.4679   -1.5686 H   0  0  0  0  0  0  0  0  0  0  0  0
    7.6119    0.5420   -1.4131 H   0  0  0  0  0  0  0  0  0  0  0  0
    2.3774   -3.4749    0.4977 H   0  0  0  0  0  0  0  0  0  0  0  0
    0.5664   -5.0572    0.4118 H   0  0  0  0  0  0  0  0  0  0  0  0
   -3.2250    2.6540    1.9495 H   0  0  0  0  0  0  0  0  0  0  0  0
   -5.9558    0.8648   -0.7649 H   0  0  0  0  0  0  0  0  0  0  0  0
   -8.9013    2.6364   -1.3610 H   0  0  0  0  0  0  0  0  0  0  0  0
   -8.8451    1.4013   -0.8371 H   0  0  0  0  0  0  0  0  0  0  0  0
  1  2  1  0
  2  3  1  0
  1  4  1  0
  4  5  1  0
  5  6  1  0
  6  7  1  0
  7  8  2  0
  8  9  1  0
  9 10  2  0
 10 11  1  0
 11 12  2  0
 12 13  1  0
 13 14  1  0
 14 15  2  0
 14 16  1  0
 16 17  1  0
 17 18  1  0
 18 19  2  0
 19 20  1  0
 20 21  2  0
 21 22  1  0
 22 23  2  0
 12 24  1  0
 24 25  2  0
  1 26  1  0
 26 27  1  0
 27 28  2  0
 28 29  1  0
 29 30  2  0
 29 31  1  0
 31 32  1  0
 31 33  2  0
 10  6  1  0
 23 18  1  0
 30 26  1  0
 25  9  1  0
  1 34  1  6
  2 35  1  0
  2 36  1  0
  3 37  1  0
  4 38  1  0
  4 39  1  0
  5 40  1  0
  5 41  1  0
  7 42  1  0
  8 43  1  0
 11 44  1  0
 13 45  1  0
 16 46  1  0
 17 47  1  0
 17 48  1  0
 19 49  1  0
 20 50  1  0
 21 51  1  0
 22 52  1  0
 23 53  1  0
 24 54  1  0
 25 55  1  0
 27 56  1  0
 30 57  1  0
 32 58  1  0
 32 59  1  0
M  END
$$$$
