
     RDKit          3D

 38 41  0  0  0  0  0  0  0  0999 V2000
   -4.2418   -4.3777   -0.9968 Cl  0  0  0  0  0  0  0  0  0  0  0  0
   -4.2829   -2.6628   -0.7311 C   0  0  0  0  0  0  0  0  0  0  0  0
   -5.5163   -2.0605   -0.7372 C   0  0  0  0  0  0  0  0  0  0  0  0
   -5.5577   -0.7029   -0.5276 C   0  0  0  0  0  0  0  0  0  0  0  0
   -4.4018    0.0136   -0.3209 C   0  0  0  0  0  0  0  0  0  0  0  0
   -3.1458   -0.5612   -0.3087 C   0  0  0  0  0  0  0  0  0  0  0  0
   -3.1633   -1.9083   -0.5214 C   0  0  0  0  0  0  0  0  0  0  0  0
   -1.6842   -2.7960   -0.5401 Cl  0  0  0  0  0  0  0  0  0  0  0  0
   -2.0259    0.3172   -0.0795 C   0  0  0  0  0  0  0  0  0  0  0  0
   -2.2851    1.6212    0.1040 N   0  0  0  0  0  0  0  0  0  0  0  0
   -1.3633    2.5682    0.3278 C   0  0  0  0  0  0  0  0  0  0  0  0
   -1.5606    3.9194    0.5237 C   0  0  0  0  0  0  0  0  0  0  0  0
   -0.2782    4.4429    0.7104 C   0  0  0  0  0  0  0  0  0  0  0  0
    0.6067    3.4064    0.6200 N   0  0  0  0  0  0  0  0  0  0  0  0
   -0.0543    2.2889    0.3907 N   0  0  0  0  0  0  0  0  0  0  0  0
    0.2910    1.0030    0.2171 C   0  0  0  0  0  0  0  0  0  0  0  0
    1.6560    0.6039    0.2658 N   0  0  0  0  0  0  0  0  0  0  0  0
    2.1437   -0.7262    0.0968 C   0  0  0  0  0  0  0  0  0  0  0  0
    3.6047   -0.8865    0.1909 C   0  0  0  0  0  0  0  0  0  0  0  0
    4.4509   -0.7896   -0.9043 C   0  0  0  0  0  0  0  0  0  0  0  0
    5.8000   -0.9597   -0.6840 C   0  0  0  0  0  0  0  0  0  0  0  0
    6.3878   -1.2136    0.5006 N   0  0  0  0  0  0  0  0  0  0  0  0
    5.5850   -1.3116    1.5768 C   0  0  0  0  0  0  0  0  0  0  0  0
    4.2289   -1.1494    1.4088 C   0  0  0  0  0  0  0  0  0  0  0  0
   -0.6934    0.0762   -0.0086 C   0  0  0  0  0  0  0  0  0  0  0  0
   -6.4349   -2.5927   -0.8956 H   0  0  0  0  0  0  0  0  0  0  0  0
   -6.5233   -0.2232   -0.5311 H   0  0  0  0  0  0  0  0  0  0  0  0
   -4.5755    1.0805   -0.1677 H   0  0  0  0  0  0  0  0  0  0  0  0
   -2.5182    4.4417    0.5275 H   0  0  0  0  0  0  0  0  0  0  0  0
   -0.0383    5.4676    0.8908 H   0  0  0  0  0  0  0  0  0  0  0  0
    2.3778    1.3073    0.4351 H   0  0  0  0  0  0  0  0  0  0  0  0
    1.6969   -1.3476    0.9213 H   0  0  0  0  0  0  0  0  0  0  0  0
    1.8247   -1.1411   -0.8840 H   0  0  0  0  0  0  0  0  0  0  0  0
    4.0447   -0.5908   -1.8649 H   0  0  0  0  0  0  0  0  0  0  0  0
    6.4837   -0.8867   -1.5372 H   0  0  0  0  0  0  0  0  0  0  0  0
    5.9800   -1.5146    2.5688 H   0  0  0  0  0  0  0  0  0  0  0  0
    3.5495   -1.2245    2.2715 H   0  0  0  0  0  0  0  0  0  0  0  0
   -0.3672   -0.9309   -0.1401 H   0  0  0  0  0  0  0  0  0  0  0  0
  1  2  1  0
  2  3  2  0
  3  4  1  0
  4  5  2  0
  5  6  1  0
  6  7  2  0
  7  8  1  0
  6  9  1  0
  9 10  2  0
 10 11  1  0
 11 12  2  0
 12 13  1  0
 13 14  2  0
 14 15  1  0
 15 16  1  0
 16 17  1  0
 17 18  1  0
 18 19  1  0
 19 20  2  0
 20 21  1  0
 21 22  2  0
 22 23  1  0
 23 24  2  0
 16 25  2  0
  7  2  1  0
 25  9  1  0
 15 11  1  0
 24 19  1  0
  3 26  1  0
  4 27  1  0
  5 28  1  0
 12 29  1  0
 13 30  1  0
 17 31  1  0
 18 32  1  0
 18 33  1  0
 20 34  1  0
 21 35  1  0
 23 36  1  0
 24 37  1  0
 25 38  1  0
M  END
$$$$
