
     RDKit          3D

 30 31  0  0  0  0  0  0  0  0999 V2000
   -4.7355   -1.7727   -0.5939 O   0  0  0  0  0  0  0  0  0  0  0  0
   -4.0343   -0.5902   -0.3613 C   0  0  0  0  0  0  0  0  0  0  0  0
   -2.6569   -0.5791   -0.2739 C   0  0  0  0  0  0  0  0  0  0  0  0
   -1.9110    0.5540   -0.0463 C   0  0  0  0  0  0  0  0  0  0  0  0
   -0.4568    0.5670    0.0462 C   0  0  0  0  0  0  0  0  0  0  0  0
    0.3189   -0.4765   -0.0724 C   0  0  0  0  0  0  0  0  0  0  0  0
    1.7735   -0.4737    0.0185 C   0  0  0  0  0  0  0  0  0  0  0  0
    2.5337    0.6533    0.2460 C   0  0  0  0  0  0  0  0  0  0  0  0
    3.8911    0.6901    0.3363 C   0  0  0  0  0  0  0  0  0  0  0  0
    4.5965   -0.4916    0.1912 C   0  0  0  0  0  0  0  0  0  0  0  0
    5.9741   -0.5021    0.2752 O   0  0  0  0  0  0  0  0  0  0  0  0
    3.8863   -1.6519   -0.0386 C   0  0  0  0  0  0  0  0  0  0  0  0
    4.5883   -2.8415   -0.1852 O   0  0  0  0  0  0  0  0  0  0  0  0
    2.5093   -1.6213   -0.1193 C   0  0  0  0  0  0  0  0  0  0  0  0
   -2.6448    1.7092    0.0927 C   0  0  0  0  0  0  0  0  0  0  0  0
   -4.0217    1.7473    0.0131 C   0  0  0  0  0  0  0  0  0  0  0  0
   -4.6829    2.9803    0.1691 O   0  0  0  0  0  0  0  0  0  0  0  0
   -4.7343    0.5894   -0.2163 C   0  0  0  0  0  0  0  0  0  0  0  0
   -5.7033   -1.7534   -0.8166 H   0  0  0  0  0  0  0  0  0  0  0  0
   -2.1821   -1.5218   -0.3950 H   0  0  0  0  0  0  0  0  0  0  0  0
    0.0272    1.5107    0.2272 H   0  0  0  0  0  0  0  0  0  0  0  0
   -0.1618   -1.4275   -0.2544 H   0  0  0  0  0  0  0  0  0  0  0  0
    2.0467    1.6105    0.3688 H   0  0  0  0  0  0  0  0  0  0  0  0
    4.4642    1.5748    0.5134 H   0  0  0  0  0  0  0  0  0  0  0  0
    6.5905    0.1185   -0.2434 H   0  0  0  0  0  0  0  0  0  0  0  0
    4.7902   -3.1351   -1.1390 H   0  0  0  0  0  0  0  0  0  0  0  0
    2.0375   -2.5727   -0.3008 H   0  0  0  0  0  0  0  0  0  0  0  0
   -2.1118    2.6383    0.2743 H   0  0  0  0  0  0  0  0  0  0  0  0
   -4.1782    3.8001   -0.1588 H   0  0  0  0  0  0  0  0  0  0  0  0
   -5.8128    0.6675   -0.2709 H   0  0  0  0  0  0  0  0  0  0  0  0
  1  2  1  0
  2  3  2  0
  3  4  1  0
  4  5  1  0
  5  6  2  0
  6  7  1  0
  7  8  2  0
  8  9  1  0
  9 10  2  0
 10 11  1  0
 10 12  1  0
 12 13  1  0
 12 14  2  0
  4 15  2  0
 15 16  1  0
 16 17  1  0
 16 18  2  0
 18  2  1  0
 14  7  1  0
  1 19  1  0
  3 20  1  0
  5 21  1  0
  6 22  1  0
  8 23  1  0
  9 24  1  0
 11 25  1  0
 13 26  1  0
 14 27  1  0
 15 28  1  0
 17 29  1  0
 18 30  1  0
M  END
$$$$
