
     RDKit          3D

 63 67  0  0  0  0  0  0  0  0999 V2000
    6.8660    2.1976   -2.2049 C   0  0  0  0  0  0  0  0  0  0  0  0
    5.7507    3.0914   -1.8438 C   0  0  0  0  0  0  0  0  0  0  0  0
    5.4978    4.0764   -2.5690 O   0  0  0  0  0  0  0  0  0  0  0  0
    4.9818    2.8314   -0.6913 N   0  0  0  0  0  0  0  0  0  0  0  0
    3.8696    3.6844   -0.2911 C   0  0  0  0  0  0  0  0  0  0  0  0
    2.6244    2.8469    0.0166 C   0  0  0  0  0  0  0  0  0  0  0  0
    2.9886    1.6298    0.6946 N   0  0  0  0  0  0  0  0  0  0  0  0
    2.0692    0.5773    0.8032 C   0  0  0  0  0  0  0  0  0  0  0  0
    0.8253    0.6605    0.3100 N   0  0  0  0  0  0  0  0  0  0  0  0
   -0.0888   -0.3126    0.3852 C   0  0  0  0  0  0  0  0  0  0  0  0
   -1.3973   -0.1650   -0.1590 N   0  0  0  0  0  0  0  0  0  0  0  0
   -1.7244    1.0796   -0.8060 C   0  0  0  0  0  0  0  0  0  0  0  0
   -3.0950    1.1241   -1.3288 C   0  0  0  0  0  0  0  0  0  0  0  0
   -3.3633    0.7049   -2.6169 C   0  0  0  0  0  0  0  0  0  0  0  0
   -4.5954    0.7189   -3.1589 N   0  0  0  0  0  0  0  0  0  0  0  0
   -5.6462    1.1532   -2.4507 C   0  0  0  0  0  0  0  0  0  0  0  0
   -6.9242    1.1735   -2.9974 C   0  0  0  0  0  0  0  0  0  0  0  0
   -8.0202    1.6165   -2.2869 C   0  0  0  0  0  0  0  0  0  0  0  0
   -7.7907    2.0468   -0.9865 C   0  0  0  0  0  0  0  0  0  0  0  0
   -6.5256    2.0307   -0.4346 C   0  0  0  0  0  0  0  0  0  0  0  0
   -5.4397    1.5828   -1.1633 C   0  0  0  0  0  0  0  0  0  0  0  0
   -4.1818    1.5742   -0.5943 C   0  0  0  0  0  0  0  0  0  0  0  0
    0.2932   -1.4977    1.0274 C   0  0  0  0  0  0  0  0  0  0  0  0
    1.5525   -1.6195    1.5426 C   0  0  0  0  0  0  0  0  0  0  0  0
    2.3987   -0.5724    1.4111 N   0  0  0  0  0  0  0  0  0  0  0  0
    1.6652   -2.9428    2.1440 C   0  0  0  0  0  0  0  0  0  0  0  0
    2.7132   -3.3789    2.7145 O   0  0  0  0  0  0  0  0  0  0  0  0
    0.4326   -3.6253    1.9788 N   0  0  0  0  0  0  0  0  0  0  0  0
    0.1727   -4.9754    2.4530 C   0  0  0  0  0  0  0  0  0  0  0  0
   -0.9289   -4.9766    3.5215 C   0  0  0  0  0  0  0  0  0  0  0  0
   -0.2136   -5.9075    1.3227 C   0  0  0  0  0  0  0  0  0  0  0  0
   -0.4461   -2.7310    1.2769 C   0  0  0  0  0  0  0  0  0  0  0  0
    4.3100    1.5168    1.2564 C   0  0  0  0  0  0  0  0  0  0  0  0
    5.2978    1.6840    0.1275 C   0  0  0  0  0  0  0  0  0  0  0  0
    7.5211    2.6658   -2.9932 H   0  0  0  0  0  0  0  0  0  0  0  0
    7.4512    2.0260   -1.2642 H   0  0  0  0  0  0  0  0  0  0  0  0
    6.5116    1.1851   -2.5316 H   0  0  0  0  0  0  0  0  0  0  0  0
    4.1830    4.2950    0.5628 H   0  0  0  0  0  0  0  0  0  0  0  0
    3.5605    4.3569   -1.1432 H   0  0  0  0  0  0  0  0  0  0  0  0
    2.1164    2.6351   -0.9352 H   0  0  0  0  0  0  0  0  0  0  0  0
    1.9713    3.4998    0.6294 H   0  0  0  0  0  0  0  0  0  0  0  0
   -2.0573   -0.9668   -0.0628 H   0  0  0  0  0  0  0  0  0  0  0  0
   -1.5747    1.9098   -0.0744 H   0  0  0  0  0  0  0  0  0  0  0  0
   -1.0255    1.1960   -1.6667 H   0  0  0  0  0  0  0  0  0  0  0  0
   -2.5286    0.3499   -3.2063 H   0  0  0  0  0  0  0  0  0  0  0  0
   -7.0684    0.8281   -4.0219 H   0  0  0  0  0  0  0  0  0  0  0  0
   -9.0173    1.6303   -2.7187 H   0  0  0  0  0  0  0  0  0  0  0  0
   -8.6574    2.3924   -0.4378 H   0  0  0  0  0  0  0  0  0  0  0  0
   -6.4010    2.3744    0.5754 H   0  0  0  0  0  0  0  0  0  0  0  0
   -3.9932    1.9056    0.4130 H   0  0  0  0  0  0  0  0  0  0  0  0
    1.0658   -5.3959    2.9563 H   0  0  0  0  0  0  0  0  0  0  0  0
   -1.7355   -4.2715    3.2662 H   0  0  0  0  0  0  0  0  0  0  0  0
   -1.2954   -6.0266    3.5676 H   0  0  0  0  0  0  0  0  0  0  0  0
   -0.4359   -4.7164    4.4914 H   0  0  0  0  0  0  0  0  0  0  0  0
   -0.6284   -5.3279    0.4485 H   0  0  0  0  0  0  0  0  0  0  0  0
   -0.9996   -6.6376    1.6516 H   0  0  0  0  0  0  0  0  0  0  0  0
    0.6426   -6.4817    0.9251 H   0  0  0  0  0  0  0  0  0  0  0  0
   -1.3237   -2.5623    1.9702 H   0  0  0  0  0  0  0  0  0  0  0  0
   -0.8507   -3.2023    0.3557 H   0  0  0  0  0  0  0  0  0  0  0  0
    4.4906    0.5252    1.7291 H   0  0  0  0  0  0  0  0  0  0  0  0
    4.5224    2.3200    1.9941 H   0  0  0  0  0  0  0  0  0  0  0  0
    6.3088    1.8505    0.5512 H   0  0  0  0  0  0  0  0  0  0  0  0
    5.3194    0.7460   -0.4969 H   0  0  0  0  0  0  0  0  0  0  0  0
  1  2  1  0
  2  3  2  0
  2  4  1  0
  4  5  1  0
  5  6  1  0
  6  7  1  0
  7  8  1  0
  8  9  2  0
  9 10  1  0
 10 11  1  0
 11 12  1  0
 12 13  1  0
 13 14  2  0
 14 15  1  0
 15 16  2  0
 16 17  1  0
 17 18  2  0
 18 19  1  0
 19 20  2  0
 20 21  1  0
 21 22  2  0
 10 23  2  0
 23 24  1  0
 24 25  2  0
 24 26  1  0
 26 27  2  0
 26 28  1  0
 28 29  1  0
 29 30  1  0
 29 31  1  0
 28 32  1  0
  7 33  1  0
 33 34  1  0
 34  4  1  0
 25  8  1  0
 22 13  1  0
 32 23  1  0
 21 16  1  0
  1 35  1  0
  1 36  1  0
  1 37  1  0
  5 38  1  0
  5 39  1  0
  6 40  1  0
  6 41  1  0
 11 42  1  0
 12 43  1  0
 12 44  1  0
 14 45  1  0
 17 46  1  0
 18 47  1  0
 19 48  1  0
 20 49  1  0
 22 50  1  0
 29 51  1  0
 30 52  1  0
 30 53  1  0
 30 54  1  0
 31 55  1  0
 31 56  1  0
 31 57  1  0
 32 58  1  0
 32 59  1  0
 33 60  1  0
 33 61  1  0
 34 62  1  0
 34 63  1  0
M  END
$$$$
