
     RDKit          3D

 64 68  0  0  0  0  0  0  0  0999 V2000
    6.0189    5.2799    1.3792 C   0  0  0  0  0  0  0  0  0  0  0  0
    4.7009    5.2957    0.8045 O   0  0  0  0  0  0  0  0  0  0  0  0
    3.9553    4.0783    0.7355 C   0  0  0  0  0  0  0  0  0  0  0  0
    4.3149    2.9028    1.1825 C   0  0  0  0  0  0  0  0  0  0  0  0
    3.5988    1.7271    1.1121 C   0  0  0  0  0  0  0  0  0  0  0  0
    2.3225    1.8136    0.4717 C   0  0  0  0  0  0  0  0  0  0  0  0
    1.4991    0.5556    0.4432 C   0  0  0  0  0  0  0  0  0  0  0  0
    2.1648   -0.3444   -0.4219 N   0  0  0  0  0  0  0  0  0  0  0  0
    1.6205   -1.6265   -0.7203 C   0  0  0  0  0  0  0  0  0  0  0  0
    0.4746   -1.7823   -1.2221 N   0  0  0  0  0  0  0  0  0  0  0  0
   -0.2947   -2.8763   -1.6098 C   0  0  2  0  0  0  0  0  0  0  0  0
   -0.6278   -2.6293   -3.1209 C   0  0  0  0  0  0  0  0  0  0  0  0
   -1.6528   -2.7600   -0.9812 C   0  0  0  0  0  0  0  0  0  0  0  0
   -1.9486   -1.5988   -0.2463 C   0  0  0  0  0  0  0  0  0  0  0  0
   -3.2309   -1.4458    0.3192 C   0  0  0  0  0  0  0  0  0  0  0  0
   -3.5494   -0.1586    0.9660 C   0  0  0  0  0  0  0  0  0  0  0  0
   -3.2846    0.9616    0.3572 C   0  0  0  0  0  0  0  0  0  0  0  0
   -2.6966    0.8684   -0.8996 F   0  0  0  0  0  0  0  0  0  0  0  0
   -3.5444    2.3220    0.8764 C   0  0  0  0  0  0  0  0  0  0  0  0
   -4.1497    2.4663    2.1158 C   0  0  0  0  0  0  0  0  0  0  0  0
   -4.3684    3.8123    2.5284 C   0  0  0  0  0  0  0  0  0  0  0  0
   -4.0118    4.8672    1.7726 C   0  0  0  0  0  0  0  0  0  0  0  0
   -4.1842    6.2669    2.1118 C   0  0  0  0  0  0  0  0  0  0  0  0
   -4.3358    7.3841    2.3859 N   0  0  0  0  0  0  0  0  0  0  0  0
   -3.3933    4.6614    0.5130 C   0  0  0  0  0  0  0  0  0  0  0  0
   -3.2129    3.3606    0.1691 N   0  0  0  0  0  0  0  0  0  0  0  0
   -4.1033   -2.4560    0.1149 C   0  0  0  0  0  0  0  0  0  0  0  0
   -3.8179   -3.6022   -0.6074 C   0  0  0  0  0  0  0  0  0  0  0  0
   -2.5699   -3.7599   -1.1738 C   0  0  0  0  0  0  0  0  0  0  0  0
   -2.2504   -4.8538   -1.9224 F   0  0  0  0  0  0  0  0  0  0  0  0
    0.2638   -4.2176   -1.5396 C   0  0  2  0  0  0  0  0  0  0  0  0
    0.2868   -4.8433   -0.1352 C   0  0  0  0  0  0  0  0  0  0  0  0
   -0.0742   -4.0577    0.9347 F   0  0  0  0  0  0  0  0  0  0  0  0
   -0.0114   -6.1875    0.0175 F   0  0  0  0  0  0  0  0  0  0  0  0
    1.5046   -4.5050   -0.8650 C   0  0  1  0  0  0  0  0  0  0  0  0
    2.3620   -5.6922   -1.3594 C   0  0  0  0  0  0  0  0  0  0  0  0
    3.4916   -5.7208   -0.5094 O   0  0  0  0  0  0  0  0  0  0  0  0
    2.5739   -3.1094   -0.4404 S   0  0  0  0  0  0  0  0  0  0  0  0
    1.9559    3.0122    0.0140 C   0  0  0  0  0  0  0  0  0  0  0  0
    2.6760    4.2066    0.0862 C   0  0  0  0  0  0  0  0  0  0  0  0
    6.3244    6.2990    1.6562 H   0  0  0  0  0  0  0  0  0  0  0  0
    6.0010    4.5284    2.1574 H   0  0  0  0  0  0  0  0  0  0  0  0
    6.6753    4.9612    0.4795 H   0  0  0  0  0  0  0  0  0  0  0  0
    5.3265    2.8099    1.6683 H   0  0  0  0  0  0  0  0  0  0  0  0
    3.9393    0.8010    1.4805 H   0  0  0  0  0  0  0  0  0  0  0  0
    0.4665    0.8046    0.1146 H   0  0  0  0  0  0  0  0  0  0  0  0
    1.5300    0.2109    1.5029 H   0  0  0  0  0  0  0  0  0  0  0  0
    3.0770   -0.1130   -0.8806 H   0  0  0  0  0  0  0  0  0  0  0  0
   -1.4910   -3.2542   -3.3922 H   0  0  0  0  0  0  0  0  0  0  0  0
    0.2365   -2.9477   -3.7300 H   0  0  0  0  0  0  0  0  0  0  0  0
   -0.7944   -1.5594   -3.2479 H   0  0  0  0  0  0  0  0  0  0  0  0
   -1.2317   -0.8232   -0.0917 H   0  0  0  0  0  0  0  0  0  0  0  0
   -4.0023   -0.1691    1.9348 H   0  0  0  0  0  0  0  0  0  0  0  0
   -4.4507    1.6765    2.7226 H   0  0  0  0  0  0  0  0  0  0  0  0
   -4.8432    3.9983    3.4885 H   0  0  0  0  0  0  0  0  0  0  0  0
   -3.1085    5.4905   -0.0820 H   0  0  0  0  0  0  0  0  0  0  0  0
   -5.0963   -2.3350    0.5561 H   0  0  0  0  0  0  0  0  0  0  0  0
   -4.5326   -4.4042   -0.7774 H   0  0  0  0  0  0  0  0  0  0  0  0
   -0.0038   -4.9139   -2.3742 H   0  0  0  0  0  0  0  0  0  0  0  0
    1.8307   -6.6358   -1.3045 H   0  0  0  0  0  0  0  0  0  0  0  0
    2.7472   -5.4908   -2.3747 H   0  0  0  0  0  0  0  0  0  0  0  0
    3.5766   -4.7810   -0.0658 H   0  0  0  0  0  0  0  0  0  0  0  0
    0.9726    3.0937   -0.4846 H   0  0  0  0  0  0  0  0  0  0  0  0
    2.3786    5.1380   -0.2801 H   0  0  0  0  0  0  0  0  0  0  0  0
  1  2  1  0
  2  3  1  0
  3  4  2  0
  4  5  1  0
  5  6  2  0
  6  7  1  0
  7  8  1  0
  8  9  1  0
  9 10  2  0
 10 11  1  0
 11 12  1  6
 11 13  1  0
 13 14  2  0
 14 15  1  0
 15 16  1  0
 16 17  2  0
 17 18  1  0
 17 19  1  0
 19 20  2  0
 20 21  1  0
 21 22  2  0
 22 23  1  0
 23 24  3  0
 22 25  1  0
 25 26  2  0
 15 27  2  0
 27 28  1  0
 28 29  2  0
 29 30  1  0
 11 31  1  0
 31 32  1  0
 32 33  1  0
 32 34  1  0
 32 35  1  0
 35 36  1  6
 36 37  1  0
 35 38  1  0
  6 39  1  0
 39 40  2  0
 40  3  1  0
 38  9  1  0
 29 13  1  0
 35 31  1  0
 26 19  1  0
  1 41  1  0
  1 42  1  0
  1 43  1  0
  4 44  1  0
  5 45  1  0
  7 46  1  0
  7 47  1  0
  8 48  1  0
 12 49  1  0
 12 50  1  0
 12 51  1  0
 14 52  1  0
 16 53  1  0
 20 54  1  0
 21 55  1  0
 25 56  1  0
 27 57  1  0
 28 58  1  0
 31 59  1  6
 36 60  1  0
 36 61  1  0
 37 62  1  0
 39 63  1  0
 40 64  1  0
M  END
$$$$
