
     RDKit          3D

 64 66  0  0  0  0  0  0  0  0999 V2000
    8.1688    3.0726   -1.1853 C   0  0  0  0  0  0  0  0  0  0  0  0
    7.1579    2.1407   -0.8668 O   0  0  0  0  0  0  0  0  0  0  0  0
    7.4037    0.7822   -0.9221 C   0  0  0  0  0  0  0  0  0  0  0  0
    8.6440    0.3203   -1.2909 C   0  0  0  0  0  0  0  0  0  0  0  0
    8.8259   -1.0501   -1.3264 C   0  0  0  0  0  0  0  0  0  0  0  0
    7.8363   -1.9498   -1.0141 C   0  0  0  0  0  0  0  0  0  0  0  0
    6.6103   -1.4285   -0.6505 C   0  0  0  0  0  0  0  0  0  0  0  0
    6.3649   -0.0782   -0.5955 C   0  0  0  0  0  0  0  0  0  0  0  0
    5.1147    0.4538   -0.2246 O   0  0  0  0  0  0  0  0  0  0  0  0
    4.1245   -0.4949    0.0908 C   0  0  0  0  0  0  0  0  0  0  0  0
    2.8069    0.1558    0.4795 C   0  0  0  0  0  0  0  0  0  0  0  0
    3.0129    0.9697    1.5932 O   0  0  0  0  0  0  0  0  0  0  0  0
    1.8008   -0.9229    0.7994 C   0  0  0  0  0  0  0  0  0  0  0  0
    0.5410   -0.3762    1.1890 N   0  0  0  0  0  0  0  0  0  0  0  0
   -0.1480    0.2672    0.1275 C   0  0  0  0  0  0  0  0  0  0  0  0
   -1.3564    1.0010    0.6945 C   0  0  0  0  0  0  0  0  0  0  0  0
   -2.0165    0.2573    1.7103 N   0  0  0  0  0  0  0  0  0  0  0  0
   -3.3224    0.6675    2.0707 C   0  0  0  0  0  0  0  0  0  0  0  0
   -4.3840    0.4729    1.0845 C   0  0  0  0  0  0  0  0  0  0  0  0
   -5.4548    0.9204    1.6280 O   0  0  0  0  0  0  0  0  0  0  0  0
   -4.4542   -0.0642   -0.2333 N   0  0  0  0  0  0  0  0  0  0  0  0
   -5.7841    0.0052   -0.7242 C   0  0  0  0  0  0  0  0  0  0  0  0
   -6.5223   -1.1385   -0.4040 C   0  0  0  0  0  0  0  0  0  0  0  0
   -6.0137   -2.3103    0.3604 C   0  0  0  0  0  0  0  0  0  0  0  0
   -7.8374   -1.2479   -0.8020 C   0  0  0  0  0  0  0  0  0  0  0  0
   -8.4067   -0.2186   -1.5150 C   0  0  0  0  0  0  0  0  0  0  0  0
   -7.6928    0.9192   -1.8410 C   0  0  0  0  0  0  0  0  0  0  0  0
   -6.3823    1.0211   -1.4408 C   0  0  0  0  0  0  0  0  0  0  0  0
   -5.4837    2.1706   -1.7092 C   0  0  0  0  0  0  0  0  0  0  0  0
   -1.7464   -1.1387    1.7323 C   0  0  0  0  0  0  0  0  0  0  0  0
   -0.2505   -1.2861    1.9824 C   0  0  0  0  0  0  0  0  0  0  0  0
    7.7201    4.0700   -1.3919 H   0  0  0  0  0  0  0  0  0  0  0  0
    8.6776    2.7540   -2.0980 H   0  0  0  0  0  0  0  0  0  0  0  0
    8.8881    3.1488   -0.3396 H   0  0  0  0  0  0  0  0  0  0  0  0
    9.4745    0.9579   -1.5526 H   0  0  0  0  0  0  0  0  0  0  0  0
    9.7996   -1.4703   -1.6158 H   0  0  0  0  0  0  0  0  0  0  0  0
    8.0202   -3.0110   -1.0548 H   0  0  0  0  0  0  0  0  0  0  0  0
    5.8270   -2.1251   -0.4037 H   0  0  0  0  0  0  0  0  0  0  0  0
    4.5044   -1.1524    0.8833 H   0  0  0  0  0  0  0  0  0  0  0  0
    3.9383   -1.1255   -0.8049 H   0  0  0  0  0  0  0  0  0  0  0  0
    2.4658    0.7815   -0.3490 H   0  0  0  0  0  0  0  0  0  0  0  0
    2.7900    0.5214    2.4529 H   0  0  0  0  0  0  0  0  0  0  0  0
    2.2515   -1.5542    1.6106 H   0  0  0  0  0  0  0  0  0  0  0  0
    1.6850   -1.6195   -0.0819 H   0  0  0  0  0  0  0  0  0  0  0  0
   -0.4389   -0.4069   -0.7027 H   0  0  0  0  0  0  0  0  0  0  0  0
    0.4892    1.0501   -0.3099 H   0  0  0  0  0  0  0  0  0  0  0  0
   -0.9225    1.9129    1.2082 H   0  0  0  0  0  0  0  0  0  0  0  0
   -1.9962    1.4248   -0.0962 H   0  0  0  0  0  0  0  0  0  0  0  0
   -3.2399    1.7415    2.4192 H   0  0  0  0  0  0  0  0  0  0  0  0
   -3.5718    0.1245    3.0302 H   0  0  0  0  0  0  0  0  0  0  0  0
   -3.5054   -0.3793   -0.5181 H   0  0  0  0  0  0  0  0  0  0  0  0
   -4.9760   -2.1470    0.7158 H   0  0  0  0  0  0  0  0  0  0  0  0
   -6.1413   -3.2137   -0.2620 H   0  0  0  0  0  0  0  0  0  0  0  0
   -6.7176   -2.4520    1.2229 H   0  0  0  0  0  0  0  0  0  0  0  0
   -8.4583   -2.1081   -0.5837 H   0  0  0  0  0  0  0  0  0  0  0  0
   -9.4453   -0.2722   -1.8453 H   0  0  0  0  0  0  0  0  0  0  0  0
   -8.0955    1.7476   -2.3954 H   0  0  0  0  0  0  0  0  0  0  0  0
   -4.5480    1.8730   -2.2201 H   0  0  0  0  0  0  0  0  0  0  0  0
   -5.2591    2.6760   -0.7430 H   0  0  0  0  0  0  0  0  0  0  0  0
   -6.0825    2.9113   -2.2942 H   0  0  0  0  0  0  0  0  0  0  0  0
   -2.0547   -1.7135    0.8570 H   0  0  0  0  0  0  0  0  0  0  0  0
   -2.2564   -1.5618    2.6224 H   0  0  0  0  0  0  0  0  0  0  0  0
    0.1124   -2.3132    1.9081 H   0  0  0  0  0  0  0  0  0  0  0  0
   -0.0906   -0.9622    3.0498 H   0  0  0  0  0  0  0  0  0  0  0  0
  1  2  1  0
  2  3  1  0
  3  4  2  0
  4  5  1  0
  5  6  2  0
  6  7  1  0
  7  8  2  0
  8  9  1  0
  9 10  1  0
 10 11  1  0
 11 12  1  0
 11 13  1  0
 13 14  1  0
 14 15  1  0
 15 16  1  0
 16 17  1  0
 17 18  1  0
 18 19  1  0
 19 20  2  0
 19 21  1  0
 21 22  1  0
 22 23  2  0
 23 24  1  0
 23 25  1  0
 25 26  2  0
 26 27  1  0
 27 28  2  0
 28 29  1  0
 17 30  1  0
 30 31  1  0
  8  3  1  0
 31 14  1  0
 28 22  1  0
  1 32  1  0
  1 33  1  0
  1 34  1  0
  4 35  1  0
  5 36  1  0
  6 37  1  0
  7 38  1  0
 10 39  1  0
 10 40  1  0
 11 41  1  0
 12 42  1  0
 13 43  1  0
 13 44  1  0
 15 45  1  0
 15 46  1  0
 16 47  1  0
 16 48  1  0
 18 49  1  0
 18 50  1  0
 21 51  1  0
 24 52  1  0
 24 53  1  0
 24 54  1  0
 25 55  1  0
 26 56  1  0
 27 57  1  0
 29 58  1  0
 29 59  1  0
 29 60  1  0
 30 61  1  0
 30 62  1  0
 31 63  1  0
 31 64  1  0
M  END
$$$$
