
     RDKit          3D

 56 59  0  0  0  0  0  0  0  0999 V2000
   -3.7962   -0.7848   -0.3036 C   0  0  1  0  0  0  0  0  0  0  0  0
   -2.9371    0.2298   -0.8209 N   0  0  0  0  0  0  0  0  0  0  0  0
   -1.5503   -0.0095   -1.0006 C   0  0  0  0  0  0  0  0  0  0  0  0
   -0.7490    0.9688   -1.5513 C   0  0  0  0  0  0  0  0  0  0  0  0
    0.6034    0.8172   -1.7594 C   0  0  0  0  0  0  0  0  0  0  0  0
    1.3997    1.9200   -2.3590 C   0  0  0  0  0  0  0  0  0  0  0  0
    1.2259   -0.3646   -1.4101 C   0  0  0  0  0  0  0  0  0  0  0  0
    0.4258   -1.3650   -0.8508 C   0  0  0  0  0  0  0  0  0  0  0  0
   -0.9063   -1.1831   -0.6589 C   0  0  0  0  0  0  0  0  0  0  0  0
   -1.8937   -2.4505    0.0445 S   0  0  0  0  0  0  0  0  0  0  0  0
   -1.1650   -3.2707    1.0489 O   0  0  0  0  0  0  0  0  0  0  0  0
   -2.4446   -3.2908   -1.0869 O   0  0  0  0  0  0  0  0  0  0  0  0
   -3.2639   -1.6213    0.7120 N   0  0  0  0  0  0  0  0  0  0  0  0
    2.9454   -0.5127   -1.6925 S   0  0  0  0  0  0  0  0  0  0  0  0
    3.3921   -1.8921   -1.3779 O   0  0  0  0  0  0  0  0  0  0  0  0
    3.2251   -0.2625   -3.1564 O   0  0  0  0  0  0  0  0  0  0  0  0
    3.8270    0.6904   -0.8217 N   0  0  0  0  0  0  0  0  0  0  0  0
    3.6764    0.6077    0.5970 C   0  0  0  0  0  0  0  0  0  0  0  0
    4.5608   -0.3777    1.2836 C   0  0  0  0  0  0  0  0  0  0  0  0
    5.9135   -0.4245    0.8058 N   0  0  0  0  0  0  0  0  0  0  0  0
    6.7910    0.5432    1.4370 C   0  0  0  0  0  0  0  0  0  0  0  0
    5.9998   -0.3737   -0.6393 C   0  0  0  0  0  0  0  0  0  0  0  0
    5.2055    0.7475   -1.2253 C   0  0  0  0  0  0  0  0  0  0  0  0
   -5.1086   -0.1274    0.0959 C   0  0  0  0  0  0  0  0  0  0  0  0
   -4.9087    0.9373    1.1525 C   0  0  0  0  0  0  0  0  0  0  0  0
   -6.3523    1.2058    1.5580 C   0  0  0  0  0  0  0  0  0  0  0  0
   -7.0754   -0.1170    1.3620 C   0  0  0  0  0  0  0  0  0  0  0  0
   -6.0377   -1.0860    0.8064 C   0  0  0  0  0  0  0  0  0  0  0  0
   -4.0733   -1.4537   -1.1674 H   0  0  0  0  0  0  0  0  0  0  0  0
   -3.2959    1.1924   -1.0887 H   0  0  0  0  0  0  0  0  0  0  0  0
   -1.1782    1.9348   -1.8527 H   0  0  0  0  0  0  0  0  0  0  0  0
    0.7462    2.8095   -2.5011 H   0  0  0  0  0  0  0  0  0  0  0  0
    1.7533    1.6120   -3.3450 H   0  0  0  0  0  0  0  0  0  0  0  0
    2.1902    2.2167   -1.6420 H   0  0  0  0  0  0  0  0  0  0  0  0
    0.9312   -2.2637   -0.5916 H   0  0  0  0  0  0  0  0  0  0  0  0
   -2.9608   -1.1482    1.5691 H   0  0  0  0  0  0  0  0  0  0  0  0
    3.7526    1.6218    1.0403 H   0  0  0  0  0  0  0  0  0  0  0  0
    2.6142    0.2690    0.7727 H   0  0  0  0  0  0  0  0  0  0  0  0
    4.6104   -0.0661    2.3671 H   0  0  0  0  0  0  0  0  0  0  0  0
    4.1498   -1.4135    1.3189 H   0  0  0  0  0  0  0  0  0  0  0  0
    6.4905    0.5972    2.5079 H   0  0  0  0  0  0  0  0  0  0  0  0
    7.8247    0.2135    1.3337 H   0  0  0  0  0  0  0  0  0  0  0  0
    6.7081    1.5446    0.9736 H   0  0  0  0  0  0  0  0  0  0  0  0
    5.7439   -1.3206   -1.1265 H   0  0  0  0  0  0  0  0  0  0  0  0
    7.0879   -0.1866   -0.8722 H   0  0  0  0  0  0  0  0  0  0  0  0
    5.6103    1.7259   -0.8843 H   0  0  0  0  0  0  0  0  0  0  0  0
    5.2969    0.6936   -2.3202 H   0  0  0  0  0  0  0  0  0  0  0  0
   -5.6493    0.2776   -0.7616 H   0  0  0  0  0  0  0  0  0  0  0  0
   -4.4344    0.4364    2.0127 H   0  0  0  0  0  0  0  0  0  0  0  0
   -4.3784    1.8281    0.8034 H   0  0  0  0  0  0  0  0  0  0  0  0
   -6.4333    1.5633    2.6007 H   0  0  0  0  0  0  0  0  0  0  0  0
   -6.7320    2.0027    0.8721 H   0  0  0  0  0  0  0  0  0  0  0  0
   -7.8920    0.0344    0.6403 H   0  0  0  0  0  0  0  0  0  0  0  0
   -7.4476   -0.5112    2.3456 H   0  0  0  0  0  0  0  0  0  0  0  0
   -6.4823   -1.8107    0.1066 H   0  0  0  0  0  0  0  0  0  0  0  0
   -5.5555   -1.5530    1.6912 H   0  0  0  0  0  0  0  0  0  0  0  0
  1  2  1  0
  2  3  1  0
  3  4  2  0
  4  5  1  0
  5  6  1  0
  5  7  2  0
  7  8  1  0
  8  9  2  0
  9 10  1  0
 10 11  2  0
 10 12  2  0
 10 13  1  0
  7 14  1  0
 14 15  2  0
 14 16  2  0
 14 17  1  0
 17 18  1  0
 18 19  1  0
 19 20  1  0
 20 21  1  0
 20 22  1  0
 22 23  1  0
  1 24  1  0
 24 25  1  0
 25 26  1  0
 26 27  1  0
 27 28  1  0
 13  1  1  0
 23 17  1  0
 28 24  1  0
  9  3  1  0
  1 29  1  6
  2 30  1  0
  4 31  1  0
  6 32  1  0
  6 33  1  0
  6 34  1  0
  8 35  1  0
 13 36  1  0
 18 37  1  0
 18 38  1  0
 19 39  1  0
 19 40  1  0
 21 41  1  0
 21 42  1  0
 21 43  1  0
 22 44  1  0
 22 45  1  0
 23 46  1  0
 23 47  1  0
 24 48  1  0
 25 49  1  0
 25 50  1  0
 26 51  1  0
 26 52  1  0
 27 53  1  0
 27 54  1  0
 28 55  1  0
 28 56  1  0
M  END
$$$$
