
     RDKit          3D

 48 51  0  0  0  0  0  0  0  0999 V2000
    6.2155    1.3951    3.0295 C   0  0  0  0  0  0  0  0  0  0  0  0
    5.0808    1.0212    2.1408 C   0  0  0  0  0  0  0  0  0  0  0  0
    4.8439    1.4326    0.8398 C   0  0  0  0  0  0  0  0  0  0  0  0
    3.6611    0.8304    0.3865 C   0  0  0  0  0  0  0  0  0  0  0  0
    3.0709    0.9751   -0.8826 N   0  0  0  0  0  0  0  0  0  0  0  0
    1.8930    0.3623   -1.3495 C   0  0  0  0  0  0  0  0  0  0  0  0
    0.6934    0.9738   -1.4070 N   0  0  0  0  0  0  0  0  0  0  0  0
   -0.4060    0.3820   -1.8828 N   0  0  0  0  0  0  0  0  0  0  0  0
   -1.6819    1.0723   -1.9635 C   0  0  0  0  0  0  0  0  0  0  0  0
   -2.5630    0.8535   -0.8064 C   0  0  0  0  0  0  0  0  0  0  0  0
   -2.5129    1.5193    0.3904 C   0  0  0  0  0  0  0  0  0  0  0  0
   -3.4139    1.2507    1.4227 C   0  0  0  0  0  0  0  0  0  0  0  0
   -4.3795    0.3071    1.2661 C   0  0  0  0  0  0  0  0  0  0  0  0
   -5.5425   -0.0506    2.5394 S   0  0  0  0  0  6  0  0  0  0  0  0
   -6.9835    0.9968    2.3633 C   0  0  0  0  0  0  0  0  0  0  0  0
   -4.8996    0.1255    3.8647 O   0  0  0  0  0  0  0  0  0  0  0  0
   -6.0056   -1.4681    2.3784 O   0  0  0  0  0  0  0  0  0  0  0  0
   -4.4627   -0.3925    0.0614 C   0  0  0  0  0  0  0  0  0  0  0  0
   -3.5659   -0.1104   -0.9374 C   0  0  0  0  0  0  0  0  0  0  0  0
   -0.2693   -0.8846   -2.3152 C   0  0  0  0  0  0  0  0  0  0  0  0
   -1.2596   -1.5076   -2.7778 O   0  0  0  0  0  0  0  0  0  0  0  0
    0.9195   -1.5822   -2.2901 C   0  0  0  0  0  0  0  0  0  0  0  0
    1.0406   -2.8812   -2.7272 C   0  0  0  0  0  0  0  0  0  0  0  0
    2.2394   -3.5466   -2.6786 C   0  0  0  0  0  0  0  0  0  0  0  0
    3.3747   -2.9106   -2.1776 C   0  0  0  0  0  0  0  0  0  0  0  0
    3.2322   -1.6088   -1.7450 C   0  0  0  0  0  0  0  0  0  0  0  0
    2.0166   -0.9388   -1.7961 C   0  0  0  0  0  0  0  0  0  0  0  0
    3.2259    0.0863    1.4109 N   0  0  0  0  0  0  0  0  0  0  0  0
    4.0737    0.2081    2.4424 N   0  0  0  0  0  0  0  0  0  0  0  0
    6.6582    0.5097    3.5124 H   0  0  0  0  0  0  0  0  0  0  0  0
    7.0510    1.8619    2.4412 H   0  0  0  0  0  0  0  0  0  0  0  0
    5.9200    2.1027    3.8200 H   0  0  0  0  0  0  0  0  0  0  0  0
    5.4532    2.0974    0.2663 H   0  0  0  0  0  0  0  0  0  0  0  0
    3.5461    1.6148   -1.5937 H   0  0  0  0  0  0  0  0  0  0  0  0
   -1.4544    2.1750   -2.0924 H   0  0  0  0  0  0  0  0  0  0  0  0
   -2.2221    0.8080   -2.9151 H   0  0  0  0  0  0  0  0  0  0  0  0
   -1.7525    2.2693    0.5245 H   0  0  0  0  0  0  0  0  0  0  0  0
   -3.3701    1.7842    2.3692 H   0  0  0  0  0  0  0  0  0  0  0  0
   -6.6467    2.0009    2.0521 H   0  0  0  0  0  0  0  0  0  0  0  0
   -7.6453    0.5868    1.5841 H   0  0  0  0  0  0  0  0  0  0  0  0
   -7.5425    1.0488    3.3151 H   0  0  0  0  0  0  0  0  0  0  0  0
   -5.2374   -1.1349   -0.0390 H   0  0  0  0  0  0  0  0  0  0  0  0
   -3.6904   -0.6956   -1.8625 H   0  0  0  0  0  0  0  0  0  0  0  0
    0.1675   -3.3729   -3.1130 H   0  0  0  0  0  0  0  0  0  0  0  0
    2.3712   -4.5667   -3.0122 H   0  0  0  0  0  0  0  0  0  0  0  0
    4.3314   -3.4075   -2.1233 H   0  0  0  0  0  0  0  0  0  0  0  0
    4.0691   -1.0856   -1.3569 H   0  0  0  0  0  0  0  0  0  0  0  0
    2.3585   -0.5063    1.4236 H   0  0  0  0  0  0  0  0  0  0  0  0
  1  2  1  0
  2  3  1  0
  3  4  2  0
  4  5  1  0
  5  6  1  0
  6  7  2  0
  7  8  1  0
  8  9  1  0
  9 10  1  0
 10 11  2  0
 11 12  1  0
 12 13  2  0
 13 14  1  0
 14 15  1  0
 14 16  2  0
 14 17  2  0
 13 18  1  0
 18 19  2  0
  8 20  1  0
 20 21  2  0
 20 22  1  0
 22 23  2  0
 23 24  1  0
 24 25  2  0
 25 26  1  0
 26 27  2  0
  4 28  1  0
 28 29  1  0
 29  2  2  0
 27  6  1  0
 19 10  1  0
 27 22  1  0
  1 30  1  0
  1 31  1  0
  1 32  1  0
  3 33  1  0
  5 34  1  0
  9 35  1  0
  9 36  1  0
 11 37  1  0
 12 38  1  0
 15 39  1  0
 15 40  1  0
 15 41  1  0
 18 42  1  0
 19 43  1  0
 23 44  1  0
 24 45  1  0
 25 46  1  0
 26 47  1  0
 28 48  1  0
M  END
$$$$
