
     RDKit          3D

 45 49  0  0  0  0  0  0  0  0999 V2000
    8.1173   -0.5057    2.0572 O   0  0  0  0  0  0  0  0  0  0  0  0
    7.8569   -1.4352    1.2645 C   0  0  0  0  0  0  0  0  0  0  0  0
    8.7944   -2.3860    0.9931 O   0  0  0  0  0  0  0  0  0  0  0  0
    6.4975   -1.4882    0.6195 C   0  0  0  0  0  0  0  0  0  0  0  0
    6.1934   -2.5030   -0.2625 C   0  0  0  0  0  0  0  0  0  0  0  0
    4.4570   -2.0948   -0.7227 S   0  0  0  0  0  0  0  0  0  0  0  0
    4.4520   -0.6039    0.3763 C   0  0  0  0  0  0  0  0  0  0  0  0
    3.2015    0.2254    0.4546 C   0  0  0  0  0  0  0  0  0  0  0  0
    3.2335    1.3623    1.2417 C   0  0  0  0  0  0  0  0  0  0  0  0
    2.1005    2.1488    1.3612 C   0  0  0  0  0  0  0  0  0  0  0  0
    0.9657    1.7970    0.7037 C   0  0  0  0  0  0  0  0  0  0  0  0
    0.9302    0.6601   -0.0825 C   0  0  0  0  0  0  0  0  0  0  0  0
    2.0641   -0.1271   -0.2039 C   0  0  0  0  0  0  0  0  0  0  0  0
   -0.3178    0.2983   -0.7347 C   0  0  0  0  0  0  0  0  0  0  0  0
   -0.4146   -0.9425   -1.0894 N   0  0  0  0  0  0  0  0  0  0  0  0
   -1.4979   -1.5288   -1.7214 N   0  0  0  0  0  0  0  0  0  0  0  0
   -2.8464   -1.3014   -1.3064 C   0  0  0  0  0  0  0  0  0  0  0  0
   -3.5529   -1.5195   -0.4110 N   0  0  0  0  0  0  0  0  0  0  0  0
   -4.8072   -1.2280   -0.2212 C   0  0  0  0  0  0  0  0  0  0  0  0
   -5.6256   -1.5191    0.9030 C   0  0  0  0  0  0  0  0  0  0  0  0
   -6.9390   -1.1005    0.8751 C   0  0  0  0  0  0  0  0  0  0  0  0
   -7.5343   -0.4189   -0.1570 C   0  0  0  0  0  0  0  0  0  0  0  0
   -6.7277   -0.1311   -1.2658 C   0  0  0  0  0  0  0  0  0  0  0  0
   -5.4492   -0.5430   -1.2287 C   0  0  0  0  0  0  0  0  0  0  0  0
   -4.0548   -0.3855   -2.4319 S   0  0  0  0  0  0  0  0  0  0  0  0
   -1.3657    1.2944   -0.9510 C   0  0  0  0  0  0  0  0  0  0  0  0
   -0.9629    2.6746   -0.5255 C   0  0  0  0  0  0  0  0  0  0  0  0
   -0.2588    2.6653    0.8242 C   0  0  0  0  0  0  0  0  0  0  0  0
    5.5354   -0.6252    0.8346 N   0  0  0  0  0  0  0  0  0  0  0  0
    9.7787   -2.2716    1.2732 H   0  0  0  0  0  0  0  0  0  0  0  0
    6.7396   -3.3626   -0.6585 H   0  0  0  0  0  0  0  0  0  0  0  0
    4.1428    1.6105    1.7504 H   0  0  0  0  0  0  0  0  0  0  0  0
    2.0855    3.0490    1.9725 H   0  0  0  0  0  0  0  0  0  0  0  0
    2.0716   -1.0077   -0.8049 H   0  0  0  0  0  0  0  0  0  0  0  0
   -1.3816   -2.1718   -2.5366 H   0  0  0  0  0  0  0  0  0  0  0  0
   -5.2799   -2.0373    1.7598 H   0  0  0  0  0  0  0  0  0  0  0  0
   -7.6005   -1.3115    1.7319 H   0  0  0  0  0  0  0  0  0  0  0  0
   -8.5539   -0.1005   -0.1679 H   0  0  0  0  0  0  0  0  0  0  0  0
   -7.0852    0.3888   -2.1185 H   0  0  0  0  0  0  0  0  0  0  0  0
   -2.2593    0.9469   -0.3483 H   0  0  0  0  0  0  0  0  0  0  0  0
   -1.6729    1.3812   -2.0208 H   0  0  0  0  0  0  0  0  0  0  0  0
   -0.3226    3.1048   -1.3035 H   0  0  0  0  0  0  0  0  0  0  0  0
   -1.8927    3.2560   -0.3612 H   0  0  0  0  0  0  0  0  0  0  0  0
   -0.9153    2.3482    1.6285 H   0  0  0  0  0  0  0  0  0  0  0  0
    0.1014    3.6893    1.0110 H   0  0  0  0  0  0  0  0  0  0  0  0
  1  2  2  0
  2  3  1  0
  2  4  1  0
  4  5  2  0
  5  6  1  0
  6  7  1  0
  7  8  1  0
  8  9  2  0
  9 10  1  0
 10 11  2  0
 11 12  1  0
 12 13  2  0
 12 14  1  0
 14 15  2  3
 15 16  1  0
 16 17  1  0
 17 18  2  0
 18 19  1  0
 19 20  2  0
 20 21  1  0
 21 22  2  0
 22 23  1  0
 23 24  2  0
 24 25  1  0
 14 26  1  0
 26 27  1  0
 27 28  1  0
  7 29  2  0
 29  4  1  0
 13  8  1  0
 25 17  1  0
 28 11  1  0
 24 19  1  0
  3 30  1  0
  5 31  1  0
  9 32  1  0
 10 33  1  0
 13 34  1  0
 16 35  1  0
 20 36  1  0
 21 37  1  0
 22 38  1  0
 23 39  1  0
 26 40  1  0
 26 41  1  0
 27 42  1  0
 27 43  1  0
 28 44  1  0
 28 45  1  0
M  END
$$$$
