
     RDKit          3D

 52 54  0  0  0  0  0  0  0  0999 V2000
    2.2933    0.5636   -1.5134 C   0  0  0  0  0  0  0  0  0  0  0  0
    2.3725   -0.4271   -0.5206 N   0  0  0  0  0  0  0  0  0  0  0  0
    1.8671   -0.1493    0.7633 C   0  0  0  0  0  0  0  0  0  0  0  0
    0.3769   -0.0063    0.8409 C   0  0  0  0  0  0  0  0  0  0  0  0
   -0.3828   -0.1532   -0.2179 C   0  0  0  0  0  0  0  0  0  0  0  0
   -1.8233   -0.0212   -0.1807 C   0  0  0  0  0  0  0  0  0  0  0  0
   -2.5606   -0.1979   -1.3587 C   0  0  0  0  0  0  0  0  0  0  0  0
   -3.9225   -0.0819   -1.3865 C   0  0  0  0  0  0  0  0  0  0  0  0
   -4.6445    0.2149   -0.2592 C   0  0  0  0  0  0  0  0  0  0  0  0
   -6.0942    0.3486   -0.2537 C   0  0  0  0  0  0  0  0  0  0  0  0
   -6.8211    0.0162    0.8669 C   0  0  0  0  0  0  0  0  0  0  0  0
   -8.1972    0.1338    0.8997 C   0  0  0  0  0  0  0  0  0  0  0  0
   -8.9140    0.5943   -0.2000 C   0  0  0  0  0  0  0  0  0  0  0  0
   -8.1819    0.9254   -1.3186 C   0  0  0  0  0  0  0  0  0  0  0  0
   -6.8004    0.8080   -1.3532 C   0  0  0  0  0  0  0  0  0  0  0  0
   -3.9276    0.3903    0.9045 C   0  0  0  0  0  0  0  0  0  0  0  0
   -2.5511    0.2748    0.9415 C   0  0  0  0  0  0  0  0  0  0  0  0
    3.3138   -1.4707   -0.6676 C   0  0  0  0  0  0  0  0  0  0  0  0
    4.7113   -1.0214   -0.8661 C   0  0  0  0  0  0  0  0  0  0  0  0
    5.4319   -0.9834   -2.0653 C   0  0  0  0  0  0  0  0  0  0  0  0
    6.6314   -0.5170   -1.8278 O   0  0  0  0  0  0  0  0  0  0  0  0
    6.7893   -0.2297   -0.5439 C   0  0  0  0  0  0  0  0  0  0  0  0
    7.8445    0.2751    0.1915 C   0  0  0  0  0  0  0  0  0  0  0  0
    7.6964    0.4670    1.5493 C   0  0  0  0  0  0  0  0  0  0  0  0
    6.5228    0.1697    2.2000 C   0  0  0  0  0  0  0  0  0  0  0  0
    5.4811   -0.3317    1.4568 C   0  0  0  0  0  0  0  0  0  0  0  0
    5.5784   -0.5446    0.0809 C   0  0  0  0  0  0  0  0  0  0  0  0
    0.6926    0.0000    0.0000 Cl  0  0  0  0  0  0  0  0  0  0  0  0
    1.9527    0.2169   -2.5166 H   0  0  0  0  0  0  0  0  0  0  0  0
    3.3096    1.0492   -1.6085 H   0  0  0  0  0  0  0  0  0  0  0  0
    1.6425    1.4042   -1.1679 H   0  0  0  0  0  0  0  0  0  0  0  0
    2.2755    0.8452    1.1035 H   0  0  0  0  0  0  0  0  0  0  0  0
    2.2219   -0.8826    1.5295 H   0  0  0  0  0  0  0  0  0  0  0  0
   -0.0870    0.2236    1.7904 H   0  0  0  0  0  0  0  0  0  0  0  0
    0.0698   -0.3913   -1.1817 H   0  0  0  0  0  0  0  0  0  0  0  0
   -2.0341   -0.4374   -2.2928 H   0  0  0  0  0  0  0  0  0  0  0  0
   -4.4968   -0.2216   -2.3128 H   0  0  0  0  0  0  0  0  0  0  0  0
   -6.2825   -0.3517    1.7539 H   0  0  0  0  0  0  0  0  0  0  0  0
   -8.7733   -0.1233    1.7714 H   0  0  0  0  0  0  0  0  0  0  0  0
   -9.9909    0.6862   -0.1741 H   0  0  0  0  0  0  0  0  0  0  0  0
   -8.7152    1.2886   -2.1945 H   0  0  0  0  0  0  0  0  0  0  0  0
   -6.2270    1.0658   -2.2249 H   0  0  0  0  0  0  0  0  0  0  0  0
   -4.4280    0.6257    1.8316 H   0  0  0  0  0  0  0  0  0  0  0  0
   -2.0566    0.4267    1.8923 H   0  0  0  0  0  0  0  0  0  0  0  0
    3.0355   -2.0336   -1.6103 H   0  0  0  0  0  0  0  0  0  0  0  0
    3.2479   -2.2235    0.1603 H   0  0  0  0  0  0  0  0  0  0  0  0
    5.0108   -1.3030   -3.0129 H   0  0  0  0  0  0  0  0  0  0  0  0
    8.7531    0.5003   -0.3419 H   0  0  0  0  0  0  0  0  0  0  0  0
    8.5631    0.8681    2.0763 H   0  0  0  0  0  0  0  0  0  0  0  0
    6.3862    0.3107    3.2536 H   0  0  0  0  0  0  0  0  0  0  0  0
    4.5334   -0.5894    1.8979 H   0  0  0  0  0  0  0  0  0  0  0  0
   -0.6926    0.0000    0.0000 H   0  0  0  0  0  0  0  0  0  0  0  0
  1  2  1  0
  2  3  1  0
  3  4  1  0
  4  5  2  0
  5  6  1  0
  6  7  2  0
  7  8  1  0
  8  9  2  0
  9 10  1  0
 10 11  2  0
 11 12  1  0
 12 13  2  0
 13 14  1  0
 14 15  2  0
  9 16  1  0
 16 17  2  0
  2 18  1  0
 18 19  1  0
 19 20  2  0
 20 21  1  0
 21 22  1  0
 22 23  2  0
 23 24  1  0
 24 25  2  0
 25 26  1  0
 26 27  2  0
 17  6  1  0
 27 19  1  0
 15 10  1  0
 27 22  1  0
  1 29  1  0
  1 30  1  0
  1 31  1  0
  3 32  1  0
  3 33  1  0
  4 34  1  0
  5 35  1  0
  7 36  1  0
  8 37  1  0
 11 38  1  0
 12 39  1  0
 13 40  1  0
 14 41  1  0
 15 42  1  0
 16 43  1  0
 17 44  1  0
 18 45  1  0
 18 46  1  0
 20 47  1  0
 23 48  1  0
 24 49  1  0
 25 50  1  0
 26 51  1  0
 28 52  1  0
M  END
$$$$
