
     RDKit          3D

 56 61  0  0  0  0  0  0  0  0999 V2000
   -3.3075    0.2967   -2.7864 C   0  0  0  0  0  0  0  0  0  0  0  0
   -3.0025    0.3155   -1.3646 N   0  0  0  0  0  0  0  0  0  0  0  0
   -2.2863   -0.6086   -0.7067 C   0  0  0  0  0  0  0  0  0  0  0  0
   -2.2151   -0.2542    0.6305 C   0  0  0  0  0  0  0  0  0  0  0  0
   -1.5176   -0.9679    1.7105 C   0  0  0  0  0  0  0  0  0  0  0  0
   -0.2805   -1.4256    1.7398 C   0  0  0  0  0  0  0  0  0  0  0  0
    0.7106   -1.3175    0.6677 C   0  0  0  0  0  0  0  0  0  0  0  0
    1.1657   -0.2448   -0.0495 C   0  0  0  0  0  0  0  0  0  0  0  0
    2.0814   -0.6352   -0.9282 N   0  0  0  0  0  0  0  0  0  0  0  0
    2.2598   -1.9940   -0.8161 C   0  0  0  0  0  0  0  0  0  0  0  0
    3.0929   -2.8404   -1.5073 C   0  0  0  0  0  0  0  0  0  0  0  0
    3.0862   -4.1820   -1.2065 C   0  0  0  0  0  0  0  0  0  0  0  0
    2.2441   -4.6179   -0.2272 C   0  0  0  0  0  0  0  0  0  0  0  0
    1.4157   -3.7634    0.4571 C   0  0  0  0  0  0  0  0  0  0  0  0
    1.4070   -2.4040    0.1713 C   0  0  0  0  0  0  0  0  0  0  0  0
    2.7781    0.2464   -1.8342 C   0  0  0  0  0  0  0  0  0  0  0  0
    2.2472    1.6159   -1.8156 C   0  0  0  0  0  0  0  0  0  0  0  0
    1.8645    2.0784   -0.4297 C   0  0  2  0  0  0  0  0  0  0  0  0
    2.9719    2.0410    0.5634 C   0  0  0  0  0  0  0  0  0  0  0  0
    4.1131    2.8396    0.2651 N   0  0  0  0  0  0  0  0  0  0  0  0
    0.7474    1.1866    0.1009 C   0  0  0  0  0  0  0  0  0  0  0  0
   -0.0199   -2.0793    3.0474 C   0  0  0  0  0  0  0  0  0  0  0  0
    1.0789   -2.6010    3.3567 O   0  0  0  0  0  0  0  0  0  0  0  0
   -1.1944   -1.9894    3.8130 N   0  0  0  0  0  0  0  0  0  0  0  0
   -2.1289   -1.3077    3.0043 C   0  0  0  0  0  0  0  0  0  0  0  0
   -3.2891   -1.0370    3.3323 O   0  0  0  0  0  0  0  0  0  0  0  0
   -2.9203    0.9211    0.7332 C   0  0  0  0  0  0  0  0  0  0  0  0
   -3.1998    1.7610    1.7781 C   0  0  0  0  0  0  0  0  0  0  0  0
   -3.9453    2.9120    1.5814 C   0  0  0  0  0  0  0  0  0  0  0  0
   -4.4264    3.2457    0.3346 C   0  0  0  0  0  0  0  0  0  0  0  0
   -4.1579    2.4211   -0.7205 C   0  0  0  0  0  0  0  0  0  0  0  0
   -3.4123    1.2768   -0.5098 C   0  0  0  0  0  0  0  0  0  0  0  0
   -3.8059   -0.6716   -3.0368 H   0  0  0  0  0  0  0  0  0  0  0  0
   -2.4062    0.4778   -3.4144 H   0  0  0  0  0  0  0  0  0  0  0  0
   -4.0398    1.0839   -3.0555 H   0  0  0  0  0  0  0  0  0  0  0  0
   -1.8157   -1.5047   -1.1031 H   0  0  0  0  0  0  0  0  0  0  0  0
    3.7624   -2.5158   -2.2835 H   0  0  0  0  0  0  0  0  0  0  0  0
    3.7340   -4.8893   -1.7286 H   0  0  0  0  0  0  0  0  0  0  0  0
    2.2328   -5.6917    0.0204 H   0  0  0  0  0  0  0  0  0  0  0  0
    0.7427   -4.1378    1.2238 H   0  0  0  0  0  0  0  0  0  0  0  0
    2.7899   -0.1862   -2.8667 H   0  0  0  0  0  0  0  0  0  0  0  0
    3.8575    0.2888   -1.5132 H   0  0  0  0  0  0  0  0  0  0  0  0
    2.9436    2.3659   -2.2410 H   0  0  0  0  0  0  0  0  0  0  0  0
    1.3151    1.7028   -2.4412 H   0  0  0  0  0  0  0  0  0  0  0  0
    1.4628    3.0966   -0.5053 H   0  0  0  0  0  0  0  0  0  0  0  0
    3.2930    0.9859    0.7044 H   0  0  0  0  0  0  0  0  0  0  0  0
    2.5430    2.3985    1.5389 H   0  0  0  0  0  0  0  0  0  0  0  0
    4.9159    2.3229   -0.1353 H   0  0  0  0  0  0  0  0  0  0  0  0
    3.9420    3.7664   -0.1229 H   0  0  0  0  0  0  0  0  0  0  0  0
   -0.1674    1.3401   -0.4928 H   0  0  0  0  0  0  0  0  0  0  0  0
    0.5430    1.3741    1.1575 H   0  0  0  0  0  0  0  0  0  0  0  0
   -1.3094   -2.3688    4.7920 H   0  0  0  0  0  0  0  0  0  0  0  0
   -2.8255    1.5398    2.7966 H   0  0  0  0  0  0  0  0  0  0  0  0
   -4.1441    3.5507    2.4349 H   0  0  0  0  0  0  0  0  0  0  0  0
   -5.0135    4.1467    0.1676 H   0  0  0  0  0  0  0  0  0  0  0  0
   -4.5105    2.6369   -1.7105 H   0  0  0  0  0  0  0  0  0  0  0  0
  1  2  1  0
  2  3  1  0
  3  4  2  0
  4  5  1  0
  5  6  2  0
  6  7  1  0
  7  8  2  0
  8  9  1  0
  9 10  1  0
 10 11  2  0
 11 12  1  0
 12 13  2  0
 13 14  1  0
 14 15  2  0
  9 16  1  0
 16 17  1  0
 17 18  1  0
 18 19  1  0
 19 20  1  0
 18 21  1  0
  6 22  1  0
 22 23  2  0
 22 24  1  0
 24 25  1  0
 25 26  2  0
  4 27  1  0
 27 28  2  0
 28 29  1  0
 29 30  2  0
 30 31  1  0
 31 32  2  0
 32  2  1  0
 25  5  1  0
 32 27  1  0
 15  7  1  0
 21  8  1  0
 15 10  1  0
  1 33  1  0
  1 34  1  0
  1 35  1  0
  3 36  1  0
 11 37  1  0
 12 38  1  0
 13 39  1  0
 14 40  1  0
 16 41  1  0
 16 42  1  0
 17 43  1  0
 17 44  1  0
 18 45  1  6
 19 46  1  0
 19 47  1  0
 20 48  1  0
 20 49  1  0
 21 50  1  0
 21 51  1  0
 24 52  1  0
 28 53  1  0
 29 54  1  0
 30 55  1  0
 31 56  1  0
M  END
$$$$
