
     RDKit          3D

 64 68  0  0  0  0  0  0  0  0999 V2000
    0.9931    3.5017    0.4923 O   0  0  0  0  0  0  0  0  0  0  0  0
    1.3578    2.3414    0.8026 C   0  0  0  0  0  0  0  0  0  0  0  0
    2.6574    2.0277    1.3734 C   0  0  0  0  0  0  0  0  0  0  0  0
    3.5836    2.8220    1.6400 O   0  0  0  0  0  0  0  0  0  0  0  0
    2.6491    0.5970    1.5689 N   0  0  0  0  0  0  0  0  0  0  0  0
    3.7765   -0.1292    2.1324 C   0  0  0  0  0  0  0  0  0  0  0  0
    4.7450   -0.5224    1.0676 C   0  0  0  0  0  0  0  0  0  0  0  0
    4.6442   -1.7080    0.3819 C   0  0  0  0  0  0  0  0  0  0  0  0
    5.5299   -2.0813   -0.6001 C   0  0  0  0  0  0  0  0  0  0  0  0
    6.6061   -1.2417   -0.9542 C   0  0  0  0  0  0  0  0  0  0  0  0
    7.4670   -1.6534   -1.9354 O   0  0  0  0  0  0  0  0  0  0  0  0
    8.5540   -1.0229   -2.4792 C   0  0  0  0  0  0  0  0  0  0  0  0
    8.2263    0.2210   -3.2316 C   0  0  0  0  0  0  0  0  0  0  0  0
    9.3838    0.8315   -3.7443 F   0  0  0  0  0  0  0  0  0  0  0  0
    6.7056   -0.0537   -0.2649 C   0  0  0  0  0  0  0  0  0  0  0  0
    5.7915    0.3002    0.7274 C   0  0  0  0  0  0  0  0  0  0  0  0
    1.4009    0.0776    1.1351 C   0  0  0  0  0  0  0  0  0  0  0  0
    0.9420   -1.2233    1.1357 C   0  0  0  0  0  0  0  0  0  0  0  0
   -0.3462   -1.4739    0.6546 C   0  0  0  0  0  0  0  0  0  0  0  0
   -1.1623   -0.4703    0.1834 C   0  0  0  0  0  0  0  0  0  0  0  0
   -2.7958   -0.7926   -0.4077 S   0  0  0  0  0  6  0  0  0  0  0  0
   -3.1703    0.1337   -1.5164 O   0  0  0  0  0  0  0  0  0  0  0  0
   -2.8080   -2.2097   -0.9193 O   0  0  0  0  0  0  0  0  0  0  0  0
   -3.8291   -0.6092    0.9474 N   0  0  0  0  0  0  0  0  0  0  0  0
   -3.4806   -1.5682    1.9621 C   0  0  0  0  0  0  0  0  0  0  0  0
   -4.7526   -1.9648    2.6388 C   0  0  0  0  0  0  0  0  0  0  0  0
   -5.7588   -1.9011    1.5155 C   0  0  0  0  0  0  0  0  0  0  0  0
   -5.2374   -0.7555    0.6427 C   0  0  1  0  0  0  0  0  0  0  0  0
   -5.9153    0.5033    1.1359 C   0  0  0  0  0  0  0  0  0  0  0  0
   -5.4914    1.6774    0.5615 O   0  0  0  0  0  0  0  0  0  0  0  0
   -5.5749    2.1440   -0.7189 C   0  0  0  0  0  0  0  0  0  0  0  0
   -6.1919    1.4496   -1.7290 C   0  0  0  0  0  0  0  0  0  0  0  0
   -6.2503    1.9565   -3.0179 C   0  0  0  0  0  0  0  0  0  0  0  0
   -5.6807    3.1834   -3.3004 C   0  0  0  0  0  0  0  0  0  0  0  0
   -5.0863    3.8342   -2.2847 N   0  0  0  0  0  0  0  0  0  0  0  0
   -5.0103    3.3838   -1.0454 C   0  0  0  0  0  0  0  0  0  0  0  0
   -0.6684    0.8314    0.1955 C   0  0  0  0  0  0  0  0  0  0  0  0
    0.6002    1.1155    0.6655 C   0  0  0  0  0  0  0  0  0  0  0  0
    4.2515    0.4415    2.9516 H   0  0  0  0  0  0  0  0  0  0  0  0
    3.3399   -1.0441    2.6121 H   0  0  0  0  0  0  0  0  0  0  0  0
    3.8308   -2.3780    0.6268 H   0  0  0  0  0  0  0  0  0  0  0  0
    5.4470   -3.0222   -1.1425 H   0  0  0  0  0  0  0  0  0  0  0  0
    9.1565   -1.6981   -3.1522 H   0  0  0  0  0  0  0  0  0  0  0  0
    9.2739   -0.8242   -1.6289 H   0  0  0  0  0  0  0  0  0  0  0  0
    7.5856   -0.0940   -4.1265 H   0  0  0  0  0  0  0  0  0  0  0  0
    7.5946    0.9194   -2.6849 H   0  0  0  0  0  0  0  0  0  0  0  0
    7.5303    0.6025   -0.4882 H   0  0  0  0  0  0  0  0  0  0  0  0
    5.9190    1.2563    1.2411 H   0  0  0  0  0  0  0  0  0  0  0  0
    1.5634   -2.0568    1.5023 H   0  0  0  0  0  0  0  0  0  0  0  0
   -0.7280   -2.4859    0.6452 H   0  0  0  0  0  0  0  0  0  0  0  0
   -2.8107   -1.0427    2.6984 H   0  0  0  0  0  0  0  0  0  0  0  0
   -2.9703   -2.4612    1.5385 H   0  0  0  0  0  0  0  0  0  0  0  0
   -4.6156   -2.9978    3.0254 H   0  0  0  0  0  0  0  0  0  0  0  0
   -5.0076   -1.2358    3.4456 H   0  0  0  0  0  0  0  0  0  0  0  0
   -5.8096   -2.8493    0.9769 H   0  0  0  0  0  0  0  0  0  0  0  0
   -6.7301   -1.6204    1.9885 H   0  0  0  0  0  0  0  0  0  0  0  0
   -5.4166   -0.9853   -0.4128 H   0  0  0  0  0  0  0  0  0  0  0  0
   -7.0477    0.3810    1.0711 H   0  0  0  0  0  0  0  0  0  0  0  0
   -5.7646    0.6111    2.2554 H   0  0  0  0  0  0  0  0  0  0  0  0
   -6.6768    0.4794   -1.5262 H   0  0  0  0  0  0  0  0  0  0  0  0
   -6.7418    1.4012   -3.8202 H   0  0  0  0  0  0  0  0  0  0  0  0
   -5.7284    3.5790   -4.3075 H   0  0  0  0  0  0  0  0  0  0  0  0
   -4.5158    3.9740   -0.2909 H   0  0  0  0  0  0  0  0  0  0  0  0
   -1.3322    1.5985   -0.1811 H   0  0  0  0  0  0  0  0  0  0  0  0
  1  2  2  0
  2  3  1  0
  3  4  2  0
  3  5  1  0
  5  6  1  0
  6  7  1  0
  7  8  2  0
  8  9  1  0
  9 10  2  0
 10 11  1  0
 11 12  1  0
 12 13  1  0
 13 14  1  0
 10 15  1  0
 15 16  2  0
  5 17  1  0
 17 18  2  0
 18 19  1  0
 19 20  2  0
 20 21  1  0
 21 22  2  0
 21 23  2  0
 21 24  1  0
 24 25  1  0
 25 26  1  0
 26 27  1  0
 27 28  1  0
 28 29  1  0
 29 30  1  0
 30 31  1  0
 31 32  2  0
 32 33  1  0
 33 34  2  0
 34 35  1  0
 35 36  2  0
 20 37  1  0
 37 38  2  0
 38  2  1  0
 16  7  1  0
 38 17  1  0
 28 24  1  0
 36 31  1  0
  6 39  1  0
  6 40  1  0
  8 41  1  0
  9 42  1  0
 12 43  1  0
 12 44  1  0
 13 45  1  0
 13 46  1  0
 15 47  1  0
 16 48  1  0
 18 49  1  0
 19 50  1  0
 25 51  1  0
 25 52  1  0
 26 53  1  0
 26 54  1  0
 27 55  1  0
 27 56  1  0
 28 57  1  6
 29 58  1  0
 29 59  1  0
 32 60  1  0
 33 61  1  0
 34 62  1  0
 36 63  1  0
 37 64  1  0
M  END
$$$$
