
     RDKit          3D

 42 44  0  0  0  0  0  0  0  0999 V2000
    0.8782    1.4148    0.2601 O   0  0  0  0  0  0  0  0  0  0  0  0
    0.6988    0.2272    0.6486 C   0  0  0  0  0  0  0  0  0  0  0  0
    1.8102   -0.6050    0.4750 O   0  0  0  0  0  0  0  0  0  0  0  0
    3.0294   -0.1553   -0.0874 C   0  0  0  0  0  0  0  0  0  0  0  0
    4.1342   -0.2187    0.9347 C   0  0  0  0  0  0  0  0  0  0  0  0
    5.2972   -1.0778    0.4784 C   0  0  0  0  0  0  0  0  0  0  0  0
    5.6972   -0.5181   -0.8220 N   0  0  0  0  0  0  0  0  0  0  0  0
    4.7297   -0.9435   -1.7739 C   0  0  0  0  0  0  0  0  0  0  0  0
    3.3164   -0.8905   -1.3474 C   0  0  0  0  0  0  0  0  0  0  0  0
   -0.5582   -0.2339    1.2275 C   0  0  2  0  0  0  0  0  0  0  0  0
   -1.2663   -1.1177    0.0816 C   0  0  0  0  0  0  0  0  0  0  0  0
   -2.7485   -0.7900    0.0852 C   0  0  0  0  0  0  0  0  0  0  0  0
   -3.1611    0.6191   -0.1970 C   0  0  2  0  0  0  0  0  0  0  0  0
   -1.8116    1.4253   -0.0440 C   0  0  0  0  0  0  0  0  0  0  0  0
   -1.6081    0.7153    1.2569 N   0  0  0  0  0  0  0  0  0  0  0  0
   -2.7123    1.1757    1.9723 C   0  0  0  0  0  0  0  0  0  0  0  0
   -2.7089    1.5021    3.1733 O   0  0  0  0  0  0  0  0  0  0  0  0
   -3.8164    1.1713    0.9990 N   0  0  0  0  0  0  0  0  0  0  0  0
   -5.0418    1.5903    1.2674 O   0  0  0  0  0  0  0  0  0  0  0  0
   -6.1005    1.4883    0.0247 S   0  0  0  0  0  6  0  0  0  0  0  0
   -5.6978    2.3232   -1.1540 O   0  0  0  0  0  0  0  0  0  0  0  0
   -7.4387    2.0179    0.4984 O   0  0  0  0  0  0  0  0  0  0  0  0
   -6.3757   -0.0702   -0.5208 O   0  0  0  0  0  0  0  0  0  0  0  0
    2.8863    0.9252   -0.3313 H   0  0  0  0  0  0  0  0  0  0  0  0
    3.7339   -0.6817    1.8600 H   0  0  0  0  0  0  0  0  0  0  0  0
    4.5174    0.7845    1.2169 H   0  0  0  0  0  0  0  0  0  0  0  0
    6.0980   -1.0050    1.2139 H   0  0  0  0  0  0  0  0  0  0  0  0
    4.9984   -2.1212    0.3290 H   0  0  0  0  0  0  0  0  0  0  0  0
    5.8235    0.5024   -0.7322 H   0  0  0  0  0  0  0  0  0  0  0  0
    4.9261   -0.3755   -2.7283 H   0  0  0  0  0  0  0  0  0  0  0  0
    4.9809   -2.0099   -2.0495 H   0  0  0  0  0  0  0  0  0  0  0  0
    2.7319   -0.3773   -2.1679 H   0  0  0  0  0  0  0  0  0  0  0  0
    2.8545   -1.9204   -1.3065 H   0  0  0  0  0  0  0  0  0  0  0  0
   -0.4573   -0.8707    2.1028 H   0  0  0  0  0  0  0  0  0  0  0  0
   -0.8289   -0.8798   -0.8652 H   0  0  0  0  0  0  0  0  0  0  0  0
   -1.1405   -2.1464    0.3747 H   0  0  0  0  0  0  0  0  0  0  0  0
   -3.1895   -1.4376   -0.6868 H   0  0  0  0  0  0  0  0  0  0  0  0
   -3.1408   -1.1676    1.0635 H   0  0  0  0  0  0  0  0  0  0  0  0
   -3.6425    0.8322   -1.1254 H   0  0  0  0  0  0  0  0  0  0  0  0
   -1.1281    1.1343   -0.8138 H   0  0  0  0  0  0  0  0  0  0  0  0
   -1.9797    2.4722    0.0573 H   0  0  0  0  0  0  0  0  0  0  0  0
   -6.5893   -0.7071    0.1875 H   0  0  0  0  0  0  0  0  0  0  0  0
  1  2  2  0
  2  3  1  0
  3  4  1  0
  4  5  1  0
  5  6  1  0
  6  7  1  0
  7  8  1  0
  8  9  1  0
  2 10  1  0
 10 11  1  0
 11 12  1  0
 12 13  1  0
 13 14  1  0
 14 15  1  0
 15 16  1  0
 16 17  2  0
 16 18  1  0
 18 19  1  0
 19 20  1  0
 20 21  2  0
 20 22  2  0
 20 23  1  0
  9  4  1  0
 15 10  1  0
 18 13  1  0
  4 24  1  0
  5 25  1  0
  5 26  1  0
  6 27  1  0
  6 28  1  0
  7 29  1  0
  8 30  1  0
  8 31  1  0
  9 32  1  0
  9 33  1  0
 10 34  1  1
 11 35  1  0
 11 36  1  0
 12 37  1  0
 12 38  1  0
 13 39  1  6
 14 40  1  0
 14 41  1  0
 23 42  1  0
M  END
$$$$
