
     RDKit          3D

 66 72  0  0  0  0  0  0  0  0999 V2000
    1.9733    3.1857   -3.3582 C   0  0  0  0  0  0  0  0  0  0  0  0
    1.3608    2.5592   -2.1419 C   0  0  0  0  0  0  0  0  0  0  0  0
    0.0073    2.2909   -2.1058 C   0  0  0  0  0  0  0  0  0  0  0  0
   -0.6083    1.7119   -0.9974 C   0  0  0  0  0  0  0  0  0  0  0  0
    0.1749    1.4100    0.0751 C   0  0  0  0  0  0  0  0  0  0  0  0
    1.5550    1.6764    0.0534 C   0  0  0  0  0  0  0  0  0  0  0  0
    2.1426    2.2499   -1.0536 C   0  0  0  0  0  0  0  0  0  0  0  0
    2.0891    1.2896    1.2401 C   0  0  0  0  0  0  0  0  0  0  0  0
    3.4710    1.3060    1.7203 C   0  0  0  0  0  0  0  0  0  0  0  0
    4.5672    0.8673    1.1298 C   0  0  0  0  0  0  0  0  0  0  0  0
    4.6810    0.2319   -0.1872 C   0  0  0  0  0  0  0  0  0  0  0  0
    5.5610    0.5984   -1.1836 C   0  0  0  0  0  0  0  0  0  0  0  0
    5.4191   -0.2195   -2.2430 N   0  0  0  0  0  0  0  0  0  0  0  0
    4.4515   -1.1139   -1.9350 C   0  0  0  0  0  0  0  0  0  0  0  0
    3.9316   -2.1707   -2.6668 C   0  0  0  0  0  0  0  0  0  0  0  0
    2.9514   -2.9501   -2.1211 C   0  0  0  0  0  0  0  0  0  0  0  0
    2.5222   -2.6407   -0.8472 C   0  0  0  0  0  0  0  0  0  0  0  0
    3.0493   -1.5837   -0.1277 C   0  0  0  0  0  0  0  0  0  0  0  0
    4.0022   -0.8336   -0.6747 N   0  0  0  0  0  0  0  0  0  0  0  0
    5.7317    1.1002    2.0228 C   0  0  0  0  0  0  0  0  0  0  0  0
    6.9180    0.7747    1.7065 O   0  0  0  0  0  0  0  0  0  0  0  0
    5.2677    1.7158    3.2076 N   0  0  0  0  0  0  0  0  0  0  0  0
    3.8816    1.8506    3.0410 C   0  0  0  0  0  0  0  0  0  0  0  0
    3.0920    2.3484    3.8632 O   0  0  0  0  0  0  0  0  0  0  0  0
    1.0414    0.7840    1.9982 C   0  0  0  0  0  0  0  0  0  0  0  0
   -0.1045    0.8672    1.2708 N   0  0  0  0  0  0  0  0  0  0  0  0
   -1.3853    0.4040    1.7815 C   0  0  0  0  0  0  0  0  0  0  0  0
   -2.5572    1.1609    1.1586 C   0  0  0  0  0  0  0  0  0  0  0  0
   -2.7778    0.8723   -0.2123 N   0  0  0  0  0  0  0  0  0  0  0  0
   -3.6775   -0.0487   -0.6817 C   0  0  0  0  0  0  0  0  0  0  0  0
   -3.7071   -0.1522   -2.0109 O   0  0  0  0  0  0  0  0  0  0  0  0
   -4.5638   -0.8916   -0.0173 N   0  0  0  0  0  0  0  0  0  0  0  0
   -4.7194   -0.9813    1.3943 C   0  0  0  0  0  0  0  0  0  0  0  0
   -5.5887   -2.2103    1.7452 C   0  0  0  0  0  0  0  0  0  0  0  0
   -4.9956   -3.3692    0.9571 C   0  0  0  0  0  0  0  0  0  0  0  0
   -5.2889   -3.1984   -0.5196 C   0  0  0  0  0  0  0  0  0  0  0  0
   -5.4054   -1.7456   -0.8931 C   0  0  0  0  0  0  0  0  0  0  0  0
   -2.0381    1.5753   -1.3034 C   0  0  0  0  0  0  0  0  0  0  0  0
    2.3285    2.3958   -4.0176 H   0  0  0  0  0  0  0  0  0  0  0  0
    2.8369    3.8157   -3.0231 H   0  0  0  0  0  0  0  0  0  0  0  0
    1.2587    3.8742   -3.8677 H   0  0  0  0  0  0  0  0  0  0  0  0
   -0.5856    2.5522   -2.9940 H   0  0  0  0  0  0  0  0  0  0  0  0
    3.2104    2.4773   -1.0998 H   0  0  0  0  0  0  0  0  0  0  0  0
    6.2893    1.4116   -1.1900 H   0  0  0  0  0  0  0  0  0  0  0  0
    4.3277   -2.3515   -3.6707 H   0  0  0  0  0  0  0  0  0  0  0  0
    2.5241   -3.7947   -2.6844 H   0  0  0  0  0  0  0  0  0  0  0  0
    1.7507   -3.2285   -0.3732 H   0  0  0  0  0  0  0  0  0  0  0  0
    2.6782   -1.4085    0.8675 H   0  0  0  0  0  0  0  0  0  0  0  0
    5.9001    1.9881    4.0089 H   0  0  0  0  0  0  0  0  0  0  0  0
    1.0769    0.3802    3.0020 H   0  0  0  0  0  0  0  0  0  0  0  0
   -1.5023   -0.6677    1.6237 H   0  0  0  0  0  0  0  0  0  0  0  0
   -1.4389    0.6119    2.8781 H   0  0  0  0  0  0  0  0  0  0  0  0
   -3.4213    1.1004    1.8339 H   0  0  0  0  0  0  0  0  0  0  0  0
   -2.1787    2.2677    1.2544 H   0  0  0  0  0  0  0  0  0  0  0  0
   -5.2911   -0.1107    1.7769 H   0  0  0  0  0  0  0  0  0  0  0  0
   -3.7569   -1.1659    1.8765 H   0  0  0  0  0  0  0  0  0  0  0  0
   -6.6224   -1.9993    1.4793 H   0  0  0  0  0  0  0  0  0  0  0  0
   -5.4354   -2.4602    2.8146 H   0  0  0  0  0  0  0  0  0  0  0  0
   -5.4803   -4.2971    1.3096 H   0  0  0  0  0  0  0  0  0  0  0  0
   -3.9004   -3.3595    1.1093 H   0  0  0  0  0  0  0  0  0  0  0  0
   -4.4950   -3.7255   -1.0797 H   0  0  0  0  0  0  0  0  0  0  0  0
   -6.2507   -3.7127   -0.7366 H   0  0  0  0  0  0  0  0  0  0  0  0
   -6.4441   -1.3968   -0.8026 H   0  0  0  0  0  0  0  0  0  0  0  0
   -5.0421   -1.6055   -1.9190 H   0  0  0  0  0  0  0  0  0  0  0  0
   -2.2662    1.0841   -2.2414 H   0  0  0  0  0  0  0  0  0  0  0  0
   -2.4956    2.6037   -1.2798 H   0  0  0  0  0  0  0  0  0  0  0  0
  1  2  1  0
  2  3  2  0
  3  4  1  0
  4  5  2  0
  5  6  1  0
  6  7  2  0
  6  8  1  0
  8  9  1  0
  9 10  2  0
 10 11  1  0
 11 12  2  0
 12 13  1  0
 13 14  2  0
 14 15  1  0
 15 16  2  0
 16 17  1  0
 17 18  2  0
 18 19  1  0
 10 20  1  0
 20 21  2  0
 20 22  1  0
 22 23  1  0
 23 24  2  0
  8 25  2  0
 25 26  1  0
 26 27  1  0
 27 28  1  0
 28 29  1  0
 29 30  1  0
 30 31  2  0
 30 32  1  0
 32 33  1  0
 33 34  1  0
 34 35  1  0
 35 36  1  0
 36 37  1  0
 29 38  1  0
  7  2  1  0
 23  9  1  0
 37 32  1  0
 38  4  1  0
 26  5  1  0
 19 11  1  0
 19 14  1  0
  1 39  1  0
  1 40  1  0
  1 41  1  0
  3 42  1  0
  7 43  1  0
 12 44  1  0
 15 45  1  0
 16 46  1  0
 17 47  1  0
 18 48  1  0
 22 49  1  0
 25 50  1  0
 27 51  1  0
 27 52  1  0
 28 53  1  0
 28 54  1  0
 33 55  1  0
 33 56  1  0
 34 57  1  0
 34 58  1  0
 35 59  1  0
 35 60  1  0
 36 61  1  0
 36 62  1  0
 37 63  1  0
 37 64  1  0
 38 65  1  0
 38 66  1  0
M  END
$$$$
