
     RDKit          3D

 52 54  0  0  0  0  0  0  0  0999 V2000
    2.8668   -1.1378   -0.6593 O   0  0  0  0  0  0  0  0  0  0  0  0
    2.6538   -0.0756   -0.0487 C   0  0  0  0  0  0  0  0  0  0  0  0
    3.7348    0.7263    0.4353 N   0  0  0  0  0  0  0  0  0  0  0  0
    5.0888    0.3417    0.2392 C   0  0  0  0  0  0  0  0  0  0  0  0
    5.8028    0.7271   -0.8755 C   0  0  0  0  0  0  0  0  0  0  0  0
    7.1227    0.3521   -1.0638 C   0  0  0  0  0  0  0  0  0  0  0  0
    7.7693   -0.4322   -0.1219 C   0  0  0  0  0  0  0  0  0  0  0  0
    9.0975   -0.8046   -0.3197 O   0  0  0  0  0  0  0  0  0  0  0  0
   10.1314    0.0496    0.1855 C   0  0  0  0  0  0  0  0  0  0  0  0
   10.0589    1.3047   -0.3743 F   0  0  0  0  0  0  0  0  0  0  0  0
   11.3203   -0.5578   -0.1624 F   0  0  0  0  0  0  0  0  0  0  0  0
    9.9933    0.1266    1.5472 F   0  0  0  0  0  0  0  0  0  0  0  0
    7.0620   -0.8175    0.9881 C   0  0  0  0  0  0  0  0  0  0  0  0
    5.7398   -0.4391    1.1720 C   0  0  0  0  0  0  0  0  0  0  0  0
    1.3163    0.3461    0.1705 N   0  0  0  0  0  0  0  0  0  0  0  0
    0.1631   -0.4330   -0.3018 C   0  0  0  0  0  0  0  0  0  0  0  0
   -0.6197   -0.9649    0.8774 C   0  0  0  0  0  0  0  0  0  0  0  0
   -1.9888   -1.4215    0.5411 C   0  0  0  0  0  0  0  0  0  0  0  0
   -2.7756   -0.4449   -0.2955 C   0  0  0  0  0  0  0  0  0  0  0  0
   -4.0163   -0.9235   -0.6881 O   0  0  0  0  0  0  0  0  0  0  0  0
   -5.2277   -0.3649   -0.3662 C   0  0  0  0  0  0  0  0  0  0  0  0
   -5.4351    0.7605    0.3960 C   0  0  0  0  0  0  0  0  0  0  0  0
   -6.7230    1.2491    0.6661 C   0  0  0  0  0  0  0  0  0  0  0  0
   -7.8457    0.6215    0.1779 C   0  0  0  0  0  0  0  0  0  0  0  0
   -9.1980    1.1310    0.4585 C   0  0  0  0  0  0  0  0  0  0  0  0
   -9.4061    2.1438    1.1428 O   0  0  0  0  0  0  0  0  0  0  0  0
  -10.2814    0.4426   -0.0691 O   0  0  0  0  0  0  0  0  0  0  0  0
   -7.6559   -0.5069   -0.5874 C   0  0  0  0  0  0  0  0  0  0  0  0
   -6.3943   -0.9841   -0.8509 C   0  0  0  0  0  0  0  0  0  0  0  0
   -1.9968   -0.0064   -1.5208 C   0  0  0  0  0  0  0  0  0  0  0  0
   -0.6269    0.4706   -1.1822 C   0  0  0  0  0  0  0  0  0  0  0  0
    3.5222    1.6255    0.9506 H   0  0  0  0  0  0  0  0  0  0  0  0
    5.2945    1.3405   -1.6108 H   0  0  0  0  0  0  0  0  0  0  0  0
    7.6800    0.6567   -1.9403 H   0  0  0  0  0  0  0  0  0  0  0  0
    7.5628   -1.4328    1.7308 H   0  0  0  0  0  0  0  0  0  0  0  0
    5.1805   -0.7423    2.0473 H   0  0  0  0  0  0  0  0  0  0  0  0
    1.1839    1.2454    0.6887 H   0  0  0  0  0  0  0  0  0  0  0  0
    0.5838   -1.3188   -0.8191 H   0  0  0  0  0  0  0  0  0  0  0  0
   -0.0755   -1.7559    1.4130 H   0  0  0  0  0  0  0  0  0  0  0  0
   -0.7019   -0.1097    1.6011 H   0  0  0  0  0  0  0  0  0  0  0  0
   -1.9447   -2.3882    0.0013 H   0  0  0  0  0  0  0  0  0  0  0  0
   -2.5542   -1.5825    1.4758 H   0  0  0  0  0  0  0  0  0  0  0  0
   -2.8928    0.4609    0.3198 H   0  0  0  0  0  0  0  0  0  0  0  0
   -4.5814    1.2862    0.8004 H   0  0  0  0  0  0  0  0  0  0  0  0
   -6.8339    2.1410    1.2732 H   0  0  0  0  0  0  0  0  0  0  0  0
  -11.1568    0.9566   -0.2391 H   0  0  0  0  0  0  0  0  0  0  0  0
   -8.5446   -1.0060   -0.9755 H   0  0  0  0  0  0  0  0  0  0  0  0
   -6.2494   -1.8765   -1.4564 H   0  0  0  0  0  0  0  0  0  0  0  0
   -1.9191   -0.8630   -2.2116 H   0  0  0  0  0  0  0  0  0  0  0  0
   -2.5211    0.8032   -2.0594 H   0  0  0  0  0  0  0  0  0  0  0  0
   -0.7018    1.4609   -0.6905 H   0  0  0  0  0  0  0  0  0  0  0  0
   -0.0610    0.6202   -2.1240 H   0  0  0  0  0  0  0  0  0  0  0  0
  1  2  2  0
  2  3  1  0
  3  4  1  0
  4  5  2  0
  5  6  1  0
  6  7  2  0
  7  8  1  0
  8  9  1  0
  9 10  1  0
  9 11  1  0
  9 12  1  0
  7 13  1  0
 13 14  2  0
  2 15  1  0
 15 16  1  0
 16 17  1  0
 17 18  1  0
 18 19  1  0
 19 20  1  0
 20 21  1  0
 21 22  2  0
 22 23  1  0
 23 24  2  0
 24 25  1  0
 25 26  2  0
 25 27  1  0
 24 28  1  0
 28 29  2  0
 19 30  1  0
 30 31  1  0
 14  4  1  0
 31 16  1  0
 29 21  1  0
  3 32  1  0
  5 33  1  0
  6 34  1  0
 13 35  1  0
 14 36  1  0
 15 37  1  0
 16 38  1  0
 17 39  1  0
 17 40  1  0
 18 41  1  0
 18 42  1  0
 19 43  1  0
 22 44  1  0
 23 45  1  0
 27 46  1  0
 28 47  1  0
 29 48  1  0
 30 49  1  0
 30 50  1  0
 31 51  1  0
 31 52  1  0
M  END
$$$$
