
     RDKit          3D

 40 42  0  0  0  0  0  0  0  0999 V2000
   -0.8871   -1.2508    2.7747 C   0  0  0  0  0  0  0  0  0  0  0  0
   -1.0808   -0.4677    1.6240 O   0  0  0  0  0  0  0  0  0  0  0  0
   -0.0143   -0.2422    0.7648 C   0  0  0  0  0  0  0  0  0  0  0  0
    1.2444   -0.7888    1.0431 C   0  0  0  0  0  0  0  0  0  0  0  0
    2.3134   -0.5726    0.2005 C   0  0  0  0  0  0  0  0  0  0  0  0
    3.6088   -1.1829    0.5113 C   0  0  0  0  0  0  0  0  0  0  0  0
    4.7032   -0.5065    0.6110 C   0  0  0  0  0  0  0  0  0  0  0  0
    6.3159   -1.1791    0.9792 S   0  0  0  0  0  0  0  0  0  0  0  0
    7.1624    0.3943    0.9661 C   0  0  0  0  0  0  0  0  0  0  0  0
    8.5313    0.5542    1.1956 O   0  0  0  0  0  0  0  0  0  0  0  0
    6.2867    1.2770    0.7157 N   0  0  0  0  0  0  0  0  0  0  0  0
    4.9688    0.8943    0.5169 C   0  0  0  0  0  0  0  0  0  0  0  0
    4.0677    1.7781    0.2675 O   0  0  0  0  0  0  0  0  0  0  0  0
    2.1164    0.1883   -0.9177 C   0  0  0  0  0  0  0  0  0  0  0  0
    0.8608    0.7389   -1.2030 C   0  0  0  0  0  0  0  0  0  0  0  0
   -0.2175    0.5276   -0.3614 C   0  0  0  0  0  0  0  0  0  0  0  0
   -1.4626    1.0504   -0.6004 O   0  0  0  0  0  0  0  0  0  0  0  0
   -2.6412    0.3819   -0.8122 C   0  0  0  0  0  0  0  0  0  0  0  0
   -2.7279   -0.9878   -0.8476 C   0  0  0  0  0  0  0  0  0  0  0  0
   -3.9608   -1.5686   -1.0646 C   0  0  0  0  0  0  0  0  0  0  0  0
   -5.1227   -0.8624   -1.2509 C   0  0  0  0  0  0  0  0  0  0  0  0
   -6.3829   -1.4799   -1.4700 C   0  0  0  0  0  0  0  0  0  0  0  0
   -7.4174   -2.0095   -1.6496 N   0  0  0  0  0  0  0  0  0  0  0  0
   -5.0265    0.5244   -1.2142 C   0  0  0  0  0  0  0  0  0  0  0  0
   -3.8152    1.1288   -1.0001 C   0  0  0  0  0  0  0  0  0  0  0  0
   -3.7345    2.6122   -0.9650 C   0  0  0  0  0  0  0  0  0  0  0  0
   -2.9002    3.0984   -1.9380 F   0  0  0  0  0  0  0  0  0  0  0  0
   -3.2979    2.9484    0.3045 F   0  0  0  0  0  0  0  0  0  0  0  0
   -4.9874    3.1341   -1.1386 F   0  0  0  0  0  0  0  0  0  0  0  0
   -0.2044   -0.6877    3.4651 H   0  0  0  0  0  0  0  0  0  0  0  0
   -1.8355   -1.3908    3.3372 H   0  0  0  0  0  0  0  0  0  0  0  0
   -0.4217   -2.2301    2.5253 H   0  0  0  0  0  0  0  0  0  0  0  0
    1.4094   -1.3971    1.9314 H   0  0  0  0  0  0  0  0  0  0  0  0
    3.6209   -2.2914    0.6623 H   0  0  0  0  0  0  0  0  0  0  0  0
    8.9942    1.3292    0.7343 H   0  0  0  0  0  0  0  0  0  0  0  0
    2.9305    0.3602   -1.6209 H   0  0  0  0  0  0  0  0  0  0  0  0
    0.7408    1.3356   -2.0944 H   0  0  0  0  0  0  0  0  0  0  0  0
   -1.8287   -1.6110   -0.7125 H   0  0  0  0  0  0  0  0  0  0  0  0
   -3.9881   -2.6664   -1.0854 H   0  0  0  0  0  0  0  0  0  0  0  0
   -5.9204    1.1168   -1.3575 H   0  0  0  0  0  0  0  0  0  0  0  0
  1  2  1  0
  2  3  1  0
  3  4  2  0
  4  5  1  0
  5  6  1  0
  6  7  2  3
  7  8  1  0
  8  9  1  0
  9 10  1  0
  9 11  2  0
 11 12  1  0
 12 13  2  0
  5 14  2  0
 14 15  1  0
 15 16  2  0
 16 17  1  0
 17 18  1  0
 18 19  2  0
 19 20  1  0
 20 21  2  0
 21 22  1  0
 22 23  3  0
 21 24  1  0
 24 25  2  0
 25 26  1  0
 26 27  1  0
 26 28  1  0
 26 29  1  0
 16  3  1  0
 25 18  1  0
 12  7  1  0
  1 30  1  0
  1 31  1  0
  1 32  1  0
  4 33  1  0
  6 34  1  0
 10 35  1  0
 14 36  1  0
 15 37  1  0
 19 38  1  0
 20 39  1  0
 24 40  1  0
M  END
$$$$
