
     RDKit          3D

 53 58  0  0  0  0  0  0  0  0999 V2000
    4.2185   -1.9538   -2.4599 C   0  0  0  0  0  0  0  0  0  0  0  0
    3.5127   -1.0937   -1.4738 C   0  0  0  0  0  0  0  0  0  0  0  0
    2.1601   -1.3051   -1.2168 C   0  0  0  0  0  0  0  0  0  0  0  0
    1.5271   -0.5028   -0.3054 C   0  0  0  0  0  0  0  0  0  0  0  0
    0.1414   -0.6817    0.0187 N   0  0  0  0  0  0  0  0  0  0  0  0
   -0.7316   -1.7129   -0.4048 C   0  0  0  0  0  0  0  0  0  0  0  0
   -0.4194   -2.6248   -1.1802 O   0  0  0  0  0  0  0  0  0  0  0  0
   -2.0630   -1.5511    0.2048 C   0  0  0  0  0  0  0  0  0  0  0  0
   -1.9528   -0.4242    0.9732 C   0  0  0  0  0  0  0  0  0  0  0  0
   -3.1925   -0.2728    1.5772 C   0  0  0  0  0  0  0  0  0  0  0  0
   -3.5569    0.8381    2.5265 C   0  0  0  0  0  0  0  0  0  0  0  0
   -2.9593    0.5352    3.7513 O   0  0  0  0  0  0  0  0  0  0  0  0
   -3.9396   -1.2792    1.1476 N   0  0  0  0  0  0  0  0  0  0  0  0
   -3.2982   -2.0808    0.3132 N   0  0  0  0  0  0  0  0  0  0  0  0
   -3.8440   -3.2454   -0.3123 C   0  0  0  0  0  0  0  0  0  0  0  0
   -3.0356   -4.4925   -0.5246 C   0  0  0  0  0  0  0  0  0  0  0  0
   -3.4814   -3.7051   -1.6575 C   0  0  0  0  0  0  0  0  0  0  0  0
   -0.6199    0.2115    0.8622 C   0  0  0  0  0  0  0  0  0  0  0  0
   -0.7134    1.5334    0.2014 C   0  0  0  0  0  0  0  0  0  0  0  0
   -0.6083    2.6715    0.9631 C   0  0  0  0  0  0  0  0  0  0  0  0
   -0.6874    3.9349    0.4152 C   0  0  0  0  0  0  0  0  0  0  0  0
   -0.8780    4.0681   -0.9390 C   0  0  0  0  0  0  0  0  0  0  0  0
   -0.9785    5.6472   -1.6329 Cl  0  0  0  0  0  0  0  0  0  0  0  0
   -0.9884    2.9285   -1.7377 C   0  0  0  0  0  0  0  0  0  0  0  0
   -0.9041    1.6715   -1.1534 C   0  0  0  0  0  0  0  0  0  0  0  0
    2.2460    0.4897    0.3310 C   0  0  0  0  0  0  0  0  0  0  0  0
    3.5287    0.6980    0.0939 N   0  0  0  0  0  0  0  0  0  0  0  0
    4.3836    1.6029    0.6088 C   0  0  0  0  0  0  0  0  0  0  0  0
    4.1321    2.6529    1.6135 C   0  0  0  0  0  0  0  0  0  0  0  0
    5.5687    1.3767    0.0222 N   0  0  0  0  0  0  0  0  0  0  0  0
    5.4331    0.3568   -0.8290 N   0  0  0  0  0  0  0  0  0  0  0  0
    4.1424   -0.0827   -0.7925 C   0  0  0  0  0  0  0  0  0  0  0  0
    4.8396   -1.3291   -3.1118 H   0  0  0  0  0  0  0  0  0  0  0  0
    4.8520   -2.6498   -1.8539 H   0  0  0  0  0  0  0  0  0  0  0  0
    3.4817   -2.5779   -2.9921 H   0  0  0  0  0  0  0  0  0  0  0  0
    1.6585   -2.1026   -1.7565 H   0  0  0  0  0  0  0  0  0  0  0  0
   -3.2792    1.8254    2.1348 H   0  0  0  0  0  0  0  0  0  0  0  0
   -4.6592    0.7774    2.7108 H   0  0  0  0  0  0  0  0  0  0  0  0
   -2.0999    1.0322    3.7871 H   0  0  0  0  0  0  0  0  0  0  0  0
   -4.9149   -3.4739   -0.0291 H   0  0  0  0  0  0  0  0  0  0  0  0
   -3.5287   -5.4994   -0.3654 H   0  0  0  0  0  0  0  0  0  0  0  0
   -2.0600   -4.4754   -0.0344 H   0  0  0  0  0  0  0  0  0  0  0  0
   -4.2756   -4.1785   -2.3144 H   0  0  0  0  0  0  0  0  0  0  0  0
   -2.8886   -3.0126   -2.2653 H   0  0  0  0  0  0  0  0  0  0  0  0
   -0.0957    0.2938    1.8165 H   0  0  0  0  0  0  0  0  0  0  0  0
   -0.4579    2.6152    2.0319 H   0  0  0  0  0  0  0  0  0  0  0  0
   -0.6032    4.8153    1.0258 H   0  0  0  0  0  0  0  0  0  0  0  0
   -1.1374    3.0639   -2.7965 H   0  0  0  0  0  0  0  0  0  0  0  0
   -0.9949    0.8187   -1.8075 H   0  0  0  0  0  0  0  0  0  0  0  0
    1.7375    1.1096    1.0553 H   0  0  0  0  0  0  0  0  0  0  0  0
    4.6268    3.6013    1.3235 H   0  0  0  0  0  0  0  0  0  0  0  0
    3.0549    2.7713    1.8385 H   0  0  0  0  0  0  0  0  0  0  0  0
    4.6021    2.3671    2.5988 H   0  0  0  0  0  0  0  0  0  0  0  0
  1  2  1  0
  2  3  2  0
  3  4  1  0
  4  5  1  0
  5  6  1  0
  6  7  2  0
  6  8  1  0
  8  9  2  0
  9 10  1  0
 10 11  1  0
 11 12  1  0
 10 13  2  0
 13 14  1  0
 14 15  1  0
 15 16  1  0
 16 17  1  0
  9 18  1  0
 18 19  1  0
 19 20  2  0
 20 21  1  0
 21 22  2  0
 22 23  1  0
 22 24  1  0
 24 25  2  0
  4 26  2  0
 26 27  1  0
 27 28  1  0
 28 29  1  0
 28 30  2  0
 30 31  1  0
 31 32  2  0
 32  2  1  0
 18  5  1  0
 25 19  1  0
 32 27  1  0
 14  8  1  0
 17 15  1  0
  1 33  1  0
  1 34  1  0
  1 35  1  0
  3 36  1  0
 11 37  1  0
 11 38  1  0
 12 39  1  0
 15 40  1  0
 16 41  1  0
 16 42  1  0
 17 43  1  0
 17 44  1  0
 18 45  1  0
 20 46  1  0
 21 47  1  0
 24 48  1  0
 25 49  1  0
 26 50  1  0
 29 51  1  0
 29 52  1  0
 29 53  1  0
M  END
$$$$
