
     RDKit          3D

 58 64  0  0  0  0  0  0  0  0999 V2000
   -3.9708    0.6478   -4.0795 C   0  0  0  0  0  0  0  0  0  0  0  0
   -3.5816    0.3111   -2.6918 C   0  0  0  0  0  0  0  0  0  0  0  0
   -2.2506    0.0803   -2.3357 C   0  0  0  0  0  0  0  0  0  0  0  0
   -1.9006   -0.2312   -1.0462 C   0  0  0  0  0  0  0  0  0  0  0  0
   -0.5518   -0.4757   -0.6347 N   0  0  0  0  0  0  0  0  0  0  0  0
   -0.0186   -1.7876   -0.6790 C   0  0  0  0  0  0  0  0  0  0  0  0
   -0.5910   -2.8501   -1.0633 O   0  0  0  0  0  0  0  0  0  0  0  0
    1.3498   -1.7209   -0.1911 C   0  0  0  0  0  0  0  0  0  0  0  0
    2.5082   -2.4470    0.0981 C   0  0  0  0  0  0  0  0  0  0  0  0
    2.6522   -3.9022   -0.1266 C   0  0  0  0  0  0  0  0  0  0  0  0
    3.4715   -4.4982   -1.1788 C   0  0  0  0  0  0  0  0  0  0  0  0
    2.0501   -4.3654   -1.4971 C   0  0  0  0  0  0  0  0  0  0  0  0
    3.3892   -1.5632    0.5690 N   0  0  0  0  0  0  0  0  0  0  0  0
    2.9138   -0.3514    0.6091 N   0  0  0  0  0  0  0  0  0  0  0  0
    3.5099    0.8655    1.0354 C   0  0  0  0  0  0  0  0  0  0  0  0
    3.4095    1.3866    2.3074 C   0  0  0  0  0  0  0  0  0  0  0  0
    4.1173    2.5797    2.3477 C   0  0  0  0  0  0  0  0  0  0  0  0
    4.6197    2.7530    1.1295 N   0  0  0  0  0  0  0  0  0  0  0  0
    4.2634    1.7442    0.3537 N   0  0  0  0  0  0  0  0  0  0  0  0
    4.6403    1.6143   -1.0416 C   0  0  0  0  0  0  0  0  0  0  0  0
    1.6268   -0.4266    0.1333 C   0  0  0  0  0  0  0  0  0  0  0  0
    0.4368    0.3984   -0.1535 C   0  0  0  0  0  0  0  0  0  0  0  0
    0.0437    1.2400    0.9900 C   0  0  0  0  0  0  0  0  0  0  0  0
    0.3985    2.5715    0.9605 C   0  0  0  0  0  0  0  0  0  0  0  0
    0.0549    3.4074    2.0079 C   0  0  0  0  0  0  0  0  0  0  0  0
   -0.6462    2.8912    3.0798 C   0  0  0  0  0  0  0  0  0  0  0  0
   -1.0774    3.9570    4.4024 Cl  0  0  0  0  0  0  0  0  0  0  0  0
   -0.9857    1.5534    3.0776 C   0  0  0  0  0  0  0  0  0  0  0  0
   -0.6577    0.7011    2.0517 C   0  0  0  0  0  0  0  0  0  0  0  0
   -2.8625   -0.3108   -0.1293 N   0  0  0  0  0  0  0  0  0  0  0  0
   -4.1351   -0.1006   -0.4199 N   0  0  0  0  0  0  0  0  0  0  0  0
   -5.2070   -0.1396    0.3657 C   0  0  0  0  0  0  0  0  0  0  0  0
   -5.2525   -0.4385    1.8159 C   0  0  0  0  0  0  0  0  0  0  0  0
   -6.2653    0.1469   -0.4085 N   0  0  0  0  0  0  0  0  0  0  0  0
   -5.8585    0.3590   -1.6471 N   0  0  0  0  0  0  0  0  0  0  0  0
   -4.5088    0.2069   -1.6769 C   0  0  0  0  0  0  0  0  0  0  0  0
   -3.5943    1.6379   -4.4095 H   0  0  0  0  0  0  0  0  0  0  0  0
   -5.0486    0.5097   -4.2036 H   0  0  0  0  0  0  0  0  0  0  0  0
   -3.4792   -0.1183   -4.7354 H   0  0  0  0  0  0  0  0  0  0  0  0
   -1.5097    0.1586   -3.1231 H   0  0  0  0  0  0  0  0  0  0  0  0
    2.2758   -4.5012    0.7288 H   0  0  0  0  0  0  0  0  0  0  0  0
    3.8533   -5.5288   -0.9820 H   0  0  0  0  0  0  0  0  0  0  0  0
    4.1700   -3.8545   -1.7507 H   0  0  0  0  0  0  0  0  0  0  0  0
    1.7413   -3.5338   -2.1990 H   0  0  0  0  0  0  0  0  0  0  0  0
    1.3211   -5.1777   -1.4636 H   0  0  0  0  0  0  0  0  0  0  0  0
    2.8817    0.9680    3.1498 H   0  0  0  0  0  0  0  0  0  0  0  0
    4.2145    3.2113    3.2191 H   0  0  0  0  0  0  0  0  0  0  0  0
    3.8927    2.0725   -1.7040 H   0  0  0  0  0  0  0  0  0  0  0  0
    4.7032    0.5351   -1.2743 H   0  0  0  0  0  0  0  0  0  0  0  0
    5.6363    2.0439   -1.1919 H   0  0  0  0  0  0  0  0  0  0  0  0
    0.6748    1.1078   -1.0143 H   0  0  0  0  0  0  0  0  0  0  0  0
    0.9503    3.0167    0.1353 H   0  0  0  0  0  0  0  0  0  0  0  0
    0.3316    4.4432    1.9835 H   0  0  0  0  0  0  0  0  0  0  0  0
   -1.5267    1.1557    3.9051 H   0  0  0  0  0  0  0  0  0  0  0  0
   -0.9049   -0.3468    2.0146 H   0  0  0  0  0  0  0  0  0  0  0  0
   -5.3094    0.4823    2.4359 H   0  0  0  0  0  0  0  0  0  0  0  0
   -6.1007   -1.1215    2.0685 H   0  0  0  0  0  0  0  0  0  0  0  0
   -4.3073   -0.9661    2.0765 H   0  0  0  0  0  0  0  0  0  0  0  0
  1  2  1  0
  2  3  2  0
  3  4  1  0
  4  5  1  0
  5  6  1  0
  6  7  2  0
  6  8  1  0
  8  9  1  0
  9 10  1  0
 10 11  1  0
 11 12  1  0
  9 13  2  0
 13 14  1  0
 14 15  1  0
 15 16  2  0
 16 17  1  0
 17 18  2  0
 18 19  1  0
 19 20  1  0
 14 21  1  0
 21 22  1  0
 22 23  1  0
 23 24  2  0
 24 25  1  0
 25 26  2  0
 26 27  1  0
 26 28  1  0
 28 29  2  0
  4 30  2  0
 30 31  1  0
 31 32  1  0
 32 33  1  0
 32 34  2  0
 34 35  1  0
 35 36  2  0
 36  2  1  0
 22  5  1  0
 29 23  1  0
 36 31  1  0
 21  8  2  0
 12 10  1  0
 19 15  1  0
  1 37  1  0
  1 38  1  0
  1 39  1  0
  3 40  1  0
 10 41  1  0
 11 42  1  0
 11 43  1  0
 12 44  1  0
 12 45  1  0
 16 46  1  0
 17 47  1  0
 20 48  1  0
 20 49  1  0
 20 50  1  0
 22 51  1  0
 24 52  1  0
 25 53  1  0
 28 54  1  0
 29 55  1  0
 33 56  1  0
 33 57  1  0
 33 58  1  0
M  END
$$$$
