
     RDKit          3D

 45 46  0  0  0  0  0  0  0  0999 V2000
   -5.4063    2.3992   -1.6710 C   0  0  0  0  0  0  0  0  0  0  0  0
   -4.9214    1.2500   -1.0171 O   0  0  0  0  0  0  0  0  0  0  0  0
   -3.6835    0.8785   -0.6812 C   0  0  0  0  0  0  0  0  0  0  0  0
   -2.4894    1.4981   -0.9093 C   0  0  0  0  0  0  0  0  0  0  0  0
   -1.2440    0.9679   -0.4936 C   0  0  0  0  0  0  0  0  0  0  0  0
   -0.0616    1.7716   -0.8000 C   0  0  0  0  0  0  0  0  0  0  0  0
   -0.1330    2.9719   -0.0524 O   0  0  0  0  0  0  0  0  0  0  0  0
    1.1886    1.0777   -0.6256 C   0  0  0  0  0  0  0  0  0  0  0  0
    2.2544    0.4977   -0.4585 C   0  0  0  0  0  0  0  0  0  0  0  0
    3.5086   -0.1834   -0.2366 C   0  0  0  0  0  0  0  0  0  0  0  0
    4.6702    0.2044   -0.8667 C   0  0  0  0  0  0  0  0  0  0  0  0
    4.6772    1.2662   -1.9035 C   0  0  0  0  0  0  0  0  0  0  0  0
    5.8955   -0.3710   -0.5850 N   0  0  0  0  0  0  0  0  0  0  0  0
    5.9493   -1.3362    0.3348 C   0  0  0  0  0  0  0  0  0  0  0  0
    7.2204   -1.9278    0.7090 N   0  0  0  0  0  0  0  0  0  0  0  0
    4.8432   -1.7668    0.9845 N   0  0  0  0  0  0  0  0  0  0  0  0
    3.6507   -1.2089    0.7067 C   0  0  0  0  0  0  0  0  0  0  0  0
    2.4661   -1.6404    1.3584 N   0  0  0  0  0  0  0  0  0  0  0  0
   -1.2751   -0.2120    0.1612 C   0  0  0  0  0  0  0  0  0  0  0  0
   -2.4565   -0.9063    0.4339 C   0  0  0  0  0  0  0  0  0  0  0  0
   -2.4362   -2.1063    1.1021 O   0  0  0  0  0  0  0  0  0  0  0  0
   -1.3610   -2.8152    1.5910 C   0  0  0  0  0  0  0  0  0  0  0  0
   -3.6293   -0.3859    0.0291 C   0  0  0  0  0  0  0  0  0  0  0  0
   -4.8322   -1.0183    0.2667 O   0  0  0  0  0  0  0  0  0  0  0  0
   -5.6436   -0.8001    1.4129 C   0  0  0  0  0  0  0  0  0  0  0  0
   -4.8715    2.5987   -2.6046 H   0  0  0  0  0  0  0  0  0  0  0  0
   -5.3669    3.2506   -0.9409 H   0  0  0  0  0  0  0  0  0  0  0  0
   -6.5049    2.2757   -1.8927 H   0  0  0  0  0  0  0  0  0  0  0  0
   -2.5137    2.4308   -1.4395 H   0  0  0  0  0  0  0  0  0  0  0  0
   -0.1325    2.1570   -1.8749 H   0  0  0  0  0  0  0  0  0  0  0  0
    0.3085    2.7028    0.8230 H   0  0  0  0  0  0  0  0  0  0  0  0
    4.6597    2.2472   -1.3726 H   0  0  0  0  0  0  0  0  0  0  0  0
    5.5920    1.2406   -2.5093 H   0  0  0  0  0  0  0  0  0  0  0  0
    3.7574    1.1963   -2.5400 H   0  0  0  0  0  0  0  0  0  0  0  0
    7.9224   -1.2681    1.0750 H   0  0  0  0  0  0  0  0  0  0  0  0
    7.4038   -2.9473    0.6189 H   0  0  0  0  0  0  0  0  0  0  0  0
    1.9244   -2.5033    1.1204 H   0  0  0  0  0  0  0  0  0  0  0  0
    2.0914   -1.0593    2.1374 H   0  0  0  0  0  0  0  0  0  0  0  0
   -0.3399   -0.6448    0.4838 H   0  0  0  0  0  0  0  0  0  0  0  0
   -0.4457   -2.6164    0.9620 H   0  0  0  0  0  0  0  0  0  0  0  0
   -1.5531   -3.9121    1.4424 H   0  0  0  0  0  0  0  0  0  0  0  0
   -1.0984   -2.6752    2.6489 H   0  0  0  0  0  0  0  0  0  0  0  0
   -6.5836   -1.3272    1.2530 H   0  0  0  0  0  0  0  0  0  0  0  0
   -5.1187   -1.1449    2.2985 H   0  0  0  0  0  0  0  0  0  0  0  0
   -5.8817    0.2990    1.5215 H   0  0  0  0  0  0  0  0  0  0  0  0
  1  2  1  0
  2  3  1  0
  3  4  2  0
  4  5  1  0
  5  6  1  0
  6  7  1  0
  6  8  1  0
  8  9  3  0
  9 10  1  0
 10 11  2  0
 11 12  1  0
 11 13  1  0
 13 14  2  0
 14 15  1  0
 14 16  1  0
 16 17  2  0
 17 18  1  0
  5 19  2  0
 19 20  1  0
 20 21  1  0
 21 22  1  0
 20 23  2  0
 23 24  1  0
 24 25  1  0
 23  3  1  0
 17 10  1  0
  1 26  1  0
  1 27  1  0
  1 28  1  0
  4 29  1  0
  6 30  1  0
  7 31  1  0
 12 32  1  0
 12 33  1  0
 12 34  1  0
 15 35  1  0
 15 36  1  0
 18 37  1  0
 18 38  1  0
 19 39  1  0
 22 40  1  0
 22 41  1  0
 22 42  1  0
 25 43  1  0
 25 44  1  0
 25 45  1  0
M  END
$$$$
