
     RDKit          3D

 54 58  0  0  0  0  0  0  0  0999 V2000
   -7.0936    0.6851    1.1513 C   0  0  0  0  0  0  0  0  0  0  0  0
   -7.1845   -0.0230   -0.0650 O   0  0  0  0  0  0  0  0  0  0  0  0
   -6.0128   -0.3769   -0.7153 C   0  0  0  0  0  0  0  0  0  0  0  0
   -6.0450   -1.0759   -1.9181 C   0  0  0  0  0  0  0  0  0  0  0  0
   -4.8638   -1.3930   -2.5039 C   0  0  0  0  0  0  0  0  0  0  0  0
   -4.8742   -2.0846   -3.6941 F   0  0  0  0  0  0  0  0  0  0  0  0
   -3.6358   -1.0292   -1.9191 C   0  0  0  0  0  0  0  0  0  0  0  0
   -3.5700   -0.3470   -0.7498 C   0  0  0  0  0  0  0  0  0  0  0  0
   -4.8055   -0.0276   -0.1558 C   0  0  0  0  0  0  0  0  0  0  0  0
   -2.3237    0.0855   -0.0922 C   0  0  0  0  0  0  0  0  0  0  0  0
   -2.2518    1.5831    0.0151 C   0  0  0  0  0  0  0  0  0  0  0  0
   -2.5392    2.2465    1.3017 C   0  0  0  0  0  0  0  0  0  0  0  0
   -1.6436    1.3958    2.6298 S   0  0  0  0  0  0  0  0  0  0  0  0
   -1.9896   -0.3417    2.3205 C   0  0  0  0  0  0  0  0  0  0  0  0
   -1.9678   -1.2841    3.3955 N   0  0  0  0  0  0  0  0  0  0  0  0
   -2.2425   -0.6507    1.1298 N   0  0  0  0  0  0  0  0  0  0  0  0
   -1.1264   -0.3963   -0.8888 C   0  0  0  0  0  0  0  0  0  0  0  0
    0.1263   -0.0889   -0.3802 C   0  0  0  0  0  0  0  0  0  0  0  0
    1.2637   -0.4801   -1.0702 C   0  0  0  0  0  0  0  0  0  0  0  0
    2.5163   -0.1397   -0.5049 N   0  0  0  0  0  0  0  0  0  0  0  0
    3.8032   -0.4172   -1.0016 C   0  0  0  0  0  0  0  0  0  0  0  0
    3.9283   -1.0398   -2.0731 O   0  0  0  0  0  0  0  0  0  0  0  0
    5.0155    0.0265   -0.2581 C   0  0  0  0  0  0  0  0  0  0  0  0
    6.2507   -0.2593   -0.7684 C   0  0  0  0  0  0  0  0  0  0  0  0
    7.3602    0.1256   -0.1243 N   0  0  0  0  0  0  0  0  0  0  0  0
    7.3008    0.8001    1.0353 C   0  0  0  0  0  0  0  0  0  0  0  0
    8.4767    1.1731    1.6579 O   0  0  0  0  0  0  0  0  0  0  0  0
    9.7413    0.8652    1.1092 C   0  0  0  0  0  0  0  0  0  0  0  0
    6.0613    1.0921    1.5562 C   0  0  0  0  0  0  0  0  0  0  0  0
    4.9312    0.6984    0.8974 N   0  0  0  0  0  0  0  0  0  0  0  0
    1.1286   -1.1675   -2.2490 C   0  0  0  0  0  0  0  0  0  0  0  0
   -0.1240   -1.4581   -2.7282 C   0  0  0  0  0  0  0  0  0  0  0  0
   -1.2919   -1.0712   -2.0443 C   0  0  0  0  0  0  0  0  0  0  0  0
   -2.5104   -1.4267   -2.6290 O   0  0  0  0  0  0  0  0  0  0  0  0
   -8.0708    1.0365    1.5141 H   0  0  0  0  0  0  0  0  0  0  0  0
   -6.4682    1.5951    1.0001 H   0  0  0  0  0  0  0  0  0  0  0  0
   -6.6275    0.0583    1.9658 H   0  0  0  0  0  0  0  0  0  0  0  0
   -7.0237   -1.3208   -2.3071 H   0  0  0  0  0  0  0  0  0  0  0  0
   -4.7537    0.4989    0.7715 H   0  0  0  0  0  0  0  0  0  0  0  0
   -1.2333    1.9621   -0.3148 H   0  0  0  0  0  0  0  0  0  0  0  0
   -2.9420    2.0094   -0.7680 H   0  0  0  0  0  0  0  0  0  0  0  0
   -2.1338    3.2998    1.2388 H   0  0  0  0  0  0  0  0  0  0  0  0
   -3.5972    2.2776    1.6300 H   0  0  0  0  0  0  0  0  0  0  0  0
   -1.3477   -1.1017    4.1908 H   0  0  0  0  0  0  0  0  0  0  0  0
   -2.5713   -2.1097    3.3368 H   0  0  0  0  0  0  0  0  0  0  0  0
    0.1714    0.4473    0.5381 H   0  0  0  0  0  0  0  0  0  0  0  0
    2.4889    0.3977    0.4189 H   0  0  0  0  0  0  0  0  0  0  0  0
    6.3240   -0.7969   -1.6930 H   0  0  0  0  0  0  0  0  0  0  0  0
   10.5451    0.8858    1.8541 H   0  0  0  0  0  0  0  0  0  0  0  0
    9.6927   -0.1999    0.7365 H   0  0  0  0  0  0  0  0  0  0  0  0
    9.9598    1.4692    0.2050 H   0  0  0  0  0  0  0  0  0  0  0  0
    6.0045    1.6351    2.4900 H   0  0  0  0  0  0  0  0  0  0  0  0
    2.0030   -1.4893   -2.8162 H   0  0  0  0  0  0  0  0  0  0  0  0
   -0.2284   -2.0000   -3.6575 H   0  0  0  0  0  0  0  0  0  0  0  0
  1  2  1  0
  2  3  1  0
  3  4  2  0
  4  5  1  0
  5  6  1  0
  5  7  2  0
  7  8  1  0
  8  9  2  0
  8 10  1  0
 10 11  1  0
 11 12  1  0
 12 13  1  0
 13 14  1  0
 14 15  1  0
 14 16  2  0
 10 17  1  0
 17 18  2  0
 18 19  1  0
 19 20  1  0
 20 21  1  0
 21 22  2  0
 21 23  1  0
 23 24  2  0
 24 25  1  0
 25 26  2  0
 26 27  1  0
 27 28  1  0
 26 29  1  0
 29 30  2  0
 19 31  2  0
 31 32  1  0
 32 33  2  0
 33 34  1  0
  9  3  1  0
 16 10  1  0
 33 17  1  0
 34  7  1  0
 30 23  1  0
  1 35  1  0
  1 36  1  0
  1 37  1  0
  4 38  1  0
  9 39  1  0
 11 40  1  0
 11 41  1  0
 12 42  1  0
 12 43  1  0
 15 44  1  0
 15 45  1  0
 18 46  1  0
 20 47  1  0
 24 48  1  0
 28 49  1  0
 28 50  1  0
 28 51  1  0
 29 52  1  0
 31 53  1  0
 32 54  1  0
M  END
$$$$
