
     RDKit          3D

 67 70  0  0  0  0  0  0  0  0999 V2000
  -11.2247   -1.1947   -0.3889 C   0  0  0  0  0  0  0  0  0  0  0  0
  -10.2767   -0.8813   -1.4763 C   0  0  0  0  0  0  0  0  0  0  0  0
   -9.4969   -0.6010   -2.3846 C   0  0  0  0  0  0  0  0  0  0  0  0
   -8.5775   -0.2901   -3.4239 C   0  0  0  0  0  0  0  0  0  0  0  0
   -9.0451   -0.0508   -4.7289 C   0  0  0  0  0  0  0  0  0  0  0  0
   -8.2225    0.2875   -5.7622 C   0  0  0  0  0  0  0  0  0  0  0  0
   -6.8702    0.4053   -5.5376 C   0  0  0  0  0  0  0  0  0  0  0  0
   -6.3808    0.1800   -4.2876 C   0  0  0  0  0  0  0  0  0  0  0  0
   -5.1335    0.2303   -3.8281 O   0  0  0  0  0  0  0  0  0  0  0  0
   -5.1278   -0.0627   -2.5521 C   0  0  0  0  0  0  0  0  0  0  0  0
   -3.8702   -0.0801   -1.7818 C   0  0  0  0  0  0  0  0  0  0  0  0
   -3.8842   -0.6437   -0.6685 O   0  0  0  0  0  0  0  0  0  0  0  0
   -2.6910    0.5050   -2.2495 N   0  0  0  0  0  0  0  0  0  0  0  0
   -1.4401    0.5396   -1.5956 C   0  0  0  0  0  0  0  0  0  0  0  0
   -0.3901   -0.2917   -1.8082 C   0  0  0  0  0  0  0  0  0  0  0  0
    0.7904   -0.1677   -1.0975 C   0  0  0  0  0  0  0  0  0  0  0  0
    0.9719    0.7952   -0.1400 C   0  0  0  0  0  0  0  0  0  0  0  0
    2.2141    0.9859    0.6070 C   0  0  0  0  0  0  0  0  0  0  0  0
    3.4511    0.7488    0.0690 C   0  0  0  0  0  0  0  0  0  0  0  0
    4.5834    0.9753    0.8502 C   0  0  0  0  0  0  0  0  0  0  0  0
    4.5322    1.4300    2.1513 C   0  0  0  0  0  0  0  0  0  0  0  0
    5.9334    1.7591    3.1304 S   0  0  0  0  0  6  0  0  0  0  0  0
    5.4699    2.6769    4.2598 O   0  0  0  0  0  0  0  0  0  0  0  0
    6.9106    2.4947    2.2511 O   0  0  0  0  0  0  0  0  0  0  0  0
    6.6377    0.4041    3.8604 N   0  0  0  0  0  0  0  0  0  0  0  0
    7.1398   -0.6024    2.9852 C   0  0  2  0  0  0  0  0  0  0  0  0
    6.5390   -1.9483    3.2955 C   0  0  0  0  0  0  0  0  0  0  0  0
    5.7323   -2.0577    4.2702 O   0  0  0  0  0  0  0  0  0  0  0  0
    6.8482   -3.0615    2.5412 O   0  0  0  0  0  0  0  0  0  0  0  0
    8.6518   -0.7746    3.1288 C   0  0  0  0  0  0  0  0  0  0  0  0
    9.3676    0.5328    2.7991 C   0  0  0  0  0  0  0  0  0  0  0  0
    9.0960   -1.7746    2.0911 C   0  0  0  0  0  0  0  0  0  0  0  0
    3.2666    1.6544    2.6559 C   0  0  0  0  0  0  0  0  0  0  0  0
    2.1257    1.4401    1.9079 C   0  0  0  0  0  0  0  0  0  0  0  0
   -0.1004    1.6599    0.0939 C   0  0  0  0  0  0  0  0  0  0  0  0
   -1.2694    1.5343   -0.6136 C   0  0  0  0  0  0  0  0  0  0  0  0
   -6.4131   -0.3153   -2.1493 C   0  0  0  0  0  0  0  0  0  0  0  0
   -6.8290   -0.6643   -0.7802 C   0  0  0  0  0  0  0  0  0  0  0  0
   -7.2200   -0.1640   -3.2415 C   0  0  0  0  0  0  0  0  0  0  0  0
  -11.9917   -0.3873   -0.3216 H   0  0  0  0  0  0  0  0  0  0  0  0
  -10.7051   -1.3854    0.5537 H   0  0  0  0  0  0  0  0  0  0  0  0
  -11.8131   -2.1181   -0.6340 H   0  0  0  0  0  0  0  0  0  0  0  0
  -10.1336   -0.1597   -4.8484 H   0  0  0  0  0  0  0  0  0  0  0  0
   -8.6151    0.4641   -6.7505 H   0  0  0  0  0  0  0  0  0  0  0  0
   -6.1689    0.6733   -6.3270 H   0  0  0  0  0  0  0  0  0  0  0  0
   -2.7397    0.9767   -3.2021 H   0  0  0  0  0  0  0  0  0  0  0  0
   -0.4917   -1.0697   -2.5570 H   0  0  0  0  0  0  0  0  0  0  0  0
    1.6254   -0.8464   -1.2838 H   0  0  0  0  0  0  0  0  0  0  0  0
    3.5184    0.3925   -0.9497 H   0  0  0  0  0  0  0  0  0  0  0  0
    5.5442    0.7858    0.4122 H   0  0  0  0  0  0  0  0  0  0  0  0
    6.2377    0.0437    4.7175 H   0  0  0  0  0  0  0  0  0  0  0  0
    6.9743   -0.3452    1.9339 H   0  0  0  0  0  0  0  0  0  0  0  0
    6.1433   -3.7517    2.3406 H   0  0  0  0  0  0  0  0  0  0  0  0
    8.9205   -1.1401    4.1374 H   0  0  0  0  0  0  0  0  0  0  0  0
    9.0983    0.8510    1.7710 H   0  0  0  0  0  0  0  0  0  0  0  0
   10.4586    0.2973    2.7885 H   0  0  0  0  0  0  0  0  0  0  0  0
    9.1859    1.3072    3.5617 H   0  0  0  0  0  0  0  0  0  0  0  0
   10.1003   -1.5139    1.6908 H   0  0  0  0  0  0  0  0  0  0  0  0
    9.1336   -2.7752    2.5736 H   0  0  0  0  0  0  0  0  0  0  0  0
    8.3646   -1.7873    1.2644 H   0  0  0  0  0  0  0  0  0  0  0  0
    3.1259    2.0108    3.6688 H   0  0  0  0  0  0  0  0  0  0  0  0
    1.1495    1.6198    2.3238 H   0  0  0  0  0  0  0  0  0  0  0  0
    0.0248    2.4308    0.8535 H   0  0  0  0  0  0  0  0  0  0  0  0
   -2.0996    2.2134   -0.4277 H   0  0  0  0  0  0  0  0  0  0  0  0
   -7.8210   -0.3424   -0.4800 H   0  0  0  0  0  0  0  0  0  0  0  0
   -6.7695   -1.7798   -0.6870 H   0  0  0  0  0  0  0  0  0  0  0  0
   -6.0551   -0.2770   -0.0528 H   0  0  0  0  0  0  0  0  0  0  0  0
  1  2  1  0
  2  3  3  0
  3  4  1  0
  4  5  2  0
  5  6  1  0
  6  7  2  0
  7  8  1  0
  8  9  1  0
  9 10  1  0
 10 11  1  0
 11 12  2  0
 11 13  1  0
 13 14  1  0
 14 15  2  0
 15 16  1  0
 16 17  2  0
 17 18  1  0
 18 19  2  0
 19 20  1  0
 20 21  2  0
 21 22  1  0
 22 23  2  0
 22 24  2  0
 22 25  1  0
 25 26  1  0
 26 27  1  0
 27 28  2  0
 27 29  1  0
 26 30  1  0
 30 31  1  0
 30 32  1  0
 21 33  1  0
 33 34  2  0
 17 35  1  0
 35 36  2  0
 10 37  2  0
 37 38  1  0
 37 39  1  0
 39  4  1  0
 39  8  2  0
 36 14  1  0
 34 18  1  0
  1 40  1  0
  1 41  1  0
  1 42  1  0
  5 43  1  0
  6 44  1  0
  7 45  1  0
 13 46  1  0
 15 47  1  0
 16 48  1  0
 19 49  1  0
 20 50  1  0
 25 51  1  0
 26 52  1  6
 29 53  1  0
 30 54  1  0
 31 55  1  0
 31 56  1  0
 31 57  1  0
 32 58  1  0
 32 59  1  0
 32 60  1  0
 33 61  1  0
 34 62  1  0
 35 63  1  0
 36 64  1  0
 38 65  1  0
 38 66  1  0
 38 67  1  0
M  END
$$$$
