
     RDKit          3D

  9  8  0  0  0  0  0  0  0  0999 V2000
    0.8745    0.0295   -0.0450 C   0  0  0  0  0  0  0  0  0  0  0  0
   -0.5387   -0.5444   -0.0256 C   0  0  0  0  0  0  0  0  0  0  0  0
   -1.3784    0.5479    0.4172 N   0  0  0  0  0  0  0  0  0  0  0  0
   -1.1517    1.6327   -0.0467 O   0  0  0  0  0  0  0  0  0  0  0  0
    0.9628    0.5336    0.9508 H   0  0  0  0  0  0  0  0  0  0  0  0
    0.9977    0.8208   -0.7964 H   0  0  0  0  0  0  0  0  0  0  0  0
    1.6441   -0.7533   -0.1110 H   0  0  0  0  0  0  0  0  0  0  0  0
   -0.5442   -1.3881    0.6758 H   0  0  0  0  0  0  0  0  0  0  0  0
   -0.8660   -0.8787   -1.0192 H   0  0  0  0  0  0  0  0  0  0  0  0
  1  2  1  0
  2  3  1  0
  3  4  2  0
  1  5  1  0
  1  6  1  0
  1  7  1  0
  2  8  1  0
  2  9  1  0
M  END
$$$$
