
     RDKit          3D

 53 54  0  0  0  0  0  0  0  0999 V2000
   -6.0457    0.2000    0.0312 C   0  0  0  0  0  0  0  0  0  0  0  0
   -5.1989   -0.2436    1.1773 C   0  0  0  0  0  0  0  0  0  0  0  0
   -5.1758   -1.7602    1.2364 C   0  0  0  0  0  0  0  0  0  0  0  0
   -3.8346    0.3310    1.0958 C   0  0  0  0  0  0  0  0  0  0  0  0
   -3.0677   -0.0584   -0.1410 C   0  0  2  0  0  0  0  0  0  0  0  0
   -1.7540    0.6086   -0.0014 N   0  0  0  0  0  0  0  0  0  0  0  0
   -0.5696   -0.1236    0.1190 C   0  0  0  0  0  0  0  0  0  0  0  0
   -0.3208   -1.3579    0.1399 O   0  0  0  0  0  0  0  0  0  0  0  0
    0.7734    0.4914    0.2614 C   0  0  2  0  0  0  0  0  0  0  0  0
    0.9795    1.3304   -0.9996 C   0  0  0  0  0  0  0  0  0  0  0  0
    2.2835    2.0175   -1.0165 C   0  0  0  0  0  0  0  0  0  0  0  0
    2.4858    3.2900   -0.4940 C   0  0  0  0  0  0  0  0  0  0  0  0
    3.7360    3.8885   -0.5375 C   0  0  0  0  0  0  0  0  0  0  0  0
    4.8198    3.2413   -1.1003 C   0  0  0  0  0  0  0  0  0  0  0  0
    4.5614    1.9841   -1.6019 C   0  0  0  0  0  0  0  0  0  0  0  0
    3.3446    1.3199   -1.5965 C   0  0  0  0  0  0  0  0  0  0  0  0
    1.7726   -0.5490    0.3613 N   0  0  0  0  0  0  0  0  0  0  0  0
    2.7461   -0.8350    1.3678 C   0  0  0  0  0  0  0  0  0  0  0  0
    2.7877   -0.0812    2.3681 O   0  0  0  0  0  0  0  0  0  0  0  0
    3.6149   -1.9892    1.1427 C   0  0  0  0  0  0  0  0  0  0  0  0
    4.5409   -2.2403    2.1262 C   0  0  0  0  0  0  0  0  0  0  0  0
    5.3804   -3.2751    2.0092 N   0  0  0  0  0  0  0  0  0  0  0  0
    5.3721   -4.1085    0.9560 C   0  0  0  0  0  0  0  0  0  0  0  0
    4.4328   -3.8471   -0.0332 C   0  0  0  0  0  0  0  0  0  0  0  0
    3.5863   -2.8132    0.0728 N   0  0  0  0  0  0  0  0  0  0  0  0
   -3.7502    0.4115   -1.4879 B   0  0  0  0  0  0  0  0  0  0  0  0
   -3.8812   -0.5751   -2.5631 O   0  0  0  0  0  0  0  0  0  0  0  0
   -3.6127    1.8424   -1.8308 O   0  0  0  0  0  0  0  0  0  0  0  0
   -7.1133    0.1410    0.3886 H   0  0  0  0  0  0  0  0  0  0  0  0
   -5.7947    1.2295   -0.2809 H   0  0  0  0  0  0  0  0  0  0  0  0
   -5.9960   -0.4850   -0.8143 H   0  0  0  0  0  0  0  0  0  0  0  0
   -5.6571    0.0978    2.1407 H   0  0  0  0  0  0  0  0  0  0  0  0
   -5.1175   -2.2102    0.2369 H   0  0  0  0  0  0  0  0  0  0  0  0
   -4.3112   -2.0887    1.8548 H   0  0  0  0  0  0  0  0  0  0  0  0
   -6.1185   -2.0924    1.7479 H   0  0  0  0  0  0  0  0  0  0  0  0
   -3.9334    1.4416    1.0953 H   0  0  0  0  0  0  0  0  0  0  0  0
   -3.2710    0.0524    2.0264 H   0  0  0  0  0  0  0  0  0  0  0  0
   -2.8877   -1.1534   -0.1266 H   0  0  0  0  0  0  0  0  0  0  0  0
   -1.6773    1.6399    0.0108 H   0  0  0  0  0  0  0  0  0  0  0  0
    0.7837    1.1772    1.1332 H   0  0  0  0  0  0  0  0  0  0  0  0
    0.7980    0.7227   -1.8993 H   0  0  0  0  0  0  0  0  0  0  0  0
    0.1952    2.1252   -0.9765 H   0  0  0  0  0  0  0  0  0  0  0  0
    1.6419    3.8134   -0.0469 H   0  0  0  0  0  0  0  0  0  0  0  0
    3.9188    4.8806   -0.1363 H   0  0  0  0  0  0  0  0  0  0  0  0
    5.8249    3.6435   -1.1708 H   0  0  0  0  0  0  0  0  0  0  0  0
    5.3913    1.4334   -2.0578 H   0  0  0  0  0  0  0  0  0  0  0  0
    3.2543    0.3323   -2.0187 H   0  0  0  0  0  0  0  0  0  0  0  0
    1.6849   -1.1472   -0.5092 H   0  0  0  0  0  0  0  0  0  0  0  0
    4.6792   -1.6739    3.0277 H   0  0  0  0  0  0  0  0  0  0  0  0
    6.0755   -4.9438    0.8977 H   0  0  0  0  0  0  0  0  0  0  0  0
    4.3867   -4.4788   -0.8872 H   0  0  0  0  0  0  0  0  0  0  0  0
   -3.8855   -1.4709   -2.1897 H   0  0  0  0  0  0  0  0  0  0  0  0
   -2.8775    1.9146   -2.5071 H   0  0  0  0  0  0  0  0  0  0  0  0
  1  2  1  0
  2  3  1  0
  2  4  1  0
  4  5  1  0
  5  6  1  0
  6  7  1  0
  7  8  2  0
  7  9  1  0
  9 10  1  0
 10 11  1  0
 11 12  2  0
 12 13  1  0
 13 14  2  0
 14 15  1  0
 15 16  2  0
  9 17  1  0
 17 18  1  0
 18 19  2  0
 18 20  1  0
 20 21  2  0
 21 22  1  0
 22 23  2  0
 23 24  1  0
 24 25  2  0
  5 26  1  0
 26 27  1  0
 26 28  1  0
 16 11  1  0
 25 20  1  0
  1 29  1  0
  1 30  1  0
  1 31  1  0
  2 32  1  0
  3 33  1  0
  3 34  1  0
  3 35  1  0
  4 36  1  0
  4 37  1  0
  5 38  1  6
  6 39  1  0
  9 40  1  1
 10 41  1  0
 10 42  1  0
 12 43  1  0
 13 44  1  0
 14 45  1  0
 15 46  1  0
 16 47  1  0
 17 48  1  0
 21 49  1  0
 23 50  1  0
 24 51  1  0
 27 52  1  0
 28 53  1  0
M  END
$$$$
