
     RDKit          3D

 40 41  0  0  0  0  0  0  0  0999 V2000
    0.2923    0.9086    0.9766 O   0  0  0  0  0  0  0  0  0  0  0  0
   -0.2052   -0.2367    0.8329 C   0  0  0  0  0  0  0  0  0  0  0  0
   -1.5408   -0.3468    0.3628 N   0  0  0  0  0  0  0  0  0  0  0  0
   -2.2765    0.7670    0.0705 O   0  0  0  0  0  0  0  0  0  0  0  0
   -3.5423    0.4533   -0.3691 C   0  0  0  0  0  0  0  0  0  0  0  0
   -4.2740    1.7273   -0.6648 C   0  0  2  0  0  0  0  0  0  0  0  0
   -4.3738    2.5268    0.4636 O   0  0  0  0  0  0  0  0  0  0  0  0
   -5.6433    1.4188   -1.2258 C   0  0  0  0  0  0  0  0  0  0  0  0
   -5.5438    0.6250   -2.3462 O   0  0  0  0  0  0  0  0  0  0  0  0
    0.5310   -1.4543    1.1284 C   0  0  0  0  0  0  0  0  0  0  0  0
    0.0107   -2.7164    0.9800 C   0  0  0  0  0  0  0  0  0  0  0  0
    0.7691   -3.8548    1.2810 C   0  0  0  0  0  0  0  0  0  0  0  0
    2.0637   -3.7366    1.7363 C   0  0  0  0  0  0  0  0  0  0  0  0
    2.8387   -4.8190    2.0416 F   0  0  0  0  0  0  0  0  0  0  0  0
    2.6077   -2.4816    1.8932 C   0  0  0  0  0  0  0  0  0  0  0  0
    3.9002   -2.3636    2.3477 F   0  0  0  0  0  0  0  0  0  0  0  0
    1.8514   -1.3835    1.5941 C   0  0  0  0  0  0  0  0  0  0  0  0
    2.4161   -0.1139    1.7580 N   0  0  0  0  0  0  0  0  0  0  0  0
    3.1275    0.5627    0.7301 C   0  0  0  0  0  0  0  0  0  0  0  0
    3.3093   -0.0082   -0.5284 C   0  0  0  0  0  0  0  0  0  0  0  0
    3.9930    0.6256   -1.5386 C   0  0  0  0  0  0  0  0  0  0  0  0
    4.5326    1.8823   -1.3235 C   0  0  0  0  0  0  0  0  0  0  0  0
    5.5768    2.8243   -2.9013 I   0  0  0  0  0  0  0  0  0  0  0  0
    4.3731    2.4689   -0.1048 C   0  0  0  0  0  0  0  0  0  0  0  0
    3.6787    1.8135    0.9056 C   0  0  0  0  0  0  0  0  0  0  0  0
    3.5336    2.4164    2.1070 F   0  0  0  0  0  0  0  0  0  0  0  0
   -2.0436   -1.2440    0.2102 H   0  0  0  0  0  0  0  0  0  0  0  0
   -4.0931   -0.0699    0.4489 H   0  0  0  0  0  0  0  0  0  0  0  0
   -3.5342   -0.1942   -1.2626 H   0  0  0  0  0  0  0  0  0  0  0  0
   -3.7160    2.2633   -1.4701 H   0  0  0  0  0  0  0  0  0  0  0  0
   -3.9039    3.3836    0.3287 H   0  0  0  0  0  0  0  0  0  0  0  0
   -6.0669    2.4033   -1.5654 H   0  0  0  0  0  0  0  0  0  0  0  0
   -6.3129    1.0130   -0.4446 H   0  0  0  0  0  0  0  0  0  0  0  0
   -5.7951   -0.3109   -2.2037 H   0  0  0  0  0  0  0  0  0  0  0  0
   -0.9915   -2.8747    0.6295 H   0  0  0  0  0  0  0  0  0  0  0  0
    0.3356   -4.8348    1.1554 H   0  0  0  0  0  0  0  0  0  0  0  0
    2.3175    0.3702    2.6738 H   0  0  0  0  0  0  0  0  0  0  0  0
    2.9052   -0.9795   -0.7297 H   0  0  0  0  0  0  0  0  0  0  0  0
    4.1014    0.1290   -2.4979 H   0  0  0  0  0  0  0  0  0  0  0  0
    4.7918    3.4405    0.0573 H   0  0  0  0  0  0  0  0  0  0  0  0
  1  2  2  0
  2  3  1  0
  3  4  1  0
  4  5  1  0
  5  6  1  0
  6  7  1  0
  6  8  1  0
  8  9  1  0
  2 10  1  0
 10 11  2  0
 11 12  1  0
 12 13  2  0
 13 14  1  0
 13 15  1  0
 15 16  1  0
 15 17  2  0
 17 18  1  0
 18 19  1  0
 19 20  2  0
 20 21  1  0
 21 22  2  0
 22 23  1  0
 22 24  1  0
 24 25  2  0
 25 26  1  0
 17 10  1  0
 25 19  1  0
  3 27  1  0
  5 28  1  0
  5 29  1  0
  6 30  1  6
  7 31  1  0
  8 32  1  0
  8 33  1  0
  9 34  1  0
 11 35  1  0
 12 36  1  0
 18 37  1  0
 20 38  1  0
 21 39  1  0
 24 40  1  0
M  END
$$$$
