
     RDKit          3D

 33 34  0  0  0  0  0  0  0  0999 V2000
    4.8486    2.1222   -0.1638 C   0  0  0  0  0  0  0  0  0  0  0  0
    3.5163    1.9781   -0.5621 O   0  0  0  0  0  0  0  0  0  0  0  0
    2.7511    0.8519   -0.3739 C   0  0  0  0  0  0  0  0  0  0  0  0
    3.2212   -0.2874    0.2410 C   0  0  0  0  0  0  0  0  0  0  0  0
    2.4020   -1.3696    0.3944 C   0  0  0  0  0  0  0  0  0  0  0  0
    1.0661   -1.3691   -0.0594 C   0  0  0  0  0  0  0  0  0  0  0  0
    0.3152   -2.5337    0.1452 N   0  0  0  0  0  4  0  0  0  0  0  0
    0.9266   -3.6438    0.1526 O   0  0  0  0  0  0  0  0  0  0  0  0
   -1.0120   -2.5467    0.3282 O   0  0  0  0  0  1  0  0  0  0  0  0
    0.5764   -0.2594   -0.6704 C   0  0  0  0  0  0  0  0  0  0  0  0
   -0.7044   -0.0949   -1.2008 N   0  0  0  0  0  0  0  0  0  0  0  0
   -2.0226   -0.2567   -0.7783 C   0  0  0  0  0  0  0  0  0  0  0  0
   -2.8514   -1.1045   -1.5890 C   0  0  0  0  0  0  0  0  0  0  0  0
   -4.1502   -1.3415   -1.2874 C   0  0  0  0  0  0  0  0  0  0  0  0
   -4.6598   -0.7372   -0.1655 C   0  0  0  0  0  0  0  0  0  0  0  0
   -3.8951    0.0761    0.6266 C   0  0  0  0  0  0  0  0  0  0  0  0
   -2.5343    0.3393    0.3326 C   0  0  0  0  0  0  0  0  0  0  0  0
   -1.8369    1.2209    1.2482 C   0  0  0  0  0  0  0  0  0  0  0  0
   -2.4591    1.7069    2.2597 O   0  0  0  0  0  0  0  0  0  0  0  0
   -0.5425    1.6050    1.1497 O   0  0  0  0  0  0  0  0  0  0  0  0
    1.4625    0.8492   -0.8114 C   0  0  0  0  0  0  0  0  0  0  0  0
    5.5201    1.3135   -0.4452 H   0  0  0  0  0  0  0  0  0  0  0  0
    5.2243    3.0994   -0.5383 H   0  0  0  0  0  0  0  0  0  0  0  0
    4.8220    2.2432    0.9575 H   0  0  0  0  0  0  0  0  0  0  0  0
    4.2427   -0.2779    0.5839 H   0  0  0  0  0  0  0  0  0  0  0  0
    2.7620   -2.2667    0.8747 H   0  0  0  0  0  0  0  0  0  0  0  0
   -0.6597    0.2624   -2.2510 H   0  0  0  0  0  0  0  0  0  0  0  0
   -2.3772   -1.5545   -2.4712 H   0  0  0  0  0  0  0  0  0  0  0  0
   -4.7611   -1.9936   -1.9226 H   0  0  0  0  0  0  0  0  0  0  0  0
   -5.6926   -0.8968    0.1154 H   0  0  0  0  0  0  0  0  0  0  0  0
   -4.3146    0.5555    1.5251 H   0  0  0  0  0  0  0  0  0  0  0  0
   -0.2398    2.5696    1.2172 H   0  0  0  0  0  0  0  0  0  0  0  0
    1.0561    1.7408   -1.3067 H   0  0  0  0  0  0  0  0  0  0  0  0
  1  2  1  0
  2  3  1  0
  3  4  2  0
  4  5  1  0
  5  6  2  0
  6  7  1  0
  7  8  2  0
  7  9  1  0
  6 10  1  0
 10 11  1  0
 11 12  1  0
 12 13  2  0
 13 14  1  0
 14 15  2  0
 15 16  1  0
 16 17  2  0
 17 18  1  0
 18 19  2  0
 18 20  1  0
 10 21  2  0
 21  3  1  0
 17 12  1  0
  1 22  1  0
  1 23  1  0
  1 24  1  0
  4 25  1  0
  5 26  1  0
 11 27  1  0
 13 28  1  0
 14 29  1  0
 15 30  1  0
 16 31  1  0
 20 32  1  0
 21 33  1  0
M  CHG  2   7   1   9  -1
M  END
$$$$
