
     RDKit          3D

 65 68  0  0  0  0  0  0  0  0999 V2000
   -8.8601   -1.8847   -3.1596 C   0  0  0  0  0  0  0  0  0  0  0  0
   -9.1883   -2.7272   -1.9534 C   0  0  0  0  0  0  0  0  0  0  0  0
   -8.9181   -2.0997   -0.7289 O   0  0  0  0  0  0  0  0  0  0  0  0
   -7.6432   -1.7075   -0.3802 C   0  0  0  0  0  0  0  0  0  0  0  0
   -6.5400   -1.9007   -1.1788 C   0  0  0  0  0  0  0  0  0  0  0  0
   -5.2529   -1.4924   -0.8053 C   0  0  0  0  0  0  0  0  0  0  0  0
   -5.1122   -0.8837    0.3981 C   0  0  0  0  0  0  0  0  0  0  0  0
   -3.8048   -0.4306    0.8527 C   0  0  0  0  0  0  0  0  0  0  0  0
   -2.5990   -0.4793    0.2987 C   0  0  0  0  0  0  0  0  0  0  0  0
   -1.5289    0.0231    0.9420 C   0  0  0  0  0  0  0  0  0  0  0  0
   -1.7199    0.5832    2.1783 C   0  0  0  0  0  0  0  0  0  0  0  0
   -0.7310    1.3201    3.3729 S   0  0  0  0  0  6  0  0  0  0  0  0
   -0.8121    0.5760    4.7010 O   0  0  0  0  0  0  0  0  0  0  0  0
   -1.3398    2.7052    3.6706 O   0  0  0  0  0  0  0  0  0  0  0  0
    0.8760    1.4827    2.9346 N   0  0  0  0  0  0  0  0  0  0  0  0
    1.0833    2.3011    1.8052 C   0  0  1  0  0  0  0  0  0  0  0  0
    1.4134    3.7070    2.3596 C   0  0  0  0  0  0  0  0  0  0  0  0
    1.4421    3.8759    3.5625 O   0  0  0  0  0  0  0  0  0  0  0  0
    1.6534    4.6743    1.4185 O   0  0  0  0  0  0  0  0  0  0  0  0
    2.2128    2.0073    0.8961 C   0  0  0  0  0  0  0  0  0  0  0  0
    2.2101    0.6627    0.2504 C   0  0  0  0  0  0  0  0  0  0  0  0
    3.5956    0.4385   -0.3692 C   0  0  0  0  0  0  0  0  0  0  0  0
    4.5728    0.1940    0.6737 N   0  0  0  0  0  0  0  0  0  0  0  0
    6.1791    0.4701    0.1198 S   0  0  0  0  0  6  0  0  0  0  0  0
    6.3478    1.8613   -0.4235 O   0  0  0  0  0  0  0  0  0  0  0  0
    7.1893    0.2694    1.1842 O   0  0  0  0  0  0  0  0  0  0  0  0
    6.5265   -0.6404   -1.1965 C   0  0  0  0  0  0  0  0  0  0  0  0
    7.0792   -1.8815   -0.9629 C   0  0  0  0  0  0  0  0  0  0  0  0
    7.3368   -2.7241   -2.0177 C   0  0  0  0  0  0  0  0  0  0  0  0
    7.0676   -2.3901   -3.3222 C   0  0  0  0  0  0  0  0  0  0  0  0
    6.5140   -1.1483   -3.5609 C   0  0  0  0  0  0  0  0  0  0  0  0
    6.2542   -0.3012   -2.5093 C   0  0  0  0  0  0  0  0  0  0  0  0
    4.2654    0.9814    1.8528 C   0  0  0  0  0  0  0  0  0  0  0  0
    3.5615    2.2496    1.5353 C   0  0  0  0  0  0  0  0  0  0  0  0
   -3.5020    0.3607    2.3854 S   0  0  0  0  0  0  0  0  0  0  0  0
   -6.1955   -0.6735    1.2252 C   0  0  0  0  0  0  0  0  0  0  0  0
   -7.4550   -1.0741    0.8571 C   0  0  0  0  0  0  0  0  0  0  0  0
   -8.3983   -0.9174   -2.8649 H   0  0  0  0  0  0  0  0  0  0  0  0
   -9.8135   -1.6081   -3.6624 H   0  0  0  0  0  0  0  0  0  0  0  0
   -8.2637   -2.4114   -3.9267 H   0  0  0  0  0  0  0  0  0  0  0  0
   -8.5238   -3.6355   -1.9775 H   0  0  0  0  0  0  0  0  0  0  0  0
  -10.2515   -3.0353   -2.0311 H   0  0  0  0  0  0  0  0  0  0  0  0
   -6.6953   -2.4013   -2.1350 H   0  0  0  0  0  0  0  0  0  0  0  0
   -4.4237   -1.6593   -1.4510 H   0  0  0  0  0  0  0  0  0  0  0  0
   -2.4741   -0.9450   -0.7172 H   0  0  0  0  0  0  0  0  0  0  0  0
   -0.4814    0.0116    0.5424 H   0  0  0  0  0  0  0  0  0  0  0  0
    1.4606    0.6458    2.9913 H   0  0  0  0  0  0  0  0  0  0  0  0
    0.1471    2.5239    1.2706 H   0  0  0  0  0  0  0  0  0  0  0  0
    1.8740    5.6496    1.6701 H   0  0  0  0  0  0  0  0  0  0  0  0
    2.1504    2.8093    0.0784 H   0  0  0  0  0  0  0  0  0  0  0  0
    2.0486   -0.1294    0.9892 H   0  0  0  0  0  0  0  0  0  0  0  0
    1.4491    0.6729   -0.5700 H   0  0  0  0  0  0  0  0  0  0  0  0
    3.8667    1.3958   -0.8553 H   0  0  0  0  0  0  0  0  0  0  0  0
    3.5193   -0.3424   -1.1204 H   0  0  0  0  0  0  0  0  0  0  0  0
    7.3125   -2.1954    0.0573 H   0  0  0  0  0  0  0  0  0  0  0  0
    7.7756   -3.7102   -1.8387 H   0  0  0  0  0  0  0  0  0  0  0  0
    7.2744   -3.0655   -4.1623 H   0  0  0  0  0  0  0  0  0  0  0  0
    6.2886   -0.8465   -4.5565 H   0  0  0  0  0  0  0  0  0  0  0  0
    5.8124    0.6853   -2.7199 H   0  0  0  0  0  0  0  0  0  0  0  0
    5.2614    1.2516    2.3013 H   0  0  0  0  0  0  0  0  0  0  0  0
    3.7807    0.3235    2.5821 H   0  0  0  0  0  0  0  0  0  0  0  0
    3.3412    2.7420    2.5303 H   0  0  0  0  0  0  0  0  0  0  0  0
    4.1848    2.9893    1.0044 H   0  0  0  0  0  0  0  0  0  0  0  0
   -6.0881   -0.1875    2.1880 H   0  0  0  0  0  0  0  0  0  0  0  0
   -8.3123   -0.9147    1.4973 H   0  0  0  0  0  0  0  0  0  0  0  0
  1  2  1  0
  2  3  1  0
  3  4  1  0
  4  5  2  0
  5  6  1  0
  6  7  2  0
  7  8  1  0
  8  9  2  0
  9 10  1  0
 10 11  2  0
 11 12  1  0
 12 13  2  0
 12 14  2  0
 12 15  1  0
 15 16  1  0
 16 17  1  0
 17 18  2  0
 17 19  1  0
 16 20  1  0
 20 21  1  0
 21 22  1  0
 22 23  1  0
 23 24  1  0
 24 25  2  0
 24 26  2  0
 24 27  1  0
 27 28  2  0
 28 29  1  0
 29 30  2  0
 30 31  1  0
 31 32  2  0
 23 33  1  0
 33 34  1  0
 11 35  1  0
  7 36  1  0
 36 37  2  0
 37  4  1  0
 35  8  1  0
 34 20  1  0
 32 27  1  0
  1 38  1  0
  1 39  1  0
  1 40  1  0
  2 41  1  0
  2 42  1  0
  5 43  1  0
  6 44  1  0
  9 45  1  0
 10 46  1  0
 15 47  1  0
 16 48  1  6
 19 49  1  0
 20 50  1  0
 21 51  1  0
 21 52  1  0
 22 53  1  0
 22 54  1  0
 28 55  1  0
 29 56  1  0
 30 57  1  0
 31 58  1  0
 32 59  1  0
 33 60  1  0
 33 61  1  0
 34 62  1  0
 34 63  1  0
 36 64  1  0
 37 65  1  0
M  END
$$$$
