
     RDKit          3D

 55 59  0  0  0  0  0  0  0  0999 V2000
   -6.4169   -1.5217    1.3161 C   0  0  0  0  0  0  0  0  0  0  0  0
   -5.4417   -0.6022    0.6819 C   0  0  0  0  0  0  0  0  0  0  0  0
   -5.8457    0.3092   -0.2703 C   0  0  0  0  0  0  0  0  0  0  0  0
   -4.8692    1.1433   -0.8249 C   0  0  0  0  0  0  0  0  0  0  0  0
   -3.5466    1.0692   -0.4437 C   0  0  0  0  0  0  0  0  0  0  0  0
   -2.5302    1.9031   -0.9867 N   0  0  0  0  0  0  0  0  0  0  0  0
   -2.3329    3.1253   -0.4665 N   0  0  0  0  0  0  0  0  0  0  0  0
   -1.3361    3.7328   -1.1200 C   0  0  0  0  0  0  0  0  0  0  0  0
   -0.9126    2.8361   -2.0784 C   0  0  0  0  0  0  0  0  0  0  0  0
   -1.6806    1.7252   -1.9538 N   0  0  0  0  0  0  0  0  0  0  0  0
   -3.2017    0.1475    0.5043 C   0  0  0  0  0  0  0  0  0  0  0  0
   -1.8122    0.0583    0.9150 C   0  0  0  0  0  0  0  0  0  0  0  0
   -1.3583    0.7486    1.8769 O   0  0  0  0  0  0  0  0  0  0  0  0
   -0.9515   -0.8241    0.2171 N   0  0  0  0  0  0  0  0  0  0  0  0
   -1.4237   -1.6209   -0.8703 C   0  0  0  0  0  0  0  0  0  0  0  0
   -0.8413   -2.9785   -0.8311 C   0  0  0  0  0  0  0  0  0  0  0  0
   -0.1869   -3.3078    0.2945 O   0  0  0  0  0  0  0  0  0  0  0  0
    0.5795   -2.4214    0.9696 C   0  0  0  0  0  0  0  0  0  0  0  0
    0.4646   -0.9832    0.5513 C   0  0  1  0  0  0  0  0  0  0  0  0
    1.2399   -0.5933   -0.6638 C   0  0  0  0  0  0  0  0  0  0  0  0
    2.7222   -0.6816   -0.5066 C   0  0  0  0  0  0  0  0  0  0  0  0
    3.3964    0.4438   -0.0382 C   0  0  0  0  0  0  0  0  0  0  0  0
    4.7440    0.3941    0.1782 C   0  0  0  0  0  0  0  0  0  0  0  0
    5.3661    1.6019    0.6633 N   0  0  0  0  0  0  0  0  0  0  0  0
    5.0043    2.3333    1.7074 N   0  0  0  0  0  0  0  0  0  0  0  0
    5.8199    3.3838    1.8472 C   0  0  0  0  0  0  0  0  0  0  0  0
    6.7457    3.3037    0.8304 C   0  0  0  0  0  0  0  0  0  0  0  0
    6.4171    2.1899    0.1362 N   0  0  0  0  0  0  0  0  0  0  0  0
    5.4777   -0.7511   -0.0539 C   0  0  0  0  0  0  0  0  0  0  0  0
    4.7933   -1.8482   -0.5165 C   0  0  0  0  0  0  0  0  0  0  0  0
    3.4150   -1.8246   -0.7476 C   0  0  0  0  0  0  0  0  0  0  0  0
    2.6540   -3.2835   -1.4203 Cl  0  0  0  0  0  0  0  0  0  0  0  0
   -4.1213   -0.7117    1.0958 C   0  0  0  0  0  0  0  0  0  0  0  0
   -7.4357   -1.1858    1.0396 H   0  0  0  0  0  0  0  0  0  0  0  0
   -6.2545   -1.4540    2.4189 H   0  0  0  0  0  0  0  0  0  0  0  0
   -6.2180   -2.5727    0.9939 H   0  0  0  0  0  0  0  0  0  0  0  0
   -6.8861    0.3684   -0.5710 H   0  0  0  0  0  0  0  0  0  0  0  0
   -5.1488    1.8796   -1.5829 H   0  0  0  0  0  0  0  0  0  0  0  0
   -0.9512    4.7385   -0.9171 H   0  0  0  0  0  0  0  0  0  0  0  0
   -0.1033    3.0275   -2.7862 H   0  0  0  0  0  0  0  0  0  0  0  0
   -1.0976   -1.1558   -1.8568 H   0  0  0  0  0  0  0  0  0  0  0  0
   -2.5376   -1.6100   -0.9603 H   0  0  0  0  0  0  0  0  0  0  0  0
   -1.7416   -3.6975   -0.9042 H   0  0  0  0  0  0  0  0  0  0  0  0
   -0.2717   -3.2375   -1.7754 H   0  0  0  0  0  0  0  0  0  0  0  0
    1.6316   -2.7222    1.1834 H   0  0  0  0  0  0  0  0  0  0  0  0
    0.1380   -2.4305    2.0441 H   0  0  0  0  0  0  0  0  0  0  0  0
    0.7156   -0.3128    1.4253 H   0  0  0  0  0  0  0  0  0  0  0  0
    0.9986    0.4963   -0.8467 H   0  0  0  0  0  0  0  0  0  0  0  0
    0.9068   -1.1818   -1.5570 H   0  0  0  0  0  0  0  0  0  0  0  0
    2.8111    1.3574    0.1470 H   0  0  0  0  0  0  0  0  0  0  0  0
    5.7854    4.1586    2.5979 H   0  0  0  0  0  0  0  0  0  0  0  0
    7.5513    4.0026    0.6553 H   0  0  0  0  0  0  0  0  0  0  0  0
    6.5527   -0.7582    0.1302 H   0  0  0  0  0  0  0  0  0  0  0  0
    5.3219   -2.7765   -0.7164 H   0  0  0  0  0  0  0  0  0  0  0  0
   -3.7970   -1.4285    1.8456 H   0  0  0  0  0  0  0  0  0  0  0  0
  1  2  1  0
  2  3  2  0
  3  4  1  0
  4  5  2  0
  5  6  1  0
  6  7  1  0
  7  8  2  0
  8  9  1  0
  9 10  2  0
  5 11  1  0
 11 12  1  0
 12 13  2  0
 12 14  1  0
 14 15  1  0
 15 16  1  0
 16 17  1  0
 17 18  1  0
 18 19  1  0
 19 20  1  0
 20 21  1  0
 21 22  2  0
 22 23  1  0
 23 24  1  0
 24 25  1  0
 25 26  2  0
 26 27  1  0
 27 28  2  0
 23 29  2  0
 29 30  1  0
 30 31  2  0
 31 32  1  0
 11 33  2  0
 33  2  1  0
 10  6  1  0
 19 14  1  0
 31 21  1  0
 28 24  1  0
  1 34  1  0
  1 35  1  0
  1 36  1  0
  3 37  1  0
  4 38  1  0
  8 39  1  0
  9 40  1  0
 15 41  1  0
 15 42  1  0
 16 43  1  0
 16 44  1  0
 18 45  1  0
 18 46  1  0
 19 47  1  1
 20 48  1  0
 20 49  1  0
 22 50  1  0
 26 51  1  0
 27 52  1  0
 29 53  1  0
 30 54  1  0
 33 55  1  0
M  END
$$$$
