
     RDKit          3D

 50 50  0  0  0  0  0  0  0  0999 V2000
   -3.1782   -2.7708    0.8260 C   0  0  0  0  0  0  0  0  0  0  0  0
   -3.7435   -1.4397    0.4444 C   0  0  0  0  0  0  0  0  0  0  0  0
   -2.9263   -0.3840    0.1320 C   0  0  0  0  0  0  0  0  0  0  0  0
   -1.5345   -0.7238    0.2283 C   0  0  0  0  0  0  0  0  0  0  0  0
   -0.5205    0.0654    0.0171 C   0  0  0  0  0  0  0  0  0  0  0  0
    0.9013   -0.3661    0.1324 C   0  0  0  0  0  0  0  0  0  0  0  0
    1.2841   -1.7418    0.4838 C   0  0  0  0  0  0  0  0  0  0  0  0
    1.8306    0.5242   -0.1007 C   0  0  0  0  0  0  0  0  0  0  0  0
    3.2591    0.1669   -0.0034 C   0  0  0  0  0  0  0  0  0  0  0  0
    4.1926    1.0654   -0.2409 C   0  0  0  0  0  0  0  0  0  0  0  0
    5.5984    0.7824   -0.1633 C   0  0  0  0  0  0  0  0  0  0  0  0
    6.1674   -0.5100    0.1848 C   0  0  0  0  0  0  0  0  0  0  0  0
    6.4678    1.7722   -0.4263 C   0  0  0  0  0  0  0  0  0  0  0  0
    7.9113    1.6274   -0.3859 C   0  0  0  0  0  0  0  0  0  0  0  0
    8.6605    2.6337   -0.6525 O   0  0  0  0  0  0  0  0  0  0  0  0
    8.5983    0.4747   -0.0786 O   0  0  0  0  0  0  0  0  0  0  0  0
   -3.5984    0.8506   -0.2652 C   0  0  0  0  0  0  0  0  0  0  0  0
   -4.1690    1.5940    0.9416 C   0  0  0  0  0  0  0  0  0  0  0  0
   -2.7624    1.7866   -1.1087 C   0  0  0  0  0  0  0  0  0  0  0  0
   -4.7373    0.4846   -1.2416 C   0  0  0  0  0  0  0  0  0  0  0  0
   -5.6458   -0.5661   -0.7652 C   0  0  0  0  0  0  0  0  0  0  0  0
   -5.1864   -1.2494    0.4714 C   0  0  0  0  0  0  0  0  0  0  0  0
   -4.0317   -3.4639    0.9348 H   0  0  0  0  0  0  0  0  0  0  0  0
   -2.5681   -3.2085   -0.0063 H   0  0  0  0  0  0  0  0  0  0  0  0
   -2.5599   -2.7291    1.7309 H   0  0  0  0  0  0  0  0  0  0  0  0
   -1.2363   -1.7685    0.5173 H   0  0  0  0  0  0  0  0  0  0  0  0
   -0.6838    1.0902   -0.2204 H   0  0  0  0  0  0  0  0  0  0  0  0
    2.0778   -2.0304   -0.2791 H   0  0  0  0  0  0  0  0  0  0  0  0
    0.5146   -2.5032    0.3914 H   0  0  0  0  0  0  0  0  0  0  0  0
    1.7871   -1.7433    1.4836 H   0  0  0  0  0  0  0  0  0  0  0  0
    1.5624    1.5225   -0.3649 H   0  0  0  0  0  0  0  0  0  0  0  0
    3.5624   -0.8222    0.2635 H   0  0  0  0  0  0  0  0  0  0  0  0
    3.8590    2.0869   -0.5132 H   0  0  0  0  0  0  0  0  0  0  0  0
    6.8314   -0.4349    1.0795 H   0  0  0  0  0  0  0  0  0  0  0  0
    5.4055   -1.2346    0.4371 H   0  0  0  0  0  0  0  0  0  0  0  0
    6.7983   -0.8449   -0.6825 H   0  0  0  0  0  0  0  0  0  0  0  0
    6.0626    2.7235   -0.6806 H   0  0  0  0  0  0  0  0  0  0  0  0
    9.6030    0.4575    0.0471 H   0  0  0  0  0  0  0  0  0  0  0  0
   -3.7064    2.6120    0.9487 H   0  0  0  0  0  0  0  0  0  0  0  0
   -5.2659    1.6946    0.8759 H   0  0  0  0  0  0  0  0  0  0  0  0
   -3.8595    1.0391    1.8463 H   0  0  0  0  0  0  0  0  0  0  0  0
   -2.1418    1.2760   -1.8564 H   0  0  0  0  0  0  0  0  0  0  0  0
   -2.2352    2.5643   -0.5702 H   0  0  0  0  0  0  0  0  0  0  0  0
   -3.4844    2.3889   -1.8003 H   0  0  0  0  0  0  0  0  0  0  0  0
   -4.2467    0.2087   -2.1854 H   0  0  0  0  0  0  0  0  0  0  0  0
   -5.2622    1.4571   -1.4442 H   0  0  0  0  0  0  0  0  0  0  0  0
   -6.7116   -0.2142   -0.6404 H   0  0  0  0  0  0  0  0  0  0  0  0
   -5.7351   -1.3615   -1.5635 H   0  0  0  0  0  0  0  0  0  0  0  0
   -5.7164   -2.2179    0.6494 H   0  0  0  0  0  0  0  0  0  0  0  0
   -5.4886   -0.6205    1.3600 H   0  0  0  0  0  0  0  0  0  0  0  0
  1  2  1  0
  2  3  2  0
  3  4  1  0
  4  5  2  0
  5  6  1  0
  6  7  1  0
  6  8  2  0
  8  9  1  0
  9 10  2  0
 10 11  1  0
 11 12  1  0
 11 13  2  0
 13 14  1  0
 14 15  2  0
 14 16  1  0
  3 17  1  0
 17 18  1  0
 17 19  1  0
 17 20  1  0
 20 21  1  0
 21 22  1  0
 22  2  1  0
  1 23  1  0
  1 24  1  0
  1 25  1  0
  4 26  1  0
  5 27  1  0
  7 28  1  0
  7 29  1  0
  7 30  1  0
  8 31  1  0
  9 32  1  0
 10 33  1  0
 12 34  1  0
 12 35  1  0
 12 36  1  0
 13 37  1  0
 16 38  1  0
 18 39  1  0
 18 40  1  0
 18 41  1  0
 19 42  1  0
 19 43  1  0
 19 44  1  0
 20 45  1  0
 20 46  1  0
 21 47  1  0
 21 48  1  0
 22 49  1  0
 22 50  1  0
M  END
$$$$
