
     RDKit          3D

 60 64  0  0  0  0  0  0  0  0999 V2000
   -4.8182    2.3151    2.5562 C   0  0  0  0  0  0  0  0  0  0  0  0
   -3.3947    2.4360    2.1345 C   0  0  0  0  0  0  0  0  0  0  0  0
   -2.5083    3.2841    2.7586 C   0  0  0  0  0  0  0  0  0  0  0  0
   -1.1866    3.4092    2.3815 C   0  0  0  0  0  0  0  0  0  0  0  0
   -0.7864    2.6220    1.3206 C   0  0  0  0  0  0  0  0  0  0  0  0
   -1.6503    1.7690    0.6820 C   0  0  0  0  0  0  0  0  0  0  0  0
   -1.2147    0.9549   -0.4497 C   0  0  0  0  0  0  0  0  0  0  0  0
   -1.3002    1.5001   -1.6073 O   0  0  0  0  0  0  0  0  0  0  0  0
   -0.7226   -0.3527   -0.3609 N   0  0  0  0  0  0  0  0  0  0  0  0
   -0.3297   -1.0436   -1.5687 C   0  0  0  0  0  0  0  0  0  0  0  0
   -1.1020   -2.3719   -1.6409 C   0  0  1  0  0  0  0  0  0  0  0  0
   -0.1658   -3.4774   -2.0558 C   0  0  0  0  0  0  0  0  0  0  0  0
   -1.6960   -2.6627   -0.4084 O   0  0  0  0  0  0  0  0  0  0  0  0
   -0.7348   -2.5773    0.6185 C   0  0  0  0  0  0  0  0  0  0  0  0
   -0.6026   -1.0636    0.8779 C   0  0  1  0  0  0  0  0  0  0  0  0
    0.6112   -0.7887    1.6885 C   0  0  0  0  0  0  0  0  0  0  0  0
    1.9015   -1.0841    1.0432 C   0  0  0  0  0  0  0  0  0  0  0  0
    2.4848   -2.3140    1.1987 C   0  0  0  0  0  0  0  0  0  0  0  0
    3.6931   -2.5735    0.5866 C   0  0  0  0  0  0  0  0  0  0  0  0
    4.3021   -1.6221   -0.1634 C   0  0  0  0  0  0  0  0  0  0  0  0
    3.7585   -0.3709   -0.3508 C   0  0  0  0  0  0  0  0  0  0  0  0
    4.4096    0.6553   -1.1560 C   0  0  0  0  0  0  0  0  0  0  0  0
    3.8528    1.8653   -1.3181 N   0  0  0  0  0  0  0  0  0  0  0  0
    4.4747    2.8128   -2.0739 C   0  0  0  0  0  0  0  0  0  0  0  0
    5.6827    2.5329   -2.6780 C   0  0  0  0  0  0  0  0  0  0  0  0
    6.2363    1.2941   -2.5024 C   0  0  0  0  0  0  0  0  0  0  0  0
    5.5725    0.3970   -1.7421 N   0  0  0  0  0  0  0  0  0  0  0  0
    2.5400   -0.1403    0.2789 C   0  0  0  0  0  0  0  0  0  0  0  0
   -2.9787    1.6654    1.0864 C   0  0  0  0  0  0  0  0  0  0  0  0
   -3.8330    0.7662    0.3910 N   0  0  0  0  0  0  0  0  0  0  0  0
   -4.0027    0.7363   -0.8988 N   0  0  0  0  0  0  0  0  0  0  0  0
   -4.8806   -0.2359   -1.2429 C   0  0  0  0  0  0  0  0  0  0  0  0
   -5.2586   -0.8246   -0.0742 C   0  0  0  0  0  0  0  0  0  0  0  0
   -4.5942   -0.1819    0.9066 N   0  0  0  0  0  0  0  0  0  0  0  0
   -5.1216    3.3159    2.9651 H   0  0  0  0  0  0  0  0  0  0  0  0
   -5.4179    2.1851    1.6243 H   0  0  0  0  0  0  0  0  0  0  0  0
   -4.9786    1.4958    3.2713 H   0  0  0  0  0  0  0  0  0  0  0  0
   -2.8646    3.8936    3.5985 H   0  0  0  0  0  0  0  0  0  0  0  0
   -0.5059    4.0902    2.8950 H   0  0  0  0  0  0  0  0  0  0  0  0
    0.2580    2.7166    1.0177 H   0  0  0  0  0  0  0  0  0  0  0  0
    0.7375   -1.1997   -1.6945 H   0  0  0  0  0  0  0  0  0  0  0  0
   -0.6647   -0.4637   -2.4787 H   0  0  0  0  0  0  0  0  0  0  0  0
   -1.9338   -2.3170   -2.3726 H   0  0  0  0  0  0  0  0  0  0  0  0
    0.8835   -3.0953   -2.2014 H   0  0  0  0  0  0  0  0  0  0  0  0
   -0.4668   -3.9276   -3.0404 H   0  0  0  0  0  0  0  0  0  0  0  0
   -0.1667   -4.2912   -1.2955 H   0  0  0  0  0  0  0  0  0  0  0  0
    0.2042   -3.0287    0.2934 H   0  0  0  0  0  0  0  0  0  0  0  0
   -1.1218   -3.0860    1.5099 H   0  0  0  0  0  0  0  0  0  0  0  0
   -1.4854   -0.8534    1.5596 H   0  0  0  0  0  0  0  0  0  0  0  0
    0.4908   -1.4174    2.6333 H   0  0  0  0  0  0  0  0  0  0  0  0
    0.5852    0.2558    2.1051 H   0  0  0  0  0  0  0  0  0  0  0  0
    2.0178   -3.1016    1.8059 H   0  0  0  0  0  0  0  0  0  0  0  0
    4.1595   -3.5537    0.7093 H   0  0  0  0  0  0  0  0  0  0  0  0
    5.2587   -1.8525   -0.6378 H   0  0  0  0  0  0  0  0  0  0  0  0
    4.0539    3.7887   -2.2214 H   0  0  0  0  0  0  0  0  0  0  0  0
    6.1636    3.3138   -3.2822 H   0  0  0  0  0  0  0  0  0  0  0  0
    7.1809    1.0713   -2.9732 H   0  0  0  0  0  0  0  0  0  0  0  0
    2.1206    0.8515    0.1235 H   0  0  0  0  0  0  0  0  0  0  0  0
   -5.2088   -0.4875   -2.2379 H   0  0  0  0  0  0  0  0  0  0  0  0
   -5.9370   -1.6335    0.1065 H   0  0  0  0  0  0  0  0  0  0  0  0
  1  2  1  0
  2  3  2  0
  3  4  1  0
  4  5  2  0
  5  6  1  0
  6  7  1  0
  7  8  2  0
  7  9  1  0
  9 10  1  0
 10 11  1  0
 11 12  1  0
 11 13  1  0
 13 14  1  0
 14 15  1  0
 15 16  1  0
 16 17  1  0
 17 18  2  0
 18 19  1  0
 19 20  2  0
 20 21  1  0
 21 22  1  0
 22 23  2  0
 23 24  1  0
 24 25  2  0
 25 26  1  0
 26 27  2  0
 21 28  2  0
  6 29  2  0
 29 30  1  0
 30 31  1  0
 31 32  2  0
 32 33  1  0
 33 34  2  0
 29  2  1  0
 34 30  1  0
 15  9  1  0
 28 17  1  0
 27 22  1  0
  1 35  1  0
  1 36  1  0
  1 37  1  0
  3 38  1  0
  4 39  1  0
  5 40  1  0
 10 41  1  0
 10 42  1  0
 11 43  1  6
 12 44  1  0
 12 45  1  0
 12 46  1  0
 14 47  1  0
 14 48  1  0
 15 49  1  1
 16 50  1  0
 16 51  1  0
 18 52  1  0
 19 53  1  0
 20 54  1  0
 24 55  1  0
 25 56  1  0
 26 57  1  0
 28 58  1  0
 32 59  1  0
 33 60  1  0
M  END
$$$$
