
     RDKit          3D

 44 46  0  0  0  0  0  0  0  0999 V2000
    2.5516    0.7711   -0.8530 O   0  0  0  0  0  0  0  0  0  0  0  0
    2.8306    0.0865    0.1582 C   0  0  0  0  0  0  0  0  0  0  0  0
    1.7635   -0.3665    0.9546 N   0  0  0  0  0  0  0  0  0  0  0  0
    0.3739   -0.0897    0.6754 C   0  0  0  0  0  0  0  0  0  0  0  0
   -0.0736   -0.6098   -0.6417 C   0  0  0  0  0  0  0  0  0  0  0  0
   -1.4736   -0.3552   -1.0370 C   0  0  0  0  0  0  0  0  0  0  0  0
   -1.8927    1.0464   -1.1766 C   0  0  0  0  0  0  0  0  0  0  0  0
   -0.9810    2.0681   -1.2325 C   0  0  0  0  0  0  0  0  0  0  0  0
   -1.4458    3.3802   -1.3507 C   0  0  0  0  0  0  0  0  0  0  0  0
   -2.8078    3.6358   -1.4102 C   0  0  0  0  0  0  0  0  0  0  0  0
   -3.7204    2.6060   -1.3542 C   0  0  0  0  0  0  0  0  0  0  0  0
   -3.2662    1.3162   -1.2378 C   0  0  0  0  0  0  0  0  0  0  0  0
   -2.4186   -1.0708   -0.0940 C   0  0  0  0  0  0  0  0  0  0  0  0
   -2.9757   -2.2535   -0.5017 C   0  0  0  0  0  0  0  0  0  0  0  0
   -3.8456   -2.9050    0.3376 C   0  0  0  0  0  0  0  0  0  0  0  0
   -4.1796   -2.4100    1.5805 C   0  0  0  0  0  0  0  0  0  0  0  0
   -3.6033   -1.2154    1.9662 C   0  0  0  0  0  0  0  0  0  0  0  0
   -2.7245   -0.5416    1.1367 C   0  0  0  0  0  0  0  0  0  0  0  0
    4.2430   -0.1946    0.4413 C   0  0  0  0  0  0  0  0  0  0  0  0
    5.2362    0.2842   -0.3864 C   0  0  0  0  0  0  0  0  0  0  0  0
    6.5917    0.0393   -0.1526 C   0  0  0  0  0  0  0  0  0  0  0  0
    6.9085   -0.7071    0.9481 C   0  0  0  0  0  0  0  0  0  0  0  0
    5.9531   -1.1791    1.7617 N   0  0  0  0  0  0  0  0  0  0  0  0
    4.6339   -0.9357    1.5264 C   0  0  0  0  0  0  0  0  0  0  0  0
    2.0001   -0.9327    1.7922 H   0  0  0  0  0  0  0  0  0  0  0  0
   -0.2133   -0.6887    1.4480 H   0  0  0  0  0  0  0  0  0  0  0  0
    0.1617    0.9428    0.9199 H   0  0  0  0  0  0  0  0  0  0  0  0
    0.0330   -1.7366   -0.5842 H   0  0  0  0  0  0  0  0  0  0  0  0
    0.5951   -0.3325   -1.4848 H   0  0  0  0  0  0  0  0  0  0  0  0
   -1.6373   -0.8265   -2.0281 H   0  0  0  0  0  0  0  0  0  0  0  0
    0.0837    1.9242   -1.2010 H   0  0  0  0  0  0  0  0  0  0  0  0
   -0.7723    4.2104   -1.3977 H   0  0  0  0  0  0  0  0  0  0  0  0
   -3.1969    4.6513   -1.5025 H   0  0  0  0  0  0  0  0  0  0  0  0
   -4.7877    2.7619   -1.3975 H   0  0  0  0  0  0  0  0  0  0  0  0
   -3.9929    0.5038   -1.1938 H   0  0  0  0  0  0  0  0  0  0  0  0
   -2.7782   -2.7263   -1.4592 H   0  0  0  0  0  0  0  0  0  0  0  0
   -4.3212   -3.8583    0.0592 H   0  0  0  0  0  0  0  0  0  0  0  0
   -4.8762   -2.9367    2.2470 H   0  0  0  0  0  0  0  0  0  0  0  0
   -3.8469   -0.8009    2.9386 H   0  0  0  0  0  0  0  0  0  0  0  0
   -2.2811    0.4172    1.4568 H   0  0  0  0  0  0  0  0  0  0  0  0
    4.9405    0.8672   -1.2413 H   0  0  0  0  0  0  0  0  0  0  0  0
    7.3360    0.4266   -0.8162 H   0  0  0  0  0  0  0  0  0  0  0  0
    7.9427   -0.9129    1.1554 H   0  0  0  0  0  0  0  0  0  0  0  0
    3.9333   -1.3530    2.2310 H   0  0  0  0  0  0  0  0  0  0  0  0
  1  2  2  0
  2  3  1  0
  3  4  1  0
  4  5  1  0
  5  6  1  0
  6  7  1  0
  7  8  2  0
  8  9  1  0
  9 10  2  0
 10 11  1  0
 11 12  2  0
  6 13  1  0
 13 14  2  0
 14 15  1  0
 15 16  2  0
 16 17  1  0
 17 18  2  0
  2 19  1  0
 19 20  2  0
 20 21  1  0
 21 22  2  0
 22 23  1  0
 23 24  2  0
 12  7  1  0
 18 13  1  0
 24 19  1  0
  3 25  1  0
  4 26  1  0
  4 27  1  0
  5 28  1  0
  5 29  1  0
  6 30  1  0
  8 31  1  0
  9 32  1  0
 10 33  1  0
 11 34  1  0
 12 35  1  0
 14 36  1  0
 15 37  1  0
 16 38  1  0
 17 39  1  0
 18 40  1  0
 20 41  1  0
 21 42  1  0
 22 43  1  0
 24 44  1  0
M  END
$$$$
