
     RDKit          3D

 57 61  0  0  0  0  0  0  0  0999 V2000
    1.7320   -3.6092   -2.0029 C   0  0  0  0  0  0  0  0  0  0  0  0
    0.7220   -3.0648   -1.1967 O   0  0  0  0  0  0  0  0  0  0  0  0
    1.0086   -1.9691   -0.3867 C   0  0  0  0  0  0  0  0  0  0  0  0
    2.2687   -1.4176   -0.3700 C   0  0  0  0  0  0  0  0  0  0  0  0
    2.5708   -0.3334    0.4251 C   0  0  0  0  0  0  0  0  0  0  0  0
    3.8228    0.2312    0.4554 C   0  0  0  0  0  0  0  0  0  0  0  0
    4.8848   -0.2687   -0.3324 N   0  0  0  0  0  0  0  0  0  0  0  0
    6.1499    0.4026   -0.2179 C   0  0  0  0  0  0  0  0  0  0  0  0
    7.2404   -0.3093    0.2073 C   0  0  0  0  0  0  0  0  0  0  0  0
    8.4583    0.3551    0.3130 C   0  0  0  0  0  0  0  0  0  0  0  0
    8.5523    1.7112   -0.0090 C   0  0  0  0  0  0  0  0  0  0  0  0
    9.7375    2.3695    0.0908 F   0  0  0  0  0  0  0  0  0  0  0  0
    7.4597    2.4154   -0.4328 C   0  0  0  0  0  0  0  0  0  0  0  0
    7.5682    4.1042   -0.8358 Cl  0  0  0  0  0  0  0  0  0  0  0  0
    6.2624    1.7318   -0.5289 C   0  0  0  0  0  0  0  0  0  0  0  0
    5.1664    2.3950   -0.9431 F   0  0  0  0  0  0  0  0  0  0  0  0
    4.0190    1.3036    1.2780 N   0  0  0  0  0  0  0  0  0  0  0  0
    3.0104    1.7906    2.0366 C   0  0  0  0  0  0  0  0  0  0  0  0
    1.7938    1.2210    1.9896 N   0  0  0  0  0  0  0  0  0  0  0  0
    1.5407    0.1622    1.1983 C   0  0  0  0  0  0  0  0  0  0  0  0
    0.2545   -0.3961    1.1856 C   0  0  0  0  0  0  0  0  0  0  0  0
   -0.0490   -1.4764    0.3932 C   0  0  0  0  0  0  0  0  0  0  0  0
   -1.2642   -2.0849    0.3095 O   0  0  0  0  0  0  0  0  0  0  0  0
   -2.4763   -1.8528    0.8841 C   0  0  0  0  0  0  0  0  0  0  0  0
   -3.0955   -0.5355    0.4973 C   0  0  2  0  0  0  0  0  0  0  0  0
   -4.4420   -0.4940    1.1994 C   0  0  0  0  0  0  0  0  0  0  0  0
   -5.2209    0.6553    0.8040 N   0  0  0  0  0  0  0  0  0  0  0  0
   -6.6341    0.3531    0.6704 C   0  0  0  0  0  0  0  0  0  0  0  0
   -7.3938    1.6222    0.4385 C   0  0  0  0  0  0  0  0  0  0  0  0
   -6.6084    2.6190   -0.1374 O   0  0  0  0  0  0  0  0  0  0  0  0
   -5.7393    2.1019   -1.1064 C   0  0  0  0  0  0  0  0  0  0  0  0
   -4.7548    1.1735   -0.4703 C   0  0  0  0  0  0  0  0  0  0  0  0
   -4.4203   -0.0231   -1.3335 C   0  0  0  0  0  0  0  0  0  0  0  0
   -3.2439   -0.5676   -0.8875 O   0  0  0  0  0  0  0  0  0  0  0  0
    2.5189   -3.9995   -1.3244 H   0  0  0  0  0  0  0  0  0  0  0  0
    2.1746   -2.8195   -2.6386 H   0  0  0  0  0  0  0  0  0  0  0  0
    1.2871   -4.4439   -2.5983 H   0  0  0  0  0  0  0  0  0  0  0  0
    3.0516   -1.8457   -0.9999 H   0  0  0  0  0  0  0  0  0  0  0  0
    4.7924   -1.0801   -0.9746 H   0  0  0  0  0  0  0  0  0  0  0  0
    7.2230   -1.3524    0.4674 H   0  0  0  0  0  0  0  0  0  0  0  0
    9.3297   -0.1790    0.6440 H   0  0  0  0  0  0  0  0  0  0  0  0
    3.1619    2.6421    2.6912 H   0  0  0  0  0  0  0  0  0  0  0  0
   -0.4976    0.0348    1.8320 H   0  0  0  0  0  0  0  0  0  0  0  0
   -2.3188   -1.8604    2.0102 H   0  0  0  0  0  0  0  0  0  0  0  0
   -3.2138   -2.6832    0.7038 H   0  0  0  0  0  0  0  0  0  0  0  0
   -2.5136    0.3059    0.8431 H   0  0  0  0  0  0  0  0  0  0  0  0
   -4.9921   -1.4522    1.0986 H   0  0  0  0  0  0  0  0  0  0  0  0
   -4.2195   -0.3785    2.2887 H   0  0  0  0  0  0  0  0  0  0  0  0
   -6.8473   -0.3331   -0.1745 H   0  0  0  0  0  0  0  0  0  0  0  0
   -7.0379   -0.1377    1.5825 H   0  0  0  0  0  0  0  0  0  0  0  0
   -8.2974    1.4792   -0.2149 H   0  0  0  0  0  0  0  0  0  0  0  0
   -7.7554    1.9941    1.4173 H   0  0  0  0  0  0  0  0  0  0  0  0
   -5.1829    2.9878   -1.5071 H   0  0  0  0  0  0  0  0  0  0  0  0
   -6.2721    1.6445   -1.9562 H   0  0  0  0  0  0  0  0  0  0  0  0
   -3.7894    1.7093   -0.2676 H   0  0  0  0  0  0  0  0  0  0  0  0
   -5.2042   -0.8154   -1.2832 H   0  0  0  0  0  0  0  0  0  0  0  0
   -4.2781    0.2670   -2.3994 H   0  0  0  0  0  0  0  0  0  0  0  0
  1  2  1  0
  2  3  1  0
  3  4  2  0
  4  5  1  0
  5  6  2  0
  6  7  1  0
  7  8  1  0
  8  9  2  0
  9 10  1  0
 10 11  2  0
 11 12  1  0
 11 13  1  0
 13 14  1  0
 13 15  2  0
 15 16  1  0
  6 17  1  0
 17 18  2  0
 18 19  1  0
 19 20  2  0
 20 21  1  0
 21 22  2  0
 22 23  1  0
 23 24  1  0
 24 25  1  0
 25 26  1  0
 26 27  1  0
 27 28  1  0
 28 29  1  0
 29 30  1  0
 30 31  1  0
 31 32  1  0
 32 33  1  0
 33 34  1  0
 22  3  1  0
 34 25  1  0
 20  5  1  0
 32 27  1  0
 15  8  1  0
  1 35  1  0
  1 36  1  0
  1 37  1  0
  4 38  1  0
  7 39  1  0
  9 40  1  0
 10 41  1  0
 18 42  1  0
 21 43  1  0
 24 44  1  0
 24 45  1  0
 25 46  1  6
 26 47  1  0
 26 48  1  0
 28 49  1  0
 28 50  1  0
 29 51  1  0
 29 52  1  0
 31 53  1  0
 31 54  1  0
 32 55  1  0
 33 56  1  0
 33 57  1  0
M  END
$$$$
