
     RDKit          3D

 68 71  0  0  0  0  0  0  0  0999 V2000
    7.5355   -2.0635   -1.6531 C   0  0  0  0  0  0  0  0  0  0  0  0
    7.5808   -1.5180   -0.2533 C   0  0  0  0  0  0  0  0  0  0  0  0
    8.2644   -2.5197    0.6244 C   0  0  0  0  0  0  0  0  0  0  0  0
    8.1816   -0.1378   -0.1955 C   0  0  1  0  0  0  0  0  0  0  0  0
    8.2171    0.3691    1.1560 N   0  0  0  0  0  0  0  0  0  0  0  0
    7.2069    1.7451    1.2913 S   0  0  0  0  0  6  0  0  0  0  0  0
    7.2998    2.2657    2.7032 O   0  0  0  0  0  0  0  0  0  0  0  0
    7.6915    2.8381    0.3575 O   0  0  0  0  0  0  0  0  0  0  0  0
    5.5323    1.3929    0.9464 C   0  0  0  0  0  0  0  0  0  0  0  0
    4.6876    0.9372    1.9388 C   0  0  0  0  0  0  0  0  0  0  0  0
    3.3651    0.6534    1.7129 C   0  0  0  0  0  0  0  0  0  0  0  0
    2.8068    0.8180    0.4410 C   0  0  0  0  0  0  0  0  0  0  0  0
    1.4077    0.5222    0.1982 C   0  0  0  0  0  0  0  0  0  0  0  0
    0.7234    1.2391   -0.7602 C   0  0  0  0  0  0  0  0  0  0  0  0
   -0.6171    0.9963   -1.0265 C   0  0  0  0  0  0  0  0  0  0  0  0
   -1.2609    0.0164   -0.3107 C   0  0  0  0  0  0  0  0  0  0  0  0
   -2.7182   -0.2157   -0.6155 C   0  0  0  0  0  0  0  0  0  0  0  0
   -3.4280    0.6240    0.2422 O   0  0  0  0  0  0  0  0  0  0  0  0
   -4.8080    0.7437    0.3123 C   0  0  0  0  0  0  0  0  0  0  0  0
   -5.6751    0.0253   -0.4823 C   0  0  0  0  0  0  0  0  0  0  0  0
   -7.0595    0.1925   -0.3633 C   0  0  0  0  0  0  0  0  0  0  0  0
   -7.6263    1.0647    0.5347 C   0  0  0  0  0  0  0  0  0  0  0  0
   -9.0573    1.2490    0.6930 C   0  0  0  0  0  0  0  0  0  0  0  0
   -9.4799    2.3339    1.1646 O   0  0  0  0  0  0  0  0  0  0  0  0
   -9.9976    0.2086    0.3176 C   0  0  0  0  0  0  0  0  0  0  0  0
  -11.2758    0.5695   -0.1262 C   0  0  0  0  0  0  0  0  0  0  0  0
  -12.1982   -0.3876   -0.4714 C   0  0  0  0  0  0  0  0  0  0  0  0
  -11.9027   -1.7316   -0.3946 C   0  0  0  0  0  0  0  0  0  0  0  0
  -12.8038   -2.6913   -0.7338 F   0  0  0  0  0  0  0  0  0  0  0  0
  -10.6416   -2.1289    0.0431 C   0  0  0  0  0  0  0  0  0  0  0  0
   -9.7436   -1.1445    0.3804 C   0  0  0  0  0  0  0  0  0  0  0  0
   -6.7339    1.7899    1.3377 C   0  0  0  0  0  0  0  0  0  0  0  0
   -5.3746    1.6254    1.2204 C   0  0  0  0  0  0  0  0  0  0  0  0
   -0.6085   -0.7209    0.6548 C   0  0  0  0  0  0  0  0  0  0  0  0
    0.7420   -0.4486    0.8968 C   0  0  0  0  0  0  0  0  0  0  0  0
    3.6457    1.2730   -0.5533 C   0  0  0  0  0  0  0  0  0  0  0  0
    4.9911    1.5579   -0.3082 C   0  0  0  0  0  0  0  0  0  0  0  0
    9.5010   -0.0429   -0.8148 C   0  0  0  0  0  0  0  0  0  0  0  0
    9.7706   -0.4057   -1.9877 O   0  0  0  0  0  0  0  0  0  0  0  0
   10.5507    0.4812   -0.0776 O   0  0  0  0  0  0  0  0  0  0  0  0
    6.7079   -2.8190   -1.7694 H   0  0  0  0  0  0  0  0  0  0  0  0
    8.4906   -2.4909   -1.9798 H   0  0  0  0  0  0  0  0  0  0  0  0
    7.2604   -1.2201   -2.3235 H   0  0  0  0  0  0  0  0  0  0  0  0
    6.5275   -1.4298    0.1000 H   0  0  0  0  0  0  0  0  0  0  0  0
    9.3828   -2.5094    0.5062 H   0  0  0  0  0  0  0  0  0  0  0  0
    7.9688   -3.5370    0.2297 H   0  0  0  0  0  0  0  0  0  0  0  0
    7.9381   -2.5182    1.6691 H   0  0  0  0  0  0  0  0  0  0  0  0
    7.4995    0.5113   -0.7992 H   0  0  0  0  0  0  0  0  0  0  0  0
    7.8462   -0.3592    1.8034 H   0  0  0  0  0  0  0  0  0  0  0  0
    5.1063    0.8078    2.9167 H   0  0  0  0  0  0  0  0  0  0  0  0
    2.6779    0.2961    2.4653 H   0  0  0  0  0  0  0  0  0  0  0  0
    1.2307    2.0087   -1.3210 H   0  0  0  0  0  0  0  0  0  0  0  0
   -1.1689    1.5444   -1.7710 H   0  0  0  0  0  0  0  0  0  0  0  0
   -2.9440   -0.0049   -1.6676 H   0  0  0  0  0  0  0  0  0  0  0  0
   -3.0035   -1.2651   -0.3982 H   0  0  0  0  0  0  0  0  0  0  0  0
   -5.2551   -0.6716   -1.2004 H   0  0  0  0  0  0  0  0  0  0  0  0
   -7.6895   -0.3844   -1.0209 H   0  0  0  0  0  0  0  0  0  0  0  0
  -11.5308    1.6201   -0.1937 H   0  0  0  0  0  0  0  0  0  0  0  0
  -13.1960   -0.1293   -0.8195 H   0  0  0  0  0  0  0  0  0  0  0  0
  -10.3536   -3.1518    0.1242 H   0  0  0  0  0  0  0  0  0  0  0  0
   -8.7616   -1.4743    0.7349 H   0  0  0  0  0  0  0  0  0  0  0  0
   -7.1737    2.4803    2.0481 H   0  0  0  0  0  0  0  0  0  0  0  0
   -4.6845    2.1931    1.8484 H   0  0  0  0  0  0  0  0  0  0  0  0
   -1.1467   -1.4874    1.1990 H   0  0  0  0  0  0  0  0  0  0  0  0
    1.2188   -1.0408    1.6554 H   0  0  0  0  0  0  0  0  0  0  0  0
    3.2349    1.4087   -1.5503 H   0  0  0  0  0  0  0  0  0  0  0  0
    5.6054    1.9157   -1.1210 H   0  0  0  0  0  0  0  0  0  0  0  0
   11.5209    0.3315   -0.3169 H   0  0  0  0  0  0  0  0  0  0  0  0
  1  2  1  0
  2  3  1  0
  2  4  1  0
  4  5  1  0
  5  6  1  0
  6  7  2  0
  6  8  2  0
  6  9  1  0
  9 10  2  0
 10 11  1  0
 11 12  2  0
 12 13  1  0
 13 14  2  0
 14 15  1  0
 15 16  2  0
 16 17  1  0
 17 18  1  0
 18 19  1  0
 19 20  2  0
 20 21  1  0
 21 22  2  0
 22 23  1  0
 23 24  2  0
 23 25  1  0
 25 26  2  0
 26 27  1  0
 27 28  2  0
 28 29  1  0
 28 30  1  0
 30 31  2  0
 22 32  1  0
 32 33  2  0
 16 34  1  0
 34 35  2  0
 12 36  1  0
 36 37  2  0
  4 38  1  0
 38 39  2  0
 38 40  1  0
 37  9  1  0
 35 13  1  0
 33 19  1  0
 31 25  1  0
  1 41  1  0
  1 42  1  0
  1 43  1  0
  2 44  1  0
  3 45  1  0
  3 46  1  0
  3 47  1  0
  4 48  1  6
  5 49  1  0
 10 50  1  0
 11 51  1  0
 14 52  1  0
 15 53  1  0
 17 54  1  0
 17 55  1  0
 20 56  1  0
 21 57  1  0
 26 58  1  0
 27 59  1  0
 30 60  1  0
 31 61  1  0
 32 62  1  0
 33 63  1  0
 34 64  1  0
 35 65  1  0
 36 66  1  0
 37 67  1  0
 40 68  1  0
M  END
$$$$
