
     RDKit          3D

 36 39  0  0  0  0  0  0  0  0999 V2000
    7.7621    1.2474    0.9959 N   0  0  0  0  0  0  0  0  0  0  0  0
    6.4069    0.9302    0.6115 C   0  0  0  0  0  0  0  0  0  0  0  0
    5.7152    0.6355   -0.2865 N   0  0  0  0  0  0  0  0  0  0  0  0
    4.4340    0.3977   -0.3179 C   0  0  0  0  0  0  0  0  0  0  0  0
    3.6342    0.0440   -1.4113 C   0  0  0  0  0  0  0  0  0  0  0  0
    2.2931   -0.1700   -1.2467 C   0  0  0  0  0  0  0  0  0  0  0  0
    1.6228   -0.0641   -0.0409 C   0  0  0  0  0  0  0  0  0  0  0  0
    0.2127   -0.3100    0.0836 C   0  0  0  0  0  0  0  0  0  0  0  0
   -0.3541   -1.2561   -0.7475 C   0  0  0  0  0  0  0  0  0  0  0  0
   -1.6991   -1.5305   -0.6713 C   0  0  0  0  0  0  0  0  0  0  0  0
   -2.5385   -0.9029    0.2064 N   0  0  0  0  0  0  0  0  0  0  0  0
   -3.9481   -1.2205    0.2347 C   0  0  0  0  0  0  0  0  0  0  0  0
   -4.7879   -0.4624   -0.7387 C   0  0  0  0  0  0  0  0  0  0  0  0
   -4.8716    1.0047   -0.6962 C   0  0  0  0  0  0  0  0  0  0  0  0
   -6.0282    0.1769   -0.1539 C   0  0  0  0  0  0  0  0  0  0  0  0
   -1.9845    0.0090    1.0055 C   0  0  0  0  0  0  0  0  0  0  0  0
   -2.6780    0.6439    1.8555 O   0  0  0  0  0  0  0  0  0  0  0  0
   -0.6217    0.3322    0.9752 C   0  0  0  0  0  0  0  0  0  0  0  0
    2.4223    0.2891    1.0493 C   0  0  0  0  0  0  0  0  0  0  0  0
    3.7719    0.5054    0.8877 C   0  0  0  0  0  0  0  0  0  0  0  0
    5.0963    0.9525    1.9850 S   0  0  0  0  0  0  0  0  0  0  0  0
    8.3045    0.6281    1.6318 H   0  0  0  0  0  0  0  0  0  0  0  0
    8.2533    2.1014    0.6575 H   0  0  0  0  0  0  0  0  0  0  0  0
    4.0217   -0.0744   -2.4130 H   0  0  0  0  0  0  0  0  0  0  0  0
    1.6783   -0.4464   -2.1112 H   0  0  0  0  0  0  0  0  0  0  0  0
    0.2819   -1.7841   -1.4672 H   0  0  0  0  0  0  0  0  0  0  0  0
   -2.1228   -2.2678   -1.3235 H   0  0  0  0  0  0  0  0  0  0  0  0
   -4.3424   -1.0833    1.2683 H   0  0  0  0  0  0  0  0  0  0  0  0
   -4.0763   -2.3178    0.0306 H   0  0  0  0  0  0  0  0  0  0  0  0
   -5.0323   -0.9812   -1.7150 H   0  0  0  0  0  0  0  0  0  0  0  0
   -4.3281    1.6319   -0.0045 H   0  0  0  0  0  0  0  0  0  0  0  0
   -5.1577    1.5098   -1.6679 H   0  0  0  0  0  0  0  0  0  0  0  0
   -6.9816    0.1494   -0.6861 H   0  0  0  0  0  0  0  0  0  0  0  0
   -6.1363    0.2140    0.9544 H   0  0  0  0  0  0  0  0  0  0  0  0
   -0.2111    1.0763    1.6378 H   0  0  0  0  0  0  0  0  0  0  0  0
    1.9890    0.3923    2.0190 H   0  0  0  0  0  0  0  0  0  0  0  0
  1  2  1  0
  2  3  2  0
  3  4  1  0
  4  5  2  0
  5  6  1  0
  6  7  2  0
  7  8  1  0
  8  9  1  0
  9 10  2  0
 10 11  1  0
 11 12  1  0
 12 13  1  0
 13 14  1  0
 14 15  1  0
 11 16  1  0
 16 17  2  0
 16 18  1  0
  7 19  1  0
 19 20  2  0
 20 21  1  0
 21  2  1  0
 20  4  1  0
 18  8  2  0
 15 13  1  0
  1 22  1  0
  1 23  1  0
  5 24  1  0
  6 25  1  0
  9 26  1  0
 10 27  1  0
 12 28  1  0
 12 29  1  0
 13 30  1  0
 14 31  1  0
 14 32  1  0
 15 33  1  0
 15 34  1  0
 18 35  1  0
 19 36  1  0
M  END
$$$$
