
     RDKit          3D

 52 53  0  0  0  0  0  0  0  0999 V2000
   -5.0737    0.5064   -3.8029 O   0  0  0  0  0  0  0  0  0  0  0  0
   -4.8457   -0.0806   -2.5535 C   0  0  0  0  0  0  0  0  0  0  0  0
   -3.6173   -0.1283   -2.2879 O   0  0  0  0  0  0  0  0  0  0  0  0
   -6.1790   -0.4252   -2.0195 C   0  0  0  0  0  0  0  0  0  0  0  0
   -6.1278   -1.0636   -0.6687 C   0  0  0  0  0  0  0  0  0  0  0  0
   -5.3360   -2.3389   -0.6582 C   0  0  0  0  0  0  0  0  0  0  0  0
   -5.3896   -2.9471    0.6960 C   0  0  0  0  0  0  0  0  0  0  0  0
   -4.8594   -2.1166    1.7932 C   0  0  0  0  0  0  0  0  0  0  0  0
   -3.4219   -1.7839    1.6622 C   0  0  0  0  0  0  0  0  0  0  0  0
   -3.0387   -1.0574    0.5351 O   0  0  0  0  0  0  0  0  0  0  0  0
   -1.6715   -0.7536    0.4354 C   0  0  0  0  0  0  0  0  0  0  0  0
   -1.3256    0.4442    1.0249 C   0  0  0  0  0  0  0  0  0  0  0  0
   -2.4805    1.4857    1.8215 Cl  0  0  0  0  0  0  0  0  0  0  0  0
    0.0267    0.7903    0.9512 C   0  0  0  0  0  0  0  0  0  0  0  0
    0.9021   -0.0624    0.3130 C   0  0  0  0  0  0  0  0  0  0  0  0
    2.2321    0.4281    0.3175 N   0  0  0  0  0  0  0  0  0  0  0  0
    3.2451    1.1976   -0.3243 C   0  0  0  0  0  0  0  0  0  0  0  0
    2.8963    1.7362   -1.4177 O   0  0  0  0  0  0  0  0  0  0  0  0
    4.5639    1.3332    0.2580 N   0  0  0  0  0  0  0  0  0  0  0  0
    5.4085    2.1643   -0.5746 C   0  0  0  0  0  0  0  0  0  0  0  0
    5.0580    2.6894   -1.6414 O   0  0  0  0  0  0  0  0  0  0  0  0
    6.7708    2.3647   -0.0664 C   0  0  0  0  0  0  0  0  0  0  0  0
    7.4613    1.1533   -0.0224 C   0  0  0  0  0  0  0  0  0  0  0  0
    8.7647    1.0651    0.4169 C   0  0  0  0  0  0  0  0  0  0  0  0
    9.3815    2.2536    0.8242 C   0  0  0  0  0  0  0  0  0  0  0  0
    8.7009    3.4477    0.7809 C   0  0  0  0  0  0  0  0  0  0  0  0
    7.4073    3.5099    0.3407 C   0  0  0  0  0  0  0  0  0  0  0  0
    6.4057    4.9411    0.2241 Cl  0  0  0  0  0  0  0  0  0  0  0  0
    0.5177   -1.2531   -0.2651 C   0  0  0  0  0  0  0  0  0  0  0  0
   -0.8107   -1.6169   -0.2058 C   0  0  0  0  0  0  0  0  0  0  0  0
   -1.3732   -3.1119   -0.9165 Cl  0  0  0  0  0  0  0  0  0  0  0  0
   -4.3150    0.8233   -4.3742 H   0  0  0  0  0  0  0  0  0  0  0  0
   -6.7243   -1.1345   -2.6835 H   0  0  0  0  0  0  0  0  0  0  0  0
   -6.8108    0.4871   -1.9421 H   0  0  0  0  0  0  0  0  0  0  0  0
   -5.7231   -0.3012    0.0305 H   0  0  0  0  0  0  0  0  0  0  0  0
   -7.1345   -1.3101   -0.2732 H   0  0  0  0  0  0  0  0  0  0  0  0
   -4.3218   -2.1476   -1.0163 H   0  0  0  0  0  0  0  0  0  0  0  0
   -5.8411   -3.0166   -1.4022 H   0  0  0  0  0  0  0  0  0  0  0  0
   -4.8285   -3.9294    0.6384 H   0  0  0  0  0  0  0  0  0  0  0  0
   -6.4746   -3.1752    0.9417 H   0  0  0  0  0  0  0  0  0  0  0  0
   -4.9824   -2.6050    2.8002 H   0  0  0  0  0  0  0  0  0  0  0  0
   -5.4049   -1.1341    1.9038 H   0  0  0  0  0  0  0  0  0  0  0  0
   -3.1359   -1.2513    2.6197 H   0  0  0  0  0  0  0  0  0  0  0  0
   -2.8300   -2.7290    1.6981 H   0  0  0  0  0  0  0  0  0  0  0  0
    0.3006    1.7375    1.4175 H   0  0  0  0  0  0  0  0  0  0  0  0
    2.6553    0.0507    1.1884 H   0  0  0  0  0  0  0  0  0  0  0  0
    4.1744    1.7137   -0.6008 H   0  0  0  0  0  0  0  0  0  0  0  0
    7.0745    0.1751   -0.3158 H   0  0  0  0  0  0  0  0  0  0  0  0
    9.3418    0.1539    0.4698 H   0  0  0  0  0  0  0  0  0  0  0  0
   10.3980    2.3126    1.1877 H   0  0  0  0  0  0  0  0  0  0  0  0
    9.1342    4.3728    1.0819 H   0  0  0  0  0  0  0  0  0  0  0  0
    1.2558   -1.8640   -0.7440 H   0  0  0  0  0  0  0  0  0  0  0  0
  1  2  1  0
  2  3  2  0
  2  4  1  0
  4  5  1  0
  5  6  1  0
  6  7  1  0
  7  8  1  0
  8  9  1  0
  9 10  1  0
 10 11  1  0
 11 12  2  0
 12 13  1  0
 12 14  1  0
 14 15  2  0
 15 16  1  0
 16 17  1  0
 17 18  2  0
 17 19  1  0
 19 20  1  0
 20 21  2  0
 20 22  1  0
 22 23  2  0
 23 24  1  0
 24 25  2  0
 25 26  1  0
 26 27  2  0
 27 28  1  0
 15 29  1  0
 29 30  2  0
 30 31  1  0
 30 11  1  0
 27 22  1  0
  1 32  1  0
  4 33  1  0
  4 34  1  0
  5 35  1  0
  5 36  1  0
  6 37  1  0
  6 38  1  0
  7 39  1  0
  7 40  1  0
  8 41  1  0
  8 42  1  0
  9 43  1  0
  9 44  1  0
 14 45  1  0
 16 46  1  0
 19 47  1  0
 23 48  1  0
 24 49  1  0
 25 50  1  0
 26 51  1  0
 29 52  1  0
M  END
$$$$
