
     RDKit          3D

 46 49  0  0  0  0  0  0  0  0999 V2000
   -2.0655    3.7497    0.5293 C   0  0  0  0  0  0  0  0  0  0  0  0
   -1.0889    2.6932    0.6040 C   0  0  0  0  0  0  0  0  0  0  0  0
    0.2177    3.0955    0.9574 C   0  0  0  0  0  0  0  0  0  0  0  0
    1.2784    2.2371    1.0426 C   0  0  0  0  0  0  0  0  0  0  0  0
    1.0569    0.8968    0.7659 C   0  0  0  0  0  0  0  0  0  0  0  0
    2.1638    0.0384    0.8591 N   0  0  0  0  0  0  0  0  0  0  0  0
    2.1454   -1.3428    0.6195 C   0  0  0  0  0  0  0  0  0  0  0  0
    1.1373   -1.9835    0.2927 O   0  0  0  0  0  0  0  0  0  0  0  0
    3.3875   -2.1381    0.7519 C   0  0  0  0  0  0  0  0  0  0  0  0
    3.3964   -3.5056    0.5230 C   0  0  0  0  0  0  0  0  0  0  0  0
    4.5569   -4.1992    0.6550 C   0  0  0  0  0  0  0  0  0  0  0  0
    5.7021   -3.5378    1.0125 C   0  0  0  0  0  0  0  0  0  0  0  0
    6.9305   -4.2533    1.1552 C   0  0  0  0  0  0  0  0  0  0  0  0
    7.9438   -4.8290    1.2885 N   0  0  0  0  0  0  0  0  0  0  0  0
    5.6749   -2.1981    1.2328 C   0  0  0  0  0  0  0  0  0  0  0  0
    4.5221   -1.5226    1.0994 N   0  0  0  0  0  0  0  0  0  0  0  0
   -0.2015    0.5134    0.4271 C   0  0  0  0  0  0  0  0  0  0  0  0
   -1.3173    1.4008    0.3364 C   0  0  0  0  0  0  0  0  0  0  0  0
   -2.6311    0.8508    0.0013 C   0  0  1  0  0  0  0  0  0  0  0  0
   -3.7699    1.0124    0.9222 C   0  0  0  0  0  0  0  0  0  0  0  0
   -4.8540    0.3366    0.2841 F   0  0  0  0  0  0  0  0  0  0  0  0
   -4.2507    2.2635    1.1158 F   0  0  0  0  0  0  0  0  0  0  0  0
   -3.0502    1.5840   -1.1834 N   0  0  0  0  0  0  0  0  0  0  0  0
   -2.8055    1.3190   -2.3733 C   0  0  0  0  0  0  0  0  0  0  0  0
   -3.3134    2.1786   -3.4122 N   0  0  0  0  0  0  0  0  0  0  0  0
   -2.0596    0.2159   -2.6721 O   0  0  0  0  0  0  0  0  0  0  0  0
   -2.1814   -0.8909   -1.8019 C   0  0  2  0  0  0  0  0  0  0  0  0
   -3.5832   -1.2007   -1.2716 C   0  0  0  0  0  0  0  0  0  0  0  0
   -2.5079   -0.6237   -0.4231 C   0  0  2  0  0  0  0  0  0  0  0  0
   -1.4780    4.7097    0.2250 H   0  0  0  0  0  0  0  0  0  0  0  0
   -2.7231    3.6768   -0.3559 H   0  0  0  0  0  0  0  0  0  0  0  0
   -2.5205    4.1159    1.4554 H   0  0  0  0  0  0  0  0  0  0  0  0
    0.3882    4.1621    1.1787 H   0  0  0  0  0  0  0  0  0  0  0  0
    2.2574    2.6126    1.3206 H   0  0  0  0  0  0  0  0  0  0  0  0
    3.1115    0.4377    1.1320 H   0  0  0  0  0  0  0  0  0  0  0  0
    2.4776   -4.0008    0.2424 H   0  0  0  0  0  0  0  0  0  0  0  0
    4.5570   -5.2829    0.4721 H   0  0  0  0  0  0  0  0  0  0  0  0
    6.5755   -1.6346    1.5210 H   0  0  0  0  0  0  0  0  0  0  0  0
   -0.4227   -0.5043    0.1963 H   0  0  0  0  0  0  0  0  0  0  0  0
   -3.7093    0.4951    1.8868 H   0  0  0  0  0  0  0  0  0  0  0  0
   -2.6929    2.5827   -4.1400 H   0  0  0  0  0  0  0  0  0  0  0  0
   -4.3337    2.4285   -3.4706 H   0  0  0  0  0  0  0  0  0  0  0  0
   -1.5532   -1.7439   -2.1192 H   0  0  0  0  0  0  0  0  0  0  0  0
   -4.3638   -0.6013   -1.7442 H   0  0  0  0  0  0  0  0  0  0  0  0
   -3.8618   -2.2698   -1.1840 H   0  0  0  0  0  0  0  0  0  0  0  0
   -2.1417   -1.3431    0.3265 H   0  0  0  0  0  0  0  0  0  0  0  0
  1  2  1  0
  2  3  2  0
  3  4  1  0
  4  5  2  0
  5  6  1  0
  6  7  1  0
  7  8  2  0
  7  9  1  0
  9 10  2  0
 10 11  1  0
 11 12  2  0
 12 13  1  0
 13 14  3  0
 12 15  1  0
 15 16  2  0
  5 17  1  0
 17 18  2  0
 18 19  1  0
 19 20  1  1
 20 21  1  0
 20 22  1  0
 19 23  1  0
 23 24  2  0
 24 25  1  0
 24 26  1  0
 26 27  1  0
 27 28  1  0
 28 29  1  0
 18  2  1  0
 29 19  1  0
 16  9  1  0
 29 27  1  0
  1 30  1  0
  1 31  1  0
  1 32  1  0
  3 33  1  0
  4 34  1  0
  6 35  1  0
 10 36  1  0
 11 37  1  0
 15 38  1  0
 17 39  1  0
 20 40  1  0
 25 41  1  0
 25 42  1  0
 27 43  1  1
 28 44  1  0
 28 45  1  0
 29 46  1  1
M  END
$$$$
