
     RDKit          3D

 48 50  0  0  0  0  0  0  0  0999 V2000
   -1.5258   -1.2006    0.3418 C   0  0  1  0  0  0  0  0  0  0  0  0
   -0.4583   -2.2061    0.2586 C   0  0  0  0  0  0  0  0  0  0  0  0
    0.9136   -1.8337    0.0472 C   0  0  0  0  0  0  0  0  0  0  0  0
    1.9194   -1.5904    0.9600 C   0  0  0  0  0  0  0  0  0  0  0  0
    3.2131   -1.2281    0.6545 C   0  0  0  0  0  0  0  0  0  0  0  0
    4.4489   -0.9393    2.0957 Br  0  0  0  0  0  0  0  0  0  0  0  0
    3.5696   -1.0873   -0.6683 C   0  0  0  0  0  0  0  0  0  0  0  0
    2.6111   -1.3164   -1.6341 C   0  0  0  0  0  0  0  0  0  0  0  0
    1.3359   -1.6751   -1.2795 C   0  0  0  0  0  0  0  0  0  0  0  0
    4.9570   -0.7002   -0.9524 C   0  0  0  0  0  0  0  0  0  0  0  0
    5.0956   -0.6167   -2.3387 F   0  0  0  0  0  0  0  0  0  0  0  0
    5.8802   -1.5944   -0.4817 F   0  0  0  0  0  0  0  0  0  0  0  0
    5.2725    0.9455   -0.2610 P   0  0  0  0  0  0  0  0  0  0  0  0
    5.7230    2.0344   -1.4831 O   0  0  0  0  0  0  0  0  0  0  0  0
    6.5021    0.8260    0.9026 O   0  0  0  0  0  0  0  0  0  0  0  0
    4.0517    1.4934    0.4514 O   0  0  0  0  0  0  0  0  0  0  0  0
   -1.4145   -0.1972    1.4153 C   0  0  0  0  0  0  0  0  0  0  0  0
   -0.3486    0.0985    2.0159 O   0  0  0  0  0  0  0  0  0  0  0  0
   -2.5425    0.5805    1.9146 C   0  0  0  0  0  0  0  0  0  0  0  0
   -2.3833    1.5252    2.9042 C   0  0  0  0  0  0  0  0  0  0  0  0
   -3.4368    2.2922    3.4202 C   0  0  0  0  0  0  0  0  0  0  0  0
   -4.7067    2.1080    2.9263 C   0  0  0  0  0  0  0  0  0  0  0  0
   -4.9098    1.1838    1.9468 C   0  0  0  0  0  0  0  0  0  0  0  0
   -3.8437    0.4625    1.4800 C   0  0  0  0  0  0  0  0  0  0  0  0
   -1.9115   -0.6131   -0.9805 C   0  0  0  0  0  0  0  0  0  0  0  0
   -2.9331   -0.8795   -1.8412 C   0  0  0  0  0  0  0  0  0  0  0  0
   -3.0611   -0.1690   -3.0128 C   0  0  0  0  0  0  0  0  0  0  0  0
   -2.1757    0.8254   -3.3584 C   0  0  0  0  0  0  0  0  0  0  0  0
   -1.1361    1.1093   -2.5009 C   0  0  0  0  0  0  0  0  0  0  0  0
   -0.9942    0.3943   -1.3060 C   0  0  0  0  0  0  0  0  0  0  0  0
   -2.4642   -1.7967    0.6024 H   0  0  0  0  0  0  0  0  0  0  0  0
   -0.7197   -2.9707   -0.5328 H   0  0  0  0  0  0  0  0  0  0  0  0
   -0.5082   -2.8177    1.2116 H   0  0  0  0  0  0  0  0  0  0  0  0
    1.6539   -1.7076    1.9995 H   0  0  0  0  0  0  0  0  0  0  0  0
    2.9271   -1.1967   -2.6576 H   0  0  0  0  0  0  0  0  0  0  0  0
    0.6727   -1.8280   -2.1311 H   0  0  0  0  0  0  0  0  0  0  0  0
    4.9167    2.5305   -1.7445 H   0  0  0  0  0  0  0  0  0  0  0  0
    6.4353    1.6220    1.4708 H   0  0  0  0  0  0  0  0  0  0  0  0
   -1.4367    1.7391    3.3495 H   0  0  0  0  0  0  0  0  0  0  0  0
   -3.2819    3.0272    4.1977 H   0  0  0  0  0  0  0  0  0  0  0  0
   -5.5253    2.6927    3.3157 H   0  0  0  0  0  0  0  0  0  0  0  0
   -5.9116    1.0470    1.5657 H   0  0  0  0  0  0  0  0  0  0  0  0
   -4.0729   -0.2551    0.7086 H   0  0  0  0  0  0  0  0  0  0  0  0
   -3.5557   -1.6792   -1.4545 H   0  0  0  0  0  0  0  0  0  0  0  0
   -3.8926   -0.4466   -3.6264 H   0  0  0  0  0  0  0  0  0  0  0  0
   -2.3417    1.3420   -4.2990 H   0  0  0  0  0  0  0  0  0  0  0  0
   -0.4874    1.9013   -2.8448 H   0  0  0  0  0  0  0  0  0  0  0  0
   -0.1197    0.7646   -0.7672 H   0  0  0  0  0  0  0  0  0  0  0  0
  1  2  1  0
  2  3  1  0
  3  4  2  0
  4  5  1  0
  5  6  1  0
  5  7  2  0
  7  8  1  0
  8  9  2  0
  7 10  1  0
 10 11  1  0
 10 12  1  0
 10 13  1  0
 13 14  1  0
 13 15  1  0
 13 16  2  0
  1 17  1  0
 17 18  2  0
 17 19  1  0
 19 20  2  0
 20 21  1  0
 21 22  2  0
 22 23  1  0
 23 24  2  0
  1 25  1  0
 25 26  2  0
 26 27  1  0
 27 28  2  0
 28 29  1  0
 29 30  2  0
  9  3  1  0
 24 19  1  0
 30 25  1  0
  1 31  1  1
  2 32  1  0
  2 33  1  0
  4 34  1  0
  8 35  1  0
  9 36  1  0
 14 37  1  0
 15 38  1  0
 20 39  1  0
 21 40  1  0
 22 41  1  0
 23 42  1  0
 24 43  1  0
 26 44  1  0
 27 45  1  0
 28 46  1  0
 29 47  1  0
 30 48  1  0
M  END
$$$$
