
     RDKit          3D

 51 54  0  0  0  0  0  0  0  0999 V2000
    4.5442   -3.3411    0.6952 C   0  0  0  0  0  0  0  0  0  0  0  0
    5.0983   -2.0952    1.3252 C   0  0  0  0  0  0  0  0  0  0  0  0
    6.5792   -2.0011    1.1444 C   0  0  0  0  0  0  0  0  0  0  0  0
    4.4392   -0.9224    0.7410 N   0  0  0  0  0  0  0  0  0  0  0  0
    3.0971   -0.7319    0.7597 C   0  0  0  0  0  0  0  0  0  0  0  0
    2.8051    0.4586    0.1321 C   0  0  0  0  0  0  0  0  0  0  0  0
    1.4711    1.0605   -0.0761 C   0  0  0  0  0  0  0  0  0  0  0  0
    1.4472    2.2682   -0.7378 C   0  0  0  0  0  0  0  0  0  0  0  0
    0.1959    2.8339   -0.9336 C   0  0  0  0  0  0  0  0  0  0  0  0
   -0.1637    3.9835   -1.5325 N   0  0  0  0  0  0  0  0  0  0  0  0
   -1.4618    4.0918   -1.4726 N   0  0  0  0  0  0  0  0  0  0  0  0
   -2.2169    5.1953   -2.0097 C   0  0  0  0  0  0  0  0  0  0  0  0
   -1.9917    3.0263   -0.8381 C   0  0  0  0  0  0  0  0  0  0  0  0
   -0.9491    2.2115   -0.4862 C   0  0  0  0  0  0  0  0  0  0  0  0
   -0.9051    0.9861    0.1835 C   0  0  0  0  0  0  0  0  0  0  0  0
   -1.9576    0.3133    0.6501 O   0  0  0  0  0  0  0  0  0  0  0  0
   -3.2581    0.2328    0.8141 C   0  0  2  0  0  0  0  0  0  0  0  0
   -3.7073    0.1773    2.3013 C   0  0  0  0  0  0  0  0  0  0  0  0
   -3.9312   -1.0030    0.2118 C   0  0  1  0  0  0  0  0  0  0  0  0
   -3.7372   -1.0981   -1.2640 C   0  0  0  0  0  0  0  0  0  0  0  0
   -3.9637   -2.5129   -1.5170 N   0  0  0  0  0  0  0  0  0  0  0  0
   -3.7269   -3.2506   -0.3278 C   0  0  0  0  0  0  0  0  0  0  0  0
   -3.8170   -4.4904   -0.1756 O   0  0  0  0  0  0  0  0  0  0  0  0
   -3.3459   -2.2781    0.7264 C   0  0  0  0  0  0  0  0  0  0  0  0
    0.3662    0.4606    0.3553 N   0  0  0  0  0  0  0  0  0  0  0  0
    4.0172    0.9715   -0.2613 C   0  0  0  0  0  0  0  0  0  0  0  0
    4.9910    0.1079    0.1239 N   0  0  0  0  0  0  0  0  0  0  0  0
    5.1211   -3.5436   -0.2300 H   0  0  0  0  0  0  0  0  0  0  0  0
    3.4798   -3.1544    0.4527 H   0  0  0  0  0  0  0  0  0  0  0  0
    4.6770   -4.2357    1.3490 H   0  0  0  0  0  0  0  0  0  0  0  0
    4.8590   -2.1213    2.4084 H   0  0  0  0  0  0  0  0  0  0  0  0
    6.8198   -1.3562    0.2572 H   0  0  0  0  0  0  0  0  0  0  0  0
    7.0462   -2.9918    1.0342 H   0  0  0  0  0  0  0  0  0  0  0  0
    7.0820   -1.4918    2.0059 H   0  0  0  0  0  0  0  0  0  0  0  0
    2.3703   -1.3928    1.1898 H   0  0  0  0  0  0  0  0  0  0  0  0
    2.3271    2.7603   -1.0893 H   0  0  0  0  0  0  0  0  0  0  0  0
   -1.7544    6.1263   -1.6296 H   0  0  0  0  0  0  0  0  0  0  0  0
   -3.2828    5.1831   -1.7104 H   0  0  0  0  0  0  0  0  0  0  0  0
   -2.1434    5.2203   -3.1151 H   0  0  0  0  0  0  0  0  0  0  0  0
   -3.0256    2.8508   -0.6465 H   0  0  0  0  0  0  0  0  0  0  0  0
   -3.8401    1.0803    0.4020 H   0  0  0  0  0  0  0  0  0  0  0  0
   -3.0049   -0.4273    2.8886 H   0  0  0  0  0  0  0  0  0  0  0  0
   -3.7744    1.2130    2.6880 H   0  0  0  0  0  0  0  0  0  0  0  0
   -4.7247   -0.2522    2.3722 H   0  0  0  0  0  0  0  0  0  0  0  0
   -4.9925   -0.9647    0.4524 H   0  0  0  0  0  0  0  0  0  0  0  0
   -4.4693   -0.4491   -1.7671 H   0  0  0  0  0  0  0  0  0  0  0  0
   -2.6911   -0.8928   -1.5677 H   0  0  0  0  0  0  0  0  0  0  0  0
   -4.2549   -2.8961   -2.4409 H   0  0  0  0  0  0  0  0  0  0  0  0
   -2.2191   -2.2534    0.7243 H   0  0  0  0  0  0  0  0  0  0  0  0
   -3.7094   -2.5714    1.7269 H   0  0  0  0  0  0  0  0  0  0  0  0
    4.1857    1.9062   -0.7906 H   0  0  0  0  0  0  0  0  0  0  0  0
  1  2  1  0
  2  3  1  0
  2  4  1  0
  4  5  1  0
  5  6  2  0
  6  7  1  0
  7  8  2  0
  8  9  1  0
  9 10  2  0
 10 11  1  0
 11 12  1  0
 11 13  1  0
 13 14  2  0
 14 15  1  0
 15 16  1  0
 16 17  1  0
 17 18  1  0
 17 19  1  0
 19 20  1  0
 20 21  1  0
 21 22  1  0
 22 23  2  0
 22 24  1  0
 15 25  2  0
  6 26  1  0
 26 27  2  0
 27  4  1  0
 25  7  1  0
 14  9  1  0
 24 19  1  0
  1 28  1  0
  1 29  1  0
  1 30  1  0
  2 31  1  0
  3 32  1  0
  3 33  1  0
  3 34  1  0
  5 35  1  0
  8 36  1  0
 12 37  1  0
 12 38  1  0
 12 39  1  0
 13 40  1  0
 17 41  1  6
 18 42  1  0
 18 43  1  0
 18 44  1  0
 19 45  1  6
 20 46  1  0
 20 47  1  0
 21 48  1  0
 24 49  1  0
 24 50  1  0
 26 51  1  0
M  END
$$$$
