
     RDKit          3D

 68 72  0  0  0  0  0  0  0  0999 V2000
    0.9586   -2.4653   -1.5728 C   0  0  1  0  0  0  0  0  0  0  0  0
    2.0999   -2.4550   -2.2915 O   0  0  0  0  0  0  0  0  0  0  0  0
    0.9799   -3.3451   -0.3188 C   0  0  0  0  0  0  0  0  0  0  0  0
   -0.2433   -2.8933    0.4775 C   0  0  0  0  0  0  0  0  0  0  0  0
   -0.8098   -1.7838   -0.3515 C   0  0  1  0  0  0  0  0  0  0  0  0
   -1.6248   -0.7836    0.3722 C   0  0  2  0  0  0  0  0  0  0  0  0
   -2.8167   -1.4810    0.9423 C   0  0  0  0  0  0  0  0  0  0  0  0
   -4.0424   -0.6582    1.0981 C   0  0  0  0  0  0  0  0  0  0  0  0
   -4.2972    0.3707    0.0453 C   0  0  1  0  0  0  0  0  0  0  0  0
   -5.4923    1.1826    0.4343 C   0  0  0  0  0  0  0  0  0  0  0  0
   -5.3834    2.6013    0.0098 C   0  0  0  0  0  0  0  0  0  0  0  0
   -6.1786    3.3941    0.5006 O   0  0  0  0  0  0  0  0  0  0  0  0
   -4.4104    3.1704   -0.9508 C   0  0  0  0  0  0  0  0  0  0  0  0
   -3.2620    2.2425   -1.2474 C   0  0  0  0  0  0  0  0  0  0  0  0
   -3.0495    1.2023   -0.1998 C   0  0  1  0  0  0  0  0  0  0  0  0
   -2.5950    1.8984    1.0633 C   0  0  0  0  0  0  0  0  0  0  0  0
   -2.0333    0.2248   -0.6949 C   0  0  1  0  0  0  0  0  0  0  0  0
   -0.8526    0.8526   -1.3483 C   0  0  0  0  0  0  0  0  0  0  0  0
    0.0391   -0.1690   -1.9775 C   0  0  0  0  0  0  0  0  0  0  0  0
    0.4779   -1.1955   -0.9689 C   0  0  2  0  0  0  0  0  0  0  0  0
    1.2801   -0.5779    0.1042 C   0  0  0  0  0  0  0  0  0  0  0  0
    2.6630   -0.1827   -0.2371 C   0  0  0  0  0  0  0  0  0  0  0  0
    3.5290   -1.1559   -0.6360 O   0  0  0  0  0  0  0  0  0  0  0  0
    4.8125   -0.6522   -0.9322 C   0  0  0  0  0  0  0  0  0  0  0  0
    5.4573    0.0084    0.2044 C   0  0  0  0  0  0  0  0  0  0  0  0
    5.3216    1.3721    0.4770 C   0  0  0  0  0  0  0  0  0  0  0  0
    5.8824    2.0716    1.5081 C   0  0  0  0  0  0  0  0  0  0  0  0
    5.6427    3.3937    1.6195 F   0  0  0  0  0  0  0  0  0  0  0  0
    6.6729    1.3330    2.3742 C   0  0  0  0  0  0  0  0  0  0  0  0
    6.8624   -0.0153    2.1828 C   0  0  0  0  0  0  0  0  0  0  0  0
    7.6555   -0.6613    3.0841 F   0  0  0  0  0  0  0  0  0  0  0  0
    6.2653   -0.6689    1.1160 C   0  0  0  0  0  0  0  0  0  0  0  0
    0.0867   -2.8365   -2.2096 H   0  0  0  0  0  0  0  0  0  0  0  0
    1.8997   -2.5242   -3.2569 H   0  0  0  0  0  0  0  0  0  0  0  0
    0.9353   -4.4177   -0.5907 H   0  0  0  0  0  0  0  0  0  0  0  0
    1.9173   -3.1869    0.2145 H   0  0  0  0  0  0  0  0  0  0  0  0
   -0.9551   -3.7551    0.4440 H   0  0  0  0  0  0  0  0  0  0  0  0
   -0.0324   -2.6594    1.5182 H   0  0  0  0  0  0  0  0  0  0  0  0
   -1.3946   -2.1933   -1.1767 H   0  0  0  0  0  0  0  0  0  0  0  0
   -1.1394   -0.2289    1.1769 H   0  0  0  0  0  0  0  0  0  0  0  0
   -2.5343   -1.8403    1.9660 H   0  0  0  0  0  0  0  0  0  0  0  0
   -3.0316   -2.4141    0.3706 H   0  0  0  0  0  0  0  0  0  0  0  0
   -4.1448   -0.1980    2.1241 H   0  0  0  0  0  0  0  0  0  0  0  0
   -4.9175   -1.3665    1.0480 H   0  0  0  0  0  0  0  0  0  0  0  0
   -4.5238   -0.1172   -0.9190 H   0  0  0  0  0  0  0  0  0  0  0  0
   -6.4256    0.7867   -0.0468 H   0  0  0  0  0  0  0  0  0  0  0  0
   -5.5733    1.1687    1.5269 H   0  0  0  0  0  0  0  0  0  0  0  0
   -4.9487    3.4245   -1.8870 H   0  0  0  0  0  0  0  0  0  0  0  0
   -4.0660    4.1564   -0.5276 H   0  0  0  0  0  0  0  0  0  0  0  0
   -2.3461    2.8894   -1.2487 H   0  0  0  0  0  0  0  0  0  0  0  0
   -3.3744    1.8061   -2.2591 H   0  0  0  0  0  0  0  0  0  0  0  0
   -3.1715    2.8258    1.1656 H   0  0  0  0  0  0  0  0  0  0  0  0
   -2.7613    1.2999    1.9835 H   0  0  0  0  0  0  0  0  0  0  0  0
   -1.4815    2.0582    1.0158 H   0  0  0  0  0  0  0  0  0  0  0  0
   -2.5458   -0.3824   -1.4852 H   0  0  0  0  0  0  0  0  0  0  0  0
   -1.2687    1.4513   -2.2143 H   0  0  0  0  0  0  0  0  0  0  0  0
   -0.3234    1.6099   -0.7357 H   0  0  0  0  0  0  0  0  0  0  0  0
    0.9157    0.3781   -2.3896 H   0  0  0  0  0  0  0  0  0  0  0  0
   -0.4610   -0.6515   -2.8141 H   0  0  0  0  0  0  0  0  0  0  0  0
    1.3229   -1.2223    1.0207 H   0  0  0  0  0  0  0  0  0  0  0  0
    0.6894    0.3201    0.4639 H   0  0  0  0  0  0  0  0  0  0  0  0
    3.1227    0.2794    0.6911 H   0  0  0  0  0  0  0  0  0  0  0  0
    2.7262    0.6428   -0.9835 H   0  0  0  0  0  0  0  0  0  0  0  0
    5.4230   -1.4250   -1.4207 H   0  0  0  0  0  0  0  0  0  0  0  0
    4.6136    0.1101   -1.7407 H   0  0  0  0  0  0  0  0  0  0  0  0
    4.6914    1.9122   -0.2300 H   0  0  0  0  0  0  0  0  0  0  0  0
    7.1364    1.8560    3.2075 H   0  0  0  0  0  0  0  0  0  0  0  0
    6.4318   -1.7305    0.9898 H   0  0  0  0  0  0  0  0  0  0  0  0
  1  2  1  0
  1  3  1  0
  3  4  1  0
  4  5  1  0
  5  6  1  0
  6  7  1  0
  7  8  1  0
  8  9  1  0
  9 10  1  0
 10 11  1  0
 11 12  2  0
 11 13  1  0
 13 14  1  0
 14 15  1  0
 15 16  1  1
 15 17  1  0
 17 18  1  0
 18 19  1  0
 19 20  1  0
 20 21  1  1
 21 22  1  0
 22 23  1  0
 23 24  1  0
 24 25  1  0
 25 26  2  0
 26 27  1  0
 27 28  1  0
 27 29  2  0
 29 30  1  0
 30 31  1  0
 30 32  2  0
 20  1  1  0
 32 25  1  0
 20  5  1  0
 17  6  1  0
 15  9  1  0
  1 33  1  6
  2 34  1  0
  3 35  1  0
  3 36  1  0
  4 37  1  0
  4 38  1  0
  5 39  1  6
  6 40  1  1
  7 41  1  0
  7 42  1  0
  8 43  1  0
  8 44  1  0
  9 45  1  6
 10 46  1  0
 10 47  1  0
 13 48  1  0
 13 49  1  0
 14 50  1  0
 14 51  1  0
 16 52  1  0
 16 53  1  0
 16 54  1  0
 17 55  1  6
 18 56  1  0
 18 57  1  0
 19 58  1  0
 19 59  1  0
 21 60  1  0
 21 61  1  0
 22 62  1  0
 22 63  1  0
 24 64  1  0
 24 65  1  0
 26 66  1  0
 29 67  1  0
 32 68  1  0
M  END
$$$$
