
     RDKit          3D

 53 56  0  0  0  0  0  0  0  0999 V2000
   -7.5163   -0.7171    2.3846 F   0  0  0  0  0  0  0  0  0  0  0  0
   -6.7467    0.0522    1.5474 C   0  0  0  0  0  0  0  0  0  0  0  0
   -5.7242   -0.5298    0.8152 C   0  0  0  0  0  0  0  0  0  0  0  0
   -5.4467   -1.8789    0.8990 C   0  0  0  0  0  0  0  0  0  0  0  0
   -6.1487   -2.5967    1.6666 O   0  0  0  0  0  0  0  0  0  0  0  0
   -4.4429   -2.3478    0.1562 N   0  0  0  0  0  0  0  0  0  0  0  0
   -3.7186   -1.5488   -0.6496 C   0  0  0  0  0  0  0  0  0  0  0  0
   -2.7954   -2.1497   -1.2926 O   0  0  0  0  0  0  0  0  0  0  0  0
   -3.9415   -0.2072   -0.7781 N   0  0  0  0  0  0  0  0  0  0  0  0
   -3.1254    0.5703   -1.6567 C   0  0  0  0  0  0  0  0  0  0  0  0
   -1.8954    1.1527   -1.0049 C   0  0  0  0  0  0  0  0  0  0  0  0
   -0.9606    0.1350   -0.4367 C   0  0  0  0  0  0  0  0  0  0  0  0
    0.1968    0.9042    0.1656 C   0  0  0  0  0  0  0  0  0  0  0  0
    1.1902    0.0282    0.7591 N   0  0  0  0  0  0  0  0  0  0  0  0
    2.2322    0.8669    1.2951 C   0  0  0  0  0  0  0  0  0  0  0  0
    3.2767    1.0546    0.1864 C   0  0  0  0  0  0  0  0  0  0  0  0
    3.9607   -0.2555    0.0806 C   0  0  0  0  0  0  0  0  0  0  0  0
    3.1037   -1.2444   -0.0950 C   0  0  0  0  0  0  0  0  0  0  0  0
    1.6638   -0.9573   -0.1619 C   0  0  0  0  0  0  0  0  0  0  0  0
    5.3948   -0.4581    0.1569 C   0  0  0  0  0  0  0  0  0  0  0  0
    5.9919   -1.6877    0.0555 C   0  0  0  0  0  0  0  0  0  0  0  0
    7.3570   -1.8706    0.1289 C   0  0  0  0  0  0  0  0  0  0  0  0
    8.2036   -0.8205    0.3097 C   0  0  0  0  0  0  0  0  0  0  0  0
    7.6450    0.4411    0.4175 C   0  0  0  0  0  0  0  0  0  0  0  0
    6.2761    0.5789    0.3385 C   0  0  0  0  0  0  0  0  0  0  0  0
   -4.9588    0.2419   -0.0190 C   0  0  0  0  0  0  0  0  0  0  0  0
   -5.2436    1.5886   -0.0958 C   0  0  0  0  0  0  0  0  0  0  0  0
   -6.2540    2.1979    0.6196 C   0  0  0  0  0  0  0  0  0  0  0  0
   -7.0252    1.4148    1.4614 C   0  0  0  0  0  0  0  0  0  0  0  0
   -4.2562   -3.3682    0.2394 H   0  0  0  0  0  0  0  0  0  0  0  0
   -3.6289    1.3528   -2.2252 H   0  0  0  0  0  0  0  0  0  0  0  0
   -2.7193   -0.1321   -2.4445 H   0  0  0  0  0  0  0  0  0  0  0  0
   -1.3538    1.6882   -1.8144 H   0  0  0  0  0  0  0  0  0  0  0  0
   -2.1142    1.8772   -0.2169 H   0  0  0  0  0  0  0  0  0  0  0  0
   -1.4617   -0.4384    0.3968 H   0  0  0  0  0  0  0  0  0  0  0  0
   -0.5539   -0.5613   -1.1732 H   0  0  0  0  0  0  0  0  0  0  0  0
    0.6939    1.4055   -0.7120 H   0  0  0  0  0  0  0  0  0  0  0  0
   -0.1040    1.7178    0.8346 H   0  0  0  0  0  0  0  0  0  0  0  0
    1.7978    1.8345    1.6077 H   0  0  0  0  0  0  0  0  0  0  0  0
    2.7333    0.3824    2.1789 H   0  0  0  0  0  0  0  0  0  0  0  0
    3.9440    1.8779    0.4302 H   0  0  0  0  0  0  0  0  0  0  0  0
    2.7276    1.2586   -0.7667 H   0  0  0  0  0  0  0  0  0  0  0  0
    3.4251   -2.2713   -0.1928 H   0  0  0  0  0  0  0  0  0  0  0  0
    1.4858   -0.5448   -1.1945 H   0  0  0  0  0  0  0  0  0  0  0  0
    1.0537   -1.8909   -0.0299 H   0  0  0  0  0  0  0  0  0  0  0  0
    5.4121   -2.5859   -0.0891 H   0  0  0  0  0  0  0  0  0  0  0  0
    7.7960   -2.8533    0.0453 H   0  0  0  0  0  0  0  0  0  0  0  0
    9.2614   -0.9780    0.3648 H   0  0  0  0  0  0  0  0  0  0  0  0
    8.3255    1.2685    0.5608 H   0  0  0  0  0  0  0  0  0  0  0  0
    5.9498    1.6014    0.4345 H   0  0  0  0  0  0  0  0  0  0  0  0
   -4.6840    2.2426   -0.7269 H   0  0  0  0  0  0  0  0  0  0  0  0
   -6.4507    3.2699    0.5329 H   0  0  0  0  0  0  0  0  0  0  0  0
   -7.8276    1.8899    2.0316 H   0  0  0  0  0  0  0  0  0  0  0  0
  1  2  1  0
  2  3  2  0
  3  4  1  0
  4  5  2  0
  4  6  1  0
  6  7  1  0
  7  8  2  0
  7  9  1  0
  9 10  1  0
 10 11  1  0
 11 12  1  0
 12 13  1  0
 13 14  1  0
 14 15  1  0
 15 16  1  0
 16 17  1  0
 17 18  2  0
 18 19  1  0
 17 20  1  0
 20 21  2  0
 21 22  1  0
 22 23  2  0
 23 24  1  0
 24 25  2  0
  9 26  1  0
 26 27  2  0
 27 28  1  0
 28 29  2  0
 29  2  1  0
 26  3  1  0
 19 14  1  0
 25 20  1  0
  6 30  1  0
 10 31  1  0
 10 32  1  0
 11 33  1  0
 11 34  1  0
 12 35  1  0
 12 36  1  0
 13 37  1  0
 13 38  1  0
 15 39  1  0
 15 40  1  0
 16 41  1  0
 16 42  1  0
 18 43  1  0
 19 44  1  0
 19 45  1  0
 21 46  1  0
 22 47  1  0
 23 48  1  0
 24 49  1  0
 25 50  1  0
 27 51  1  0
 28 52  1  0
 29 53  1  0
M  END
$$$$
