
     RDKit          3D

 72 77  0  0  0  0  0  0  0  0999 V2000
   10.3457    0.2344    0.2193 C   0  0  0  0  0  0  0  0  0  0  0  0
    9.0138    0.2876    0.7284 N   0  0  0  0  0  0  0  0  0  0  0  0
    8.3678    1.5536    0.6330 C   0  0  0  0  0  0  0  0  0  0  0  0
    7.6487    1.7775   -0.6655 C   0  0  0  0  0  0  0  0  0  0  0  0
    7.4468    0.5375   -1.4738 C   0  0  0  0  0  0  0  0  0  0  0  0
    7.0841   -0.5915   -0.5325 C   0  0  0  0  0  0  0  0  0  0  0  0
    8.2048   -0.8456    0.4501 C   0  0  0  0  0  0  0  0  0  0  0  0
    5.8112   -0.3552    0.2120 C   0  0  0  0  0  0  0  0  0  0  0  0
    4.8011   -1.0828   -0.5128 N   0  0  0  0  0  0  0  0  0  0  0  0
    3.3983   -1.0127   -0.2592 C   0  0  0  0  0  0  0  0  0  0  0  0
    2.5861   -0.1048   -0.8826 C   0  0  0  0  0  0  0  0  0  0  0  0
    1.2274   -0.0635   -0.6121 C   0  0  0  0  0  0  0  0  0  0  0  0
    0.6851   -0.9317    0.2824 C   0  0  0  0  0  0  0  0  0  0  0  0
   -0.6823   -0.9617    0.6180 N   0  0  0  0  0  0  0  0  0  0  0  0
   -1.7077   -0.1346    0.1084 C   0  0  0  0  0  0  0  0  0  0  0  0
   -1.5159    0.8185   -0.8074 N   0  0  0  0  0  0  0  0  0  0  0  0
   -2.4684    1.6049   -1.2951 C   0  0  0  0  0  0  0  0  0  0  0  0
   -3.7457    1.4112   -0.8103 C   0  0  0  0  0  0  0  0  0  0  0  0
   -4.9680    2.0000   -1.0522 C   0  0  0  0  0  0  0  0  0  0  0  0
   -5.9201    1.3895   -0.2653 C   0  0  0  0  0  0  0  0  0  0  0  0
   -7.3241    1.7755   -0.2784 C   0  0  0  0  0  0  0  0  0  0  0  0
   -7.8525    2.1909    0.7834 O   0  0  0  0  0  0  0  0  0  0  0  0
   -8.0990    1.6895   -1.4660 N   0  0  0  0  0  0  0  0  0  0  0  0
   -7.4642    1.2052   -2.6833 C   0  0  0  0  0  0  0  0  0  0  0  0
   -9.4829    2.0546   -1.5389 C   0  0  0  0  0  0  0  0  0  0  0  0
   -5.3206    0.4319    0.4634 N   0  0  0  0  0  0  0  0  0  0  0  0
   -5.9798   -0.4445    1.4224 C   0  0  0  0  0  0  0  0  0  0  0  0
   -5.3769   -0.3252    2.8058 C   0  0  0  0  0  0  0  0  0  0  0  0
   -5.7047   -1.7103    3.3769 C   0  0  0  0  0  0  0  0  0  0  0  0
   -5.2096   -2.5982    2.2340 C   0  0  0  0  0  0  0  0  0  0  0  0
   -5.8268   -1.9123    1.0335 C   0  0  0  0  0  0  0  0  0  0  0  0
   -3.9975    0.4289    0.1465 C   0  0  0  0  0  0  0  0  0  0  0  0
   -2.9877   -0.3160    0.5825 N   0  0  0  0  0  0  0  0  0  0  0  0
    1.5367   -1.8290    0.8873 N   0  0  0  0  0  0  0  0  0  0  0  0
    2.8338   -1.8930    0.6508 C   0  0  0  0  0  0  0  0  0  0  0  0
    5.4830   -1.8481   -1.4856 C   0  0  0  0  0  0  0  0  0  0  0  0
    4.9041   -2.4601   -2.4425 O   0  0  0  0  0  0  0  0  0  0  0  0
    6.8641   -1.8108   -1.2130 O   0  0  0  0  0  0  0  0  0  0  0  0
   10.4682   -0.6573   -0.4557 H   0  0  0  0  0  0  0  0  0  0  0  0
   10.6909    1.1476   -0.2744 H   0  0  0  0  0  0  0  0  0  0  0  0
   11.0205    0.0051    1.0960 H   0  0  0  0  0  0  0  0  0  0  0  0
    7.6536    1.6707    1.4859 H   0  0  0  0  0  0  0  0  0  0  0  0
    9.1556    2.3385    0.8021 H   0  0  0  0  0  0  0  0  0  0  0  0
    6.6637    2.2793   -0.5417 H   0  0  0  0  0  0  0  0  0  0  0  0
    8.2696    2.5000   -1.2697 H   0  0  0  0  0  0  0  0  0  0  0  0
    6.6300    0.6860   -2.1921 H   0  0  0  0  0  0  0  0  0  0  0  0
    8.3839    0.2484   -1.9851 H   0  0  0  0  0  0  0  0  0  0  0  0
    7.7528   -1.2709    1.3663 H   0  0  0  0  0  0  0  0  0  0  0  0
    8.8812   -1.6558    0.0495 H   0  0  0  0  0  0  0  0  0  0  0  0
    5.5305    0.7219    0.1871 H   0  0  0  0  0  0  0  0  0  0  0  0
    5.8700   -0.6574    1.2821 H   0  0  0  0  0  0  0  0  0  0  0  0
    3.0252    0.5813   -1.5917 H   0  0  0  0  0  0  0  0  0  0  0  0
    0.6262    0.6803   -1.1365 H   0  0  0  0  0  0  0  0  0  0  0  0
   -1.0108   -1.6849    1.3397 H   0  0  0  0  0  0  0  0  0  0  0  0
   -2.2438    2.3554   -2.0341 H   0  0  0  0  0  0  0  0  0  0  0  0
   -5.0818    2.8097   -1.7636 H   0  0  0  0  0  0  0  0  0  0  0  0
   -6.5305    0.6621   -2.4451 H   0  0  0  0  0  0  0  0  0  0  0  0
   -7.2853    2.0791   -3.3260 H   0  0  0  0  0  0  0  0  0  0  0  0
   -8.1453    0.5075   -3.2163 H   0  0  0  0  0  0  0  0  0  0  0  0
  -10.1022    1.1161   -1.4664 H   0  0  0  0  0  0  0  0  0  0  0  0
   -9.6739    2.5175   -2.5344 H   0  0  0  0  0  0  0  0  0  0  0  0
   -9.7678    2.7848   -0.7484 H   0  0  0  0  0  0  0  0  0  0  0  0
   -7.0584   -0.2296    1.4595 H   0  0  0  0  0  0  0  0  0  0  0  0
   -5.8286    0.4689    3.4112 H   0  0  0  0  0  0  0  0  0  0  0  0
   -4.2934   -0.2872    2.7018 H   0  0  0  0  0  0  0  0  0  0  0  0
   -6.7957   -1.8267    3.4018 H   0  0  0  0  0  0  0  0  0  0  0  0
   -5.1859   -1.9087    4.3145 H   0  0  0  0  0  0  0  0  0  0  0  0
   -5.5777   -3.6366    2.3482 H   0  0  0  0  0  0  0  0  0  0  0  0
   -4.1065   -2.5163    2.2381 H   0  0  0  0  0  0  0  0  0  0  0  0
   -6.8108   -2.3949    0.8670 H   0  0  0  0  0  0  0  0  0  0  0  0
   -5.2235   -2.0286    0.1161 H   0  0  0  0  0  0  0  0  0  0  0  0
    3.4916   -2.6245    1.1522 H   0  0  0  0  0  0  0  0  0  0  0  0
  1  2  1  0
  2  3  1  0
  3  4  1  0
  4  5  1  0
  5  6  1  0
  6  7  1  0
  6  8  1  0
  8  9  1  0
  9 10  1  0
 10 11  2  0
 11 12  1  0
 12 13  2  0
 13 14  1  0
 14 15  1  0
 15 16  2  0
 16 17  1  0
 17 18  2  0
 18 19  1  0
 19 20  2  0
 20 21  1  0
 21 22  2  0
 21 23  1  0
 23 24  1  0
 23 25  1  0
 20 26  1  0
 26 27  1  0
 27 28  1  0
 28 29  1  0
 29 30  1  0
 30 31  1  0
 26 32  1  0
 32 33  2  0
 13 34  1  0
 34 35  2  0
  9 36  1  0
 36 37  2  0
 36 38  1  0
  7  2  1  0
 35 10  1  0
 38  6  1  0
 33 15  1  0
 32 18  1  0
 31 27  1  0
  1 39  1  0
  1 40  1  0
  1 41  1  0
  3 42  1  0
  3 43  1  0
  4 44  1  0
  4 45  1  0
  5 46  1  0
  5 47  1  0
  7 48  1  0
  7 49  1  0
  8 50  1  0
  8 51  1  0
 11 52  1  0
 12 53  1  0
 14 54  1  0
 17 55  1  0
 19 56  1  0
 24 57  1  0
 24 58  1  0
 24 59  1  0
 25 60  1  0
 25 61  1  0
 25 62  1  0
 27 63  1  0
 28 64  1  0
 28 65  1  0
 29 66  1  0
 29 67  1  0
 30 68  1  0
 30 69  1  0
 31 70  1  0
 31 71  1  0
 35 72  1  0
M  END
$$$$
