
     RDKit          3D

 32 33  0  0  0  0  0  0  0  0999 V2000
   -2.3927    0.2711   -0.8533 C   0  0  1  0  0  0  0  0  0  0  0  0
   -3.8571    0.7326   -0.8772 C   0  0  0  0  0  0  0  0  0  0  0  0
   -1.6294    1.3786   -1.2222 O   0  0  0  0  0  0  0  0  0  0  0  0
   -2.1512   -0.1948    0.5477 C   0  0  1  0  0  0  0  0  0  0  0  0
   -2.9477   -1.3157    0.8676 O   0  0  0  0  0  0  0  0  0  0  0  0
   -0.7219   -0.5231    0.8707 C   0  0  1  0  0  0  0  0  0  0  0  0
   -0.2549   -1.8259    0.3385 C   0  0  0  0  0  0  0  0  0  0  0  0
    1.1226   -1.8029   -0.1178 N   0  0  0  0  0  0  0  0  0  0  0  0
    2.0144   -0.7030   -0.2445 C   0  0  0  0  0  0  0  0  0  0  0  0
    1.4747    0.5179    0.1072 C   0  0  0  0  0  0  0  0  0  0  0  0
    0.1278    0.6091    0.5538 N   0  0  0  0  0  0  0  0  0  0  0  0
    2.2985    1.6290    0.0040 C   0  0  0  0  0  0  0  0  0  0  0  0
    1.8051    2.8782    0.3448 O   0  0  0  0  0  0  0  0  0  0  0  0
    3.5601    1.4475   -0.4284 N   0  0  0  0  0  0  0  0  0  0  0  0
    4.0325    0.2274   -0.7582 C   0  0  0  0  0  0  0  0  0  0  0  0
    5.2707    0.1372   -1.1698 N   0  0  0  0  0  0  0  0  0  0  0  0
    3.2588   -0.8934   -0.6726 N   0  0  0  0  0  0  0  0  0  0  0  0
   -2.2253   -0.5067   -1.6154 H   0  0  0  0  0  0  0  0  0  0  0  0
   -4.1033    1.2235    0.0966 H   0  0  0  0  0  0  0  0  0  0  0  0
   -4.5459   -0.0825   -1.1118 H   0  0  0  0  0  0  0  0  0  0  0  0
   -4.0123    1.5197   -1.6391 H   0  0  0  0  0  0  0  0  0  0  0  0
   -2.1632    2.0526   -1.7186 H   0  0  0  0  0  0  0  0  0  0  0  0
   -2.4742    0.6115    1.2384 H   0  0  0  0  0  0  0  0  0  0  0  0
   -2.5717   -1.7755    1.6612 H   0  0  0  0  0  0  0  0  0  0  0  0
   -0.6920   -0.6063    1.9963 H   0  0  0  0  0  0  0  0  0  0  0  0
   -0.2994   -2.6442    1.1154 H   0  0  0  0  0  0  0  0  0  0  0  0
   -0.9057   -2.2358   -0.4847 H   0  0  0  0  0  0  0  0  0  0  0  0
    1.4970   -2.7514   -0.3902 H   0  0  0  0  0  0  0  0  0  0  0  0
   -0.2396    1.5603    0.6483 H   0  0  0  0  0  0  0  0  0  0  0  0
    2.3985    3.6904    0.1497 H   0  0  0  0  0  0  0  0  0  0  0  0
    5.6772   -0.8011   -1.4373 H   0  0  0  0  0  0  0  0  0  0  0  0
    3.6500   -1.8244   -0.9342 H   0  0  0  0  0  0  0  0  0  0  0  0
  1  2  1  0
  1  3  1  0
  1  4  1  0
  4  5  1  0
  4  6  1  0
  6  7  1  0
  7  8  1  0
  8  9  1  0
  9 10  2  0
 10 11  1  0
 10 12  1  0
 12 13  1  0
 12 14  2  0
 14 15  1  0
 15 16  2  3
 15 17  1  0
 11  6  1  0
 17  9  1  0
  1 18  1  6
  2 19  1  0
  2 20  1  0
  2 21  1  0
  3 22  1  0
  4 23  1  1
  5 24  1  0
  6 25  1  1
  7 26  1  0
  7 27  1  0
  8 28  1  0
 11 29  1  0
 13 30  1  0
 16 31  1  0
 17 32  1  0
M  END
$$$$
