
     RDKit          3D

 30 30  0  0  0  0  0  0  0  0999 V2000
    0.7655    0.1021    0.1144 C   0  0  2  0  0  0  0  0  0  0  0  0
    0.0631    0.7152   -1.0281 C   0  0  0  0  0  0  0  0  0  0  0  0
   -1.3851    0.4132   -0.9903 C   0  0  0  0  0  0  0  0  0  0  0  0
   -2.1783   -0.5471   -1.5776 C   0  0  0  0  0  0  0  0  0  0  0  0
   -3.5217   -0.5947   -1.3334 C   0  0  0  0  0  0  0  0  0  0  0  0
   -4.1674    0.2910   -0.5040 C   0  0  0  0  0  0  0  0  0  0  0  0
   -3.3998    1.2613    0.0957 C   0  0  0  0  0  0  0  0  0  0  0  0
   -2.0212    1.3279   -0.1406 C   0  0  0  0  0  0  0  0  0  0  0  0
    2.1898    0.3652    0.1567 N   0  0  0  0  0  0  0  0  0  0  0  0
    2.7038    0.8960    1.3743 C   0  0  0  0  0  0  0  0  0  0  0  0
    4.1147    1.2683    1.7244 C   0  0  0  0  0  0  0  0  0  0  0  0
    2.0242    1.1582    2.4237 O   0  0  0  0  0  0  0  0  0  0  0  0
    0.6468   -1.3790    0.0706 C   0  0  0  0  0  0  0  0  0  0  0  0
    1.8540   -1.0792    0.1053 O   0  0  0  0  0  0  0  0  0  0  0  0
    0.3941   -2.8363    0.0247 C   0  0  0  0  0  0  0  0  0  0  0  0
   -0.2482   -3.1658   -1.1436 F   0  0  0  0  0  0  0  0  0  0  0  0
    1.5767   -3.5282    0.0732 F   0  0  0  0  0  0  0  0  0  0  0  0
   -0.4300   -3.1754    1.0942 F   0  0  0  0  0  0  0  0  0  0  0  0
    0.3202    0.4328    1.1000 H   0  0  0  0  0  0  0  0  0  0  0  0
    0.4039    0.2819   -2.0190 H   0  0  0  0  0  0  0  0  0  0  0  0
    0.2518    1.7995   -1.1641 H   0  0  0  0  0  0  0  0  0  0  0  0
   -1.5813   -1.1744   -2.2110 H   0  0  0  0  0  0  0  0  0  0  0  0
   -4.0108   -1.4086   -1.8689 H   0  0  0  0  0  0  0  0  0  0  0  0
   -5.2140    0.1384   -0.4042 H   0  0  0  0  0  0  0  0  0  0  0  0
   -3.9398    1.9404    0.7408 H   0  0  0  0  0  0  0  0  0  0  0  0
   -1.5796    2.1542    0.4145 H   0  0  0  0  0  0  0  0  0  0  0  0
    3.0119    0.2838   -0.4760 H   0  0  0  0  0  0  0  0  0  0  0  0
    4.1471    2.3547    1.9411 H   0  0  0  0  0  0  0  0  0  0  0  0
    4.4479    0.6309    2.5609 H   0  0  0  0  0  0  0  0  0  0  0  0
    4.7620    1.0735    0.8462 H   0  0  0  0  0  0  0  0  0  0  0  0
  1  2  1  0
  2  3  1  0
  3  4  2  0
  4  5  1  0
  5  6  2  0
  6  7  1  0
  7  8  2  0
  1  9  1  0
  9 10  1  0
 10 11  1  0
 10 12  2  0
  1 13  1  0
 13 14  2  0
 13 15  1  0
 15 16  1  0
 15 17  1  0
 15 18  1  0
  8  3  1  0
  1 19  1  1
  2 20  1  0
  2 21  1  0
  4 22  1  0
  5 23  1  0
  6 24  1  0
  7 25  1  0
  8 26  1  0
  9 27  1  0
 11 28  1  0
 11 29  1  0
 11 30  1  0
M  END
$$$$
