
     RDKit          3D

 73 78  0  0  0  0  0  0  0  0999 V2000
   -2.7215    6.6859    2.5514 C   0  0  0  0  0  0  0  0  0  0  0  0
   -1.9467    5.5130    2.4277 O   0  0  0  0  0  0  0  0  0  0  0  0
   -2.0384    4.6678    1.3322 C   0  0  0  0  0  0  0  0  0  0  0  0
   -1.2631    3.5481    1.2713 C   0  0  0  0  0  0  0  0  0  0  0  0
   -1.2784    2.6360    0.2182 C   0  0  0  0  0  0  0  0  0  0  0  0
   -0.4578    1.4907    0.1888 N   0  0  0  0  0  0  0  0  0  0  0  0
    0.8753    1.3520   -0.3622 C   0  0  0  0  0  0  0  0  0  0  0  0
    1.2379    2.0670   -1.3322 O   0  0  0  0  0  0  0  0  0  0  0  0
    1.5613    0.3465    0.3728 N   0  0  0  0  0  0  0  0  0  0  0  0
    2.8838   -0.1113    0.1590 C   0  0  0  0  0  0  0  0  0  0  0  0
    3.4264   -1.1075    0.9473 C   0  0  0  0  0  0  0  0  0  0  0  0
    4.7213   -1.5562    0.7271 C   0  0  0  0  0  0  0  0  0  0  0  0
    5.5141   -1.0411   -0.2688 C   0  0  0  0  0  0  0  0  0  0  0  0
    6.8855   -1.4922   -0.5508 C   0  0  0  0  0  0  0  0  0  0  0  0
    7.9331   -0.5646   -0.4482 C   0  0  0  0  0  0  0  0  0  0  0  0
    9.2441   -0.8873   -0.6430 C   0  0  0  0  0  0  0  0  0  0  0  0
    9.5602   -2.1816   -0.9550 C   0  0  0  0  0  0  0  0  0  0  0  0
    8.5584   -3.1195   -1.0652 C   0  0  0  0  0  0  0  0  0  0  0  0
    7.2247   -2.7776   -0.8651 C   0  0  0  0  0  0  0  0  0  0  0  0
    6.2163   -3.8025   -1.0527 C   0  0  0  0  0  0  0  0  0  0  0  0
    4.9803   -3.6202   -0.9825 O   0  0  0  0  0  0  0  0  0  0  0  0
    6.6237   -5.1143   -1.3368 O   0  0  0  0  0  0  0  0  0  0  0  0
    4.9832   -0.0516   -1.0555 C   0  0  0  0  0  0  0  0  0  0  0  0
    3.6775    0.4009   -0.8333 C   0  0  0  0  0  0  0  0  0  0  0  0
    0.6122   -0.0982    1.3618 C   0  0  0  0  0  0  0  0  0  0  0  0
    0.8994   -0.5605    2.4735 O   0  0  0  0  0  0  0  0  0  0  0  0
   -0.7184    0.1437    0.7033 C   0  0  0  0  0  0  0  0  0  0  0  0
   -1.8544    0.1685    1.6502 C   0  0  0  0  0  0  0  0  0  0  0  0
   -3.1952   -0.1224    1.0790 C   0  0  0  0  0  0  0  0  0  0  0  0
   -3.2468   -0.4302   -0.2840 N   0  0  0  0  0  0  0  0  0  0  0  0
   -4.2979    0.0975   -1.0720 C   0  0  0  0  0  0  0  0  0  0  0  0
   -5.6053   -0.4062   -0.6028 C   0  0  0  0  0  0  0  0  0  0  0  0
   -6.4180    0.3781    0.1131 N   0  0  0  0  0  0  0  0  0  0  0  0
   -7.6193   -0.0553    0.5500 C   0  0  0  0  0  0  0  0  0  0  0  0
   -8.0783   -1.3300    0.2841 C   0  0  0  0  0  0  0  0  0  0  0  0
   -7.2553   -2.1585   -0.4539 C   0  0  0  0  0  0  0  0  0  0  0  0
   -6.0137   -1.6834   -0.8945 C   0  0  0  0  0  0  0  0  0  0  0  0
   -5.1547   -2.5743   -1.6726 C   0  0  0  0  0  0  0  0  0  0  0  0
   -2.1818   -1.0762   -0.9268 C   0  0  0  0  0  0  0  0  0  0  0  0
   -0.8186   -0.8826   -0.3822 C   0  0  0  0  0  0  0  0  0  0  0  0
   -2.1450    2.9425   -0.7795 N   0  0  0  0  0  0  0  0  0  0  0  0
   -2.9176    4.0433   -0.7358 C   0  0  0  0  0  0  0  0  0  0  0  0
   -2.8755    4.9019    0.2982 N   0  0  0  0  0  0  0  0  0  0  0  0
   -3.7941    6.3494    2.5519 H   0  0  0  0  0  0  0  0  0  0  0  0
   -2.4620    7.1274    3.5450 H   0  0  0  0  0  0  0  0  0  0  0  0
   -2.5028    7.3838    1.7366 H   0  0  0  0  0  0  0  0  0  0  0  0
   -0.5816    3.3299    2.0814 H   0  0  0  0  0  0  0  0  0  0  0  0
    2.8442   -1.5485    1.7442 H   0  0  0  0  0  0  0  0  0  0  0  0
    5.1413   -2.3414    1.3731 H   0  0  0  0  0  0  0  0  0  0  0  0
    7.6964    0.4762   -0.1995 H   0  0  0  0  0  0  0  0  0  0  0  0
   10.0043   -0.1157   -0.5476 H   0  0  0  0  0  0  0  0  0  0  0  0
   10.6157   -2.4125   -1.1042 H   0  0  0  0  0  0  0  0  0  0  0  0
    8.8551   -4.1367   -1.3152 H   0  0  0  0  0  0  0  0  0  0  0  0
    6.0408   -5.9013   -1.0132 H   0  0  0  0  0  0  0  0  0  0  0  0
    5.5208    0.4245   -1.8688 H   0  0  0  0  0  0  0  0  0  0  0  0
    3.2909    1.1981   -1.4890 H   0  0  0  0  0  0  0  0  0  0  0  0
   -1.8987    1.1725    2.1697 H   0  0  0  0  0  0  0  0  0  0  0  0
   -1.6484   -0.5425    2.4819 H   0  0  0  0  0  0  0  0  0  0  0  0
   -3.7258   -0.8768    1.7386 H   0  0  0  0  0  0  0  0  0  0  0  0
   -3.8358    0.8029    1.2345 H   0  0  0  0  0  0  0  0  0  0  0  0
   -4.3262    1.2199   -1.0015 H   0  0  0  0  0  0  0  0  0  0  0  0
   -4.1684   -0.1352   -2.1700 H   0  0  0  0  0  0  0  0  0  0  0  0
   -8.2554    0.6188    1.1349 H   0  0  0  0  0  0  0  0  0  0  0  0
   -9.0427   -1.6549    0.6429 H   0  0  0  0  0  0  0  0  0  0  0  0
   -7.5618   -3.1594   -0.6904 H   0  0  0  0  0  0  0  0  0  0  0  0
   -5.8388   -3.2459   -2.2707 H   0  0  0  0  0  0  0  0  0  0  0  0
   -4.6034   -3.2884   -0.9934 H   0  0  0  0  0  0  0  0  0  0  0  0
   -4.4978   -2.1082   -2.4039 H   0  0  0  0  0  0  0  0  0  0  0  0
   -2.4020   -2.1913   -0.9010 H   0  0  0  0  0  0  0  0  0  0  0  0
   -2.1892   -0.8623   -2.0330 H   0  0  0  0  0  0  0  0  0  0  0  0
   -0.4515   -1.8472    0.0685 H   0  0  0  0  0  0  0  0  0  0  0  0
   -0.1354   -0.5924   -1.2345 H   0  0  0  0  0  0  0  0  0  0  0  0
   -3.6050    4.2794   -1.5367 H   0  0  0  0  0  0  0  0  0  0  0  0
  1  2  1  0
  2  3  1  0
  3  4  2  0
  4  5  1  0
  5  6  1  0
  6  7  1  0
  7  8  2  0
  7  9  1  0
  9 10  1  0
 10 11  2  0
 11 12  1  0
 12 13  2  0
 13 14  1  0
 14 15  2  0
 15 16  1  0
 16 17  2  0
 17 18  1  0
 18 19  2  0
 19 20  1  0
 20 21  2  0
 20 22  1  0
 13 23  1  0
 23 24  2  0
  9 25  1  0
 25 26  2  0
 25 27  1  0
 27 28  1  0
 28 29  1  0
 29 30  1  0
 30 31  1  0
 31 32  1  0
 32 33  2  0
 33 34  1  0
 34 35  2  0
 35 36  1  0
 36 37  2  0
 37 38  1  0
 30 39  1  0
 39 40  1  0
  5 41  2  0
 41 42  1  0
 42 43  2  0
 43  3  1  0
 27  6  1  0
 37 32  1  0
 24 10  1  0
 40 27  1  0
 19 14  1  0
  1 44  1  0
  1 45  1  0
  1 46  1  0
  4 47  1  0
 11 48  1  0
 12 49  1  0
 15 50  1  0
 16 51  1  0
 17 52  1  0
 18 53  1  0
 22 54  1  0
 23 55  1  0
 24 56  1  0
 28 57  1  0
 28 58  1  0
 29 59  1  0
 29 60  1  0
 31 61  1  0
 31 62  1  0
 34 63  1  0
 35 64  1  0
 36 65  1  0
 38 66  1  0
 38 67  1  0
 38 68  1  0
 39 69  1  0
 39 70  1  0
 40 71  1  0
 40 72  1  0
 42 73  1  0
M  END
$$$$
