
     RDKit          3D

 43 44  0  0  0  0  0  0  0  0999 V2000
   -0.5337    1.2826   -2.3999 C   0  0  0  0  0  0  0  0  0  0  0  0
   -1.2948    0.7750   -1.2081 C   0  0  0  0  0  0  0  0  0  0  0  0
   -2.7327    0.5504   -1.6464 C   0  0  0  0  0  0  0  0  0  0  0  0
   -3.5700    0.0431   -0.5231 C   0  0  0  0  0  0  0  0  0  0  0  0
   -4.2119    0.9784    0.2836 C   0  0  0  0  0  0  0  0  0  0  0  0
   -4.9978    0.5117    1.3372 C   0  0  0  0  0  0  0  0  0  0  0  0
   -5.1376   -0.8372    1.5763 C   0  0  0  0  0  0  0  0  0  0  0  0
   -5.8997   -1.3881    2.6021 O   0  0  0  0  0  0  0  0  0  0  0  0
   -4.4907   -1.7530    0.7624 C   0  0  0  0  0  0  0  0  0  0  0  0
   -3.6964   -1.3136   -0.3012 C   0  0  0  0  0  0  0  0  0  0  0  0
   -0.7297   -0.3594   -0.5882 N   0  0  0  0  0  0  0  0  0  0  0  0
    0.5106   -0.2844    0.0610 C   0  0  0  0  0  0  0  0  0  0  0  0
    1.7400   -0.0842   -0.7536 C   0  0  0  0  0  0  0  0  0  0  0  0
    1.9238   -1.1085   -1.6990 O   0  0  0  0  0  0  0  0  0  0  0  0
    2.9708   -0.0177    0.1225 C   0  0  0  0  0  0  0  0  0  0  0  0
    4.1395   -0.0643   -0.6474 C   0  0  0  0  0  0  0  0  0  0  0  0
    5.3508   -0.0163   -0.0217 C   0  0  0  0  0  0  0  0  0  0  0  0
    6.6012   -0.0525   -0.6412 O   0  0  0  0  0  0  0  0  0  0  0  0
    5.4564    0.0762    1.3392 C   0  0  0  0  0  0  0  0  0  0  0  0
    4.2947    0.1237    2.1209 C   0  0  0  0  0  0  0  0  0  0  0  0
    4.2760    0.2171    3.5015 O   0  0  0  0  0  0  0  0  0  0  0  0
    3.0804    0.0746    1.4811 C   0  0  0  0  0  0  0  0  0  0  0  0
   -1.3077    1.5493   -3.1890 H   0  0  0  0  0  0  0  0  0  0  0  0
    0.0523    2.2072   -2.1967 H   0  0  0  0  0  0  0  0  0  0  0  0
    0.0704    0.4970   -2.9209 H   0  0  0  0  0  0  0  0  0  0  0  0
   -1.2727    1.6430   -0.4671 H   0  0  0  0  0  0  0  0  0  0  0  0
   -3.1230    1.5218   -1.9951 H   0  0  0  0  0  0  0  0  0  0  0  0
   -2.6993   -0.1593   -2.4984 H   0  0  0  0  0  0  0  0  0  0  0  0
   -4.1386    2.0528    0.1431 H   0  0  0  0  0  0  0  0  0  0  0  0
   -5.5347    1.1590    2.0179 H   0  0  0  0  0  0  0  0  0  0  0  0
   -6.2544   -0.7410    3.2956 H   0  0  0  0  0  0  0  0  0  0  0  0
   -4.5666   -2.8396    0.9068 H   0  0  0  0  0  0  0  0  0  0  0  0
   -3.1672   -1.9840   -0.9706 H   0  0  0  0  0  0  0  0  0  0  0  0
   -0.7396   -1.1646   -1.2509 H   0  0  0  0  0  0  0  0  0  0  0  0
    0.5144    0.5140    0.8614 H   0  0  0  0  0  0  0  0  0  0  0  0
    0.6486   -1.2248    0.6663 H   0  0  0  0  0  0  0  0  0  0  0  0
    1.7432    0.8708   -1.2963 H   0  0  0  0  0  0  0  0  0  0  0  0
    2.7984   -1.5375   -1.5636 H   0  0  0  0  0  0  0  0  0  0  0  0
    4.2607   -0.1373   -1.7373 H   0  0  0  0  0  0  0  0  0  0  0  0
    7.2916    0.6816   -0.5520 H   0  0  0  0  0  0  0  0  0  0  0  0
    6.3881    0.1193    1.9160 H   0  0  0  0  0  0  0  0  0  0  0  0
    3.8496   -0.4841    4.0910 H   0  0  0  0  0  0  0  0  0  0  0  0
    2.1372    0.1030    1.9816 H   0  0  0  0  0  0  0  0  0  0  0  0
  1  2  1  0
  2  3  1  0
  3  4  1  0
  4  5  2  0
  5  6  1  0
  6  7  2  0
  7  8  1  0
  7  9  1  0
  9 10  2  0
  2 11  1  0
 11 12  1  0
 12 13  1  0
 13 14  1  0
 13 15  1  0
 15 16  2  0
 16 17  1  0
 17 18  1  0
 17 19  2  0
 19 20  1  0
 20 21  1  0
 20 22  2  0
 10  4  1  0
 22 15  1  0
  1 23  1  0
  1 24  1  0
  1 25  1  0
  2 26  1  0
  3 27  1  0
  3 28  1  0
  5 29  1  0
  6 30  1  0
  8 31  1  0
  9 32  1  0
 10 33  1  0
 11 34  1  0
 12 35  1  0
 12 36  1  0
 13 37  1  0
 14 38  1  0
 16 39  1  0
 18 40  1  0
 19 41  1  0
 21 42  1  0
 22 43  1  0
M  END
$$$$
