
     RDKit          3D

 86 89  0  0  0  0  0  0  0  0999 V2000
   -9.0138    1.3430   -1.4825 C   0  0  0  0  0  0  0  0  0  0  0  0
   -7.9451    1.7165   -0.6593 O   0  0  0  0  0  0  0  0  0  0  0  0
   -6.6559    1.2829   -0.9184 C   0  0  0  0  0  0  0  0  0  0  0  0
   -7.1586    0.6954   -1.8956 O   0  0  0  0  0  0  0  0  0  0  0  0
   -5.5492    1.6716   -0.0571 C   0  0  0  0  0  0  0  0  0  0  0  0
   -5.7519    2.4378    0.9954 C   0  0  0  0  0  0  0  0  0  0  0  0
   -7.0708    2.9709    1.4099 C   0  0  0  0  0  0  0  0  0  0  0  0
   -4.5417    2.7001    1.6839 N   0  0  0  0  0  0  0  0  0  0  0  0
   -3.2556    2.2148    1.3138 C   0  0  0  0  0  0  0  0  0  0  0  0
   -2.1061    2.5938    2.1510 C   0  0  0  0  0  0  0  0  0  0  0  0
   -3.1726    1.4512    0.2402 C   0  0  0  0  0  0  0  0  0  0  0  0
   -4.3403    1.0568   -0.6104 C   0  0  0  0  0  0  0  0  0  0  0  0
   -4.4592   -0.4294   -0.6781 C   0  0  0  0  0  0  0  0  0  0  0  0
   -4.6359   -0.9591    0.6079 C   0  0  0  0  0  0  0  0  0  0  0  0
   -4.7784   -2.3165    0.7872 C   0  0  0  0  0  0  0  0  0  0  0  0
   -4.7575   -3.2195   -0.2500 C   0  0  0  0  0  0  0  0  0  0  0  0
   -4.5819   -2.6715   -1.5025 C   0  0  0  0  0  0  0  0  0  0  0  0
   -4.4366   -1.3266   -1.7238 C   0  0  0  0  0  0  0  0  0  0  0  0
   -4.9679   -2.9008    2.0672 N   0  0  0  0  0  4  0  0  0  0  0  0
   -5.0409   -2.4135    3.3647 O   0  0  0  0  0  1  0  0  0  0  0  0
   -5.0553   -2.6331    3.2739 O   0  0  0  0  0  0  0  0  0  0  0  0
   -1.8374    0.9521   -0.1879 C   0  0  0  0  0  0  0  0  0  0  0  0
   -1.8390    0.2265   -1.2441 O   0  0  0  0  0  0  0  0  0  0  0  0
   -0.7332    1.2843    0.5369 O   0  0  0  0  0  0  0  0  0  0  0  0
    0.5747    0.8026    0.0767 C   0  0  0  0  0  0  0  0  0  0  0  0
    0.8091    1.4112   -1.2765 C   0  0  0  0  0  0  0  0  0  0  0  0
    0.3486   -0.7104   -0.0470 C   0  0  0  0  0  0  0  0  0  0  0  0
    1.5938    1.0434    1.0904 C   0  0  0  0  0  0  0  0  0  0  0  0
    2.9553    0.6292    0.9000 N   0  0  0  0  0  0  0  0  0  0  0  0
    3.6181    0.6959    2.2432 C   0  0  0  0  0  0  0  0  0  0  0  0
    3.7504    1.4140    0.0007 C   0  0  0  0  0  0  0  0  0  0  0  0
    5.1473    0.9912   -0.2595 C   0  0  0  0  0  0  0  0  0  0  0  0
    5.3112   -0.3123   -0.9604 C   0  0  0  0  0  0  0  0  0  0  0  0
    6.7570   -0.6499   -1.1921 C   0  0  0  0  0  0  0  0  0  0  0  0
    7.6327   -0.5485   -0.1315 C   0  0  0  0  0  0  0  0  0  0  0  0
    8.9677   -0.8604   -0.3552 C   0  0  0  0  0  0  0  0  0  0  0  0
    9.4362   -1.2670   -1.6074 C   0  0  0  0  0  0  0  0  0  0  0  0
    8.5648   -1.3675   -2.6636 C   0  0  0  0  0  0  0  0  0  0  0  0
    7.2511   -1.0591   -2.4359 C   0  0  0  0  0  0  0  0  0  0  0  0
    4.5445   -1.4637   -0.5290 C   0  0  0  0  0  0  0  0  0  0  0  0
    4.8143   -2.2579    0.5805 C   0  0  0  0  0  0  0  0  0  0  0  0
    4.1184   -3.3659    1.0151 C   0  0  0  0  0  0  0  0  0  0  0  0
    3.0267   -3.7471    0.2788 C   0  0  0  0  0  0  0  0  0  0  0  0
    2.6850   -3.0185   -0.8366 C   0  0  0  0  0  0  0  0  0  0  0  0
    3.4150   -1.9180   -1.2266 C   0  0  0  0  0  0  0  0  0  0  0  0
   -9.9884    1.7743   -1.1219 H   0  0  0  0  0  0  0  0  0  0  0  0
   -8.8718    1.7937   -2.4838 H   0  0  0  0  0  0  0  0  0  0  0  0
   -9.2043    0.2476   -1.5141 H   0  0  0  0  0  0  0  0  0  0  0  0
   -6.9130    3.4938    2.3976 H   0  0  0  0  0  0  0  0  0  0  0  0
   -7.4510    3.7633    0.7154 H   0  0  0  0  0  0  0  0  0  0  0  0
   -7.7944    2.1690    1.6107 H   0  0  0  0  0  0  0  0  0  0  0  0
   -4.6276    3.3115    2.5434 H   0  0  0  0  0  0  0  0  0  0  0  0
   -1.6683    1.7007    2.5996 H   0  0  0  0  0  0  0  0  0  0  0  0
   -2.4466    3.2445    3.0088 H   0  0  0  0  0  0  0  0  0  0  0  0
   -1.3995    3.2258    1.5704 H   0  0  0  0  0  0  0  0  0  0  0  0
   -4.1968    1.4204   -1.6435 H   0  0  0  0  0  0  0  0  0  0  0  0
   -4.6765   -0.3952    1.5351 H   0  0  0  0  0  0  0  0  0  0  0  0
   -4.8605   -4.2927   -0.2065 H   0  0  0  0  0  0  0  0  0  0  0  0
   -4.5493   -3.2805   -2.3897 H   0  0  0  0  0  0  0  0  0  0  0  0
   -4.2953   -0.7974   -2.6579 H   0  0  0  0  0  0  0  0  0  0  0  0
    1.3497    0.7767   -1.9944 H   0  0  0  0  0  0  0  0  0  0  0  0
    1.2754    2.4199   -1.2500 H   0  0  0  0  0  0  0  0  0  0  0  0
   -0.2110    1.6521   -1.7201 H   0  0  0  0  0  0  0  0  0  0  0  0
    0.5738   -0.9845   -1.0782 H   0  0  0  0  0  0  0  0  0  0  0  0
   -0.6664   -1.0242    0.2341 H   0  0  0  0  0  0  0  0  0  0  0  0
    1.0375   -1.2097    0.6726 H   0  0  0  0  0  0  0  0  0  0  0  0
    1.2550    0.5440    2.0435 H   0  0  0  0  0  0  0  0  0  0  0  0
    1.6429    2.1396    1.3983 H   0  0  0  0  0  0  0  0  0  0  0  0
    3.9934    1.6802    2.4782 H   0  0  0  0  0  0  0  0  0  0  0  0
    4.4265   -0.0332    2.2147 H   0  0  0  0  0  0  0  0  0  0  0  0
    2.8227    0.4269    2.9563 H   0  0  0  0  0  0  0  0  0  0  0  0
    3.2425    1.4687   -0.9717 H   0  0  0  0  0  0  0  0  0  0  0  0
    3.7307    2.4519    0.4242 H   0  0  0  0  0  0  0  0  0  0  0  0
    5.5960    1.7612   -0.9654 H   0  0  0  0  0  0  0  0  0  0  0  0
    5.8140    1.0852    0.6339 H   0  0  0  0  0  0  0  0  0  0  0  0
    4.9428   -0.0979   -2.0351 H   0  0  0  0  0  0  0  0  0  0  0  0
    7.3674   -0.2449    0.8685 H   0  0  0  0  0  0  0  0  0  0  0  0
    9.7707   -0.8343    0.3634 H   0  0  0  0  0  0  0  0  0  0  0  0
   10.4629   -1.5187   -1.8277 H   0  0  0  0  0  0  0  0  0  0  0  0
    8.8998   -1.6826   -3.6593 H   0  0  0  0  0  0  0  0  0  0  0  0
    6.4936   -1.1122   -3.2199 H   0  0  0  0  0  0  0  0  0  0  0  0
    5.6753   -1.9686    1.1720 H   0  0  0  0  0  0  0  0  0  0  0  0
    4.4370   -3.8920    1.8952 H   0  0  0  0  0  0  0  0  0  0  0  0
    2.4946   -4.6110    0.6280 H   0  0  0  0  0  0  0  0  0  0  0  0
    1.8028   -3.3491   -1.4033 H   0  0  0  0  0  0  0  0  0  0  0  0
    3.0768   -1.3914   -2.1241 H   0  0  0  0  0  0  0  0  0  0  0  0
  1  2  1  0
  2  3  1  0
  3  4  2  0
  3  5  1  0
  5  6  2  0
  6  7  1  0
  6  8  1  0
  8  9  1  0
  9 10  1  0
  9 11  2  0
 11 12  1  0
 12 13  1  0
 13 14  2  0
 14 15  1  0
 15 16  2  0
 16 17  1  0
 17 18  2  0
 15 19  1  0
 19 20  1  0
 19 21  2  0
 11 22  1  0
 22 23  2  0
 22 24  1  0
 24 25  1  0
 25 26  1  0
 25 27  1  0
 25 28  1  0
 28 29  1  0
 29 30  1  0
 29 31  1  0
 31 32  1  0
 32 33  1  0
 33 34  1  0
 34 35  2  0
 35 36  1  0
 36 37  2  0
 37 38  1  0
 38 39  2  0
 33 40  1  0
 40 41  2  0
 41 42  1  0
 42 43  2  0
 43 44  1  0
 44 45  2  0
 12  5  1  0
 18 13  1  0
 39 34  1  0
 45 40  1  0
  1 46  1  0
  1 47  1  0
  1 48  1  0
  7 49  1  0
  7 50  1  0
  7 51  1  0
  8 52  1  0
 10 53  1  0
 10 54  1  0
 10 55  1  0
 12 56  1  0
 14 57  1  0
 16 58  1  0
 17 59  1  0
 18 60  1  0
 26 61  1  0
 26 62  1  0
 26 63  1  0
 27 64  1  0
 27 65  1  0
 27 66  1  0
 28 67  1  0
 28 68  1  0
 30 69  1  0
 30 70  1  0
 30 71  1  0
 31 72  1  0
 31 73  1  0
 32 74  1  0
 32 75  1  0
 33 76  1  0
 35 77  1  0
 36 78  1  0
 37 79  1  0
 38 80  1  0
 39 81  1  0
 41 82  1  0
 42 83  1  0
 43 84  1  0
 44 85  1  0
 45 86  1  0
M  CHG  2  19   1  20  -1
M  END
$$$$
