
     RDKit          3D

 60 60  0  0  0  0  0  0  0  0999 V2000
   -5.4188   -3.8755   -0.1366 C   0  0  0  0  0  0  0  0  0  0  0  0
   -4.6638   -2.6184    0.2400 C   0  0  0  0  0  0  0  0  0  0  0  0
   -3.5578   -2.4225   -0.7442 C   0  0  0  0  0  0  0  0  0  0  0  0
   -2.7324   -1.1808   -0.4562 C   0  0  0  0  0  0  0  0  0  0  0  0
   -2.0895   -1.2162    0.8842 C   0  0  0  0  0  0  0  0  0  0  0  0
   -1.3065   -0.0195    1.0855 N   0  0  0  0  0  0  0  0  0  0  0  0
   -1.5378    1.2606    1.6616 C   0  0  0  0  0  0  0  0  0  0  0  0
   -1.9740    2.2416    0.5996 C   0  0  0  0  0  0  0  0  0  0  0  0
   -2.1783    3.5722    1.2753 C   0  0  0  0  0  0  0  0  0  0  0  0
   -2.5549    4.5439    0.3956 O   0  0  0  0  0  0  0  0  0  0  0  0
   -3.7386    4.3053   -0.2727 C   0  0  0  0  0  0  0  0  0  0  0  0
    0.0396   -0.1762    0.6234 C   0  0  0  0  0  0  0  0  0  0  0  0
    0.9335    0.6755    0.6543 O   0  0  0  0  0  0  0  0  0  0  0  0
    1.2076   -0.8574    0.0306 C   0  0  1  0  0  0  0  0  0  0  0  0
    0.9341   -1.3910   -1.3390 C   0  0  0  0  0  0  0  0  0  0  0  0
    2.1736   -2.0824   -1.9133 C   0  0  0  0  0  0  0  0  0  0  0  0
    1.8051   -2.5831   -3.2832 C   0  0  0  0  0  0  0  0  0  0  0  0
    2.7124   -3.2583   -4.0727 O   0  0  0  0  0  0  0  0  0  0  0  0
    0.6347   -2.3656   -3.6899 O   0  0  0  0  0  0  0  0  0  0  0  0
    2.2983    0.1046   -0.0073 N   0  0  0  0  0  0  0  0  0  0  0  0
    3.4942   -0.0959    0.7366 C   0  0  0  0  0  0  0  0  0  0  0  0
    3.5243   -1.1731    1.4262 O   0  0  0  0  0  0  0  0  0  0  0  0
    4.6281    0.8257    0.7464 C   0  0  0  0  0  0  0  0  0  0  0  0
    4.7258    2.0134    0.0539 C   0  0  0  0  0  0  0  0  0  0  0  0
    5.8436    2.8164    0.1295 C   0  0  0  0  0  0  0  0  0  0  0  0
    5.8176    4.2961   -0.8097 Cl  0  0  0  0  0  0  0  0  0  0  0  0
    6.9282    2.4694    0.9074 C   0  0  0  0  0  0  0  0  0  0  0  0
    8.3257    3.4955    0.9881 Cl  0  0  0  0  0  0  0  0  0  0  0  0
    6.8469    1.2854    1.6062 C   0  0  0  0  0  0  0  0  0  0  0  0
    5.7219    0.4960    1.5183 C   0  0  0  0  0  0  0  0  0  0  0  0
   -6.5099   -3.6511   -0.0983 H   0  0  0  0  0  0  0  0  0  0  0  0
   -5.1347   -4.2127   -1.1499 H   0  0  0  0  0  0  0  0  0  0  0  0
   -5.1703   -4.6928    0.5712 H   0  0  0  0  0  0  0  0  0  0  0  0
   -4.3169   -2.7314    1.2840 H   0  0  0  0  0  0  0  0  0  0  0  0
   -5.3571   -1.7359    0.2000 H   0  0  0  0  0  0  0  0  0  0  0  0
   -2.9062   -3.2988   -0.7408 H   0  0  0  0  0  0  0  0  0  0  0  0
   -4.0231   -2.2976   -1.7428 H   0  0  0  0  0  0  0  0  0  0  0  0
   -1.9985   -1.0881   -1.2765 H   0  0  0  0  0  0  0  0  0  0  0  0
   -3.3648   -0.2683   -0.5273 H   0  0  0  0  0  0  0  0  0  0  0  0
   -1.4523   -2.1382    1.0006 H   0  0  0  0  0  0  0  0  0  0  0  0
   -2.8453   -1.3112    1.7141 H   0  0  0  0  0  0  0  0  0  0  0  0
   -0.6203    1.6599    2.1709 H   0  0  0  0  0  0  0  0  0  0  0  0
   -2.3353    1.1760    2.4460 H   0  0  0  0  0  0  0  0  0  0  0  0
   -2.9699    1.9007    0.1976 H   0  0  0  0  0  0  0  0  0  0  0  0
   -1.2363    2.2763   -0.1972 H   0  0  0  0  0  0  0  0  0  0  0  0
   -1.2441    3.8908    1.8054 H   0  0  0  0  0  0  0  0  0  0  0  0
   -2.9309    3.4688    2.1008 H   0  0  0  0  0  0  0  0  0  0  0  0
   -3.9837    5.1690   -0.9515 H   0  0  0  0  0  0  0  0  0  0  0  0
   -3.5975    3.3885   -0.9185 H   0  0  0  0  0  0  0  0  0  0  0  0
   -4.5400    4.1363    0.4600 H   0  0  0  0  0  0  0  0  0  0  0  0
    1.5395   -1.7235    0.6508 H   0  0  0  0  0  0  0  0  0  0  0  0
    0.1188   -2.1666   -1.2491 H   0  0  0  0  0  0  0  0  0  0  0  0
    0.5895   -0.5823   -2.0024 H   0  0  0  0  0  0  0  0  0  0  0  0
    2.4724   -2.9297   -1.2772 H   0  0  0  0  0  0  0  0  0  0  0  0
    2.9778   -1.3493   -2.0367 H   0  0  0  0  0  0  0  0  0  0  0  0
    2.4299   -3.7766   -4.9167 H   0  0  0  0  0  0  0  0  0  0  0  0
    2.3173    0.9960   -0.5646 H   0  0  0  0  0  0  0  0  0  0  0  0
    3.8779    2.2875   -0.5561 H   0  0  0  0  0  0  0  0  0  0  0  0
    7.6685    0.9526    2.2392 H   0  0  0  0  0  0  0  0  0  0  0  0
    5.7024   -0.4342    2.0902 H   0  0  0  0  0  0  0  0  0  0  0  0
  1  2  1  0
  2  3  1  0
  3  4  1  0
  4  5  1  0
  5  6  1  0
  6  7  1  0
  7  8  1  0
  8  9  1  0
  9 10  1  0
 10 11  1  0
  6 12  1  0
 12 13  2  0
 12 14  1  0
 14 15  1  0
 15 16  1  0
 16 17  1  0
 17 18  1  0
 17 19  2  0
 14 20  1  0
 20 21  1  0
 21 22  2  0
 21 23  1  0
 23 24  2  0
 24 25  1  0
 25 26  1  0
 25 27  2  0
 27 28  1  0
 27 29  1  0
 29 30  2  0
 30 23  1  0
  1 31  1  0
  1 32  1  0
  1 33  1  0
  2 34  1  0
  2 35  1  0
  3 36  1  0
  3 37  1  0
  4 38  1  0
  4 39  1  0
  5 40  1  0
  5 41  1  0
  7 42  1  0
  7 43  1  0
  8 44  1  0
  8 45  1  0
  9 46  1  0
  9 47  1  0
 11 48  1  0
 11 49  1  0
 11 50  1  0
 14 51  1  1
 15 52  1  0
 15 53  1  0
 16 54  1  0
 16 55  1  0
 18 56  1  0
 20 57  1  0
 24 58  1  0
 29 59  1  0
 30 60  1  0
M  END
$$$$
