
     RDKit          3D

 18 18  0  0  0  0  0  0  0  0999 V2000
    3.1207    0.1890   -0.0057 N   0  0  0  0  0  0  0  0  0  0  0  0
    1.7088    0.0056   -0.0579 C   0  0  0  0  0  0  0  0  0  0  0  0
    0.9855    1.0231    0.5312 C   0  0  0  0  0  0  0  0  0  0  0  0
   -0.3967    0.9419    0.5347 C   0  0  0  0  0  0  0  0  0  0  0  0
   -1.1911    1.9254    1.1074 O   0  0  0  0  0  0  0  0  0  0  0  0
   -0.9641   -0.1679   -0.0603 C   0  0  0  0  0  0  0  0  0  0  0  0
   -0.2251   -1.1759   -0.6447 C   0  0  0  0  0  0  0  0  0  0  0  0
    1.1491   -1.1065   -0.6543 C   0  0  0  0  0  0  0  0  0  0  0  0
   -2.4227   -0.2569   -0.0585 C   0  0  0  0  0  0  0  0  0  0  0  0
   -3.0606   -1.3644   -0.6497 O   0  0  0  0  0  0  0  0  0  0  0  0
   -3.1127    0.6532    0.4699 O   0  0  0  0  0  0  0  0  0  0  0  0
    3.3987   -0.4071    0.8294 H   0  0  0  0  0  0  0  0  0  0  0  0
    3.9615    0.6252   -0.4010 H   0  0  0  0  0  0  0  0  0  0  0  0
    1.4320    1.8869    0.9941 H   0  0  0  0  0  0  0  0  0  0  0  0
   -1.5144    2.7445    0.5789 H   0  0  0  0  0  0  0  0  0  0  0  0
   -0.6886   -2.0407   -1.1075 H   0  0  0  0  0  0  0  0  0  0  0  0
    1.8184   -1.8277   -1.0774 H   0  0  0  0  0  0  0  0  0  0  0  0
   -3.9987   -1.6476   -0.3284 H   0  0  0  0  0  0  0  0  0  0  0  0
  1  2  1  0
  2  3  2  0
  3  4  1  0
  4  5  1  0
  4  6  2  0
  6  7  1  0
  7  8  2  0
  6  9  1  0
  9 10  1  0
  9 11  2  0
  8  2  1  0
  1 12  1  0
  1 13  1  0
  3 14  1  0
  5 15  1  0
  7 16  1  0
  8 17  1  0
 10 18  1  0
M  END
$$$$
