
     RDKit          3D

 45 46  0  0  0  0  0  0  0  0999 V2000
    0.8891    2.8884    0.5298 C   0  0  0  0  0  0  0  0  0  0  0  0
   -0.0792    1.9079   -0.0835 C   0  0  0  0  0  0  0  0  0  0  0  0
   -0.1033    2.1263   -1.5588 C   0  0  0  0  0  0  0  0  0  0  0  0
    0.2317    0.4777    0.2974 C   0  0  2  0  0  0  0  0  0  0  0  0
    1.5811    0.1194   -0.1529 N   0  0  0  0  0  0  0  0  0  0  0  0
    2.5628   -0.3012    0.7597 C   0  0  0  0  0  0  0  0  0  0  0  0
    2.3234   -0.3895    2.0161 O   0  0  0  0  0  0  0  0  0  0  0  0
    3.9106   -0.6651    0.3568 C   0  0  0  0  0  0  0  0  0  0  0  0
    4.8621   -1.0791    1.2843 C   0  0  0  0  0  0  0  0  0  0  0  0
    6.1210   -1.4136    0.8677 C   0  0  0  0  0  0  0  0  0  0  0  0
    6.4961   -1.3585   -0.4509 C   0  0  0  0  0  0  0  0  0  0  0  0
    5.5872   -0.9629   -1.3381 N   0  0  0  0  0  0  0  0  0  0  0  0
    4.3229   -0.6227   -0.9517 C   0  0  0  0  0  0  0  0  0  0  0  0
   -0.7570   -0.4694   -0.2719 C   0  0  0  0  0  0  0  0  0  0  0  0
   -0.3026   -1.3294   -1.1215 O   0  0  0  0  0  0  0  0  0  0  0  0
   -2.1336   -0.5055    0.0389 N   0  0  0  0  0  0  0  0  0  0  0  0
   -2.8263    0.3442    0.9619 C   0  0  0  0  0  0  0  0  0  0  0  0
   -4.0085   -0.4653    1.4550 C   0  0  0  0  0  0  0  0  0  0  0  0
   -3.9988   -1.7239    0.6685 C   0  0  0  0  0  0  0  0  0  0  0  0
   -3.1289   -1.4237   -0.5164 C   0  0  1  0  0  0  0  0  0  0  0  0
   -3.9506   -0.7485   -1.6709 B   0  0  0  0  0  0  0  0  0  0  0  0
   -4.7626    0.4291   -1.4079 O   0  0  0  0  0  0  0  0  0  0  0  0
   -4.1910   -1.4957   -2.8973 O   0  0  0  0  0  0  0  0  0  0  0  0
    0.8405    3.8468   -0.0287 H   0  0  0  0  0  0  0  0  0  0  0  0
    0.6399    3.1255    1.5841 H   0  0  0  0  0  0  0  0  0  0  0  0
    1.9397    2.5498    0.4706 H   0  0  0  0  0  0  0  0  0  0  0  0
   -1.0659    2.1605    0.3339 H   0  0  0  0  0  0  0  0  0  0  0  0
    0.9168    2.1913   -2.0092 H   0  0  0  0  0  0  0  0  0  0  0  0
   -0.5800    3.1095   -1.7619 H   0  0  0  0  0  0  0  0  0  0  0  0
   -0.6828    1.3754   -2.1184 H   0  0  0  0  0  0  0  0  0  0  0  0
    0.2262    0.3382    1.3907 H   0  0  0  0  0  0  0  0  0  0  0  0
    1.7774    0.1882   -1.1556 H   0  0  0  0  0  0  0  0  0  0  0  0
    4.5633   -1.1223    2.3293 H   0  0  0  0  0  0  0  0  0  0  0  0
    6.8587   -1.7370    1.6051 H   0  0  0  0  0  0  0  0  0  0  0  0
    7.5062   -1.6340   -0.7308 H   0  0  0  0  0  0  0  0  0  0  0  0
    3.6040   -0.3036   -1.7008 H   0  0  0  0  0  0  0  0  0  0  0  0
   -2.1972    0.6799    1.7835 H   0  0  0  0  0  0  0  0  0  0  0  0
   -3.2170    1.2302    0.3795 H   0  0  0  0  0  0  0  0  0  0  0  0
   -4.9421    0.1172    1.3120 H   0  0  0  0  0  0  0  0  0  0  0  0
   -3.8835   -0.6286    2.5515 H   0  0  0  0  0  0  0  0  0  0  0  0
   -3.6083   -2.5560    1.2871 H   0  0  0  0  0  0  0  0  0  0  0  0
   -5.0279   -1.9546    0.2945 H   0  0  0  0  0  0  0  0  0  0  0  0
   -2.6653   -2.3635   -0.8537 H   0  0  0  0  0  0  0  0  0  0  0  0
   -5.5155    0.4980   -2.0429 H   0  0  0  0  0  0  0  0  0  0  0  0
   -4.1330   -2.4498   -2.7096 H   0  0  0  0  0  0  0  0  0  0  0  0
  1  2  1  0
  2  3  1  0
  2  4  1  0
  4  5  1  0
  5  6  1  0
  6  7  2  0
  6  8  1  0
  8  9  2  0
  9 10  1  0
 10 11  2  0
 11 12  1  0
 12 13  2  0
  4 14  1  0
 14 15  2  0
 14 16  1  0
 16 17  1  0
 17 18  1  0
 18 19  1  0
 19 20  1  0
 20 21  1  0
 21 22  1  0
 21 23  1  0
 13  8  1  0
 20 16  1  0
  1 24  1  0
  1 25  1  0
  1 26  1  0
  2 27  1  0
  3 28  1  0
  3 29  1  0
  3 30  1  0
  4 31  1  1
  5 32  1  0
  9 33  1  0
 10 34  1  0
 11 35  1  0
 13 36  1  0
 17 37  1  0
 17 38  1  0
 18 39  1  0
 18 40  1  0
 19 41  1  0
 19 42  1  0
 20 43  1  6
 22 44  1  0
 23 45  1  0
M  END
$$$$
