
     RDKit          3D

 50 52  0  0  0  0  0  0  0  0999 V2000
   -2.5618    0.3791   -1.3781 C   0  0  0  0  0  0  0  0  0  0  0  0
   -2.9547   -0.2905   -0.0779 C   0  0  0  0  0  0  0  0  0  0  0  0
   -3.8771    0.5659    0.7017 C   0  0  0  0  0  0  0  0  0  0  0  0
   -4.3582    0.1555    1.9284 C   0  0  0  0  0  0  0  0  0  0  0  0
   -5.2223    0.9359    2.6781 C   0  0  0  0  0  0  0  0  0  0  0  0
   -5.6442    2.1683    2.2283 C   0  0  0  0  0  0  0  0  0  0  0  0
   -5.1690    2.5863    1.0043 C   0  0  0  0  0  0  0  0  0  0  0  0
   -4.3014    1.7997    0.2547 C   0  0  0  0  0  0  0  0  0  0  0  0
   -3.5214   -1.6666   -0.3325 C   0  0  0  0  0  0  0  0  0  0  0  0
   -2.5533   -2.3959   -1.2340 C   0  0  0  0  0  0  0  0  0  0  0  0
   -1.1234   -2.2889   -0.8630 C   0  0  0  0  0  0  0  0  0  0  0  0
   -0.7257   -1.1278   -0.1433 N   0  0  0  0  0  0  0  0  0  0  0  0
    0.5663   -0.5307   -0.2234 C   0  0  0  0  0  0  0  0  0  0  0  0
    0.8278    0.5010    0.4488 O   0  0  0  0  0  0  0  0  0  0  0  0
    1.6006   -1.0513   -1.0421 N   0  0  0  0  0  0  0  0  0  0  0  0
    2.9008   -0.4374   -1.1079 C   0  0  0  0  0  0  0  0  0  0  0  0
    3.5805   -0.4349    0.2374 C   0  0  0  0  0  0  0  0  0  0  0  0
    4.9222    0.2151    0.0834 C   0  0  0  0  0  0  0  0  0  0  0  0
    6.0577   -0.5011   -0.2303 C   0  0  0  0  0  0  0  0  0  0  0  0
    7.2823    0.1240   -0.3661 C   0  0  0  0  0  0  0  0  0  0  0  0
    7.3849    1.5002   -0.1858 C   0  0  0  0  0  0  0  0  0  0  0  0
    8.9322    2.3036   -0.3555 Cl  0  0  0  0  0  0  0  0  0  0  0  0
    6.2590    2.2214    0.1269 C   0  0  0  0  0  0  0  0  0  0  0  0
    5.0547    1.5867    0.2576 C   0  0  0  0  0  0  0  0  0  0  0  0
   -1.6964   -0.5071    0.7367 C   0  0  0  0  0  0  0  0  0  0  0  0
   -3.4833    0.5318   -1.9968 H   0  0  0  0  0  0  0  0  0  0  0  0
   -1.7999   -0.1727   -1.9268 H   0  0  0  0  0  0  0  0  0  0  0  0
   -2.1087    1.3731   -1.1011 H   0  0  0  0  0  0  0  0  0  0  0  0
   -4.0185   -0.8195    2.2740 H   0  0  0  0  0  0  0  0  0  0  0  0
   -5.5749    0.5741    3.6356 H   0  0  0  0  0  0  0  0  0  0  0  0
   -6.3284    2.7910    2.8172 H   0  0  0  0  0  0  0  0  0  0  0  0
   -5.4958    3.5650    0.6330 H   0  0  0  0  0  0  0  0  0  0  0  0
   -3.9435    2.1607   -0.7126 H   0  0  0  0  0  0  0  0  0  0  0  0
   -4.5012   -1.6460   -0.8394 H   0  0  0  0  0  0  0  0  0  0  0  0
   -3.5917   -2.2200    0.6250 H   0  0  0  0  0  0  0  0  0  0  0  0
   -2.8295   -3.4774   -1.2822 H   0  0  0  0  0  0  0  0  0  0  0  0
   -2.7148   -1.9579   -2.2623 H   0  0  0  0  0  0  0  0  0  0  0  0
   -0.5401   -2.3091   -1.8304 H   0  0  0  0  0  0  0  0  0  0  0  0
   -0.7369   -3.1754   -0.3030 H   0  0  0  0  0  0  0  0  0  0  0  0
    1.4272   -1.9052   -1.6181 H   0  0  0  0  0  0  0  0  0  0  0  0
    3.5412   -0.9503   -1.8553 H   0  0  0  0  0  0  0  0  0  0  0  0
    2.8071    0.6421   -1.4315 H   0  0  0  0  0  0  0  0  0  0  0  0
    3.7991   -1.5072    0.4807 H   0  0  0  0  0  0  0  0  0  0  0  0
    2.9884    0.0225    1.0238 H   0  0  0  0  0  0  0  0  0  0  0  0
    5.9848   -1.5632   -0.3706 H   0  0  0  0  0  0  0  0  0  0  0  0
    8.1432   -0.4868   -0.6138 H   0  0  0  0  0  0  0  0  0  0  0  0
    6.3527    3.2833    0.2634 H   0  0  0  0  0  0  0  0  0  0  0  0
    4.1822    2.1637    0.5025 H   0  0  0  0  0  0  0  0  0  0  0  0
   -1.3311    0.4698    1.1424 H   0  0  0  0  0  0  0  0  0  0  0  0
   -1.8877   -1.1969    1.5996 H   0  0  0  0  0  0  0  0  0  0  0  0
  1  2  1  0
  2  3  1  0
  3  4  2  0
  4  5  1  0
  5  6  2  0
  6  7  1  0
  7  8  2  0
  2  9  1  0
  9 10  1  0
 10 11  1  0
 11 12  1  0
 12 13  1  0
 13 14  2  0
 13 15  1  0
 15 16  1  0
 16 17  1  0
 17 18  1  0
 18 19  2  0
 19 20  1  0
 20 21  2  0
 21 22  1  0
 21 23  1  0
 23 24  2  0
 12 25  1  0
 25  2  1  0
  8  3  1  0
 24 18  1  0
  1 26  1  0
  1 27  1  0
  1 28  1  0
  4 29  1  0
  5 30  1  0
  6 31  1  0
  7 32  1  0
  8 33  1  0
  9 34  1  0
  9 35  1  0
 10 36  1  0
 10 37  1  0
 11 38  1  0
 11 39  1  0
 15 40  1  0
 16 41  1  0
 16 42  1  0
 17 43  1  0
 17 44  1  0
 19 45  1  0
 20 46  1  0
 23 47  1  0
 24 48  1  0
 25 49  1  0
 25 50  1  0
M  END
$$$$
