
     RDKit          3D

 62 66  0  0  0  0  0  0  0  0999 V2000
    1.4856    4.2067   -1.3283 C   0  0  0  0  0  0  0  0  0  0  0  0
    2.7679    3.6046   -0.7514 C   0  0  0  0  0  0  0  0  0  0  0  0
    2.6067    3.2565    0.6770 C   0  0  0  0  0  0  0  0  0  0  0  0
    1.6740    2.1678    1.0344 C   0  0  0  0  0  0  0  0  0  0  0  0
    2.0681    0.8185    0.5742 C   0  0  0  0  0  0  0  0  0  0  0  0
    2.8915   -0.0039    1.3391 N   0  0  0  0  0  0  0  0  0  0  0  0
    3.1597   -1.1047    0.7033 N   0  0  0  0  0  0  0  0  0  0  0  0
    3.9778   -2.1744    1.1702 C   0  0  0  0  0  0  0  0  0  0  0  0
    3.5290   -3.1627    2.0338 C   0  0  0  0  0  0  0  0  0  0  0  0
    4.3149   -4.1985    2.4857 C   0  0  0  0  0  0  0  0  0  0  0  0
    5.6284   -4.2424    2.0434 C   0  0  0  0  0  0  0  0  0  0  0  0
    6.1140   -3.2778    1.1834 C   0  0  0  0  0  0  0  0  0  0  0  0
    7.7654   -3.3572    0.6433 Cl  0  0  0  0  0  0  0  0  0  0  0  0
    5.3011   -2.2532    0.7489 C   0  0  0  0  0  0  0  0  0  0  0  0
    5.9294   -1.0388   -0.3422 Cl  0  0  0  0  0  0  0  0  0  0  0  0
    2.5194   -1.0493   -0.5090 C   0  0  0  0  0  0  0  0  0  0  0  0
    2.6137   -2.1141   -1.4707 C   0  0  0  0  0  0  0  0  0  0  0  0
    2.0561   -2.1015   -2.5825 O   0  0  0  0  0  0  0  0  0  0  0  0
    3.3687   -3.2805   -1.2080 O   0  0  0  0  0  0  0  0  0  0  0  0
    1.8348    0.1677   -0.5734 C   0  0  0  0  0  0  0  0  0  0  0  0
    0.9977    0.5313   -1.7090 C   0  0  0  0  0  0  0  0  0  0  0  0
   -0.4797    0.3317   -1.4508 C   0  0  0  0  0  0  0  0  0  0  0  0
   -1.0707   -0.9133   -1.4649 C   0  0  0  0  0  0  0  0  0  0  0  0
   -2.4259   -1.0692   -1.2480 C   0  0  0  0  0  0  0  0  0  0  0  0
   -3.2709    0.0077   -1.0047 C   0  0  0  0  0  0  0  0  0  0  0  0
   -4.6952   -0.1758   -0.8005 C   0  0  0  0  0  0  0  0  0  0  0  0
   -5.5256   -0.6136   -1.8444 C   0  0  0  0  0  0  0  0  0  0  0  0
   -6.8687   -0.7901   -1.7083 C   0  0  0  0  0  0  0  0  0  0  0  0
   -7.4536   -0.5308   -0.4969 C   0  0  0  0  0  0  0  0  0  0  0  0
   -6.6906   -0.1028    0.5517 C   0  0  0  0  0  0  0  0  0  0  0  0
   -5.3020    0.0729    0.3886 C   0  0  0  0  0  0  0  0  0  0  0  0
   -4.5337    0.5175    1.5388 C   0  0  0  0  0  0  0  0  0  0  0  0
   -3.2166    0.7188    1.6419 N   0  0  0  0  0  0  0  0  0  0  0  0
   -2.8891    1.1142    2.8389 N   0  0  0  0  0  0  0  0  0  0  0  0
   -4.0033    1.1782    3.5462 N   0  0  0  0  0  0  0  0  0  0  0  0
   -5.0102    0.8221    2.7819 N   0  0  0  0  0  0  0  0  0  0  0  0
   -2.6657    1.2464   -0.9931 C   0  0  0  0  0  0  0  0  0  0  0  0
   -1.3133    1.4056   -1.2090 C   0  0  0  0  0  0  0  0  0  0  0  0
    0.6585    4.0681   -0.6123 H   0  0  0  0  0  0  0  0  0  0  0  0
    1.6071    5.3314   -1.3885 H   0  0  0  0  0  0  0  0  0  0  0  0
    1.2924    3.8930   -2.3534 H   0  0  0  0  0  0  0  0  0  0  0  0
    3.0616    2.7400   -1.3888 H   0  0  0  0  0  0  0  0  0  0  0  0
    3.5697    4.3754   -0.8529 H   0  0  0  0  0  0  0  0  0  0  0  0
    3.6198    3.0637    1.1442 H   0  0  0  0  0  0  0  0  0  0  0  0
    2.1905    4.1956    1.1875 H   0  0  0  0  0  0  0  0  0  0  0  0
    1.5181    2.0997    2.1563 H   0  0  0  0  0  0  0  0  0  0  0  0
    0.6446    2.4128    0.6516 H   0  0  0  0  0  0  0  0  0  0  0  0
    2.5114   -3.0985    2.3556 H   0  0  0  0  0  0  0  0  0  0  0  0
    3.9402   -4.9644    3.1643 H   0  0  0  0  0  0  0  0  0  0  0  0
    6.2406   -5.0629    2.4052 H   0  0  0  0  0  0  0  0  0  0  0  0
    3.2980   -4.0947   -1.8177 H   0  0  0  0  0  0  0  0  0  0  0  0
    1.2519   -0.0419   -2.6536 H   0  0  0  0  0  0  0  0  0  0  0  0
    1.0717    1.5835   -2.0426 H   0  0  0  0  0  0  0  0  0  0  0  0
   -0.4607   -1.7915   -1.6484 H   0  0  0  0  0  0  0  0  0  0  0  0
   -2.8972   -2.0646   -1.2600 H   0  0  0  0  0  0  0  0  0  0  0  0
   -5.0156   -0.8072   -2.7882 H   0  0  0  0  0  0  0  0  0  0  0  0
   -7.4242   -1.1299   -2.5679 H   0  0  0  0  0  0  0  0  0  0  0  0
   -8.5283   -0.6771   -0.4088 H   0  0  0  0  0  0  0  0  0  0  0  0
   -7.1515    0.0994    1.4988 H   0  0  0  0  0  0  0  0  0  0  0  0
   -6.0091    0.7673    3.0340 H   0  0  0  0  0  0  0  0  0  0  0  0
   -3.3176    2.1030   -0.8018 H   0  0  0  0  0  0  0  0  0  0  0  0
   -0.8606    2.3865   -1.2012 H   0  0  0  0  0  0  0  0  0  0  0  0
  1  2  1  0
  2  3  1  0
  3  4  1  0
  4  5  1  0
  5  6  2  0
  6  7  1  0
  7  8  1  0
  8  9  2  0
  9 10  1  0
 10 11  2  0
 11 12  1  0
 12 13  1  0
 12 14  2  0
 14 15  1  0
  7 16  1  0
 16 17  1  0
 17 18  2  0
 17 19  1  0
 16 20  2  0
 20 21  1  0
 21 22  1  0
 22 23  2  0
 23 24  1  0
 24 25  2  0
 25 26  1  0
 26 27  2  0
 27 28  1  0
 28 29  2  0
 29 30  1  0
 30 31  2  0
 31 32  1  0
 32 33  2  0
 33 34  1  0
 34 35  2  0
 35 36  1  0
 25 37  1  0
 37 38  2  0
 20  5  1  0
 38 22  1  0
 14  8  1  0
 31 26  1  0
 36 32  1  0
  1 39  1  0
  1 40  1  0
  1 41  1  0
  2 42  1  0
  2 43  1  0
  3 44  1  0
  3 45  1  0
  4 46  1  0
  4 47  1  0
  9 48  1  0
 10 49  1  0
 11 50  1  0
 19 51  1  0
 21 52  1  0
 21 53  1  0
 23 54  1  0
 24 55  1  0
 27 56  1  0
 28 57  1  0
 29 58  1  0
 30 59  1  0
 36 60  1  0
 37 61  1  0
 38 62  1  0
M  END
$$$$
