
     RDKit          3D

106111  0  0  0  0  0  0  0  0999 V2000
   -3.5044    0.2913    1.8383 C   0  0  0  0  0  0  0  0  0  0  0  0
   -2.8048   -0.9186    1.8039 O   0  0  0  0  0  0  0  0  0  0  0  0
   -3.4859   -1.9402    2.4194 C   0  0  0  0  0  0  0  0  0  0  0  0
   -4.8093   -2.2996    1.8510 C   0  0  0  0  0  0  0  0  0  0  0  0
   -4.8293   -2.7826    0.4497 C   0  0  0  0  0  0  0  0  0  0  0  0
   -4.3267   -1.8434   -0.5747 C   0  0  0  0  0  0  0  0  0  0  0  0
   -2.9871   -1.8655   -0.9702 C   0  0  0  0  0  0  0  0  0  0  0  0
   -2.5015   -1.0032   -1.9242 C   0  0  0  0  0  0  0  0  0  0  0  0
   -1.1074   -1.0371   -2.4624 C   0  0  0  0  0  0  0  0  0  0  0  0
   -0.1103   -0.5072   -1.5637 N   0  0  0  0  0  0  0  0  0  0  0  0
    0.7812   -1.3088   -0.8495 C   0  0  0  0  0  0  0  0  0  0  0  0
    1.5559   -0.6131   -0.0431 O   0  0  0  0  0  0  0  0  0  0  0  0
    1.0932   -2.7044   -0.7522 C   0  0  1  0  0  0  0  0  0  0  0  0
    0.3855   -3.7318   -1.5498 C   0  0  0  0  0  0  0  0  0  0  0  0
    0.8609   -5.0634   -1.2080 N   0  0  0  0  0  0  0  0  0  0  0  0
    1.8540   -5.0927   -0.1913 C   0  0  0  0  0  0  0  0  0  0  0  0
    3.0167   -4.1535   -0.3575 C   0  0  0  0  0  0  0  0  0  0  0  0
    2.5765   -2.9130   -1.0649 C   0  0  2  0  0  0  0  0  0  0  0  0
    3.4480   -1.7607   -0.8959 C   0  0  0  0  0  0  0  0  0  0  0  0
    4.2669   -1.5373    0.1900 C   0  0  0  0  0  0  0  0  0  0  0  0
    5.1175   -0.4236    0.2668 C   0  0  0  0  0  0  0  0  0  0  0  0
    5.1851    0.5090   -0.7316 C   0  0  0  0  0  0  0  0  0  0  0  0
    6.0423    1.6275   -0.6812 O   0  0  0  0  0  0  0  0  0  0  0  0
    6.9605    1.7641    0.4105 C   0  0  0  0  0  0  0  0  0  0  0  0
    8.0399    0.7196    0.3123 C   0  0  0  0  0  0  0  0  0  0  0  0
    8.9899    0.6829    1.2978 O   0  0  0  0  0  0  0  0  0  0  0  0
    9.8819    1.6166    1.7436 C   0  0  0  0  0  0  0  0  0  0  0  0
    9.6026    2.4807    2.7722 C   0  0  0  0  0  0  0  0  0  0  0  0
    8.0435    2.4262    3.6134 Cl  0  0  0  0  0  0  0  0  0  0  0  0
   10.5627    3.4005    3.1646 C   0  0  0  0  0  0  0  0  0  0  0  0
   11.8068    3.5101    2.5806 C   0  0  0  0  0  0  0  0  0  0  0  0
   12.7974    4.5219    3.0438 C   0  0  0  0  0  0  0  0  0  0  0  0
   12.0533    2.6222    1.5470 C   0  0  0  0  0  0  0  0  0  0  0  0
   11.1301    1.7030    1.1340 C   0  0  0  0  0  0  0  0  0  0  0  0
   11.5053    0.5922   -0.1922 Cl  0  0  0  0  0  0  0  0  0  0  0  0
    4.3659    0.3039   -1.8311 C   0  0  0  0  0  0  0  0  0  0  0  0
    3.5259   -0.7950   -1.9093 C   0  0  0  0  0  0  0  0  0  0  0  0
   -0.1145    0.9397   -1.4517 C   0  0  0  0  0  0  0  0  0  0  0  0
    0.9560    1.7764   -0.9528 C   0  0  0  0  0  0  0  0  0  0  0  0
   -0.1381    1.4487   -0.0046 C   0  0  0  0  0  0  0  0  0  0  0  0
   -3.4193   -0.1202   -2.4563 C   0  0  0  0  0  0  0  0  0  0  0  0
   -4.7679   -0.0740   -2.0807 C   0  0  0  0  0  0  0  0  0  0  0  0
   -5.5843    0.8373   -2.6741 O   0  0  0  0  0  0  0  0  0  0  0  0
   -6.9256    1.0765   -2.4896 C   0  0  0  0  0  0  0  0  0  0  0  0
   -7.3902    1.4853   -1.1398 C   0  0  1  0  0  0  0  0  0  0  0  0
   -6.8897    2.7276   -0.4883 C   0  0  0  0  0  0  0  0  0  0  0  0
   -8.2511    2.7560   -1.0183 C   0  0  2  0  0  0  0  0  0  0  0  0
   -9.3870    2.6942   -0.0728 C   0  0  0  0  0  0  0  0  0  0  0  0
  -10.4582    3.2663   -0.3045 O   0  0  0  0  0  0  0  0  0  0  0  0
   -9.2568    1.9607    1.1339 N   0  0  0  0  0  0  0  0  0  0  0  0
  -10.5885    1.8865    2.2219 S   0  0  0  0  0  6  0  0  0  0  0  0
  -11.5674    0.4559    1.7702 C   0  0  0  0  0  0  0  0  0  0  0  0
  -11.3882    3.1555    2.1071 O   0  0  0  0  0  0  0  0  0  0  0  0
  -10.0998    1.7182    3.6307 O   0  0  0  0  0  0  0  0  0  0  0  0
   -5.2094   -0.9495   -1.1317 C   0  0  0  0  0  0  0  0  0  0  0  0
   -3.6746    0.5538    2.9197 H   0  0  0  0  0  0  0  0  0  0  0  0
   -4.4903    0.2572    1.3865 H   0  0  0  0  0  0  0  0  0  0  0  0
   -2.8711    1.0610    1.3477 H   0  0  0  0  0  0  0  0  0  0  0  0
   -3.5804   -1.6537    3.5009 H   0  0  0  0  0  0  0  0  0  0  0  0
   -2.8247   -2.8412    2.3428 H   0  0  0  0  0  0  0  0  0  0  0  0
   -5.2138   -3.1463    2.4854 H   0  0  0  0  0  0  0  0  0  0  0  0
   -5.5698   -1.4953    1.9513 H   0  0  0  0  0  0  0  0  0  0  0  0
   -4.2650   -3.7638    0.3327 H   0  0  0  0  0  0  0  0  0  0  0  0
   -5.8778   -3.0647    0.1267 H   0  0  0  0  0  0  0  0  0  0  0  0
   -2.3224   -2.5651   -0.5033 H   0  0  0  0  0  0  0  0  0  0  0  0
   -0.8617   -2.0352   -2.7746 H   0  0  0  0  0  0  0  0  0  0  0  0
   -1.1078   -0.3240   -3.3473 H   0  0  0  0  0  0  0  0  0  0  0  0
    0.9770   -3.0082    0.3327 H   0  0  0  0  0  0  0  0  0  0  0  0
   -0.7072   -3.8077   -1.4130 H   0  0  0  0  0  0  0  0  0  0  0  0
    0.6642   -3.6622   -2.6594 H   0  0  0  0  0  0  0  0  0  0  0  0
    0.0738   -5.6870   -0.8590 H   0  0  0  0  0  0  0  0  0  0  0  0
    2.2377   -6.1521   -0.0396 H   0  0  0  0  0  0  0  0  0  0  0  0
    1.3315   -4.8811    0.7963 H   0  0  0  0  0  0  0  0  0  0  0  0
    3.3691   -3.8671    0.6862 H   0  0  0  0  0  0  0  0  0  0  0  0
    3.8755   -4.6509   -0.8810 H   0  0  0  0  0  0  0  0  0  0  0  0
    2.5417   -3.1949   -2.1828 H   0  0  0  0  0  0  0  0  0  0  0  0
    4.2694   -2.2208    1.0178 H   0  0  0  0  0  0  0  0  0  0  0  0
    5.7099   -0.3000    1.1823 H   0  0  0  0  0  0  0  0  0  0  0  0
    6.3526    1.6967    1.3113 H   0  0  0  0  0  0  0  0  0  0  0  0
    7.3932    2.7757    0.3309 H   0  0  0  0  0  0  0  0  0  0  0  0
    8.5734    1.0011   -0.6981 H   0  0  0  0  0  0  0  0  0  0  0  0
    7.6121   -0.2682    0.1287 H   0  0  0  0  0  0  0  0  0  0  0  0
   10.3155    4.0713    3.9813 H   0  0  0  0  0  0  0  0  0  0  0  0
   12.2136    5.4900    3.0806 H   0  0  0  0  0  0  0  0  0  0  0  0
   13.2367    4.2740    4.0284 H   0  0  0  0  0  0  0  0  0  0  0  0
   13.5540    4.6510    2.2492 H   0  0  0  0  0  0  0  0  0  0  0  0
   13.0340    2.6797    1.0563 H   0  0  0  0  0  0  0  0  0  0  0  0
    4.4148    1.0443   -2.6220 H   0  0  0  0  0  0  0  0  0  0  0  0
    2.8887   -0.9285   -2.7911 H   0  0  0  0  0  0  0  0  0  0  0  0
   -0.8903    1.4354   -2.1140 H   0  0  0  0  0  0  0  0  0  0  0  0
    0.9314    2.8567   -1.3056 H   0  0  0  0  0  0  0  0  0  0  0  0
    1.9974    1.4976   -0.7528 H   0  0  0  0  0  0  0  0  0  0  0  0
   -0.0476    0.7610    0.8306 H   0  0  0  0  0  0  0  0  0  0  0  0
   -0.9181    2.2420    0.2137 H   0  0  0  0  0  0  0  0  0  0  0  0
   -3.0660    0.5908   -3.2246 H   0  0  0  0  0  0  0  0  0  0  0  0
   -7.5088    0.1455   -2.7700 H   0  0  0  0  0  0  0  0  0  0  0  0
   -7.3299    1.8349   -3.2362 H   0  0  0  0  0  0  0  0  0  0  0  0
   -7.8288    0.6715   -0.5036 H   0  0  0  0  0  0  0  0  0  0  0  0
   -6.1252    3.3236   -1.0342 H   0  0  0  0  0  0  0  0  0  0  0  0
   -6.6710    2.6640    0.5976 H   0  0  0  0  0  0  0  0  0  0  0  0
   -8.4543    3.3413   -1.9409 H   0  0  0  0  0  0  0  0  0  0  0  0
   -8.3811    1.4748    1.3644 H   0  0  0  0  0  0  0  0  0  0  0  0
  -12.4920    0.4309    2.3600 H   0  0  0  0  0  0  0  0  0  0  0  0
  -10.9230   -0.4267    1.9509 H   0  0  0  0  0  0  0  0  0  0  0  0
  -11.8052    0.5717    0.6918 H   0  0  0  0  0  0  0  0  0  0  0  0
   -6.2616   -0.9712   -0.7980 H   0  0  0  0  0  0  0  0  0  0  0  0
  1  2  1  0
  2  3  1  0
  3  4  1  0
  4  5  1  0
  5  6  1  0
  6  7  2  0
  7  8  1  0
  8  9  1  0
  9 10  1  0
 10 11  1  0
 11 12  2  0
 11 13  1  0
 13 14  1  0
 14 15  1  0
 15 16  1  0
 16 17  1  0
 17 18  1  0
 18 19  1  0
 19 20  2  0
 20 21  1  0
 21 22  2  0
 22 23  1  0
 23 24  1  0
 24 25  1  0
 25 26  1  0
 26 27  1  0
 27 28  2  0
 28 29  1  0
 28 30  1  0
 30 31  2  0
 31 32  1  0
 31 33  1  0
 33 34  2  0
 34 35  1  0
 22 36  1  0
 36 37  2  0
 10 38  1  0
 38 39  1  0
 39 40  1  0
  8 41  2  0
 41 42  1  0
 42 43  1  0
 43 44  1  0
 44 45  1  0
 45 46  1  0
 46 47  1  0
 47 48  1  0
 48 49  2  0
 48 50  1  0
 50 51  1  0
 51 52  1  0
 51 53  2  0
 51 54  2  0
 42 55  2  0
 55  6  1  0
 18 13  1  0
 37 19  1  0
 40 38  1  0
 47 45  1  0
 34 27  1  0
  1 56  1  0
  1 57  1  0
  1 58  1  0
  3 59  1  0
  3 60  1  0
  4 61  1  0
  4 62  1  0
  5 63  1  0
  5 64  1  0
  7 65  1  0
  9 66  1  0
  9 67  1  0
 13 68  1  1
 14 69  1  0
 14 70  1  0
 15 71  1  0
 16 72  1  0
 16 73  1  0
 17 74  1  0
 17 75  1  0
 18 76  1  6
 20 77  1  0
 21 78  1  0
 24 79  1  0
 24 80  1  0
 25 81  1  0
 25 82  1  0
 30 83  1  0
 32 84  1  0
 32 85  1  0
 32 86  1  0
 33 87  1  0
 36 88  1  0
 37 89  1  0
 38 90  1  0
 39 91  1  0
 39 92  1  0
 40 93  1  0
 40 94  1  0
 41 95  1  0
 44 96  1  0
 44 97  1  0
 45 98  1  1
 46 99  1  0
 46100  1  0
 47101  1  6
 50102  1  0
 52103  1  0
 52104  1  0
 52105  1  0
 55106  1  0
M  END
$$$$
