
     RDKit          3D

 49 53  0  0  0  0  0  0  0  0999 V2000
   -6.9171   -1.3005    0.8726 C   0  0  0  0  0  0  0  0  0  0  0  0
   -6.0360   -0.2045    0.3949 C   0  0  0  0  0  0  0  0  0  0  0  0
   -6.6288    0.9433   -0.1082 C   0  0  0  0  0  0  0  0  0  0  0  0
   -5.8320    1.9709   -0.5567 C   0  0  0  0  0  0  0  0  0  0  0  0
   -4.4901    1.8874   -0.5183 N   0  0  0  0  0  0  0  0  0  0  0  0
   -3.9315    0.7755   -0.0307 C   0  0  0  0  0  0  0  0  0  0  0  0
   -2.6034    0.4276    0.1226 C   0  0  0  0  0  0  0  0  0  0  0  0
   -2.6174   -0.8341    0.6742 C   0  0  0  0  0  0  0  0  0  0  0  0
   -3.9028   -1.2026    0.8342 N   0  0  0  0  0  0  0  0  0  0  0  0
   -4.7002   -0.2445    0.4144 N   0  0  0  0  0  0  0  0  0  0  0  0
   -1.1857   -1.2609    0.8598 C   0  0  0  0  0  0  0  0  0  0  0  0
   -0.5073   -0.4446   -0.1320 N   0  0  0  0  0  0  0  0  0  0  0  0
    0.9081   -0.3190    0.1873 C   0  0  1  0  0  0  0  0  0  0  0  0
    1.5873   -1.6317    0.2403 C   0  0  0  0  0  0  0  0  0  0  0  0
    2.8480   -1.7632   -0.2002 O   0  0  0  0  0  0  0  0  0  0  0  0
    3.3874   -0.8682   -1.0698 C   0  0  2  0  0  0  0  0  0  0  0  0
    4.3752   -0.0117   -0.3962 C   0  0  0  0  0  0  0  0  0  0  0  0
    4.2567    0.2392    0.9474 C   0  0  0  0  0  0  0  0  0  0  0  0
    5.1592    1.0316    1.6368 C   0  0  0  0  0  0  0  0  0  0  0  0
    5.0344    1.2777    2.9754 F   0  0  0  0  0  0  0  0  0  0  0  0
    6.2053    1.5889    0.9769 C   0  0  0  0  0  0  0  0  0  0  0  0
    6.3659    1.3593   -0.3967 C   0  0  0  0  0  0  0  0  0  0  0  0
    5.4509    0.5664   -1.0536 C   0  0  0  0  0  0  0  0  0  0  0  0
    5.6232    0.3574   -2.3764 F   0  0  0  0  0  0  0  0  0  0  0  0
    2.3052   -0.1225   -1.7669 C   0  0  1  0  0  0  0  0  0  0  0  0
    1.3718   -1.0841   -2.3132 N   0  0  0  0  0  0  0  0  0  0  0  0
    1.5636    0.6721   -0.7168 C   0  0  0  0  0  0  0  0  0  0  0  0
   -1.1751    0.8143   -0.0452 C   0  0  0  0  0  0  0  0  0  0  0  0
   -7.3427   -0.9931    1.8573 H   0  0  0  0  0  0  0  0  0  0  0  0
   -6.3572   -2.2330    1.0573 H   0  0  0  0  0  0  0  0  0  0  0  0
   -7.7173   -1.4183    0.1036 H   0  0  0  0  0  0  0  0  0  0  0  0
   -7.7218    1.0244   -0.1456 H   0  0  0  0  0  0  0  0  0  0  0  0
   -6.3186    2.8658   -0.9489 H   0  0  0  0  0  0  0  0  0  0  0  0
   -0.8533   -1.0455    1.8946 H   0  0  0  0  0  0  0  0  0  0  0  0
   -1.0470   -2.3192    0.5945 H   0  0  0  0  0  0  0  0  0  0  0  0
    0.9103    0.1228    1.2289 H   0  0  0  0  0  0  0  0  0  0  0  0
    1.4605   -2.0438    1.2863 H   0  0  0  0  0  0  0  0  0  0  0  0
    0.9490   -2.3501   -0.3675 H   0  0  0  0  0  0  0  0  0  0  0  0
    3.9145   -1.4740   -1.8668 H   0  0  0  0  0  0  0  0  0  0  0  0
    3.4469   -0.1779    1.5311 H   0  0  0  0  0  0  0  0  0  0  0  0
    6.9400    2.2216    1.4861 H   0  0  0  0  0  0  0  0  0  0  0  0
    7.1784    1.7818   -0.9538 H   0  0  0  0  0  0  0  0  0  0  0  0
    2.6546    0.5072   -2.6042 H   0  0  0  0  0  0  0  0  0  0  0  0
    1.8669   -1.9313   -2.6741 H   0  0  0  0  0  0  0  0  0  0  0  0
    0.9118   -0.6377   -3.1342 H   0  0  0  0  0  0  0  0  0  0  0  0
    2.2872    1.2719   -0.0996 H   0  0  0  0  0  0  0  0  0  0  0  0
    0.8759    1.3937   -1.1528 H   0  0  0  0  0  0  0  0  0  0  0  0
   -0.8106    1.3848    0.8579 H   0  0  0  0  0  0  0  0  0  0  0  0
   -1.1421    1.4303   -0.9620 H   0  0  0  0  0  0  0  0  0  0  0  0
  1  2  1  0
  2  3  2  0
  3  4  1  0
  4  5  2  0
  5  6  1  0
  6  7  2  0
  7  8  1  0
  8  9  2  0
  9 10  1  0
  8 11  1  0
 11 12  1  0
 12 13  1  0
 13 14  1  0
 14 15  1  0
 15 16  1  0
 16 17  1  0
 17 18  2  0
 18 19  1  0
 19 20  1  0
 19 21  2  0
 21 22  1  0
 22 23  2  0
 23 24  1  0
 16 25  1  0
 25 26  1  0
 25 27  1  0
 12 28  1  0
 10  2  1  0
 27 13  1  0
 10  6  1  0
 23 17  1  0
 28  7  1  0
  1 29  1  0
  1 30  1  0
  1 31  1  0
  3 32  1  0
  4 33  1  0
 11 34  1  0
 11 35  1  0
 13 36  1  1
 14 37  1  0
 14 38  1  0
 16 39  1  6
 18 40  1  0
 21 41  1  0
 22 42  1  0
 25 43  1  6
 26 44  1  0
 26 45  1  0
 27 46  1  0
 27 47  1  0
 28 48  1  0
 28 49  1  0
M  END
$$$$
