
     RDKit          3D

 50 53  0  0  0  0  0  0  0  0999 V2000
    1.4270   -3.7616   -1.1247 C   0  0  0  0  0  0  0  0  0  0  0  0
    1.0325   -3.0998   -0.0594 C   0  0  0  0  0  0  0  0  0  0  0  0
    0.2383   -3.8825    0.9031 C   0  0  0  0  0  0  0  0  0  0  0  0
    1.4498   -1.7684    0.1985 C   0  0  0  0  0  0  0  0  0  0  0  0
    2.5902   -1.3370   -0.5092 C   0  0  0  0  0  0  0  0  0  0  0  0
    3.1242   -0.1313   -0.4308 N   0  0  0  0  0  0  0  0  0  0  0  0
    2.5398    0.7611    0.3878 C   0  0  0  0  0  0  0  0  0  0  0  0
    3.1321    2.0769    0.4684 C   0  0  0  0  0  0  0  0  0  0  0  0
    2.5924    3.0368    1.2796 C   0  0  0  0  0  0  0  0  0  0  0  0
    3.1671    4.3031    1.3536 C   0  0  0  0  0  0  0  0  0  0  0  0
    2.4575    5.5069    2.3961 Cl  0  0  0  0  0  0  0  0  0  0  0  0
    4.2819    4.5821    0.6053 C   0  0  0  0  0  0  0  0  0  0  0  0
    4.8158    3.6073   -0.2074 C   0  0  0  0  0  0  0  0  0  0  0  0
    4.2475    2.3662   -0.2762 C   0  0  0  0  0  0  0  0  0  0  0  0
    4.7784    1.4167   -1.0761 F   0  0  0  0  0  0  0  0  0  0  0  0
    1.4368    0.4399    1.1105 C   0  0  0  0  0  0  0  0  0  0  0  0
    0.8689   -0.8832    1.0072 C   0  0  0  0  0  0  0  0  0  0  0  0
   -0.2957   -1.0403    1.7510 N   0  0  0  0  0  0  0  0  0  0  0  0
   -1.6007   -1.4206    1.5995 C   0  0  0  0  0  0  0  0  0  0  0  0
   -2.0941   -2.3677    2.5271 C   0  0  0  0  0  0  0  0  0  0  0  0
   -3.3583   -2.8558    2.5312 C   0  0  0  0  0  0  0  0  0  0  0  0
   -4.1978   -2.4065    1.5878 N   0  0  0  0  0  0  0  0  0  0  0  0
   -3.7729   -1.4933    0.6691 C   0  0  0  0  0  0  0  0  0  0  0  0
   -2.4769   -0.9827    0.6516 C   0  0  0  0  0  0  0  0  0  0  0  0
   -2.1480   -0.0379   -0.4117 C   0  0  0  0  0  0  0  0  0  0  0  0
   -0.9646    0.3746   -0.5833 O   0  0  0  0  0  0  0  0  0  0  0  0
   -3.0893    0.5009   -1.3336 N   0  0  0  0  0  0  0  0  0  0  0  0
   -2.6869    1.4429   -2.3752 C   0  0  0  0  0  0  0  0  0  0  0  0
   -3.5782    2.5812   -2.7321 C   0  0  0  0  0  0  0  0  0  0  0  0
   -3.3569    1.4470   -3.6813 C   0  0  0  0  0  0  0  0  0  0  0  0
    2.0128   -3.3813   -1.9481 H   0  0  0  0  0  0  0  0  0  0  0  0
    1.1312   -4.8307   -1.1975 H   0  0  0  0  0  0  0  0  0  0  0  0
    0.6834   -4.9424    0.9585 H   0  0  0  0  0  0  0  0  0  0  0  0
   -0.8082   -3.9884    0.6414 H   0  0  0  0  0  0  0  0  0  0  0  0
    0.3514   -3.5294    1.9416 H   0  0  0  0  0  0  0  0  0  0  0  0
    3.0803   -2.0654   -1.1625 H   0  0  0  0  0  0  0  0  0  0  0  0
    1.7046    2.8815    1.9029 H   0  0  0  0  0  0  0  0  0  0  0  0
    4.7630    5.5403    0.6256 H   0  0  0  0  0  0  0  0  0  0  0  0
    5.7063    3.8421   -0.8004 H   0  0  0  0  0  0  0  0  0  0  0  0
    0.9373    1.1199    1.7776 H   0  0  0  0  0  0  0  0  0  0  0  0
   -0.0941   -0.7610    2.8305 H   0  0  0  0  0  0  0  0  0  0  0  0
   -1.4296   -2.7529    3.3163 H   0  0  0  0  0  0  0  0  0  0  0  0
   -3.7164   -3.5778    3.2466 H   0  0  0  0  0  0  0  0  0  0  0  0
   -4.4830   -1.1631   -0.0745 H   0  0  0  0  0  0  0  0  0  0  0  0
   -4.0792    0.2157   -1.2524 H   0  0  0  0  0  0  0  0  0  0  0  0
   -1.6077    1.6844   -2.3714 H   0  0  0  0  0  0  0  0  0  0  0  0
   -3.1453    3.5857   -2.9526 H   0  0  0  0  0  0  0  0  0  0  0  0
   -4.6062    2.6468   -2.3144 H   0  0  0  0  0  0  0  0  0  0  0  0
   -2.7669    1.7374   -4.5893 H   0  0  0  0  0  0  0  0  0  0  0  0
   -4.1935    0.7637   -3.9264 H   0  0  0  0  0  0  0  0  0  0  0  0
  1  2  2  3
  2  3  1  0
  2  4  1  0
  4  5  2  0
  5  6  1  0
  6  7  2  0
  7  8  1  0
  8  9  2  0
  9 10  1  0
 10 11  1  0
 10 12  2  0
 12 13  1  0
 13 14  2  0
 14 15  1  0
  7 16  1  0
 16 17  2  0
 17 18  1  0
 18 19  1  0
 19 20  2  0
 20 21  1  0
 21 22  2  0
 22 23  1  0
 23 24  2  0
 24 25  1  0
 25 26  2  0
 25 27  1  0
 27 28  1  0
 28 29  1  0
 29 30  1  0
 17  4  1  0
 24 19  1  0
 30 28  1  0
 14  8  1  0
  1 31  1  0
  1 32  1  0
  3 33  1  0
  3 34  1  0
  3 35  1  0
  5 36  1  0
  9 37  1  0
 12 38  1  0
 13 39  1  0
 16 40  1  0
 18 41  1  0
 20 42  1  0
 21 43  1  0
 23 44  1  0
 27 45  1  0
 28 46  1  0
 29 47  1  0
 29 48  1  0
 30 49  1  0
 30 50  1  0
M  END
$$$$
