
     RDKit          3D

 75 79  0  0  0  0  0  0  0  0999 V2000
    4.6367   -0.2358    1.4867 O   0  0  0  0  0  0  0  0  0  0  0  0
    5.3752   -0.4236    0.3492 C   0  0  1  0  0  0  0  0  0  0  0  0
    5.5468    0.8369   -0.4649 C   0  0  2  0  0  0  0  0  0  0  0  0
    4.4748    1.7283   -0.5137 N   0  0  0  0  0  0  0  0  0  0  0  0
    3.2279    1.3893   -1.0415 C   0  0  0  0  0  0  0  0  0  0  0  0
    2.4452    0.3472   -0.3336 C   0  0  0  0  0  0  0  0  0  0  0  0
    1.5851    0.5835    0.7414 C   0  0  0  0  0  0  0  0  0  0  0  0
    1.0387   -0.5838    1.1054 N   0  0  0  0  0  0  0  0  0  0  0  0
    0.0759   -0.7642    2.2010 C   0  0  0  0  0  0  0  0  0  0  0  0
   -1.2676   -0.5951    1.5984 C   0  0  0  0  0  0  0  0  0  0  0  0
   -1.8745    0.6389    1.5350 C   0  0  0  0  0  0  0  0  0  0  0  0
   -3.1192    0.8303    0.9834 C   0  0  0  0  0  0  0  0  0  0  0  0
   -3.7039    2.0776    0.9329 O   0  0  0  0  0  0  0  0  0  0  0  0
   -3.0879    3.2472    1.4340 C   0  0  0  0  0  0  0  0  0  0  0  0
   -4.0224    4.3778    1.1974 C   0  0  0  0  0  0  0  0  0  0  0  0
   -4.9485    4.7034    2.1475 C   0  0  0  0  0  0  0  0  0  0  0  0
   -5.8187    5.7654    1.9144 C   0  0  0  0  0  0  0  0  0  0  0  0
   -5.7475    6.4812    0.7381 C   0  0  0  0  0  0  0  0  0  0  0  0
   -4.8182    6.1601   -0.2238 C   0  0  0  0  0  0  0  0  0  0  0  0
   -3.9666    5.1046    0.0284 C   0  0  0  0  0  0  0  0  0  0  0  0
   -3.7914   -0.2552    0.4712 C   0  0  0  0  0  0  0  0  0  0  0  0
   -3.2086   -1.5218    0.5175 C   0  0  0  0  0  0  0  0  0  0  0  0
   -3.8296   -2.6540    0.0210 O   0  0  0  0  0  0  0  0  0  0  0  0
   -5.1128   -2.5280   -0.5607 C   0  0  0  0  0  0  0  0  0  0  0  0
   -5.5606   -3.8743   -1.0136 C   0  0  0  0  0  0  0  0  0  0  0  0
   -5.2502   -4.2766   -2.2905 C   0  0  0  0  0  0  0  0  0  0  0  0
   -5.6698   -5.5251   -2.6996 C   0  0  0  0  0  0  0  0  0  0  0  0
   -6.3863   -6.3538   -1.8453 C   0  0  0  0  0  0  0  0  0  0  0  0
   -6.6858   -5.9258   -0.5660 C   0  0  0  0  0  0  0  0  0  0  0  0
   -6.2730   -4.6835   -0.1468 C   0  0  0  0  0  0  0  0  0  0  0  0
   -1.9404   -1.6781    1.0865 C   0  0  0  0  0  0  0  0  0  0  0  0
    1.5230   -1.5085    0.3085 N   0  0  0  0  0  0  0  0  0  0  0  0
    2.3638   -0.9791   -0.5582 N   0  0  0  0  0  0  0  0  0  0  0  0
    6.1694    0.4831   -1.8018 C   0  0  1  0  0  0  0  0  0  0  0  0
    6.3809    1.6613   -2.4960 O   0  0  0  0  0  0  0  0  0  0  0  0
    7.5560   -0.0800   -1.4560 C   0  0  2  0  0  0  0  0  0  0  0  0
    8.0987   -0.5193   -2.6666 O   0  0  0  0  0  0  0  0  0  0  0  0
    7.4492   -1.2818   -0.5512 C   0  0  1  0  0  0  0  0  0  0  0  0
    8.6926   -1.8348   -0.3850 O   0  0  0  0  0  0  0  0  0  0  0  0
    6.8114   -0.8318    0.7547 C   0  0  2  0  0  0  0  0  0  0  0  0
    6.8062   -1.8072    1.7178 O   0  0  0  0  0  0  0  0  0  0  0  0
    4.2709   -1.0793    1.8021 H   0  0  0  0  0  0  0  0  0  0  0  0
    5.0500   -1.2710   -0.2952 H   0  0  0  0  0  0  0  0  0  0  0  0
    6.3934    1.3931    0.0717 H   0  0  0  0  0  0  0  0  0  0  0  0
    4.3565    2.2093    0.4055 H   0  0  0  0  0  0  0  0  0  0  0  0
    2.5744    2.3183   -1.0010 H   0  0  0  0  0  0  0  0  0  0  0  0
    3.2295    1.1295   -2.1291 H   0  0  0  0  0  0  0  0  0  0  0  0
    1.4388    1.5637    1.1518 H   0  0  0  0  0  0  0  0  0  0  0  0
    0.2185   -1.7707    2.6284 H   0  0  0  0  0  0  0  0  0  0  0  0
    0.2811   -0.0244    2.9849 H   0  0  0  0  0  0  0  0  0  0  0  0
   -1.3573    1.4822    1.9301 H   0  0  0  0  0  0  0  0  0  0  0  0
   -2.1708    3.4740    0.8158 H   0  0  0  0  0  0  0  0  0  0  0  0
   -2.7743    3.1514    2.4802 H   0  0  0  0  0  0  0  0  0  0  0  0
   -4.9736    4.1183    3.0574 H   0  0  0  0  0  0  0  0  0  0  0  0
   -6.5534    6.0080    2.6918 H   0  0  0  0  0  0  0  0  0  0  0  0
   -6.4472    7.3160    0.5796 H   0  0  0  0  0  0  0  0  0  0  0  0
   -4.7757    6.7346   -1.1452 H   0  0  0  0  0  0  0  0  0  0  0  0
   -3.2221    4.8455   -0.7399 H   0  0  0  0  0  0  0  0  0  0  0  0
   -4.7570   -0.1509    0.0351 H   0  0  0  0  0  0  0  0  0  0  0  0
   -5.8373   -2.0922    0.1537 H   0  0  0  0  0  0  0  0  0  0  0  0
   -5.0325   -1.8452   -1.4136 H   0  0  0  0  0  0  0  0  0  0  0  0
   -4.6911   -3.6275   -2.9541 H   0  0  0  0  0  0  0  0  0  0  0  0
   -5.4289   -5.8592   -3.7169 H   0  0  0  0  0  0  0  0  0  0  0  0
   -6.7111   -7.3379   -2.1830 H   0  0  0  0  0  0  0  0  0  0  0  0
   -7.2433   -6.5506    0.1222 H   0  0  0  0  0  0  0  0  0  0  0  0
   -6.5247   -4.3787    0.8638 H   0  0  0  0  0  0  0  0  0  0  0  0
   -1.5046   -2.6736    1.1123 H   0  0  0  0  0  0  0  0  0  0  0  0
    5.6438   -0.2949   -2.3497 H   0  0  0  0  0  0  0  0  0  0  0  0
    6.1829    2.4770   -1.9479 H   0  0  0  0  0  0  0  0  0  0  0  0
    8.2159    0.7054   -1.0393 H   0  0  0  0  0  0  0  0  0  0  0  0
    8.6998    0.1739   -3.0217 H   0  0  0  0  0  0  0  0  0  0  0  0
    6.7088   -1.9720   -1.0241 H   0  0  0  0  0  0  0  0  0  0  0  0
    8.5955   -2.6343    0.2104 H   0  0  0  0  0  0  0  0  0  0  0  0
    7.3019    0.1148    1.0539 H   0  0  0  0  0  0  0  0  0  0  0  0
    6.6691   -1.3473    2.6000 H   0  0  0  0  0  0  0  0  0  0  0  0
  1  2  1  0
  2  3  1  0
  3  4  1  0
  4  5  1  0
  5  6  1  0
  6  7  2  0
  7  8  1  0
  8  9  1  0
  9 10  1  0
 10 11  2  0
 11 12  1  0
 12 13  1  0
 13 14  1  0
 14 15  1  0
 15 16  2  0
 16 17  1  0
 17 18  2  0
 18 19  1  0
 19 20  2  0
 12 21  2  0
 21 22  1  0
 22 23  1  0
 23 24  1  0
 24 25  1  0
 25 26  2  0
 26 27  1  0
 27 28  2  0
 28 29  1  0
 29 30  2  0
 22 31  2  0
  8 32  1  0
 32 33  2  0
  3 34  1  0
 34 35  1  0
 34 36  1  0
 36 37  1  0
 36 38  1  0
 38 39  1  0
 38 40  1  0
 40 41  1  0
 40  2  1  0
 33  6  1  0
 31 10  1  0
 20 15  1  0
 30 25  1  0
  1 42  1  0
  2 43  1  6
  3 44  1  1
  4 45  1  0
  5 46  1  0
  5 47  1  0
  7 48  1  0
  9 49  1  0
  9 50  1  0
 11 51  1  0
 14 52  1  0
 14 53  1  0
 16 54  1  0
 17 55  1  0
 18 56  1  0
 19 57  1  0
 20 58  1  0
 21 59  1  0
 24 60  1  0
 24 61  1  0
 26 62  1  0
 27 63  1  0
 28 64  1  0
 29 65  1  0
 30 66  1  0
 31 67  1  0
 34 68  1  6
 35 69  1  0
 36 70  1  1
 37 71  1  0
 38 72  1  6
 39 73  1  0
 40 74  1  1
 41 75  1  0
M  END
$$$$
