
     RDKit          3D

 59 64  0  0  0  0  0  0  0  0999 V2000
    3.5557   -0.4191    3.2759 C   0  0  0  0  0  0  0  0  0  0  0  0
    3.3990   -0.1641    1.8889 O   0  0  0  0  0  0  0  0  0  0  0  0
    4.2153   -0.7768    0.9686 C   0  0  0  0  0  0  0  0  0  0  0  0
    5.2189   -1.6643    1.3628 C   0  0  0  0  0  0  0  0  0  0  0  0
    6.0356   -2.2767    0.4340 C   0  0  0  0  0  0  0  0  0  0  0  0
    5.8698   -2.0176   -0.9108 C   0  0  0  0  0  0  0  0  0  0  0  0
    4.8772   -1.1418   -1.2781 C   0  0  0  0  0  0  0  0  0  0  0  0
    4.0411   -0.5109   -0.3722 C   0  0  0  0  0  0  0  0  0  0  0  0
    3.0467    0.3767   -0.8600 N   0  0  0  0  0  0  0  0  0  0  0  0
    3.1978    1.4931   -1.5286 N   0  0  0  0  0  0  0  0  0  0  0  0
    2.0436    2.0663   -1.8236 C   0  0  0  0  0  0  0  0  0  0  0  0
    1.7471    3.3214   -2.5569 C   0  0  0  0  0  0  0  0  0  0  0  0
    1.0464    1.2483   -1.2991 C   0  0  0  0  0  0  0  0  0  0  0  0
    1.6986    0.2043   -0.7049 C   0  0  0  0  0  0  0  0  0  0  0  0
    0.7149   -0.6955   -0.1315 C   0  0  0  0  0  0  0  0  0  0  0  0
    1.0118   -1.7559    0.4864 O   0  0  0  0  0  0  0  0  0  0  0  0
   -0.5640   -0.1529   -0.4031 N   0  0  0  0  0  0  0  0  0  0  0  0
   -1.7739   -0.7976    0.0293 C   0  0  0  0  0  0  0  0  0  0  0  0
   -2.3596   -0.5435    1.2388 C   0  0  0  0  0  0  0  0  0  0  0  0
   -3.5394   -1.2087    1.5960 C   0  0  0  0  0  0  0  0  0  0  0  0
   -4.1831   -0.9465    2.8956 C   0  0  0  0  0  0  0  0  0  0  0  0
   -4.0700   -2.1053    0.7013 C   0  0  0  0  0  0  0  0  0  0  0  0
   -5.1836   -2.8816    0.7762 N   0  0  0  0  0  0  0  0  0  0  0  0
   -5.2849   -3.5837   -0.3326 N   0  0  0  0  0  0  0  0  0  0  0  0
   -4.2490   -3.2727   -1.1285 C   0  0  0  0  0  0  0  0  0  0  0  0
   -3.9591   -3.8217   -2.4751 C   0  0  0  0  0  0  0  0  0  0  0  0
   -3.4972   -2.3608   -0.4941 N   0  0  0  0  0  0  0  0  0  0  0  0
   -2.3578   -1.7060   -0.8170 C   0  0  0  0  0  0  0  0  0  0  0  0
   -0.4079    1.0556   -1.1284 C   0  0  0  0  0  0  0  0  0  0  0  0
   -1.0534    2.2246   -0.5088 C   0  0  0  0  0  0  0  0  0  0  0  0
   -0.6398    2.7253    0.6909 C   0  0  0  0  0  0  0  0  0  0  0  0
   -1.2561    3.8244    1.2606 C   0  0  0  0  0  0  0  0  0  0  0  0
   -2.3077    4.4337    0.6151 C   0  0  0  0  0  0  0  0  0  0  0  0
   -3.1080    5.8322    1.3179 Cl  0  0  0  0  0  0  0  0  0  0  0  0
   -2.7434    3.9483   -0.5950 C   0  0  0  0  0  0  0  0  0  0  0  0
   -2.1038    2.8373   -1.1483 C   0  0  0  0  0  0  0  0  0  0  0  0
   -2.5781    2.4067   -2.3410 F   0  0  0  0  0  0  0  0  0  0  0  0
    4.5698   -0.0822    3.5993 H   0  0  0  0  0  0  0  0  0  0  0  0
    3.4485   -1.5056    3.4368 H   0  0  0  0  0  0  0  0  0  0  0  0
    2.8251    0.1842    3.8259 H   0  0  0  0  0  0  0  0  0  0  0  0
    5.3794   -1.8930    2.4117 H   0  0  0  0  0  0  0  0  0  0  0  0
    6.8087   -2.9618    0.7540 H   0  0  0  0  0  0  0  0  0  0  0  0
    6.4942   -2.4814   -1.6720 H   0  0  0  0  0  0  0  0  0  0  0  0
    4.7415   -0.9336   -2.3366 H   0  0  0  0  0  0  0  0  0  0  0  0
    1.1503    3.1159   -3.4781 H   0  0  0  0  0  0  0  0  0  0  0  0
    1.2302    4.0732   -1.9374 H   0  0  0  0  0  0  0  0  0  0  0  0
    2.7235    3.7672   -2.9045 H   0  0  0  0  0  0  0  0  0  0  0  0
   -1.9083    0.1700    1.9131 H   0  0  0  0  0  0  0  0  0  0  0  0
   -3.7351   -0.0474    3.3523 H   0  0  0  0  0  0  0  0  0  0  0  0
   -4.0986   -1.8336    3.5881 H   0  0  0  0  0  0  0  0  0  0  0  0
   -5.2726   -0.7104    2.7694 H   0  0  0  0  0  0  0  0  0  0  0  0
   -3.6888   -3.0367   -3.2082 H   0  0  0  0  0  0  0  0  0  0  0  0
   -3.1540   -4.5738   -2.4299 H   0  0  0  0  0  0  0  0  0  0  0  0
   -4.8941   -4.3126   -2.8512 H   0  0  0  0  0  0  0  0  0  0  0  0
   -1.9345   -1.9479   -1.7941 H   0  0  0  0  0  0  0  0  0  0  0  0
   -0.8899    0.8618   -2.1441 H   0  0  0  0  0  0  0  0  0  0  0  0
    0.1901    2.2820    1.2485 H   0  0  0  0  0  0  0  0  0  0  0  0
   -0.9137    4.2206    2.2305 H   0  0  0  0  0  0  0  0  0  0  0  0
   -3.5715    4.4504   -1.0745 H   0  0  0  0  0  0  0  0  0  0  0  0
  1  2  1  0
  2  3  1  0
  3  4  2  0
  4  5  1  0
  5  6  2  0
  6  7  1  0
  7  8  2  0
  8  9  1  0
  9 10  1  0
 10 11  2  0
 11 12  1  0
 11 13  1  0
 13 14  2  0
 14 15  1  0
 15 16  2  0
 15 17  1  0
 17 18  1  0
 18 19  1  0
 19 20  2  0
 20 21  1  0
 20 22  1  0
 22 23  2  0
 23 24  1  0
 24 25  2  0
 25 26  1  0
 25 27  1  0
 27 28  1  0
 17 29  1  0
 29 30  1  0
 30 31  2  0
 31 32  1  0
 32 33  2  0
 33 34  1  0
 33 35  1  0
 35 36  2  0
 36 37  1  0
  8  3  1  0
 14  9  1  0
 28 18  2  0
 36 30  1  0
 29 13  1  0
 27 22  1  0
  1 38  1  0
  1 39  1  0
  1 40  1  0
  4 41  1  0
  5 42  1  0
  6 43  1  0
  7 44  1  0
 12 45  1  0
 12 46  1  0
 12 47  1  0
 19 48  1  0
 21 49  1  0
 21 50  1  0
 21 51  1  0
 26 52  1  0
 26 53  1  0
 26 54  1  0
 28 55  1  0
 29 56  1  0
 31 57  1  0
 32 58  1  0
 35 59  1  0
M  END
$$$$
