
     RDKit          3D

 69 71  0  0  0  0  0  0  0  0999 V2000
    7.9455    0.7499    0.3543 C   0  0  0  0  0  0  0  0  0  0  0  0
    6.9539    0.6131   -0.6635 N   0  0  0  0  0  0  0  0  0  0  0  0
    7.4987    1.0435   -1.9157 C   0  0  0  0  0  0  0  0  0  0  0  0
    6.2765   -0.6188   -0.7499 C   0  0  0  0  0  0  0  0  0  0  0  0
    5.3056   -0.9950    0.3042 C   0  0  0  0  0  0  0  0  0  0  0  0
    4.1579   -0.1514    0.4537 N   0  0  0  0  0  0  0  0  0  0  0  0
    3.0174   -0.4392   -0.3775 C   0  0  0  0  0  0  0  0  0  0  0  0
    1.8087   -0.9191    0.4005 C   0  0  0  0  0  0  0  0  0  0  0  0
    1.2430   -0.0058    1.3384 N   0  0  0  0  0  0  0  0  0  0  0  0
   -0.1408    0.1954    1.3958 C   0  0  0  0  0  0  0  0  0  0  0  0
   -0.5123    1.1366    2.1984 O   0  0  0  0  0  0  0  0  0  0  0  0
   -1.2158   -0.5297    0.6560 C   0  0  0  0  0  0  0  0  0  0  0  0
   -1.1449   -1.8280    0.2880 C   0  0  0  0  0  0  0  0  0  0  0  0
   -2.2084   -2.4056   -0.2933 C   0  0  0  0  0  0  0  0  0  0  0  0
   -2.4264   -3.7889   -0.8000 C   0  0  0  0  0  0  0  0  0  0  0  0
   -1.1621   -4.5531   -0.5606 C   0  0  0  0  0  0  0  0  0  0  0  0
   -3.5222   -4.4574    0.0144 C   0  0  0  0  0  0  0  0  0  0  0  0
   -2.8386   -3.7712   -2.2462 C   0  0  0  0  0  0  0  0  0  0  0  0
   -3.4357   -1.1283   -0.3693 S   0  0  0  0  0  0  0  0  0  0  0  0
   -2.3727    0.1390    0.4216 C   0  0  0  0  0  0  0  0  0  0  0  0
   -2.8026    1.4547    0.6584 N   0  0  0  0  0  0  0  0  0  0  0  0
   -4.1224    1.8235    0.2820 C   0  0  0  0  0  0  0  0  0  0  0  0
   -4.9111    1.0022   -0.2545 O   0  0  0  0  0  0  0  0  0  0  0  0
   -4.6223    3.1481    0.4937 N   0  0  0  0  0  0  0  0  0  0  0  0
   -5.9499    3.4710    0.1013 C   0  0  0  0  0  0  0  0  0  0  0  0
   -6.9695    3.3015    1.0037 C   0  0  0  0  0  0  0  0  0  0  0  0
   -8.2871    3.6025    0.6699 C   0  0  0  0  0  0  0  0  0  0  0  0
   -8.4971    4.0787   -0.6185 C   0  0  0  0  0  0  0  0  0  0  0  0
   -7.4781    4.2481   -1.5210 C   0  0  0  0  0  0  0  0  0  0  0  0
   -7.7808    4.8463   -3.1216 Cl  0  0  0  0  0  0  0  0  0  0  0  0
   -6.1872    3.9408   -1.1582 C   0  0  0  0  0  0  0  0  0  0  0  0
   -4.8950    4.1532   -2.2947 Cl  0  0  0  0  0  0  0  0  0  0  0  0
    1.9411    0.7419    2.3741 C   0  0  0  0  0  0  0  0  0  0  0  0
    2.9567    1.7016    1.8551 C   0  0  0  0  0  0  0  0  0  0  0  0
    4.1739    0.9283    1.3835 C   0  0  0  0  0  0  0  0  0  0  0  0
    5.2493    1.2579    1.8397 O   0  0  0  0  0  0  0  0  0  0  0  0
    7.7722    1.7401    0.8637 H   0  0  0  0  0  0  0  0  0  0  0  0
    7.8726   -0.0053    1.1675 H   0  0  0  0  0  0  0  0  0  0  0  0
    8.9813    0.8321   -0.0541 H   0  0  0  0  0  0  0  0  0  0  0  0
    8.5131    0.6484   -2.1166 H   0  0  0  0  0  0  0  0  0  0  0  0
    7.5649    2.1561   -1.9011 H   0  0  0  0  0  0  0  0  0  0  0  0
    6.8055    0.7339   -2.7218 H   0  0  0  0  0  0  0  0  0  0  0  0
    5.7615   -0.6505   -1.7574 H   0  0  0  0  0  0  0  0  0  0  0  0
    7.0761   -1.4204   -0.8549 H   0  0  0  0  0  0  0  0  0  0  0  0
    4.9193   -2.0253    0.0218 H   0  0  0  0  0  0  0  0  0  0  0  0
    5.7858   -1.1832    1.2982 H   0  0  0  0  0  0  0  0  0  0  0  0
    3.3354   -1.1919   -1.1317 H   0  0  0  0  0  0  0  0  0  0  0  0
    2.6916    0.5112   -0.8817 H   0  0  0  0  0  0  0  0  0  0  0  0
    1.9735   -1.9148    0.8340 H   0  0  0  0  0  0  0  0  0  0  0  0
    0.9977   -1.0276   -0.4079 H   0  0  0  0  0  0  0  0  0  0  0  0
   -0.2529   -2.4854    0.4828 H   0  0  0  0  0  0  0  0  0  0  0  0
   -1.1818   -5.5776   -1.0095 H   0  0  0  0  0  0  0  0  0  0  0  0
   -0.9394   -4.5672    0.5179 H   0  0  0  0  0  0  0  0  0  0  0  0
   -0.3178   -4.0259   -1.0899 H   0  0  0  0  0  0  0  0  0  0  0  0
   -4.5135   -4.2566   -0.4542 H   0  0  0  0  0  0  0  0  0  0  0  0
   -3.3685   -5.5690   -0.0332 H   0  0  0  0  0  0  0  0  0  0  0  0
   -3.5551   -4.0808    1.0517 H   0  0  0  0  0  0  0  0  0  0  0  0
   -3.4758   -4.6654   -2.4188 H   0  0  0  0  0  0  0  0  0  0  0  0
   -3.4563   -2.8583   -2.4093 H   0  0  0  0  0  0  0  0  0  0  0  0
   -1.9578   -3.8167   -2.9156 H   0  0  0  0  0  0  0  0  0  0  0  0
   -2.2321    2.2002    1.0911 H   0  0  0  0  0  0  0  0  0  0  0  0
   -3.9836    3.8433    0.9361 H   0  0  0  0  0  0  0  0  0  0  0  0
   -6.7953    2.9262    2.0160 H   0  0  0  0  0  0  0  0  0  0  0  0
   -9.0906    3.4711    1.3765 H   0  0  0  0  0  0  0  0  0  0  0  0
   -9.5311    4.3137   -0.8778 H   0  0  0  0  0  0  0  0  0  0  0  0
    1.2423    1.2966    3.0327 H   0  0  0  0  0  0  0  0  0  0  0  0
    2.4740    0.0216    3.0579 H   0  0  0  0  0  0  0  0  0  0  0  0
    3.3054    2.3220    2.7008 H   0  0  0  0  0  0  0  0  0  0  0  0
    2.5342    2.3190    1.0449 H   0  0  0  0  0  0  0  0  0  0  0  0
  1  2  1  0
  2  3  1  0
  2  4  1  0
  4  5  1  0
  5  6  1  0
  6  7  1  0
  7  8  1  0
  8  9  1  0
  9 10  1  0
 10 11  2  0
 10 12  1  0
 12 13  1  0
 13 14  2  0
 14 15  1  0
 15 16  1  0
 15 17  1  0
 15 18  1  0
 14 19  1  0
 19 20  1  0
 20 21  1  0
 21 22  1  0
 22 23  2  0
 22 24  1  0
 24 25  1  0
 25 26  2  0
 26 27  1  0
 27 28  2  0
 28 29  1  0
 29 30  1  0
 29 31  2  0
 31 32  1  0
  9 33  1  0
 33 34  1  0
 34 35  1  0
 35 36  2  0
 35  6  1  0
 20 12  2  0
 31 25  1  0
  1 37  1  0
  1 38  1  0
  1 39  1  0
  3 40  1  0
  3 41  1  0
  3 42  1  0
  4 43  1  0
  4 44  1  0
  5 45  1  0
  5 46  1  0
  7 47  1  0
  7 48  1  0
  8 49  1  0
  8 50  1  0
 13 51  1  0
 16 52  1  0
 16 53  1  0
 16 54  1  0
 17 55  1  0
 17 56  1  0
 17 57  1  0
 18 58  1  0
 18 59  1  0
 18 60  1  0
 21 61  1  0
 24 62  1  0
 26 63  1  0
 27 64  1  0
 28 65  1  0
 33 66  1  0
 33 67  1  0
 34 68  1  0
 34 69  1  0
M  END
$$$$
