
     RDKit          3D

 71 76  0  0  0  0  0  0  0  0999 V2000
   -7.4333    2.6103   -0.4171 C   0  0  0  0  0  0  0  0  0  0  0  0
   -7.7424    2.0569    0.8768 N   0  0  0  0  0  0  0  0  0  0  0  0
   -9.1399    2.0826    1.3298 C   0  0  0  0  0  0  0  0  0  0  0  0
   -6.7418    1.4879    1.6786 C   0  0  0  0  0  0  0  0  0  0  0  0
   -7.0937    1.0359    2.8248 O   0  0  0  0  0  0  0  0  0  0  0  0
   -5.3293    1.3831    1.2746 C   0  0  0  0  0  0  0  0  0  0  0  0
   -4.2878    2.1413    1.7580 C   0  0  0  0  0  0  0  0  0  0  0  0
   -3.1018    1.7495    1.1646 C   0  0  0  0  0  0  0  0  0  0  0  0
   -1.7753    2.1025    1.2287 C   0  0  0  0  0  0  0  0  0  0  0  0
   -0.8476    1.4712    0.4737 N   0  0  0  0  0  0  0  0  0  0  0  0
   -1.1748    0.4786   -0.3677 C   0  0  0  0  0  0  0  0  0  0  0  0
   -0.2530   -0.2241   -1.1979 N   0  0  0  0  0  0  0  0  0  0  0  0
    0.9884   -0.7568   -0.7923 C   0  0  0  0  0  0  0  0  0  0  0  0
    1.7618   -1.4197   -1.7421 C   0  0  0  0  0  0  0  0  0  0  0  0
    2.9823   -1.9318   -1.3633 C   0  0  0  0  0  0  0  0  0  0  0  0
    3.3518   -1.7500   -0.0587 C   0  0  0  0  0  0  0  0  0  0  0  0
    4.6938   -2.2640    0.3055 C   0  0  0  0  0  0  0  0  0  0  0  0
    4.7671   -3.3802    0.8339 O   0  0  0  0  0  0  0  0  0  0  0  0
    5.7596   -1.4152    0.0058 N   0  0  0  0  0  0  0  0  0  0  0  0
    5.5011   -0.1124   -0.6240 C   0  0  0  0  0  0  0  0  0  0  0  0
    5.9237    0.8734    0.4765 C   0  0  0  0  0  0  0  0  0  0  0  0
    7.2899    0.7249    0.7807 N   0  0  0  0  0  0  0  0  0  0  0  0
    8.0737    1.7139    0.0550 C   0  0  0  0  0  0  0  0  0  0  0  0
    9.4371    1.1198   -0.1135 C   0  0  0  0  0  0  0  0  0  0  0  0
    9.1648   -0.3463   -0.1846 C   0  0  0  0  0  0  0  0  0  0  0  0
    7.9300   -0.5229    0.6894 C   0  0  2  0  0  0  0  0  0  0  0  0
    7.1255   -1.7154    0.2827 C   0  0  0  0  0  0  0  0  0  0  0  0
    2.5920   -1.1023    0.8716 C   0  0  0  0  0  0  0  0  0  0  0  0
    1.3975   -0.6063    0.4780 N   0  0  0  0  0  0  0  0  0  0  0  0
   -2.4941    0.1502   -0.4095 N   0  0  0  0  0  0  0  0  0  0  0  0
   -3.4598    0.7195    0.2967 C   0  0  0  0  0  0  0  0  0  0  0  0
   -4.8064    0.5266    0.3899 N   0  0  0  0  0  0  0  0  0  0  0  0
   -5.5621   -0.4634   -0.3416 C   0  0  0  0  0  0  0  0  0  0  0  0
   -4.9390   -0.8587   -1.6505 C   0  0  0  0  0  0  0  0  0  0  0  0
   -4.4575   -2.3020   -1.4775 C   0  0  0  0  0  0  0  0  0  0  0  0
   -5.5643   -2.8173   -0.5442 C   0  0  0  0  0  0  0  0  0  0  0  0
   -5.5693   -1.7439    0.5143 C   0  0  0  0  0  0  0  0  0  0  0  0
   -7.4218    3.7195   -0.3208 H   0  0  0  0  0  0  0  0  0  0  0  0
   -8.2514    2.3770   -1.1576 H   0  0  0  0  0  0  0  0  0  0  0  0
   -6.4851    2.2334   -0.8345 H   0  0  0  0  0  0  0  0  0  0  0  0
   -9.2307    2.4383    2.3711 H   0  0  0  0  0  0  0  0  0  0  0  0
   -9.4557    1.0039    1.3367 H   0  0  0  0  0  0  0  0  0  0  0  0
   -9.7875    2.5981    0.6053 H   0  0  0  0  0  0  0  0  0  0  0  0
   -4.3328    2.9354    2.4878 H   0  0  0  0  0  0  0  0  0  0  0  0
   -1.4525    2.8891    1.8788 H   0  0  0  0  0  0  0  0  0  0  0  0
   -0.5146   -0.3634   -2.2291 H   0  0  0  0  0  0  0  0  0  0  0  0
    1.4149   -1.5312   -2.7564 H   0  0  0  0  0  0  0  0  0  0  0  0
    3.6289   -2.4647   -2.0732 H   0  0  0  0  0  0  0  0  0  0  0  0
    4.4434    0.0403   -0.8449 H   0  0  0  0  0  0  0  0  0  0  0  0
    6.1029    0.0326   -1.5334 H   0  0  0  0  0  0  0  0  0  0  0  0
    5.6674    1.9093    0.2169 H   0  0  0  0  0  0  0  0  0  0  0  0
    5.3120    0.5540    1.3671 H   0  0  0  0  0  0  0  0  0  0  0  0
    8.0510    2.6379    0.6573 H   0  0  0  0  0  0  0  0  0  0  0  0
    7.5922    1.9742   -0.9332 H   0  0  0  0  0  0  0  0  0  0  0  0
    9.9652    1.5311   -1.0075 H   0  0  0  0  0  0  0  0  0  0  0  0
   10.0084    1.3279    0.8166 H   0  0  0  0  0  0  0  0  0  0  0  0
    9.0123   -0.7237   -1.2159 H   0  0  0  0  0  0  0  0  0  0  0  0
   10.0382   -0.8713    0.2538 H   0  0  0  0  0  0  0  0  0  0  0  0
    8.3403   -0.7627    1.7253 H   0  0  0  0  0  0  0  0  0  0  0  0
    7.2200   -2.5195    1.0242 H   0  0  0  0  0  0  0  0  0  0  0  0
    7.6336   -2.1014   -0.6663 H   0  0  0  0  0  0  0  0  0  0  0  0
    2.8764   -0.9560    1.8977 H   0  0  0  0  0  0  0  0  0  0  0  0
   -6.5918   -0.1423   -0.5493 H   0  0  0  0  0  0  0  0  0  0  0  0
   -4.1734   -0.1858   -2.0315 H   0  0  0  0  0  0  0  0  0  0  0  0
   -5.7101   -0.9334   -2.4763 H   0  0  0  0  0  0  0  0  0  0  0  0
   -3.5367   -2.3908   -0.9029 H   0  0  0  0  0  0  0  0  0  0  0  0
   -4.4424   -2.8631   -2.4160 H   0  0  0  0  0  0  0  0  0  0  0  0
   -6.5108   -2.7507   -1.0770 H   0  0  0  0  0  0  0  0  0  0  0  0
   -5.3067   -3.8124   -0.1401 H   0  0  0  0  0  0  0  0  0  0  0  0
   -4.6143   -1.7551    1.0657 H   0  0  0  0  0  0  0  0  0  0  0  0
   -6.4558   -1.7700    1.1640 H   0  0  0  0  0  0  0  0  0  0  0  0
  1  2  1  0
  2  3  1  0
  2  4  1  0
  4  5  2  0
  4  6  1  0
  6  7  2  0
  7  8  1  0
  8  9  2  0
  9 10  1  0
 10 11  2  0
 11 12  1  0
 12 13  1  0
 13 14  2  0
 14 15  1  0
 15 16  2  0
 16 17  1  0
 17 18  2  0
 17 19  1  0
 19 20  1  0
 20 21  1  0
 21 22  1  0
 22 23  1  0
 23 24  1  0
 24 25  1  0
 25 26  1  0
 26 27  1  0
 16 28  1  0
 28 29  2  0
 11 30  1  0
 30 31  2  0
 31 32  1  0
 32 33  1  0
 33 34  1  0
 34 35  1  0
 35 36  1  0
 36 37  1  0
 32  6  1  0
 37 33  1  0
 31  8  1  0
 29 13  1  0
 27 19  1  0
 26 22  1  0
  1 38  1  0
  1 39  1  0
  1 40  1  0
  3 41  1  0
  3 42  1  0
  3 43  1  0
  7 44  1  0
  9 45  1  0
 12 46  1  0
 14 47  1  0
 15 48  1  0
 20 49  1  0
 20 50  1  0
 21 51  1  0
 21 52  1  0
 23 53  1  0
 23 54  1  0
 24 55  1  0
 24 56  1  0
 25 57  1  0
 25 58  1  0
 26 59  1  1
 27 60  1  0
 27 61  1  0
 28 62  1  0
 33 63  1  0
 34 64  1  0
 34 65  1  0
 35 66  1  0
 35 67  1  0
 36 68  1  0
 36 69  1  0
 37 70  1  0
 37 71  1  0
M  END
$$$$
