
     RDKit          3D

 65 69  0  0  0  0  0  0  0  0999 V2000
   -3.7060   -0.0711    0.9876 O   0  0  0  0  0  0  0  0  0  0  0  0
   -3.3125   -0.8631    0.1037 C   0  0  0  0  0  0  0  0  0  0  0  0
   -4.2817   -1.3861   -0.8790 C   0  0  0  0  0  0  0  0  0  0  0  0
   -5.5823   -0.8261   -0.5981 N   0  0  0  0  0  0  0  0  0  0  0  0
   -5.7624    0.5649   -0.6499 C   0  0  0  0  0  0  0  0  0  0  0  0
   -4.7722    1.3180   -0.9478 O   0  0  0  0  0  0  0  0  0  0  0  0
   -7.0244    1.2144   -0.3820 C   0  0  0  0  0  0  0  0  0  0  0  0
   -7.1825    2.5819   -0.4394 C   0  0  0  0  0  0  0  0  0  0  0  0
   -8.3904    3.1839   -0.1815 C   0  0  0  0  0  0  0  0  0  0  0  0
   -9.4916    2.4303    0.1458 C   0  0  0  0  0  0  0  0  0  0  0  0
   -9.3632    1.0716    0.2100 C   0  0  0  0  0  0  0  0  0  0  0  0
  -10.5371    0.2342    0.5614 C   0  0  0  0  0  0  0  0  0  0  0  0
  -10.1084   -1.0526    0.8362 F   0  0  0  0  0  0  0  0  0  0  0  0
  -11.1213    0.7417    1.7071 F   0  0  0  0  0  0  0  0  0  0  0  0
  -11.4648    0.1944   -0.4496 F   0  0  0  0  0  0  0  0  0  0  0  0
   -8.1336    0.4749   -0.0538 C   0  0  0  0  0  0  0  0  0  0  0  0
   -1.9549   -1.2423    0.0598 N   0  0  0  0  0  0  0  0  0  0  0  0
   -0.9621   -0.7556    1.0039 C   0  0  0  0  0  0  0  0  0  0  0  0
    0.0349   -1.8032    1.4602 C   0  0  0  0  0  0  0  0  0  0  0  0
    0.7396   -1.5776    0.2479 N   0  0  0  0  0  0  0  0  0  0  0  0
    2.1545   -1.7714    0.2348 C   0  0  1  0  0  0  0  0  0  0  0  0
    2.6331   -1.4668   -1.1445 C   0  0  0  0  0  0  0  0  0  0  0  0
    4.1020   -1.3117   -1.2894 C   0  0  0  0  0  0  0  0  0  0  0  0
    4.6054   -0.3681   -0.2380 C   0  0  2  0  0  0  0  0  0  0  0  0
    3.7326    0.7416   -0.2350 O   0  0  0  0  0  0  0  0  0  0  0  0
    6.0010    0.0264   -0.4174 C   0  0  0  0  0  0  0  0  0  0  0  0
    6.8168   -0.4076   -1.4501 C   0  0  0  0  0  0  0  0  0  0  0  0
    8.1414    0.0327   -1.5283 C   0  0  0  0  0  0  0  0  0  0  0  0
    8.6582    0.8987   -0.5896 C   0  0  0  0  0  0  0  0  0  0  0  0
    7.8596    1.3358    0.4384 C   0  0  0  0  0  0  0  0  0  0  0  0
    6.5601    0.8920    0.4985 C   0  0  0  0  0  0  0  0  0  0  0  0
    8.5737    2.2006    1.2723 O   0  0  0  0  0  0  0  0  0  0  0  0
    9.7317    2.5778    0.5407 C   0  0  0  0  0  0  0  0  0  0  0  0
    9.9000    1.5038   -0.3944 O   0  0  0  0  0  0  0  0  0  0  0  0
    4.3601   -1.0658    1.1060 C   0  0  0  0  0  0  0  0  0  0  0  0
    2.8797   -1.0550    1.3264 C   0  0  0  0  0  0  0  0  0  0  0  0
    0.2407   -0.2467    0.2078 C   0  0  0  0  0  0  0  0  0  0  0  0
   -3.9413   -1.0939   -1.9169 H   0  0  0  0  0  0  0  0  0  0  0  0
   -4.3063   -2.4985   -0.8932 H   0  0  0  0  0  0  0  0  0  0  0  0
   -6.3536   -1.4846   -0.3631 H   0  0  0  0  0  0  0  0  0  0  0  0
   -6.3071    3.1606   -0.6981 H   0  0  0  0  0  0  0  0  0  0  0  0
   -8.4881    4.2491   -0.2325 H   0  0  0  0  0  0  0  0  0  0  0  0
  -10.4657    2.8793    0.3564 H   0  0  0  0  0  0  0  0  0  0  0  0
   -8.1129   -0.5852    0.0161 H   0  0  0  0  0  0  0  0  0  0  0  0
   -1.6537   -1.9045   -0.6882 H   0  0  0  0  0  0  0  0  0  0  0  0
   -1.3293   -0.0698    1.7633 H   0  0  0  0  0  0  0  0  0  0  0  0
    0.5881   -1.4103    2.3502 H   0  0  0  0  0  0  0  0  0  0  0  0
   -0.3955   -2.8118    1.6173 H   0  0  0  0  0  0  0  0  0  0  0  0
    2.3302   -2.8754    0.4023 H   0  0  0  0  0  0  0  0  0  0  0  0
    2.2447   -2.2865   -1.8185 H   0  0  0  0  0  0  0  0  0  0  0  0
    2.0729   -0.5525   -1.4992 H   0  0  0  0  0  0  0  0  0  0  0  0
    4.3054   -0.8968   -2.3043 H   0  0  0  0  0  0  0  0  0  0  0  0
    4.5785   -2.3067   -1.2189 H   0  0  0  0  0  0  0  0  0  0  0  0
    3.7866    1.2160   -1.0981 H   0  0  0  0  0  0  0  0  0  0  0  0
    6.4004   -1.0802   -2.1712 H   0  0  0  0  0  0  0  0  0  0  0  0
    8.7743   -0.3082   -2.3352 H   0  0  0  0  0  0  0  0  0  0  0  0
    5.9434    1.2569    1.3306 H   0  0  0  0  0  0  0  0  0  0  0  0
   10.6265    2.5902    1.1872 H   0  0  0  0  0  0  0  0  0  0  0  0
    9.5295    3.5335    0.0379 H   0  0  0  0  0  0  0  0  0  0  0  0
    4.8793   -0.5234    1.9109 H   0  0  0  0  0  0  0  0  0  0  0  0
    4.7592   -2.0976    0.9701 H   0  0  0  0  0  0  0  0  0  0  0  0
    2.6942   -1.6399    2.2750 H   0  0  0  0  0  0  0  0  0  0  0  0
    2.5616   -0.0303    1.5075 H   0  0  0  0  0  0  0  0  0  0  0  0
    0.7425    0.5302    0.7762 H   0  0  0  0  0  0  0  0  0  0  0  0
   -0.0373    0.0917   -0.8118 H   0  0  0  0  0  0  0  0  0  0  0  0
  1  2  2  0
  2  3  1  0
  3  4  1  0
  4  5  1  0
  5  6  2  0
  5  7  1  0
  7  8  2  0
  8  9  1  0
  9 10  2  0
 10 11  1  0
 11 12  1  0
 12 13  1  0
 12 14  1  0
 12 15  1  0
 11 16  2  0
  2 17  1  0
 17 18  1  0
 18 19  1  0
 19 20  1  0
 20 21  1  0
 21 22  1  0
 22 23  1  0
 23 24  1  0
 24 25  1  1
 24 26  1  0
 26 27  2  0
 27 28  1  0
 28 29  2  0
 29 30  1  0
 30 31  2  0
 30 32  1  0
 32 33  1  0
 33 34  1  0
 24 35  1  0
 35 36  1  0
 20 37  1  0
 16  7  1  0
 37 18  1  0
 36 21  1  0
 31 26  1  0
 34 29  1  0
  3 38  1  0
  3 39  1  0
  4 40  1  0
  8 41  1  0
  9 42  1  0
 10 43  1  0
 16 44  1  0
 17 45  1  0
 18 46  1  0
 19 47  1  0
 19 48  1  0
 21 49  1  1
 22 50  1  0
 22 51  1  0
 23 52  1  0
 23 53  1  0
 25 54  1  0
 27 55  1  0
 28 56  1  0
 31 57  1  0
 33 58  1  0
 33 59  1  0
 35 60  1  0
 35 61  1  0
 36 62  1  0
 36 63  1  0
 37 64  1  0
 37 65  1  0
M  END
$$$$
