
     RDKit          3D

 72 75  0  0  0  0  0  0  0  0999 V2000
    8.2851   -2.4310    0.9975 C   0  0  0  0  0  0  0  0  0  0  0  0
    7.9089   -1.3877   -0.0303 C   0  0  0  0  0  0  0  0  0  0  0  0
    9.1502   -0.6978   -0.5617 C   0  0  0  0  0  0  0  0  0  0  0  0
    7.0609   -0.3986    0.6166 N   0  0  0  0  0  0  0  0  0  0  0  0
    5.8124   -0.1604    0.1478 C   0  0  0  0  0  0  0  0  0  0  0  0
    4.9722    0.7674    0.7255 C   0  0  0  0  0  0  0  0  0  0  0  0
    3.6358    0.9452    0.1354 C   0  0  0  0  0  0  0  0  0  0  0  0
    3.4304    0.7698   -1.2163 C   0  0  0  0  0  0  0  0  0  0  0  0
    2.1861    0.9330   -1.7831 C   0  0  0  0  0  0  0  0  0  0  0  0
    1.0628    1.2859   -1.0164 C   0  0  0  0  0  0  0  0  0  0  0  0
   -0.2526    1.4658   -1.6249 C   0  0  2  0  0  0  0  0  0  0  0  0
   -0.5851    2.9431   -1.8456 C   0  0  0  0  0  0  0  0  0  0  0  0
   -1.3650    0.8225   -1.0081 N   0  0  0  0  0  0  0  0  0  0  0  0
   -1.9187    1.0754    0.2756 C   0  0  0  0  0  0  0  0  0  0  0  0
   -3.4288    0.8693    0.3558 C   0  0  0  0  0  0  0  0  0  0  0  0
   -3.8969   -0.4136   -0.1647 C   0  0  2  0  0  0  0  0  0  0  0  0
   -5.1552   -0.2495   -0.9708 C   0  0  0  0  0  0  0  0  0  0  0  0
   -6.3547    0.2896   -0.3154 C   0  0  0  0  0  0  0  0  0  0  0  0
   -6.3090    1.6653    0.2516 C   0  0  0  0  0  0  0  0  0  0  0  0
   -7.4849    0.3110   -1.3702 C   0  0  0  0  0  0  0  0  0  0  0  0
   -6.8512   -0.5401    0.7046 O   0  0  0  0  0  0  0  0  0  0  0  0
   -4.1678   -1.4881    0.8209 C   0  0  0  0  0  0  0  0  0  0  0  0
   -4.5887   -2.7022    0.3225 C   0  0  0  0  0  0  0  0  0  0  0  0
   -4.8798   -3.7883    1.1001 C   0  0  0  0  0  0  0  0  0  0  0  0
   -4.7529   -3.6894    2.4643 C   0  0  0  0  0  0  0  0  0  0  0  0
   -4.3345   -2.4927    3.0002 C   0  0  0  0  0  0  0  0  0  0  0  0
   -4.0435   -1.3962    2.1756 C   0  0  0  0  0  0  0  0  0  0  0  0
   -2.9583   -1.0181   -1.0763 O   0  0  0  0  0  0  0  0  0  0  0  0
   -2.0539   -0.2021   -1.7740 C   0  0  0  0  0  0  0  0  0  0  0  0
   -1.8320   -0.3297   -2.9997 O   0  0  0  0  0  0  0  0  0  0  0  0
    1.2829    1.4559    0.3184 C   0  0  0  0  0  0  0  0  0  0  0  0
    2.5483    1.2915    0.9058 C   0  0  0  0  0  0  0  0  0  0  0  0
    5.4248    1.4646    1.8073 C   0  0  0  0  0  0  0  0  0  0  0  0
    6.6978    1.2052    2.2660 C   0  0  0  0  0  0  0  0  0  0  0  0
    7.5379    0.2733    1.6835 C   0  0  0  0  0  0  0  0  0  0  0  0
    8.7009    0.0766    2.1495 O   0  0  0  0  0  0  0  0  0  0  0  0
    7.7291   -3.3858    0.7862 H   0  0  0  0  0  0  0  0  0  0  0  0
    9.3887   -2.6258    0.9830 H   0  0  0  0  0  0  0  0  0  0  0  0
    8.0061   -2.1524    2.0277 H   0  0  0  0  0  0  0  0  0  0  0  0
    7.3309   -1.8743   -0.8379 H   0  0  0  0  0  0  0  0  0  0  0  0
    9.4607   -1.2990   -1.4632 H   0  0  0  0  0  0  0  0  0  0  0  0
    9.9944   -0.7199    0.1336 H   0  0  0  0  0  0  0  0  0  0  0  0
    8.8887    0.3059   -0.9360 H   0  0  0  0  0  0  0  0  0  0  0  0
    5.4785   -0.7243   -0.7078 H   0  0  0  0  0  0  0  0  0  0  0  0
    4.2851    0.4974   -1.8240 H   0  0  0  0  0  0  0  0  0  0  0  0
    2.0206    0.7943   -2.8585 H   0  0  0  0  0  0  0  0  0  0  0  0
   -0.1329    1.0573   -2.6875 H   0  0  0  0  0  0  0  0  0  0  0  0
   -1.4655    3.0189   -2.4807 H   0  0  0  0  0  0  0  0  0  0  0  0
    0.2889    3.3521   -2.4187 H   0  0  0  0  0  0  0  0  0  0  0  0
   -0.6371    3.4884   -0.8929 H   0  0  0  0  0  0  0  0  0  0  0  0
   -1.4797    0.4020    1.0156 H   0  0  0  0  0  0  0  0  0  0  0  0
   -1.7870    2.1409    0.5987 H   0  0  0  0  0  0  0  0  0  0  0  0
   -3.8569    1.7432   -0.1778 H   0  0  0  0  0  0  0  0  0  0  0  0
   -3.6722    0.9965    1.4240 H   0  0  0  0  0  0  0  0  0  0  0  0
   -4.8649    0.5236   -1.7683 H   0  0  0  0  0  0  0  0  0  0  0  0
   -5.3627   -1.1504   -1.6069 H   0  0  0  0  0  0  0  0  0  0  0  0
   -5.8230    1.7724    1.2358 H   0  0  0  0  0  0  0  0  0  0  0  0
   -6.0477    2.4618   -0.4821 H   0  0  0  0  0  0  0  0  0  0  0  0
   -7.4041    1.9256    0.4971 H   0  0  0  0  0  0  0  0  0  0  0  0
   -7.7022   -0.6902   -1.7411 H   0  0  0  0  0  0  0  0  0  0  0  0
   -7.0925    1.0068   -2.1660 H   0  0  0  0  0  0  0  0  0  0  0  0
   -8.3468    0.8343   -0.9098 H   0  0  0  0  0  0  0  0  0  0  0  0
   -7.8121   -0.3319    0.8671 H   0  0  0  0  0  0  0  0  0  0  0  0
   -4.7006   -2.8336   -0.7432 H   0  0  0  0  0  0  0  0  0  0  0  0
   -5.2134   -4.7408    0.6599 H   0  0  0  0  0  0  0  0  0  0  0  0
   -4.9830   -4.5549    3.1089 H   0  0  0  0  0  0  0  0  0  0  0  0
   -4.2242   -2.3797    4.0647 H   0  0  0  0  0  0  0  0  0  0  0  0
   -3.7247   -0.5085    2.6494 H   0  0  0  0  0  0  0  0  0  0  0  0
    0.4653    1.7330    0.9601 H   0  0  0  0  0  0  0  0  0  0  0  0
    2.6577    1.4410    1.9735 H   0  0  0  0  0  0  0  0  0  0  0  0
    4.7734    2.1990    2.2729 H   0  0  0  0  0  0  0  0  0  0  0  0
    7.0812    1.7523    3.1317 H   0  0  0  0  0  0  0  0  0  0  0  0
  1  2  1  0
  2  3  1  0
  2  4  1  0
  4  5  1  0
  5  6  2  0
  6  7  1  0
  7  8  2  0
  8  9  1  0
  9 10  2  0
 10 11  1  0
 11 12  1  0
 11 13  1  0
 13 14  1  0
 14 15  1  0
 15 16  1  0
 16 17  1  6
 17 18  1  0
 18 19  1  0
 18 20  1  0
 18 21  1  0
 16 22  1  0
 22 23  2  0
 23 24  1  0
 24 25  2  0
 25 26  1  0
 26 27  2  0
 16 28  1  0
 28 29  1  0
 29 30  2  0
 10 31  1  0
 31 32  2  0
  6 33  1  0
 33 34  2  0
 34 35  1  0
 35 36  2  0
 35  4  1  0
 32  7  1  0
 29 13  1  0
 27 22  1  0
  1 37  1  0
  1 38  1  0
  1 39  1  0
  2 40  1  0
  3 41  1  0
  3 42  1  0
  3 43  1  0
  5 44  1  0
  8 45  1  0
  9 46  1  0
 11 47  1  6
 12 48  1  0
 12 49  1  0
 12 50  1  0
 14 51  1  0
 14 52  1  0
 15 53  1  0
 15 54  1  0
 17 55  1  0
 17 56  1  0
 19 57  1  0
 19 58  1  0
 19 59  1  0
 20 60  1  0
 20 61  1  0
 20 62  1  0
 21 63  1  0
 23 64  1  0
 24 65  1  0
 25 66  1  0
 26 67  1  0
 27 68  1  0
 31 69  1  0
 32 70  1  0
 33 71  1  0
 34 72  1  0
M  END
$$$$
