
     RDKit          3D

 46 48  0  0  0  0  0  0  0  0999 V2000
    7.1884   -1.2815   -0.3857 C   0  0  0  0  0  0  0  0  0  0  0  0
    6.0185   -0.3551   -0.3746 C   0  0  0  0  0  0  0  0  0  0  0  0
    6.2123    0.9461   -0.7158 N   0  0  0  0  0  0  0  0  0  0  0  0
    5.1064    1.7350   -0.6850 C   0  0  0  0  0  0  0  0  0  0  0  0
    5.2501    3.1196   -1.0358 N   0  0  0  0  0  0  0  0  0  0  0  0
    3.8658    1.3202   -0.3473 N   0  0  0  0  0  0  0  0  0  0  0  0
    3.6553    0.0491   -0.0099 C   0  0  0  0  0  0  0  0  0  0  0  0
    2.3576   -0.5822    0.3894 C   0  0  0  0  0  0  0  0  0  0  0  0
    2.1513   -0.5060    1.8014 N   0  0  0  0  0  0  0  0  0  0  0  0
    0.6612   -1.2264    2.2944 S   0  0  0  0  0  0  0  0  0  0  0  0
    0.4728   -1.1856    3.7614 O   0  0  0  0  0  0  0  0  0  0  0  0
    0.7116   -2.6631    1.8171 O   0  0  0  0  0  0  0  0  0  0  0  0
   -0.6477   -0.3579    1.5321 C   0  0  0  0  0  0  0  0  0  0  0  0
   -1.1444   -0.7120    0.3152 C   0  0  0  0  0  0  0  0  0  0  0  0
   -2.1834    0.0530   -0.1876 C   0  0  0  0  0  0  0  0  0  0  0  0
   -2.7418   -0.2750   -1.4604 N   0  0  0  0  0  0  0  0  0  0  0  0
   -3.8104    0.4334   -2.0840 C   0  0  0  0  0  0  0  0  0  0  0  0
   -5.0494    0.2315   -1.6128 C   0  0  0  0  0  0  0  0  0  0  0  0
   -5.6173   -0.6161   -0.5157 C   0  0  0  0  0  0  0  0  0  0  0  0
   -6.7070    0.3272    0.0078 C   0  0  0  0  0  0  0  0  0  0  0  0
   -7.2829    0.8390   -1.1908 O   0  0  0  0  0  0  0  0  0  0  0  0
   -6.2560    0.8891   -2.1509 C   0  0  0  0  0  0  0  0  0  0  0  0
   -6.3968    1.4320   -3.2979 O   0  0  0  0  0  0  0  0  0  0  0  0
   -2.7383    1.1292    0.4499 C   0  0  0  0  0  0  0  0  0  0  0  0
   -2.2361    1.4885    1.6821 C   0  0  0  0  0  0  0  0  0  0  0  0
   -1.1858    0.7358    2.2181 C   0  0  0  0  0  0  0  0  0  0  0  0
    4.7592   -0.7814   -0.0306 C   0  0  0  0  0  0  0  0  0  0  0  0
    7.3436   -1.5824   -1.4452 H   0  0  0  0  0  0  0  0  0  0  0  0
    7.0261   -2.1598    0.2675 H   0  0  0  0  0  0  0  0  0  0  0  0
    8.0951   -0.7594    0.0264 H   0  0  0  0  0  0  0  0  0  0  0  0
    5.1551    3.7927   -1.8456 H   0  0  0  0  0  0  0  0  0  0  0  0
    5.5558    3.8250   -0.3130 H   0  0  0  0  0  0  0  0  0  0  0  0
    2.3212   -1.6351    0.0514 H   0  0  0  0  0  0  0  0  0  0  0  0
    1.5622   -0.0046   -0.1240 H   0  0  0  0  0  0  0  0  0  0  0  0
    2.3467    0.4066    2.2214 H   0  0  0  0  0  0  0  0  0  0  0  0
   -0.7494   -1.5416   -0.2248 H   0  0  0  0  0  0  0  0  0  0  0  0
   -2.4616   -1.0449   -2.0896 H   0  0  0  0  0  0  0  0  0  0  0  0
   -3.7001    1.1234   -2.9102 H   0  0  0  0  0  0  0  0  0  0  0  0
   -4.8772   -0.8222    0.2792 H   0  0  0  0  0  0  0  0  0  0  0  0
   -6.0768   -1.5470   -0.8807 H   0  0  0  0  0  0  0  0  0  0  0  0
   -7.4349   -0.2081    0.6235 H   0  0  0  0  0  0  0  0  0  0  0  0
   -6.1718    1.1532    0.5168 H   0  0  0  0  0  0  0  0  0  0  0  0
   -3.5562    1.6983    0.0094 H   0  0  0  0  0  0  0  0  0  0  0  0
   -2.6349    2.3202    2.2192 H   0  0  0  0  0  0  0  0  0  0  0  0
   -0.8171    1.0564    3.1998 H   0  0  0  0  0  0  0  0  0  0  0  0
    4.6607   -1.8341    0.2340 H   0  0  0  0  0  0  0  0  0  0  0  0
  1  2  1  0
  2  3  2  0
  3  4  1  0
  4  5  1  0
  4  6  2  0
  6  7  1  0
  7  8  1  0
  8  9  1  0
  9 10  1  0
 10 11  2  0
 10 12  2  0
 10 13  1  0
 13 14  2  0
 14 15  1  0
 15 16  1  0
 16 17  1  0
 17 18  2  0
 18 19  1  0
 19 20  1  0
 20 21  1  0
 21 22  1  0
 22 23  2  0
 15 24  2  0
 24 25  1  0
 25 26  2  0
  7 27  2  0
 27  2  1  0
 26 13  1  0
 22 18  1  0
  1 28  1  0
  1 29  1  0
  1 30  1  0
  5 31  1  0
  5 32  1  0
  8 33  1  0
  8 34  1  0
  9 35  1  0
 14 36  1  0
 16 37  1  0
 17 38  1  0
 19 39  1  0
 19 40  1  0
 20 41  1  0
 20 42  1  0
 24 43  1  0
 25 44  1  0
 26 45  1  0
 27 46  1  0
M  END
$$$$
