
     RDKit          3D

 66 71  0  0  0  0  0  0  0  0999 V2000
    3.1057    1.2705    1.5649 O   0  0  0  0  0  0  0  0  0  0  0  0
    3.3418    0.2569    0.8506 C   0  0  0  0  0  0  0  0  0  0  0  0
    4.5317   -0.1977    0.4384 N   0  0  0  0  0  0  0  0  0  0  0  0
    5.8273    0.3871    0.7185 C   0  0  0  0  0  0  0  0  0  0  0  0
    6.1931    1.4034   -0.3734 C   0  0  1  0  0  0  0  0  0  0  0  0
    5.2229    2.4210   -0.4091 O   0  0  0  0  0  0  0  0  0  0  0  0
    7.5115    2.0619   -0.0404 C   0  0  0  0  0  0  0  0  0  0  0  0
    7.7733    2.9894   -1.0439 O   0  0  0  0  0  0  0  0  0  0  0  0
    4.2981   -1.3076   -0.3021 C   0  0  0  0  0  0  0  0  0  0  0  0
    5.1644   -2.1781   -0.9727 C   0  0  0  0  0  0  0  0  0  0  0  0
    4.6462   -3.2544   -1.6668 C   0  0  0  0  0  0  0  0  0  0  0  0
    3.2907   -3.4957   -1.7174 C   0  0  0  0  0  0  0  0  0  0  0  0
    2.4399   -2.6360   -1.0558 C   0  0  0  0  0  0  0  0  0  0  0  0
    2.9434   -1.5523   -0.3553 C   0  0  0  0  0  0  0  0  0  0  0  0
    2.3555   -0.5639    0.3715 N   0  0  0  0  0  0  0  0  0  0  0  0
    0.9469   -0.4126    0.5887 C   0  0  0  0  0  0  0  0  0  0  0  0
    0.2181    0.1183   -0.6445 C   0  0  0  0  0  0  0  0  0  0  0  0
   -1.1683    0.5624   -0.1206 C   0  0  0  0  0  0  0  0  0  0  0  0
   -1.7931   -0.5825    0.4127 N   0  0  0  0  0  0  0  0  0  0  0  0
   -3.1760   -0.7974    0.1198 C   0  0  0  0  0  0  0  0  0  0  0  0
   -4.0619    0.1579    0.7850 C   0  0  1  0  0  0  0  0  0  0  0  0
   -3.9348    1.6049    0.5016 C   0  0  1  0  0  0  0  0  0  0  0  0
   -4.4249    1.9972   -0.8870 C   0  0  0  0  0  0  0  0  0  0  0  0
   -5.9370    1.9342   -0.8558 C   0  0  0  0  0  0  0  0  0  0  0  0
   -6.1807    1.2880    0.4913 C   0  0  2  0  0  0  0  0  0  0  0  0
   -5.1684    2.0896    1.3191 C   0  0  0  0  0  0  0  0  0  0  0  0
   -5.5443   -0.0637    0.4554 C   0  0  0  0  0  0  0  0  0  0  0  0
   -5.9375   -0.9623   -0.6474 C   0  0  0  0  0  0  0  0  0  0  0  0
   -6.2263   -1.3087    0.7813 C   0  0  0  0  0  0  0  0  0  0  0  0
   -1.0234   -1.8118    0.3656 C   0  0  0  0  0  0  0  0  0  0  0  0
    0.2438   -1.6009    1.1602 C   0  0  0  0  0  0  0  0  0  0  0  0
    6.6043   -0.4018    0.6926 H   0  0  0  0  0  0  0  0  0  0  0  0
    5.8540    0.9453    1.6696 H   0  0  0  0  0  0  0  0  0  0  0  0
    6.3094    0.9101   -1.3589 H   0  0  0  0  0  0  0  0  0  0  0  0
    5.5131    3.1272    0.2206 H   0  0  0  0  0  0  0  0  0  0  0  0
    8.3258    1.3389    0.0879 H   0  0  0  0  0  0  0  0  0  0  0  0
    7.3262    2.6554    0.8958 H   0  0  0  0  0  0  0  0  0  0  0  0
    8.5643    3.5252   -0.8897 H   0  0  0  0  0  0  0  0  0  0  0  0
    6.2254   -1.9576   -0.9124 H   0  0  0  0  0  0  0  0  0  0  0  0
    5.3465   -3.9240   -2.1854 H   0  0  0  0  0  0  0  0  0  0  0  0
    2.8772   -4.3413   -2.2621 H   0  0  0  0  0  0  0  0  0  0  0  0
    1.3640   -2.7714   -1.0614 H   0  0  0  0  0  0  0  0  0  0  0  0
    0.8207    0.4147    1.3546 H   0  0  0  0  0  0  0  0  0  0  0  0
    0.1459   -0.6071   -1.4512 H   0  0  0  0  0  0  0  0  0  0  0  0
    0.7878    0.9922   -0.9955 H   0  0  0  0  0  0  0  0  0  0  0  0
   -1.6911    1.1425   -0.8718 H   0  0  0  0  0  0  0  0  0  0  0  0
   -0.9033    1.2433    0.7441 H   0  0  0  0  0  0  0  0  0  0  0  0
   -3.3027   -0.8545   -0.9910 H   0  0  0  0  0  0  0  0  0  0  0  0
   -3.3983   -1.8439    0.4678 H   0  0  0  0  0  0  0  0  0  0  0  0
   -3.9954    0.0103    1.8918 H   0  0  0  0  0  0  0  0  0  0  0  0
   -3.0485    2.1274    0.8137 H   0  0  0  0  0  0  0  0  0  0  0  0
   -4.1051    3.0626   -1.0363 H   0  0  0  0  0  0  0  0  0  0  0  0
   -4.0138    1.3578   -1.6790 H   0  0  0  0  0  0  0  0  0  0  0  0
   -6.4048    2.9388   -0.8200 H   0  0  0  0  0  0  0  0  0  0  0  0
   -6.3664    1.2707   -1.6172 H   0  0  0  0  0  0  0  0  0  0  0  0
   -7.1887    1.3413    0.8552 H   0  0  0  0  0  0  0  0  0  0  0  0
   -5.1011    1.7409    2.3487 H   0  0  0  0  0  0  0  0  0  0  0  0
   -5.2744    3.1626    1.1750 H   0  0  0  0  0  0  0  0  0  0  0  0
   -5.2276   -1.5440   -1.2381 H   0  0  0  0  0  0  0  0  0  0  0  0
   -6.8622   -0.6799   -1.2323 H   0  0  0  0  0  0  0  0  0  0  0  0
   -5.6108   -2.1593    1.1615 H   0  0  0  0  0  0  0  0  0  0  0  0
   -7.2683   -1.3559    1.1520 H   0  0  0  0  0  0  0  0  0  0  0  0
   -1.6687   -2.5867    0.8714 H   0  0  0  0  0  0  0  0  0  0  0  0
   -0.8669   -2.1687   -0.6584 H   0  0  0  0  0  0  0  0  0  0  0  0
   -0.1127   -1.4152    2.2216 H   0  0  0  0  0  0  0  0  0  0  0  0
    0.8681   -2.5133    1.2493 H   0  0  0  0  0  0  0  0  0  0  0  0
  1  2  2  0
  2  3  1  0
  3  4  1  0
  4  5  1  0
  5  6  1  0
  5  7  1  0
  7  8  1  0
  3  9  1  0
  9 10  2  0
 10 11  1  0
 11 12  2  0
 12 13  1  0
 13 14  2  0
 14 15  1  0
 15 16  1  0
 16 17  1  0
 17 18  1  0
 18 19  1  0
 19 20  1  0
 20 21  1  0
 21 22  1  0
 22 23  1  0
 23 24  1  0
 24 25  1  0
 25 26  1  0
 25 27  1  0
 27 28  1  0
 28 29  1  0
 19 30  1  0
 30 31  1  0
 15  2  1  0
 31 16  1  0
 14  9  1  0
 27 21  1  0
 26 22  1  0
 29 27  1  0
  4 32  1  0
  4 33  1  0
  5 34  1  6
  6 35  1  0
  7 36  1  0
  7 37  1  0
  8 38  1  0
 10 39  1  0
 11 40  1  0
 12 41  1  0
 13 42  1  0
 16 43  1  0
 17 44  1  0
 17 45  1  0
 18 46  1  0
 18 47  1  0
 20 48  1  0
 20 49  1  0
 21 50  1  1
 22 51  1  1
 23 52  1  0
 23 53  1  0
 24 54  1  0
 24 55  1  0
 25 56  1  1
 26 57  1  0
 26 58  1  0
 28 59  1  0
 28 60  1  0
 29 61  1  0
 29 62  1  0
 30 63  1  0
 30 64  1  0
 31 65  1  0
 31 66  1  0
M  END
$$$$
