
     RDKit          3D

 63 69  0  0  0  0  0  0  0  0999 V2000
   -0.8848    0.6167   -4.6645 N   0  0  0  0  0  0  0  0  0  0  0  0
    0.4192    0.9794   -4.2156 C   0  0  0  0  0  0  0  0  0  0  0  0
    1.2405    1.6169   -5.1067 N   0  0  0  0  0  0  0  0  0  0  0  0
    2.4432    1.9699   -4.6665 C   0  0  0  0  0  0  0  0  0  0  0  0
    2.8493    1.7108   -3.3810 C   0  0  0  0  0  0  0  0  0  0  0  0
    2.0406    1.0852   -2.5108 N   0  0  0  0  0  0  0  0  0  0  0  0
    0.8155    0.7114   -2.9187 C   0  0  0  0  0  0  0  0  0  0  0  0
    0.1970    0.1075   -1.8485 C   0  0  0  0  0  0  0  0  0  0  0  0
   -1.1496   -0.4438   -1.7808 C   0  0  0  0  0  0  0  0  0  0  0  0
   -1.6271   -1.3719   -2.6688 C   0  0  0  0  0  0  0  0  0  0  0  0
   -2.9179   -1.8839   -2.6277 C   0  0  0  0  0  0  0  0  0  0  0  0
   -3.7752   -1.4317   -1.6295 C   0  0  0  0  0  0  0  0  0  0  0  0
   -5.0604   -1.8885   -1.5229 C   0  0  0  0  0  0  0  0  0  0  0  0
   -5.8654   -1.4024   -0.5086 C   0  0  0  0  0  0  0  0  0  0  0  0
   -5.4414   -0.4748    0.4094 C   0  0  0  0  0  0  0  0  0  0  0  0
   -6.2677    0.0539    1.4927 C   0  0  0  0  0  0  0  0  0  0  0  0
   -7.5595   -0.3332    1.6878 C   0  0  0  0  0  0  0  0  0  0  0  0
   -8.3531    0.1711    2.7278 C   0  0  0  0  0  0  0  0  0  0  0  0
   -7.8269    1.0968    3.6004 C   0  0  0  0  0  0  0  0  0  0  0  0
   -6.5034    1.5040    3.4136 C   0  0  0  0  0  0  0  0  0  0  0  0
   -5.7580    0.9861    2.3820 C   0  0  0  0  0  0  0  0  0  0  0  0
   -4.1663   -0.0453    0.2740 N   0  0  0  0  0  0  0  0  0  0  0  0
   -3.3434   -0.4985   -0.7094 C   0  0  0  0  0  0  0  0  0  0  0  0
   -2.0502   -0.0274   -0.8032 C   0  0  0  0  0  0  0  0  0  0  0  0
    1.1000    0.1476   -0.8180 N   0  0  0  0  0  0  0  0  0  0  0  0
    2.2262    0.7395   -1.2066 C   0  0  0  0  0  0  0  0  0  0  0  0
    3.4710    1.0241   -0.4758 C   0  0  1  0  0  0  0  0  0  0  0  0
    3.3409    1.4391    0.9495 C   0  0  0  0  0  0  0  0  0  0  0  0
    4.5048    0.4863    1.2688 C   0  0  1  0  0  0  0  0  0  0  0  0
    4.2210   -0.1919    2.5748 C   0  0  0  0  0  0  0  0  0  0  0  0
    5.2060   -1.1122    3.0258 N   0  0  0  0  0  0  0  0  0  0  0  0
    6.4873   -0.5459    3.4292 C   0  0  0  0  0  0  0  0  0  0  0  0
    7.1056   -1.8870    3.0087 C   0  0  0  0  0  0  0  0  0  0  0  0
    5.9544   -1.8278    1.9932 C   0  0  0  0  0  0  0  0  0  0  0  0
    4.0573   -0.3001    0.0392 C   0  0  0  0  0  0  0  0  0  0  0  0
   -1.6963    1.1012   -4.2574 H   0  0  0  0  0  0  0  0  0  0  0  0
   -1.0433   -0.1125   -5.3817 H   0  0  0  0  0  0  0  0  0  0  0  0
    3.1146    2.4812   -5.3615 H   0  0  0  0  0  0  0  0  0  0  0  0
    3.8602    2.0300   -3.0764 H   0  0  0  0  0  0  0  0  0  0  0  0
   -0.9858   -1.7720   -3.4515 H   0  0  0  0  0  0  0  0  0  0  0  0
   -3.2767   -2.6142   -3.3355 H   0  0  0  0  0  0  0  0  0  0  0  0
   -5.3997   -2.6172   -2.2419 H   0  0  0  0  0  0  0  0  0  0  0  0
   -6.8846   -1.7862   -0.4496 H   0  0  0  0  0  0  0  0  0  0  0  0
   -8.0239   -1.0629    1.0242 H   0  0  0  0  0  0  0  0  0  0  0  0
   -9.3776   -0.1477    2.8683 H   0  0  0  0  0  0  0  0  0  0  0  0
   -8.4266    1.5014    4.4163 H   0  0  0  0  0  0  0  0  0  0  0  0
   -6.1063    2.2318    4.1085 H   0  0  0  0  0  0  0  0  0  0  0  0
   -4.7412    1.3081    2.2510 H   0  0  0  0  0  0  0  0  0  0  0  0
   -1.7190    0.7001   -0.0824 H   0  0  0  0  0  0  0  0  0  0  0  0
    4.2315    1.5954   -1.0136 H   0  0  0  0  0  0  0  0  0  0  0  0
    3.6007    2.4828    1.1709 H   0  0  0  0  0  0  0  0  0  0  0  0
    2.3778    1.0898    1.4229 H   0  0  0  0  0  0  0  0  0  0  0  0
    5.4801    0.9643    1.1999 H   0  0  0  0  0  0  0  0  0  0  0  0
    3.2455   -0.6971    2.5401 H   0  0  0  0  0  0  0  0  0  0  0  0
    4.1040    0.6270    3.3440 H   0  0  0  0  0  0  0  0  0  0  0  0
    6.5881   -0.3531    4.5089 H   0  0  0  0  0  0  0  0  0  0  0  0
    6.8792    0.2424    2.7466 H   0  0  0  0  0  0  0  0  0  0  0  0
    6.9682   -2.6939    3.7424 H   0  0  0  0  0  0  0  0  0  0  0  0
    8.1083   -1.7905    2.5487 H   0  0  0  0  0  0  0  0  0  0  0  0
    6.3157   -1.1679    1.1572 H   0  0  0  0  0  0  0  0  0  0  0  0
    5.5515   -2.8000    1.6985 H   0  0  0  0  0  0  0  0  0  0  0  0
    4.8383   -0.6305   -0.6428 H   0  0  0  0  0  0  0  0  0  0  0  0
    3.2881   -1.0443    0.3327 H   0  0  0  0  0  0  0  0  0  0  0  0
  1  2  1  0
  2  3  2  0
  3  4  1  0
  4  5  2  0
  5  6  1  0
  6  7  1  0
  7  8  2  0
  8  9  1  0
  9 10  2  0
 10 11  1  0
 11 12  2  0
 12 13  1  0
 13 14  2  0
 14 15  1  0
 15 16  1  0
 16 17  2  0
 17 18  1  0
 18 19  2  0
 19 20  1  0
 20 21  2  0
 15 22  2  0
 22 23  1  0
 23 24  2  0
  8 25  1  0
 25 26  2  0
 26 27  1  0
 27 28  1  0
 28 29  1  0
 29 30  1  0
 30 31  1  0
 31 32  1  0
 32 33  1  0
 33 34  1  0
 29 35  1  0
  7  2  1  0
 24  9  1  0
 35 27  1  0
 26  6  1  0
 34 31  1  0
 23 12  1  0
 21 16  1  0
  1 36  1  0
  1 37  1  0
  4 38  1  0
  5 39  1  0
 10 40  1  0
 11 41  1  0
 13 42  1  0
 14 43  1  0
 17 44  1  0
 18 45  1  0
 19 46  1  0
 20 47  1  0
 21 48  1  0
 24 49  1  0
 27 50  1  6
 28 51  1  0
 28 52  1  0
 29 53  1  6
 30 54  1  0
 30 55  1  0
 32 56  1  0
 32 57  1  0
 33 58  1  0
 33 59  1  0
 34 60  1  0
 34 61  1  0
 35 62  1  0
 35 63  1  0
M  END
$$$$
