
     RDKit          3D

 42 44  0  0  0  0  0  0  0  0999 V2000
    3.8948   -3.9622    1.5264 O   0  0  0  0  0  0  0  0  0  0  0  0
    3.9257   -2.4478    1.3969 S   0  0  0  0  0  6  0  0  0  0  0  0
    4.3640   -1.8955    2.7512 O   0  0  0  0  0  0  0  0  0  0  0  0
    5.1257   -2.0285    0.2837 N   0  0  0  0  0  0  0  0  0  0  0  0
    5.5163   -0.6532   -0.0192 C   0  0  0  0  0  0  0  0  0  0  0  0
    5.3893    0.4424    0.1574 N   0  0  0  0  0  0  0  0  0  0  0  0
    5.9489    1.5352   -0.3212 C   0  0  0  0  0  0  0  0  0  0  0  0
    6.8980    1.2806   -1.2394 C   0  0  0  0  0  0  0  0  0  0  0  0
    6.9240   -0.5436   -1.3563 S   0  0  0  0  0  0  0  0  0  0  0  0
    2.3734   -1.8457    0.9627 C   0  0  0  0  0  0  0  0  0  0  0  0
    1.4187   -2.7477    0.4476 C   0  0  0  0  0  0  0  0  0  0  0  0
    0.1852   -2.3072    0.0434 C   0  0  0  0  0  0  0  0  0  0  0  0
   -0.9660   -3.4700   -0.5899 Cl  0  0  0  0  0  0  0  0  0  0  0  0
   -0.1745   -0.9821    0.1204 C   0  0  0  0  0  0  0  0  0  0  0  0
   -1.4635   -0.5427   -0.3063 N   0  0  0  0  0  0  0  0  0  0  0  0
   -1.8431    0.8268   -0.2298 C   0  0  0  0  0  0  0  0  0  0  0  0
   -3.2621    0.9805   -0.7369 C   0  0  1  0  0  0  0  0  0  0  0  0
   -4.1649    0.1542    0.1206 C   0  0  0  0  0  0  0  0  0  0  0  0
   -5.6161    0.5137   -0.1575 C   0  0  0  0  0  0  0  0  0  0  0  0
   -5.7328    2.0176   -0.0659 C   0  0  0  0  0  0  0  0  0  0  0  0
   -4.9687    2.5900   -1.0809 O   0  0  0  0  0  0  0  0  0  0  0  0
   -3.6380    2.4478   -0.7723 C   0  0  0  0  0  0  0  0  0  0  0  0
    0.7645   -0.1196    0.6241 C   0  0  0  0  0  0  0  0  0  0  0  0
    2.0346   -0.5324    1.0478 C   0  0  0  0  0  0  0  0  0  0  0  0
    2.8659    0.4042    1.5759 F   0  0  0  0  0  0  0  0  0  0  0  0
    5.6284   -2.8222   -0.2301 H   0  0  0  0  0  0  0  0  0  0  0  0
    5.6688    2.5751   -0.0015 H   0  0  0  0  0  0  0  0  0  0  0  0
    7.5993    1.9544   -1.8743 H   0  0  0  0  0  0  0  0  0  0  0  0
    1.7134   -3.7908    0.3915 H   0  0  0  0  0  0  0  0  0  0  0  0
   -2.1266   -1.2468   -0.6796 H   0  0  0  0  0  0  0  0  0  0  0  0
   -1.1511    1.5081   -0.7666 H   0  0  0  0  0  0  0  0  0  0  0  0
   -1.7683    1.1295    0.8450 H   0  0  0  0  0  0  0  0  0  0  0  0
   -3.3624    0.6055   -1.7760 H   0  0  0  0  0  0  0  0  0  0  0  0
   -3.9204    0.2894    1.1952 H   0  0  0  0  0  0  0  0  0  0  0  0
   -4.0408   -0.9111   -0.1228 H   0  0  0  0  0  0  0  0  0  0  0  0
   -5.8660    0.1222   -1.1495 H   0  0  0  0  0  0  0  0  0  0  0  0
   -6.2495    0.0733    0.6401 H   0  0  0  0  0  0  0  0  0  0  0  0
   -5.2525    2.3230    0.8932 H   0  0  0  0  0  0  0  0  0  0  0  0
   -6.7979    2.2758   -0.1259 H   0  0  0  0  0  0  0  0  0  0  0  0
   -3.0535    2.8973   -1.6242 H   0  0  0  0  0  0  0  0  0  0  0  0
   -3.3205    2.9769    0.1272 H   0  0  0  0  0  0  0  0  0  0  0  0
    0.5000    0.9254    0.6922 H   0  0  0  0  0  0  0  0  0  0  0  0
  1  2  2  0
  2  3  2  0
  2  4  1  0
  4  5  1  0
  5  6  2  0
  6  7  1  0
  7  8  2  0
  8  9  1  0
  2 10  1  0
 10 11  2  0
 11 12  1  0
 12 13  1  0
 12 14  2  0
 14 15  1  0
 15 16  1  0
 16 17  1  0
 17 18  1  0
 18 19  1  0
 19 20  1  0
 20 21  1  0
 21 22  1  0
 14 23  1  0
 23 24  2  0
 24 25  1  0
  9  5  1  0
 24 10  1  0
 22 17  1  0
  4 26  1  0
  7 27  1  0
  8 28  1  0
 11 29  1  0
 15 30  1  0
 16 31  1  0
 16 32  1  0
 17 33  1  6
 18 34  1  0
 18 35  1  0
 19 36  1  0
 19 37  1  0
 20 38  1  0
 20 39  1  0
 22 40  1  0
 22 41  1  0
 23 42  1  0
M  END
$$$$
