
     RDKit          3D

 62 66  0  0  0  0  0  0  0  0999 V2000
   -2.8886   -1.6092    1.0667 O   0  0  0  0  0  0  0  0  0  0  0  0
   -2.7264   -0.9937   -0.0204 C   0  0  0  0  0  0  0  0  0  0  0  0
   -1.3455   -0.6412   -0.3234 C   0  0  0  0  0  0  0  0  0  0  0  0
   -0.2848   -0.6937    0.5634 C   0  0  0  0  0  0  0  0  0  0  0  0
    0.8269   -0.2776   -0.1334 C   0  0  0  0  0  0  0  0  0  0  0  0
    2.1947   -0.1540    0.3500 C   0  0  0  0  0  0  0  0  0  0  0  0
    2.4599   -0.4830    1.6624 C   0  0  0  0  0  0  0  0  0  0  0  0
    3.7576   -0.3779    2.1635 C   0  0  0  0  0  0  0  0  0  0  0  0
    4.7064    0.0490    1.3210 N   0  0  0  0  0  0  0  0  0  0  0  0
    4.4847    0.3798    0.0314 C   0  0  0  0  0  0  0  0  0  0  0  0
    5.5159    0.8281   -0.8300 N   0  0  0  0  0  0  0  0  0  0  0  0
    6.8645    0.9646   -0.4035 C   0  0  2  0  0  0  0  0  0  0  0  0
    7.4816   -0.3262    0.0839 C   0  0  0  0  0  0  0  0  0  0  0  0
    8.4754    0.0674    1.1627 C   0  0  2  0  0  0  0  0  0  0  0  0
    7.9618   -0.3435    2.3914 O   0  0  0  0  0  0  0  0  0  0  0  0
    8.4984    1.5805    1.1657 C   0  0  1  0  0  0  0  0  0  0  0  0
    9.3399    2.0665    0.1736 F   0  0  0  0  0  0  0  0  0  0  0  0
    7.0524    1.8911    0.7719 C   0  0  0  0  0  0  0  0  0  0  0  0
    3.2070    0.2590   -0.4019 N   0  0  0  0  0  0  0  0  0  0  0  0
    0.4131    0.0165   -1.4239 C   0  0  0  0  0  0  0  0  0  0  0  0
   -0.8910   -0.2052   -1.5263 N   0  0  0  0  0  0  0  0  0  0  0  0
   -1.6116    0.0137   -2.7685 C   0  0  0  0  0  0  0  0  0  0  0  0
   -2.8377   -0.8785   -2.8478 C   0  0  0  0  0  0  0  0  0  0  0  0
   -4.0241   -0.2889   -2.0919 C   0  0  0  0  0  0  0  0  0  0  0  0
   -3.9582   -0.7681   -0.7380 N   0  0  0  0  0  0  0  0  0  0  0  0
   -5.1632   -1.0995   -0.0080 C   0  0  2  0  0  0  0  0  0  0  0  0
   -5.9787   -2.1549   -0.6879 C   0  0  0  0  0  0  0  0  0  0  0  0
   -7.1111   -2.4122    0.0743 O   0  0  0  0  0  0  0  0  0  0  0  0
   -6.0157    0.0431    0.3512 C   0  0  0  0  0  0  0  0  0  0  0  0
   -6.4962    0.1071    1.6592 C   0  0  0  0  0  0  0  0  0  0  0  0
   -7.3034    1.1000    2.1420 C   0  0  0  0  0  0  0  0  0  0  0  0
   -7.6914    2.1261    1.3117 C   0  0  0  0  0  0  0  0  0  0  0  0
   -7.2362    2.0941    0.0165 C   0  0  0  0  0  0  0  0  0  0  0  0
   -6.4077    1.0688   -0.4676 C   0  0  0  0  0  0  0  0  0  0  0  0
   -0.3222   -0.9952    1.5785 H   0  0  0  0  0  0  0  0  0  0  0  0
    1.6663   -0.8230    2.3082 H   0  0  0  0  0  0  0  0  0  0  0  0
    3.9786   -0.6356    3.2002 H   0  0  0  0  0  0  0  0  0  0  0  0
    5.2622    1.0632   -1.8109 H   0  0  0  0  0  0  0  0  0  0  0  0
    7.5113    1.3407   -1.2177 H   0  0  0  0  0  0  0  0  0  0  0  0
    6.7132   -1.0314    0.4622 H   0  0  0  0  0  0  0  0  0  0  0  0
    8.0459   -0.7997   -0.7414 H   0  0  0  0  0  0  0  0  0  0  0  0
    9.4827   -0.3715    0.9806 H   0  0  0  0  0  0  0  0  0  0  0  0
    8.1718   -1.2961    2.5254 H   0  0  0  0  0  0  0  0  0  0  0  0
    8.7588    2.0150    2.1306 H   0  0  0  0  0  0  0  0  0  0  0  0
    7.0387    2.9490    0.4654 H   0  0  0  0  0  0  0  0  0  0  0  0
    6.4341    1.6552    1.6355 H   0  0  0  0  0  0  0  0  0  0  0  0
    1.0807    0.3697   -2.1991 H   0  0  0  0  0  0  0  0  0  0  0  0
   -1.8683    1.0613   -2.9345 H   0  0  0  0  0  0  0  0  0  0  0  0
   -0.9364   -0.3132   -3.5898 H   0  0  0  0  0  0  0  0  0  0  0  0
   -3.1308   -0.9278   -3.9101 H   0  0  0  0  0  0  0  0  0  0  0  0
   -2.5820   -1.8879   -2.5145 H   0  0  0  0  0  0  0  0  0  0  0  0
   -3.8511    0.8008   -2.0846 H   0  0  0  0  0  0  0  0  0  0  0  0
   -4.9729   -0.5598   -2.6034 H   0  0  0  0  0  0  0  0  0  0  0  0
   -4.8371   -1.5428    0.9828 H   0  0  0  0  0  0  0  0  0  0  0  0
   -5.4377   -3.1237   -0.7838 H   0  0  0  0  0  0  0  0  0  0  0  0
   -6.3342   -1.8446   -1.6912 H   0  0  0  0  0  0  0  0  0  0  0  0
   -7.3016   -3.3776    0.1648 H   0  0  0  0  0  0  0  0  0  0  0  0
   -6.2336   -0.6736    2.3838 H   0  0  0  0  0  0  0  0  0  0  0  0
   -7.6459    1.0871    3.1876 H   0  0  0  0  0  0  0  0  0  0  0  0
   -8.3363    2.9270    1.6831 H   0  0  0  0  0  0  0  0  0  0  0  0
   -7.5319    2.8925   -0.6482 H   0  0  0  0  0  0  0  0  0  0  0  0
   -6.0907    1.0938   -1.4806 H   0  0  0  0  0  0  0  0  0  0  0  0
  1  2  2  0
  2  3  1  0
  3  4  2  0
  4  5  1  0
  5  6  1  0
  6  7  2  0
  7  8  1  0
  8  9  2  0
  9 10  1  0
 10 11  1  0
 11 12  1  0
 12 13  1  0
 13 14  1  0
 14 15  1  0
 14 16  1  0
 16 17  1  0
 16 18  1  0
 10 19  2  0
  5 20  2  0
 20 21  1  0
 21 22  1  0
 22 23  1  0
 23 24  1  0
 24 25  1  0
 25 26  1  0
 26 27  1  0
 27 28  1  0
 26 29  1  0
 29 30  2  0
 30 31  1  0
 31 32  2  0
 32 33  1  0
 33 34  2  0
 25  2  1  0
 34 29  1  0
 21  3  1  0
 19  6  1  0
 18 12  1  0
  4 35  1  0
  7 36  1  0
  8 37  1  0
 11 38  1  0
 12 39  1  6
 13 40  1  0
 13 41  1  0
 14 42  1  6
 15 43  1  0
 16 44  1  1
 18 45  1  0
 18 46  1  0
 20 47  1  0
 22 48  1  0
 22 49  1  0
 23 50  1  0
 23 51  1  0
 24 52  1  0
 24 53  1  0
 26 54  1  1
 27 55  1  0
 27 56  1  0
 28 57  1  0
 30 58  1  0
 31 59  1  0
 32 60  1  0
 33 61  1  0
 34 62  1  0
M  END
$$$$
