
     RDKit          3D

 52 55  0  0  0  0  0  0  0  0999 V2000
   -5.8412    0.4066   -2.2154 C   0  0  0  0  0  0  0  0  0  0  0  0
   -5.5724    1.5954   -1.3152 C   0  0  0  0  0  0  0  0  0  0  0  0
   -4.9146    1.0437    0.2561 S   0  0  0  0  0  6  0  0  0  0  0  0
   -5.9471    0.1887    0.9214 O   0  0  0  0  0  0  0  0  0  0  0  0
   -4.7074    2.2599    1.1028 O   0  0  0  0  0  0  0  0  0  0  0  0
   -3.4371    0.1802    0.0181 N   0  0  0  0  0  0  0  0  0  0  0  0
   -2.4600    1.0359   -0.5817 C   0  0  2  0  0  0  0  0  0  0  0  0
   -1.9708    0.5018   -1.9263 C   0  0  0  0  0  0  0  0  0  0  0  0
   -0.4714    0.6535   -1.7646 C   0  0  1  0  0  0  0  0  0  0  0  0
    0.2539    0.9398   -3.0149 C   0  0  0  0  0  0  0  0  0  0  0  0
   -0.3312    1.6754   -0.7938 O   0  0  0  0  0  0  0  0  0  0  0  0
   -1.1770    1.1269    0.1882 C   0  0  1  0  0  0  0  0  0  0  0  0
   -1.2447    1.9439    1.4365 C   0  0  0  0  0  0  0  0  0  0  0  0
   -0.5145   -0.2183    0.4012 C   0  0  2  0  0  0  0  0  0  0  0  0
    0.7018   -0.0071    1.2172 C   0  0  0  0  0  0  0  0  0  0  0  0
    0.7704    0.4527    2.4109 O   0  0  0  0  0  0  0  0  0  0  0  0
    1.8708   -0.3883    0.5027 N   0  0  0  0  0  0  0  0  0  0  0  0
    3.1710   -0.6745    1.0157 C   0  0  0  0  0  0  0  0  0  0  0  0
    4.1640    0.2640    1.1584 C   0  0  0  0  0  0  0  0  0  0  0  0
    5.4245    0.0351    1.6456 C   0  0  0  0  0  0  0  0  0  0  0  0
    5.7296   -1.2757    2.0347 C   0  0  0  0  0  0  0  0  0  0  0  0
    7.0231   -1.5173    2.5308 C   0  0  0  0  0  0  0  0  0  0  0  0
    8.1247   -1.7351    2.9725 N   0  0  0  0  0  0  0  0  0  0  0  0
    4.7662   -2.2634    1.9136 C   0  0  0  0  0  0  0  0  0  0  0  0
    5.0979   -3.6404    2.3254 C   0  0  0  0  0  0  0  0  0  0  0  0
    5.4530   -3.7075    3.6708 F   0  0  0  0  0  0  0  0  0  0  0  0
    3.9812   -4.4434    2.1871 F   0  0  0  0  0  0  0  0  0  0  0  0
    6.1127   -4.1087    1.5451 F   0  0  0  0  0  0  0  0  0  0  0  0
    3.5001   -1.9774    1.4116 C   0  0  0  0  0  0  0  0  0  0  0  0
    1.4984   -0.4319   -0.8815 C   0  0  0  0  0  0  0  0  0  0  0  0
    2.2788   -0.3969   -1.8592 O   0  0  0  0  0  0  0  0  0  0  0  0
    0.0376   -0.5242   -0.9770 C   0  0  2  0  0  0  0  0  0  0  0  0
   -6.8118    0.5091   -2.7585 H   0  0  0  0  0  0  0  0  0  0  0  0
   -5.9399   -0.5180   -1.6142 H   0  0  0  0  0  0  0  0  0  0  0  0
   -5.0592    0.3241   -3.0007 H   0  0  0  0  0  0  0  0  0  0  0  0
   -6.5252    2.1371   -1.1767 H   0  0  0  0  0  0  0  0  0  0  0  0
   -4.8759    2.2835   -1.8332 H   0  0  0  0  0  0  0  0  0  0  0  0
   -3.5677   -0.7407   -0.3980 H   0  0  0  0  0  0  0  0  0  0  0  0
   -2.8483    2.0453   -0.7449 H   0  0  0  0  0  0  0  0  0  0  0  0
   -2.2873   -0.5552   -1.9672 H   0  0  0  0  0  0  0  0  0  0  0  0
   -2.2930    1.1210   -2.7606 H   0  0  0  0  0  0  0  0  0  0  0  0
   -0.3583    1.6254   -3.6440 H   0  0  0  0  0  0  0  0  0  0  0  0
    1.2058    1.4935   -2.7668 H   0  0  0  0  0  0  0  0  0  0  0  0
    0.4511    0.0236   -3.5827 H   0  0  0  0  0  0  0  0  0  0  0  0
   -0.2699    2.4067    1.6567 H   0  0  0  0  0  0  0  0  0  0  0  0
   -2.0155    2.7106    1.4361 H   0  0  0  0  0  0  0  0  0  0  0  0
   -1.4670    1.2699    2.3116 H   0  0  0  0  0  0  0  0  0  0  0  0
   -1.1840   -0.9858    0.7788 H   0  0  0  0  0  0  0  0  0  0  0  0
    3.8809    1.2836    0.8412 H   0  0  0  0  0  0  0  0  0  0  0  0
    6.1807    0.8055    1.7426 H   0  0  0  0  0  0  0  0  0  0  0  0
    2.7377   -2.7401    1.3107 H   0  0  0  0  0  0  0  0  0  0  0  0
   -0.3233   -1.4924   -1.3670 H   0  0  0  0  0  0  0  0  0  0  0  0
  1  2  1  0
  2  3  1  0
  3  4  2  0
  3  5  2  0
  3  6  1  0
  6  7  1  0
  7  8  1  0
  8  9  1  0
  9 10  1  6
  9 11  1  0
 11 12  1  0
 12 13  1  1
 12 14  1  0
 14 15  1  0
 15 16  2  0
 15 17  1  0
 17 18  1  0
 18 19  2  0
 19 20  1  0
 20 21  2  0
 21 22  1  0
 22 23  3  0
 21 24  1  0
 24 25  1  0
 25 26  1  0
 25 27  1  0
 25 28  1  0
 24 29  2  0
 17 30  1  0
 30 31  2  0
 30 32  1  0
 12  7  1  0
 32 14  1  0
 32  9  1  0
 29 18  1  0
  1 33  1  0
  1 34  1  0
  1 35  1  0
  2 36  1  0
  2 37  1  0
  6 38  1  0
  7 39  1  6
  8 40  1  0
  8 41  1  0
 10 42  1  0
 10 43  1  0
 10 44  1  0
 13 45  1  0
 13 46  1  0
 13 47  1  0
 14 48  1  1
 19 49  1  0
 20 50  1  0
 29 51  1  0
 32 52  1  6
M  END
$$$$
