
     RDKit          3D

 42 44  0  0  0  0  0  0  0  0999 V2000
   -0.9905   -3.6690    1.2562 C   0  0  0  0  0  0  0  0  0  0  0  0
   -0.2411   -2.4500    0.8550 N   0  0  0  0  0  0  0  0  0  0  0  0
    0.9911   -2.3119    1.0236 N   0  0  0  0  0  0  0  0  0  0  0  0
    1.7164   -1.3360    0.7259 C   0  0  0  0  0  0  0  0  0  0  0  0
    3.0772   -0.8740    0.7747 C   0  0  0  0  0  0  0  0  0  0  0  0
    4.0356   -1.7050    1.3227 C   0  0  0  0  0  0  0  0  0  0  0  0
    5.3606   -1.3441    1.4098 C   0  0  0  0  0  0  0  0  0  0  0  0
    5.7329   -0.1044    0.9287 C   0  0  0  0  0  0  0  0  0  0  0  0
    4.7966    0.7370    0.3803 C   0  0  0  0  0  0  0  0  0  0  0  0
    5.1946    2.0624   -0.1339 C   0  0  0  0  0  0  0  0  0  0  0  0
    4.2376    2.9277   -0.6970 N   0  0  0  0  0  0  0  0  0  0  0  0
    6.3979    2.4127   -0.0646 O   0  0  0  0  0  0  0  0  0  0  0  0
    3.4781    0.3572    0.3029 C   0  0  0  0  0  0  0  0  0  0  0  0
    0.3756   -0.2444   -0.0088 S   0  0  0  0  0  0  0  0  0  0  0  0
   -0.9571   -1.4399    0.2731 C   0  0  0  0  0  0  0  0  0  0  0  0
   -2.1211   -1.2779   -0.0160 N   0  0  0  0  0  0  0  0  0  0  0  0
   -2.6301   -0.0847   -0.6406 C   0  0  0  0  0  0  0  0  0  0  0  0
   -2.9385    1.0044    0.3613 C   0  0  0  0  0  0  0  0  0  0  0  0
   -3.2766    2.2443   -0.4753 C   0  0  0  0  0  0  0  0  0  0  0  0
   -4.5328    2.0023   -1.2870 C   0  0  0  0  0  0  0  0  0  0  0  0
   -4.9745    0.5758   -1.2553 C   0  0  0  0  0  0  0  0  0  0  0  0
   -3.8529   -0.4128   -1.4296 C   0  0  0  0  0  0  0  0  0  0  0  0
   -1.5811   -3.3676    2.1375 H   0  0  0  0  0  0  0  0  0  0  0  0
   -1.7048   -3.9348    0.4589 H   0  0  0  0  0  0  0  0  0  0  0  0
   -0.3253   -4.5170    1.4073 H   0  0  0  0  0  0  0  0  0  0  0  0
    3.7638   -2.6937    1.7110 H   0  0  0  0  0  0  0  0  0  0  0  0
    6.0845   -2.0003    1.8363 H   0  0  0  0  0  0  0  0  0  0  0  0
    6.7753    0.2122    0.9827 H   0  0  0  0  0  0  0  0  0  0  0  0
    3.3343    3.0646   -0.2254 H   0  0  0  0  0  0  0  0  0  0  0  0
    4.4668    3.4156   -1.5877 H   0  0  0  0  0  0  0  0  0  0  0  0
    2.7208    0.9941   -0.1214 H   0  0  0  0  0  0  0  0  0  0  0  0
   -1.8735    0.3632   -1.3502 H   0  0  0  0  0  0  0  0  0  0  0  0
   -2.0498    1.2669    0.9662 H   0  0  0  0  0  0  0  0  0  0  0  0
   -3.8028    0.7968    0.9933 H   0  0  0  0  0  0  0  0  0  0  0  0
   -2.4473    2.3466   -1.2065 H   0  0  0  0  0  0  0  0  0  0  0  0
   -3.3543    3.1378    0.1572 H   0  0  0  0  0  0  0  0  0  0  0  0
   -4.4672    2.4218   -2.3109 H   0  0  0  0  0  0  0  0  0  0  0  0
   -5.3402    2.6031   -0.7748 H   0  0  0  0  0  0  0  0  0  0  0  0
   -5.5878    0.3413   -0.3570 H   0  0  0  0  0  0  0  0  0  0  0  0
   -5.6681    0.4264   -2.1313 H   0  0  0  0  0  0  0  0  0  0  0  0
   -3.5808   -0.5434   -2.5131 H   0  0  0  0  0  0  0  0  0  0  0  0
   -4.2415   -1.4033   -1.1117 H   0  0  0  0  0  0  0  0  0  0  0  0
  1  2  1  0
  2  3  1  0
  3  4  2  0
  4  5  1  0
  5  6  2  0
  6  7  1  0
  7  8  2  0
  8  9  1  0
  9 10  1  0
 10 11  1  0
 10 12  2  0
  9 13  2  0
  4 14  1  0
 14 15  1  0
 15 16  2  0
 16 17  1  0
 17 18  1  0
 18 19  1  0
 19 20  1  0
 20 21  1  0
 21 22  1  0
 15  2  1  0
 22 17  1  0
 13  5  1  0
  1 23  1  0
  1 24  1  0
  1 25  1  0
  6 26  1  0
  7 27  1  0
  8 28  1  0
 11 29  1  0
 11 30  1  0
 13 31  1  0
 17 32  1  0
 18 33  1  0
 18 34  1  0
 19 35  1  0
 19 36  1  0
 20 37  1  0
 20 38  1  0
 21 39  1  0
 21 40  1  0
 22 41  1  0
 22 42  1  0
M  END
$$$$
