
     RDKit          3D

 27 29  0  0  0  0  0  0  0  0999 V2000
   -2.2864   -0.9722    2.9586 O   0  0  0  0  0  0  0  0  0  0  0  0
   -2.4319   -0.6471    1.7533 C   0  0  0  0  0  0  0  0  0  0  0  0
   -3.7352   -0.5535    1.1981 N   0  0  0  0  0  0  0  0  0  0  0  0
   -3.8859    0.2225   -0.0052 C   0  0  0  0  0  0  0  0  0  0  0  0
   -2.7700    0.0821   -0.9711 C   0  0  0  0  0  0  0  0  0  0  0  0
   -1.4374   -0.0149   -0.3813 C   0  0  0  0  0  0  0  0  0  0  0  0
   -0.2324    0.1969   -0.9425 N   0  0  0  0  0  0  0  0  0  0  0  0
    0.7358   -0.0061   -0.0375 C   0  0  0  0  0  0  0  0  0  0  0  0
    2.1791    0.1137   -0.2237 C   0  0  0  0  0  0  0  0  0  0  0  0
    3.0372   -0.1342    0.8257 C   0  0  0  0  0  0  0  0  0  0  0  0
    4.4184   -0.0240    0.6635 C   0  0  0  0  0  0  0  0  0  0  0  0
    4.9181    0.3313   -0.5418 N   0  0  0  0  0  0  0  0  0  0  0  0
    4.1047    0.5844   -1.6025 C   0  0  0  0  0  0  0  0  0  0  0  0
    2.7421    0.4719   -1.4288 C   0  0  0  0  0  0  0  0  0  0  0  0
    0.1069   -0.3592    1.1367 C   0  0  0  0  0  0  0  0  0  0  0  0
   -1.2793   -0.3672    0.9262 C   0  0  0  0  0  0  0  0  0  0  0  0
   -4.5706   -1.0212    1.6282 H   0  0  0  0  0  0  0  0  0  0  0  0
   -4.0442    1.3098    0.2518 H   0  0  0  0  0  0  0  0  0  0  0  0
   -4.8250   -0.0903   -0.5062 H   0  0  0  0  0  0  0  0  0  0  0  0
   -2.9048   -0.8338   -1.6203 H   0  0  0  0  0  0  0  0  0  0  0  0
   -2.8313    0.9314   -1.7146 H   0  0  0  0  0  0  0  0  0  0  0  0
   -0.0491    0.4763   -1.9260 H   0  0  0  0  0  0  0  0  0  0  0  0
    2.7027   -0.4184    1.8013 H   0  0  0  0  0  0  0  0  0  0  0  0
    5.1063   -0.2189    1.4908 H   0  0  0  0  0  0  0  0  0  0  0  0
    4.5669    0.8646   -2.5412 H   0  0  0  0  0  0  0  0  0  0  0  0
    2.1053    0.6760   -2.2807 H   0  0  0  0  0  0  0  0  0  0  0  0
    0.5601   -0.5999    2.0891 H   0  0  0  0  0  0  0  0  0  0  0  0
  1  2  2  0
  2  3  1  0
  3  4  1  0
  4  5  1  0
  5  6  1  0
  6  7  1  0
  7  8  1  0
  8  9  1  0
  9 10  2  0
 10 11  1  0
 11 12  2  0
 12 13  1  0
 13 14  2  0
  8 15  2  0
 15 16  1  0
 16  2  1  0
 16  6  2  0
 14  9  1  0
  3 17  1  0
  4 18  1  0
  4 19  1  0
  5 20  1  0
  5 21  1  0
  7 22  1  0
 10 23  1  0
 11 24  1  0
 13 25  1  0
 14 26  1  0
 15 27  1  0
M  END
$$$$
