
     RDKit          3D

 52 54  0  0  0  0  0  0  0  0999 V2000
   -6.4771    0.9130    2.6441 C   0  0  0  0  0  0  0  0  0  0  0  0
   -5.1756    0.6569    2.2054 O   0  0  0  0  0  0  0  0  0  0  0  0
   -5.1304   -0.4507    1.3563 C   0  0  0  0  0  0  0  0  0  0  0  0
   -3.6750   -0.6281    0.9484 C   0  0  2  0  0  0  0  0  0  0  0  0
   -3.2458    0.5867    0.1958 C   0  0  0  0  0  0  0  0  0  0  0  0
   -3.4358    0.2134   -1.2392 C   0  0  0  0  0  0  0  0  0  0  0  0
   -3.8480   -1.2221   -1.2306 C   0  0  0  0  0  0  0  0  0  0  0  0
   -3.5863   -1.7504    0.0800 N   0  0  0  0  0  0  0  0  0  0  0  0
   -2.1015   -2.5753    0.0723 S   0  0  0  0  0  6  0  0  0  0  0  0
   -1.9060   -3.1779    1.4562 O   0  0  0  0  0  0  0  0  0  0  0  0
   -2.2118   -3.7514   -0.8669 O   0  0  0  0  0  0  0  0  0  0  0  0
   -0.7257   -1.5890   -0.3169 C   0  0  0  0  0  0  0  0  0  0  0  0
   -0.0258   -0.9532    0.6864 C   0  0  0  0  0  0  0  0  0  0  0  0
    1.0706   -0.1613    0.4299 C   0  0  0  0  0  0  0  0  0  0  0  0
    1.5166    0.0278   -0.8668 C   0  0  0  0  0  0  0  0  0  0  0  0
    0.8403   -0.5926   -1.8916 C   0  0  0  0  0  0  0  0  0  0  0  0
   -0.2716   -1.3928   -1.6056 C   0  0  0  0  0  0  0  0  0  0  0  0
    1.5140   -0.2257   -3.1228 C   0  0  0  0  0  0  0  0  0  0  0  0
    1.1807   -0.6021   -4.2613 O   0  0  0  0  0  0  0  0  0  0  0  0
    2.6214    0.6397   -2.7935 C   0  0  0  0  0  0  0  0  0  0  0  0
    3.4673    1.1858   -3.5741 O   0  0  0  0  0  0  0  0  0  0  0  0
    2.6193    0.7954   -1.3843 N   0  0  0  0  0  0  0  0  0  0  0  0
    3.5441    1.5764   -0.5874 C   0  0  0  0  0  0  0  0  0  0  0  0
    4.7017    0.6791   -0.2026 C   0  0  0  0  0  0  0  0  0  0  0  0
    5.7102    1.4476    0.6393 C   0  0  0  0  0  0  0  0  0  0  0  0
    6.2181    2.5387   -0.0642 O   0  0  0  0  0  0  0  0  0  0  0  0
    6.8570    0.5127    0.9222 C   0  0  0  0  0  0  0  0  0  0  0  0
    6.3429   -0.5910    1.6339 O   0  0  0  0  0  0  0  0  0  0  0  0
   -6.4252    1.7986    3.3064 H   0  0  0  0  0  0  0  0  0  0  0  0
   -7.1670    1.1461    1.8116 H   0  0  0  0  0  0  0  0  0  0  0  0
   -6.9019    0.0438    3.2045 H   0  0  0  0  0  0  0  0  0  0  0  0
   -5.5279   -1.3445    1.8617 H   0  0  0  0  0  0  0  0  0  0  0  0
   -5.7699   -0.2290    0.4889 H   0  0  0  0  0  0  0  0  0  0  0  0
   -3.1034   -0.7830    1.8885 H   0  0  0  0  0  0  0  0  0  0  0  0
   -3.9066    1.4487    0.4988 H   0  0  0  0  0  0  0  0  0  0  0  0
   -2.2145    0.9186    0.3966 H   0  0  0  0  0  0  0  0  0  0  0  0
   -2.5269    0.4129   -1.8501 H   0  0  0  0  0  0  0  0  0  0  0  0
   -4.2934    0.8276   -1.6412 H   0  0  0  0  0  0  0  0  0  0  0  0
   -4.9010   -1.3881   -1.5573 H   0  0  0  0  0  0  0  0  0  0  0  0
   -3.2136   -1.7692   -1.9785 H   0  0  0  0  0  0  0  0  0  0  0  0
   -0.3813   -1.1051    1.7111 H   0  0  0  0  0  0  0  0  0  0  0  0
    1.5986    0.3241    1.2402 H   0  0  0  0  0  0  0  0  0  0  0  0
   -0.7966   -1.8754   -2.4093 H   0  0  0  0  0  0  0  0  0  0  0  0
    3.0806    2.0220    0.3048 H   0  0  0  0  0  0  0  0  0  0  0  0
    3.9422    2.3732   -1.2707 H   0  0  0  0  0  0  0  0  0  0  0  0
    4.2822   -0.1441    0.3966 H   0  0  0  0  0  0  0  0  0  0  0  0
    5.2285    0.3380   -1.1039 H   0  0  0  0  0  0  0  0  0  0  0  0
    5.2522    1.8460    1.5595 H   0  0  0  0  0  0  0  0  0  0  0  0
    6.0147    2.3956   -1.0247 H   0  0  0  0  0  0  0  0  0  0  0  0
    7.2398    0.1634   -0.0588 H   0  0  0  0  0  0  0  0  0  0  0  0
    7.6457    0.9520    1.5423 H   0  0  0  0  0  0  0  0  0  0  0  0
    6.4567   -0.4813    2.6102 H   0  0  0  0  0  0  0  0  0  0  0  0
  1  2  1  0
  2  3  1  0
  3  4  1  0
  4  5  1  0
  5  6  1  0
  6  7  1  0
  7  8  1  0
  8  9  1  0
  9 10  2  0
  9 11  2  0
  9 12  1  0
 12 13  2  0
 13 14  1  0
 14 15  2  0
 15 16  1  0
 16 17  2  0
 16 18  1  0
 18 19  2  0
 18 20  1  0
 20 21  2  0
 20 22  1  0
 22 23  1  0
 23 24  1  0
 24 25  1  0
 25 26  1  0
 25 27  1  0
 27 28  1  0
  8  4  1  0
 17 12  1  0
 22 15  1  0
  1 29  1  0
  1 30  1  0
  1 31  1  0
  3 32  1  0
  3 33  1  0
  4 34  1  1
  5 35  1  0
  5 36  1  0
  6 37  1  0
  6 38  1  0
  7 39  1  0
  7 40  1  0
 13 41  1  0
 14 42  1  0
 17 43  1  0
 23 44  1  0
 23 45  1  0
 24 46  1  0
 24 47  1  0
 25 48  1  0
 26 49  1  0
 27 50  1  0
 27 51  1  0
 28 52  1  0
M  END
$$$$
