
     RDKit          3D

 14 15  0  0  0  0  0  0  0  0999 V2000
   -0.9376    2.3461   -0.2414 O   0  0  0  0  0  0  0  0  0  0  0  0
   -0.8428    1.1023   -0.1104 C   0  0  0  0  0  0  0  0  0  0  0  0
   -1.8835    0.2745   -0.0151 N   0  0  0  0  0  0  0  0  0  0  0  0
   -1.7095   -1.0579    0.1247 C   0  0  0  0  0  0  0  0  0  0  0  0
   -0.4988   -1.6390    0.1772 N   0  0  0  0  0  0  0  0  0  0  0  0
    0.5728   -0.8142    0.0819 C   0  0  0  0  0  0  0  0  0  0  0  0
    1.9004   -1.0672    0.0989 N   0  0  0  0  0  0  0  0  0  0  0  0
    2.5636    0.0736   -0.0268 N   0  0  0  0  0  0  0  0  0  0  0  0
    1.6887    1.0950   -0.1284 C   0  0  0  0  0  0  0  0  0  0  0  0
    0.4221    0.5500   -0.0614 C   0  0  0  0  0  0  0  0  0  0  0  0
   -2.8313    0.6788   -0.0508 H   0  0  0  0  0  0  0  0  0  0  0  0
   -2.6136   -1.6704    0.1962 H   0  0  0  0  0  0  0  0  0  0  0  0
    2.2999   -2.0274    0.1975 H   0  0  0  0  0  0  0  0  0  0  0  0
    1.8695    2.1558   -0.2421 H   0  0  0  0  0  0  0  0  0  0  0  0
  1  2  2  0
  2  3  1  0
  3  4  1  0
  4  5  2  0
  5  6  1  0
  6  7  1  0
  7  8  1  0
  8  9  2  0
  9 10  1  0
 10  2  1  0
 10  6  2  0
  3 11  1  0
  4 12  1  0
  7 13  1  0
  9 14  1  0
M  END
$$$$
