
     RDKit          3D

 68 71  0  0  0  0  0  0  0  0999 V2000
    6.8832    4.7564   -1.3653 C   0  0  0  0  0  0  0  0  0  0  0  0
    6.7580    3.3565   -0.8296 C   0  0  0  0  0  0  0  0  0  0  0  0
    5.5354    2.8360   -0.4759 C   0  0  0  0  0  0  0  0  0  0  0  0
    5.4515    1.5408    0.0160 C   0  0  0  0  0  0  0  0  0  0  0  0
    4.1274    0.9788    0.4033 C   0  0  0  0  0  0  0  0  0  0  0  0
    3.6978    0.0751   -0.5835 O   0  0  0  0  0  0  0  0  0  0  0  0
    2.4687   -0.5768   -0.4246 C   0  0  0  0  0  0  0  0  0  0  0  0
    1.6936   -0.3307    0.6889 C   0  0  0  0  0  0  0  0  0  0  0  0
    0.4934   -0.9835    0.8189 C   0  0  0  0  0  0  0  0  0  0  0  0
    0.0619   -1.8692   -0.1384 C   0  0  0  0  0  0  0  0  0  0  0  0
   -1.4915   -2.6802    0.0790 S   0  0  0  0  0  6  0  0  0  0  0  0
   -1.7960   -2.7025    1.5467 O   0  0  0  0  0  0  0  0  0  0  0  0
   -1.4600   -4.0388   -0.5372 O   0  0  0  0  0  0  0  0  0  0  0  0
   -2.7408   -1.6367   -0.7022 C   0  0  0  0  0  0  0  0  0  0  0  0
   -4.0865   -2.2666   -0.5360 C   0  0  0  0  0  0  0  0  0  0  0  0
   -5.2414   -1.5776   -1.1245 C   0  0  0  0  0  0  0  0  0  0  0  0
   -5.6611   -0.2256   -0.8101 C   0  0  0  0  0  0  0  0  0  0  0  0
   -4.6757    0.8802   -1.1086 C   0  0  0  0  0  0  0  0  0  0  0  0
   -4.3625    1.6328    0.1790 C   0  0  0  0  0  0  0  0  0  0  0  0
   -5.6265    2.3598    0.5918 C   0  0  0  0  0  0  0  0  0  0  0  0
   -5.4502    2.7569    1.9611 N   0  0  0  0  0  0  0  0  0  0  0  0
   -5.7994    3.8604    2.2497 O   0  0  0  0  0  0  0  0  0  0  0  0
   -6.8551    1.4914    0.4007 C   0  0  0  0  0  0  0  0  0  0  0  0
   -6.3310    0.0363    0.5190 C   0  0  0  0  0  0  0  0  0  0  0  0
   -4.2769   -2.8861    0.7481 N   0  0  0  0  0  0  0  0  0  0  0  0
   -4.3499   -2.1338    1.8633 O   0  0  0  0  0  0  0  0  0  0  0  0
   -4.3753   -4.2977    0.9240 C   0  0  0  0  0  0  0  0  0  0  0  0
   -4.3086   -5.0625   -0.0695 O   0  0  0  0  0  0  0  0  0  0  0  0
    0.8061   -2.1366   -1.2558 C   0  0  0  0  0  0  0  0  0  0  0  0
    2.0248   -1.4734   -1.3870 C   0  0  0  0  0  0  0  0  0  0  0  0
    6.5771    0.7560    0.1592 C   0  0  0  0  0  0  0  0  0  0  0  0
    6.4927   -0.5353    0.6487 C   0  0  0  0  0  0  0  0  0  0  0  0
    7.6364   -1.2881    0.7772 C   0  0  0  0  0  0  0  0  0  0  0  0
    8.8475   -0.7377    0.4140 C   0  0  0  0  0  0  0  0  0  0  0  0
    8.9223    0.5435   -0.0706 C   0  0  0  0  0  0  0  0  0  0  0  0
    7.7945    1.3205   -0.2102 C   0  0  0  0  0  0  0  0  0  0  0  0
    7.8436    2.5784   -0.6834 N   0  0  0  0  0  0  0  0  0  0  0  0
    7.0949    5.3868   -0.4625 H   0  0  0  0  0  0  0  0  0  0  0  0
    7.6905    4.7687   -2.0958 H   0  0  0  0  0  0  0  0  0  0  0  0
    5.9335    5.0845   -1.8312 H   0  0  0  0  0  0  0  0  0  0  0  0
    4.6437    3.4524   -0.5878 H   0  0  0  0  0  0  0  0  0  0  0  0
    4.2004    0.4964    1.3869 H   0  0  0  0  0  0  0  0  0  0  0  0
    3.3770    1.8189    0.4274 H   0  0  0  0  0  0  0  0  0  0  0  0
    2.0078    0.3616    1.4599 H   0  0  0  0  0  0  0  0  0  0  0  0
   -0.1152   -0.7791    1.7104 H   0  0  0  0  0  0  0  0  0  0  0  0
   -2.6387   -0.6774   -0.1434 H   0  0  0  0  0  0  0  0  0  0  0  0
   -2.4250   -1.4964   -1.7277 H   0  0  0  0  0  0  0  0  0  0  0  0
   -3.9955   -3.2075   -1.2266 H   0  0  0  0  0  0  0  0  0  0  0  0
   -5.0764   -1.6134   -2.2599 H   0  0  0  0  0  0  0  0  0  0  0  0
   -6.1182   -2.3061   -1.0311 H   0  0  0  0  0  0  0  0  0  0  0  0
   -6.5283   -0.0057   -1.5427 H   0  0  0  0  0  0  0  0  0  0  0  0
   -3.7984    0.5893   -1.6771 H   0  0  0  0  0  0  0  0  0  0  0  0
   -5.1538    1.6922   -1.7572 H   0  0  0  0  0  0  0  0  0  0  0  0
   -3.9128    1.0237    0.9568 H   0  0  0  0  0  0  0  0  0  0  0  0
   -3.6298    2.4336   -0.0971 H   0  0  0  0  0  0  0  0  0  0  0  0
   -5.7355    3.2367   -0.0680 H   0  0  0  0  0  0  0  0  0  0  0  0
   -7.3795    1.6531   -0.5391 H   0  0  0  0  0  0  0  0  0  0  0  0
   -7.4891    1.6351    1.2999 H   0  0  0  0  0  0  0  0  0  0  0  0
   -7.2246   -0.5765    0.6174 H   0  0  0  0  0  0  0  0  0  0  0  0
   -5.6667    0.0892    1.3770 H   0  0  0  0  0  0  0  0  0  0  0  0
   -4.7346   -2.5970    2.6300 H   0  0  0  0  0  0  0  0  0  0  0  0
   -4.5078   -4.7625    1.8891 H   0  0  0  0  0  0  0  0  0  0  0  0
    0.5124   -2.8203   -2.0319 H   0  0  0  0  0  0  0  0  0  0  0  0
    2.6250   -1.6708   -2.2606 H   0  0  0  0  0  0  0  0  0  0  0  0
    5.5458   -0.9455    0.9245 H   0  0  0  0  0  0  0  0  0  0  0  0
    7.6093   -2.3058    1.1571 H   0  0  0  0  0  0  0  0  0  0  0  0
    9.7865   -1.2825    0.4929 H   0  0  0  0  0  0  0  0  0  0  0  0
    9.8758    1.0040   -0.3665 H   0  0  0  0  0  0  0  0  0  0  0  0
  1  2  1  0
  2  3  2  0
  3  4  1  0
  4  5  1  0
  5  6  1  0
  6  7  1  0
  7  8  2  0
  8  9  1  0
  9 10  2  0
 10 11  1  0
 11 12  2  0
 11 13  2  0
 11 14  1  0
 14 15  1  0
 15 16  1  0
 16 17  1  0
 17 18  1  0
 18 19  1  0
 19 20  1  0
 20 21  1  0
 21 22  2  0
 20 23  1  0
 23 24  1  0
 15 25  1  0
 25 26  1  0
 25 27  1  0
 27 28  2  0
 10 29  1  0
 29 30  2  0
  4 31  2  0
 31 32  1  0
 32 33  2  0
 33 34  1  0
 34 35  2  0
 35 36  1  0
 36 37  2  0
 37  2  1  0
 30  7  1  0
 36 31  1  0
 24 17  1  0
  1 38  1  0
  1 39  1  0
  1 40  1  0
  3 41  1  0
  5 42  1  0
  5 43  1  0
  8 44  1  0
  9 45  1  0
 14 46  1  0
 14 47  1  0
 15 48  1  0
 16 49  1  0
 16 50  1  0
 17 51  1  0
 18 52  1  0
 18 53  1  0
 19 54  1  0
 19 55  1  0
 20 56  1  0
 23 57  1  0
 23 58  1  0
 24 59  1  0
 24 60  1  0
 26 61  1  0
 27 62  1  0
 29 63  1  0
 30 64  1  0
 32 65  1  0
 33 66  1  0
 34 67  1  0
 35 68  1  0
M  END
$$$$
