
     RDKit          3D

 72 75  0  0  0  0  0  0  0  0999 V2000
   -3.4256    3.7565    0.3868 C   0  0  0  0  0  0  0  0  0  0  0  0
   -2.3881    3.0203    0.7577 C   0  0  0  0  0  0  0  0  0  0  0  0
   -2.5261    1.5299    0.9396 C   0  0  2  0  0  0  0  0  0  0  0  0
   -3.7417    1.4424    1.8753 C   0  0  0  0  0  0  0  0  0  0  0  0
   -1.3693    1.0417    1.6918 C   0  0  0  0  0  0  0  0  0  0  0  0
   -0.1310    0.6666    0.9329 C   0  0  1  0  0  0  0  0  0  0  0  0
    1.0369    1.0638    1.6686 O   0  0  0  0  0  0  0  0  0  0  0  0
    1.8639    2.1068    1.3829 C   0  0  0  0  0  0  0  0  0  0  0  0
    1.6221    2.8074    0.4065 O   0  0  0  0  0  0  0  0  0  0  0  0
    3.0578    2.4241    2.2206 C   0  0  0  0  0  0  0  0  0  0  0  0
    4.2876    1.1269    2.2217 S   0  0  0  0  0  0  0  0  0  0  0  0
    5.0777    0.9079    0.6605 C   0  0  0  0  0  0  0  0  0  0  0  0
    4.8580    1.6667   -0.4591 C   0  0  0  0  0  0  0  0  0  0  0  0
    5.5207    1.3968   -1.6220 N   0  0  0  0  0  0  0  0  0  0  0  0
    6.4078    0.3896   -1.7258 C   0  0  0  0  0  0  0  0  0  0  0  0
    6.6622   -0.4002   -0.6284 C   0  0  0  0  0  0  0  0  0  0  0  0
    7.5951   -1.4637   -0.7331 N   0  0  0  0  0  0  0  0  0  0  0  0
    5.9960   -0.1276    0.5379 C   0  0  0  0  0  0  0  0  0  0  0  0
   -0.0537   -0.7439    0.4173 C   0  0  2  0  0  0  0  0  0  0  0  0
    0.9781   -1.4254    1.3479 C   0  0  0  0  0  0  0  0  0  0  0  0
    0.5000   -0.9189   -0.9495 C   0  0  2  0  0  0  0  0  0  0  0  0
    1.2979    0.2454   -1.4977 C   0  0  0  0  0  0  0  0  0  0  0  0
   -0.4732   -1.2854   -2.0326 C   0  0  0  0  0  0  0  0  0  0  0  0
   -1.6077   -2.1425   -1.6514 C   0  0  0  0  0  0  0  0  0  0  0  0
   -2.3185   -1.4874   -0.4505 C   0  0  1  0  0  0  0  0  0  0  0  0
   -3.2590   -2.6376   -0.0205 C   0  0  0  0  0  0  0  0  0  0  0  0
   -2.3932   -3.6472    0.6442 C   0  0  0  0  0  0  0  0  0  0  0  0
   -1.0534   -3.0099    0.6990 C   0  0  0  0  0  0  0  0  0  0  0  0
   -0.0729   -3.6985    0.7805 O   0  0  0  0  0  0  0  0  0  0  0  0
   -1.3200   -1.5466    0.6310 C   0  0  1  0  0  0  0  0  0  0  0  0
   -3.1134   -0.3311   -0.7546 C   0  0  1  0  0  0  0  0  0  0  0  0
   -4.6173   -0.6167   -0.4857 C   0  0  0  0  0  0  0  0  0  0  0  0
   -2.8075    1.0431   -0.4163 C   0  0  2  0  0  0  0  0  0  0  0  0
   -1.9401    1.7166   -1.3168 O   0  0  0  0  0  0  0  0  0  0  0  0
   -3.3092    4.8264    0.2606 H   0  0  0  0  0  0  0  0  0  0  0  0
   -4.4117    3.3574    0.1937 H   0  0  0  0  0  0  0  0  0  0  0  0
   -1.4438    3.4722    0.9309 H   0  0  0  0  0  0  0  0  0  0  0  0
   -3.5276    2.2084    2.6797 H   0  0  0  0  0  0  0  0  0  0  0  0
   -3.7478    0.4834    2.4255 H   0  0  0  0  0  0  0  0  0  0  0  0
   -4.6722    1.7425    1.4061 H   0  0  0  0  0  0  0  0  0  0  0  0
   -1.6567    0.3604    2.5154 H   0  0  0  0  0  0  0  0  0  0  0  0
   -0.9944    1.9190    2.3293 H   0  0  0  0  0  0  0  0  0  0  0  0
   -0.1060    1.4089    0.1028 H   0  0  0  0  0  0  0  0  0  0  0  0
    3.4405    3.4068    1.9258 H   0  0  0  0  0  0  0  0  0  0  0  0
    2.7239    2.5501    3.2958 H   0  0  0  0  0  0  0  0  0  0  0  0
    4.1693    2.4734   -0.4129 H   0  0  0  0  0  0  0  0  0  0  0  0
    6.9130    0.2059   -2.6629 H   0  0  0  0  0  0  0  0  0  0  0  0
    7.2476   -2.4395   -0.6805 H   0  0  0  0  0  0  0  0  0  0  0  0
    8.6172   -1.3205   -0.8608 H   0  0  0  0  0  0  0  0  0  0  0  0
    6.2004   -0.7538    1.3997 H   0  0  0  0  0  0  0  0  0  0  0  0
    1.7299   -0.6478    1.5911 H   0  0  0  0  0  0  0  0  0  0  0  0
    1.6041   -2.1608    0.7713 H   0  0  0  0  0  0  0  0  0  0  0  0
    0.5265   -1.8189    2.2416 H   0  0  0  0  0  0  0  0  0  0  0  0
    1.2709   -1.7613   -0.9785 H   0  0  0  0  0  0  0  0  0  0  0  0
    2.2253    0.4268   -0.9251 H   0  0  0  0  0  0  0  0  0  0  0  0
    0.7055    1.1286   -1.7369 H   0  0  0  0  0  0  0  0  0  0  0  0
    1.6871   -0.1177   -2.5016 H   0  0  0  0  0  0  0  0  0  0  0  0
   -0.8554   -0.4130   -2.6130 H   0  0  0  0  0  0  0  0  0  0  0  0
    0.0810   -1.8558   -2.8458 H   0  0  0  0  0  0  0  0  0  0  0  0
   -1.3221   -3.1896   -1.3689 H   0  0  0  0  0  0  0  0  0  0  0  0
   -2.3397   -2.1590   -2.4691 H   0  0  0  0  0  0  0  0  0  0  0  0
   -4.0301   -2.3211    0.6708 H   0  0  0  0  0  0  0  0  0  0  0  0
   -3.7089   -3.1247   -0.9143 H   0  0  0  0  0  0  0  0  0  0  0  0
   -2.3702   -4.6284    0.1236 H   0  0  0  0  0  0  0  0  0  0  0  0
   -2.7102   -3.8332    1.7035 H   0  0  0  0  0  0  0  0  0  0  0  0
   -1.8356   -1.3572    1.5693 H   0  0  0  0  0  0  0  0  0  0  0  0
   -3.1521   -0.3043   -1.9073 H   0  0  0  0  0  0  0  0  0  0  0  0
   -5.1581    0.2193   -1.0278 H   0  0  0  0  0  0  0  0  0  0  0  0
   -4.8803   -0.4841    0.5585 H   0  0  0  0  0  0  0  0  0  0  0  0
   -4.9530   -1.5308   -0.9725 H   0  0  0  0  0  0  0  0  0  0  0  0
   -3.7723    1.6065   -0.6885 H   0  0  0  0  0  0  0  0  0  0  0  0
   -2.3350    1.5556   -2.2157 H   0  0  0  0  0  0  0  0  0  0  0  0
  1  2  2  3
  2  3  1  0
  3  4  1  1
  3  5  1  0
  5  6  1  0
  6  7  1  0
  7  8  1  0
  8  9  2  0
  8 10  1  0
 10 11  1  0
 11 12  1  0
 12 13  2  0
 13 14  1  0
 14 15  2  0
 15 16  1  0
 16 17  1  0
 16 18  2  0
  6 19  1  0
 19 20  1  1
 19 21  1  0
 21 22  1  0
 21 23  1  0
 23 24  1  0
 25 24  1  6
 25 26  1  0
 26 27  1  0
 27 28  1  0
 28 29  2  0
 28 30  1  0
 25 31  1  0
 31 32  1  0
 31 33  1  0
 33 34  1  0
 33  3  1  0
 18 12  1  0
 30 19  1  0
 30 25  1  0
  1 35  1  0
  1 36  1  0
  2 37  1  0
  4 38  1  0
  4 39  1  0
  4 40  1  0
  5 41  1  0
  5 42  1  0
  6 43  1  6
 10 44  1  0
 10 45  1  0
 13 46  1  0
 15 47  1  0
 17 48  1  0
 17 49  1  0
 18 50  1  0
 20 51  1  0
 20 52  1  0
 20 53  1  0
 21 54  1  1
 22 55  1  0
 22 56  1  0
 22 57  1  0
 23 58  1  0
 23 59  1  0
 24 60  1  0
 24 61  1  0
 26 62  1  0
 26 63  1  0
 27 64  1  0
 27 65  1  0
 30 66  1  1
 31 67  1  6
 32 68  1  0
 32 69  1  0
 32 70  1  0
 33 71  1  6
 34 72  1  0
M  END
$$$$
