
     RDKit          3D

 71 78  0  0  0  0  0  0  0  0999 V2000
    5.3842    1.3331   -1.2501 C   0  0  0  0  0  0  0  0  0  0  0  0
    6.3971    0.2084   -1.3344 C   0  0  0  0  0  0  0  0  0  0  0  0
    6.6159   -0.3419    0.0315 C   0  0  0  0  0  0  0  0  0  0  0  0
    5.2972   -0.8820    0.6296 C   0  0  0  0  0  0  0  0  0  0  0  0
    4.7294   -1.9641   -0.1967 C   0  0  0  0  0  0  0  0  0  0  0  0
    3.5083   -2.6271    0.3048 C   0  0  0  0  0  0  0  0  0  0  0  0
    2.3709   -1.9280    0.5577 O   0  0  0  0  0  0  0  0  0  0  0  0
    2.0149   -1.0189    1.4920 C   0  0  0  0  0  0  0  0  0  0  0  0
    2.8589   -0.7093    2.3649 O   0  0  0  0  0  0  0  0  0  0  0  0
    0.6842   -0.3520    1.5629 C   0  0  2  0  0  0  0  0  0  0  0  0
    0.6153    0.5331    2.6319 O   0  0  0  0  0  0  0  0  0  0  0  0
   -0.3383   -1.4540    1.6728 C   0  0  0  0  0  0  0  0  0  0  0  0
   -0.5316   -1.8270    0.2041 C   0  0  2  0  0  0  0  0  0  0  0  0
    0.0767   -0.8787   -0.5423 O   0  0  0  0  0  0  0  0  0  0  0  0
    0.3761    0.2531    0.2517 C   0  0  2  0  0  0  0  0  0  0  0  0
    1.5935    0.8425   -0.4439 C   0  0  0  0  0  0  0  0  0  0  0  0
   -0.7812    1.1281    0.2236 N   0  0  0  0  0  0  0  0  0  0  0  0
   -0.7755    2.4768    0.2970 C   0  0  0  0  0  0  0  0  0  0  0  0
    0.2189    3.4087    0.4788 C   0  0  0  0  0  0  0  0  0  0  0  0
   -0.0878    4.7697    0.5227 C   0  0  0  0  0  0  0  0  0  0  0  0
   -1.3906    5.2234    0.3869 C   0  0  0  0  0  0  0  0  0  0  0  0
   -2.3990    4.3007    0.2051 C   0  0  0  0  0  0  0  0  0  0  0  0
   -2.0921    2.9553    0.1620 C   0  0  0  0  0  0  0  0  0  0  0  0
   -2.8886    1.8657    0.0104 C   0  0  0  0  0  0  0  0  0  0  0  0
   -4.2473    1.6908   -0.1643 C   0  0  0  0  0  0  0  0  0  0  0  0
   -4.8113    0.4160   -0.2961 C   0  0  0  0  0  0  0  0  0  0  0  0
   -3.9701   -0.6858   -0.2459 C   0  0  0  0  0  0  0  0  0  0  0  0
   -4.1626   -2.0483   -0.3128 C   0  0  0  0  0  0  0  0  0  0  0  0
   -5.2360   -2.8615   -0.4745 C   0  0  0  0  0  0  0  0  0  0  0  0
   -5.0418   -4.2405   -0.4923 C   0  0  0  0  0  0  0  0  0  0  0  0
   -3.8024   -4.8141   -0.3521 C   0  0  0  0  0  0  0  0  0  0  0  0
   -2.7035   -4.0032   -0.1872 C   0  0  0  0  0  0  0  0  0  0  0  0
   -2.8904   -2.6301   -0.1688 C   0  0  0  0  0  0  0  0  0  0  0  0
   -1.9740   -1.6828   -0.0232 N   0  0  0  0  0  0  0  0  0  0  0  0
   -2.5938   -0.4914   -0.0684 C   0  0  0  0  0  0  0  0  0  0  0  0
   -2.0818    0.7842    0.0530 C   0  0  0  0  0  0  0  0  0  0  0  0
   -6.2437    0.5265   -0.4685 C   0  0  0  0  0  0  0  0  0  0  0  0
   -7.1349   -0.3316   -0.6209 O   0  0  0  0  0  0  0  0  0  0  0  0
   -6.5199    1.9281   -0.4347 N   0  0  0  0  0  0  0  0  0  0  0  0
   -5.3120    2.6725   -0.2455 C   0  0  0  0  0  0  0  0  0  0  0  0
    4.3917    1.0224   -1.6365 H   0  0  0  0  0  0  0  0  0  0  0  0
    5.2560    1.7322   -0.2424 H   0  0  0  0  0  0  0  0  0  0  0  0
    5.7350    2.1586   -1.9030 H   0  0  0  0  0  0  0  0  0  0  0  0
    7.3732    0.6224   -1.6982 H   0  0  0  0  0  0  0  0  0  0  0  0
    6.1047   -0.5848   -2.0290 H   0  0  0  0  0  0  0  0  0  0  0  0
    6.9326    0.4557    0.7395 H   0  0  0  0  0  0  0  0  0  0  0  0
    7.3364   -1.1640    0.0841 H   0  0  0  0  0  0  0  0  0  0  0  0
    4.5581   -0.0109    0.5867 H   0  0  0  0  0  0  0  0  0  0  0  0
    5.4825   -1.0885    1.6723 H   0  0  0  0  0  0  0  0  0  0  0  0
    5.5398   -2.7405   -0.3984 H   0  0  0  0  0  0  0  0  0  0  0  0
    4.5451   -1.5817   -1.2582 H   0  0  0  0  0  0  0  0  0  0  0  0
    3.2072   -3.4706   -0.4118 H   0  0  0  0  0  0  0  0  0  0  0  0
    3.8082   -3.2041    1.2341 H   0  0  0  0  0  0  0  0  0  0  0  0
    1.4534    1.0197    2.7664 H   0  0  0  0  0  0  0  0  0  0  0  0
   -1.2481   -1.0620    2.1377 H   0  0  0  0  0  0  0  0  0  0  0  0
    0.0649   -2.3322    2.2400 H   0  0  0  0  0  0  0  0  0  0  0  0
   -0.2130   -2.8600    0.0129 H   0  0  0  0  0  0  0  0  0  0  0  0
    1.2685    1.6037   -1.1730 H   0  0  0  0  0  0  0  0  0  0  0  0
    2.0920    0.0600   -1.1161 H   0  0  0  0  0  0  0  0  0  0  0  0
    2.3933    1.1557    0.2169 H   0  0  0  0  0  0  0  0  0  0  0  0
    1.2175    3.0805    0.6013 H   0  0  0  0  0  0  0  0  0  0  0  0
    0.7072    5.4621    0.6642 H   0  0  0  0  0  0  0  0  0  0  0  0
   -1.6685    6.2652    0.4149 H   0  0  0  0  0  0  0  0  0  0  0  0
   -3.4110    4.5898    0.0961 H   0  0  0  0  0  0  0  0  0  0  0  0
   -6.2144   -2.4532   -0.5870 H   0  0  0  0  0  0  0  0  0  0  0  0
   -5.9315   -4.8415   -0.6240 H   0  0  0  0  0  0  0  0  0  0  0  0
   -3.6530   -5.8831   -0.3660 H   0  0  0  0  0  0  0  0  0  0  0  0
   -1.7128   -4.4153   -0.0738 H   0  0  0  0  0  0  0  0  0  0  0  0
   -7.5084    2.3243   -0.5403 H   0  0  0  0  0  0  0  0  0  0  0  0
   -5.4544    3.2818    0.6683 H   0  0  0  0  0  0  0  0  0  0  0  0
   -5.1836    3.3141   -1.1520 H   0  0  0  0  0  0  0  0  0  0  0  0
  1  2  1  0
  2  3  1  0
  3  4  1  0
  4  5  1  0
  5  6  1  0
  6  7  1  0
  7  8  1  0
  8  9  2  0
  8 10  1  0
 10 11  1  1
 10 12  1  0
 12 13  1  0
 13 14  1  0
 14 15  1  0
 15 16  1  6
 15 17  1  0
 17 18  1  0
 18 19  2  0
 19 20  1  0
 20 21  2  0
 21 22  1  0
 22 23  2  0
 23 24  1  0
 24 25  2  0
 25 26  1  0
 26 27  2  0
 27 28  1  0
 28 29  2  0
 29 30  1  0
 30 31  2  0
 31 32  1  0
 32 33  2  0
 33 34  1  0
 34 35  1  0
 35 36  2  0
 26 37  1  0
 37 38  2  0
 37 39  1  0
 39 40  1  0
 15 10  1  0
 36 17  1  0
 34 13  1  0
 23 18  1  0
 36 24  1  0
 40 25  1  0
 35 27  1  0
 33 28  1  0
  1 41  1  0
  1 42  1  0
  1 43  1  0
  2 44  1  0
  2 45  1  0
  3 46  1  0
  3 47  1  0
  4 48  1  0
  4 49  1  0
  5 50  1  0
  5 51  1  0
  6 52  1  0
  6 53  1  0
 11 54  1  0
 12 55  1  0
 12 56  1  0
 13 57  1  1
 16 58  1  0
 16 59  1  0
 16 60  1  0
 19 61  1  0
 20 62  1  0
 21 63  1  0
 22 64  1  0
 29 65  1  0
 30 66  1  0
 31 67  1  0
 32 68  1  0
 39 69  1  0
 40 70  1  0
 40 71  1  0
M  END
$$$$
