
     RDKit          3D

 41 42  0  0  0  0  0  0  0  0999 V2000
   -3.4292   -0.7548    0.4326 C   0  0  1  0  0  0  0  0  0  0  0  0
   -4.2468   -1.9934    0.1596 C   0  0  0  0  0  0  0  0  0  0  0  0
   -4.4431   -2.1608   -1.2093 O   0  0  0  0  0  0  0  0  0  0  0  0
   -2.1844   -0.8624   -0.1868 O   0  0  0  0  0  0  0  0  0  0  0  0
   -1.3995    0.1720    0.2408 C   0  0  1  0  0  0  0  0  0  0  0  0
   -0.0240    0.1129   -0.0448 N   0  0  0  0  0  0  0  0  0  0  0  0
    0.6449   -0.6039   -0.8419 C   0  0  0  0  0  0  0  0  0  0  0  0
   -0.1868   -1.4916   -1.5527 O   0  0  0  0  0  0  0  0  0  0  0  0
    2.0166   -0.2367   -0.7190 N   0  0  0  0  0  0  0  0  0  0  0  0
    2.8338   -0.8323    0.0835 C   0  0  0  0  0  0  0  0  0  0  0  0
    2.4425   -1.8863    0.8985 O   0  0  0  0  0  0  0  0  0  0  0  0
    4.2074   -0.3716    0.1233 C   0  0  0  0  0  0  0  0  0  0  0  0
    5.1316   -0.9703    0.9638 C   0  0  0  0  0  0  0  0  0  0  0  0
    6.4462   -0.4993    0.9750 C   0  0  0  0  0  0  0  0  0  0  0  0
    6.8918    0.5384    0.1924 C   0  0  0  0  0  0  0  0  0  0  0  0
    5.9547    1.1370   -0.6523 C   0  0  0  0  0  0  0  0  0  0  0  0
    4.6613    0.6614   -0.6523 C   0  0  0  0  0  0  0  0  0  0  0  0
   -1.9260    1.5189   -0.2635 C   0  0  2  0  0  0  0  0  0  0  0  0
   -1.0172    2.4986    0.0769 O   0  0  0  0  0  0  0  0  0  0  0  0
   -3.2825    1.6835    0.3736 C   0  0  1  0  0  0  0  0  0  0  0  0
   -3.8564    2.8873   -0.0322 O   0  0  0  0  0  0  0  0  0  0  0  0
   -4.1081    0.4944   -0.0846 C   0  0  2  0  0  0  0  0  0  0  0  0
   -5.3669    0.6674    0.4452 O   0  0  0  0  0  0  0  0  0  0  0  0
   -3.3331   -0.6407    1.5331 H   0  0  0  0  0  0  0  0  0  0  0  0
   -5.2379   -1.8949    0.6290 H   0  0  0  0  0  0  0  0  0  0  0  0
   -3.7356   -2.8484    0.6134 H   0  0  0  0  0  0  0  0  0  0  0  0
   -3.5485   -2.2798   -1.6430 H   0  0  0  0  0  0  0  0  0  0  0  0
   -1.5118    0.2157    1.3582 H   0  0  0  0  0  0  0  0  0  0  0  0
   -0.9343   -1.1491   -2.1410 H   0  0  0  0  0  0  0  0  0  0  0  0
    1.4631   -1.8955    1.2191 H   0  0  0  0  0  0  0  0  0  0  0  0
    4.8505   -1.7912    1.6064 H   0  0  0  0  0  0  0  0  0  0  0  0
    7.1432   -0.9869    1.6412 H   0  0  0  0  0  0  0  0  0  0  0  0
    7.9264    0.8259    0.2757 H   0  0  0  0  0  0  0  0  0  0  0  0
    6.2997    1.9560   -1.2721 H   0  0  0  0  0  0  0  0  0  0  0  0
    3.9690    1.1624   -1.3289 H   0  0  0  0  0  0  0  0  0  0  0  0
   -1.9945    1.4408   -1.3638 H   0  0  0  0  0  0  0  0  0  0  0  0
   -0.7192    2.4259    1.0139 H   0  0  0  0  0  0  0  0  0  0  0  0
   -3.1483    1.6355    1.4727 H   0  0  0  0  0  0  0  0  0  0  0  0
   -3.1234    3.5721    0.0063 H   0  0  0  0  0  0  0  0  0  0  0  0
   -4.0656    0.4859   -1.1930 H   0  0  0  0  0  0  0  0  0  0  0  0
   -6.0598    0.0580    0.1044 H   0  0  0  0  0  0  0  0  0  0  0  0
  1  2  1  0
  2  3  1  0
  1  4  1  0
  4  5  1  0
  5  6  1  0
  6  7  2  3
  7  8  1  0
  7  9  1  0
  9 10  2  3
 10 11  1  0
 10 12  1  0
 12 13  2  0
 13 14  1  0
 14 15  2  0
 15 16  1  0
 16 17  2  0
  5 18  1  0
 18 19  1  0
 18 20  1  0
 20 21  1  0
 20 22  1  0
 22 23  1  0
 22  1  1  0
 17 12  1  0
  1 24  1  1
  2 25  1  0
  2 26  1  0
  3 27  1  0
  5 28  1  1
  8 29  1  0
 11 30  1  0
 13 31  1  0
 14 32  1  0
 15 33  1  0
 16 34  1  0
 17 35  1  0
 18 36  1  6
 19 37  1  0
 20 38  1  1
 21 39  1  0
 22 40  1  6
 23 41  1  0
M  END
$$$$
