
     RDKit          3D

 41 44  0  0  0  0  0  0  0  0999 V2000
   -2.1583   -3.7187    2.9260 N   0  0  0  0  0  0  0  0  0  0  0  0
   -2.4028   -3.3427    1.8471 C   0  0  0  0  0  0  0  0  0  0  0  0
   -2.7074   -2.8557    0.5229 C   0  0  0  0  0  0  0  0  0  0  0  0
   -3.7908   -3.1835   -0.2832 C   0  0  0  0  0  0  0  0  0  0  0  0
   -3.6848   -2.5026   -1.4324 N   0  0  0  0  0  0  0  0  0  0  0  0
   -2.5662   -1.7512   -1.3819 C   0  0  0  0  0  0  0  0  0  0  0  0
   -1.9741   -0.8719   -2.2669 C   0  0  0  0  0  0  0  0  0  0  0  0
   -0.7954   -0.2134   -1.9618 C   0  0  0  0  0  0  0  0  0  0  0  0
   -0.2060   -0.4517   -0.7350 C   0  0  0  0  0  0  0  0  0  0  0  0
    1.0258    0.1897   -0.3115 C   0  0  0  0  0  0  0  0  0  0  0  0
    1.1199    1.4735    0.1741 C   0  0  0  0  0  0  0  0  0  0  0  0
    0.0318    2.4241    0.3676 C   0  0  0  0  0  0  0  0  0  0  0  0
   -0.7189    2.9511   -0.6608 C   0  0  0  0  0  0  0  0  0  0  0  0
   -1.7472    3.8485   -0.4570 C   0  0  0  0  0  0  0  0  0  0  0  0
   -2.0773    4.2679    0.8131 C   0  0  0  0  0  0  0  0  0  0  0  0
   -3.0806    5.1451    1.0161 F   0  0  0  0  0  0  0  0  0  0  0  0
   -1.3426    3.7564    1.8601 C   0  0  0  0  0  0  0  0  0  0  0  0
   -0.3178    2.8615    1.6530 C   0  0  0  0  0  0  0  0  0  0  0  0
    2.4082    1.7409    0.4577 N   0  0  0  0  0  0  0  0  0  0  0  0
    3.1433    0.6654    0.1681 C   0  0  0  0  0  0  0  0  0  0  0  0
    4.5514    0.5428    0.3256 N   0  0  0  0  0  0  0  0  0  0  0  0
    2.2933   -0.2780   -0.3010 N   0  0  0  0  0  0  0  0  0  0  0  0
    2.7196   -1.5870   -0.7327 C   0  0  0  0  0  0  0  0  0  0  0  0
    2.7089   -2.5407    0.4420 C   0  0  0  0  0  0  0  0  0  0  0  0
    3.1274   -3.8006   -0.0072 F   0  0  0  0  0  0  0  0  0  0  0  0
    3.6427   -2.1720    1.4006 F   0  0  0  0  0  0  0  0  0  0  0  0
   -0.8554   -1.3441    0.0998 C   0  0  0  0  0  0  0  0  0  0  0  0
   -1.9887   -1.9762   -0.1958 N   0  0  0  0  0  0  0  0  0  0  0  0
   -4.5449   -3.8815    0.0453 H   0  0  0  0  0  0  0  0  0  0  0  0
   -2.4622   -0.7082   -3.2189 H   0  0  0  0  0  0  0  0  0  0  0  0
   -0.3163    0.4733   -2.6326 H   0  0  0  0  0  0  0  0  0  0  0  0
   -0.4916    2.6516   -1.6644 H   0  0  0  0  0  0  0  0  0  0  0  0
   -2.3307    4.2530   -1.2970 H   0  0  0  0  0  0  0  0  0  0  0  0
   -1.6015    4.0855    2.8547 H   0  0  0  0  0  0  0  0  0  0  0  0
    0.2251    2.4908    2.4950 H   0  0  0  0  0  0  0  0  0  0  0  0
    5.0684   -0.2698   -0.1105 H   0  0  0  0  0  0  0  0  0  0  0  0
    5.0420    1.2705    0.8762 H   0  0  0  0  0  0  0  0  0  0  0  0
    2.0091   -2.0059   -1.4931 H   0  0  0  0  0  0  0  0  0  0  0  0
    3.7371   -1.4906   -1.1702 H   0  0  0  0  0  0  0  0  0  0  0  0
    1.7081   -2.6148    0.9051 H   0  0  0  0  0  0  0  0  0  0  0  0
   -0.4008   -1.5307    1.0639 H   0  0  0  0  0  0  0  0  0  0  0  0
  1  2  3  0
  2  3  1  0
  3  4  2  0
  4  5  1  0
  5  6  2  0
  6  7  1  0
  7  8  2  0
  8  9  1  0
  9 10  1  0
 10 11  2  0
 11 12  1  0
 12 13  2  0
 13 14  1  0
 14 15  2  0
 15 16  1  0
 15 17  1  0
 17 18  2  0
 11 19  1  0
 19 20  2  0
 20 21  1  0
 20 22  1  0
 22 23  1  0
 23 24  1  0
 24 25  1  0
 24 26  1  0
  9 27  2  0
 27 28  1  0
 28  3  1  0
 28  6  1  0
 22 10  1  0
 18 12  1  0
  4 29  1  0
  7 30  1  0
  8 31  1  0
 13 32  1  0
 14 33  1  0
 17 34  1  0
 18 35  1  0
 21 36  1  0
 21 37  1  0
 23 38  1  0
 23 39  1  0
 24 40  1  0
 27 41  1  0
M  END
$$$$
