
     RDKit          3D

 52 56  0  0  0  0  0  0  0  0999 V2000
   -5.9947    0.7486   -1.5042 N   0  0  0  0  0  0  0  0  0  0  0  0
   -5.6888    0.6697   -0.1241 C   0  0  0  0  0  0  0  0  0  0  0  0
   -6.5746    1.1827    0.8146 C   0  0  0  0  0  0  0  0  0  0  0  0
   -6.2911    1.1135    2.1633 C   0  0  0  0  0  0  0  0  0  0  0  0
   -5.1006    0.5174    2.5232 C   0  0  0  0  0  0  0  0  0  0  0  0
   -4.2091    0.0021    1.5943 C   0  0  0  0  0  0  0  0  0  0  0  0
   -3.0223   -0.5913    1.9684 C   0  0  0  0  0  0  0  0  0  0  0  0
   -2.1355   -1.1046    1.0327 C   0  0  0  0  0  0  0  0  0  0  0  0
   -2.4226   -1.0335   -0.3134 C   0  0  0  0  0  0  0  0  0  0  0  0
   -1.5060   -1.5646   -1.2910 N   0  0  0  0  0  0  0  0  0  0  0  0
   -0.3233   -1.0784   -1.6623 C   0  0  0  0  0  0  0  0  0  0  0  0
    0.2777    0.1374   -1.1149 C   0  0  0  0  0  0  0  0  0  0  0  0
   -0.4088    1.3404   -1.1578 C   0  0  0  0  0  0  0  0  0  0  0  0
    0.2308    2.4381   -0.6193 C   0  0  0  0  0  0  0  0  0  0  0  0
    1.4429    2.3432   -0.0877 N   0  0  0  0  0  0  0  0  0  0  0  0
    2.1595    1.1931   -0.0192 C   0  0  0  0  0  0  0  0  0  0  0  0
    3.4467    1.1424    0.5615 N   0  0  0  0  0  0  0  0  0  0  0  0
    4.2536   -0.0383    0.6510 C   0  0  0  0  0  0  0  0  0  0  0  0
    5.5612    0.2282    1.3768 C   0  0  0  0  0  0  0  0  0  0  0  0
    6.5076    1.0764    0.5620 C   0  0  0  0  0  0  0  0  0  0  0  0
    6.6652    0.6028   -0.7268 O   0  0  0  0  0  0  0  0  0  0  0  0
    6.0772   -0.6398   -0.9204 C   0  0  0  0  0  0  0  0  0  0  0  0
    4.5815   -0.6228   -0.6995 C   0  0  0  0  0  0  0  0  0  0  0  0
    1.5398    0.0816   -0.5516 C   0  0  0  0  0  0  0  0  0  0  0  0
    0.1640   -1.9067   -2.5967 N   0  0  0  0  0  0  0  0  0  0  0  0
   -0.6828   -2.8935   -2.8161 N   0  0  0  0  0  0  0  0  0  0  0  0
   -1.7295   -2.6841   -2.0015 C   0  0  0  0  0  0  0  0  0  0  0  0
   -2.7574   -3.3995   -1.9014 O   0  0  0  0  0  0  0  0  0  0  0  0
   -3.6108   -0.4390   -0.6816 C   0  0  0  0  0  0  0  0  0  0  0  0
   -4.4979    0.0744    0.2531 C   0  0  0  0  0  0  0  0  0  0  0  0
   -5.2985    1.0536   -2.2102 H   0  0  0  0  0  0  0  0  0  0  0  0
   -6.9436    0.4966   -1.8407 H   0  0  0  0  0  0  0  0  0  0  0  0
   -7.5129    1.6527    0.5361 H   0  0  0  0  0  0  0  0  0  0  0  0
   -6.9910    1.5182    2.8940 H   0  0  0  0  0  0  0  0  0  0  0  0
   -4.8423    0.4442    3.5739 H   0  0  0  0  0  0  0  0  0  0  0  0
   -2.8101   -0.6404    3.0237 H   0  0  0  0  0  0  0  0  0  0  0  0
   -1.2099   -1.5668    1.3347 H   0  0  0  0  0  0  0  0  0  0  0  0
   -1.3851    1.3742   -1.5956 H   0  0  0  0  0  0  0  0  0  0  0  0
   -0.3346    3.3746   -0.6667 H   0  0  0  0  0  0  0  0  0  0  0  0
    3.8332    2.0420    0.9545 H   0  0  0  0  0  0  0  0  0  0  0  0
    3.7147   -0.8029    1.2381 H   0  0  0  0  0  0  0  0  0  0  0  0
    5.3752    0.7945    2.3245 H   0  0  0  0  0  0  0  0  0  0  0  0
    6.0330   -0.7237    1.6935 H   0  0  0  0  0  0  0  0  0  0  0  0
    6.2092    2.1434    0.5941 H   0  0  0  0  0  0  0  0  0  0  0  0
    7.5015    1.0108    1.0562 H   0  0  0  0  0  0  0  0  0  0  0  0
    6.5204   -1.3390   -0.1872 H   0  0  0  0  0  0  0  0  0  0  0  0
    6.3011   -1.0291   -1.9173 H   0  0  0  0  0  0  0  0  0  0  0  0
    4.2689   -1.6845   -0.6993 H   0  0  0  0  0  0  0  0  0  0  0  0
    4.0515   -0.0751   -1.5053 H   0  0  0  0  0  0  0  0  0  0  0  0
    2.0205   -0.8856   -0.5466 H   0  0  0  0  0  0  0  0  0  0  0  0
   -0.5915   -3.6841   -3.4739 H   0  0  0  0  0  0  0  0  0  0  0  0
   -3.8615   -0.3694   -1.7270 H   0  0  0  0  0  0  0  0  0  0  0  0
  1  2  1  0
  2  3  2  0
  3  4  1  0
  4  5  2  0
  5  6  1  0
  6  7  2  0
  7  8  1  0
  8  9  2  0
  9 10  1  0
 10 11  1  0
 11 12  1  0
 12 13  2  0
 13 14  1  0
 14 15  2  0
 15 16  1  0
 16 17  1  0
 17 18  1  0
 18 19  1  0
 19 20  1  0
 20 21  1  0
 21 22  1  0
 22 23  1  0
 16 24  2  0
 11 25  2  0
 25 26  1  0
 26 27  1  0
 27 28  2  0
  9 29  1  0
 29 30  2  0
 30  2  1  0
 30  6  1  0
 27 10  1  0
 24 12  1  0
 23 18  1  0
  1 31  1  0
  1 32  1  0
  3 33  1  0
  4 34  1  0
  5 35  1  0
  7 36  1  0
  8 37  1  0
 13 38  1  0
 14 39  1  0
 17 40  1  0
 18 41  1  0
 19 42  1  0
 19 43  1  0
 20 44  1  0
 20 45  1  0
 22 46  1  0
 22 47  1  0
 23 48  1  0
 23 49  1  0
 24 50  1  0
 26 51  1  0
 29 52  1  0
M  END
$$$$
