
     RDKit          3D

 44 45  0  0  0  0  0  0  0  0999 V2000
   -4.5078   -1.3793   -1.3702 C   0  0  0  0  0  0  0  0  0  0  0  0
   -5.4059   -0.3733   -1.2068 O   0  0  0  0  0  0  0  0  0  0  0  0
   -4.9656    0.8640   -0.9705 C   0  0  0  0  0  0  0  0  0  0  0  0
   -4.2546    1.2755    0.2520 C   0  0  0  0  0  0  0  0  0  0  0  0
   -3.0341    0.6626    0.5973 N   0  0  0  0  0  0  0  0  0  0  0  0
   -2.8046   -0.3489    1.4479 C   0  0  0  0  0  0  0  0  0  0  0  0
   -3.8067   -1.0750    2.2725 C   0  0  0  0  0  0  0  0  0  0  0  0
   -1.4532   -0.6458    1.4787 C   0  0  0  0  0  0  0  0  0  0  0  0
   -0.8216    0.2196    0.6105 C   0  0  0  0  0  0  0  0  0  0  0  0
    0.6054    0.2808    0.3139 C   0  0  0  0  0  0  0  0  0  0  0  0
    1.0057    1.1429   -0.5121 O   0  0  0  0  0  0  0  0  0  0  0  0
    1.5155   -0.6692    0.9942 C   0  0  0  0  0  0  0  0  0  0  0  0
    2.8489   -0.5029    0.6211 O   0  0  0  0  0  0  0  0  0  0  0  0
    3.3613   -0.6194   -0.6432 C   0  0  0  0  0  0  0  0  0  0  0  0
    2.5674   -0.9045   -1.5766 O   0  0  0  0  0  0  0  0  0  0  0  0
    4.7875   -0.4126   -0.8623 C   0  0  0  0  0  0  0  0  0  0  0  0
    5.3662   -0.5159   -2.1140 C   0  0  0  0  0  0  0  0  0  0  0  0
    6.7187   -0.3141   -2.2864 C   0  0  0  0  0  0  0  0  0  0  0  0
    7.5161   -0.0026   -1.1926 C   0  0  0  0  0  0  0  0  0  0  0  0
    6.9718    0.1072    0.0626 C   0  0  0  0  0  0  0  0  0  0  0  0
    5.6168   -0.1019    0.1931 C   0  0  0  0  0  0  0  0  0  0  0  0
    4.8385    0.0485    1.9476 Br  0  0  0  0  0  0  0  0  0  0  0  0
   -1.8247    1.0025    0.0929 C   0  0  0  0  0  0  0  0  0  0  0  0
   -1.6016    2.0921   -0.9026 C   0  0  0  0  0  0  0  0  0  0  0  0
   -3.7696   -1.1654   -2.2113 H   0  0  0  0  0  0  0  0  0  0  0  0
   -5.0672   -2.3080   -1.7875 H   0  0  0  0  0  0  0  0  0  0  0  0
   -4.0140   -1.7801   -0.4895 H   0  0  0  0  0  0  0  0  0  0  0  0
   -5.9101    1.5438   -1.0340 H   0  0  0  0  0  0  0  0  0  0  0  0
   -4.3554    1.1611   -1.9055 H   0  0  0  0  0  0  0  0  0  0  0  0
   -5.0089    1.1413    1.1127 H   0  0  0  0  0  0  0  0  0  0  0  0
   -4.1608    2.4236    0.2670 H   0  0  0  0  0  0  0  0  0  0  0  0
   -4.8077   -0.9629    1.8167 H   0  0  0  0  0  0  0  0  0  0  0  0
   -3.5522   -2.1647    2.2296 H   0  0  0  0  0  0  0  0  0  0  0  0
   -3.8492   -0.6955    3.3082 H   0  0  0  0  0  0  0  0  0  0  0  0
   -0.9239   -1.3949    2.0470 H   0  0  0  0  0  0  0  0  0  0  0  0
    1.1620   -1.7237    0.9006 H   0  0  0  0  0  0  0  0  0  0  0  0
    1.4539   -0.4379    2.0954 H   0  0  0  0  0  0  0  0  0  0  0  0
    4.7471   -0.7621   -2.9897 H   0  0  0  0  0  0  0  0  0  0  0  0
    7.2099   -0.3859   -3.2501 H   0  0  0  0  0  0  0  0  0  0  0  0
    8.5907    0.1642   -1.2902 H   0  0  0  0  0  0  0  0  0  0  0  0
    7.6020    0.3536    0.9286 H   0  0  0  0  0  0  0  0  0  0  0  0
   -0.7539    2.7564   -0.5786 H   0  0  0  0  0  0  0  0  0  0  0  0
   -2.4895    2.7681   -0.9546 H   0  0  0  0  0  0  0  0  0  0  0  0
   -1.3424    1.6387   -1.8626 H   0  0  0  0  0  0  0  0  0  0  0  0
  1  2  1  0
  2  3  1  0
  3  4  1  0
  4  5  1  0
  5  6  1  0
  6  7  1  0
  6  8  2  0
  8  9  1  0
  9 10  1  0
 10 11  2  0
 10 12  1  0
 12 13  1  0
 13 14  1  0
 14 15  2  0
 14 16  1  0
 16 17  2  0
 17 18  1  0
 18 19  2  0
 19 20  1  0
 20 21  2  0
 21 22  1  0
  9 23  2  0
 23 24  1  0
 23  5  1  0
 21 16  1  0
  1 25  1  0
  1 26  1  0
  1 27  1  0
  3 28  1  0
  3 29  1  0
  4 30  1  0
  4 31  1  0
  7 32  1  0
  7 33  1  0
  7 34  1  0
  8 35  1  0
 12 36  1  0
 12 37  1  0
 17 38  1  0
 18 39  1  0
 19 40  1  0
 20 41  1  0
 24 42  1  0
 24 43  1  0
 24 44  1  0
M  END
$$$$
