
     RDKit          3D

 39 41  0  0  0  0  0  0  0  0999 V2000
   -4.6172    2.3663    1.3491 C   0  0  0  0  0  0  0  0  0  0  0  0
   -3.8052    1.4036    0.6699 O   0  0  0  0  0  0  0  0  0  0  0  0
   -4.3583    0.4536   -0.1749 C   0  0  0  0  0  0  0  0  0  0  0  0
   -5.7394    0.3784   -0.4198 C   0  0  0  0  0  0  0  0  0  0  0  0
   -6.2759   -0.5795   -1.2693 C   0  0  0  0  0  0  0  0  0  0  0  0
   -5.4097   -1.4659   -1.8729 C   0  0  0  0  0  0  0  0  0  0  0  0
   -4.0411   -1.4133   -1.6477 C   0  0  0  0  0  0  0  0  0  0  0  0
   -3.5406   -0.4424   -0.7943 C   0  0  0  0  0  0  0  0  0  0  0  0
   -2.1266   -0.3714   -0.5767 N   0  0  0  0  0  0  0  0  0  0  0  0
   -1.5342   -0.6346    0.6625 C   0  0  0  0  0  0  0  0  0  0  0  0
   -2.5802   -0.9925    1.8990 S   0  0  0  0  0  0  0  0  0  0  0  0
   -0.1572   -0.6042    0.9728 N   0  0  0  0  0  0  0  0  0  0  0  0
    0.9180   -0.3379    0.1159 C   0  0  0  0  0  0  0  0  0  0  0  0
    0.5996   -0.0914   -1.1137 O   0  0  0  0  0  0  0  0  0  0  0  0
    2.3396   -0.3016    0.4268 C   0  0  0  0  0  0  0  0  0  0  0  0
    3.2675   -0.0140   -0.5876 C   0  0  0  0  0  0  0  0  0  0  0  0
    4.6071    0.0198   -0.2890 C   0  0  0  0  0  0  0  0  0  0  0  0
    5.5292    0.3046   -1.2885 C   0  0  0  0  0  0  0  0  0  0  0  0
    6.8907    0.3412   -0.9894 C   0  0  0  0  0  0  0  0  0  0  0  0
    7.3457    0.1000    0.2825 C   0  0  0  0  0  0  0  0  0  0  0  0
    6.4379   -0.1833    1.2785 C   0  0  0  0  0  0  0  0  0  0  0  0
    5.0841   -0.2227    0.9931 C   0  0  0  0  0  0  0  0  0  0  0  0
    4.1898   -0.4852    1.9037 O   0  0  0  0  0  0  0  0  0  0  0  0
    2.8753   -0.5294    1.6583 C   0  0  0  0  0  0  0  0  0  0  0  0
    2.1280   -0.7966    2.6319 O   0  0  0  0  0  0  0  0  0  0  0  0
   -5.5403    1.8540    1.7594 H   0  0  0  0  0  0  0  0  0  0  0  0
   -4.0421    2.8888    2.1473 H   0  0  0  0  0  0  0  0  0  0  0  0
   -4.9133    3.1327    0.6074 H   0  0  0  0  0  0  0  0  0  0  0  0
   -6.3947    1.0756    0.0570 H   0  0  0  0  0  0  0  0  0  0  0  0
   -7.3560   -0.6026   -1.4332 H   0  0  0  0  0  0  0  0  0  0  0  0
   -5.8073   -2.2218   -2.5364 H   0  0  0  0  0  0  0  0  0  0  0  0
   -3.3773   -2.1099   -2.1318 H   0  0  0  0  0  0  0  0  0  0  0  0
   -1.5558   -0.0999   -1.4398 H   0  0  0  0  0  0  0  0  0  0  0  0
    0.1063   -0.8074    1.9803 H   0  0  0  0  0  0  0  0  0  0  0  0
    2.8662    0.1710   -1.5695 H   0  0  0  0  0  0  0  0  0  0  0  0
    5.1863    0.4950   -2.2972 H   0  0  0  0  0  0  0  0  0  0  0  0
    7.6050    0.5642   -1.7709 H   0  0  0  0  0  0  0  0  0  0  0  0
    8.3991    0.1285    0.5129 H   0  0  0  0  0  0  0  0  0  0  0  0
    6.7971   -0.3698    2.2943 H   0  0  0  0  0  0  0  0  0  0  0  0
  1  2  1  0
  2  3  1  0
  3  4  2  0
  4  5  1  0
  5  6  2  0
  6  7  1  0
  7  8  2  0
  8  9  1  0
  9 10  1  0
 10 11  2  0
 10 12  1  0
 12 13  1  0
 13 14  2  0
 13 15  1  0
 15 16  2  0
 16 17  1  0
 17 18  2  0
 18 19  1  0
 19 20  2  0
 20 21  1  0
 21 22  2  0
 22 23  1  0
 23 24  1  0
 24 25  2  0
  8  3  1  0
 24 15  1  0
 22 17  1  0
  1 26  1  0
  1 27  1  0
  1 28  1  0
  4 29  1  0
  5 30  1  0
  6 31  1  0
  7 32  1  0
  9 33  1  0
 12 34  1  0
 16 35  1  0
 18 36  1  0
 19 37  1  0
 20 38  1  0
 21 39  1  0
M  END
$$$$
