
     RDKit          3D

 57 61  0  0  0  0  0  0  0  0999 V2000
   -6.9072   -0.4070   -1.2541 C   0  0  0  0  0  0  0  0  0  0  0  0
   -5.4489   -0.6509   -1.1385 C   0  0  0  0  0  0  0  0  0  0  0  0
   -4.7573   -1.1601   -2.2157 C   0  0  0  0  0  0  0  0  0  0  0  0
   -3.3869   -1.3802   -2.0784 C   0  0  0  0  0  0  0  0  0  0  0  0
   -2.7162   -1.0992   -0.8920 C   0  0  0  0  0  0  0  0  0  0  0  0
   -1.2888   -1.3266   -0.7257 C   0  0  0  0  0  0  0  0  0  0  0  0
   -0.9186   -2.4484   -0.3128 O   0  0  0  0  0  0  0  0  0  0  0  0
   -0.3035   -0.3480   -1.0059 N   0  0  0  0  0  0  0  0  0  0  0  0
   -0.6621    0.9715   -1.4852 C   0  0  0  0  0  0  0  0  0  0  0  0
    0.3873    1.5876   -2.3809 C   0  0  0  0  0  0  0  0  0  0  0  0
    1.6861    1.3440   -1.9591 O   0  0  0  0  0  0  0  0  0  0  0  0
    1.8595   -0.0513   -1.9751 C   0  0  0  0  0  0  0  0  0  0  0  0
    1.1020   -0.6360   -0.8200 C   0  0  1  0  0  0  0  0  0  0  0  0
    1.5985   -0.1058    0.5123 C   0  0  0  0  0  0  0  0  0  0  0  0
    3.0434   -0.4052    0.6998 C   0  0  0  0  0  0  0  0  0  0  0  0
    4.0116    0.5641    0.5492 C   0  0  0  0  0  0  0  0  0  0  0  0
    5.3497    0.3173    0.7143 C   0  0  0  0  0  0  0  0  0  0  0  0
    6.3370    1.3759    0.5432 C   0  0  0  0  0  0  0  0  0  0  0  0
    7.2920    1.3936   -0.4025 N   0  0  0  0  0  0  0  0  0  0  0  0
    7.9931    2.5233   -0.2309 C   0  0  0  0  0  0  0  0  0  0  0  0
    7.5076    3.1947    0.7775 O   0  0  0  0  0  0  0  0  0  0  0  0
    6.5147    2.5066    1.2416 N   0  0  0  0  0  0  0  0  0  0  0  0
    5.7216   -0.9807    1.0496 C   0  0  0  0  0  0  0  0  0  0  0  0
    4.7566   -1.9509    1.2006 C   0  0  0  0  0  0  0  0  0  0  0  0
    3.4159   -1.7084    1.0362 C   0  0  0  0  0  0  0  0  0  0  0  0
    2.4826   -2.6871    1.1917 F   0  0  0  0  0  0  0  0  0  0  0  0
   -3.4263   -0.5920    0.1687 C   0  0  0  0  0  0  0  0  0  0  0  0
   -2.7743   -0.2848    1.4095 N   0  0  0  0  0  0  0  0  0  0  0  0
   -2.2983    0.9115    1.6931 N   0  0  0  0  0  0  0  0  0  0  0  0
   -1.7498    0.8939    2.9113 C   0  0  0  0  0  0  0  0  0  0  0  0
   -1.9072   -0.3881    3.3835 C   0  0  0  0  0  0  0  0  0  0  0  0
   -2.5413   -1.0700    2.4238 N   0  0  0  0  0  0  0  0  0  0  0  0
   -4.7805   -0.3676    0.0529 C   0  0  0  0  0  0  0  0  0  0  0  0
   -5.5478    0.1781    1.1928 C   0  0  0  0  0  0  0  0  0  0  0  0
   -7.3862   -0.7538   -0.3151 H   0  0  0  0  0  0  0  0  0  0  0  0
   -7.3468   -0.8530   -2.1441 H   0  0  0  0  0  0  0  0  0  0  0  0
   -7.0313    0.7095   -1.3223 H   0  0  0  0  0  0  0  0  0  0  0  0
   -5.2644   -1.3905   -3.1640 H   0  0  0  0  0  0  0  0  0  0  0  0
   -2.8384   -1.7813   -2.9253 H   0  0  0  0  0  0  0  0  0  0  0  0
   -0.8101    1.6211   -0.5833 H   0  0  0  0  0  0  0  0  0  0  0  0
   -1.5953    0.8953   -2.0805 H   0  0  0  0  0  0  0  0  0  0  0  0
    0.2240    1.2318   -3.4281 H   0  0  0  0  0  0  0  0  0  0  0  0
    0.2392    2.6905   -2.3193 H   0  0  0  0  0  0  0  0  0  0  0  0
    2.9240   -0.3424   -2.0003 H   0  0  0  0  0  0  0  0  0  0  0  0
    1.3316   -0.3927   -2.9050 H   0  0  0  0  0  0  0  0  0  0  0  0
    1.2510   -1.7432   -0.7962 H   0  0  0  0  0  0  0  0  0  0  0  0
    1.4339    0.9916    0.5987 H   0  0  0  0  0  0  0  0  0  0  0  0
    1.0613   -0.5788    1.3532 H   0  0  0  0  0  0  0  0  0  0  0  0
    3.7116    1.5802    0.2860 H   0  0  0  0  0  0  0  0  0  0  0  0
    8.8344    2.7939   -0.8664 H   0  0  0  0  0  0  0  0  0  0  0  0
    6.7555   -1.2187    1.1882 H   0  0  0  0  0  0  0  0  0  0  0  0
    5.0304   -2.9775    1.4641 H   0  0  0  0  0  0  0  0  0  0  0  0
   -1.2656    1.6923    3.4665 H   0  0  0  0  0  0  0  0  0  0  0  0
   -1.5615   -0.7237    4.3585 H   0  0  0  0  0  0  0  0  0  0  0  0
   -6.0467    1.1364    0.9523 H   0  0  0  0  0  0  0  0  0  0  0  0
   -6.3666   -0.5407    1.4362 H   0  0  0  0  0  0  0  0  0  0  0  0
   -4.9279    0.2400    2.1078 H   0  0  0  0  0  0  0  0  0  0  0  0
  1  2  1  0
  2  3  2  0
  3  4  1  0
  4  5  2  0
  5  6  1  0
  6  7  2  0
  6  8  1  0
  8  9  1  0
  9 10  1  0
 10 11  1  0
 11 12  1  0
 12 13  1  0
 13 14  1  0
 14 15  1  0
 15 16  2  0
 16 17  1  0
 17 18  1  0
 18 19  1  0
 19 20  2  0
 20 21  1  0
 21 22  1  0
 17 23  2  0
 23 24  1  0
 24 25  2  0
 25 26  1  0
  5 27  1  0
 27 28  1  0
 28 29  1  0
 29 30  2  0
 30 31  1  0
 31 32  2  0
 27 33  2  0
 33 34  1  0
 33  2  1  0
 13  8  1  0
 25 15  1  0
 32 28  1  0
 22 18  2  0
  1 35  1  0
  1 36  1  0
  1 37  1  0
  3 38  1  0
  4 39  1  0
  9 40  1  0
  9 41  1  0
 10 42  1  0
 10 43  1  0
 12 44  1  0
 12 45  1  0
 13 46  1  1
 14 47  1  0
 14 48  1  0
 16 49  1  0
 20 50  1  0
 23 51  1  0
 24 52  1  0
 30 53  1  0
 31 54  1  0
 34 55  1  0
 34 56  1  0
 34 57  1  0
M  END
$$$$
