
     RDKit          3D

 61 64  0  0  0  0  0  0  0  0999 V2000
   -7.7617    1.1386   -1.4358 C   0  0  0  0  0  0  0  0  0  0  0  0
   -6.6460    0.6485   -0.5274 C   0  0  0  0  0  0  0  0  0  0  0  0
   -5.3840    1.3411   -0.9096 C   0  0  1  0  0  0  0  0  0  0  0  0
   -4.2695    0.9801   -0.1510 O   0  0  0  0  0  0  0  0  0  0  0  0
   -3.5709   -0.1960   -0.1942 C   0  0  0  0  0  0  0  0  0  0  0  0
   -3.8682   -1.2646   -1.0060 C   0  0  0  0  0  0  0  0  0  0  0  0
   -3.1041   -2.4185   -0.9848 C   0  0  0  0  0  0  0  0  0  0  0  0
   -2.0234   -2.5411   -0.1551 C   0  0  0  0  0  0  0  0  0  0  0  0
   -1.6950   -1.4886    0.6741 C   0  0  0  0  0  0  0  0  0  0  0  0
   -0.5186   -1.6739    1.5522 C   0  0  0  0  0  0  0  0  0  0  0  0
    0.7198   -1.1941    0.9948 N   0  0  0  0  0  0  0  0  0  0  0  0
    1.5743   -1.8809    0.2343 C   0  0  0  0  0  0  0  0  0  0  0  0
    1.4141   -3.3043   -0.1970 C   0  0  0  0  0  0  0  0  0  0  0  0
    2.6601   -1.0472   -0.0942 C   0  0  0  0  0  0  0  0  0  0  0  0
    3.7615   -1.4439   -0.9284 C   0  0  0  0  0  0  0  0  0  0  0  0
    3.5162   -2.4004   -1.7735 O   0  0  0  0  0  0  0  0  0  0  0  0
    5.1060   -0.9411   -0.9666 C   0  0  0  0  0  0  0  0  0  0  0  0
    5.7816   -0.9377   -2.1941 C   0  0  0  0  0  0  0  0  0  0  0  0
    7.0803   -0.5242   -2.3316 C   0  0  0  0  0  0  0  0  0  0  0  0
    7.7746   -0.0869   -1.2260 C   0  0  0  0  0  0  0  0  0  0  0  0
    9.4371    0.4459   -1.3930 Cl  0  0  0  0  0  0  0  0  0  0  0  0
    7.1114   -0.0887   -0.0124 C   0  0  0  0  0  0  0  0  0  0  0  0
    5.8117   -0.5031    0.1225 C   0  0  0  0  0  0  0  0  0  0  0  0
    2.3927    0.1570    0.5113 C   0  0  0  0  0  0  0  0  0  0  0  0
    3.0463    1.3730    0.5619 C   0  0  0  0  0  0  0  0  0  0  0  0
    2.5812    2.4821    1.2385 C   0  0  0  0  0  0  0  0  0  0  0  0
    1.3697    2.3518    1.9100 C   0  0  0  0  0  0  0  0  0  0  0  0
    0.9199    3.4679    2.5814 O   0  0  0  0  0  0  0  0  0  0  0  0
    1.2504    3.7349    3.9349 C   0  0  0  0  0  0  0  0  0  0  0  0
    0.6717    4.9140    4.3627 F   0  0  0  0  0  0  0  0  0  0  0  0
    2.6201    3.8486    4.1214 F   0  0  0  0  0  0  0  0  0  0  0  0
    0.8345    2.6736    4.7436 F   0  0  0  0  0  0  0  0  0  0  0  0
    0.6921    1.1562    1.8785 C   0  0  0  0  0  0  0  0  0  0  0  0
    1.1788    0.0676    1.1952 C   0  0  0  0  0  0  0  0  0  0  0  0
   -2.4531   -0.3561    0.6464 C   0  0  0  0  0  0  0  0  0  0  0  0
   -5.1084    1.3036   -2.3704 C   0  0  0  0  0  0  0  0  0  0  0  0
   -6.0060    1.5139   -3.2135 O   0  0  0  0  0  0  0  0  0  0  0  0
   -3.8266    1.0321   -2.8005 O   0  0  0  0  0  0  0  0  0  0  0  0
   -8.7118    1.0068   -0.8410 H   0  0  0  0  0  0  0  0  0  0  0  0
   -7.6786    2.1976   -1.6793 H   0  0  0  0  0  0  0  0  0  0  0  0
   -7.8762    0.4637   -2.3042 H   0  0  0  0  0  0  0  0  0  0  0  0
   -6.9134    1.0134    0.5077 H   0  0  0  0  0  0  0  0  0  0  0  0
   -6.6371   -0.4357   -0.5667 H   0  0  0  0  0  0  0  0  0  0  0  0
   -5.5857    2.4559   -0.6652 H   0  0  0  0  0  0  0  0  0  0  0  0
   -4.7330   -1.2043   -1.6809 H   0  0  0  0  0  0  0  0  0  0  0  0
   -3.3791   -3.2487   -1.6521 H   0  0  0  0  0  0  0  0  0  0  0  0
   -1.4445   -3.4780   -0.1668 H   0  0  0  0  0  0  0  0  0  0  0  0
   -0.4536   -2.7435    1.8296 H   0  0  0  0  0  0  0  0  0  0  0  0
   -0.7673   -1.1199    2.5060 H   0  0  0  0  0  0  0  0  0  0  0  0
    2.4085   -3.8204   -0.2248 H   0  0  0  0  0  0  0  0  0  0  0  0
    0.8129   -3.8742    0.5452 H   0  0  0  0  0  0  0  0  0  0  0  0
    0.8868   -3.3767   -1.1615 H   0  0  0  0  0  0  0  0  0  0  0  0
    5.2170   -1.2901   -3.0744 H   0  0  0  0  0  0  0  0  0  0  0  0
    7.5574   -0.5430   -3.3138 H   0  0  0  0  0  0  0  0  0  0  0  0
    7.7030    0.2666    0.8379 H   0  0  0  0  0  0  0  0  0  0  0  0
    5.3463   -0.4852    1.0823 H   0  0  0  0  0  0  0  0  0  0  0  0
    3.9776    1.4921    0.0224 H   0  0  0  0  0  0  0  0  0  0  0  0
    3.1282    3.4207    1.2534 H   0  0  0  0  0  0  0  0  0  0  0  0
   -0.2359    1.0747    2.4076 H   0  0  0  0  0  0  0  0  0  0  0  0
   -2.2138    0.4712    1.2850 H   0  0  0  0  0  0  0  0  0  0  0  0
   -3.4782    1.4179   -3.6912 H   0  0  0  0  0  0  0  0  0  0  0  0
  1  2  1  0
  2  3  1  0
  3  4  1  0
  4  5  1  0
  5  6  2  0
  6  7  1  0
  7  8  2  0
  8  9  1  0
  9 10  1  0
 10 11  1  0
 11 12  1  0
 12 13  1  0
 12 14  2  0
 14 15  1  0
 15 16  2  0
 15 17  1  0
 17 18  2  0
 18 19  1  0
 19 20  2  0
 20 21  1  0
 20 22  1  0
 22 23  2  0
 14 24  1  0
 24 25  2  0
 25 26  1  0
 26 27  2  0
 27 28  1  0
 28 29  1  0
 29 30  1  0
 29 31  1  0
 29 32  1  0
 27 33  1  0
 33 34  2  0
  9 35  2  0
  3 36  1  0
 36 37  2  0
 36 38  1  0
 35  5  1  0
 34 11  1  0
 23 17  1  0
 34 24  1  0
  1 39  1  0
  1 40  1  0
  1 41  1  0
  2 42  1  0
  2 43  1  0
  3 44  1  1
  6 45  1  0
  7 46  1  0
  8 47  1  0
 10 48  1  0
 10 49  1  0
 13 50  1  0
 13 51  1  0
 13 52  1  0
 18 53  1  0
 19 54  1  0
 22 55  1  0
 23 56  1  0
 25 57  1  0
 26 58  1  0
 33 59  1  0
 35 60  1  0
 38 61  1  0
M  END
$$$$
