
     RDKit          3D

 39 41  0  0  0  0  0  0  0  0999 V2000
   -1.6913    4.1823    0.0680 C   0  0  0  0  0  0  0  0  0  0  0  0
   -1.1556    2.8364    0.4118 C   0  0  0  0  0  0  0  0  0  0  0  0
   -0.0470    2.9126    0.9680 O   0  0  0  0  0  0  0  0  0  0  0  0
   -1.9082    1.5616    0.1006 C   0  0  0  0  0  0  0  0  0  0  0  0
   -1.1387    0.3788    0.5338 C   0  0  0  0  0  0  0  0  0  0  0  0
   -1.8956   -0.8632    0.2318 C   0  0  0  0  0  0  0  0  0  0  0  0
   -2.0970   -1.8947    1.1262 C   0  0  0  0  0  0  0  0  0  0  0  0
   -2.7916   -3.0420    0.8551 C   0  0  0  0  0  0  0  0  0  0  0  0
   -3.3481   -3.2086   -0.4088 C   0  0  0  0  0  0  0  0  0  0  0  0
   -3.1614   -2.1919   -1.3214 C   0  0  0  0  0  0  0  0  0  0  0  0
   -2.4529   -1.0386   -1.0218 C   0  0  0  0  0  0  0  0  0  0  0  0
    0.2656    0.3017    0.1327 C   0  0  0  0  0  0  0  0  0  0  0  0
    1.2692   -0.3564    0.8130 C   0  0  0  0  0  0  0  0  0  0  0  0
    0.9353   -1.0017    1.9924 O   0  0  0  0  0  0  0  0  0  0  0  0
    2.5669   -0.3711    0.3327 C   0  0  0  0  0  0  0  0  0  0  0  0
    2.8057    0.3030   -0.8565 C   0  0  0  0  0  0  0  0  0  0  0  0
    1.8265    0.9215   -1.4822 O   0  0  0  0  0  0  0  0  0  0  0  0
    0.5783    0.9462   -1.0375 C   0  0  0  0  0  0  0  0  0  0  0  0
   -0.1468    1.6019   -1.8239 O   0  0  0  0  0  0  0  0  0  0  0  0
    4.0996    0.2841   -1.3276 C   0  0  0  0  0  0  0  0  0  0  0  0
    5.1209   -0.3643   -0.6689 C   0  0  0  0  0  0  0  0  0  0  0  0
    4.8357   -1.0199    0.5079 C   0  0  0  0  0  0  0  0  0  0  0  0
    3.5592   -1.0411    1.0376 C   0  0  0  0  0  0  0  0  0  0  0  0
   -2.1698    4.6732    0.9488 H   0  0  0  0  0  0  0  0  0  0  0  0
   -2.4853    4.0878   -0.7005 H   0  0  0  0  0  0  0  0  0  0  0  0
   -0.8763    4.8809   -0.2590 H   0  0  0  0  0  0  0  0  0  0  0  0
   -2.8119    1.6274    0.7631 H   0  0  0  0  0  0  0  0  0  0  0  0
   -2.3087    1.5486   -0.9126 H   0  0  0  0  0  0  0  0  0  0  0  0
   -1.1169    0.4385    1.6677 H   0  0  0  0  0  0  0  0  0  0  0  0
   -1.6817   -1.8039    2.1203 H   0  0  0  0  0  0  0  0  0  0  0  0
   -2.9226   -3.8240    1.5906 H   0  0  0  0  0  0  0  0  0  0  0  0
   -3.8893   -4.1273   -0.5843 H   0  0  0  0  0  0  0  0  0  0  0  0
   -3.6125   -2.3566   -2.3050 H   0  0  0  0  0  0  0  0  0  0  0  0
   -2.3736   -0.3121   -1.8198 H   0  0  0  0  0  0  0  0  0  0  0  0
    0.9548   -2.0205    1.9556 H   0  0  0  0  0  0  0  0  0  0  0  0
    4.2848    0.8098   -2.2544 H   0  0  0  0  0  0  0  0  0  0  0  0
    6.1263   -0.3643   -1.0585 H   0  0  0  0  0  0  0  0  0  0  0  0
    5.5722   -1.5534    1.0913 H   0  0  0  0  0  0  0  0  0  0  0  0
    3.2819   -1.5408    1.9582 H   0  0  0  0  0  0  0  0  0  0  0  0
  1  2  1  0
  2  3  2  0
  2  4  1  0
  4  5  1  0
  5  6  1  0
  6  7  2  0
  7  8  1  0
  8  9  2  0
  9 10  1  0
 10 11  2  0
  5 12  1  0
 12 13  2  0
 13 14  1  0
 13 15  1  0
 15 16  2  0
 16 17  1  0
 17 18  1  0
 18 19  2  0
 16 20  1  0
 20 21  2  0
 21 22  1  0
 22 23  2  0
 11  6  1  0
 18 12  1  0
 23 15  1  0
  1 24  1  0
  1 25  1  0
  1 26  1  0
  4 27  1  0
  4 28  1  0
  5 29  1  0
  7 30  1  0
  8 31  1  0
  9 32  1  0
 10 33  1  0
 11 34  1  0
 14 35  1  0
 20 36  1  0
 21 37  1  0
 22 38  1  0
 23 39  1  0
M  END
$$$$
