
     RDKit          3D

 32 34  0  0  0  0  0  0  0  0999 V2000
   -1.0851   -2.6087    3.5911 N   0  0  0  0  0  0  0  0  0  0  0  0
   -1.0483   -2.0080    2.5947 C   0  0  0  0  0  0  0  0  0  0  0  0
   -0.9974   -1.2443    1.3756 C   0  0  0  0  0  0  0  0  0  0  0  0
    0.1677   -0.8330    0.8583 N   0  0  0  0  0  0  0  0  0  0  0  0
    0.3423   -0.1312   -0.2500 C   0  0  0  0  0  0  0  0  0  0  0  0
    1.5417    0.3111   -0.8084 N   0  0  0  0  0  0  0  0  0  0  0  0
    2.8352    0.0423   -0.2576 C   0  0  0  0  0  0  0  0  0  0  0  0
    3.0973   -0.9016    0.6832 C   0  0  0  0  0  0  0  0  0  0  0  0
    4.3667   -1.0925    1.1785 C   0  0  0  0  0  0  0  0  0  0  0  0
    4.6281   -2.0480    2.1309 F   0  0  0  0  0  0  0  0  0  0  0  0
    5.4074   -0.3264    0.7285 C   0  0  0  0  0  0  0  0  0  0  0  0
    5.1549    0.6303   -0.2224 C   0  0  0  0  0  0  0  0  0  0  0  0
    6.1479    1.4250   -0.7111 F   0  0  0  0  0  0  0  0  0  0  0  0
    3.9033    0.8222   -0.7138 C   0  0  0  0  0  0  0  0  0  0  0  0
   -0.8318    0.2135   -0.9510 C   0  0  0  0  0  0  0  0  0  0  0  0
   -1.0711    0.8974   -2.0825 N   0  0  0  0  0  0  0  0  0  0  0  0
   -2.4020    0.9089   -2.2666 C   0  0  0  0  0  0  0  0  0  0  0  0
   -3.0119    0.2502   -1.2814 N   0  0  0  0  0  0  0  0  0  0  0  0
   -4.4314    0.0308   -1.1027 C   0  0  0  0  0  0  0  0  0  0  0  0
   -4.9737    1.1919   -0.2852 C   0  0  0  0  0  0  0  0  0  0  0  0
   -4.7686    2.3978   -0.9282 F   0  0  0  0  0  0  0  0  0  0  0  0
   -4.2872    1.2275    0.8948 F   0  0  0  0  0  0  0  0  0  0  0  0
   -2.0408   -0.1978   -0.4391 C   0  0  0  0  0  0  0  0  0  0  0  0
   -2.1351   -0.9168    0.7071 N   0  0  0  0  0  0  0  0  0  0  0  0
    1.5224    0.8851   -1.7040 H   0  0  0  0  0  0  0  0  0  0  0  0
    2.2965   -1.5449    1.0674 H   0  0  0  0  0  0  0  0  0  0  0  0
    6.4155   -0.4379    1.0850 H   0  0  0  0  0  0  0  0  0  0  0  0
    3.7168    1.5770   -1.4600 H   0  0  0  0  0  0  0  0  0  0  0  0
   -2.9220    1.3915   -3.1089 H   0  0  0  0  0  0  0  0  0  0  0  0
   -4.8802   -0.0244   -2.1101 H   0  0  0  0  0  0  0  0  0  0  0  0
   -4.5985   -0.8942   -0.5387 H   0  0  0  0  0  0  0  0  0  0  0  0
   -6.0586    1.0071   -0.1627 H   0  0  0  0  0  0  0  0  0  0  0  0
  1  2  3  0
  2  3  1  0
  3  4  2  0
  4  5  1  0
  5  6  1  0
  6  7  1  0
  7  8  2  0
  8  9  1  0
  9 10  1  0
  9 11  2  0
 11 12  1  0
 12 13  1  0
 12 14  2  0
  5 15  2  0
 15 16  1  0
 16 17  2  0
 17 18  1  0
 18 19  1  0
 19 20  1  0
 20 21  1  0
 20 22  1  0
 18 23  1  0
 23 24  2  0
 24  3  1  0
 14  7  1  0
 23 15  1  0
  6 25  1  0
  8 26  1  0
 11 27  1  0
 14 28  1  0
 17 29  1  0
 19 30  1  0
 19 31  1  0
 20 32  1  0
M  END
$$$$
