
     RDKit          3D

 69 72  0  0  0  0  0  0  0  0999 V2000
    6.8792   -1.5655    3.5926 C   0  0  0  0  0  0  0  0  0  0  0  0
    5.8425   -1.9361    2.6071 C   0  0  0  0  0  0  0  0  0  0  0  0
    5.2344   -1.0186    1.7746 C   0  0  0  0  0  0  0  0  0  0  0  0
    4.2697   -1.3923    0.8615 C   0  0  0  0  0  0  0  0  0  0  0  0
    3.6602   -0.3920   -0.0021 C   0  0  0  0  0  0  0  0  0  0  0  0
    4.0377    0.8288    0.0926 O   0  0  0  0  0  0  0  0  0  0  0  0
    2.6545   -0.6846   -0.9644 N   0  0  0  0  0  0  0  0  0  0  0  0
    2.0893    0.3067   -1.7660 C   0  0  0  0  0  0  0  0  0  0  0  0
    2.8328    0.7396   -2.8376 N   0  0  0  0  0  0  0  0  0  0  0  0
    2.1541    1.6613   -3.4766 C   0  0  0  0  0  0  0  0  0  0  0  0
    2.4855    2.3889   -4.6079 C   0  0  0  0  0  0  0  0  0  0  0  0
    1.6127    3.3072   -5.0980 C   0  0  0  0  0  0  0  0  0  0  0  0
    0.4312    3.4756   -4.4449 C   0  0  0  0  0  0  0  0  0  0  0  0
    0.0720    2.7482   -3.2932 C   0  0  0  0  0  0  0  0  0  0  0  0
   -1.2134    3.0073   -2.6334 C   0  0  0  0  0  0  0  0  0  0  0  0
    0.9468    1.8186   -2.7936 C   0  0  0  0  0  0  0  0  0  0  0  0
    0.9293    0.9587   -1.7294 N   0  0  0  0  0  0  0  0  0  0  0  0
   -0.1375    0.7650   -0.8242 C   0  0  2  0  0  0  0  0  0  0  0  0
   -0.1782    1.4033    0.4888 C   0  0  0  0  0  0  0  0  0  0  0  0
    0.8764    1.2534    1.4941 C   0  0  0  0  0  0  0  0  0  0  0  0
    1.0116   -0.0159    2.2340 C   0  0  0  0  0  0  0  0  0  0  0  0
    0.4618   -1.2450    1.6583 C   0  0  0  0  0  0  0  0  0  0  0  0
   -0.6538   -1.0759    0.7560 N   0  0  0  0  0  0  0  0  0  0  0  0
   -1.9660   -1.2629    1.2520 C   0  0  0  0  0  0  0  0  0  0  0  0
   -2.0249   -1.5824    2.4928 O   0  0  0  0  0  0  0  0  0  0  0  0
   -3.1983   -1.1360    0.5358 C   0  0  0  0  0  0  0  0  0  0  0  0
   -4.3620   -1.3453    1.1421 C   0  0  0  0  0  0  0  0  0  0  0  0
   -5.6589   -1.2276    0.4477 C   0  0  0  0  0  0  0  0  0  0  0  0
   -6.5134   -0.2192    1.0367 N   0  0  0  0  0  0  0  0  0  0  0  0
   -5.9851    1.1154    0.8269 C   0  0  0  0  0  0  0  0  0  0  0  0
   -7.8609   -0.2800    0.5287 C   0  0  0  0  0  0  0  0  0  0  0  0
   -0.5167   -0.7321   -0.6327 C   0  0  0  0  0  0  0  0  0  0  0  0
    3.9419   -2.7223    0.8195 C   0  0  0  0  0  0  0  0  0  0  0  0
    4.5443   -3.6666    1.6524 C   0  0  0  0  0  0  0  0  0  0  0  0
    5.4780   -3.2240    2.5180 N   0  0  0  0  0  0  0  0  0  0  0  0
    6.4343   -1.0928    4.5010 H   0  0  0  0  0  0  0  0  0  0  0  0
    7.4812   -2.4541    3.8771 H   0  0  0  0  0  0  0  0  0  0  0  0
    7.6170   -0.8534    3.1313 H   0  0  0  0  0  0  0  0  0  0  0  0
    5.5598    0.0293    1.8764 H   0  0  0  0  0  0  0  0  0  0  0  0
    2.3913   -1.6736   -1.0474 H   0  0  0  0  0  0  0  0  0  0  0  0
    3.4423    2.2121   -5.0873 H   0  0  0  0  0  0  0  0  0  0  0  0
    1.8462    3.8836   -5.9744 H   0  0  0  0  0  0  0  0  0  0  0  0
   -0.3047    4.1855   -4.7829 H   0  0  0  0  0  0  0  0  0  0  0  0
   -2.0492    2.3432   -2.9226 H   0  0  0  0  0  0  0  0  0  0  0  0
   -1.1713    3.3383   -1.5930 H   0  0  0  0  0  0  0  0  0  0  0  0
   -1.5920    3.9916   -3.1132 H   0  0  0  0  0  0  0  0  0  0  0  0
   -1.1387    1.1112   -1.2900 H   0  0  0  0  0  0  0  0  0  0  0  0
   -0.5065    2.5014    0.4467 H   0  0  0  0  0  0  0  0  0  0  0  0
   -1.1161    0.9941    1.0043 H   0  0  0  0  0  0  0  0  0  0  0  0
    0.5934    2.0176    2.3183 H   0  0  0  0  0  0  0  0  0  0  0  0
    1.8344    1.7306    1.1565 H   0  0  0  0  0  0  0  0  0  0  0  0
    0.6285    0.0523    3.3027 H   0  0  0  0  0  0  0  0  0  0  0  0
    2.1190   -0.1814    2.4158 H   0  0  0  0  0  0  0  0  0  0  0  0
    1.2098   -1.8701    1.1238 H   0  0  0  0  0  0  0  0  0  0  0  0
    0.0763   -1.9421    2.4637 H   0  0  0  0  0  0  0  0  0  0  0  0
   -3.2754   -0.8688   -0.5037 H   0  0  0  0  0  0  0  0  0  0  0  0
   -4.3432   -1.6115    2.1841 H   0  0  0  0  0  0  0  0  0  0  0  0
   -5.5381   -0.9615   -0.6201 H   0  0  0  0  0  0  0  0  0  0  0  0
   -6.2243   -2.1831    0.4751 H   0  0  0  0  0  0  0  0  0  0  0  0
   -6.3059    1.4161   -0.2026 H   0  0  0  0  0  0  0  0  0  0  0  0
   -6.4928    1.8202    1.5170 H   0  0  0  0  0  0  0  0  0  0  0  0
   -4.8976    1.1641    0.9681 H   0  0  0  0  0  0  0  0  0  0  0  0
   -8.4063   -1.1868    0.8620 H   0  0  0  0  0  0  0  0  0  0  0  0
   -7.8675   -0.2013   -0.5868 H   0  0  0  0  0  0  0  0  0  0  0  0
   -8.4080    0.5975    0.9646 H   0  0  0  0  0  0  0  0  0  0  0  0
   -1.4687   -0.9726   -1.2069 H   0  0  0  0  0  0  0  0  0  0  0  0
    0.2085   -1.3962   -1.1240 H   0  0  0  0  0  0  0  0  0  0  0  0
    3.2034   -3.0941    0.1399 H   0  0  0  0  0  0  0  0  0  0  0  0
    4.2841   -4.7203    1.6183 H   0  0  0  0  0  0  0  0  0  0  0  0
  1  2  1  0
  2  3  2  0
  3  4  1  0
  4  5  1  0
  5  6  2  0
  5  7  1  0
  7  8  1  0
  8  9  2  0
  9 10  1  0
 10 11  2  0
 11 12  1  0
 12 13  2  0
 13 14  1  0
 14 15  1  0
 14 16  2  0
 16 17  1  0
 17 18  1  0
 18 19  1  0
 19 20  1  0
 20 21  1  0
 21 22  1  0
 22 23  1  0
 23 24  1  0
 24 25  2  0
 24 26  1  0
 26 27  2  0
 27 28  1  0
 28 29  1  0
 29 30  1  0
 29 31  1  0
 23 32  1  0
  4 33  2  0
 33 34  1  0
 34 35  2  0
 35  2  1  0
 17  8  1  0
 32 18  1  0
 16 10  1  0
  1 36  1  0
  1 37  1  0
  1 38  1  0
  3 39  1  0
  7 40  1  0
 11 41  1  0
 12 42  1  0
 13 43  1  0
 15 44  1  0
 15 45  1  0
 15 46  1  0
 18 47  1  6
 19 48  1  0
 19 49  1  0
 20 50  1  0
 20 51  1  0
 21 52  1  0
 21 53  1  0
 22 54  1  0
 22 55  1  0
 26 56  1  0
 27 57  1  0
 28 58  1  0
 28 59  1  0
 30 60  1  0
 30 61  1  0
 30 62  1  0
 31 63  1  0
 31 64  1  0
 31 65  1  0
 32 66  1  0
 32 67  1  0
 33 68  1  0
 34 69  1  0
M  END
$$$$
