
     RDKit          3D

 45 47  0  0  0  0  0  0  0  0999 V2000
    8.4754    0.2756    0.9444 C   0  0  0  0  0  0  0  0  0  0  0  0
    7.0222    0.2616    0.6825 C   0  0  0  0  0  0  0  0  0  0  0  0
    6.4516   -0.6324   -0.1959 C   0  0  0  0  0  0  0  0  0  0  0  0
    5.1077   -0.6674   -0.4584 C   0  0  0  0  0  0  0  0  0  0  0  0
    4.2224    0.2271    0.1691 C   0  0  0  0  0  0  0  0  0  0  0  0
    2.8523    0.1276   -0.1430 N   0  0  0  0  0  0  0  0  0  0  0  0
    2.4288   -0.9735   -1.0243 C   0  0  0  0  0  0  0  0  0  0  0  0
    1.8748    0.9863    0.3290 C   0  0  0  0  0  0  0  0  0  0  0  0
    2.0902    1.9504    1.0931 O   0  0  0  0  0  0  0  0  0  0  0  0
    0.4857    0.7822   -0.0725 C   0  0  0  0  0  0  0  0  0  0  0  0
   -0.1168    0.7898   -1.2607 C   0  0  0  0  0  0  0  0  0  0  0  0
   -1.4419    0.5677   -1.3570 C   0  0  0  0  0  0  0  0  0  0  0  0
   -2.1391    0.3373   -0.2089 C   0  0  0  0  0  0  0  0  0  0  0  0
   -3.5349    0.0665    0.0860 C   0  0  0  0  0  0  0  0  0  0  0  0
   -3.9832   -0.1218    1.3793 C   0  0  0  0  0  0  0  0  0  0  0  0
   -5.2973   -0.3823    1.6877 C   0  0  0  0  0  0  0  0  0  0  0  0
   -6.2321   -0.4644    0.6746 C   0  0  0  0  0  0  0  0  0  0  0  0
   -7.6774   -0.7439    0.9307 C   0  0  0  0  0  0  0  0  0  0  0  0
   -5.7903   -0.2775   -0.6182 C   0  0  0  0  0  0  0  0  0  0  0  0
   -6.8183   -0.3709   -1.7084 C   0  0  0  0  0  0  0  0  0  0  0  0
   -4.4709   -0.0169   -0.9163 C   0  0  0  0  0  0  0  0  0  0  0  0
   -0.8202    0.4479    1.0532 S   0  0  0  0  0  0  0  0  0  0  0  0
    4.8014    1.1124    1.0418 C   0  0  0  0  0  0  0  0  0  0  0  0
    6.1795    1.1479    1.3107 C   0  0  0  0  0  0  0  0  0  0  0  0
    9.0257    0.9594    0.2496 H   0  0  0  0  0  0  0  0  0  0  0  0
    8.6275    0.6818    1.9619 H   0  0  0  0  0  0  0  0  0  0  0  0
    8.9030   -0.7271    0.7986 H   0  0  0  0  0  0  0  0  0  0  0  0
    7.1613   -1.3192   -0.6741 H   0  0  0  0  0  0  0  0  0  0  0  0
    4.7332   -1.4018   -1.1682 H   0  0  0  0  0  0  0  0  0  0  0  0
    1.3348   -1.1341   -0.9309 H   0  0  0  0  0  0  0  0  0  0  0  0
    2.8700   -1.9359   -0.6323 H   0  0  0  0  0  0  0  0  0  0  0  0
    2.7563   -0.7756   -2.0640 H   0  0  0  0  0  0  0  0  0  0  0  0
    0.4928    0.9840   -2.1887 H   0  0  0  0  0  0  0  0  0  0  0  0
   -2.0327    0.5552   -2.3203 H   0  0  0  0  0  0  0  0  0  0  0  0
   -3.2476   -0.0583    2.1878 H   0  0  0  0  0  0  0  0  0  0  0  0
   -5.6361   -0.5283    2.7066 H   0  0  0  0  0  0  0  0  0  0  0  0
   -8.0011   -1.6329    0.3666 H   0  0  0  0  0  0  0  0  0  0  0  0
   -8.2924    0.1604    0.6801 H   0  0  0  0  0  0  0  0  0  0  0  0
   -7.8496   -0.9441    2.0082 H   0  0  0  0  0  0  0  0  0  0  0  0
   -6.2606   -0.4934   -2.6660 H   0  0  0  0  0  0  0  0  0  0  0  0
   -7.4659   -1.2452   -1.5841 H   0  0  0  0  0  0  0  0  0  0  0  0
   -7.3613    0.5961   -1.7979 H   0  0  0  0  0  0  0  0  0  0  0  0
   -4.1524    0.1245   -1.9250 H   0  0  0  0  0  0  0  0  0  0  0  0
    4.1775    1.8177    1.5538 H   0  0  0  0  0  0  0  0  0  0  0  0
    6.5479    1.8877    2.0199 H   0  0  0  0  0  0  0  0  0  0  0  0
  1  2  1  0
  2  3  2  0
  3  4  1  0
  4  5  2  0
  5  6  1  0
  6  7  1  0
  6  8  1  0
  8  9  2  0
  8 10  1  0
 10 11  2  0
 11 12  1  0
 12 13  2  0
 13 14  1  0
 14 15  2  0
 15 16  1  0
 16 17  2  0
 17 18  1  0
 17 19  1  0
 19 20  1  0
 19 21  2  0
 13 22  1  0
  5 23  1  0
 23 24  2  0
 24  2  1  0
 22 10  1  0
 21 14  1  0
  1 25  1  0
  1 26  1  0
  1 27  1  0
  3 28  1  0
  4 29  1  0
  7 30  1  0
  7 31  1  0
  7 32  1  0
 11 33  1  0
 12 34  1  0
 15 35  1  0
 16 36  1  0
 18 37  1  0
 18 38  1  0
 18 39  1  0
 20 40  1  0
 20 41  1  0
 20 42  1  0
 21 43  1  0
 23 44  1  0
 24 45  1  0
M  END
$$$$
