
     RDKit          3D

 56 60  0  0  0  0  0  0  0  0999 V2000
   -0.5424   -0.0645    1.0085 C   0  0  0  0  0  0  0  0  0  0  0  0
   -0.9358    0.9318   -0.1748 C   0  0  2  0  0  0  0  0  0  0  0  0
    0.3468    1.6795   -0.3897 C   0  0  0  0  0  0  0  0  0  0  0  0
    1.5434    1.1618    0.1171 C   0  0  0  0  0  0  0  0  0  0  0  0
    2.7277    1.8443   -0.0956 C   0  0  0  0  0  0  0  0  0  0  0  0
    4.0012    1.3431    0.4306 C   0  0  0  0  0  0  0  0  0  0  0  0
    4.3848    0.1019    0.4434 C   0  0  0  0  0  0  0  0  0  0  0  0
    3.5102   -0.8188   -0.0897 F   0  0  0  0  0  0  0  0  0  0  0  0
    5.6277   -0.4233    0.9807 C   0  0  0  0  0  0  0  0  0  0  0  0
    6.5007    0.4491    1.5889 C   0  0  0  0  0  0  0  0  0  0  0  0
    7.7160   -0.0027    2.1177 C   0  0  0  0  0  0  0  0  0  0  0  0
    8.0165   -1.3172    2.0167 C   0  0  0  0  0  0  0  0  0  0  0  0
    9.3017   -1.8195    2.5850 C   0  0  0  0  0  0  0  0  0  0  0  0
   10.2480   -2.1779    2.9905 N   0  0  0  0  0  0  0  0  0  0  0  0
    7.1510   -2.1931    1.4117 C   0  0  0  0  0  0  0  0  0  0  0  0
    5.9642   -1.7088    0.9049 N   0  0  0  0  0  0  0  0  0  0  0  0
    2.6575    3.0185   -0.8099 C   0  0  0  0  0  0  0  0  0  0  0  0
    1.4708    3.5018   -1.2959 N   0  0  0  0  0  0  0  0  0  0  0  0
    0.3266    2.8470   -1.0911 C   0  0  0  0  0  0  0  0  0  0  0  0
   -0.8539    3.3837   -1.5781 F   0  0  0  0  0  0  0  0  0  0  0  0
   -1.8765    1.7677    0.4981 N   0  0  0  0  0  0  0  0  0  0  0  0
   -3.0143    2.0961    0.1374 C   0  0  0  0  0  0  0  0  0  0  0  0
   -3.8854    2.9563    0.9040 N   0  0  0  0  0  0  0  0  0  0  0  0
   -3.6374    1.5221   -1.4112 S   0  0  0  0  0  0  0  0  0  0  0  0
   -2.6833    0.0693   -1.8555 C   0  0  1  0  0  0  0  0  0  0  0  0
   -3.4026   -1.2235   -2.0278 C   0  0  0  0  0  0  0  0  0  0  0  0
   -3.1020   -2.0187   -2.9347 O   0  0  0  0  0  0  0  0  0  0  0  0
   -4.4851   -1.6010   -1.1433 N   0  0  0  0  0  0  0  0  0  0  0  0
   -4.9483   -0.8552   -0.0094 C   0  0  0  0  0  0  0  0  0  0  0  0
   -5.8336   -1.7687    0.7886 C   0  0  0  0  0  0  0  0  0  0  0  0
   -6.4657   -2.5855   -0.3304 C   0  0  1  0  0  0  0  0  0  0  0  0
   -7.4549   -1.8132   -0.8870 F   0  0  0  0  0  0  0  0  0  0  0  0
   -5.2882   -2.7856   -1.2950 C   0  0  0  0  0  0  0  0  0  0  0  0
   -1.4893    0.3490   -2.6906 C   0  0  0  0  0  0  0  0  0  0  0  0
   -1.3411    0.0400   -1.2540 C   0  0  1  0  0  0  0  0  0  0  0  0
   -1.4964   -0.4457    1.4138 H   0  0  0  0  0  0  0  0  0  0  0  0
   -0.0057   -0.9189    0.5968 H   0  0  0  0  0  0  0  0  0  0  0  0
   -0.0442    0.4904    1.7909 H   0  0  0  0  0  0  0  0  0  0  0  0
    1.6089    0.2567    0.6670 H   0  0  0  0  0  0  0  0  0  0  0  0
    4.6789    2.0929    0.8389 H   0  0  0  0  0  0  0  0  0  0  0  0
    6.3155    1.4936    1.7048 H   0  0  0  0  0  0  0  0  0  0  0  0
    8.4065    0.7030    2.6010 H   0  0  0  0  0  0  0  0  0  0  0  0
    7.3865   -3.2158    1.3288 H   0  0  0  0  0  0  0  0  0  0  0  0
    3.5723    3.5756   -0.9968 H   0  0  0  0  0  0  0  0  0  0  0  0
   -3.8750    3.9870    0.8118 H   0  0  0  0  0  0  0  0  0  0  0  0
   -4.5443    2.4912    1.5714 H   0  0  0  0  0  0  0  0  0  0  0  0
   -4.1225   -0.5587    0.6757 H   0  0  0  0  0  0  0  0  0  0  0  0
   -5.5316    0.0476   -0.3241 H   0  0  0  0  0  0  0  0  0  0  0  0
   -6.5955   -1.2005    1.3682 H   0  0  0  0  0  0  0  0  0  0  0  0
   -5.1916   -2.3775    1.4522 H   0  0  0  0  0  0  0  0  0  0  0  0
   -6.8258   -3.5168    0.0981 H   0  0  0  0  0  0  0  0  0  0  0  0
   -5.6994   -2.9331   -2.3129 H   0  0  0  0  0  0  0  0  0  0  0  0
   -4.7835   -3.7112   -0.9158 H   0  0  0  0  0  0  0  0  0  0  0  0
   -1.2209   -0.4516   -3.4394 H   0  0  0  0  0  0  0  0  0  0  0  0
   -1.3834    1.3459   -3.1342 H   0  0  0  0  0  0  0  0  0  0  0  0
   -0.9037   -1.0396   -1.1250 H   0  0  0  0  0  0  0  0  0  0  0  0
  2  1  1  1
  2  3  1  0
  3  4  2  0
  4  5  1  0
  5  6  1  0
  6  7  2  0
  7  8  1  0
  7  9  1  0
  9 10  2  0
 10 11  1  0
 11 12  2  0
 12 13  1  0
 13 14  3  0
 12 15  1  0
 15 16  2  0
  5 17  2  0
 17 18  1  0
 18 19  2  0
 19 20  1  0
  2 21  1  0
 21 22  2  0
 22 23  1  0
 22 24  1  0
 24 25  1  0
 25 26  1  6
 26 27  2  0
 26 28  1  0
 28 29  1  0
 29 30  1  0
 30 31  1  0
 31 32  1  0
 31 33  1  0
 25 34  1  0
 34 35  1  0
 35  2  1  0
 19  3  1  0
 35 25  1  0
 16  9  1  0
 33 28  1  0
  1 36  1  0
  1 37  1  0
  1 38  1  0
  4 39  1  0
  6 40  1  0
 10 41  1  0
 11 42  1  0
 15 43  1  0
 17 44  1  0
 23 45  1  0
 23 46  1  0
 29 47  1  0
 29 48  1  0
 30 49  1  0
 30 50  1  0
 31 51  1  1
 33 52  1  0
 33 53  1  0
 34 54  1  0
 34 55  1  0
 35 56  1  6
M  END
$$$$
