
     RDKit          3D

 54 58  0  0  0  0  0  0  0  0999 V2000
   -5.7040    1.7546    1.1168 C   0  0  0  0  0  0  0  0  0  0  0  0
   -4.9632    1.1966   -0.0439 C   0  0  0  0  0  0  0  0  0  0  0  0
   -5.6175    0.8026   -1.1912 C   0  0  0  0  0  0  0  0  0  0  0  0
   -4.9323    0.2774   -2.2870 C   0  0  0  0  0  0  0  0  0  0  0  0
   -3.5479    0.1542   -2.2032 C   0  0  0  0  0  0  0  0  0  0  0  0
   -2.8708    0.5415   -1.0657 C   0  0  0  0  0  0  0  0  0  0  0  0
   -1.4060    0.4233   -0.9472 C   0  0  0  0  0  0  0  0  0  0  0  0
   -0.7686    1.4411   -1.3380 O   0  0  0  0  0  0  0  0  0  0  0  0
   -0.7936   -0.7394   -0.4373 N   0  0  0  0  0  0  0  0  0  0  0  0
   -1.6329   -1.8426   -0.0211 C   0  0  0  0  0  0  0  0  0  0  0  0
   -1.1363   -3.0710   -0.7870 C   0  0  0  0  0  0  0  0  0  0  0  0
    0.2019   -3.2199   -0.5180 O   0  0  0  0  0  0  0  0  0  0  0  0
    0.9996   -2.1975   -1.0024 C   0  0  0  0  0  0  0  0  0  0  0  0
    0.6339   -0.8989   -0.3037 C   0  0  1  0  0  0  0  0  0  0  0  0
    1.4372    0.2427   -0.8303 C   0  0  0  0  0  0  0  0  0  0  0  0
    2.8803   -0.0940   -0.6102 C   0  0  0  0  0  0  0  0  0  0  0  0
    3.6343   -0.7672   -1.5442 C   0  0  0  0  0  0  0  0  0  0  0  0
    4.9660   -1.0819   -1.3495 C   0  0  0  0  0  0  0  0  0  0  0  0
    5.5791   -0.7051   -0.1590 C   0  0  0  0  0  0  0  0  0  0  0  0
    4.8487   -0.0333    0.7873 C   0  0  0  0  0  0  0  0  0  0  0  0
    5.4980    0.3542    2.0237 C   0  0  0  0  0  0  0  0  0  0  0  0
    6.7511    0.8745    2.0525 N   0  0  0  0  0  0  0  0  0  0  0  0
    7.0322    1.1155    3.3460 C   0  0  0  0  0  0  0  0  0  0  0  0
    5.9964    0.7559    4.0518 O   0  0  0  0  0  0  0  0  0  0  0  0
    5.0546    0.2930    3.2864 N   0  0  0  0  0  0  0  0  0  0  0  0
    3.5292    0.2688    0.5738 C   0  0  0  0  0  0  0  0  0  0  0  0
   -3.5936    1.0533   -0.0133 C   0  0  0  0  0  0  0  0  0  0  0  0
   -2.8995    1.4499    1.1517 N   0  0  0  0  0  0  0  0  0  0  0  0
   -2.8960    0.7008    2.2622 N   0  0  0  0  0  0  0  0  0  0  0  0
   -2.1787    1.2777    3.2205 C   0  0  0  0  0  0  0  0  0  0  0  0
   -1.7049    2.4596    2.6758 C   0  0  0  0  0  0  0  0  0  0  0  0
   -2.1786    2.5096    1.4091 N   0  0  0  0  0  0  0  0  0  0  0  0
   -4.9817    2.3188    1.7698 H   0  0  0  0  0  0  0  0  0  0  0  0
   -6.2307    1.0025    1.7051 H   0  0  0  0  0  0  0  0  0  0  0  0
   -6.3829    2.5475    0.7075 H   0  0  0  0  0  0  0  0  0  0  0  0
   -6.7005    0.8946   -1.2674 H   0  0  0  0  0  0  0  0  0  0  0  0
   -5.4670   -0.0248   -3.1762 H   0  0  0  0  0  0  0  0  0  0  0  0
   -3.0046   -0.2544   -3.0526 H   0  0  0  0  0  0  0  0  0  0  0  0
   -1.3877   -2.0480    1.0473 H   0  0  0  0  0  0  0  0  0  0  0  0
   -2.6994   -1.6630   -0.1888 H   0  0  0  0  0  0  0  0  0  0  0  0
   -1.3504   -2.9293   -1.8775 H   0  0  0  0  0  0  0  0  0  0  0  0
   -1.6532   -3.9846   -0.4290 H   0  0  0  0  0  0  0  0  0  0  0  0
    2.0408   -2.4326   -0.6784 H   0  0  0  0  0  0  0  0  0  0  0  0
    1.0004   -2.0911   -2.0865 H   0  0  0  0  0  0  0  0  0  0  0  0
    0.8991   -1.0161    0.7794 H   0  0  0  0  0  0  0  0  0  0  0  0
    1.2539    1.1464   -0.2167 H   0  0  0  0  0  0  0  0  0  0  0  0
    1.2872    0.4795   -1.8825 H   0  0  0  0  0  0  0  0  0  0  0  0
    3.1509   -1.0611   -2.4761 H   0  0  0  0  0  0  0  0  0  0  0  0
    5.5556   -1.6105   -2.0845 H   0  0  0  0  0  0  0  0  0  0  0  0
    6.6395   -0.9581   -0.0090 H   0  0  0  0  0  0  0  0  0  0  0  0
    7.9806    1.5378    3.6621 H   0  0  0  0  0  0  0  0  0  0  0  0
    2.9258    0.8069    1.3200 H   0  0  0  0  0  0  0  0  0  0  0  0
   -2.0098    0.8845    4.2242 H   0  0  0  0  0  0  0  0  0  0  0  0
   -1.0846    3.1586    3.2105 H   0  0  0  0  0  0  0  0  0  0  0  0
  1  2  1  0
  2  3  2  0
  3  4  1  0
  4  5  2  0
  5  6  1  0
  6  7  1  0
  7  8  2  0
  7  9  1  0
  9 10  1  0
 10 11  1  0
 11 12  1  0
 12 13  1  0
 13 14  1  0
 14 15  1  0
 15 16  1  0
 16 17  2  0
 17 18  1  0
 18 19  2  0
 19 20  1  0
 20 21  1  0
 21 22  1  0
 22 23  2  0
 23 24  1  0
 24 25  1  0
 20 26  2  0
  6 27  2  0
 27 28  1  0
 28 29  1  0
 29 30  2  0
 30 31  1  0
 31 32  2  0
 27  2  1  0
 32 28  1  0
 14  9  1  0
 26 16  1  0
 25 21  2  0
  1 33  1  0
  1 34  1  0
  1 35  1  0
  3 36  1  0
  4 37  1  0
  5 38  1  0
 10 39  1  0
 10 40  1  0
 11 41  1  0
 11 42  1  0
 13 43  1  0
 13 44  1  0
 14 45  1  1
 15 46  1  0
 15 47  1  0
 17 48  1  0
 18 49  1  0
 19 50  1  0
 23 51  1  0
 26 52  1  0
 30 53  1  0
 31 54  1  0
M  END
$$$$
