
     RDKit          3D

 43 45  0  0  0  0  0  0  0  0999 V2000
   -5.2832   -0.7858   -2.7313 N   0  0  0  0  0  0  0  0  0  0  0  0
   -4.9540   -0.7819   -1.3445 C   0  0  0  0  0  0  0  0  0  0  0  0
   -3.8407   -0.1180   -0.9839 N   0  0  0  0  0  0  0  0  0  0  0  0
   -3.5102   -0.1027    0.3322 C   0  0  0  0  0  0  0  0  0  0  0  0
   -4.3310   -0.7657    1.2207 C   0  0  0  0  0  0  0  0  0  0  0  0
   -3.7785   -0.5901    2.4235 N   0  0  0  0  0  0  0  0  0  0  0  0
   -2.6635    0.1505    2.2806 C   0  0  0  0  0  0  0  0  0  0  0  0
   -2.4712    0.4681    0.9933 N   0  0  0  0  0  0  0  0  0  0  0  0
   -1.4098    1.2435    0.3889 C   0  0  2  0  0  0  0  0  0  0  0  0
   -0.3137    0.5035    0.0155 O   0  0  0  0  0  0  0  0  0  0  0  0
    0.7594    1.3896    0.0667 C   0  0  2  0  0  0  0  0  0  0  0  0
    2.0825    0.6809   -0.0739 C   0  0  0  0  0  0  0  0  0  0  0  0
    2.1485    0.0057   -1.2911 O   0  0  0  0  0  0  0  0  0  0  0  0
    3.6189   -0.8027   -1.4872 P   0  0  0  0  0  0  0  0  0  0  0  0
    3.3566   -2.2135   -2.3545 O   0  0  0  0  0  0  0  0  0  0  0  0
    4.5570    0.0525   -2.3414 O   0  0  0  0  0  0  0  0  0  0  0  0
    4.3947   -1.0645   -0.0300 O   0  0  0  0  0  0  0  0  0  0  0  0
    6.0491   -1.3002   -0.2022 P   0  0  0  0  0  0  0  0  0  0  0  0
    6.8127   -0.4222    1.0486 O   0  0  0  0  0  0  0  0  0  0  0  0
    6.6263   -0.7131   -1.6668 O   0  0  0  0  0  0  0  0  0  0  0  0
    6.4638   -2.7330   -0.0450 O   0  0  0  0  0  0  0  0  0  0  0  0
    0.5653    1.9497    1.4599 C   0  0  1  0  0  0  0  0  0  0  0  0
    1.3393    3.0502    1.7323 O   0  0  0  0  0  0  0  0  0  0  0  0
   -0.9259    2.3001    1.3700 C   0  0  1  0  0  0  0  0  0  0  0  0
   -0.9675    3.5656    0.7762 O   0  0  0  0  0  0  0  0  0  0  0  0
   -5.4693   -1.4398    0.8211 C   0  0  0  0  0  0  0  0  0  0  0  0
   -6.1971   -2.0383    1.6801 O   0  0  0  0  0  0  0  0  0  0  0  0
   -5.7727   -1.4367   -0.5014 N   0  0  0  0  0  0  0  0  0  0  0  0
   -5.8195   -0.2510   -3.4421 H   0  0  0  0  0  0  0  0  0  0  0  0
   -4.7748   -1.6445   -3.0632 H   0  0  0  0  0  0  0  0  0  0  0  0
   -2.0256    0.4368    3.1133 H   0  0  0  0  0  0  0  0  0  0  0  0
   -1.7750    1.7720   -0.5397 H   0  0  0  0  0  0  0  0  0  0  0  0
    0.6148    2.1929   -0.6540 H   0  0  0  0  0  0  0  0  0  0  0  0
    2.2571    0.0053    0.7858 H   0  0  0  0  0  0  0  0  0  0  0  0
    2.8946    1.4351   -0.0996 H   0  0  0  0  0  0  0  0  0  0  0  0
    3.9768   -2.3420   -3.1116 H   0  0  0  0  0  0  0  0  0  0  0  0
    7.7676   -0.2775    0.8432 H   0  0  0  0  0  0  0  0  0  0  0  0
    6.9241    0.2427   -1.5497 H   0  0  0  0  0  0  0  0  0  0  0  0
    0.7071    1.1104    2.1723 H   0  0  0  0  0  0  0  0  0  0  0  0
    1.8615    2.8325    2.5607 H   0  0  0  0  0  0  0  0  0  0  0  0
   -1.4318    2.2689    2.3360 H   0  0  0  0  0  0  0  0  0  0  0  0
   -1.4349    3.5492   -0.0941 H   0  0  0  0  0  0  0  0  0  0  0  0
   -6.6277   -1.9412   -0.8138 H   0  0  0  0  0  0  0  0  0  0  0  0
  1  2  1  0
  2  3  2  0
  3  4  1  0
  4  5  2  0
  5  6  1  0
  6  7  2  0
  7  8  1  0
  8  9  1  0
  9 10  1  0
 10 11  1  0
 11 12  1  0
 12 13  1  0
 13 14  1  0
 14 15  1  0
 14 16  2  0
 14 17  1  0
 17 18  1  0
 18 19  1  0
 18 20  1  0
 18 21  2  0
 11 22  1  0
 22 23  1  0
 22 24  1  0
 24 25  1  0
  5 26  1  0
 26 27  2  0
 26 28  1  0
 28  2  1  0
  8  4  1  0
 24  9  1  0
  1 29  1  0
  1 30  1  0
  7 31  1  0
  9 32  1  6
 11 33  1  6
 12 34  1  0
 12 35  1  0
 15 36  1  0
 19 37  1  0
 20 38  1  0
 22 39  1  1
 23 40  1  0
 24 41  1  1
 25 42  1  0
 28 43  1  0
M  END
$$$$
