
     RDKit          3D

 44 46  0  0  0  0  0  0  0  0999 V2000
    5.0160    2.7883   -0.8381 O   0  0  0  0  0  0  0  0  0  0  0  0
    5.4995    2.0969    0.0929 C   0  0  0  0  0  0  0  0  0  0  0  0
    4.8820    0.8124    0.4962 C   0  0  0  0  0  0  0  0  0  0  0  0
    3.6594    0.4961   -0.3412 C   0  0  0  0  0  0  0  0  0  0  0  0
    3.0693   -0.8225    0.1112 C   0  0  0  0  0  0  0  0  0  0  0  0
    1.8445   -1.1341   -0.7316 C   0  0  0  0  0  0  0  0  0  0  0  0
    1.3097   -2.4575   -0.2272 C   0  0  0  0  0  0  0  0  0  0  0  0
    0.0977   -2.8148   -1.0328 C   0  0  0  0  0  0  0  0  0  0  0  0
   -0.8889   -1.7552   -0.8502 N   0  0  0  0  0  0  0  0  0  0  0  0
   -1.8323   -1.7129    0.1089 C   0  0  0  0  0  0  0  0  0  0  0  0
   -2.5935   -0.5748   -0.0161 C   0  0  0  0  0  0  0  0  0  0  0  0
   -3.7167   -0.0953    0.7791 C   0  0  0  0  0  0  0  0  0  0  0  0
   -3.6779   -0.1208    2.1368 N   0  0  0  0  0  0  0  0  0  0  0  0
   -4.7046    0.3167    2.8824 C   0  0  0  0  0  0  0  0  0  0  0  0
   -5.8102    0.7969    2.2877 N   0  0  0  0  0  0  0  0  0  0  0  0
   -5.9256    0.8551    0.9505 C   0  0  0  0  0  0  0  0  0  0  0  0
   -6.8681    1.2661    0.0983 N   0  0  0  0  0  0  0  0  0  0  0  0
   -6.4634    1.0995   -1.1734 C   0  0  0  0  0  0  0  0  0  0  0  0
   -5.1849    0.5487   -1.1301 C   0  0  0  0  0  0  0  0  0  0  0  0
   -4.8645    0.4028    0.2004 C   0  0  0  0  0  0  0  0  0  0  0  0
   -2.0694    0.0831   -1.1040 C   0  0  0  0  0  0  0  0  0  0  0  0
   -1.0522   -0.6597   -1.5704 N   0  0  0  0  0  0  0  0  0  0  0  0
    6.6582    2.5681    0.7607 N   0  0  0  0  0  0  0  0  0  0  0  0
    7.2496    3.7540    0.4070 O   0  0  0  0  0  0  0  0  0  0  0  0
    5.5676   -0.0465    0.3971 H   0  0  0  0  0  0  0  0  0  0  0  0
    4.5539    0.8578    1.5506 H   0  0  0  0  0  0  0  0  0  0  0  0
    2.8642    1.2612   -0.1972 H   0  0  0  0  0  0  0  0  0  0  0  0
    3.9359    0.3664   -1.4119 H   0  0  0  0  0  0  0  0  0  0  0  0
    3.7641   -1.6684   -0.0156 H   0  0  0  0  0  0  0  0  0  0  0  0
    2.7299   -0.7385    1.1632 H   0  0  0  0  0  0  0  0  0  0  0  0
    1.0563   -0.3469   -0.5448 H   0  0  0  0  0  0  0  0  0  0  0  0
    2.0435   -1.1231   -1.8061 H   0  0  0  0  0  0  0  0  0  0  0  0
    0.9398   -2.2470    0.8195 H   0  0  0  0  0  0  0  0  0  0  0  0
    2.0794   -3.2451   -0.2279 H   0  0  0  0  0  0  0  0  0  0  0  0
    0.3222   -2.9819   -2.1021 H   0  0  0  0  0  0  0  0  0  0  0  0
   -0.3195   -3.7479   -0.6268 H   0  0  0  0  0  0  0  0  0  0  0  0
   -2.0038   -2.4552    0.8942 H   0  0  0  0  0  0  0  0  0  0  0  0
   -4.6540    0.2879    3.9805 H   0  0  0  0  0  0  0  0  0  0  0  0
   -7.8030    1.6673    0.3351 H   0  0  0  0  0  0  0  0  0  0  0  0
   -7.0111    1.3408   -2.0865 H   0  0  0  0  0  0  0  0  0  0  0  0
   -4.5952    0.2996   -2.0043 H   0  0  0  0  0  0  0  0  0  0  0  0
   -2.3523    1.0185   -1.5668 H   0  0  0  0  0  0  0  0  0  0  0  0
    7.0580    1.9925    1.5335 H   0  0  0  0  0  0  0  0  0  0  0  0
    8.1904    3.7715    0.6757 H   0  0  0  0  0  0  0  0  0  0  0  0
  1  2  2  0
  2  3  1  0
  3  4  1  0
  4  5  1  0
  5  6  1  0
  6  7  1  0
  7  8  1  0
  8  9  1  0
  9 10  1  0
 10 11  2  0
 11 12  1  0
 12 13  2  0
 13 14  1  0
 14 15  2  0
 15 16  1  0
 16 17  1  0
 17 18  1  0
 18 19  2  0
 19 20  1  0
 11 21  1  0
 21 22  2  0
  2 23  1  0
 23 24  1  0
 22  9  1  0
 20 12  1  0
 20 16  2  0
  3 25  1  0
  3 26  1  0
  4 27  1  0
  4 28  1  0
  5 29  1  0
  5 30  1  0
  6 31  1  0
  6 32  1  0
  7 33  1  0
  7 34  1  0
  8 35  1  0
  8 36  1  0
 10 37  1  0
 14 38  1  0
 17 39  1  0
 18 40  1  0
 19 41  1  0
 21 42  1  0
 23 43  1  0
 24 44  1  0
M  END
$$$$
