
     RDKit          3D

 48 50  0  0  0  0  0  0  0  0999 V2000
    3.1609    1.1075   -2.9064 C   0  0  0  0  0  0  0  0  0  0  0  0
    1.9567    0.7333   -2.0851 C   0  0  0  0  0  0  0  0  0  0  0  0
    0.6923    1.0501   -2.5213 C   0  0  0  0  0  0  0  0  0  0  0  0
   -0.4582    0.7233   -1.7928 C   0  0  0  0  0  0  0  0  0  0  0  0
   -0.2921    0.0640   -0.6053 C   0  0  0  0  0  0  0  0  0  0  0  0
   -1.3480   -0.3244    0.2249 N   0  0  0  0  0  0  0  0  0  0  0  0
   -2.7288   -0.1314    0.0285 C   0  0  0  0  0  0  0  0  0  0  0  0
   -3.0894    0.4479   -0.9906 O   0  0  0  0  0  0  0  0  0  0  0  0
   -3.7126   -0.5618    0.9274 N   0  0  0  0  0  0  0  0  0  0  0  0
   -5.1119   -0.4175    0.8221 C   0  0  0  0  0  0  0  0  0  0  0  0
   -5.9138   -0.9383    1.8657 C   0  0  0  0  0  0  0  0  0  0  0  0
   -7.2705   -0.8456    1.8499 C   0  0  0  0  0  0  0  0  0  0  0  0
   -7.8768   -0.2192    0.7726 C   0  0  0  0  0  0  0  0  0  0  0  0
   -7.1218    0.2959   -0.2554 C   0  0  0  0  0  0  0  0  0  0  0  0
   -7.7723    0.9642   -1.4042 C   0  0  0  0  0  0  0  0  0  0  0  0
   -8.9958    0.4101   -1.6764 F   0  0  0  0  0  0  0  0  0  0  0  0
   -7.9855    2.2924   -1.0103 F   0  0  0  0  0  0  0  0  0  0  0  0
   -6.9347    0.9570   -2.5038 F   0  0  0  0  0  0  0  0  0  0  0  0
   -5.7460    0.1866   -0.2113 C   0  0  0  0  0  0  0  0  0  0  0  0
    1.0187   -0.2533   -0.1734 C   0  0  0  0  0  0  0  0  0  0  0  0
    2.1346    0.0692   -0.8901 C   0  0  0  0  0  0  0  0  0  0  0  0
    3.4871   -0.2546   -0.4511 C   0  0  0  0  0  0  0  0  0  0  0  0
    4.1763   -0.9920   -1.2039 O   0  0  0  0  0  0  0  0  0  0  0  0
    4.0427    0.2170    0.7607 N   0  0  0  0  0  0  0  0  0  0  0  0
    5.3484   -0.1358    1.1160 C   0  0  0  0  0  0  0  0  0  0  0  0
    6.4680    0.6034    0.7644 C   0  0  0  0  0  0  0  0  0  0  0  0
    7.6899    0.1960    1.1455 N   0  0  0  0  0  0  0  0  0  0  0  0
    7.8874   -0.9192    1.8682 C   0  0  0  0  0  0  0  0  0  0  0  0
    9.2179   -1.3174    2.2546 N   0  0  0  0  0  0  0  0  0  0  0  0
    6.8168   -1.6476    2.2180 N   0  0  0  0  0  0  0  0  0  0  0  0
    5.5720   -1.2921    1.8673 C   0  0  0  0  0  0  0  0  0  0  0  0
    2.8702    1.8207   -3.6980 H   0  0  0  0  0  0  0  0  0  0  0  0
    3.5366    0.1973   -3.4475 H   0  0  0  0  0  0  0  0  0  0  0  0
    3.9912    1.4640   -2.2795 H   0  0  0  0  0  0  0  0  0  0  0  0
    0.5352    1.5692   -3.4532 H   0  0  0  0  0  0  0  0  0  0  0  0
   -1.4261    0.9867   -2.1649 H   0  0  0  0  0  0  0  0  0  0  0  0
   -1.1058   -0.8376    1.1367 H   0  0  0  0  0  0  0  0  0  0  0  0
   -3.3349   -1.0594    1.7950 H   0  0  0  0  0  0  0  0  0  0  0  0
   -5.4160   -1.4341    2.7162 H   0  0  0  0  0  0  0  0  0  0  0  0
   -7.8906   -1.2413    2.6440 H   0  0  0  0  0  0  0  0  0  0  0  0
   -8.9568   -0.1221    0.7175 H   0  0  0  0  0  0  0  0  0  0  0  0
   -5.2187    0.6063   -1.0389 H   0  0  0  0  0  0  0  0  0  0  0  0
    1.1704   -0.7841    0.7807 H   0  0  0  0  0  0  0  0  0  0  0  0
    3.4778    0.8237    1.3817 H   0  0  0  0  0  0  0  0  0  0  0  0
    6.3158    1.5081    0.1790 H   0  0  0  0  0  0  0  0  0  0  0  0
    9.4159   -1.8528    3.1159 H   0  0  0  0  0  0  0  0  0  0  0  0
   10.0103   -1.0553    1.6418 H   0  0  0  0  0  0  0  0  0  0  0  0
    4.7141   -1.9100    2.1691 H   0  0  0  0  0  0  0  0  0  0  0  0
  1  2  1  0
  2  3  2  0
  3  4  1  0
  4  5  2  0
  5  6  1  0
  6  7  1  0
  7  8  2  0
  7  9  1  0
  9 10  1  0
 10 11  2  0
 11 12  1  0
 12 13  2  0
 13 14  1  0
 14 15  1  0
 15 16  1  0
 15 17  1  0
 15 18  1  0
 14 19  2  0
  5 20  1  0
 20 21  2  0
 21 22  1  0
 22 23  2  0
 22 24  1  0
 24 25  1  0
 25 26  2  0
 26 27  1  0
 27 28  2  0
 28 29  1  0
 28 30  1  0
 30 31  2  0
 21  2  1  0
 31 25  1  0
 19 10  1  0
  1 32  1  0
  1 33  1  0
  1 34  1  0
  3 35  1  0
  4 36  1  0
  6 37  1  0
  9 38  1  0
 11 39  1  0
 12 40  1  0
 13 41  1  0
 19 42  1  0
 20 43  1  0
 24 44  1  0
 26 45  1  0
 29 46  1  0
 29 47  1  0
 31 48  1  0
M  END
$$$$
