
     RDKit          3D

 43 42  0  0  0  0  0  0  0  0999 V2000
    3.2008   -1.5437   -1.5780 C   0  0  0  0  0  0  0  0  0  0  0  0
    2.3101   -0.3124   -1.4778 C   0  0  0  0  0  0  0  0  0  0  0  0
    3.1763    0.8407   -1.0750 C   0  0  0  0  0  0  0  0  0  0  0  0
    3.8298    0.5706    0.2395 C   0  0  0  0  0  0  0  0  0  0  0  0
    2.8258    0.3712    1.3299 C   0  0  0  0  0  0  0  0  0  0  0  0
    1.9585    1.5737    1.5404 C   0  0  0  0  0  0  0  0  0  0  0  0
    0.9942    1.3338    2.6639 C   0  0  0  0  0  0  0  0  0  0  0  0
    0.0439    0.1932    2.4550 C   0  0  0  0  0  0  0  0  0  0  0  0
   -0.7884    0.4810    1.2284 C   0  0  0  0  0  0  0  0  0  0  0  0
   -1.7828   -0.5894    0.8972 C   0  0  0  0  0  0  0  0  0  0  0  0
   -2.5091   -0.1084   -0.3578 C   0  0  0  0  0  0  0  0  0  0  0  0
   -3.7582   -1.3247   -0.8769 P   0  0  1  0  0  5  0  0  0  0  0  0
   -3.0115   -2.6438   -1.5910 O   0  0  0  0  0  0  0  0  0  0  0  0
   -4.5363   -1.7324    0.3632 O   0  0  0  0  0  0  0  0  0  0  0  0
   -4.7927   -0.5151   -1.9537 O   0  0  0  0  0  0  0  0  0  0  0  0
   -5.7319    0.1717   -1.2007 C   0  0  0  0  0  0  0  0  0  0  0  0
    4.2214   -1.2091   -1.8236 H   0  0  0  0  0  0  0  0  0  0  0  0
    3.1537   -2.0787   -0.6080 H   0  0  0  0  0  0  0  0  0  0  0  0
    2.7995   -2.2048   -2.4001 H   0  0  0  0  0  0  0  0  0  0  0  0
    1.4830   -0.5281   -0.8070 H   0  0  0  0  0  0  0  0  0  0  0  0
    1.8868   -0.1309   -2.5056 H   0  0  0  0  0  0  0  0  0  0  0  0
    2.5635    1.7691   -1.0095 H   0  0  0  0  0  0  0  0  0  0  0  0
    3.9516    1.0356   -1.8694 H   0  0  0  0  0  0  0  0  0  0  0  0
    4.5143   -0.3137    0.1415 H   0  0  0  0  0  0  0  0  0  0  0  0
    4.4414    1.4734    0.4905 H   0  0  0  0  0  0  0  0  0  0  0  0
    3.3452    0.0993    2.2980 H   0  0  0  0  0  0  0  0  0  0  0  0
    2.1769   -0.4996    1.0610 H   0  0  0  0  0  0  0  0  0  0  0  0
    1.4408    1.9008    0.6171 H   0  0  0  0  0  0  0  0  0  0  0  0
    2.5897    2.4585    1.8326 H   0  0  0  0  0  0  0  0  0  0  0  0
    1.5622    1.2475    3.6101 H   0  0  0  0  0  0  0  0  0  0  0  0
    0.3978    2.2851    2.7834 H   0  0  0  0  0  0  0  0  0  0  0  0
    0.5961   -0.7377    2.2877 H   0  0  0  0  0  0  0  0  0  0  0  0
   -0.5919    0.0931    3.3614 H   0  0  0  0  0  0  0  0  0  0  0  0
   -1.4088    1.4081    1.4238 H   0  0  0  0  0  0  0  0  0  0  0  0
   -0.1879    0.7081    0.3336 H   0  0  0  0  0  0  0  0  0  0  0  0
   -1.2988   -1.5602    0.6758 H   0  0  0  0  0  0  0  0  0  0  0  0
   -2.5299   -0.7572    1.6816 H   0  0  0  0  0  0  0  0  0  0  0  0
   -1.8201    0.0536   -1.1896 H   0  0  0  0  0  0  0  0  0  0  0  0
   -3.0767    0.8218   -0.1513 H   0  0  0  0  0  0  0  0  0  0  0  0
   -3.6370   -3.1082   -2.1932 H   0  0  0  0  0  0  0  0  0  0  0  0
   -5.2268    0.7656   -0.4103 H   0  0  0  0  0  0  0  0  0  0  0  0
   -6.3527    0.8371   -1.8415 H   0  0  0  0  0  0  0  0  0  0  0  0
   -6.4217   -0.5945   -0.7511 H   0  0  0  0  0  0  0  0  0  0  0  0
  1  2  1  0
  2  3  1  0
  3  4  1  0
  4  5  1  0
  5  6  1  0
  6  7  1  0
  7  8  1  0
  8  9  1  0
  9 10  1  0
 10 11  1  0
 11 12  1  0
 12 13  1  6
 12 14  2  0
 12 15  1  0
 15 16  1  0
  1 17  1  0
  1 18  1  0
  1 19  1  0
  2 20  1  0
  2 21  1  0
  3 22  1  0
  3 23  1  0
  4 24  1  0
  4 25  1  0
  5 26  1  0
  5 27  1  0
  6 28  1  0
  6 29  1  0
  7 30  1  0
  7 31  1  0
  8 32  1  0
  8 33  1  0
  9 34  1  0
  9 35  1  0
 10 36  1  0
 10 37  1  0
 11 38  1  0
 11 39  1  0
 13 40  1  0
 16 41  1  0
 16 42  1  0
 16 43  1  0
M  END
$$$$
