
     RDKit          3D

 50 51  0  0  0  0  0  0  0  0999 V2000
    6.8984    0.2889    0.2748 C   0  0  0  0  0  0  0  0  0  0  0  0
    6.0866   -0.8520    0.5165 O   0  0  0  0  0  0  0  0  0  0  0  0
    4.7569   -0.8005    0.0965 C   0  0  0  0  0  0  0  0  0  0  0  0
    3.9347   -1.8806    0.3092 C   0  0  0  0  0  0  0  0  0  0  0  0
    2.6160   -1.8148   -0.1136 C   0  0  0  0  0  0  0  0  0  0  0  0
    2.1087   -0.6996   -0.7392 C   0  0  0  0  0  0  0  0  0  0  0  0
    0.4132   -0.7586   -1.2213 S   0  0  0  0  0  6  0  0  0  0  0  0
    0.3203    0.0382   -2.4954 O   0  0  0  0  0  0  0  0  0  0  0  0
    0.1821   -2.1930   -1.6414 O   0  0  0  0  0  0  0  0  0  0  0  0
   -0.4996   -0.2311    0.0477 N   0  0  0  0  0  0  0  0  0  0  0  0
   -0.2608    1.0909    0.4657 C   0  0  0  0  0  0  0  0  0  0  0  0
   -1.0098    2.1680   -0.1763 C   0  0  0  0  0  0  0  0  0  0  0  0
   -2.2437    2.5677    0.2858 C   0  0  0  0  0  0  0  0  0  0  0  0
   -2.9346    3.6108   -0.3451 C   0  0  0  0  0  0  0  0  0  0  0  0
   -2.3709    4.2379   -1.4349 C   0  0  0  0  0  0  0  0  0  0  0  0
   -1.1837    3.8498   -1.8750 N   0  0  0  0  0  0  0  0  0  0  0  0
   -0.5189    2.8474   -1.2692 C   0  0  0  0  0  0  0  0  0  0  0  0
   -1.8429   -0.6685    0.2471 C   0  0  1  0  0  0  0  0  0  0  0  0
   -2.7484   -0.3109   -0.8542 C   0  0  0  0  0  0  0  0  0  0  0  0
   -2.3608   -0.0193   -2.0182 O   0  0  0  0  0  0  0  0  0  0  0  0
   -4.1480   -0.2700   -0.6589 N   0  0  0  0  0  0  0  0  0  0  0  0
   -5.0053    0.0530   -1.6647 O   0  0  0  0  0  0  0  0  0  0  0  0
   -1.9239   -2.1456    0.5567 C   0  0  0  0  0  0  0  0  0  0  0  0
   -3.3272   -2.6478    0.7808 C   0  0  0  0  0  0  0  0  0  0  0  0
   -1.1726   -2.4556    1.8636 C   0  0  0  0  0  0  0  0  0  0  0  0
    2.9152    0.3728   -0.9533 C   0  0  0  0  0  0  0  0  0  0  0  0
    4.2309    0.3111   -0.5332 C   0  0  0  0  0  0  0  0  0  0  0  0
    7.0027    0.3918   -0.8083 H   0  0  0  0  0  0  0  0  0  0  0  0
    7.8638    0.2213    0.8094 H   0  0  0  0  0  0  0  0  0  0  0  0
    6.3550    1.1640    0.7139 H   0  0  0  0  0  0  0  0  0  0  0  0
    4.3326   -2.7482    0.7969 H   0  0  0  0  0  0  0  0  0  0  0  0
    2.0104   -2.6992    0.0809 H   0  0  0  0  0  0  0  0  0  0  0  0
    0.8553    1.2925    0.3810 H   0  0  0  0  0  0  0  0  0  0  0  0
   -0.4017    1.1047    1.5941 H   0  0  0  0  0  0  0  0  0  0  0  0
   -2.7353    2.1341    1.1209 H   0  0  0  0  0  0  0  0  0  0  0  0
   -3.8997    3.9465   -0.0089 H   0  0  0  0  0  0  0  0  0  0  0  0
   -2.9235    5.0564   -1.9226 H   0  0  0  0  0  0  0  0  0  0  0  0
    0.4505    2.6082   -1.6964 H   0  0  0  0  0  0  0  0  0  0  0  0
   -2.2105   -0.1618    1.1573 H   0  0  0  0  0  0  0  0  0  0  0  0
   -4.5711   -0.4711    0.2693 H   0  0  0  0  0  0  0  0  0  0  0  0
   -5.0318    1.0556   -1.6966 H   0  0  0  0  0  0  0  0  0  0  0  0
   -1.4749   -2.8027   -0.1862 H   0  0  0  0  0  0  0  0  0  0  0  0
   -3.8096   -2.1894    1.6670 H   0  0  0  0  0  0  0  0  0  0  0  0
   -3.9460   -2.6938   -0.1233 H   0  0  0  0  0  0  0  0  0  0  0  0
   -3.2303   -3.7440    1.0870 H   0  0  0  0  0  0  0  0  0  0  0  0
   -1.1138   -1.5221    2.4355 H   0  0  0  0  0  0  0  0  0  0  0  0
   -1.6746   -3.2189    2.4540 H   0  0  0  0  0  0  0  0  0  0  0  0
   -0.1502   -2.8252    1.6381 H   0  0  0  0  0  0  0  0  0  0  0  0
    2.5036    1.2405   -1.4452 H   0  0  0  0  0  0  0  0  0  0  0  0
    4.8870    1.1720   -0.7026 H   0  0  0  0  0  0  0  0  0  0  0  0
  1  2  1  0
  2  3  1  0
  3  4  2  0
  4  5  1  0
  5  6  2  0
  6  7  1  0
  7  8  2  0
  7  9  2  0
  7 10  1  0
 10 11  1  0
 11 12  1  0
 12 13  2  0
 13 14  1  0
 14 15  2  0
 15 16  1  0
 16 17  2  0
 10 18  1  0
 18 19  1  0
 19 20  2  0
 19 21  1  0
 21 22  1  0
 18 23  1  0
 23 24  1  0
 23 25  1  0
  6 26  1  0
 26 27  2  0
 27  3  1  0
 17 12  1  0
  1 28  1  0
  1 29  1  0
  1 30  1  0
  4 31  1  0
  5 32  1  0
 11 33  1  0
 11 34  1  0
 13 35  1  0
 14 36  1  0
 15 37  1  0
 17 38  1  0
 18 39  1  1
 21 40  1  0
 22 41  1  0
 23 42  1  0
 24 43  1  0
 24 44  1  0
 24 45  1  0
 25 46  1  0
 25 47  1  0
 25 48  1  0
 26 49  1  0
 27 50  1  0
M  END
$$$$
