
     RDKit          3D

 30 32  0  0  0  0  0  0  0  0999 V2000
   -3.4720    2.5145    0.7351 N   0  0  0  0  0  0  0  0  0  0  0  0
   -2.3472    1.6759    0.4918 C   0  0  0  0  0  0  0  0  0  0  0  0
   -1.2162    2.2408    0.5597 O   0  0  0  0  0  0  0  0  0  0  0  0
   -2.5324    0.2607    0.1871 C   0  0  0  0  0  0  0  0  0  0  0  0
   -3.8249   -0.2588    0.1372 C   0  0  0  0  0  0  0  0  0  0  0  0
   -3.9157   -1.6043   -0.1568 C   0  0  0  0  0  0  0  0  0  0  0  0
   -2.8575   -2.4556   -0.3993 C   0  0  0  0  0  0  0  0  0  0  0  0
   -1.6148   -1.8633   -0.3308 C   0  0  0  0  0  0  0  0  0  0  0  0
   -0.5201   -2.6200   -0.5542 N   0  0  0  0  0  0  0  0  0  0  0  0
    0.6936   -2.0297   -0.4847 C   0  0  0  0  0  0  0  0  0  0  0  0
    0.9059   -0.7017   -0.2007 C   0  0  0  0  0  0  0  0  0  0  0  0
   -0.2024    0.0401    0.0201 N   0  0  0  0  0  0  0  0  0  0  0  0
   -1.4219   -0.5269   -0.0440 C   0  0  0  0  0  0  0  0  0  0  0  0
    2.2391   -0.1156   -0.1382 C   0  0  0  0  0  0  0  0  0  0  0  0
    3.4308   -0.7795   -0.3459 C   0  0  0  0  0  0  0  0  0  0  0  0
    4.6477   -0.1389   -0.2654 C   0  0  0  0  0  0  0  0  0  0  0  0
    4.7275    1.2019    0.0280 C   0  0  0  0  0  0  0  0  0  0  0  0
    6.2890    1.9795    0.1214 Cl  0  0  0  0  0  0  0  0  0  0  0  0
    3.5632    1.9077    0.2436 C   0  0  0  0  0  0  0  0  0  0  0  0
    2.3501    1.2290    0.1545 C   0  0  0  0  0  0  0  0  0  0  0  0
   -3.8467    3.1083   -0.0397 H   0  0  0  0  0  0  0  0  0  0  0  0
   -3.9683    2.5792    1.6731 H   0  0  0  0  0  0  0  0  0  0  0  0
   -4.6937    0.3465    0.3156 H   0  0  0  0  0  0  0  0  0  0  0  0
   -4.9215   -2.0125   -0.1964 H   0  0  0  0  0  0  0  0  0  0  0  0
   -3.0235   -3.5002   -0.6227 H   0  0  0  0  0  0  0  0  0  0  0  0
    1.5195   -2.6953   -0.6742 H   0  0  0  0  0  0  0  0  0  0  0  0
    3.3634   -1.8339   -0.5763 H   0  0  0  0  0  0  0  0  0  0  0  0
    5.5300   -0.7543   -0.4467 H   0  0  0  0  0  0  0  0  0  0  0  0
    3.6229    2.9607    0.4741 H   0  0  0  0  0  0  0  0  0  0  0  0
    1.4961    1.8456    0.3346 H   0  0  0  0  0  0  0  0  0  0  0  0
  1  2  1  0
  2  3  2  0
  2  4  1  0
  4  5  2  0
  5  6  1  0
  6  7  2  0
  7  8  1  0
  8  9  2  0
  9 10  1  0
 10 11  2  0
 11 12  1  0
 12 13  2  0
 11 14  1  0
 14 15  2  0
 15 16  1  0
 16 17  2  0
 17 18  1  0
 17 19  1  0
 19 20  2  0
 13  4  1  0
 20 14  1  0
 13  8  1  0
  1 21  1  0
  1 22  1  0
  5 23  1  0
  6 24  1  0
  7 25  1  0
 10 26  1  0
 15 27  1  0
 16 28  1  0
 19 29  1  0
 20 30  1  0
M  END
$$$$
