
     RDKit          3D

 69 75  0  0  0  0  0  0  0  0999 V2000
   -5.6636    1.5090    2.9260 C   0  0  0  0  0  0  0  0  0  0  0  0
   -6.1852    0.3693    2.1022 C   0  0  0  0  0  0  0  0  0  0  0  0
   -7.1065   -0.5152    2.6252 C   0  0  0  0  0  0  0  0  0  0  0  0
   -7.5622   -1.5478    1.8419 C   0  0  0  0  0  0  0  0  0  0  0  0
   -7.1324   -1.7358    0.5443 C   0  0  0  0  0  0  0  0  0  0  0  0
   -6.2339   -0.8471    0.0800 N   0  0  0  0  0  0  0  0  0  0  0  0
   -5.7620    0.1744    0.8091 C   0  0  0  0  0  0  0  0  0  0  0  0
   -4.7835    1.0906    0.2214 C   0  0  0  0  0  0  0  0  0  0  0  0
   -3.4453    0.8866    0.6795 N   0  0  0  0  0  0  0  0  0  0  0  0
   -2.5620    1.7950    0.0308 C   0  0  0  0  0  0  0  0  0  0  0  0
   -1.1377    1.3187   -0.0343 C   0  0  0  0  0  0  0  0  0  0  0  0
   -0.9653   -0.0562   -0.6004 C   0  0  0  0  0  0  0  0  0  0  0  0
   -2.1854   -0.9269   -0.3847 C   0  0  0  0  0  0  0  0  0  0  0  0
   -3.0206   -0.4684    0.7640 C   0  0  0  0  0  0  0  0  0  0  0  0
    0.2425   -0.6482    0.0248 C   0  0  0  0  0  0  0  0  0  0  0  0
    0.2640   -1.4049    1.0320 O   0  0  0  0  0  0  0  0  0  0  0  0
    1.3491   -0.1916   -0.7359 N   0  0  0  0  0  0  0  0  0  0  0  0
    2.6813   -0.1663   -0.2473 C   0  0  0  0  0  0  0  0  0  0  0  0
    3.4370   -1.2987   -0.4516 C   0  0  0  0  0  0  0  0  0  0  0  0
    4.7254   -1.3622   -0.0118 C   0  0  0  0  0  0  0  0  0  0  0  0
    5.3230   -0.3184    0.6450 C   0  0  0  0  0  0  0  0  0  0  0  0
    6.7164   -0.4293    1.1098 C   0  0  0  0  0  0  0  0  0  0  0  0
    7.1019   -1.6996    1.4858 C   0  0  0  0  0  0  0  0  0  0  0  0
    8.4059   -1.8292    1.9164 C   0  0  0  0  0  0  0  0  0  0  0  0
    9.2073   -0.7468    1.9460 C   0  0  0  0  0  0  0  0  0  0  0  0
   10.9097   -0.4893    2.4183 S   0  0  0  0  0  0  0  0  0  0  0  0
   10.9968    1.2825    2.0859 C   0  0  0  0  0  0  0  0  0  0  0  0
    9.7096    1.4935    1.6470 N   0  0  0  0  0  0  0  0  0  0  0  0
    8.8662    0.5471    1.5790 C   0  0  0  0  0  0  0  0  0  0  0  0
    7.5162    0.6761    1.1345 C   0  0  0  0  0  0  0  0  0  0  0  0
    4.5737    0.8185    0.8530 C   0  0  0  0  0  0  0  0  0  0  0  0
    3.2563    0.8924    0.4074 C   0  0  0  0  0  0  0  0  0  0  0  0
    0.8173    0.1929   -1.9991 C   0  0  0  0  0  0  0  0  0  0  0  0
    1.4812    0.6549   -2.9619 O   0  0  0  0  0  0  0  0  0  0  0  0
   -0.5885   -0.0259   -2.0080 N   0  0  0  0  0  0  0  0  0  0  0  0
   -1.4765   -0.1860   -3.1045 C   0  0  0  0  0  0  0  0  0  0  0  0
   -1.7637   -1.4128   -3.6622 C   0  0  0  0  0  0  0  0  0  0  0  0
   -2.6383   -1.5284   -4.7276 C   0  0  0  0  0  0  0  0  0  0  0  0
   -2.9114   -2.6497   -5.2498 O   0  0  0  0  0  0  0  0  0  0  0  0
   -3.2291   -0.4373   -5.2430 N   0  0  0  0  0  0  0  0  0  0  0  0
   -2.9425    0.7527   -4.6928 C   0  0  0  0  0  0  0  0  0  0  0  0
   -2.0857    0.8832   -3.6457 N   0  0  0  0  0  0  0  0  0  0  0  0
   -6.3073    1.5672    3.8483 H   0  0  0  0  0  0  0  0  0  0  0  0
   -4.6149    1.2632    3.1853 H   0  0  0  0  0  0  0  0  0  0  0  0
   -5.7581    2.4754    2.4060 H   0  0  0  0  0  0  0  0  0  0  0  0
   -7.4413   -0.3584    3.6523 H   0  0  0  0  0  0  0  0  0  0  0  0
   -8.2870   -2.2571    2.2323 H   0  0  0  0  0  0  0  0  0  0  0  0
   -7.4967   -2.5602   -0.0809 H   0  0  0  0  0  0  0  0  0  0  0  0
   -4.8408    1.0861   -0.8949 H   0  0  0  0  0  0  0  0  0  0  0  0
   -5.0820    2.1411    0.5125 H   0  0  0  0  0  0  0  0  0  0  0  0
   -2.5575    2.7505    0.5985 H   0  0  0  0  0  0  0  0  0  0  0  0
   -2.9127    2.0922   -1.0007 H   0  0  0  0  0  0  0  0  0  0  0  0
   -0.7517    1.3170    1.0180 H   0  0  0  0  0  0  0  0  0  0  0  0
   -0.5672    2.0417   -0.6546 H   0  0  0  0  0  0  0  0  0  0  0  0
   -2.8148   -0.8465   -1.3109 H   0  0  0  0  0  0  0  0  0  0  0  0
   -1.8762   -1.9652   -0.1986 H   0  0  0  0  0  0  0  0  0  0  0  0
   -3.9466   -1.1146    0.7614 H   0  0  0  0  0  0  0  0  0  0  0  0
   -2.5229   -0.6870    1.7426 H   0  0  0  0  0  0  0  0  0  0  0  0
    2.9998   -2.1615   -0.9753 H   0  0  0  0  0  0  0  0  0  0  0  0
    5.3080   -2.2730   -0.1864 H   0  0  0  0  0  0  0  0  0  0  0  0
    6.4642   -2.5548    1.4626 H   0  0  0  0  0  0  0  0  0  0  0  0
    8.8142   -2.7915    2.2376 H   0  0  0  0  0  0  0  0  0  0  0  0
   11.8524    1.9683    2.2089 H   0  0  0  0  0  0  0  0  0  0  0  0
    7.1087    1.6189    0.8185 H   0  0  0  0  0  0  0  0  0  0  0  0
    5.0185    1.6601    1.3689 H   0  0  0  0  0  0  0  0  0  0  0  0
    2.6669    1.8030    0.5763 H   0  0  0  0  0  0  0  0  0  0  0  0
   -1.3129   -2.3165   -3.2823 H   0  0  0  0  0  0  0  0  0  0  0  0
   -3.9060   -0.5090   -6.0630 H   0  0  0  0  0  0  0  0  0  0  0  0
   -3.4358    1.6169   -5.1308 H   0  0  0  0  0  0  0  0  0  0  0  0
  1  2  1  0
  2  3  2  0
  3  4  1  0
  4  5  2  0
  5  6  1  0
  6  7  2  0
  7  8  1  0
  8  9  1  0
  9 10  1  0
 10 11  1  0
 11 12  1  0
 12 13  1  0
 13 14  1  0
 12 15  1  0
 15 16  2  0
 15 17  1  0
 17 18  1  0
 18 19  2  0
 19 20  1  0
 20 21  2  0
 21 22  1  0
 22 23  2  0
 23 24  1  0
 24 25  2  0
 25 26  1  0
 26 27  1  0
 27 28  2  0
 28 29  1  0
 29 30  2  0
 21 31  1  0
 31 32  2  0
 17 33  1  0
 33 34  2  0
 33 35  1  0
 35 36  1  0
 36 37  2  0
 37 38  1  0
 38 39  2  0
 38 40  1  0
 40 41  1  0
 41 42  2  0
  7  2  1  0
 14  9  1  0
 32 18  1  0
 42 36  1  0
 35 12  1  0
 30 22  1  0
 29 25  1  0
  1 43  1  0
  1 44  1  0
  1 45  1  0
  3 46  1  0
  4 47  1  0
  5 48  1  0
  8 49  1  0
  8 50  1  0
 10 51  1  0
 10 52  1  0
 11 53  1  0
 11 54  1  0
 13 55  1  0
 13 56  1  0
 14 57  1  0
 14 58  1  0
 19 59  1  0
 20 60  1  0
 23 61  1  0
 24 62  1  0
 27 63  1  0
 30 64  1  0
 31 65  1  0
 32 66  1  0
 37 67  1  0
 40 68  1  0
 41 69  1  0
M  END
$$$$
