
     RDKit          3D

 57 62  0  0  0  0  0  0  0  0999 V2000
   -1.9634   -2.9052   -3.0122 C   0  0  1  0  0  0  0  0  0  0  0  0
   -2.6545   -3.7410   -3.8859 O   0  0  0  0  0  0  0  0  0  0  0  0
   -2.8290   -2.4329   -1.8770 C   0  0  0  0  0  0  0  0  0  0  0  0
   -1.8798   -2.0230   -0.8650 N   0  0  0  0  0  0  0  0  0  0  0  0
   -0.6393   -2.6986   -1.1032 C   0  0  1  0  0  0  0  0  0  0  0  0
   -0.8275   -3.5869   -2.2979 C   0  0  0  0  0  0  0  0  0  0  0  0
    0.3944   -1.6240   -1.3891 C   0  0  2  0  0  0  0  0  0  0  0  0
    1.6649   -1.8340   -0.6616 C   0  0  0  0  0  0  0  0  0  0  0  0
    2.6359   -2.4821   -1.1222 O   0  0  0  0  0  0  0  0  0  0  0  0
    1.4903   -1.1530    0.5979 N   0  0  0  0  0  0  0  0  0  0  0  0
    2.6179   -1.1079    1.5248 C   0  0  0  0  0  0  0  0  0  0  0  0
    3.4870    0.0609    1.3312 C   0  0  0  0  0  0  0  0  0  0  0  0
    3.3647    1.2942    1.9389 C   0  0  0  0  0  0  0  0  0  0  0  0
    4.2628    2.3052    1.6571 C   0  0  0  0  0  0  0  0  0  0  0  0
    5.3156    2.1321    0.7628 C   0  0  0  0  0  0  0  0  0  0  0  0
    6.3218    3.0017    0.3379 O   0  0  0  0  0  0  0  0  0  0  0  0
    6.9790    2.3468   -0.7220 C   0  0  0  0  0  0  0  0  0  0  0  0
    6.5628    0.9949   -0.6837 O   0  0  0  0  0  0  0  0  0  0  0  0
    5.4376    0.8986    0.1553 C   0  0  0  0  0  0  0  0  0  0  0  0
    4.5362   -0.1176    0.4375 C   0  0  0  0  0  0  0  0  0  0  0  0
    0.1483   -0.6248    0.6819 C   0  0  0  0  0  0  0  0  0  0  0  0
   -0.2628   -0.5468    1.8924 O   0  0  0  0  0  0  0  0  0  0  0  0
   -0.2030   -0.3831   -0.7577 C   0  0  2  0  0  0  0  0  0  0  0  0
   -1.6704   -0.6118   -1.0392 C   0  0  2  0  0  0  0  0  0  0  0  0
   -2.4195    0.2518   -0.1125 C   0  0  0  0  0  0  0  0  0  0  0  0
   -1.8208    1.3620    0.4990 C   0  0  0  0  0  0  0  0  0  0  0  0
   -2.4733    2.1963    1.3720 C   0  0  0  0  0  0  0  0  0  0  0  0
   -3.7805    1.9627    1.6862 C   0  0  0  0  0  0  0  0  0  0  0  0
   -4.4199    0.8978    1.1240 C   0  0  0  0  0  0  0  0  0  0  0  0
   -3.7464    0.0807    0.2562 C   0  0  0  0  0  0  0  0  0  0  0  0
   -4.5215    2.8145    2.6056 C   0  0  0  0  0  0  0  0  0  0  0  0
   -4.3982    4.1988    2.9023 N   0  0  0  0  0  0  0  0  0  0  0  0
   -5.4883    2.4022    3.3561 N   0  0  0  0  0  0  0  0  0  0  0  0
   -1.5913   -2.0600   -3.6181 H   0  0  0  0  0  0  0  0  0  0  0  0
   -2.9668   -3.2519   -4.7114 H   0  0  0  0  0  0  0  0  0  0  0  0
   -3.4664   -3.2696   -1.5534 H   0  0  0  0  0  0  0  0  0  0  0  0
   -3.4274   -1.5680   -2.2391 H   0  0  0  0  0  0  0  0  0  0  0  0
   -0.2787   -3.3129   -0.2758 H   0  0  0  0  0  0  0  0  0  0  0  0
   -1.1873   -4.6107   -1.9992 H   0  0  0  0  0  0  0  0  0  0  0  0
    0.0780   -3.6583   -2.9396 H   0  0  0  0  0  0  0  0  0  0  0  0
    0.5222   -1.4342   -2.4556 H   0  0  0  0  0  0  0  0  0  0  0  0
    2.1785   -1.0227    2.5556 H   0  0  0  0  0  0  0  0  0  0  0  0
    3.1619   -2.0665    1.5313 H   0  0  0  0  0  0  0  0  0  0  0  0
    2.5414    1.4019    2.6266 H   0  0  0  0  0  0  0  0  0  0  0  0
    4.1545    3.2628    2.1393 H   0  0  0  0  0  0  0  0  0  0  0  0
    8.0906    2.4153   -0.5484 H   0  0  0  0  0  0  0  0  0  0  0  0
    6.7158    2.8123   -1.7025 H   0  0  0  0  0  0  0  0  0  0  0  0
    4.7371   -1.0326   -0.0994 H   0  0  0  0  0  0  0  0  0  0  0  0
    0.1983    0.5570   -1.1214 H   0  0  0  0  0  0  0  0  0  0  0  0
   -1.8514   -0.2614   -2.0603 H   0  0  0  0  0  0  0  0  0  0  0  0
   -0.7887    1.6231    0.3056 H   0  0  0  0  0  0  0  0  0  0  0  0
   -1.9825    3.0454    1.8274 H   0  0  0  0  0  0  0  0  0  0  0  0
   -5.4661    0.6936    1.3624 H   0  0  0  0  0  0  0  0  0  0  0  0
   -4.2791   -0.7408   -0.1620 H   0  0  0  0  0  0  0  0  0  0  0  0
   -4.2952    4.7447    2.0140 H   0  0  0  0  0  0  0  0  0  0  0  0
   -4.2805    5.0185    2.2520 H   0  0  0  0  0  0  0  0  0  0  0  0
   -5.7381    1.3863    3.2820 H   0  0  0  0  0  0  0  0  0  0  0  0
  1  2  1  0
  1  3  1  0
  3  4  1  0
  4  5  1  0
  5  6  1  0
  5  7  1  0
  7  8  1  0
  8  9  2  0
  8 10  1  0
 10 11  1  0
 11 12  1  0
 12 13  2  0
 13 14  1  0
 14 15  2  0
 15 16  1  0
 16 17  1  0
 17 18  1  0
 18 19  1  0
 19 20  2  0
 10 21  1  0
 21 22  2  0
 21 23  1  0
 23 24  1  0
 24 25  1  0
 25 26  2  0
 26 27  1  0
 27 28  2  0
 28 29  1  0
 29 30  2  0
 28 31  1  0
 31 32  1  0
 31 33  2  3
  6  1  1  0
 23  7  1  0
 30 25  1  0
 24  4  1  0
 20 12  1  0
 19 15  1  0
  1 34  1  6
  2 35  1  0
  3 36  1  0
  3 37  1  0
  5 38  1  1
  6 39  1  0
  6 40  1  0
  7 41  1  6
 11 42  1  0
 11 43  1  0
 13 44  1  0
 14 45  1  0
 17 46  1  0
 17 47  1  0
 20 48  1  0
 23 49  1  6
 24 50  1  6
 26 51  1  0
 27 52  1  0
 29 53  1  0
 30 54  1  0
 32 55  1  0
 32 56  1  0
 33 57  1  0
M  END
$$$$
