
     RDKit          3D

 45 47  0  0  0  0  0  0  0  0999 V2000
   -2.7968    2.9916   -1.3642 C   0  0  0  0  0  0  0  0  0  0  0  0
   -3.2756    2.5290   -0.0321 C   0  0  0  0  0  0  0  0  0  0  0  0
   -3.9975    1.2474   -0.0293 C   0  0  0  0  0  0  0  0  0  0  0  0
   -3.1875    0.1386   -0.1478 C   0  0  0  0  0  0  0  0  0  0  0  0
   -3.7874   -1.1269   -0.1543 C   0  0  0  0  0  0  0  0  0  0  0  0
   -3.0830   -2.3811   -0.2697 N   0  0  0  0  0  0  0  0  0  0  0  0
   -5.1222   -1.2851   -0.0487 N   0  0  0  0  0  0  0  0  0  0  0  0
   -5.8759   -0.1772    0.0650 C   0  0  0  0  0  0  0  0  0  0  0  0
   -7.3008   -0.2343    0.1827 N   0  0  0  0  0  0  0  0  0  0  0  0
   -5.3236    1.0383    0.0733 N   0  0  0  0  0  0  0  0  0  0  0  0
   -1.7479    0.0312   -0.2747 C   0  0  0  0  0  0  0  0  0  0  0  0
   -1.0324    0.0165   -1.4771 C   0  0  0  0  0  0  0  0  0  0  0  0
    0.3428   -0.0928   -1.4892 C   0  0  0  0  0  0  0  0  0  0  0  0
    0.9972   -0.1879   -0.2787 C   0  0  0  0  0  0  0  0  0  0  0  0
    2.4185   -0.3057   -0.2139 N   0  0  0  0  0  0  0  0  0  0  0  0
    3.1949   -0.4138    1.0240 C   0  0  0  0  0  0  0  0  0  0  0  0
    4.6450   -0.5303    0.7251 C   0  0  0  0  0  0  0  0  0  0  0  0
    5.5270    0.5262    0.6035 C   0  0  0  0  0  0  0  0  0  0  0  0
    6.8586    0.2701    0.3209 C   0  0  0  0  0  0  0  0  0  0  0  0
    7.7332    1.2975    0.1995 F   0  0  0  0  0  0  0  0  0  0  0  0
    7.3838   -1.0039    0.1467 C   0  0  0  0  0  0  0  0  0  0  0  0
    6.5065   -2.0557    0.2676 C   0  0  0  0  0  0  0  0  0  0  0  0
    6.9140   -3.3487    0.1159 F   0  0  0  0  0  0  0  0  0  0  0  0
    5.1848   -1.8074    0.5477 C   0  0  0  0  0  0  0  0  0  0  0  0
    0.3504   -0.1794    0.9435 C   0  0  0  0  0  0  0  0  0  0  0  0
   -1.0290   -0.0684    0.9227 C   0  0  0  0  0  0  0  0  0  0  0  0
   -2.9317    4.0907   -1.4286 H   0  0  0  0  0  0  0  0  0  0  0  0
   -3.4481    2.5651   -2.1595 H   0  0  0  0  0  0  0  0  0  0  0  0
   -1.7189    2.8236   -1.5596 H   0  0  0  0  0  0  0  0  0  0  0  0
   -2.4320    2.5104    0.7177 H   0  0  0  0  0  0  0  0  0  0  0  0
   -3.9546    3.3162    0.3838 H   0  0  0  0  0  0  0  0  0  0  0  0
   -2.3701   -2.7428    0.3975 H   0  0  0  0  0  0  0  0  0  0  0  0
   -3.3313   -2.9654   -1.1151 H   0  0  0  0  0  0  0  0  0  0  0  0
   -7.9530    0.2231    0.8390 H   0  0  0  0  0  0  0  0  0  0  0  0
   -7.7738   -0.8549   -0.5274 H   0  0  0  0  0  0  0  0  0  0  0  0
   -1.6299    0.0959   -2.3738 H   0  0  0  0  0  0  0  0  0  0  0  0
    0.8824   -0.1023   -2.4311 H   0  0  0  0  0  0  0  0  0  0  0  0
    2.9569   -0.3156   -1.1301 H   0  0  0  0  0  0  0  0  0  0  0  0
    2.9861    0.4608    1.6759 H   0  0  0  0  0  0  0  0  0  0  0  0
    2.8837   -1.3508    1.5197 H   0  0  0  0  0  0  0  0  0  0  0  0
    5.1293    1.5166    0.7366 H   0  0  0  0  0  0  0  0  0  0  0  0
    8.4200   -1.1923   -0.0727 H   0  0  0  0  0  0  0  0  0  0  0  0
    4.5087   -2.6540    0.6393 H   0  0  0  0  0  0  0  0  0  0  0  0
    0.8364   -0.2528    1.9064 H   0  0  0  0  0  0  0  0  0  0  0  0
   -1.5571   -0.0593    1.8836 H   0  0  0  0  0  0  0  0  0  0  0  0
  1  2  1  0
  2  3  1  0
  3  4  2  0
  4  5  1  0
  5  6  1  0
  5  7  2  0
  7  8  1  0
  8  9  1  0
  8 10  2  0
  4 11  1  0
 11 12  2  0
 12 13  1  0
 13 14  2  0
 14 15  1  0
 15 16  1  0
 16 17  1  0
 17 18  2  0
 18 19  1  0
 19 20  1  0
 19 21  2  0
 21 22  1  0
 22 23  1  0
 22 24  2  0
 14 25  1  0
 25 26  2  0
 10  3  1  0
 26 11  1  0
 24 17  1  0
  1 27  1  0
  1 28  1  0
  1 29  1  0
  2 30  1  0
  2 31  1  0
  6 32  1  0
  6 33  1  0
  9 34  1  0
  9 35  1  0
 12 36  1  0
 13 37  1  0
 15 38  1  0
 16 39  1  0
 16 40  1  0
 18 41  1  0
 21 42  1  0
 24 43  1  0
 25 44  1  0
 26 45  1  0
M  END
$$$$
