
     RDKit          3D

 35 35  0  0  0  0  0  0  0  0999 V2000
   -4.6621    0.9535    1.5954 C   0  0  0  0  0  0  0  0  0  0  0  0
   -4.0380    0.2688    0.4373 C   0  0  0  0  0  0  0  0  0  0  0  0
   -4.5615   -0.1745   -0.6116 O   0  0  0  0  0  0  0  0  0  0  0  0
   -2.6285    0.0968    0.5505 N   0  0  0  0  0  0  0  0  0  0  0  0
   -1.7586   -0.5423   -0.4378 C   0  0  1  0  0  0  0  0  0  0  0  0
   -0.8496    0.5723   -0.9569 C   0  0  0  0  0  0  0  0  0  0  0  0
   -0.2402    0.2110   -2.1604 O   0  0  0  0  0  0  0  0  0  0  0  0
    0.0348    1.0096   -0.0114 O   0  0  0  0  0  0  0  0  0  0  0  0
    0.7955    0.0456    0.5930 C   0  0  2  0  0  0  0  0  0  0  0  0
    2.2630    0.4765    0.4858 C   0  0  0  0  0  0  0  0  0  0  0  0
    2.6138    0.6003   -0.8459 O   0  0  0  0  0  0  0  0  0  0  0  0
    4.2349    1.0755   -0.8938 P   0  0  0  0  0  0  0  0  0  0  0  0
    4.4209    2.6166   -0.1852 O   0  0  0  0  0  0  0  0  0  0  0  0
    5.1384   -0.0546   -0.0174 O   0  0  0  0  0  0  0  0  0  0  0  0
    4.6541    1.1484   -2.3306 O   0  0  0  0  0  0  0  0  0  0  0  0
    0.5813   -1.3232    0.0380 C   0  0  1  0  0  0  0  0  0  0  0  0
    1.2635   -2.2511    0.8410 O   0  0  0  0  0  0  0  0  0  0  0  0
   -0.9084   -1.6112    0.1585 C   0  0  2  0  0  0  0  0  0  0  0  0
   -1.1347   -2.7827   -0.5663 O   0  0  0  0  0  0  0  0  0  0  0  0
   -4.4142    2.0340    1.5438 H   0  0  0  0  0  0  0  0  0  0  0  0
   -4.1735    0.5976    2.5488 H   0  0  0  0  0  0  0  0  0  0  0  0
   -5.7455    0.7750    1.6643 H   0  0  0  0  0  0  0  0  0  0  0  0
   -1.9785    0.3806    1.3235 H   0  0  0  0  0  0  0  0  0  0  0  0
   -2.3508   -0.8836   -1.3062 H   0  0  0  0  0  0  0  0  0  0  0  0
   -1.5324    1.4124   -1.2037 H   0  0  0  0  0  0  0  0  0  0  0  0
   -0.7905   -0.4134   -2.6780 H   0  0  0  0  0  0  0  0  0  0  0  0
    0.6179   -0.0247    1.7030 H   0  0  0  0  0  0  0  0  0  0  0  0
    2.4113    1.4051    1.0743 H   0  0  0  0  0  0  0  0  0  0  0  0
    2.9300   -0.2714    0.9378 H   0  0  0  0  0  0  0  0  0  0  0  0
    3.6083    3.1351   -0.4377 H   0  0  0  0  0  0  0  0  0  0  0  0
    6.0791    0.2235   -0.0365 H   0  0  0  0  0  0  0  0  0  0  0  0
    0.9510   -1.4637   -0.9834 H   0  0  0  0  0  0  0  0  0  0  0  0
    1.9772   -2.7265    0.3548 H   0  0  0  0  0  0  0  0  0  0  0  0
   -1.1713   -1.8552    1.2076 H   0  0  0  0  0  0  0  0  0  0  0  0
   -1.6366   -2.6604   -1.3945 H   0  0  0  0  0  0  0  0  0  0  0  0
  1  2  1  0
  2  3  2  0
  2  4  1  0
  4  5  1  0
  5  6  1  0
  6  7  1  0
  6  8  1  0
  8  9  1  0
  9 10  1  0
 10 11  1  0
 11 12  1  0
 12 13  1  0
 12 14  1  0
 12 15  2  0
  9 16  1  0
 16 17  1  0
 16 18  1  0
 18 19  1  0
 18  5  1  0
  1 20  1  0
  1 21  1  0
  1 22  1  0
  4 23  1  0
  5 24  1  6
  6 25  1  0
  7 26  1  0
  9 27  1  1
 10 28  1  0
 10 29  1  0
 13 30  1  0
 14 31  1  0
 16 32  1  6
 17 33  1  0
 18 34  1  1
 19 35  1  0
M  END
$$$$
