
     RDKit          3D

 62 66  0  0  0  0  0  0  0  0999 V2000
    0.8079   -2.6980   -1.5542 C   0  0  0  0  0  0  0  0  0  0  0  0
   -0.0134   -1.6028   -0.9530 C   0  0  0  0  0  0  0  0  0  0  0  0
   -1.3091   -1.5781   -0.6664 N   0  0  0  0  0  0  0  0  0  0  0  0
   -1.6918   -0.4284   -0.1377 N   0  0  0  0  0  0  0  0  0  0  0  0
   -3.0225   -0.0505    0.2940 C   0  0  0  0  0  0  0  0  0  0  0  0
   -3.7812    0.7718   -0.6944 C   0  0  0  0  0  0  0  0  0  0  0  0
   -5.0466    1.2448   -0.0096 C   0  0  0  0  0  0  0  0  0  0  0  0
   -5.7350    0.2357    0.7237 N   0  0  0  0  0  0  0  0  0  0  0  0
   -7.1450    0.2555    0.8222 C   0  0  0  0  0  0  0  0  0  0  0  0
   -7.7234   -0.6414    1.5113 O   0  0  0  0  0  0  0  0  0  0  0  0
   -7.9541    1.2841    0.1513 C   0  0  1  0  0  0  0  0  0  0  0  0
   -7.9634    1.0491   -1.3537 C   0  0  0  0  0  0  0  0  0  0  0  0
   -9.2711    1.1758    0.6318 O   0  0  0  0  0  0  0  0  0  0  0  0
   -5.0278   -0.8585    1.4049 C   0  0  0  0  0  0  0  0  0  0  0  0
   -3.8737   -1.3031    0.5405 C   0  0  0  0  0  0  0  0  0  0  0  0
   -0.5802    0.3347   -0.0791 C   0  0  0  0  0  0  0  0  0  0  0  0
   -0.5360    1.7259    0.4543 C   0  0  0  0  0  0  0  0  0  0  0  0
    0.4896   -0.3732   -0.5831 C   0  0  0  0  0  0  0  0  0  0  0  0
    1.8382    0.0235   -0.7161 N   0  0  0  0  0  0  0  0  0  0  0  0
    2.7869   -0.1831    0.3464 C   0  0  0  0  0  0  0  0  0  0  0  0
    2.4271   -0.7411    1.5004 N   0  0  0  0  0  0  0  0  0  0  0  0
    3.3307   -0.9246    2.4896 C   0  0  0  0  0  0  0  0  0  0  0  0
    4.6592   -0.5282    2.3096 C   0  0  0  0  0  0  0  0  0  0  0  0
    5.8589   -0.7442    3.5564 Cl  0  0  0  0  0  0  0  0  0  0  0  0
    5.0067    0.0472    1.1056 C   0  0  0  0  0  0  0  0  0  0  0  0
    6.3785    0.4681    0.8853 C   0  0  0  0  0  0  0  0  0  0  0  0
    7.1356    1.3465    1.6716 C   0  0  0  0  0  0  0  0  0  0  0  0
    8.3357    1.4473    1.0901 N   0  0  0  0  0  0  0  0  0  0  0  0
    8.4106    0.6979   -0.0139 N   0  0  0  0  0  0  0  0  0  0  0  0
    9.4275    0.5155   -0.8789 C   0  0  0  0  0  0  0  0  0  0  0  0
    9.2616   -0.3188   -1.9526 C   0  0  0  0  0  0  0  0  0  0  0  0
    8.0316   -0.9516   -2.1069 C   0  0  0  0  0  0  0  0  0  0  0  0
    7.0108   -0.7550   -1.2195 C   0  0  0  0  0  0  0  0  0  0  0  0
    7.2177    0.0989   -0.1421 C   0  0  0  0  0  0  0  0  0  0  0  0
    4.0545    0.2011    0.1602 N   0  0  0  0  0  0  0  0  0  0  0  0
    0.2534   -3.1899   -2.3712 H   0  0  0  0  0  0  0  0  0  0  0  0
    1.7879   -2.2966   -1.8770 H   0  0  0  0  0  0  0  0  0  0  0  0
    0.9436   -3.4557   -0.7525 H   0  0  0  0  0  0  0  0  0  0  0  0
   -3.0068    0.4834    1.2677 H   0  0  0  0  0  0  0  0  0  0  0  0
   -3.2497    1.6886   -1.0349 H   0  0  0  0  0  0  0  0  0  0  0  0
   -4.0314    0.2096   -1.6197 H   0  0  0  0  0  0  0  0  0  0  0  0
   -4.7904    2.0740    0.7029 H   0  0  0  0  0  0  0  0  0  0  0  0
   -5.6981    1.6857   -0.7732 H   0  0  0  0  0  0  0  0  0  0  0  0
   -7.5849    2.2948    0.3327 H   0  0  0  0  0  0  0  0  0  0  0  0
   -7.3247    0.2002   -1.6624 H   0  0  0  0  0  0  0  0  0  0  0  0
   -9.0042    0.7204   -1.6174 H   0  0  0  0  0  0  0  0  0  0  0  0
   -7.7493    1.9601   -1.9361 H   0  0  0  0  0  0  0  0  0  0  0  0
   -9.3688    0.4405    1.2947 H   0  0  0  0  0  0  0  0  0  0  0  0
   -4.5855   -0.5237    2.3690 H   0  0  0  0  0  0  0  0  0  0  0  0
   -5.7476   -1.6886    1.5479 H   0  0  0  0  0  0  0  0  0  0  0  0
   -3.3115   -2.1087    1.0129 H   0  0  0  0  0  0  0  0  0  0  0  0
   -4.2281   -1.6144   -0.4855 H   0  0  0  0  0  0  0  0  0  0  0  0
    0.5150    2.0690    0.5355 H   0  0  0  0  0  0  0  0  0  0  0  0
   -1.0522    2.4441   -0.1893 H   0  0  0  0  0  0  0  0  0  0  0  0
   -0.9328    1.7392    1.5070 H   0  0  0  0  0  0  0  0  0  0  0  0
    2.1353    0.4719   -1.6052 H   0  0  0  0  0  0  0  0  0  0  0  0
    3.0449   -1.3746    3.4245 H   0  0  0  0  0  0  0  0  0  0  0  0
    6.8066    1.8444    2.5727 H   0  0  0  0  0  0  0  0  0  0  0  0
   10.3663    1.0199   -0.7318 H   0  0  0  0  0  0  0  0  0  0  0  0
   10.0554   -0.5021   -2.6831 H   0  0  0  0  0  0  0  0  0  0  0  0
    7.9188   -1.6027   -2.9548 H   0  0  0  0  0  0  0  0  0  0  0  0
    6.0438   -1.2315   -1.3100 H   0  0  0  0  0  0  0  0  0  0  0  0
  1  2  1  0
  2  3  2  0
  3  4  1  0
  4  5  1  0
  5  6  1  0
  6  7  1  0
  7  8  1  0
  8  9  1  0
  9 10  2  0
  9 11  1  0
 11 12  1  0
 11 13  1  0
  8 14  1  0
 14 15  1  0
  4 16  1  0
 16 17  1  0
 16 18  2  0
 18 19  1  0
 19 20  1  0
 20 21  2  0
 21 22  1  0
 22 23  2  0
 23 24  1  0
 23 25  1  0
 25 26  1  0
 26 27  1  0
 27 28  2  0
 28 29  1  0
 29 30  1  0
 30 31  2  0
 31 32  1  0
 32 33  2  0
 33 34  1  0
 25 35  2  0
 18  2  1  0
 35 20  1  0
 15  5  1  0
 34 26  2  0
 34 29  1  0
  1 36  1  0
  1 37  1  0
  1 38  1  0
  5 39  1  0
  6 40  1  0
  6 41  1  0
  7 42  1  0
  7 43  1  0
 11 44  1  6
 12 45  1  0
 12 46  1  0
 12 47  1  0
 13 48  1  0
 14 49  1  0
 14 50  1  0
 15 51  1  0
 15 52  1  0
 17 53  1  0
 17 54  1  0
 17 55  1  0
 19 56  1  0
 22 57  1  0
 27 58  1  0
 30 59  1  0
 31 60  1  0
 32 61  1  0
 33 62  1  0
M  END
$$$$
