
     RDKit          3D

 61 63  0  0  0  0  0  0  0  0999 V2000
    5.6859    2.2293    2.3738 C   0  0  0  0  0  0  0  0  0  0  0  0
    5.1084    0.9517    1.7258 C   0  0  0  0  0  0  0  0  0  0  0  0
    5.2365    1.1849    0.2468 C   0  0  0  0  0  0  0  0  0  0  0  0
    4.7047   -0.1148   -0.7904 S   0  0  0  0  0  6  0  0  0  0  0  0
    5.5693   -1.3577   -0.5460 O   0  0  0  0  0  0  0  0  0  0  0  0
    5.0524    0.2637   -2.2356 O   0  0  0  0  0  0  0  0  0  0  0  0
    3.0878   -0.5811   -0.6789 N   0  0  0  0  0  0  0  0  0  0  0  0
    2.6613   -1.0861    0.5717 C   0  0  0  0  0  0  0  0  0  0  0  0
    1.5787   -0.2615    1.2189 C   0  0  0  0  0  0  0  0  0  0  0  0
    0.2857   -0.3349    0.3439 C   0  0  0  0  0  0  0  0  0  0  0  0
   -0.4901    0.8670    0.8333 C   0  0  0  0  0  0  0  0  0  0  0  0
   -1.7508    1.0915    0.2007 N   0  0  0  0  0  0  0  0  0  0  0  0
   -2.5706    2.2044    0.6015 C   0  0  0  0  0  0  0  0  0  0  0  0
   -2.1550    2.9554    1.5027 O   0  0  0  0  0  0  0  0  0  0  0  0
   -3.8587    2.4716   -0.0132 C   0  0  0  0  0  0  0  0  0  0  0  0
   -4.9763    2.4532    0.7763 C   0  0  0  0  0  0  0  0  0  0  0  0
   -6.2165    2.7008    0.2379 C   0  0  0  0  0  0  0  0  0  0  0  0
   -7.3407    2.6864    1.0105 F   0  0  0  0  0  0  0  0  0  0  0  0
   -6.3763    2.9754   -1.1123 C   0  0  0  0  0  0  0  0  0  0  0  0
   -7.9629    3.2878   -1.7773 Cl  0  0  0  0  0  0  0  0  0  0  0  0
   -5.2262    2.9860   -1.8813 C   0  0  0  0  0  0  0  0  0  0  0  0
   -3.9712    2.7404   -1.3624 C   0  0  0  0  0  0  0  0  0  0  0  0
   -2.5553    2.7694   -2.3940 Cl  0  0  0  0  0  0  0  0  0  0  0  0
   -0.4527   -1.5564    0.6967 C   0  0  0  0  0  0  0  0  0  0  0  0
   -0.1766   -1.9972    1.8850 O   0  0  0  0  0  0  0  0  0  0  0  0
   -1.3722   -2.3023   -0.0138 N   0  0  0  0  0  0  0  0  0  0  0  0
   -1.8652   -2.1312   -1.3584 C   0  0  0  0  0  0  0  0  0  0  0  0
   -1.6575   -3.4581   -2.0655 C   0  0  0  0  0  0  0  0  0  0  0  0
   -0.9008   -4.3471   -1.3026 O   0  0  0  0  0  0  0  0  0  0  0  0
   -1.5636   -4.6837   -0.1160 C   0  0  0  0  0  0  0  0  0  0  0  0
   -1.9909   -3.4765    0.6578 C   0  0  0  0  0  0  0  0  0  0  0  0
    0.7551   -0.2225   -1.0541 C   0  0  0  0  0  0  0  0  0  0  0  0
    2.1545    0.3904   -1.1844 C   0  0  0  0  0  0  0  0  0  0  0  0
    5.2610    3.0703    1.7655 H   0  0  0  0  0  0  0  0  0  0  0  0
    6.7790    2.2644    2.2647 H   0  0  0  0  0  0  0  0  0  0  0  0
    5.3321    2.3522    3.3962 H   0  0  0  0  0  0  0  0  0  0  0  0
    5.6803    0.0596    1.9905 H   0  0  0  0  0  0  0  0  0  0  0  0
    4.0523    0.9268    2.0874 H   0  0  0  0  0  0  0  0  0  0  0  0
    6.3404    1.3302    0.0313 H   0  0  0  0  0  0  0  0  0  0  0  0
    4.7271    2.1527   -0.0209 H   0  0  0  0  0  0  0  0  0  0  0  0
    3.5089   -1.1656    1.2675 H   0  0  0  0  0  0  0  0  0  0  0  0
    2.2925   -2.1402    0.4245 H   0  0  0  0  0  0  0  0  0  0  0  0
    1.8768    0.7984    1.1651 H   0  0  0  0  0  0  0  0  0  0  0  0
    1.4072   -0.6267    2.2231 H   0  0  0  0  0  0  0  0  0  0  0  0
    0.1002    1.8078    0.7165 H   0  0  0  0  0  0  0  0  0  0  0  0
   -0.7150    0.6903    1.9258 H   0  0  0  0  0  0  0  0  0  0  0  0
   -2.1543    0.5123   -0.5573 H   0  0  0  0  0  0  0  0  0  0  0  0
   -4.8633    2.2370    1.8471 H   0  0  0  0  0  0  0  0  0  0  0  0
   -5.3682    3.2032   -2.9403 H   0  0  0  0  0  0  0  0  0  0  0  0
   -2.9866   -2.0144   -1.2897 H   0  0  0  0  0  0  0  0  0  0  0  0
   -1.4888   -1.2866   -1.9146 H   0  0  0  0  0  0  0  0  0  0  0  0
   -1.0298   -3.2266   -2.9670 H   0  0  0  0  0  0  0  0  0  0  0  0
   -2.5927   -3.8996   -2.4473 H   0  0  0  0  0  0  0  0  0  0  0  0
   -2.4362   -5.3136   -0.4355 H   0  0  0  0  0  0  0  0  0  0  0  0
   -0.8901   -5.2939    0.4890 H   0  0  0  0  0  0  0  0  0  0  0  0
   -3.0808   -3.3361    0.5155 H   0  0  0  0  0  0  0  0  0  0  0  0
   -1.7052   -3.5096    1.7222 H   0  0  0  0  0  0  0  0  0  0  0  0
    0.8458   -1.1983   -1.5820 H   0  0  0  0  0  0  0  0  0  0  0  0
    0.0977    0.4531   -1.6310 H   0  0  0  0  0  0  0  0  0  0  0  0
    2.2285    1.3865   -0.7509 H   0  0  0  0  0  0  0  0  0  0  0  0
    2.3313    0.4682   -2.2923 H   0  0  0  0  0  0  0  0  0  0  0  0
  1  2  1  0
  2  3  1  0
  3  4  1  0
  4  5  2  0
  4  6  2  0
  4  7  1  0
  7  8  1  0
  8  9  1  0
  9 10  1  0
 10 11  1  0
 11 12  1  0
 12 13  1  0
 13 14  2  0
 13 15  1  0
 15 16  2  0
 16 17  1  0
 17 18  1  0
 17 19  2  0
 19 20  1  0
 19 21  1  0
 21 22  2  0
 22 23  1  0
 10 24  1  0
 24 25  2  0
 24 26  1  0
 26 27  1  0
 27 28  1  0
 28 29  1  0
 29 30  1  0
 30 31  1  0
 10 32  1  0
 32 33  1  0
 33  7  1  0
 22 15  1  0
 31 26  1  0
  1 34  1  0
  1 35  1  0
  1 36  1  0
  2 37  1  0
  2 38  1  0
  3 39  1  0
  3 40  1  0
  8 41  1  0
  8 42  1  0
  9 43  1  0
  9 44  1  0
 11 45  1  0
 11 46  1  0
 12 47  1  0
 16 48  1  0
 21 49  1  0
 27 50  1  0
 27 51  1  0
 28 52  1  0
 28 53  1  0
 30 54  1  0
 30 55  1  0
 31 56  1  0
 31 57  1  0
 32 58  1  0
 32 59  1  0
 33 60  1  0
 33 61  1  0
M  END
$$$$
