
     RDKit          3D

 29 30  0  0  0  0  0  0  0  0999 V2000
    6.1770    0.2747   -0.0238 O   0  0  0  0  0  0  0  0  0  0  0  0
    4.7869    0.1145    0.0013 C   0  0  0  0  0  0  0  0  0  0  0  0
    3.9326    1.1165   -0.4101 C   0  0  0  0  0  0  0  0  0  0  0  0
    2.5402    0.9613   -0.3871 C   0  0  0  0  0  0  0  0  0  0  0  0
    1.9821   -0.1968    0.0472 C   0  0  0  0  0  0  0  0  0  0  0  0
    0.5383   -0.4261    0.0976 C   0  0  0  0  0  0  0  0  0  0  0  0
   -0.3596    0.4387   -0.2617 C   0  0  0  0  0  0  0  0  0  0  0  0
   -1.8010    0.2093   -0.2112 C   0  0  0  0  0  0  0  0  0  0  0  0
   -2.3715   -0.9616    0.2276 C   0  0  0  0  0  0  0  0  0  0  0  0
   -3.7418   -1.1859    0.2780 C   0  0  0  0  0  0  0  0  0  0  0  0
   -4.2925   -2.3751    0.7245 O   0  0  0  0  0  0  0  0  0  0  0  0
   -4.5759   -0.1774   -0.1353 C   0  0  0  0  0  0  0  0  0  0  0  0
   -4.0577    1.0275   -0.5888 C   0  0  0  0  0  0  0  0  0  0  0  0
   -4.9497    2.0041   -0.9912 O   0  0  0  0  0  0  0  0  0  0  0  0
   -2.6973    1.1982   -0.6186 C   0  0  0  0  0  0  0  0  0  0  0  0
    2.8447   -1.1947    0.4572 C   0  0  0  0  0  0  0  0  0  0  0  0
    4.2174   -1.0617    0.4422 C   0  0  0  0  0  0  0  0  0  0  0  0
    6.6229    0.7719    0.7391 H   0  0  0  0  0  0  0  0  0  0  0  0
    4.3508    2.0475   -0.7600 H   0  0  0  0  0  0  0  0  0  0  0  0
    1.9365    1.7910   -0.7249 H   0  0  0  0  0  0  0  0  0  0  0  0
    0.1897   -1.3924    0.4631 H   0  0  0  0  0  0  0  0  0  0  0  0
   -0.0390    1.4034   -0.6273 H   0  0  0  0  0  0  0  0  0  0  0  0
   -1.7628   -1.7785    0.5607 H   0  0  0  0  0  0  0  0  0  0  0  0
   -3.7134   -3.1852    0.9386 H   0  0  0  0  0  0  0  0  0  0  0  0
   -5.6521   -0.3046   -0.1147 H   0  0  0  0  0  0  0  0  0  0  0  0
   -5.1599    2.7385   -0.3342 H   0  0  0  0  0  0  0  0  0  0  0  0
   -2.2861    2.1438   -0.9744 H   0  0  0  0  0  0  0  0  0  0  0  0
    2.4476   -2.1490    0.8167 H   0  0  0  0  0  0  0  0  0  0  0  0
    4.8938   -1.8521    0.7668 H   0  0  0  0  0  0  0  0  0  0  0  0
  1  2  1  0
  2  3  2  0
  3  4  1  0
  4  5  2  0
  5  6  1  0
  6  7  2  0
  7  8  1  0
  8  9  2  0
  9 10  1  0
 10 11  1  0
 10 12  2  0
 12 13  1  0
 13 14  1  0
 13 15  2  0
  5 16  1  0
 16 17  2  0
 17  2  1  0
 15  8  1  0
  1 18  1  0
  3 19  1  0
  4 20  1  0
  6 21  1  0
  7 22  1  0
  9 23  1  0
 11 24  1  0
 12 25  1  0
 14 26  1  0
 15 27  1  0
 16 28  1  0
 17 29  1  0
M  END
$$$$
