
     RDKit          3D

 77 82  0  0  0  0  0  0  0  0999 V2000
  -10.0317    0.9364    1.1698 C   0  0  0  0  0  0  0  0  0  0  0  0
   -8.6211    1.0778    0.8726 N   0  0  0  0  0  0  0  0  0  0  0  0
   -8.2219    2.2168    0.0577 C   0  0  0  0  0  0  0  0  0  0  0  0
   -7.6786    0.1359    1.3603 C   0  0  0  0  0  0  0  0  0  0  0  0
   -8.0801   -0.8171    2.0500 O   0  0  0  0  0  0  0  0  0  0  0  0
   -6.2508    0.2472    1.0791 C   0  0  0  0  0  0  0  0  0  0  0  0
   -5.4838    1.2830    1.6266 C   0  0  0  0  0  0  0  0  0  0  0  0
   -4.2038    1.1053    1.1604 C   0  0  0  0  0  0  0  0  0  0  0  0
   -2.9769    1.7499    1.2934 C   0  0  0  0  0  0  0  0  0  0  0  0
   -1.8846    1.2882    0.6614 N   0  0  0  0  0  0  0  0  0  0  0  0
   -1.8844    0.2111   -0.1188 C   0  0  0  0  0  0  0  0  0  0  0  0
   -0.7683   -0.2873   -0.8187 N   0  0  0  0  0  0  0  0  0  0  0  0
    0.5017    0.2945   -0.8898 C   0  0  0  0  0  0  0  0  0  0  0  0
    0.8364    1.4592   -0.2478 C   0  0  0  0  0  0  0  0  0  0  0  0
    2.1243    1.9942   -0.3935 C   0  0  0  0  0  0  0  0  0  0  0  0
    3.0304    1.3362   -1.1819 C   0  0  0  0  0  0  0  0  0  0  0  0
    4.3509    1.8800   -1.3656 C   0  0  0  0  0  0  0  0  0  0  0  0
    4.5256    2.9516   -2.0370 O   0  0  0  0  0  0  0  0  0  0  0  0
    5.5117    1.2599   -0.8137 N   0  0  0  0  0  0  0  0  0  0  0  0
    6.8006    1.8919   -1.0439 C   0  0  0  0  0  0  0  0  0  0  0  0
    7.9667    1.1676   -0.4811 C   0  0  0  0  0  0  0  0  0  0  0  0
    8.0803    1.3461    1.0141 C   0  0  0  0  0  0  0  0  0  0  0  0
    7.1058    0.3669    1.5706 C   0  0  0  0  0  0  0  0  0  0  0  0
    6.6504   -0.5128    0.4249 C   0  0  0  0  0  0  0  0  0  0  0  0
    5.3340    0.0429   -0.0629 C   0  0  0  0  0  0  0  0  0  0  0  0
    7.7593   -0.3448   -0.5894 C   0  0  0  0  0  0  0  0  0  0  0  0
    8.9321   -1.0126   -0.0875 N   0  0  0  0  0  0  0  0  0  0  0  0
    8.7565   -2.4446   -0.1810 C   0  0  0  0  0  0  0  0  0  0  0  0
   10.1200   -0.6782   -0.8529 C   0  0  0  0  0  0  0  0  0  0  0  0
    2.6614    0.1745   -1.8072 C   0  0  0  0  0  0  0  0  0  0  0  0
    1.4357   -0.3488   -1.6774 N   0  0  0  0  0  0  0  0  0  0  0  0
   -3.0988   -0.4111   -0.2380 N   0  0  0  0  0  0  0  0  0  0  0  0
   -4.2200    0.0003    0.3653 C   0  0  0  0  0  0  0  0  0  0  0  0
   -5.4825   -0.5246    0.3187 N   0  0  0  0  0  0  0  0  0  0  0  0
   -5.8727   -1.6892   -0.4223 C   0  0  0  0  0  0  0  0  0  0  0  0
   -6.1811   -2.8694    0.4666 C   0  0  0  0  0  0  0  0  0  0  0  0
   -7.5423   -3.3737    0.0924 C   0  0  0  0  0  0  0  0  0  0  0  0
   -8.1603   -2.3702   -0.8386 C   0  0  0  0  0  0  0  0  0  0  0  0
   -7.0573   -1.4653   -1.3092 C   0  0  0  0  0  0  0  0  0  0  0  0
  -10.2006    0.5729    2.2045 H   0  0  0  0  0  0  0  0  0  0  0  0
  -10.4610    0.2272    0.4255 H   0  0  0  0  0  0  0  0  0  0  0  0
  -10.5483    1.9001    0.9976 H   0  0  0  0  0  0  0  0  0  0  0  0
   -7.1680    2.0126   -0.2672 H   0  0  0  0  0  0  0  0  0  0  0  0
   -8.2171    3.1359    0.6893 H   0  0  0  0  0  0  0  0  0  0  0  0
   -8.8413    2.2928   -0.8470 H   0  0  0  0  0  0  0  0  0  0  0  0
   -5.7949    2.0792    2.2859 H   0  0  0  0  0  0  0  0  0  0  0  0
   -2.9747    2.6292    1.9314 H   0  0  0  0  0  0  0  0  0  0  0  0
   -0.9151   -1.2074   -1.3452 H   0  0  0  0  0  0  0  0  0  0  0  0
    0.1522    2.0098    0.3817 H   0  0  0  0  0  0  0  0  0  0  0  0
    2.3439    2.9122    0.1252 H   0  0  0  0  0  0  0  0  0  0  0  0
    6.9284    2.0259   -2.1382 H   0  0  0  0  0  0  0  0  0  0  0  0
    6.8168    2.9417   -0.6341 H   0  0  0  0  0  0  0  0  0  0  0  0
    8.8977    1.4721   -1.0071 H   0  0  0  0  0  0  0  0  0  0  0  0
    9.1371    1.0826    1.2902 H   0  0  0  0  0  0  0  0  0  0  0  0
    7.8478    2.3982    1.2869 H   0  0  0  0  0  0  0  0  0  0  0  0
    7.6246   -0.2779    2.3353 H   0  0  0  0  0  0  0  0  0  0  0  0
    6.2751    0.9144    2.0555 H   0  0  0  0  0  0  0  0  0  0  0  0
    6.5342   -1.5681    0.7401 H   0  0  0  0  0  0  0  0  0  0  0  0
    4.6760    0.2581    0.8283 H   0  0  0  0  0  0  0  0  0  0  0  0
    4.8799   -0.7870   -0.6726 H   0  0  0  0  0  0  0  0  0  0  0  0
    7.4790   -0.6457   -1.6061 H   0  0  0  0  0  0  0  0  0  0  0  0
    8.0084   -2.6861   -0.9794 H   0  0  0  0  0  0  0  0  0  0  0  0
    9.7031   -2.9350   -0.5192 H   0  0  0  0  0  0  0  0  0  0  0  0
    8.4149   -2.9074    0.7575 H   0  0  0  0  0  0  0  0  0  0  0  0
   10.7649   -1.5629   -0.9981 H   0  0  0  0  0  0  0  0  0  0  0  0
    9.8630   -0.2676   -1.8539 H   0  0  0  0  0  0  0  0  0  0  0  0
   10.6361    0.1410   -0.3135 H   0  0  0  0  0  0  0  0  0  0  0  0
    3.3764   -0.3590   -2.4488 H   0  0  0  0  0  0  0  0  0  0  0  0
   -5.0232   -2.0151   -1.0934 H   0  0  0  0  0  0  0  0  0  0  0  0
   -6.0590   -2.6003    1.5191 H   0  0  0  0  0  0  0  0  0  0  0  0
   -5.4634   -3.7260    0.2954 H   0  0  0  0  0  0  0  0  0  0  0  0
   -8.1493   -3.4220    1.0283 H   0  0  0  0  0  0  0  0  0  0  0  0
   -7.5039   -4.3861   -0.3855 H   0  0  0  0  0  0  0  0  0  0  0  0
   -8.9913   -1.8364   -0.3400 H   0  0  0  0  0  0  0  0  0  0  0  0
   -8.6365   -2.9359   -1.6869 H   0  0  0  0  0  0  0  0  0  0  0  0
   -6.8477   -1.7339   -2.3819 H   0  0  0  0  0  0  0  0  0  0  0  0
   -7.3465   -0.4137   -1.3124 H   0  0  0  0  0  0  0  0  0  0  0  0
  1  2  1  0
  2  3  1  0
  2  4  1  0
  4  5  2  0
  4  6  1  0
  6  7  2  0
  7  8  1  0
  8  9  2  0
  9 10  1  0
 10 11  2  0
 11 12  1  0
 12 13  1  0
 13 14  2  0
 14 15  1  0
 15 16  2  0
 16 17  1  0
 17 18  2  0
 17 19  1  0
 19 20  1  0
 20 21  1  0
 21 22  1  0
 22 23  1  0
 23 24  1  0
 24 25  1  0
 24 26  1  0
 26 27  1  0
 27 28  1  0
 27 29  1  0
 16 30  1  0
 30 31  2  0
 11 32  1  0
 32 33  2  0
 33 34  1  0
 34 35  1  0
 35 36  1  0
 36 37  1  0
 37 38  1  0
 38 39  1  0
 34  6  1  0
 39 35  1  0
 33  8  1  0
 31 13  1  0
 25 19  1  0
 26 21  1  0
  1 40  1  0
  1 41  1  0
  1 42  1  0
  3 43  1  0
  3 44  1  0
  3 45  1  0
  7 46  1  0
  9 47  1  0
 12 48  1  0
 14 49  1  0
 15 50  1  0
 20 51  1  0
 20 52  1  0
 21 53  1  0
 22 54  1  0
 22 55  1  0
 23 56  1  0
 23 57  1  0
 24 58  1  0
 25 59  1  0
 25 60  1  0
 26 61  1  0
 28 62  1  0
 28 63  1  0
 28 64  1  0
 29 65  1  0
 29 66  1  0
 29 67  1  0
 30 68  1  0
 35 69  1  0
 36 70  1  0
 36 71  1  0
 37 72  1  0
 37 73  1  0
 38 74  1  0
 38 75  1  0
 39 76  1  0
 39 77  1  0
M  END
$$$$
