
     RDKit          3D

 56 56  0  0  0  0  0  0  0  0999 V2000
   -0.6924    3.4778    0.9495 C   0  0  2  0  0  0  0  0  0  0  0  0
    0.1420    3.5162    2.2367 C   0  0  0  0  0  0  0  0  0  0  0  0
   -0.5144    2.1818    0.3835 N   0  0  0  0  0  0  0  0  0  0  0  0
   -1.4613    1.3448    0.3142 C   0  0  0  0  0  0  0  0  0  0  0  0
   -2.6818    1.7569    0.8200 O   0  0  0  0  0  0  0  0  0  0  0  0
   -1.2135   -0.0072   -0.2947 C   0  0  2  0  0  0  0  0  0  0  0  0
   -1.5042   -1.0922    0.7292 C   0  0  0  0  0  0  0  0  0  0  0  0
   -1.2672   -2.4699    0.1637 C   0  0  0  0  0  0  0  0  0  0  0  0
   -2.1413   -2.7418   -1.0202 C   0  0  0  0  0  0  0  0  0  0  0  0
   -3.5412   -2.6760   -0.8217 N   0  0  0  0  0  0  0  0  0  0  0  0
   -4.0320   -3.7408   -0.0090 C   0  0  0  0  0  0  0  0  0  0  0  0
   -5.4990   -3.6867    0.0075 N   0  0  0  0  0  0  0  0  0  0  0  0
   -3.5447   -3.5998    1.3598 N   0  0  0  0  0  0  0  0  0  0  0  0
    0.1771   -0.1614   -0.6514 N   0  0  0  0  0  0  0  0  0  0  0  0
    0.6007    0.4070   -1.7243 C   0  0  0  0  0  0  0  0  0  0  0  0
   -0.2245    1.1706   -2.5660 O   0  0  0  0  0  0  0  0  0  0  0  0
    1.9267    0.0548   -1.7440 O   0  0  0  0  0  0  0  0  0  0  0  0
    2.7839    0.4135   -0.6994 C   0  0  0  0  0  0  0  0  0  0  0  0
    4.1150   -0.2706   -0.8869 C   0  0  0  0  0  0  0  0  0  0  0  0
    4.2989   -1.5253   -0.3098 C   0  0  0  0  0  0  0  0  0  0  0  0
    5.4776   -2.2304   -0.4245 C   0  0  0  0  0  0  0  0  0  0  0  0
    6.4764   -1.6337   -1.1426 C   0  0  0  0  0  0  0  0  0  0  0  0
    6.3411   -0.3825   -1.7380 C   0  0  0  0  0  0  0  0  0  0  0  0
    5.1561    0.2813   -1.5990 C   0  0  0  0  0  0  0  0  0  0  0  0
   -0.1531    4.5654    0.0820 C   0  0  0  0  0  0  0  0  0  0  0  0
    0.3592    4.2528   -0.9876 O   0  0  0  0  0  0  0  0  0  0  0  0
   -0.2601    5.9750    0.5493 C   0  0  0  0  0  0  0  0  0  0  0  0
   -1.4557    6.5572    0.1318 F   0  0  0  0  0  0  0  0  0  0  0  0
   -1.7451    3.7640    1.1482 H   0  0  0  0  0  0  0  0  0  0  0  0
    1.1731    3.8167    1.9492 H   0  0  0  0  0  0  0  0  0  0  0  0
    0.1932    2.4995    2.6670 H   0  0  0  0  0  0  0  0  0  0  0  0
   -0.3530    4.2334    2.9097 H   0  0  0  0  0  0  0  0  0  0  0  0
   -2.7673    2.1366    1.7769 H   0  0  0  0  0  0  0  0  0  0  0  0
   -1.8911   -0.1283   -1.1490 H   0  0  0  0  0  0  0  0  0  0  0  0
   -0.9351   -0.9392    1.6649 H   0  0  0  0  0  0  0  0  0  0  0  0
   -2.5773   -1.0100    0.9935 H   0  0  0  0  0  0  0  0  0  0  0  0
   -0.1854   -2.5484   -0.1803 H   0  0  0  0  0  0  0  0  0  0  0  0
   -1.3351   -3.2066    0.9744 H   0  0  0  0  0  0  0  0  0  0  0  0
   -1.8972   -2.0305   -1.8699 H   0  0  0  0  0  0  0  0  0  0  0  0
   -1.8610   -3.7541   -1.4500 H   0  0  0  0  0  0  0  0  0  0  0  0
   -3.8215   -1.7563   -0.4397 H   0  0  0  0  0  0  0  0  0  0  0  0
   -3.6732   -4.7124   -0.3839 H   0  0  0  0  0  0  0  0  0  0  0  0
   -5.8057   -3.4828   -0.9707 H   0  0  0  0  0  0  0  0  0  0  0  0
   -5.8881   -4.6335    0.2345 H   0  0  0  0  0  0  0  0  0  0  0  0
   -4.2425   -3.0974    1.9484 H   0  0  0  0  0  0  0  0  0  0  0  0
   -3.2181   -4.4972    1.7552 H   0  0  0  0  0  0  0  0  0  0  0  0
   -1.1825    1.3433   -2.3377 H   0  0  0  0  0  0  0  0  0  0  0  0
    2.9637    1.5088   -0.6309 H   0  0  0  0  0  0  0  0  0  0  0  0
    2.3958    0.0619    0.2752 H   0  0  0  0  0  0  0  0  0  0  0  0
    3.4795   -1.9709    0.2566 H   0  0  0  0  0  0  0  0  0  0  0  0
    5.6311   -3.2033    0.0189 H   0  0  0  0  0  0  0  0  0  0  0  0
    7.4123   -2.1592   -1.2511 H   0  0  0  0  0  0  0  0  0  0  0  0
    7.1175    0.1016   -2.3079 H   0  0  0  0  0  0  0  0  0  0  0  0
    4.9564    1.2613   -2.0261 H   0  0  0  0  0  0  0  0  0  0  0  0
    0.5882    6.5876    0.1327 H   0  0  0  0  0  0  0  0  0  0  0  0
   -0.1999    6.0786    1.6324 H   0  0  0  0  0  0  0  0  0  0  0  0
  1  2  1  0
  1  3  1  0
  3  4  2  3
  4  5  1  0
  4  6  1  0
  6  7  1  0
  7  8  1  0
  8  9  1  0
  9 10  1  0
 10 11  1  0
 11 12  1  0
 11 13  1  0
  6 14  1  0
 14 15  2  3
 15 16  1  0
 15 17  1  0
 17 18  1  0
 18 19  1  0
 19 20  2  0
 20 21  1  0
 21 22  2  0
 22 23  1  0
 23 24  2  0
  1 25  1  0
 25 26  2  0
 25 27  1  0
 27 28  1  0
 24 19  1  0
  1 29  1  1
  2 30  1  0
  2 31  1  0
  2 32  1  0
  5 33  1  0
  6 34  1  6
  7 35  1  0
  7 36  1  0
  8 37  1  0
  8 38  1  0
  9 39  1  0
  9 40  1  0
 10 41  1  0
 11 42  1  0
 12 43  1  0
 12 44  1  0
 13 45  1  0
 13 46  1  0
 16 47  1  0
 18 48  1  0
 18 49  1  0
 20 50  1  0
 21 51  1  0
 22 52  1  0
 23 53  1  0
 24 54  1  0
 27 55  1  0
 27 56  1  0
M  END
$$$$
