
     RDKit          3D

 67 68  0  0  0  0  0  0  0  0999 V2000
    8.6641   -1.0209   -1.1926 C   0  0  0  0  0  0  0  0  0  0  0  0
    7.9489    0.2443   -0.7004 C   0  0  0  0  0  0  0  0  0  0  0  0
    7.0472   -0.1378    0.4764 C   0  0  0  0  0  0  0  0  0  0  0  0
    6.3398    1.0927    0.9855 C   0  0  0  0  0  0  0  0  0  0  0  0
    5.4983    1.7080   -0.0493 C   0  0  0  0  0  0  0  0  0  0  0  0
    4.4431    0.9503   -0.6988 C   0  0  0  0  0  0  0  0  0  0  0  0
    3.2524    0.4201   -0.0011 C   0  0  0  0  0  0  0  0  0  0  0  0
    3.4743   -0.5879    1.0266 C   0  0  0  0  0  0  0  0  0  0  0  0
    2.3280   -1.1846    1.7493 C   0  0  0  0  0  0  0  0  0  0  0  0
    1.3159   -2.0040    1.0980 C   0  0  0  0  0  0  0  0  0  0  0  0
    0.4495   -1.4709    0.0291 C   0  0  0  0  0  0  0  0  0  0  0  0
   -0.3361   -0.3160    0.3778 N   0  0  0  0  0  0  0  0  0  0  0  0
   -1.5733   -0.3283    0.9093 C   0  0  0  0  0  0  0  0  0  0  0  0
   -1.9315    0.9923    1.0703 C   0  0  0  0  0  0  0  0  0  0  0  0
   -3.2449    1.4258    1.6370 C   0  0  0  0  0  0  0  0  0  0  0  0
   -4.2511    1.5925    0.6300 N   0  0  0  0  0  0  0  0  0  0  0  0
   -4.5455    0.4125   -0.1215 C   0  0  1  0  0  0  0  0  0  0  0  0
   -5.0470   -0.7243    0.7258 C   0  0  2  0  0  0  0  0  0  0  0  0
   -4.9944   -1.8956   -0.0194 O   0  0  0  0  0  0  0  0  0  0  0  0
   -6.4812   -0.4407    1.1914 C   0  0  1  0  0  0  0  0  0  0  0  0
   -6.3727    0.6923    2.0286 O   0  0  0  0  0  0  0  0  0  0  0  0
   -7.4029   -0.1693    0.0488 C   0  0  2  0  0  0  0  0  0  0  0  0
   -8.4989   -1.0381    0.0574 O   0  0  0  0  0  0  0  0  0  0  0  0
   -6.7002   -0.1595   -1.2808 C   0  0  1  0  0  0  0  0  0  0  0  0
   -7.6057    0.4137   -2.2036 O   0  0  0  0  0  0  0  0  0  0  0  0
   -5.5265    0.7629   -1.2019 C   0  0  2  0  0  0  0  0  0  0  0  0
   -4.9257    0.7822   -2.4766 O   0  0  0  0  0  0  0  0  0  0  0  0
   -0.9303    1.7652    0.6443 N   0  0  0  0  0  0  0  0  0  0  0  0
    0.0143    0.9466    0.2341 N   0  0  0  0  0  0  0  0  0  0  0  0
    9.0258   -0.8081   -2.2223 H   0  0  0  0  0  0  0  0  0  0  0  0
    9.5373   -1.2286   -0.5375 H   0  0  0  0  0  0  0  0  0  0  0  0
    7.9513   -1.8697   -1.2158 H   0  0  0  0  0  0  0  0  0  0  0  0
    8.7192    0.9697   -0.4017 H   0  0  0  0  0  0  0  0  0  0  0  0
    7.3387    0.6353   -1.5260 H   0  0  0  0  0  0  0  0  0  0  0  0
    6.3096   -0.8725    0.1527 H   0  0  0  0  0  0  0  0  0  0  0  0
    7.6505   -0.5809    1.2955 H   0  0  0  0  0  0  0  0  0  0  0  0
    7.1976    1.8970    1.1621 H   0  0  0  0  0  0  0  0  0  0  0  0
    5.8874    0.9462    1.9651 H   0  0  0  0  0  0  0  0  0  0  0  0
    6.2127    2.1494   -0.8408 H   0  0  0  0  0  0  0  0  0  0  0  0
    5.0546    2.6775    0.3881 H   0  0  0  0  0  0  0  0  0  0  0  0
    4.0204    1.6181   -1.5530 H   0  0  0  0  0  0  0  0  0  0  0  0
    4.9035    0.0585   -1.2683 H   0  0  0  0  0  0  0  0  0  0  0  0
    2.7474    1.3512    0.4819 H   0  0  0  0  0  0  0  0  0  0  0  0
    2.5391    0.0994   -0.8130 H   0  0  0  0  0  0  0  0  0  0  0  0
    4.0762   -1.4314    0.5759 H   0  0  0  0  0  0  0  0  0  0  0  0
    4.1156   -0.1192    1.8399 H   0  0  0  0  0  0  0  0  0  0  0  0
    1.7934   -0.3589    2.3286 H   0  0  0  0  0  0  0  0  0  0  0  0
    2.7987   -1.7718    2.6182 H   0  0  0  0  0  0  0  0  0  0  0  0
    1.8059   -2.9392    0.6414 H   0  0  0  0  0  0  0  0  0  0  0  0
    0.6993   -2.4813    1.9314 H   0  0  0  0  0  0  0  0  0  0  0  0
   -0.3478   -2.2806   -0.2231 H   0  0  0  0  0  0  0  0  0  0  0  0
    0.9563   -1.3184   -0.9126 H   0  0  0  0  0  0  0  0  0  0  0  0
   -2.1350   -1.2192    1.1459 H   0  0  0  0  0  0  0  0  0  0  0  0
   -3.4982    0.7346    2.4411 H   0  0  0  0  0  0  0  0  0  0  0  0
   -3.0542    2.4472    2.0689 H   0  0  0  0  0  0  0  0  0  0  0  0
   -3.9099    2.3184   -0.0394 H   0  0  0  0  0  0  0  0  0  0  0  0
   -3.6245    0.0243   -0.6476 H   0  0  0  0  0  0  0  0  0  0  0  0
   -4.4588   -0.8714    1.6305 H   0  0  0  0  0  0  0  0  0  0  0  0
   -4.2979   -2.4972    0.3152 H   0  0  0  0  0  0  0  0  0  0  0  0
   -6.7895   -1.2753    1.8364 H   0  0  0  0  0  0  0  0  0  0  0  0
   -6.6384    1.5195    1.5185 H   0  0  0  0  0  0  0  0  0  0  0  0
   -7.8440    0.8605    0.1781 H   0  0  0  0  0  0  0  0  0  0  0  0
   -8.8694   -0.9852    0.9896 H   0  0  0  0  0  0  0  0  0  0  0  0
   -6.4730   -1.1608   -1.6737 H   0  0  0  0  0  0  0  0  0  0  0  0
   -8.4545   -0.0942   -2.2308 H   0  0  0  0  0  0  0  0  0  0  0  0
   -5.9400    1.8028   -1.0641 H   0  0  0  0  0  0  0  0  0  0  0  0
   -5.4138    1.3306   -3.1105 H   0  0  0  0  0  0  0  0  0  0  0  0
  1  2  1  0
  2  3  1  0
  3  4  1  0
  4  5  1  0
  5  6  1  0
  6  7  1  0
  7  8  1  0
  8  9  1  0
  9 10  1  0
 10 11  1  0
 11 12  1  0
 12 13  1  0
 13 14  2  0
 14 15  1  0
 15 16  1  0
 16 17  1  0
 17 18  1  0
 18 19  1  0
 18 20  1  0
 20 21  1  0
 20 22  1  0
 22 23  1  0
 22 24  1  0
 24 25  1  0
 24 26  1  0
 26 27  1  0
 14 28  1  0
 28 29  2  0
 29 12  1  0
 26 17  1  0
  1 30  1  0
  1 31  1  0
  1 32  1  0
  2 33  1  0
  2 34  1  0
  3 35  1  0
  3 36  1  0
  4 37  1  0
  4 38  1  0
  5 39  1  0
  5 40  1  0
  6 41  1  0
  6 42  1  0
  7 43  1  0
  7 44  1  0
  8 45  1  0
  8 46  1  0
  9 47  1  0
  9 48  1  0
 10 49  1  0
 10 50  1  0
 11 51  1  0
 11 52  1  0
 13 53  1  0
 15 54  1  0
 15 55  1  0
 16 56  1  0
 17 57  1  6
 18 58  1  1
 19 59  1  0
 20 60  1  1
 21 61  1  0
 22 62  1  1
 23 63  1  0
 24 64  1  6
 25 65  1  0
 26 66  1  1
 27 67  1  0
M  END
$$$$
