
     RDKit          3D

 42 44  0  0  0  0  0  0  0  0999 V2000
   -6.5002   -0.2799   -0.9825 C   0  0  0  0  0  0  0  0  0  0  0  0
   -5.5461    0.6467   -0.2909 C   0  0  0  0  0  0  0  0  0  0  0  0
   -5.8411    1.9801   -0.0943 C   0  0  0  0  0  0  0  0  0  0  0  0
   -4.9810    2.8417    0.5382 C   0  0  0  0  0  0  0  0  0  0  0  0
   -3.7954    2.3465    0.9816 C   0  0  0  0  0  0  0  0  0  0  0  0
   -2.9046    3.1462    1.6128 F   0  0  0  0  0  0  0  0  0  0  0  0
   -3.4485    1.0029    0.8060 C   0  0  0  0  0  0  0  0  0  0  0  0
   -2.2236    0.4756    1.3519 C   0  0  0  0  0  0  0  0  0  0  0  0
   -1.9148    0.7339    2.5611 O   0  0  0  0  0  0  0  0  0  0  0  0
   -1.3553   -0.3224    0.5651 N   0  0  0  0  0  0  0  0  0  0  0  0
   -0.3026   -0.9800    1.0603 N   0  0  0  0  0  0  0  0  0  0  0  0
    0.3801   -1.5688    0.0821 C   0  0  0  0  0  0  0  0  0  0  0  0
    1.5573   -2.3708    0.1866 N   0  0  0  0  0  0  0  0  0  0  0  0
    2.8280   -1.7398    0.2949 C   0  0  0  0  0  0  0  0  0  0  0  0
    2.9353   -0.3683    0.3718 C   0  0  0  0  0  0  0  0  0  0  0  0
    4.1615    0.2792    0.4853 C   0  0  0  0  0  0  0  0  0  0  0  0
    5.3272   -0.4399    0.5252 C   0  0  0  0  0  0  0  0  0  0  0  0
    6.9125    0.2841    0.6887 S   0  0  0  0  0  6  0  0  0  0  0  0
    7.5736    0.7798   -0.8200 N   0  0  0  0  0  0  0  0  0  0  0  0
    6.8332    1.4497    1.6102 O   0  0  0  0  0  0  0  0  0  0  0  0
    7.8605   -0.7797    1.2313 O   0  0  0  0  0  0  0  0  0  0  0  0
    5.2254   -1.8135    0.4481 C   0  0  0  0  0  0  0  0  0  0  0  0
    4.0027   -2.4612    0.3347 C   0  0  0  0  0  0  0  0  0  0  0  0
   -0.2704   -1.2656   -1.0507 N   0  0  0  0  0  0  0  0  0  0  0  0
   -1.3451   -0.4919   -0.7481 C   0  0  0  0  0  0  0  0  0  0  0  0
   -2.2379    0.0618   -1.7187 N   0  0  0  0  0  0  0  0  0  0  0  0
   -4.3330    0.1643    0.1705 C   0  0  0  0  0  0  0  0  0  0  0  0
   -4.1317   -1.1815    0.0126 F   0  0  0  0  0  0  0  0  0  0  0  0
   -7.5217    0.1350   -0.9400 H   0  0  0  0  0  0  0  0  0  0  0  0
   -6.4244   -1.2781   -0.4866 H   0  0  0  0  0  0  0  0  0  0  0  0
   -6.1655   -0.3967   -2.0300 H   0  0  0  0  0  0  0  0  0  0  0  0
   -6.7918    2.3792   -0.4511 H   0  0  0  0  0  0  0  0  0  0  0  0
   -5.2657    3.8927    0.6695 H   0  0  0  0  0  0  0  0  0  0  0  0
    1.4567   -3.4027    0.1793 H   0  0  0  0  0  0  0  0  0  0  0  0
    2.0033    0.1963    0.3394 H   0  0  0  0  0  0  0  0  0  0  0  0
    4.2182    1.3467    0.5430 H   0  0  0  0  0  0  0  0  0  0  0  0
    6.8926    0.7873   -1.5963 H   0  0  0  0  0  0  0  0  0  0  0  0
    8.1486    1.6479   -0.7542 H   0  0  0  0  0  0  0  0  0  0  0  0
    6.1343   -2.3940    0.4780 H   0  0  0  0  0  0  0  0  0  0  0  0
    3.9301   -3.5366    0.2745 H   0  0  0  0  0  0  0  0  0  0  0  0
   -2.7921   -0.6051   -2.2888 H   0  0  0  0  0  0  0  0  0  0  0  0
   -2.2885    1.0989   -1.8045 H   0  0  0  0  0  0  0  0  0  0  0  0
  1  2  1  0
  2  3  2  0
  3  4  1  0
  4  5  2  0
  5  6  1  0
  5  7  1  0
  7  8  1  0
  8  9  2  0
  8 10  1  0
 10 11  1  0
 11 12  2  0
 12 13  1  0
 13 14  1  0
 14 15  2  0
 15 16  1  0
 16 17  2  0
 17 18  1  0
 18 19  1  0
 18 20  2  0
 18 21  2  0
 17 22  1  0
 22 23  2  0
 12 24  1  0
 24 25  2  0
 25 26  1  0
  7 27  2  0
 27 28  1  0
 27  2  1  0
 25 10  1  0
 23 14  1  0
  1 29  1  0
  1 30  1  0
  1 31  1  0
  3 32  1  0
  4 33  1  0
 13 34  1  0
 15 35  1  0
 16 36  1  0
 19 37  1  0
 19 38  1  0
 22 39  1  0
 23 40  1  0
 26 41  1  0
 26 42  1  0
M  END
$$$$
