
     RDKit          3D

 60 61  0  0  0  0  0  0  0  0999 V2000
    1.8477    1.0271   -0.6834 C   0  0  2  0  0  0  0  0  0  0  0  0
    1.5613   -0.2627    0.0947 C   0  0  0  0  0  0  0  0  0  0  0  0
    0.2334   -1.1861   -0.6618 P   0  0  2  0  0  5  0  0  0  0  0  0
    0.8069   -2.3817   -1.7270 O   0  0  0  0  0  0  0  0  0  0  0  0
   -0.5336   -0.2036   -1.5541 O   0  0  0  0  0  0  0  0  0  0  0  0
   -0.9795   -1.8351    0.5064 C   0  0  1  0  0  0  0  0  0  0  0  0
   -2.2235   -2.0343   -0.2121 N   0  0  0  0  0  0  0  0  0  0  0  0
   -3.4130   -1.2862    0.0801 C   0  0  0  0  0  0  0  0  0  0  0  0
   -3.4595   -0.4229    0.9607 O   0  0  0  0  0  0  0  0  0  0  0  0
   -4.5112   -1.5970   -0.6935 O   0  0  0  0  0  0  0  0  0  0  0  0
   -5.7825   -1.0228   -0.6170 C   0  0  0  0  0  0  0  0  0  0  0  0
   -5.8233    0.4356   -0.8645 C   0  0  0  0  0  0  0  0  0  0  0  0
   -5.9559    0.8006   -2.2100 C   0  0  0  0  0  0  0  0  0  0  0  0
   -6.0180    2.1135   -2.6277 C   0  0  0  0  0  0  0  0  0  0  0  0
   -5.9427    3.0551   -1.6489 C   0  0  0  0  0  0  0  0  0  0  0  0
   -5.8126    2.7923   -0.3102 C   0  0  0  0  0  0  0  0  0  0  0  0
   -5.7576    1.4764    0.0327 C   0  0  0  0  0  0  0  0  0  0  0  0
   -0.5175   -3.1099    1.1809 C   0  0  0  0  0  0  0  0  0  0  0  0
   -0.2457   -4.2192    0.1983 C   0  0  0  0  0  0  0  0  0  0  0  0
    0.7690   -2.8372    1.9281 C   0  0  0  0  0  0  0  0  0  0  0  0
    2.2423    0.7518   -2.0887 C   0  0  0  0  0  0  0  0  0  0  0  0
    3.3751    0.0269   -2.3727 O   0  0  0  0  0  0  0  0  0  0  0  0
    1.6197    1.1293   -3.1227 O   0  0  0  0  0  0  0  0  0  0  0  0
    2.9472    1.7898   -0.0363 C   0  0  0  0  0  0  0  0  0  0  0  0
    4.2250    1.2814    0.0811 C   0  0  0  0  0  0  0  0  0  0  0  0
    5.3020    1.9130    0.6620 C   0  0  0  0  0  0  0  0  0  0  0  0
    6.6431    1.2601    0.7308 C   0  0  0  0  0  0  0  0  0  0  0  0
    6.7829    0.4904    1.9513 N   0  0  0  0  0  0  0  0  0  0  0  0
    5.0797    3.1776    1.1762 C   0  0  0  0  0  0  0  0  0  0  0  0
    3.8195    3.7558    1.0953 C   0  0  0  0  0  0  0  0  0  0  0  0
    2.7741    3.0515    0.4901 C   0  0  0  0  0  0  0  0  0  0  0  0
    0.9313    1.6440   -0.6265 H   0  0  0  0  0  0  0  0  0  0  0  0
    1.3899    0.0670    1.1267 H   0  0  0  0  0  0  0  0  0  0  0  0
    2.4873   -0.9085    0.0852 H   0  0  0  0  0  0  0  0  0  0  0  0
    0.0250   -2.6154   -2.3129 H   0  0  0  0  0  0  0  0  0  0  0  0
   -1.1632   -1.0301    1.2469 H   0  0  0  0  0  0  0  0  0  0  0  0
   -2.2133   -2.7594   -0.9653 H   0  0  0  0  0  0  0  0  0  0  0  0
   -6.4073   -1.5634   -1.3726 H   0  0  0  0  0  0  0  0  0  0  0  0
   -6.2965   -1.2711    0.3614 H   0  0  0  0  0  0  0  0  0  0  0  0
   -6.0170    0.0418   -3.0021 H   0  0  0  0  0  0  0  0  0  0  0  0
   -6.1212    2.3445   -3.6844 H   0  0  0  0  0  0  0  0  0  0  0  0
   -5.9911    4.1011   -1.9715 H   0  0  0  0  0  0  0  0  0  0  0  0
   -5.7526    3.5440    0.4707 H   0  0  0  0  0  0  0  0  0  0  0  0
   -5.6614    1.1682    1.0635 H   0  0  0  0  0  0  0  0  0  0  0  0
   -1.2760   -3.5027    1.8820 H   0  0  0  0  0  0  0  0  0  0  0  0
   -0.2342   -5.1759    0.8020 H   0  0  0  0  0  0  0  0  0  0  0  0
    0.7752   -4.1721   -0.2320 H   0  0  0  0  0  0  0  0  0  0  0  0
   -1.0394   -4.3636   -0.5419 H   0  0  0  0  0  0  0  0  0  0  0  0
    1.6010   -2.8332    1.1963 H   0  0  0  0  0  0  0  0  0  0  0  0
    0.7633   -1.8478    2.4240 H   0  0  0  0  0  0  0  0  0  0  0  0
    1.0136   -3.6566    2.6382 H   0  0  0  0  0  0  0  0  0  0  0  0
    3.4848   -0.4858   -3.2521 H   0  0  0  0  0  0  0  0  0  0  0  0
    4.4353    0.2934   -0.3105 H   0  0  0  0  0  0  0  0  0  0  0  0
    6.6759    0.5517   -0.1383 H   0  0  0  0  0  0  0  0  0  0  0  0
    7.4730    1.9818    0.6033 H   0  0  0  0  0  0  0  0  0  0  0  0
    6.3116    1.0428    2.7112 H   0  0  0  0  0  0  0  0  0  0  0  0
    6.3505   -0.4374    1.7966 H   0  0  0  0  0  0  0  0  0  0  0  0
    5.9400    3.6727    1.6357 H   0  0  0  0  0  0  0  0  0  0  0  0
    3.6777    4.7474    1.5074 H   0  0  0  0  0  0  0  0  0  0  0  0
    1.7846    3.4931    0.4209 H   0  0  0  0  0  0  0  0  0  0  0  0
  1  2  1  0
  2  3  1  0
  3  4  1  6
  3  5  2  0
  3  6  1  0
  6  7  1  0
  7  8  1  0
  8  9  2  0
  8 10  1  0
 10 11  1  0
 11 12  1  0
 12 13  2  0
 13 14  1  0
 14 15  2  0
 15 16  1  0
 16 17  2  0
  6 18  1  0
 18 19  1  0
 18 20  1  0
  1 21  1  0
 21 22  1  0
 21 23  2  0
  1 24  1  0
 24 25  2  0
 25 26  1  0
 26 27  1  0
 27 28  1  0
 26 29  2  0
 29 30  1  0
 30 31  2  0
 17 12  1  0
 31 24  1  0
  1 32  1  6
  2 33  1  0
  2 34  1  0
  4 35  1  0
  6 36  1  1
  7 37  1  0
 11 38  1  0
 11 39  1  0
 13 40  1  0
 14 41  1  0
 15 42  1  0
 16 43  1  0
 17 44  1  0
 18 45  1  0
 19 46  1  0
 19 47  1  0
 19 48  1  0
 20 49  1  0
 20 50  1  0
 20 51  1  0
 22 52  1  0
 25 53  1  0
 27 54  1  0
 27 55  1  0
 28 56  1  0
 28 57  1  0
 29 58  1  0
 30 59  1  0
 31 60  1  0
M  END
$$$$
