
     RDKit          3D

 39 42  0  0  0  0  0  0  0  0999 V2000
   -0.9336   -4.0471    0.5186 O   0  0  0  0  0  0  0  0  0  0  0  0
   -0.8956   -2.8100    0.6774 C   0  0  0  0  0  0  0  0  0  0  0  0
   -1.8582   -1.9852    0.1084 C   0  0  0  0  0  0  0  0  0  0  0  0
   -1.8262   -0.6028    0.2788 C   0  0  0  0  0  0  0  0  0  0  0  0
   -2.8101    0.2436   -0.3024 N   0  0  0  0  0  0  0  0  0  0  0  0
   -3.8488   -0.3542   -1.0756 C   0  0  0  0  0  0  0  0  0  0  0  0
   -4.9238    0.5614   -1.5221 C   0  0  0  0  0  0  0  0  0  0  0  0
   -4.6553    1.9055   -1.3313 O   0  0  0  0  0  0  0  0  0  0  0  0
   -4.1431    2.1955   -0.0834 C   0  0  0  0  0  0  0  0  0  0  0  0
   -2.7015    1.6695   -0.0755 C   0  0  0  0  0  0  0  0  0  0  0  0
   -0.8227   -0.1176    1.0163 N   0  0  0  0  0  0  0  0  0  0  0  0
    0.0963   -0.9032    1.5597 C   0  0  0  0  0  0  0  0  0  0  0  0
    1.1801   -0.2928    2.3656 C   0  0  0  0  0  0  0  0  0  0  0  0
    2.3211    0.0234    1.4406 C   0  0  0  0  0  0  0  0  0  0  0  0
    3.3555   -0.7689    1.1132 N   0  0  0  0  0  0  0  0  0  0  0  0
    4.1808   -0.1263    0.2481 C   0  0  0  0  0  0  0  0  0  0  0  0
    5.3560   -0.4485   -0.3977 C   0  0  0  0  0  0  0  0  0  0  0  0
    5.9902    0.4384   -1.2487 C   0  0  0  0  0  0  0  0  0  0  0  0
    7.1518    0.1152   -1.8848 F   0  0  0  0  0  0  0  0  0  0  0  0
    5.4037    1.6719   -1.4348 C   0  0  0  0  0  0  0  0  0  0  0  0
    4.2300    1.9968   -0.7913 C   0  0  0  0  0  0  0  0  0  0  0  0
    3.5885    1.1097    0.0649 C   0  0  0  0  0  0  0  0  0  0  0  0
    2.5045    1.1457    0.7843 O   0  0  0  0  0  0  0  0  0  0  0  0
    0.0657   -2.2249    1.3969 N   0  0  0  0  0  0  0  0  0  0  0  0
   -2.6697   -2.3789   -0.4882 H   0  0  0  0  0  0  0  0  0  0  0  0
   -4.3314   -1.1957   -0.4976 H   0  0  0  0  0  0  0  0  0  0  0  0
   -3.3633   -0.8436   -1.9630 H   0  0  0  0  0  0  0  0  0  0  0  0
   -5.1169    0.4328   -2.6248 H   0  0  0  0  0  0  0  0  0  0  0  0
   -5.9062    0.3443   -1.0341 H   0  0  0  0  0  0  0  0  0  0  0  0
   -4.6897    1.5789    0.6587 H   0  0  0  0  0  0  0  0  0  0  0  0
   -4.1932    3.2656    0.1066 H   0  0  0  0  0  0  0  0  0  0  0  0
   -2.1749    1.9295    0.8508 H   0  0  0  0  0  0  0  0  0  0  0  0
   -2.1822    2.0928   -0.9820 H   0  0  0  0  0  0  0  0  0  0  0  0
    0.8523    0.6558    2.8241 H   0  0  0  0  0  0  0  0  0  0  0  0
    1.5006   -0.9733    3.1763 H   0  0  0  0  0  0  0  0  0  0  0  0
    5.8068   -1.4142   -0.2464 H   0  0  0  0  0  0  0  0  0  0  0  0
    5.9000    2.3696   -2.1025 H   0  0  0  0  0  0  0  0  0  0  0  0
    3.7660    2.9613   -0.9330 H   0  0  0  0  0  0  0  0  0  0  0  0
    0.7965   -2.8381    1.8302 H   0  0  0  0  0  0  0  0  0  0  0  0
  1  2  2  0
  2  3  1  0
  3  4  2  0
  4  5  1  0
  5  6  1  0
  6  7  1  0
  7  8  1  0
  8  9  1  0
  9 10  1  0
  4 11  1  0
 11 12  2  0
 12 13  1  0
 13 14  1  0
 14 15  2  0
 15 16  1  0
 16 17  2  0
 17 18  1  0
 18 19  1  0
 18 20  2  0
 20 21  1  0
 21 22  2  0
 22 23  1  0
 12 24  1  0
 24  2  1  0
 10  5  1  0
 23 14  1  0
 22 16  1  0
  3 25  1  0
  6 26  1  0
  6 27  1  0
  7 28  1  0
  7 29  1  0
  9 30  1  0
  9 31  1  0
 10 32  1  0
 10 33  1  0
 13 34  1  0
 13 35  1  0
 17 36  1  0
 20 37  1  0
 21 38  1  0
 24 39  1  0
M  END
$$$$
