
     RDKit          3D

 54 57  0  0  0  0  0  0  0  0999 V2000
    5.9157    1.7026   -0.1961 C   0  0  0  0  0  0  0  0  0  0  0  0
    4.4308    1.9115   -0.3443 C   0  0  1  0  0  0  0  0  0  0  0  0
    4.2076    2.2608   -1.7699 C   0  0  0  0  0  0  0  0  0  0  0  0
    4.0372    2.5179   -2.8915 N   0  0  0  0  0  0  0  0  0  0  0  0
    3.7155    0.6638   -0.0370 N   0  0  0  0  0  0  0  0  0  0  0  0
    2.6088    0.6815    0.8587 C   0  0  0  0  0  0  0  0  0  0  0  0
    2.2841    1.7731    1.3516 O   0  0  0  0  0  0  0  0  0  0  0  0
    1.8976   -0.6150    1.1567 C   0  0  2  0  0  0  0  0  0  0  0  0
    2.9762   -1.4610    1.8422 C   0  0  0  0  0  0  0  0  0  0  0  0
    2.5090   -2.8276    2.2132 C   0  0  0  0  0  0  0  0  0  0  0  0
    2.0670   -3.5412    0.9569 C   0  0  0  0  0  0  0  0  0  0  0  0
    2.1601   -2.6196   -0.2267 C   0  0  0  0  0  0  0  0  0  0  0  0
    1.4334   -1.3208   -0.0734 C   0  0  1  0  0  0  0  0  0  0  0  0
   -0.0452   -1.4934   -0.1582 C   0  0  0  0  0  0  0  0  0  0  0  0
   -0.4463   -2.7093   -0.0890 O   0  0  0  0  0  0  0  0  0  0  0  0
   -0.9707   -0.4273   -0.3059 N   0  0  0  0  0  0  0  0  0  0  0  0
   -0.4915    0.9118   -0.3986 C   0  0  0  0  0  0  0  0  0  0  0  0
   -1.4582    1.8572   -1.0705 C   0  0  0  0  0  0  0  0  0  0  0  0
   -2.8649    1.6175   -0.7543 C   0  0  0  0  0  0  0  0  0  0  0  0
   -3.9067    2.4598   -0.7309 N   0  0  0  0  0  0  0  0  0  0  0  0
   -4.9866    1.7586   -0.3824 C   0  0  0  0  0  0  0  0  0  0  0  0
   -6.2990    2.2020   -0.2259 C   0  0  0  0  0  0  0  0  0  0  0  0
   -7.2755    1.3068    0.1419 C   0  0  0  0  0  0  0  0  0  0  0  0
   -6.9430    0.0029    0.3475 C   0  0  0  0  0  0  0  0  0  0  0  0
   -7.8913   -0.8790    0.7073 F   0  0  0  0  0  0  0  0  0  0  0  0
   -5.6261   -0.4388    0.1900 C   0  0  0  0  0  0  0  0  0  0  0  0
   -4.6336    0.4525   -0.1802 C   0  0  0  0  0  0  0  0  0  0  0  0
   -3.2768    0.3543   -0.4165 C   0  0  0  0  0  0  0  0  0  0  0  0
   -2.3756   -0.7924   -0.3541 C   0  0  0  0  0  0  0  0  0  0  0  0
    6.2646    2.0001    0.7929 H   0  0  0  0  0  0  0  0  0  0  0  0
    6.4827    2.1751   -1.0297 H   0  0  0  0  0  0  0  0  0  0  0  0
    6.0816    0.5894   -0.2942 H   0  0  0  0  0  0  0  0  0  0  0  0
    4.0268    2.7607    0.2204 H   0  0  0  0  0  0  0  0  0  0  0  0
    4.0620   -0.1890   -0.5006 H   0  0  0  0  0  0  0  0  0  0  0  0
    1.0798   -0.3517    1.8280 H   0  0  0  0  0  0  0  0  0  0  0  0
    3.8691   -1.4137    1.2232 H   0  0  0  0  0  0  0  0  0  0  0  0
    3.2242   -0.9050    2.7847 H   0  0  0  0  0  0  0  0  0  0  0  0
    3.3878   -3.3456    2.6898 H   0  0  0  0  0  0  0  0  0  0  0  0
    1.7133   -2.7700    2.9848 H   0  0  0  0  0  0  0  0  0  0  0  0
    2.8330   -4.3496    0.7644 H   0  0  0  0  0  0  0  0  0  0  0  0
    1.0742   -4.0102    1.0958 H   0  0  0  0  0  0  0  0  0  0  0  0
    3.2420   -2.4250   -0.4124 H   0  0  0  0  0  0  0  0  0  0  0  0
    1.8311   -3.1730   -1.1513 H   0  0  0  0  0  0  0  0  0  0  0  0
    1.6974   -0.7110   -0.9781 H   0  0  0  0  0  0  0  0  0  0  0  0
    0.4402    0.8866   -1.0093 H   0  0  0  0  0  0  0  0  0  0  0  0
   -0.3184    1.3009    0.6224 H   0  0  0  0  0  0  0  0  0  0  0  0
   -1.1624    2.9118   -0.9042 H   0  0  0  0  0  0  0  0  0  0  0  0
   -1.3185    1.6971   -2.1803 H   0  0  0  0  0  0  0  0  0  0  0  0
   -3.8678    3.4754   -0.9459 H   0  0  0  0  0  0  0  0  0  0  0  0
   -6.5803    3.2252   -0.3843 H   0  0  0  0  0  0  0  0  0  0  0  0
   -8.3177    1.6457    0.2665 H   0  0  0  0  0  0  0  0  0  0  0  0
   -5.3515   -1.4632    0.3482 H   0  0  0  0  0  0  0  0  0  0  0  0
   -2.4919   -1.3343   -1.3409 H   0  0  0  0  0  0  0  0  0  0  0  0
   -2.6530   -1.5360    0.4094 H   0  0  0  0  0  0  0  0  0  0  0  0
  1  2  1  0
  2  3  1  0
  3  4  3  0
  2  5  1  0
  5  6  1  0
  6  7  2  0
  6  8  1  0
  8  9  1  0
  9 10  1  0
 10 11  1  0
 11 12  1  0
 12 13  1  0
 13 14  1  0
 14 15  2  0
 14 16  1  0
 16 17  1  0
 17 18  1  0
 18 19  1  0
 19 20  1  0
 20 21  1  0
 21 22  2  0
 22 23  1  0
 23 24  2  0
 24 25  1  0
 24 26  1  0
 26 27  2  0
 27 28  1  0
 28 29  1  0
 13  8  1  0
 29 16  1  0
 28 19  2  0
 27 21  1  0
  1 30  1  0
  1 31  1  0
  1 32  1  0
  2 33  1  1
  5 34  1  0
  8 35  1  1
  9 36  1  0
  9 37  1  0
 10 38  1  0
 10 39  1  0
 11 40  1  0
 11 41  1  0
 12 42  1  0
 12 43  1  0
 13 44  1  6
 17 45  1  0
 17 46  1  0
 18 47  1  0
 18 48  1  0
 20 49  1  0
 22 50  1  0
 23 51  1  0
 26 52  1  0
 29 53  1  0
 29 54  1  0
M  END
$$$$
