
     RDKit          3D

 55 59  0  0  0  0  0  0  0  0999 V2000
   -7.2663    1.5114    0.2961 C   0  0  0  0  0  0  0  0  0  0  0  0
   -5.8373    1.3191   -0.0778 C   0  0  0  0  0  0  0  0  0  0  0  0
   -5.0913    2.3330   -0.6401 C   0  0  0  0  0  0  0  0  0  0  0  0
   -3.7698    2.1851   -0.9956 C   0  0  0  0  0  0  0  0  0  0  0  0
   -3.1574    0.9757   -0.7844 C   0  0  0  0  0  0  0  0  0  0  0  0
   -1.7460    0.7634   -1.1465 C   0  0  0  0  0  0  0  0  0  0  0  0
   -1.5045    0.3454   -2.3052 O   0  0  0  0  0  0  0  0  0  0  0  0
   -0.6898    1.0128   -0.2441 N   0  0  0  0  0  0  0  0  0  0  0  0
   -0.9119    1.4955    1.1035 C   0  0  0  0  0  0  0  0  0  0  0  0
   -0.1790    2.8344    1.2057 C   0  0  0  0  0  0  0  0  0  0  0  0
    1.0892    2.7635    0.6902 O   0  0  0  0  0  0  0  0  0  0  0  0
    1.5341    1.4677    0.4473 C   0  0  0  0  0  0  0  0  0  0  0  0
    0.6875    0.7934   -0.6317 C   0  0  1  0  0  0  0  0  0  0  0  0
    1.0153   -0.7052   -0.5819 C   0  0  0  0  0  0  0  0  0  0  0  0
    2.4274   -0.9357   -0.9793 C   0  0  0  0  0  0  0  0  0  0  0  0
    2.7281   -1.1526   -2.3175 C   0  0  0  0  0  0  0  0  0  0  0  0
    4.0213   -1.3727   -2.7469 C   0  0  0  0  0  0  0  0  0  0  0  0
    5.0542   -1.3793   -1.8251 C   0  0  0  0  0  0  0  0  0  0  0  0
    4.7796   -1.1648   -0.4796 C   0  0  0  0  0  0  0  0  0  0  0  0
    5.8590   -1.1746    0.4626 N   0  0  0  0  0  0  0  0  0  0  0  0
    6.5491   -2.2424    0.8729 N   0  0  0  0  0  0  0  0  0  0  0  0
    7.4819   -1.8814    1.7542 C   0  0  0  0  0  0  0  0  0  0  0  0
    7.3618   -0.5111    1.8972 C   0  0  0  0  0  0  0  0  0  0  0  0
    6.3629   -0.1284    1.0928 N   0  0  0  0  0  0  0  0  0  0  0  0
    3.4793   -0.9489   -0.0885 C   0  0  0  0  0  0  0  0  0  0  0  0
   -3.9020   -0.0389   -0.2223 C   0  0  0  0  0  0  0  0  0  0  0  0
   -3.2796   -1.3161    0.0087 N   0  0  0  0  0  0  0  0  0  0  0  0
   -2.2849   -1.5600    0.8099 N   0  0  0  0  0  0  0  0  0  0  0  0
   -1.9831   -2.8680    0.7564 C   0  0  0  0  0  0  0  0  0  0  0  0
   -2.8563   -3.4469   -0.1374 C   0  0  0  0  0  0  0  0  0  0  0  0
   -3.6297   -2.4316   -0.5619 N   0  0  0  0  0  0  0  0  0  0  0  0
   -5.2256    0.1066    0.1347 C   0  0  0  0  0  0  0  0  0  0  0  0
   -7.4241    1.5845    1.3767 H   0  0  0  0  0  0  0  0  0  0  0  0
   -7.8636    0.6500   -0.0678 H   0  0  0  0  0  0  0  0  0  0  0  0
   -7.6374    2.4056   -0.2690 H   0  0  0  0  0  0  0  0  0  0  0  0
   -5.6058    3.2996   -0.8012 H   0  0  0  0  0  0  0  0  0  0  0  0
   -3.2356    3.0179   -1.4335 H   0  0  0  0  0  0  0  0  0  0  0  0
   -1.9625    1.5812    1.3662 H   0  0  0  0  0  0  0  0  0  0  0  0
   -0.3941    0.8179    1.8416 H   0  0  0  0  0  0  0  0  0  0  0  0
   -0.7691    3.5525    0.5999 H   0  0  0  0  0  0  0  0  0  0  0  0
   -0.2075    3.2136    2.2560 H   0  0  0  0  0  0  0  0  0  0  0  0
    2.5600    1.5482    0.0343 H   0  0  0  0  0  0  0  0  0  0  0  0
    1.5880    0.8593    1.3612 H   0  0  0  0  0  0  0  0  0  0  0  0
    0.9269    1.1532   -1.6298 H   0  0  0  0  0  0  0  0  0  0  0  0
    0.3104   -1.2551   -1.2407 H   0  0  0  0  0  0  0  0  0  0  0  0
    0.8170   -1.1027    0.4508 H   0  0  0  0  0  0  0  0  0  0  0  0
    1.9179   -1.1463   -3.0328 H   0  0  0  0  0  0  0  0  0  0  0  0
    4.2451   -1.5406   -3.7919 H   0  0  0  0  0  0  0  0  0  0  0  0
    6.0620   -1.5529   -2.1746 H   0  0  0  0  0  0  0  0  0  0  0  0
    8.2112   -2.4894    2.2820 H   0  0  0  0  0  0  0  0  0  0  0  0
    7.9581    0.1461    2.5377 H   0  0  0  0  0  0  0  0  0  0  0  0
    3.2872   -0.7846    0.9613 H   0  0  0  0  0  0  0  0  0  0  0  0
   -1.2094   -3.3777    1.3027 H   0  0  0  0  0  0  0  0  0  0  0  0
   -2.9261   -4.4867   -0.4475 H   0  0  0  0  0  0  0  0  0  0  0  0
   -5.7647   -0.7418    0.5792 H   0  0  0  0  0  0  0  0  0  0  0  0
  1  2  1  0
  2  3  2  0
  3  4  1  0
  4  5  2  0
  5  6  1  0
  6  7  2  0
  6  8  1  0
  8  9  1  0
  9 10  1  0
 10 11  1  0
 11 12  1  0
 12 13  1  0
 13 14  1  0
 14 15  1  0
 15 16  2  0
 16 17  1  0
 17 18  2  0
 18 19  1  0
 19 20  1  0
 20 21  1  0
 21 22  2  0
 22 23  1  0
 23 24  2  0
 19 25  2  0
  5 26  1  0
 26 27  1  0
 27 28  1  0
 28 29  2  0
 29 30  1  0
 30 31  2  0
 26 32  2  0
 32  2  1  0
 13  8  1  0
 25 15  1  0
 31 27  1  0
 24 20  1  0
  1 33  1  0
  1 34  1  0
  1 35  1  0
  3 36  1  0
  4 37  1  0
  9 38  1  0
  9 39  1  0
 10 40  1  0
 10 41  1  0
 12 42  1  0
 12 43  1  0
 13 44  1  6
 14 45  1  0
 14 46  1  0
 16 47  1  0
 17 48  1  0
 18 49  1  0
 22 50  1  0
 23 51  1  0
 25 52  1  0
 29 53  1  0
 30 54  1  0
 32 55  1  0
M  END
$$$$
