
     RDKit          3D

 50 52  0  0  0  0  0  0  0  0999 V2000
   -1.9870   -1.7965   -2.8438 C   0  0  0  0  0  0  0  0  0  0  0  0
   -1.8113   -1.2626   -1.5446 O   0  0  0  0  0  0  0  0  0  0  0  0
   -2.6477   -0.2767   -1.0437 C   0  0  0  0  0  0  0  0  0  0  0  0
   -3.7028    0.2626   -1.7472 C   0  0  0  0  0  0  0  0  0  0  0  0
   -4.5244    1.2446   -1.2293 C   0  0  0  0  0  0  0  0  0  0  0  0
   -4.2200    1.6621    0.0603 C   0  0  0  0  0  0  0  0  0  0  0  0
   -4.9751    2.6407    0.6806 O   0  0  0  0  0  0  0  0  0  0  0  0
   -6.0983    2.2518    1.4455 C   0  0  0  0  0  0  0  0  0  0  0  0
   -6.7110    3.3660    1.9755 F   0  0  0  0  0  0  0  0  0  0  0  0
   -5.7309    1.4525    2.5172 F   0  0  0  0  0  0  0  0  0  0  0  0
   -7.0361    1.5567    0.7142 F   0  0  0  0  0  0  0  0  0  0  0  0
   -3.1669    1.1443    0.8014 C   0  0  0  0  0  0  0  0  0  0  0  0
   -2.3643    0.1518    0.2322 C   0  0  0  0  0  0  0  0  0  0  0  0
   -1.2415   -0.3916    1.0378 C   0  0  0  0  0  0  0  0  0  0  0  0
    0.0132    0.1460    0.5896 N   0  0  0  0  0  0  0  0  0  0  0  0
    1.1403   -0.3920    1.3671 C   0  0  1  0  0  0  0  0  0  0  0  0
    1.2477   -1.8647    1.2544 C   0  0  0  0  0  0  0  0  0  0  0  0
    2.6186   -2.4407    1.2870 C   0  0  0  0  0  0  0  0  0  0  0  0
    3.7308   -1.4546    1.3257 C   0  0  0  0  0  0  0  0  0  0  0  0
    3.4127   -0.2234    2.0001 N   0  0  0  0  0  0  0  0  0  0  0  0
    2.3579    0.4102    1.1864 C   0  0  1  0  0  0  0  0  0  0  0  0
    2.8931    0.6083   -0.1441 C   0  0  0  0  0  0  0  0  0  0  0  0
    2.3434    0.3629   -1.4006 C   0  0  0  0  0  0  0  0  0  0  0  0
    3.0357    0.6311   -2.5602 C   0  0  0  0  0  0  0  0  0  0  0  0
    4.3094    1.1567   -2.5294 C   0  0  0  0  0  0  0  0  0  0  0  0
    4.8714    1.4065   -1.3048 C   0  0  0  0  0  0  0  0  0  0  0  0
    4.1893    1.1426   -0.1476 C   0  0  0  0  0  0  0  0  0  0  0  0
   -1.0469   -2.3065   -3.1825 H   0  0  0  0  0  0  0  0  0  0  0  0
   -2.7979   -2.5600   -2.8517 H   0  0  0  0  0  0  0  0  0  0  0  0
   -2.2523   -0.9744   -3.5429 H   0  0  0  0  0  0  0  0  0  0  0  0
   -3.9072   -0.0875   -2.7452 H   0  0  0  0  0  0  0  0  0  0  0  0
   -5.3536    1.6698   -1.7796 H   0  0  0  0  0  0  0  0  0  0  0  0
   -2.9654    1.4968    1.8004 H   0  0  0  0  0  0  0  0  0  0  0  0
   -1.2530   -1.4968    0.9556 H   0  0  0  0  0  0  0  0  0  0  0  0
   -1.4322   -0.1844    2.1199 H   0  0  0  0  0  0  0  0  0  0  0  0
    0.0673    1.1658    0.6008 H   0  0  0  0  0  0  0  0  0  0  0  0
    0.8066   -0.1859    2.4314 H   0  0  0  0  0  0  0  0  0  0  0  0
    0.6532   -2.3894    2.0375 H   0  0  0  0  0  0  0  0  0  0  0  0
    0.7019   -2.1482    0.3060 H   0  0  0  0  0  0  0  0  0  0  0  0
    2.7515   -3.1003    0.4050 H   0  0  0  0  0  0  0  0  0  0  0  0
    2.7782   -3.1294    2.1677 H   0  0  0  0  0  0  0  0  0  0  0  0
    4.6326   -1.8868    1.8519 H   0  0  0  0  0  0  0  0  0  0  0  0
    4.0994   -1.2839    0.2853 H   0  0  0  0  0  0  0  0  0  0  0  0
    3.0714   -0.4488    2.9445 H   0  0  0  0  0  0  0  0  0  0  0  0
    2.1585    1.4259    1.6240 H   0  0  0  0  0  0  0  0  0  0  0  0
    1.3573   -0.0437   -1.3488 H   0  0  0  0  0  0  0  0  0  0  0  0
    2.5297    0.4087   -3.4850 H   0  0  0  0  0  0  0  0  0  0  0  0
    4.8224    1.3548   -3.4617 H   0  0  0  0  0  0  0  0  0  0  0  0
    5.8719    1.8184   -1.3275 H   0  0  0  0  0  0  0  0  0  0  0  0
    4.7601    1.3913    0.7606 H   0  0  0  0  0  0  0  0  0  0  0  0
  1  2  1  0
  2  3  1  0
  3  4  2  0
  4  5  1  0
  5  6  2  0
  6  7  1  0
  7  8  1  0
  8  9  1  0
  8 10  1  0
  8 11  1  0
  6 12  1  0
 12 13  2  0
 13 14  1  0
 14 15  1  0
 15 16  1  0
 16 17  1  0
 17 18  1  0
 18 19  1  0
 19 20  1  0
 20 21  1  0
 21 22  1  0
 22 23  2  0
 23 24  1  0
 24 25  2  0
 25 26  1  0
 26 27  2  0
 13  3  1  0
 21 16  1  0
 27 22  1  0
  1 28  1  0
  1 29  1  0
  1 30  1  0
  4 31  1  0
  5 32  1  0
 12 33  1  0
 14 34  1  0
 14 35  1  0
 15 36  1  0
 16 37  1  1
 17 38  1  0
 17 39  1  0
 18 40  1  0
 18 41  1  0
 19 42  1  0
 19 43  1  0
 20 44  1  0
 21 45  1  1
 23 46  1  0
 24 47  1  0
 25 48  1  0
 26 49  1  0
 27 50  1  0
M  END
$$$$
