
     RDKit          3D

 58 61  0  0  0  0  0  0  0  0999 V2000
    1.3493    3.4318    4.0316 O   0  0  0  0  0  0  0  0  0  0  0  0
    1.9224    2.8174    3.0601 C   0  0  0  0  0  0  0  0  0  0  0  0
    3.3841    2.8227    2.9447 C   0  0  0  0  0  0  0  0  0  0  0  0
    3.8079    2.0161    1.8339 N   0  0  0  0  0  0  0  0  0  0  0  0
    3.5934    0.6089    1.7628 C   0  0  0  0  0  0  0  0  0  0  0  0
    3.0016    0.0713    2.7575 O   0  0  0  0  0  0  0  0  0  0  0  0
    4.0190   -0.1947    0.6239 C   0  0  0  0  0  0  0  0  0  0  0  0
    4.6534    0.3204   -0.4668 C   0  0  0  0  0  0  0  0  0  0  0  0
    5.0422   -0.4753   -1.5285 C   0  0  0  0  0  0  0  0  0  0  0  0
    4.7693   -1.8384   -1.4637 C   0  0  0  0  0  0  0  0  0  0  0  0
    4.1291   -2.3922   -0.3752 C   0  0  0  0  0  0  0  0  0  0  0  0
    3.8605   -3.8492   -0.3516 C   0  0  0  0  0  0  0  0  0  0  0  0
    5.0626   -4.5637   -0.3323 F   0  0  0  0  0  0  0  0  0  0  0  0
    3.1536   -4.1858   -1.4861 F   0  0  0  0  0  0  0  0  0  0  0  0
    3.2043   -4.1728    0.8106 F   0  0  0  0  0  0  0  0  0  0  0  0
    3.7631   -1.5484    0.6579 C   0  0  0  0  0  0  0  0  0  0  0  0
    1.1083    2.1521    2.1210 N   0  0  0  0  0  0  0  0  0  0  0  0
   -0.3526    2.1500    2.2529 C   0  0  0  0  0  0  0  0  0  0  0  0
   -0.9923    2.5427    0.9304 C   0  0  0  0  0  0  0  0  0  0  0  0
   -1.7102    1.3007    0.9697 N   0  0  0  0  0  0  0  0  0  0  0  0
   -1.6558    0.4824   -0.2193 C   0  0  1  0  0  0  0  0  0  0  0  0
   -2.4973   -0.7636    0.0919 C   0  0  0  0  0  0  0  0  0  0  0  0
   -2.4157   -1.7120   -1.0561 C   0  0  0  0  0  0  0  0  0  0  0  0
   -2.9939   -1.0826   -2.2798 C   0  0  1  0  0  0  0  0  0  0  0  0
   -2.6159   -1.8524   -3.3880 O   0  0  0  0  0  0  0  0  0  0  0  0
   -4.4775   -1.0705   -2.1523 C   0  0  0  0  0  0  0  0  0  0  0  0
   -5.4320   -0.5833   -3.0082 C   0  0  0  0  0  0  0  0  0  0  0  0
   -6.6736   -0.7191   -2.6256 N   0  0  0  0  0  0  0  0  0  0  0  0
   -7.0859   -1.2166   -1.6187 C   0  0  0  0  0  0  0  0  0  0  0  0
   -5.4462   -1.7114   -0.8134 S   0  0  0  0  0  0  0  0  0  0  0  0
   -2.5445    0.3142   -2.5402 C   0  0  0  0  0  0  0  0  0  0  0  0
   -2.3869    1.1829   -1.3401 C   0  0  0  0  0  0  0  0  0  0  0  0
   -0.9509    0.7713    2.0889 C   0  0  0  0  0  0  0  0  0  0  0  0
    3.8080    3.8539    2.8899 H   0  0  0  0  0  0  0  0  0  0  0  0
    3.7777    2.3754    3.9076 H   0  0  0  0  0  0  0  0  0  0  0  0
    4.2951    2.5037    1.0500 H   0  0  0  0  0  0  0  0  0  0  0  0
    4.8711    1.3760   -0.5299 H   0  0  0  0  0  0  0  0  0  0  0  0
    5.5391   -0.0665   -2.3812 H   0  0  0  0  0  0  0  0  0  0  0  0
    5.0694   -2.4662   -2.2878 H   0  0  0  0  0  0  0  0  0  0  0  0
    3.2604   -1.9700    1.5172 H   0  0  0  0  0  0  0  0  0  0  0  0
    1.4610    1.6480    1.2846 H   0  0  0  0  0  0  0  0  0  0  0  0
   -0.7211    2.7019    3.1273 H   0  0  0  0  0  0  0  0  0  0  0  0
   -0.3025    2.7120    0.1057 H   0  0  0  0  0  0  0  0  0  0  0  0
   -1.6422    3.4524    1.0691 H   0  0  0  0  0  0  0  0  0  0  0  0
   -0.6423    0.1757   -0.5072 H   0  0  0  0  0  0  0  0  0  0  0  0
   -3.5332   -0.3846    0.2015 H   0  0  0  0  0  0  0  0  0  0  0  0
   -2.1569   -1.2198    1.0405 H   0  0  0  0  0  0  0  0  0  0  0  0
   -1.3667   -2.0480   -1.2141 H   0  0  0  0  0  0  0  0  0  0  0  0
   -3.0537   -2.5988   -0.7988 H   0  0  0  0  0  0  0  0  0  0  0  0
   -3.1822   -2.6635   -3.4141 H   0  0  0  0  0  0  0  0  0  0  0  0
   -5.1417   -0.1087   -3.9587 H   0  0  0  0  0  0  0  0  0  0  0  0
   -7.9904   -1.4668   -1.0457 H   0  0  0  0  0  0  0  0  0  0  0  0
   -1.5807    0.2671   -3.0893 H   0  0  0  0  0  0  0  0  0  0  0  0
   -3.2629    0.8054   -3.2270 H   0  0  0  0  0  0  0  0  0  0  0  0
   -3.3892    1.4651   -0.9381 H   0  0  0  0  0  0  0  0  0  0  0  0
   -1.8451    2.0950   -1.6389 H   0  0  0  0  0  0  0  0  0  0  0  0
   -0.2107    0.0053    1.8442 H   0  0  0  0  0  0  0  0  0  0  0  0
   -1.6528    0.5030    2.9112 H   0  0  0  0  0  0  0  0  0  0  0  0
  1  2  2  0
  2  3  1  0
  3  4  1  0
  4  5  1  0
  5  6  2  0
  5  7  1  0
  7  8  2  0
  8  9  1  0
  9 10  2  0
 10 11  1  0
 11 12  1  0
 12 13  1  0
 12 14  1  0
 12 15  1  0
 11 16  2  0
  2 17  1  0
 17 18  1  0
 18 19  1  0
 19 20  1  0
 20 21  1  0
 21 22  1  0
 22 23  1  0
 23 24  1  0
 24 25  1  6
 24 26  1  0
 26 27  2  0
 27 28  1  0
 28 29  2  0
 29 30  1  0
 24 31  1  0
 31 32  1  0
 20 33  1  0
 16  7  1  0
 33 18  1  0
 32 21  1  0
 30 26  1  0
  3 34  1  0
  3 35  1  0
  4 36  1  0
  8 37  1  0
  9 38  1  0
 10 39  1  0
 16 40  1  0
 17 41  1  0
 18 42  1  0
 19 43  1  0
 19 44  1  0
 21 45  1  6
 22 46  1  0
 22 47  1  0
 23 48  1  0
 23 49  1  0
 25 50  1  0
 27 51  1  0
 29 52  1  0
 31 53  1  0
 31 54  1  0
 32 55  1  0
 32 56  1  0
 33 57  1  0
 33 58  1  0
M  END
$$$$
