
     RDKit          3D

 34 36  0  0  0  0  0  0  0  0999 V2000
    5.7024    1.8069    0.5488 O   0  0  0  0  0  0  0  0  0  0  0  0
    4.6243    1.5768   -0.0889 C   0  0  0  0  0  0  0  0  0  0  0  0
    4.2912    2.3618   -1.1578 O   0  0  0  0  0  0  0  0  0  0  0  0
    3.7436    0.4857    0.3100 C   0  0  0  0  0  0  0  0  0  0  0  0
    4.0963   -0.3090    1.4049 C   0  0  0  0  0  0  0  0  0  0  0  0
    3.2450   -1.3343    1.7605 C   0  0  0  0  0  0  0  0  0  0  0  0
    2.0755   -1.5916    1.0765 C   0  0  0  0  0  0  0  0  0  0  0  0
    1.7652   -0.7858    0.0046 C   0  0  0  0  0  0  0  0  0  0  0  0
    0.2591   -1.1355   -0.8567 S   0  0  0  0  0  6  0  0  0  0  0  0
    0.5098   -0.7612   -2.2925 O   0  0  0  0  0  0  0  0  0  0  0  0
    0.0273   -2.6202   -0.7754 O   0  0  0  0  0  0  0  0  0  0  0  0
   -1.0586   -0.2587   -0.1898 N   0  0  0  0  0  0  0  0  0  0  0  0
   -1.2602   -0.6360    1.1730 C   0  0  0  0  0  0  0  0  0  0  0  0
   -2.7061   -0.6643    1.5975 C   0  0  0  0  0  0  0  0  0  0  0  0
   -3.5470    0.2920    0.8333 C   0  0  0  0  0  0  0  0  0  0  0  0
   -4.8601    1.3906    1.1354 S   0  0  0  0  0  0  0  0  0  0  0  0
   -5.0718    2.0117   -0.4975 C   0  0  0  0  0  0  0  0  0  0  0  0
   -4.1082    1.3297   -1.1896 C   0  0  0  0  0  0  0  0  0  0  0  0
   -3.3316    0.4720   -0.5804 C   0  0  0  0  0  0  0  0  0  0  0  0
   -2.1998   -0.4223   -1.0379 C   0  0  0  0  0  0  0  0  0  0  0  0
    2.5836    0.2462   -0.3844 C   0  0  0  0  0  0  0  0  0  0  0  0
    4.7343    3.2845   -1.2170 H   0  0  0  0  0  0  0  0  0  0  0  0
    5.0020   -0.1024    1.9271 H   0  0  0  0  0  0  0  0  0  0  0  0
    3.4815   -1.9873    2.6170 H   0  0  0  0  0  0  0  0  0  0  0  0
    1.4132   -2.4182    1.3821 H   0  0  0  0  0  0  0  0  0  0  0  0
   -0.7255    0.0663    1.8424 H   0  0  0  0  0  0  0  0  0  0  0  0
   -0.8589   -1.6556    1.3287 H   0  0  0  0  0  0  0  0  0  0  0  0
   -3.1117   -1.6813    1.3661 H   0  0  0  0  0  0  0  0  0  0  0  0
   -2.7671   -0.4187    2.6580 H   0  0  0  0  0  0  0  0  0  0  0  0
   -5.7858    2.7419   -0.8362 H   0  0  0  0  0  0  0  0  0  0  0  0
   -4.0200    1.5409   -2.2895 H   0  0  0  0  0  0  0  0  0  0  0  0
   -2.5436   -1.4867   -0.9875 H   0  0  0  0  0  0  0  0  0  0  0  0
   -1.9262   -0.2059   -2.0695 H   0  0  0  0  0  0  0  0  0  0  0  0
    2.3280    0.8681   -1.2247 H   0  0  0  0  0  0  0  0  0  0  0  0
  1  2  2  0
  2  3  1  0
  2  4  1  0
  4  5  2  0
  5  6  1  0
  6  7  2  0
  7  8  1  0
  8  9  1  0
  9 10  2  0
  9 11  2  0
  9 12  1  0
 12 13  1  0
 13 14  1  0
 14 15  1  0
 15 16  1  0
 16 17  1  0
 17 18  2  0
 18 19  1  0
 19 20  1  0
  8 21  2  0
 21  4  1  0
 20 12  1  0
 19 15  2  0
  3 22  1  0
  5 23  1  0
  6 24  1  0
  7 25  1  0
 13 26  1  0
 13 27  1  0
 14 28  1  0
 14 29  1  0
 17 30  1  0
 18 31  1  0
 20 32  1  0
 20 33  1  0
 21 34  1  0
M  END
$$$$
