
     RDKit          3D

 65 68  0  0  0  0  0  0  0  0999 V2000
   -4.4037   -1.2101   -3.7530 C   0  0  0  0  0  0  0  0  0  0  0  0
   -3.2346   -1.0784   -3.3839 C   0  0  0  0  0  0  0  0  0  0  0  0
   -1.8342   -0.9105   -2.9622 C   0  0  0  0  0  0  0  0  0  0  0  0
   -1.6250   -0.7334   -1.6215 N   0  0  0  0  0  0  0  0  0  0  0  0
   -1.8783    0.5461   -1.0013 C   0  0  0  0  0  0  0  0  0  0  0  0
   -0.8101    1.5057   -1.5877 C   0  0  0  0  0  0  0  0  0  0  0  0
    0.5313    0.8982   -1.4758 C   0  0  0  0  0  0  0  0  0  0  0  0
    1.0375    0.6917   -0.1050 C   0  0  0  0  0  0  0  0  0  0  0  0
    1.3167    1.9396    0.7002 C   0  0  0  0  0  0  0  0  0  0  0  0
    2.7131    2.4404    0.4070 C   0  0  0  0  0  0  0  0  0  0  0  0
    3.7583    1.4348    0.4667 N   0  0  0  0  0  0  0  0  0  0  0  0
    4.7262    1.7554    1.5010 C   0  0  0  0  0  0  0  0  0  0  0  0
    6.1281    1.3075    0.9831 C   0  0  0  0  0  0  0  0  0  0  0  0
    6.4871    0.0679    1.3149 C   0  0  0  0  0  0  0  0  0  0  0  0
    7.7509   -0.3590    0.7520 C   0  0  0  0  0  0  0  0  0  0  0  0
    8.3809    0.5640   -0.0263 C   0  0  0  0  0  0  0  0  0  0  0  0
    8.0409    1.7804   -0.3547 C   0  0  0  0  0  0  0  0  0  0  0  0
    6.7221    2.2582    0.2164 C   0  0  0  0  0  0  0  0  0  0  0  0
    3.2168    0.1312    0.8075 C   0  0  0  0  0  0  0  0  0  0  0  0
    2.1589   -0.2929   -0.1479 C   0  0  0  0  0  0  0  0  0  0  0  0
   -1.8496   -1.8259   -0.7457 C   0  0  0  0  0  0  0  0  0  0  0  0
   -3.2878   -2.0025   -0.3161 C   0  0  0  0  0  0  0  0  0  0  0  0
   -4.0722   -2.9472   -0.9400 C   0  0  0  0  0  0  0  0  0  0  0  0
   -5.4468   -2.9842   -0.5025 C   0  0  0  0  0  0  0  0  0  0  0  0
   -5.8538   -2.1471    0.4233 C   0  0  0  0  0  0  0  0  0  0  0  0
   -7.2257   -2.1838    0.8797 C   0  0  0  0  0  0  0  0  0  0  0  0
   -7.6428   -1.3661    1.8114 C   0  0  0  0  0  0  0  0  0  0  0  0
   -6.9199   -0.4015    2.4803 C   0  0  0  0  0  0  0  0  0  0  0  0
   -5.5175   -0.3774    2.0019 C   0  0  0  0  0  0  0  0  0  0  0  0
   -4.6776    0.5448    2.5834 O   0  0  0  0  0  0  0  0  0  0  0  0
   -5.0836   -1.1953    1.0640 C   0  0  0  0  0  0  0  0  0  0  0  0
   -3.7618   -1.1943    0.6087 N   0  0  0  0  0  0  0  0  0  0  0  0
   -5.4395   -1.3191   -4.0649 H   0  0  0  0  0  0  0  0  0  0  0  0
   -1.2115   -1.8067   -3.3130 H   0  0  0  0  0  0  0  0  0  0  0  0
   -1.3192   -0.0745   -3.5415 H   0  0  0  0  0  0  0  0  0  0  0  0
   -1.7545    0.4992    0.0577 H   0  0  0  0  0  0  0  0  0  0  0  0
   -2.8409    0.9769   -1.2817 H   0  0  0  0  0  0  0  0  0  0  0  0
   -0.9002    2.3960   -0.8795 H   0  0  0  0  0  0  0  0  0  0  0  0
   -1.1636    1.8248   -2.5568 H   0  0  0  0  0  0  0  0  0  0  0  0
    0.4455   -0.1379   -1.9361 H   0  0  0  0  0  0  0  0  0  0  0  0
    1.2959    1.5008   -2.0383 H   0  0  0  0  0  0  0  0  0  0  0  0
    0.1930    0.1764    0.4673 H   0  0  0  0  0  0  0  0  0  0  0  0
    1.2228    1.8036    1.7923 H   0  0  0  0  0  0  0  0  0  0  0  0
    0.5932    2.7081    0.4077 H   0  0  0  0  0  0  0  0  0  0  0  0
    2.6839    2.8694   -0.6425 H   0  0  0  0  0  0  0  0  0  0  0  0
    2.9577    3.2577    1.0880 H   0  0  0  0  0  0  0  0  0  0  0  0
    4.4948    1.1812    2.3912 H   0  0  0  0  0  0  0  0  0  0  0  0
    4.7332    2.8155    1.7289 H   0  0  0  0  0  0  0  0  0  0  0  0
    5.9739   -0.6267    1.9271 H   0  0  0  0  0  0  0  0  0  0  0  0
    8.1144   -1.3232    0.9548 H   0  0  0  0  0  0  0  0  0  0  0  0
    9.3666    0.1478   -0.4659 H   0  0  0  0  0  0  0  0  0  0  0  0
    8.5310    2.4871   -0.9516 H   0  0  0  0  0  0  0  0  0  0  0  0
    6.4361    3.2198   -0.0429 H   0  0  0  0  0  0  0  0  0  0  0  0
    2.7961    0.0909    1.8347 H   0  0  0  0  0  0  0  0  0  0  0  0
    4.0334   -0.6322    0.7420 H   0  0  0  0  0  0  0  0  0  0  0  0
    1.8070   -1.3077    0.1463 H   0  0  0  0  0  0  0  0  0  0  0  0
    2.5309   -0.3845   -1.2041 H   0  0  0  0  0  0  0  0  0  0  0  0
   -1.5962   -2.7609   -1.3440 H   0  0  0  0  0  0  0  0  0  0  0  0
   -1.1545   -1.8466    0.0955 H   0  0  0  0  0  0  0  0  0  0  0  0
   -3.7344   -3.6057   -1.6778 H   0  0  0  0  0  0  0  0  0  0  0  0
   -6.1050   -3.7120   -0.9791 H   0  0  0  0  0  0  0  0  0  0  0  0
   -7.8561   -2.9428    0.3896 H   0  0  0  0  0  0  0  0  0  0  0  0
   -8.7378   -1.4645    2.0964 H   0  0  0  0  0  0  0  0  0  0  0  0
   -7.2554    0.2242    3.2050 H   0  0  0  0  0  0  0  0  0  0  0  0
   -4.9843    1.1088    3.3979 H   0  0  0  0  0  0  0  0  0  0  0  0
  1  2  3  0
  2  3  1  0
  3  4  1  0
  4  5  1  0
  5  6  1  0
  6  7  1  0
  7  8  1  0
  8  9  1  0
  9 10  1  0
 10 11  1  0
 11 12  1  0
 12 13  1  0
 13 14  2  0
 14 15  1  0
 15 16  2  0
 16 17  1  0
 17 18  2  0
 11 19  1  0
 19 20  1  0
  4 21  1  0
 21 22  1  0
 22 23  2  0
 23 24  1  0
 24 25  2  0
 25 26  1  0
 26 27  2  0
 27 28  1  0
 28 29  2  0
 29 30  1  0
 29 31  1  0
 31 32  2  0
 20  8  1  0
 32 22  1  0
 18 13  1  0
 31 25  1  0
  1 33  1  0
  3 34  1  0
  3 35  1  0
  5 36  1  0
  5 37  1  0
  6 38  1  0
  6 39  1  0
  7 40  1  0
  7 41  1  0
  8 42  1  0
  9 43  1  0
  9 44  1  0
 10 45  1  0
 10 46  1  0
 12 47  1  0
 12 48  1  0
 14 49  1  0
 15 50  1  0
 16 51  1  0
 17 52  1  0
 18 53  1  0
 19 54  1  0
 19 55  1  0
 20 56  1  0
 20 57  1  0
 21 58  1  0
 21 59  1  0
 23 60  1  0
 24 61  1  0
 26 62  1  0
 27 63  1  0
 28 64  1  0
 30 65  1  0
M  END
$$$$
