
     RDKit          3D

 54 58  0  0  0  0  0  0  0  0999 V2000
   -3.1651    2.1457    2.2982 C   0  0  0  0  0  0  0  0  0  0  0  0
   -3.1214    1.4441    1.0309 N   0  0  0  0  0  0  0  0  0  0  0  0
   -2.0968    0.5035    0.7421 C   0  0  0  0  0  0  0  0  0  0  0  0
   -2.2095   -0.8089    0.7411 C   0  0  0  0  0  0  0  0  0  0  0  0
   -3.3910   -1.6216    1.0287 C   0  0  0  0  0  0  0  0  0  0  0  0
   -4.5427   -1.1696    1.3501 N   0  0  0  0  0  0  0  0  0  0  0  0
   -3.3184   -3.1235    0.9539 C   0  0  0  0  0  0  0  0  0  0  0  0
   -2.9819   -3.8330   -0.2704 C   0  0  0  0  0  0  0  0  0  0  0  0
   -4.4445   -3.8284    0.2054 C   0  0  0  0  0  0  0  0  0  0  0  0
   -0.8794   -1.3814    0.4231 C   0  0  0  0  0  0  0  0  0  0  0  0
   -0.6123   -2.5873    0.3360 O   0  0  0  0  0  0  0  0  0  0  0  0
    0.0552   -0.3200    0.2311 N   0  0  0  0  0  0  0  0  0  0  0  0
    1.4333   -0.3917   -0.0614 C   0  0  0  0  0  0  0  0  0  0  0  0
    1.9325   -0.4589   -1.3634 C   0  0  0  0  0  0  0  0  0  0  0  0
    3.2840   -0.5285   -1.6288 C   0  0  0  0  0  0  0  0  0  0  0  0
    3.8041   -0.5995   -3.0143 C   0  0  0  0  0  0  0  0  0  0  0  0
    4.1510   -0.5301   -0.5504 C   0  0  0  0  0  0  0  0  0  0  0  0
    5.4860   -0.5874   -0.4792 N   0  0  0  0  0  0  0  0  0  0  0  0
    5.8332   -0.5588    0.8005 N   0  0  0  0  0  0  0  0  0  0  0  0
    4.7412   -0.4832    1.5758 C   0  0  0  0  0  0  0  0  0  0  0  0
    4.7020   -0.4306    3.0543 C   0  0  0  0  0  0  0  0  0  0  0  0
    3.6931   -0.4659    0.7181 N   0  0  0  0  0  0  0  0  0  0  0  0
    2.3874   -0.3993    0.9576 C   0  0  0  0  0  0  0  0  0  0  0  0
   -0.7086    0.8770    0.4030 C   0  0  0  0  0  0  0  0  0  0  0  0
   -0.5542    1.8278   -0.7035 C   0  0  0  0  0  0  0  0  0  0  0  0
   -1.5240    2.2381   -1.5744 C   0  0  0  0  0  0  0  0  0  0  0  0
   -1.2582    3.1779   -2.5754 C   0  0  0  0  0  0  0  0  0  0  0  0
   -0.0101    3.7333   -2.7316 C   0  0  0  0  0  0  0  0  0  0  0  0
    0.2916    4.9104   -3.9980 Cl  0  0  0  0  0  0  0  0  0  0  0  0
    0.9794    3.3309   -1.8627 C   0  0  0  0  0  0  0  0  0  0  0  0
    0.7100    2.4107   -0.8856 C   0  0  0  0  0  0  0  0  0  0  0  0
   -2.6086    1.5978    3.0867 H   0  0  0  0  0  0  0  0  0  0  0  0
   -2.7099    3.1568    2.2406 H   0  0  0  0  0  0  0  0  0  0  0  0
   -4.2262    2.2971    2.5872 H   0  0  0  0  0  0  0  0  0  0  0  0
   -3.8730    1.6661    0.3550 H   0  0  0  0  0  0  0  0  0  0  0  0
   -4.7946   -0.1781    1.4503 H   0  0  0  0  0  0  0  0  0  0  0  0
   -3.0301   -3.5854    1.9124 H   0  0  0  0  0  0  0  0  0  0  0  0
   -2.4324   -4.7975   -0.1843 H   0  0  0  0  0  0  0  0  0  0  0  0
   -2.8614   -3.3619   -1.2566 H   0  0  0  0  0  0  0  0  0  0  0  0
   -4.8308   -4.7779    0.6262 H   0  0  0  0  0  0  0  0  0  0  0  0
   -5.1733   -3.2327   -0.3495 H   0  0  0  0  0  0  0  0  0  0  0  0
    1.2258   -0.4551   -2.1708 H   0  0  0  0  0  0  0  0  0  0  0  0
    4.2984    0.3404   -3.3354 H   0  0  0  0  0  0  0  0  0  0  0  0
    2.9642   -0.8781   -3.6899 H   0  0  0  0  0  0  0  0  0  0  0  0
    4.5773   -1.3992   -3.1196 H   0  0  0  0  0  0  0  0  0  0  0  0
    3.7658    0.0643    3.3841 H   0  0  0  0  0  0  0  0  0  0  0  0
    4.8140   -1.4030    3.5332 H   0  0  0  0  0  0  0  0  0  0  0  0
    5.5571    0.2132    3.3988 H   0  0  0  0  0  0  0  0  0  0  0  0
    2.0367   -0.3483    1.9805 H   0  0  0  0  0  0  0  0  0  0  0  0
   -0.3167    1.4022    1.3216 H   0  0  0  0  0  0  0  0  0  0  0  0
   -2.4942    1.8211   -1.4882 H   0  0  0  0  0  0  0  0  0  0  0  0
   -2.0566    3.4734   -3.2419 H   0  0  0  0  0  0  0  0  0  0  0  0
    1.9718    3.7576   -1.9696 H   0  0  0  0  0  0  0  0  0  0  0  0
    1.5307    2.1354   -0.2215 H   0  0  0  0  0  0  0  0  0  0  0  0
  1  2  1  0
  2  3  1  0
  3  4  2  0
  4  5  1  0
  5  6  2  3
  5  7  1  0
  7  8  1  0
  8  9  1  0
  4 10  1  0
 10 11  2  0
 10 12  1  0
 12 13  1  0
 13 14  1  0
 14 15  2  0
 15 16  1  0
 15 17  1  0
 17 18  2  0
 18 19  1  0
 19 20  2  0
 20 21  1  0
 20 22  1  0
 22 23  1  0
 12 24  1  0
 24 25  1  0
 25 26  2  0
 26 27  1  0
 27 28  2  0
 28 29  1  0
 28 30  1  0
 30 31  2  0
 24  3  1  0
 31 25  1  0
  9  7  1  0
 23 13  2  0
 22 17  1  0
  1 32  1  0
  1 33  1  0
  1 34  1  0
  2 35  1  0
  6 36  1  0
  7 37  1  0
  8 38  1  0
  8 39  1  0
  9 40  1  0
  9 41  1  0
 14 42  1  0
 16 43  1  0
 16 44  1  0
 16 45  1  0
 21 46  1  0
 21 47  1  0
 21 48  1  0
 23 49  1  0
 24 50  1  0
 26 51  1  0
 27 52  1  0
 30 53  1  0
 31 54  1  0
M  END
$$$$
