
     RDKit          3D

 49 52  0  0  0  0  0  0  0  0999 V2000
    0.1734   -1.2454   -2.6310 O   0  0  0  0  0  0  0  0  0  0  0  0
    0.7566   -0.5338   -1.7541 C   0  0  0  0  0  0  0  0  0  0  0  0
    2.1604   -0.1818   -2.0036 C   0  0  0  0  0  0  0  0  0  0  0  0
    2.6470    0.5731   -0.8329 N   0  0  0  0  0  0  0  0  0  0  0  0
    3.9936    1.1046   -1.1619 C   0  0  0  0  0  0  0  0  0  0  0  0
    4.4612    1.4855    0.2201 C   0  0  0  0  0  0  0  0  0  0  0  0
    4.1285    0.2188    0.9899 C   0  0  2  0  0  0  0  0  0  0  0  0
    5.3461   -0.6875    1.0815 C   0  0  0  0  0  0  0  0  0  0  0  0
    5.0261   -1.8320    1.7824 F   0  0  0  0  0  0  0  0  0  0  0  0
    6.3574   -0.0459    1.7904 F   0  0  0  0  0  0  0  0  0  0  0  0
    5.7797   -1.0729   -0.1650 F   0  0  0  0  0  0  0  0  0  0  0  0
    3.0951   -0.4666    0.1306 C   0  0  0  0  0  0  0  0  0  0  0  0
   -0.0070   -0.1471   -0.6247 N   0  0  0  0  0  0  0  0  0  0  0  0
   -1.3636   -0.5810   -0.5336 C   0  0  1  0  0  0  0  0  0  0  0  0
   -1.8041   -1.1104    0.7823 C   0  0  0  0  0  0  0  0  0  0  0  0
   -1.7873   -0.0531    1.8478 C   0  0  0  0  0  0  0  0  0  0  0  0
   -2.7720    1.0305    1.4697 C   0  0  0  0  0  0  0  0  0  0  0  0
   -2.2229    1.6493    0.1906 C   0  0  0  0  0  0  0  0  0  0  0  0
   -2.2603    0.6114   -0.8773 C   0  0  0  0  0  0  0  0  0  0  0  0
   -3.6488    0.0748   -1.1327 C   0  0  0  0  0  0  0  0  0  0  0  0
   -4.1553   -0.5511    0.1503 C   0  0  2  0  0  0  0  0  0  0  0  0
   -5.4190   -1.0718   -0.0202 O   0  0  0  0  0  0  0  0  0  0  0  0
   -4.1551    0.5297    1.2108 C   0  0  0  0  0  0  0  0  0  0  0  0
   -3.2303   -1.6443    0.5782 C   0  0  0  0  0  0  0  0  0  0  0  0
    2.7391   -1.1421   -2.0874 H   0  0  0  0  0  0  0  0  0  0  0  0
    2.2590    0.4269   -2.9334 H   0  0  0  0  0  0  0  0  0  0  0  0
    3.9135    1.9650   -1.8382 H   0  0  0  0  0  0  0  0  0  0  0  0
    4.5572    0.2601   -1.5657 H   0  0  0  0  0  0  0  0  0  0  0  0
    3.7820    2.2766    0.6094 H   0  0  0  0  0  0  0  0  0  0  0  0
    5.5136    1.7481    0.2736 H   0  0  0  0  0  0  0  0  0  0  0  0
    3.6859    0.4167    1.9712 H   0  0  0  0  0  0  0  0  0  0  0  0
    2.2491   -0.8779    0.6725 H   0  0  0  0  0  0  0  0  0  0  0  0
    3.6032   -1.2208   -0.5113 H   0  0  0  0  0  0  0  0  0  0  0  0
    0.4285    0.4484    0.1053 H   0  0  0  0  0  0  0  0  0  0  0  0
   -1.6150   -1.3422   -1.3226 H   0  0  0  0  0  0  0  0  0  0  0  0
   -1.2112   -1.9622    1.1562 H   0  0  0  0  0  0  0  0  0  0  0  0
   -0.7763    0.4077    1.8504 H   0  0  0  0  0  0  0  0  0  0  0  0
   -1.9639   -0.4714    2.8546 H   0  0  0  0  0  0  0  0  0  0  0  0
   -2.7893    1.7970    2.2662 H   0  0  0  0  0  0  0  0  0  0  0  0
   -1.1348    1.8601    0.4037 H   0  0  0  0  0  0  0  0  0  0  0  0
   -2.7831    2.5291   -0.1241 H   0  0  0  0  0  0  0  0  0  0  0  0
   -1.8738    1.0379   -1.8250 H   0  0  0  0  0  0  0  0  0  0  0  0
   -3.5420   -0.7394   -1.8918 H   0  0  0  0  0  0  0  0  0  0  0  0
   -4.2926    0.8721   -1.5148 H   0  0  0  0  0  0  0  0  0  0  0  0
   -5.7531   -1.3536    0.8668 H   0  0  0  0  0  0  0  0  0  0  0  0
   -4.7371    1.3745    0.7858 H   0  0  0  0  0  0  0  0  0  0  0  0
   -4.6603    0.1353    2.0975 H   0  0  0  0  0  0  0  0  0  0  0  0
   -3.1471   -2.3802   -0.2550 H   0  0  0  0  0  0  0  0  0  0  0  0
   -3.5512   -2.1185    1.5201 H   0  0  0  0  0  0  0  0  0  0  0  0
  1  2  2  0
  2  3  1  0
  3  4  1  0
  4  5  1  0
  5  6  1  0
  6  7  1  0
  7  8  1  0
  8  9  1  0
  8 10  1  0
  8 11  1  0
  7 12  1  0
  2 13  1  0
 13 14  1  0
 14 15  1  0
 15 16  1  0
 16 17  1  0
 17 18  1  0
 18 19  1  0
 19 20  1  0
 20 21  1  0
 21 22  1  6
 21 23  1  0
 21 24  1  0
 12  4  1  0
 19 14  1  0
 24 15  1  0
 23 17  1  0
  3 25  1  0
  3 26  1  0
  5 27  1  0
  5 28  1  0
  6 29  1  0
  6 30  1  0
  7 31  1  1
 12 32  1  0
 12 33  1  0
 13 34  1  0
 14 35  1  6
 15 36  1  0
 16 37  1  0
 16 38  1  0
 17 39  1  0
 18 40  1  0
 18 41  1  0
 19 42  1  0
 20 43  1  0
 20 44  1  0
 22 45  1  0
 23 46  1  0
 23 47  1  0
 24 48  1  0
 24 49  1  0
M  END
$$$$
