
     RDKit          3D

 87 93  0  0  0  0  0  0  0  0999 V2000
   12.3129    2.5299    1.0660 C   0  0  0  0  0  0  0  0  0  0  0  0
   12.3484    1.0349    1.2996 C   0  0  0  0  0  0  0  0  0  0  0  0
   11.5180    0.3023    0.2820 C   0  0  0  0  0  0  0  0  0  0  0  0
   11.5880   -1.1860    0.5547 C   0  0  0  0  0  0  0  0  0  0  0  0
   10.1362    0.7393    0.2388 N   0  0  0  0  0  0  0  0  0  0  0  0
    9.7297    1.9398    0.5805 N   0  0  0  0  0  0  0  0  0  0  0  0
    8.3737    1.9811    0.4132 C   0  0  0  0  0  0  0  0  0  0  0  0
    7.9280    0.7960   -0.0375 N   0  0  0  0  0  0  0  0  0  0  0  0
    6.6125    0.3639   -0.3534 C   0  0  0  0  0  0  0  0  0  0  0  0
    6.1424   -0.8742    0.0504 C   0  0  0  0  0  0  0  0  0  0  0  0
    4.8671   -1.2847   -0.2692 C   0  0  0  0  0  0  0  0  0  0  0  0
    4.0038   -0.4826   -1.0037 C   0  0  0  0  0  0  0  0  0  0  0  0
    2.7001   -0.9303   -1.3362 N   0  0  0  0  0  0  0  0  0  0  0  0
    2.2991   -2.3018   -0.9934 C   0  0  0  0  0  0  0  0  0  0  0  0
    0.8602   -2.5512   -1.4008 C   0  0  0  0  0  0  0  0  0  0  0  0
   -0.0021   -1.4803   -0.9747 N   0  0  0  0  0  0  0  0  0  0  0  0
   -1.2905   -1.6621   -0.3728 C   0  0  0  0  0  0  0  0  0  0  0  0
   -2.0480   -0.5669   -0.0110 C   0  0  0  0  0  0  0  0  0  0  0  0
   -3.3074   -0.7253    0.5759 C   0  0  0  0  0  0  0  0  0  0  0  0
   -3.8661   -1.9515    0.8271 C   0  0  0  0  0  0  0  0  0  0  0  0
   -5.0912   -2.1448    1.3922 O   0  0  0  0  0  0  0  0  0  0  0  0
   -6.0808   -1.3222    1.8249 C   0  0  0  0  0  0  0  0  0  0  0  0
   -6.7066   -0.4858    0.7432 C   0  0  0  0  0  0  0  0  0  0  0  0
   -7.5721   -1.3821   -0.1803 C   0  0  0  0  0  0  0  0  0  0  0  0
   -8.2726   -0.3726   -0.8282 O   0  0  0  0  0  0  0  0  0  0  0  0
   -8.3523    0.7200    0.0025 C   0  0  0  0  0  0  0  0  0  0  0  0
   -9.8214    0.9996    0.2727 C   0  0  0  0  0  0  0  0  0  0  0  0
  -10.3858   -0.1616    0.9065 N   0  0  0  0  0  0  0  0  0  0  0  0
  -10.9702   -1.2401    0.3679 C   0  0  0  0  0  0  0  0  0  0  0  0
  -11.3515   -2.0733    1.3470 N   0  0  0  0  0  0  0  0  0  0  0  0
  -11.0024   -1.5100    2.5039 C   0  0  0  0  0  0  0  0  0  0  0  0
  -10.4081   -0.3340    2.2297 N   0  0  0  0  0  0  0  0  0  0  0  0
   -7.6282    1.9193   -0.4818 C   0  0  0  0  0  0  0  0  0  0  0  0
   -6.6533    2.5175    0.2898 C   0  0  0  0  0  0  0  0  0  0  0  0
   -5.9646    3.6577   -0.0970 C   0  0  0  0  0  0  0  0  0  0  0  0
   -6.2360    4.2461   -1.2913 C   0  0  0  0  0  0  0  0  0  0  0  0
   -5.3696    5.6815   -1.7740 Cl  0  0  0  0  0  0  0  0  0  0  0  0
   -7.2051    3.6738   -2.0871 C   0  0  0  0  0  0  0  0  0  0  0  0
   -7.8926    2.5295   -1.6934 C   0  0  0  0  0  0  0  0  0  0  0  0
   -9.0863    1.8677   -2.7526 Cl  0  0  0  0  0  0  0  0  0  0  0  0
   -7.7133    0.3469    1.2159 O   0  0  0  0  0  0  0  0  0  0  0  0
   -3.0913   -3.0655    0.4580 C   0  0  0  0  0  0  0  0  0  0  0  0
   -1.8516   -2.8889   -0.1193 C   0  0  0  0  0  0  0  0  0  0  0  0
    0.4555   -0.0938   -1.1598 C   0  0  0  0  0  0  0  0  0  0  0  0
    1.7358   -0.1103   -2.0027 C   0  0  0  0  0  0  0  0  0  0  0  0
    4.4644    0.7318   -1.3996 C   0  0  0  0  0  0  0  0  0  0  0  0
    5.7486    1.1419   -1.0762 C   0  0  0  0  0  0  0  0  0  0  0  0
    9.0556    0.0242   -0.1417 C   0  0  0  0  0  0  0  0  0  0  0  0
    9.0402   -1.1592   -0.5345 O   0  0  0  0  0  0  0  0  0  0  0  0
   12.1143    2.7692   -0.0215 H   0  0  0  0  0  0  0  0  0  0  0  0
   11.6129    3.0653    1.7110 H   0  0  0  0  0  0  0  0  0  0  0  0
   13.3241    2.9520    1.2525 H   0  0  0  0  0  0  0  0  0  0  0  0
   11.9738    0.8718    2.3333 H   0  0  0  0  0  0  0  0  0  0  0  0
   13.3962    0.7080    1.1641 H   0  0  0  0  0  0  0  0  0  0  0  0
   11.9948    0.4745   -0.7068 H   0  0  0  0  0  0  0  0  0  0  0  0
   10.9804   -1.5063    1.4007 H   0  0  0  0  0  0  0  0  0  0  0  0
   11.3041   -1.7170   -0.3986 H   0  0  0  0  0  0  0  0  0  0  0  0
   12.6409   -1.4293    0.7534 H   0  0  0  0  0  0  0  0  0  0  0  0
    7.7438    2.8278    0.6085 H   0  0  0  0  0  0  0  0  0  0  0  0
    6.8186   -1.5020    0.6258 H   0  0  0  0  0  0  0  0  0  0  0  0
    4.5001   -2.2533    0.0470 H   0  0  0  0  0  0  0  0  0  0  0  0
    2.3946   -2.4801    0.0932 H   0  0  0  0  0  0  0  0  0  0  0  0
    2.9319   -3.0420   -1.5226 H   0  0  0  0  0  0  0  0  0  0  0  0
    0.5266   -3.5221   -1.0424 H   0  0  0  0  0  0  0  0  0  0  0  0
    0.8598   -2.5454   -2.5321 H   0  0  0  0  0  0  0  0  0  0  0  0
   -1.6629    0.4383   -0.1813 H   0  0  0  0  0  0  0  0  0  0  0  0
   -3.8450    0.1667    0.8525 H   0  0  0  0  0  0  0  0  0  0  0  0
   -5.7043   -0.6080    2.5991 H   0  0  0  0  0  0  0  0  0  0  0  0
   -6.8961   -1.9686    2.2658 H   0  0  0  0  0  0  0  0  0  0  0  0
   -6.0216    0.0895    0.1379 H   0  0  0  0  0  0  0  0  0  0  0  0
   -6.9382   -1.9669   -0.8658 H   0  0  0  0  0  0  0  0  0  0  0  0
   -8.1894   -2.0175    0.4573 H   0  0  0  0  0  0  0  0  0  0  0  0
   -9.9900    1.9291    0.8529 H   0  0  0  0  0  0  0  0  0  0  0  0
  -10.3202    1.1133   -0.6945 H   0  0  0  0  0  0  0  0  0  0  0  0
  -11.1217   -1.4331   -0.6816 H   0  0  0  0  0  0  0  0  0  0  0  0
  -11.1582   -1.9088    3.5008 H   0  0  0  0  0  0  0  0  0  0  0  0
   -6.4069    2.0856    1.2747 H   0  0  0  0  0  0  0  0  0  0  0  0
   -5.2223    4.0438    0.5809 H   0  0  0  0  0  0  0  0  0  0  0  0
   -7.4154    4.1436   -3.0298 H   0  0  0  0  0  0  0  0  0  0  0  0
   -3.5146   -4.0430    0.6480 H   0  0  0  0  0  0  0  0  0  0  0  0
   -1.2733   -3.7776   -0.3972 H   0  0  0  0  0  0  0  0  0  0  0  0
   -0.3213    0.5215   -1.6601 H   0  0  0  0  0  0  0  0  0  0  0  0
    0.7241    0.2744   -0.1564 H   0  0  0  0  0  0  0  0  0  0  0  0
    2.0352    0.9205   -2.2128 H   0  0  0  0  0  0  0  0  0  0  0  0
    1.4395   -0.6529   -2.9429 H   0  0  0  0  0  0  0  0  0  0  0  0
    3.8928    1.4429   -1.9739 H   0  0  0  0  0  0  0  0  0  0  0  0
    6.0938    2.1322   -1.4100 H   0  0  0  0  0  0  0  0  0  0  0  0
  1  2  1  0
  2  3  1  0
  3  4  1  0
  3  5  1  0
  5  6  1  0
  6  7  2  0
  7  8  1  0
  8  9  1  0
  9 10  2  0
 10 11  1  0
 11 12  2  0
 12 13  1  0
 13 14  1  0
 14 15  1  0
 15 16  1  0
 16 17  1  0
 17 18  2  0
 18 19  1  0
 19 20  2  0
 20 21  1  0
 21 22  1  0
 22 23  1  0
 23 24  1  0
 24 25  1  0
 25 26  1  0
 26 27  1  0
 27 28  1  0
 28 29  1  0
 29 30  2  0
 30 31  1  0
 31 32  2  0
 26 33  1  0
 33 34  2  0
 34 35  1  0
 35 36  2  0
 36 37  1  0
 36 38  1  0
 38 39  2  0
 39 40  1  0
 26 41  1  0
 20 42  1  0
 42 43  2  0
 16 44  1  0
 44 45  1  0
 12 46  1  0
 46 47  2  0
  8 48  1  0
 48 49  2  0
 48  5  1  0
 47  9  1  0
 45 13  1  0
 43 17  1  0
 41 23  1  0
 32 28  1  0
 39 33  1  0
  1 50  1  0
  1 51  1  0
  1 52  1  0
  2 53  1  0
  2 54  1  0
  3 55  1  0
  4 56  1  0
  4 57  1  0
  4 58  1  0
  7 59  1  0
 10 60  1  0
 11 61  1  0
 14 62  1  0
 14 63  1  0
 15 64  1  0
 15 65  1  0
 18 66  1  0
 19 67  1  0
 22 68  1  0
 22 69  1  0
 23 70  1  0
 24 71  1  0
 24 72  1  0
 27 73  1  0
 27 74  1  0
 29 75  1  0
 31 76  1  0
 34 77  1  0
 35 78  1  0
 38 79  1  0
 42 80  1  0
 43 81  1  0
 44 82  1  0
 44 83  1  0
 45 84  1  0
 45 85  1  0
 46 86  1  0
 47 87  1  0
M  END
$$$$
