
     RDKit          3D

 81 87  0  0  0  0  0  0  0  0999 V2000
   -8.3621   -5.0877    3.1556 C   0  0  0  0  0  0  0  0  0  0  0  0
   -8.2739   -4.8325    1.7673 O   0  0  0  0  0  0  0  0  0  0  0  0
   -7.7353   -3.6156    1.3311 C   0  0  0  0  0  0  0  0  0  0  0  0
   -7.2914   -2.6668    2.2272 C   0  0  0  0  0  0  0  0  0  0  0  0
   -6.7572   -1.4598    1.8025 C   0  0  0  0  0  0  0  0  0  0  0  0
   -6.6483   -1.1595    0.4610 C   0  0  0  0  0  0  0  0  0  0  0  0
   -6.1070    0.0712   -0.0233 N   0  0  0  0  0  0  0  0  0  0  0  0
   -6.7488    1.1739   -0.3559 N   0  0  0  0  0  0  0  0  0  0  0  0
   -5.9321    2.1436   -0.7734 C   0  0  0  0  0  0  0  0  0  0  0  0
   -6.3016    3.5321   -1.2286 C   0  0  0  0  0  0  0  0  0  0  0  0
   -5.0412    4.2635   -1.6203 C   0  0  0  0  0  0  0  0  0  0  0  0
   -6.9603    4.1871   -0.0206 C   0  0  0  0  0  0  0  0  0  0  0  0
   -7.3317    3.5005   -2.3346 C   0  0  0  0  0  0  0  0  0  0  0  0
   -4.6587    1.6214   -0.7038 C   0  0  0  0  0  0  0  0  0  0  0  0
   -4.7921    0.3337   -0.2353 C   0  0  0  0  0  0  0  0  0  0  0  0
   -3.7494   -0.5982    0.0038 N   0  0  0  0  0  0  0  0  0  0  0  0
   -2.3906   -0.3274   -0.2082 C   0  0  0  0  0  0  0  0  0  0  0  0
   -2.0174    0.7963   -0.6400 O   0  0  0  0  0  0  0  0  0  0  0  0
   -1.3604   -1.2888    0.0469 N   0  0  0  0  0  0  0  0  0  0  0  0
   -0.0164   -0.9745   -0.1781 C   0  0  0  0  0  0  0  0  0  0  0  0
    0.5573   -1.2211   -1.3930 C   0  0  0  0  0  0  0  0  0  0  0  0
    1.8627   -0.9098   -1.6176 C   0  0  0  0  0  0  0  0  0  0  0  0
    2.6682   -0.3357   -0.6441 C   0  0  0  0  0  0  0  0  0  0  0  0
    3.9264   -0.0053   -0.7723 O   0  0  0  0  0  0  0  0  0  0  0  0
    4.9930    0.0465   -1.5116 C   0  0  0  0  0  0  0  0  0  0  0  0
    5.1580   -0.3984   -2.8226 C   0  0  0  0  0  0  0  0  0  0  0  0
    6.3417   -0.2929   -3.5136 C   0  0  0  0  0  0  0  0  0  0  0  0
    7.3917    0.2644   -2.9018 N   0  0  0  0  0  0  0  0  0  0  0  0
    7.2770    0.7132   -1.6222 C   0  0  0  0  0  0  0  0  0  0  0  0
    8.4582    1.2923   -1.0659 N   0  0  0  0  0  0  0  0  0  0  0  0
    9.3651    0.4942   -0.3101 C   0  0  0  0  0  0  0  0  0  0  0  0
    9.1405   -0.8421   -0.0687 C   0  0  0  0  0  0  0  0  0  0  0  0
   10.0324   -1.5604    0.6596 C   0  0  0  0  0  0  0  0  0  0  0  0
   11.1723   -1.0069    1.1785 C   0  0  0  0  0  0  0  0  0  0  0  0
   12.2262   -1.4201    1.9178 N   0  0  0  0  0  0  0  0  0  0  0  0
   13.0594   -0.4144    2.1289 N   0  0  0  0  0  0  0  0  0  0  0  0
   12.5828    0.6890    1.5377 C   0  0  0  0  0  0  0  0  0  0  0  0
   11.3965    0.3486    0.9314 C   0  0  0  0  0  0  0  0  0  0  0  0
   10.5004    1.0760    0.1980 C   0  0  0  0  0  0  0  0  0  0  0  0
    6.1388    0.6066   -0.9707 N   0  0  0  0  0  0  0  0  0  0  0  0
    2.0154   -0.0976    0.6151 C   0  0  0  0  0  0  0  0  0  0  0  0
    2.7881    0.4719    1.6095 C   0  0  0  0  0  0  0  0  0  0  0  0
    2.2005    0.7147    2.8312 C   0  0  0  0  0  0  0  0  0  0  0  0
    0.8792    0.4042    3.0719 C   0  0  0  0  0  0  0  0  0  0  0  0
    0.1129   -0.1646    2.0738 C   0  0  0  0  0  0  0  0  0  0  0  0
    0.7187   -0.4033    0.8490 C   0  0  0  0  0  0  0  0  0  0  0  0
   -7.0945   -2.1141   -0.4304 C   0  0  0  0  0  0  0  0  0  0  0  0
   -7.6262   -3.3151   -0.0100 C   0  0  0  0  0  0  0  0  0  0  0  0
   -8.7291   -6.1115    3.3303 H   0  0  0  0  0  0  0  0  0  0  0  0
   -8.9338   -4.3088    3.7027 H   0  0  0  0  0  0  0  0  0  0  0  0
   -7.3269   -5.0621    3.6002 H   0  0  0  0  0  0  0  0  0  0  0  0
   -7.3820   -2.9137    3.2901 H   0  0  0  0  0  0  0  0  0  0  0  0
   -6.4195   -0.7407    2.5364 H   0  0  0  0  0  0  0  0  0  0  0  0
   -4.4809    3.6052   -2.3396 H   0  0  0  0  0  0  0  0  0  0  0  0
   -5.3087    5.1797   -2.1844 H   0  0  0  0  0  0  0  0  0  0  0  0
   -4.4587    4.4731   -0.7032 H   0  0  0  0  0  0  0  0  0  0  0  0
   -6.2138    4.4766    0.7462 H   0  0  0  0  0  0  0  0  0  0  0  0
   -7.5756    5.0542   -0.3372 H   0  0  0  0  0  0  0  0  0  0  0  0
   -7.6621    3.4279    0.4130 H   0  0  0  0  0  0  0  0  0  0  0  0
   -6.8791    3.5787   -3.3441 H   0  0  0  0  0  0  0  0  0  0  0  0
   -8.0146    2.6466   -2.2296 H   0  0  0  0  0  0  0  0  0  0  0  0
   -7.9723    4.4225   -2.2201 H   0  0  0  0  0  0  0  0  0  0  0  0
   -3.7913    2.1929   -0.9847 H   0  0  0  0  0  0  0  0  0  0  0  0
   -3.9785   -1.5545    0.3630 H   0  0  0  0  0  0  0  0  0  0  0  0
   -1.6554   -2.2174    0.4020 H   0  0  0  0  0  0  0  0  0  0  0  0
   -0.0375   -1.6642   -2.1679 H   0  0  0  0  0  0  0  0  0  0  0  0
    2.3027   -1.1107   -2.5883 H   0  0  0  0  0  0  0  0  0  0  0  0
    4.3416   -0.8535   -3.3528 H   0  0  0  0  0  0  0  0  0  0  0  0
    6.4577   -0.6395   -4.5251 H   0  0  0  0  0  0  0  0  0  0  0  0
    8.6616    2.3018   -1.2105 H   0  0  0  0  0  0  0  0  0  0  0  0
    8.2279   -1.2679   -0.4888 H   0  0  0  0  0  0  0  0  0  0  0  0
    9.8512   -2.6122    0.8471 H   0  0  0  0  0  0  0  0  0  0  0  0
   12.3563   -2.3986    2.2693 H   0  0  0  0  0  0  0  0  0  0  0  0
   13.0417    1.6608    1.5369 H   0  0  0  0  0  0  0  0  0  0  0  0
   10.6898    2.1187    0.0176 H   0  0  0  0  0  0  0  0  0  0  0  0
    3.8179    0.7075    1.4026 H   0  0  0  0  0  0  0  0  0  0  0  0
    2.7855    1.1624    3.6334 H   0  0  0  0  0  0  0  0  0  0  0  0
    0.4247    0.5939    4.0225 H   0  0  0  0  0  0  0  0  0  0  0  0
   -0.9189   -0.4354    2.1791 H   0  0  0  0  0  0  0  0  0  0  0  0
   -7.0102   -1.8802   -1.5024 H   0  0  0  0  0  0  0  0  0  0  0  0
   -7.9764   -4.0637   -0.7221 H   0  0  0  0  0  0  0  0  0  0  0  0
  1  2  1  0
  2  3  1  0
  3  4  2  0
  4  5  1  0
  5  6  2  0
  6  7  1  0
  7  8  1  0
  8  9  2  0
  9 10  1  0
 10 11  1  0
 10 12  1  0
 10 13  1  0
  9 14  1  0
 14 15  2  0
 15 16  1  0
 16 17  1  0
 17 18  2  0
 17 19  1  0
 19 20  1  0
 20 21  2  0
 21 22  1  0
 22 23  2  0
 23 24  1  0
 24 25  1  0
 25 26  2  0
 26 27  1  0
 27 28  2  0
 28 29  1  0
 29 30  1  0
 30 31  1  0
 31 32  2  0
 32 33  1  0
 33 34  2  0
 34 35  1  0
 35 36  1  0
 36 37  2  0
 37 38  1  0
 38 39  2  0
 29 40  2  0
 23 41  1  0
 41 42  2  0
 42 43  1  0
 43 44  2  0
 44 45  1  0
 45 46  2  0
  6 47  1  0
 47 48  2  0
 48  3  1  0
 15  7  1  0
 46 20  1  0
 40 25  1  0
 46 41  1  0
 39 31  1  0
 38 34  1  0
  1 49  1  0
  1 50  1  0
  1 51  1  0
  4 52  1  0
  5 53  1  0
 11 54  1  0
 11 55  1  0
 11 56  1  0
 12 57  1  0
 12 58  1  0
 12 59  1  0
 13 60  1  0
 13 61  1  0
 13 62  1  0
 14 63  1  0
 16 64  1  0
 19 65  1  0
 21 66  1  0
 22 67  1  0
 26 68  1  0
 27 69  1  0
 30 70  1  0
 32 71  1  0
 33 72  1  0
 35 73  1  0
 37 74  1  0
 39 75  1  0
 42 76  1  0
 43 77  1  0
 44 78  1  0
 45 79  1  0
 47 80  1  0
 48 81  1  0
M  END
$$$$
