
     RDKit          3D

 62 66  0  0  0  0  0  0  0  0999 V2000
   -5.2876    5.3838   -0.9781 C   0  0  0  0  0  0  0  0  0  0  0  0
   -4.3705    4.2537   -0.8928 N   0  0  0  0  0  0  0  0  0  0  0  0
   -4.8015    2.9807   -0.4482 C   0  0  0  0  0  0  0  0  0  0  0  0
   -6.0328    2.8739   -0.1263 O   0  0  0  0  0  0  0  0  0  0  0  0
   -3.9229    1.8610   -0.3567 N   0  0  0  0  0  0  0  0  0  0  0  0
   -4.4267    0.5853    0.1060 C   0  0  0  0  0  0  0  0  0  0  0  0
   -3.7747   -0.5438   -0.6942 C   0  0  0  0  0  0  0  0  0  0  0  0
   -2.3054   -0.4318   -0.4931 C   0  0  0  0  0  0  0  0  0  0  0  0
   -1.7440    0.8205   -0.5195 C   0  0  0  0  0  0  0  0  0  0  0  0
   -0.3805    0.7020   -0.3137 C   0  0  0  0  0  0  0  0  0  0  0  0
    0.5992    1.7282   -0.2608 N   0  0  0  0  0  0  0  0  0  0  0  0
    1.9577    1.4117   -0.0387 C   0  0  0  0  0  0  0  0  0  0  0  0
    2.9159    1.7442   -0.9714 C   0  0  0  0  0  0  0  0  0  0  0  0
    4.2221    1.4153   -0.7101 C   0  0  0  0  0  0  0  0  0  0  0  0
    5.2532    1.7539   -1.6765 C   0  0  0  0  0  0  0  0  0  0  0  0
    6.0659    2.0002   -2.4340 N   0  0  0  0  0  0  0  0  0  0  0  0
    4.5578    0.7662    0.4636 C   0  0  0  0  0  0  0  0  0  0  0  0
    5.9455    0.4263    0.7222 C   0  0  0  0  0  0  0  0  0  0  0  0
    7.0657    1.1814    0.5618 C   0  0  0  0  0  0  0  0  0  0  0  0
    8.1172    0.4525    0.9267 N   0  0  0  0  0  0  0  0  0  0  0  0
    7.6917   -0.7370    1.3112 N   0  0  0  0  0  0  0  0  0  0  0  0
    8.5633   -1.8054    1.7800 C   0  0  0  0  0  0  0  0  0  0  0  0
    6.3568   -0.8014    1.2028 C   0  0  0  0  0  0  0  0  0  0  0  0
    3.6138    0.4288    1.4017 C   0  0  0  0  0  0  0  0  0  0  0  0
    2.2820    0.7629    1.1377 C   0  0  0  0  0  0  0  0  0  0  0  0
    1.3485    0.4383    2.0476 F   0  0  0  0  0  0  0  0  0  0  0  0
   -0.1700   -0.6190   -0.1706 N   0  0  0  0  0  0  0  0  0  0  0  0
   -1.3015   -1.2947   -0.2752 N   0  0  0  0  0  0  0  0  0  0  0  0
   -1.5165   -2.7398   -0.1825 C   0  0  0  0  0  0  0  0  0  0  0  0
   -2.1791   -3.1695   -1.4475 C   0  0  0  0  0  0  0  0  0  0  0  0
   -3.2093   -4.2311   -1.2849 C   0  0  0  0  0  0  0  0  0  0  0  0
   -2.8140   -5.0339   -0.1933 O   0  0  0  0  0  0  0  0  0  0  0  0
   -3.1444   -4.2891    0.9435 C   0  0  0  0  0  0  0  0  0  0  0  0
   -2.2417   -3.1117    1.0653 C   0  0  0  0  0  0  0  0  0  0  0  0
   -2.5431    2.0690   -0.7411 C   0  0  0  0  0  0  0  0  0  0  0  0
   -4.9866    6.1181   -0.2053 H   0  0  0  0  0  0  0  0  0  0  0  0
   -5.1972    5.8975   -1.9561 H   0  0  0  0  0  0  0  0  0  0  0  0
   -6.3352    5.0675   -0.7868 H   0  0  0  0  0  0  0  0  0  0  0  0
   -3.3872    4.3937   -1.1646 H   0  0  0  0  0  0  0  0  0  0  0  0
   -5.5166    0.5580   -0.1619 H   0  0  0  0  0  0  0  0  0  0  0  0
   -4.3380    0.4386    1.1866 H   0  0  0  0  0  0  0  0  0  0  0  0
   -4.0720   -0.3697   -1.7487 H   0  0  0  0  0  0  0  0  0  0  0  0
   -4.1938   -1.4963   -0.3772 H   0  0  0  0  0  0  0  0  0  0  0  0
    0.2998    2.7092   -0.3876 H   0  0  0  0  0  0  0  0  0  0  0  0
    2.6321    2.2469   -1.8734 H   0  0  0  0  0  0  0  0  0  0  0  0
    7.0360    2.2163    0.1879 H   0  0  0  0  0  0  0  0  0  0  0  0
    8.0452   -2.3703    2.5834 H   0  0  0  0  0  0  0  0  0  0  0  0
    9.5096   -1.4177    2.2074 H   0  0  0  0  0  0  0  0  0  0  0  0
    8.7987   -2.5214    0.9480 H   0  0  0  0  0  0  0  0  0  0  0  0
    5.7185   -1.6617    1.4484 H   0  0  0  0  0  0  0  0  0  0  0  0
    3.9103   -0.0796    2.3112 H   0  0  0  0  0  0  0  0  0  0  0  0
   -0.5009   -3.1952   -0.1321 H   0  0  0  0  0  0  0  0  0  0  0  0
   -1.4039   -3.5688   -2.1645 H   0  0  0  0  0  0  0  0  0  0  0  0
   -2.6437   -2.3132   -2.0167 H   0  0  0  0  0  0  0  0  0  0  0  0
   -3.3162   -4.8637   -2.1842 H   0  0  0  0  0  0  0  0  0  0  0  0
   -4.2116   -3.8200   -0.9857 H   0  0  0  0  0  0  0  0  0  0  0  0
   -3.1351   -4.9637    1.8067 H   0  0  0  0  0  0  0  0  0  0  0  0
   -4.1964   -3.9388    0.7753 H   0  0  0  0  0  0  0  0  0  0  0  0
   -2.8418   -2.2565    1.4848 H   0  0  0  0  0  0  0  0  0  0  0  0
   -1.4998   -3.3451    1.8839 H   0  0  0  0  0  0  0  0  0  0  0  0
   -2.0746    2.9165   -0.1611 H   0  0  0  0  0  0  0  0  0  0  0  0
   -2.4892    2.3880   -1.8089 H   0  0  0  0  0  0  0  0  0  0  0  0
  1  2  1  0
  2  3  1  0
  3  4  2  0
  3  5  1  0
  5  6  1  0
  6  7  1  0
  7  8  1  0
  8  9  2  0
  9 10  1  0
 10 11  1  0
 11 12  1  0
 12 13  2  0
 13 14  1  0
 14 15  1  0
 15 16  3  0
 14 17  2  0
 17 18  1  0
 18 19  1  0
 19 20  2  0
 20 21  1  0
 21 22  1  0
 21 23  1  0
 17 24  1  0
 24 25  2  0
 25 26  1  0
 10 27  2  0
 27 28  1  0
 28 29  1  0
 29 30  1  0
 30 31  1  0
 31 32  1  0
 32 33  1  0
 33 34  1  0
  9 35  1  0
 35  5  1  0
 28  8  1  0
 34 29  1  0
 25 12  1  0
 23 18  2  0
  1 36  1  0
  1 37  1  0
  1 38  1  0
  2 39  1  0
  6 40  1  0
  6 41  1  0
  7 42  1  0
  7 43  1  0
 11 44  1  0
 13 45  1  0
 19 46  1  0
 22 47  1  0
 22 48  1  0
 22 49  1  0
 23 50  1  0
 24 51  1  0
 29 52  1  0
 30 53  1  0
 30 54  1  0
 31 55  1  0
 31 56  1  0
 33 57  1  0
 33 58  1  0
 34 59  1  0
 34 60  1  0
 35 61  1  0
 35 62  1  0
M  END
$$$$
