
     RDKit          3D

 31 32  0  0  0  0  0  0  0  0999 V2000
    1.8732   -2.0485   -0.2151 C   0  0  0  0  0  0  0  0  0  0  0  0
    0.8111   -0.9832   -0.5377 C   0  0  0  0  0  0  0  0  0  0  0  0
    0.6090   -1.0840   -2.0323 C   0  0  0  0  0  0  0  0  0  0  0  0
   -0.4085   -1.3674    0.1834 C   0  0  0  0  0  0  0  0  0  0  0  0
   -0.4878   -2.4537    0.8573 O   0  0  0  0  0  0  0  0  0  0  0  0
   -1.6210   -0.5930    0.2172 C   0  0  0  0  0  0  0  0  0  0  0  0
   -2.7323   -1.0306    0.9193 C   0  0  0  0  0  0  0  0  0  0  0  0
   -3.8993   -0.3183    0.9729 N   0  0  0  0  0  0  0  0  0  0  0  0
   -4.0489    0.8608    0.3449 C   0  0  0  0  0  0  0  0  0  0  0  0
   -2.9655    1.3580   -0.3807 C   0  0  0  0  0  0  0  0  0  0  0  0
   -1.8050    0.6196   -0.4164 C   0  0  0  0  0  0  0  0  0  0  0  0
    1.3704    0.3130   -0.0941 C   0  0  0  0  0  0  0  0  0  0  0  0
    1.3823    0.4011    1.3045 C   0  0  0  0  0  0  0  0  0  0  0  0
    1.8763    1.5532    1.9175 C   0  0  0  0  0  0  0  0  0  0  0  0
    2.3448    2.5871    1.1505 C   0  0  0  0  0  0  0  0  0  0  0  0
    2.3163    2.4643   -0.1729 N   0  0  0  0  0  0  0  0  0  0  0  0
    1.8591    1.3940   -0.8345 C   0  0  0  0  0  0  0  0  0  0  0  0
    1.9068   -2.2637    0.8567 H   0  0  0  0  0  0  0  0  0  0  0  0
    1.5320   -2.9748   -0.7427 H   0  0  0  0  0  0  0  0  0  0  0  0
    2.8307   -1.7641   -0.6703 H   0  0  0  0  0  0  0  0  0  0  0  0
    0.3919   -0.1192   -2.5270 H   0  0  0  0  0  0  0  0  0  0  0  0
    1.4439   -1.6125   -2.5366 H   0  0  0  0  0  0  0  0  0  0  0  0
   -0.2801   -1.7609   -2.1825 H   0  0  0  0  0  0  0  0  0  0  0  0
   -2.7418   -1.9644    1.4681 H   0  0  0  0  0  0  0  0  0  0  0  0
   -4.9739    1.4101    0.3963 H   0  0  0  0  0  0  0  0  0  0  0  0
   -3.0526    2.3107   -0.9016 H   0  0  0  0  0  0  0  0  0  0  0  0
   -1.0120    1.0413   -0.9802 H   0  0  0  0  0  0  0  0  0  0  0  0
    1.0383   -0.3521    2.0009 H   0  0  0  0  0  0  0  0  0  0  0  0
    1.9030    1.6614    2.9998 H   0  0  0  0  0  0  0  0  0  0  0  0
    2.7429    3.5098    1.5115 H   0  0  0  0  0  0  0  0  0  0  0  0
    1.7968    1.2061   -1.8761 H   0  0  0  0  0  0  0  0  0  0  0  0
  1  2  1  0
  2  3  1  0
  2  4  1  0
  4  5  2  0
  4  6  1  0
  6  7  2  0
  7  8  1  0
  8  9  2  0
  9 10  1  0
 10 11  2  0
  2 12  1  0
 12 13  2  0
 13 14  1  0
 14 15  2  0
 15 16  1  0
 16 17  2  0
 11  6  1  0
 17 12  1  0
  1 18  1  0
  1 19  1  0
  1 20  1  0
  3 21  1  0
  3 22  1  0
  3 23  1  0
  7 24  1  0
  9 25  1  0
 10 26  1  0
 11 27  1  0
 13 28  1  0
 14 29  1  0
 15 30  1  0
 17 31  1  0
M  END
$$$$
