
     RDKit          3D

 51 53  0  0  0  0  0  0  0  0999 V2000
   -5.4761    0.6012    3.2028 C   0  0  0  0  0  0  0  0  0  0  0  0
   -4.5328    0.3750    2.1727 O   0  0  0  0  0  0  0  0  0  0  0  0
   -4.8274   -0.6257    1.2575 C   0  0  0  0  0  0  0  0  0  0  0  0
   -6.0009   -1.3836    1.3390 C   0  0  0  0  0  0  0  0  0  0  0  0
   -6.2484   -2.3667    0.4057 C   0  0  0  0  0  0  0  0  0  0  0  0
   -7.7053   -3.3494    0.4587 Cl  0  0  0  0  0  0  0  0  0  0  0  0
   -5.2999   -2.5497   -0.5786 C   0  0  0  0  0  0  0  0  0  0  0  0
   -4.1751   -1.8051   -0.6358 N   0  0  0  0  0  0  0  0  0  0  0  0
   -3.9032   -0.8393    0.2576 C   0  0  0  0  0  0  0  0  0  0  0  0
   -2.6885   -0.0336    0.1977 C   0  0  0  0  0  0  0  0  0  0  0  0
   -2.4841    0.8516    1.0529 O   0  0  0  0  0  0  0  0  0  0  0  0
   -1.6961   -0.2016   -0.8050 N   0  0  0  0  0  0  0  0  0  0  0  0
   -0.5097    0.5870   -0.8616 C   0  0  0  0  0  0  0  0  0  0  0  0
   -0.4398    1.7760   -1.5650 C   0  0  0  0  0  0  0  0  0  0  0  0
    0.6772    2.5505   -1.6377 C   0  0  0  0  0  0  0  0  0  0  0  0
    0.6672    3.8208   -2.4196 C   0  0  0  0  0  0  0  0  0  0  0  0
    1.8275    2.1263   -0.9640 C   0  0  0  0  0  0  0  0  0  0  0  0
    2.9231    2.9058   -1.0328 F   0  0  0  0  0  0  0  0  0  0  0  0
    1.8157    0.9533   -0.2501 C   0  0  0  0  0  0  0  0  0  0  0  0
    3.0218    0.4579    0.4712 C   0  0  2  0  0  0  0  0  0  0  0  0
    3.4079    1.5095    1.5197 C   0  0  0  0  0  0  0  0  0  0  0  0
    4.5415    1.0723    2.2182 F   0  0  0  0  0  0  0  0  0  0  0  0
    4.1619    0.2751   -0.4764 C   0  0  0  0  0  0  0  0  0  0  0  0
    4.0101   -1.0519   -1.2159 C   0  0  1  0  0  0  0  0  0  0  0  0
    5.2070   -1.2505   -2.1181 C   0  0  0  0  0  0  0  0  0  0  0  0
    5.0962   -2.4458   -2.8010 F   0  0  0  0  0  0  0  0  0  0  0  0
    5.3495   -0.2051   -3.0086 F   0  0  0  0  0  0  0  0  0  0  0  0
    6.3526   -1.3367   -1.3516 F   0  0  0  0  0  0  0  0  0  0  0  0
    4.0325   -2.0539   -0.2208 O   0  0  0  0  0  0  0  0  0  0  0  0
    3.1193   -1.9387    0.8274 C   0  0  0  0  0  0  0  0  0  0  0  0
    2.7388   -3.1267    1.5071 N   0  0  0  0  0  0  0  0  0  0  0  0
    2.6676   -0.7865    1.1309 N   0  0  0  0  0  0  0  0  0  0  0  0
    0.6350    0.1891   -0.2063 C   0  0  0  0  0  0  0  0  0  0  0  0
   -5.1021    1.2904    3.9794 H   0  0  0  0  0  0  0  0  0  0  0  0
   -6.4389    0.8978    2.7706 H   0  0  0  0  0  0  0  0  0  0  0  0
   -5.6644   -0.3809    3.7260 H   0  0  0  0  0  0  0  0  0  0  0  0
   -6.7056   -1.1884    2.1387 H   0  0  0  0  0  0  0  0  0  0  0  0
   -5.5165   -3.3339   -1.3074 H   0  0  0  0  0  0  0  0  0  0  0  0
   -1.8594   -0.9424   -1.5270 H   0  0  0  0  0  0  0  0  0  0  0  0
   -1.3532    2.0789   -2.0792 H   0  0  0  0  0  0  0  0  0  0  0  0
    1.6468    4.0394   -2.8759 H   0  0  0  0  0  0  0  0  0  0  0  0
    0.2777    4.6210   -1.7769 H   0  0  0  0  0  0  0  0  0  0  0  0
   -0.0621    3.7293   -3.2711 H   0  0  0  0  0  0  0  0  0  0  0  0
    2.5952    1.6292    2.2620 H   0  0  0  0  0  0  0  0  0  0  0  0
    3.6852    2.4592    1.0712 H   0  0  0  0  0  0  0  0  0  0  0  0
    4.2366    1.1174   -1.1693 H   0  0  0  0  0  0  0  0  0  0  0  0
    5.1149    0.2316    0.0883 H   0  0  0  0  0  0  0  0  0  0  0  0
    3.0573   -1.1207   -1.7447 H   0  0  0  0  0  0  0  0  0  0  0  0
    2.9706   -3.2360    2.5008 H   0  0  0  0  0  0  0  0  0  0  0  0
    2.2367   -3.8592    0.9924 H   0  0  0  0  0  0  0  0  0  0  0  0
    0.6158   -0.7336    0.3520 H   0  0  0  0  0  0  0  0  0  0  0  0
  1  2  1  0
  2  3  1  0
  3  4  2  0
  4  5  1  0
  5  6  1  0
  5  7  2  0
  7  8  1  0
  8  9  2  0
  9 10  1  0
 10 11  2  0
 10 12  1  0
 12 13  1  0
 13 14  2  0
 14 15  1  0
 15 16  1  0
 15 17  2  0
 17 18  1  0
 17 19  1  0
 19 20  1  0
 20 21  1  1
 21 22  1  0
 20 23  1  0
 23 24  1  0
 24 25  1  0
 25 26  1  0
 25 27  1  0
 25 28  1  0
 24 29  1  0
 29 30  1  0
 30 31  1  0
 30 32  2  0
 19 33  2  0
  9  3  1  0
 33 13  1  0
 32 20  1  0
  1 34  1  0
  1 35  1  0
  1 36  1  0
  4 37  1  0
  7 38  1  0
 12 39  1  0
 14 40  1  0
 16 41  1  0
 16 42  1  0
 16 43  1  0
 21 44  1  0
 21 45  1  0
 23 46  1  0
 23 47  1  0
 24 48  1  6
 31 49  1  0
 31 50  1  0
 33 51  1  0
M  END
$$$$
