
     RDKit          3D

 38 39  0  0  0  0  0  0  0  0999 V2000
    3.6386    1.4229    0.3354 C   0  0  0  0  0  0  0  0  0  0  0  0
    2.3577    2.0751    0.4172 N   0  0  0  0  0  0  0  0  0  0  0  0
    2.4899    3.4672    0.0675 C   0  0  0  0  0  0  0  0  0  0  0  0
    1.3334    1.3973   -0.3378 C   0  0  0  0  0  0  0  0  0  0  0  0
    1.0178    0.0592    0.3043 C   0  0  0  0  0  0  0  0  0  0  0  0
   -0.0477   -0.6429   -0.4835 C   0  0  0  0  0  0  0  0  0  0  0  0
   -0.4266   -1.9682    0.0678 C   0  0  0  0  0  0  0  0  0  0  0  0
   -0.4461   -2.1670    1.4410 C   0  0  0  0  0  0  0  0  0  0  0  0
   -0.8062   -3.4202    1.8941 C   0  0  0  0  0  0  0  0  0  0  0  0
   -1.1511   -4.5031    1.1186 C   0  0  0  0  0  0  0  0  0  0  0  0
   -1.1163   -4.2524   -0.2512 C   0  0  0  0  0  0  0  0  0  0  0  0
   -0.7642   -3.0204   -0.7612 C   0  0  0  0  0  0  0  0  0  0  0  0
   -1.2691    0.2138   -0.6540 C   0  0  0  0  0  0  0  0  0  0  0  0
   -1.6594    1.0213    0.4080 C   0  0  0  0  0  0  0  0  0  0  0  0
   -2.7892    1.7537    0.1214 C   0  0  0  0  0  0  0  0  0  0  0  0
   -3.5177    1.7598   -1.0397 C   0  0  0  0  0  0  0  0  0  0  0  0
   -3.0488    0.9171   -2.0489 C   0  0  0  0  0  0  0  0  0  0  0  0
   -1.9403    0.1721   -1.8224 N   0  0  0  0  0  0  0  0  0  0  0  0
    4.4766    2.1359    0.1953 H   0  0  0  0  0  0  0  0  0  0  0  0
    3.8337    0.9047    1.2970 H   0  0  0  0  0  0  0  0  0  0  0  0
    3.6379    0.7253   -0.5038 H   0  0  0  0  0  0  0  0  0  0  0  0
    3.1446    3.9474    0.8466 H   0  0  0  0  0  0  0  0  0  0  0  0
    3.1416    3.4966   -0.8518 H   0  0  0  0  0  0  0  0  0  0  0  0
    1.5483    4.0150   -0.0357 H   0  0  0  0  0  0  0  0  0  0  0  0
    1.6551    1.1958   -1.3864 H   0  0  0  0  0  0  0  0  0  0  0  0
    0.4344    2.0383   -0.3960 H   0  0  0  0  0  0  0  0  0  0  0  0
    1.9440   -0.5273    0.2565 H   0  0  0  0  0  0  0  0  0  0  0  0
    0.7263    0.2520    1.3703 H   0  0  0  0  0  0  0  0  0  0  0  0
    0.3996   -0.8406   -1.4910 H   0  0  0  0  0  0  0  0  0  0  0  0
   -0.1939   -1.3922    2.1558 H   0  0  0  0  0  0  0  0  0  0  0  0
   -0.8186   -3.5635    2.9748 H   0  0  0  0  0  0  0  0  0  0  0  0
   -1.4231   -5.4526    1.5225 H   0  0  0  0  0  0  0  0  0  0  0  0
   -1.3813   -5.0754   -0.9320 H   0  0  0  0  0  0  0  0  0  0  0  0
   -0.7378   -2.8251   -1.8387 H   0  0  0  0  0  0  0  0  0  0  0  0
   -1.1470    1.0788    1.3555 H   0  0  0  0  0  0  0  0  0  0  0  0
   -3.1709    2.4213    0.9066 H   0  0  0  0  0  0  0  0  0  0  0  0
   -4.3927    2.3549   -1.2043 H   0  0  0  0  0  0  0  0  0  0  0  0
   -3.5312    0.8255   -3.0177 H   0  0  0  0  0  0  0  0  0  0  0  0
  1  2  1  0
  2  3  1  0
  2  4  1  0
  4  5  1  0
  5  6  1  0
  6  7  1  0
  7  8  2  0
  8  9  1  0
  9 10  2  0
 10 11  1  0
 11 12  2  0
  6 13  1  0
 13 14  2  0
 14 15  1  0
 15 16  2  0
 16 17  1  0
 17 18  2  0
 12  7  1  0
 18 13  1  0
  1 19  1  0
  1 20  1  0
  1 21  1  0
  3 22  1  0
  3 23  1  0
  3 24  1  0
  4 25  1  0
  4 26  1  0
  5 27  1  0
  5 28  1  0
  6 29  1  0
  8 30  1  0
  9 31  1  0
 10 32  1  0
 11 33  1  0
 12 34  1  0
 14 35  1  0
 15 36  1  0
 16 37  1  0
 17 38  1  0
M  END
$$$$
