
     RDKit          3D

 47 50  0  0  0  0  0  0  0  0999 V2000
    4.6989    3.7864    0.7250 C   0  0  0  0  0  0  0  0  0  0  0  0
    4.0794    2.8690   -0.1814 O   0  0  0  0  0  0  0  0  0  0  0  0
    3.6926    1.5970    0.2355 C   0  0  0  0  0  0  0  0  0  0  0  0
    3.9177    1.3159    1.4373 O   0  0  0  0  0  0  0  0  0  0  0  0
    3.0539    0.5912   -0.6213 C   0  0  2  0  0  0  0  0  0  0  0  0
    1.7266    0.8994   -1.3089 C   0  0  0  0  0  0  0  0  0  0  0  0
    1.7901   -0.0624   -0.2161 C   0  0  1  0  0  0  0  0  0  0  0  0
    1.7188   -1.5400   -0.3436 C   0  0  1  0  0  0  0  0  0  0  0  0
    2.6621   -2.1503    0.6944 C   0  0  0  0  0  0  0  0  0  0  0  0
    0.3303   -1.9695   -0.0294 C   0  0  0  0  0  0  0  0  0  0  0  0
   -0.6902   -1.0844    0.2333 C   0  0  0  0  0  0  0  0  0  0  0  0
   -1.9702   -1.4969    0.5310 C   0  0  0  0  0  0  0  0  0  0  0  0
   -3.0860   -0.5941    0.8026 C   0  0  0  0  0  0  0  0  0  0  0  0
   -3.3316    0.5180    0.1523 C   0  0  0  0  0  0  0  0  0  0  0  0
   -2.4801    0.8579   -0.8546 F   0  0  0  0  0  0  0  0  0  0  0  0
   -4.4319    1.4349    0.4104 C   0  0  0  0  0  0  0  0  0  0  0  0
   -5.3339    1.1922    1.4151 C   0  0  0  0  0  0  0  0  0  0  0  0
   -6.3487    2.0705    1.6379 N   0  0  0  0  0  0  0  0  0  0  0  0
   -6.5216    3.1851    0.9137 C   0  0  0  0  0  0  0  0  0  0  0  0
   -7.8455    4.2958    1.2380 Cl  0  0  0  0  0  0  0  0  0  0  0  0
   -5.6089    3.4115   -0.0884 C   0  0  0  0  0  0  0  0  0  0  0  0
   -4.6029    2.5570   -0.3210 N   0  0  0  0  0  0  0  0  0  0  0  0
   -2.2231   -2.8506    0.5633 C   0  0  0  0  0  0  0  0  0  0  0  0
   -1.2151   -3.7554    0.3032 C   0  0  0  0  0  0  0  0  0  0  0  0
    0.0557   -3.3134    0.0080 C   0  0  0  0  0  0  0  0  0  0  0  0
    1.0080   -4.2695   -0.2415 F   0  0  0  0  0  0  0  0  0  0  0  0
    2.0242   -2.0571   -1.6652 N   0  0  0  0  0  0  0  0  0  0  0  0
    3.0353   -1.6982   -2.3486 C   0  0  0  0  0  0  0  0  0  0  0  0
    3.2949   -2.2250   -3.6250 N   0  0  0  0  0  0  0  0  0  0  0  0
    4.1315   -0.4912   -1.6386 S   0  0  0  0  0  0  0  0  0  0  0  0
    5.6029    4.1662    0.1849 H   0  0  0  0  0  0  0  0  0  0  0  0
    4.0419    4.6756    0.9138 H   0  0  0  0  0  0  0  0  0  0  0  0
    4.9619    3.2964    1.6914 H   0  0  0  0  0  0  0  0  0  0  0  0
    1.5949    0.6330   -2.3729 H   0  0  0  0  0  0  0  0  0  0  0  0
    1.3071    1.9215   -1.0745 H   0  0  0  0  0  0  0  0  0  0  0  0
    1.4210    0.2910    0.7942 H   0  0  0  0  0  0  0  0  0  0  0  0
    3.4058   -2.7716    0.1746 H   0  0  0  0  0  0  0  0  0  0  0  0
    2.1115   -2.7164    1.4608 H   0  0  0  0  0  0  0  0  0  0  0  0
    3.1771   -1.3205    1.2069 H   0  0  0  0  0  0  0  0  0  0  0  0
   -0.4993   -0.0243    0.2092 H   0  0  0  0  0  0  0  0  0  0  0  0
   -3.7516   -0.8812    1.6045 H   0  0  0  0  0  0  0  0  0  0  0  0
   -5.2785    0.3011    2.0652 H   0  0  0  0  0  0  0  0  0  0  0  0
   -5.7120    4.3058   -0.6986 H   0  0  0  0  0  0  0  0  0  0  0  0
   -3.2412   -3.2009    0.7999 H   0  0  0  0  0  0  0  0  0  0  0  0
   -1.4742   -4.7935    0.3443 H   0  0  0  0  0  0  0  0  0  0  0  0
    3.7064   -1.6687   -4.4308 H   0  0  0  0  0  0  0  0  0  0  0  0
    3.0959   -3.2371   -3.8808 H   0  0  0  0  0  0  0  0  0  0  0  0
  1  2  1  0
  2  3  1  0
  3  4  2  0
  5  3  1  1
  5  6  1  0
  6  7  1  0
  7  8  1  0
  8  9  1  1
  8 10  1  0
 10 11  2  0
 11 12  1  0
 12 13  1  0
 13 14  2  0
 14 15  1  0
 14 16  1  0
 16 17  2  0
 17 18  1  0
 18 19  2  0
 19 20  1  0
 19 21  1  0
 21 22  2  0
 12 23  2  0
 23 24  1  0
 24 25  2  0
 25 26  1  0
  8 27  1  0
 27 28  2  0
 28 29  1  0
 28 30  1  0
  7  5  1  0
 25 10  1  0
 30  5  1  0
 22 16  1  0
  1 31  1  0
  1 32  1  0
  1 33  1  0
  6 34  1  0
  6 35  1  0
  7 36  1  1
  9 37  1  0
  9 38  1  0
  9 39  1  0
 11 40  1  0
 13 41  1  0
 17 42  1  0
 21 43  1  0
 23 44  1  0
 24 45  1  0
 29 46  1  0
 29 47  1  0
M  END
$$$$
