
     RDKit          3D

 37 40  0  0  0  0  0  0  0  0999 V2000
   -5.8216   -0.5031   -0.9511 C   0  0  0  0  0  0  0  0  0  0  0  0
   -5.2381    0.8141   -0.4806 C   0  0  0  0  0  0  0  0  0  0  0  0
   -3.7773    0.6050   -0.2431 C   0  0  0  0  0  0  0  0  0  0  0  0
   -2.8672    0.8166   -1.2839 C   0  0  0  0  0  0  0  0  0  0  0  0
   -1.5291    0.6216   -1.0541 C   0  0  0  0  0  0  0  0  0  0  0  0
   -1.1236    0.2199    0.2074 C   0  0  0  0  0  0  0  0  0  0  0  0
   -2.0176    0.0137    1.2243 C   0  0  0  0  0  0  0  0  0  0  0  0
   -3.3876    0.2078    1.0080 C   0  0  0  0  0  0  0  0  0  0  0  0
   -1.5867   -0.3731    2.4254 N   0  0  0  0  0  0  0  0  0  0  0  0
   -0.2735   -0.5756    2.6895 C   0  0  0  0  0  0  0  0  0  0  0  0
    0.1541   -0.9384    3.8085 O   0  0  0  0  0  0  0  0  0  0  0  0
    0.6279   -0.3696    1.6710 C   0  0  0  0  0  0  0  0  0  0  0  0
    1.9831   -0.4749    1.5834 N   0  0  0  0  0  0  0  0  0  0  0  0
    2.4418   -0.1732    0.3801 C   0  0  0  0  0  0  0  0  0  0  0  0
    3.7853   -0.1414   -0.1807 C   0  0  0  0  0  0  0  0  0  0  0  0
    3.9430    0.2320   -1.5325 C   0  0  0  0  0  0  0  0  0  0  0  0
    5.1550    0.2926   -2.1494 C   0  0  0  0  0  0  0  0  0  0  0  0
    6.2646   -0.0224   -1.4252 C   0  0  0  0  0  0  0  0  0  0  0  0
    6.1972   -0.3949   -0.1066 C   0  0  0  0  0  0  0  0  0  0  0  0
    4.9325   -0.4432    0.4851 C   0  0  0  0  0  0  0  0  0  0  0  0
    4.8361   -0.9200    2.1764 Cl  0  0  0  0  0  0  0  0  0  0  0  0
    1.3156    0.1444   -0.3473 N   0  0  0  0  0  0  0  0  0  0  0  0
    0.2330    0.0279    0.4208 C   0  0  0  0  0  0  0  0  0  0  0  0
   -6.3147   -0.3675   -1.9384 H   0  0  0  0  0  0  0  0  0  0  0  0
   -5.0211   -1.2604   -1.1190 H   0  0  0  0  0  0  0  0  0  0  0  0
   -6.5053   -0.9038   -0.1769 H   0  0  0  0  0  0  0  0  0  0  0  0
   -5.4004    1.6326   -1.2327 H   0  0  0  0  0  0  0  0  0  0  0  0
   -5.7364    1.1446    0.4585 H   0  0  0  0  0  0  0  0  0  0  0  0
   -3.2076    1.1254   -2.2441 H   0  0  0  0  0  0  0  0  0  0  0  0
   -0.8007    0.7740   -1.8283 H   0  0  0  0  0  0  0  0  0  0  0  0
   -4.1063    0.0489    1.8016 H   0  0  0  0  0  0  0  0  0  0  0  0
   -2.2664   -0.5260    3.1850 H   0  0  0  0  0  0  0  0  0  0  0  0
    2.5440   -0.7655    2.4059 H   0  0  0  0  0  0  0  0  0  0  0  0
    3.0526    0.4792   -2.0941 H   0  0  0  0  0  0  0  0  0  0  0  0
    5.2332    0.5800   -3.1755 H   0  0  0  0  0  0  0  0  0  0  0  0
    7.2289    0.0248   -1.9123 H   0  0  0  0  0  0  0  0  0  0  0  0
    7.0534   -0.6520    0.5012 H   0  0  0  0  0  0  0  0  0  0  0  0
  1  2  1  0
  2  3  1  0
  3  4  2  0
  4  5  1  0
  5  6  2  0
  6  7  1  0
  7  8  2  0
  7  9  1  0
  9 10  1  0
 10 11  2  0
 10 12  1  0
 12 13  1  0
 13 14  1  0
 14 15  1  0
 15 16  2  0
 16 17  1  0
 17 18  2  0
 18 19  1  0
 19 20  2  0
 20 21  1  0
 14 22  2  0
 22 23  1  0
  8  3  1  0
 23 12  2  0
 23  6  1  0
 20 15  1  0
  1 24  1  0
  1 25  1  0
  1 26  1  0
  2 27  1  0
  2 28  1  0
  4 29  1  0
  5 30  1  0
  8 31  1  0
  9 32  1  0
 13 33  1  0
 16 34  1  0
 17 35  1  0
 18 36  1  0
 19 37  1  0
M  END
$$$$
