
     RDKit          3D

 43 47  0  0  0  0  0  0  0  0999 V2000
    0.3731    2.7443   -0.9250 O   0  0  0  0  0  0  0  0  0  0  0  0
   -0.7685    2.3307   -0.6172 C   0  0  0  0  0  0  0  0  0  0  0  0
   -1.9001    3.0761   -0.2629 N   0  0  0  0  0  0  0  0  0  0  0  0
   -2.9687    2.1579    0.0023 C   0  0  0  0  0  0  0  0  0  0  0  0
   -4.2927    2.3420    0.3878 C   0  0  0  0  0  0  0  0  0  0  0  0
   -5.1557    1.2600    0.5875 C   0  0  0  0  0  0  0  0  0  0  0  0
   -4.6364   -0.0226    0.3847 C   0  0  0  0  0  0  0  0  0  0  0  0
   -3.3323   -0.2597    0.0030 C   0  0  0  0  0  0  0  0  0  0  0  0
   -2.5578    0.8494   -0.1706 C   0  0  0  0  0  0  0  0  0  0  0  0
   -1.1663    0.9528   -0.5627 C   0  0  0  0  0  0  0  0  0  0  0  0
   -0.3452   -0.0325   -0.8377 C   0  0  0  0  0  0  0  0  0  0  0  0
    1.0070   -0.0935   -1.2243 N   0  0  0  0  0  0  0  0  0  0  0  0
    2.3364    0.1613   -0.8347 C   0  0  0  0  0  0  0  0  0  0  0  0
    2.8064   -0.8201    0.0207 C   0  0  0  0  0  0  0  0  0  0  0  0
    4.0959   -0.8301    0.5651 C   0  0  0  0  0  0  0  0  0  0  0  0
    4.9141    0.2086    0.2081 C   0  0  0  0  0  0  0  0  0  0  0  0
    6.2931    0.2448    0.7623 C   0  0  0  0  0  0  0  0  0  0  0  0
    6.5029   -1.4966    1.1649 S   0  0  0  0  0  0  0  0  0  0  0  0
    7.3724   -1.7146    2.3364 O   0  0  0  0  0  0  0  0  0  0  0  0
    6.9024   -2.2573   -0.0627 O   0  0  0  0  0  0  0  0  0  0  0  0
    4.7692   -1.8012    1.4992 C   0  0  0  0  0  0  0  0  0  0  0  0
    4.4373    1.1855   -0.6476 C   0  0  0  0  0  0  0  0  0  0  0  0
    3.1874    1.1876   -1.1703 C   0  0  0  0  0  0  0  0  0  0  0  0
   -5.5257   -1.1780    0.5881 C   0  0  0  0  0  0  0  0  0  0  0  0
   -6.8553   -1.1288    0.9681 C   0  0  0  0  0  0  0  0  0  0  0  0
   -7.3480   -2.3855    1.0543 N   0  0  0  0  0  0  0  0  0  0  0  0
   -6.3015   -3.1831    0.7227 C   0  0  0  0  0  0  0  0  0  0  0  0
   -5.2457   -2.4374    0.4546 O   0  0  0  0  0  0  0  0  0  0  0  0
   -1.9147    4.1178   -0.2140 H   0  0  0  0  0  0  0  0  0  0  0  0
   -4.6724    3.3295    0.5381 H   0  0  0  0  0  0  0  0  0  0  0  0
   -6.1844    1.4176    0.8872 H   0  0  0  0  0  0  0  0  0  0  0  0
   -2.9302   -1.2374   -0.1533 H   0  0  0  0  0  0  0  0  0  0  0  0
   -0.7330   -1.0617   -0.7711 H   0  0  0  0  0  0  0  0  0  0  0  0
    1.2149   -0.4755   -2.1954 H   0  0  0  0  0  0  0  0  0  0  0  0
    2.2053   -1.6859    0.3519 H   0  0  0  0  0  0  0  0  0  0  0  0
    6.3676    0.7933    1.7218 H   0  0  0  0  0  0  0  0  0  0  0  0
    7.0215    0.5602    0.0167 H   0  0  0  0  0  0  0  0  0  0  0  0
    4.5354   -1.4312    2.5214 H   0  0  0  0  0  0  0  0  0  0  0  0
    4.5017   -2.8372    1.3077 H   0  0  0  0  0  0  0  0  0  0  0  0
    5.0186    2.0465   -0.9845 H   0  0  0  0  0  0  0  0  0  0  0  0
    2.7682    1.9150   -1.8432 H   0  0  0  0  0  0  0  0  0  0  0  0
   -7.4552   -0.2395    1.1769 H   0  0  0  0  0  0  0  0  0  0  0  0
   -6.3405   -4.2717    0.6871 H   0  0  0  0  0  0  0  0  0  0  0  0
  1  2  2  0
  2  3  1  0
  3  4  1  0
  4  5  2  0
  5  6  1  0
  6  7  2  0
  7  8  1  0
  8  9  2  0
  9 10  1  0
 10 11  2  0
 11 12  1  0
 12 13  1  0
 13 14  2  0
 14 15  1  0
 15 16  2  0
 16 17  1  0
 17 18  1  0
 18 19  2  0
 18 20  2  0
 18 21  1  0
 16 22  1  0
 22 23  2  0
  7 24  1  0
 24 25  2  0
 25 26  1  0
 26 27  2  0
 27 28  1  0
 10  2  1  0
 23 13  1  0
 28 24  1  0
  9  4  1  0
 21 15  1  0
  3 29  1  0
  5 30  1  0
  6 31  1  0
  8 32  1  0
 11 33  1  0
 12 34  1  0
 14 35  1  0
 17 36  1  0
 17 37  1  0
 21 38  1  0
 21 39  1  0
 22 40  1  0
 23 41  1  0
 25 42  1  0
 27 43  1  0
M  END
$$$$
