
     RDKit          3D

 69 73  0  0  0  0  0  0  0  0999 V2000
   -8.8350   -1.9177    0.5292 O   0  0  0  0  0  0  0  0  0  0  0  0
   -7.2018   -2.2300    0.8864 P   0  0  0  0  0  0  0  0  0  0  0  0
   -6.7105   -3.6891    0.1939 O   0  0  0  0  0  0  0  0  0  0  0  0
   -7.0288   -2.2954    2.3697 O   0  0  0  0  0  0  0  0  0  0  0  0
   -6.2416   -0.8492    0.1966 C   0  0  0  0  0  0  0  0  0  0  0  0
   -6.5441    0.2888    0.9207 F   0  0  0  0  0  0  0  0  0  0  0  0
   -6.6053   -0.6214   -1.1156 F   0  0  0  0  0  0  0  0  0  0  0  0
   -4.7890   -1.1506    0.2311 C   0  0  0  0  0  0  0  0  0  0  0  0
   -4.0483   -1.0257    1.3851 C   0  0  0  0  0  0  0  0  0  0  0  0
   -2.7038   -1.3151    1.3732 C   0  0  0  0  0  0  0  0  0  0  0  0
   -1.9938   -1.7452    0.2359 C   0  0  0  0  0  0  0  0  0  0  0  0
   -0.6020   -1.9847    0.5315 C   0  0  0  0  0  0  0  0  0  0  0  0
    0.3519   -0.8071    0.3905 C   0  0  0  0  0  0  0  0  0  0  0  0
    1.6864   -1.4067    0.8335 C   0  0  0  0  0  0  0  0  0  0  0  0
    2.8309   -0.4962    0.7821 C   0  0  0  0  0  0  0  0  0  0  0  0
    3.4440    0.3399    1.6814 C   0  0  0  0  0  0  0  0  0  0  0  0
    4.5331    1.1144    1.3681 C   0  0  0  0  0  0  0  0  0  0  0  0
    5.0831    1.0932    0.1041 C   0  0  0  0  0  0  0  0  0  0  0  0
    4.5085    0.2706   -0.8410 C   0  0  0  0  0  0  0  0  0  0  0  0
    3.4136   -0.4962   -0.4957 C   0  0  0  0  0  0  0  0  0  0  0  0
    6.2618    1.9388   -0.2169 C   0  0  0  0  0  0  0  0  0  0  0  0
    6.0726    2.4412   -1.4915 F   0  0  0  0  0  0  0  0  0  0  0  0
    6.3293    2.9351    0.7257 F   0  0  0  0  0  0  0  0  0  0  0  0
    7.7267    0.8675   -0.1817 P   0  0  0  0  0  0  0  0  0  0  0  0
    9.1287    1.6974   -0.5923 O   0  0  0  0  0  0  0  0  0  0  0  0
    7.4313   -0.3776   -1.3160 O   0  0  0  0  0  0  0  0  0  0  0  0
    7.8096    0.1991    1.1637 O   0  0  0  0  0  0  0  0  0  0  0  0
   -0.0467    0.2633    1.2657 N   0  0  0  0  0  0  0  0  0  0  0  0
    0.3092    0.6160    2.4785 N   0  0  0  0  0  0  0  0  0  0  0  0
   -0.3160    1.6860    2.9118 N   0  0  0  0  0  0  0  0  0  0  0  0
   -1.1612    2.1017    1.9340 C   0  0  0  0  0  0  0  0  0  0  0  0
   -0.9751    1.1826    0.8953 C   0  0  0  0  0  0  0  0  0  0  0  0
   -1.7899    1.4812   -0.1915 C   0  0  0  0  0  0  0  0  0  0  0  0
   -2.6580    2.5289   -0.2494 C   0  0  0  0  0  0  0  0  0  0  0  0
   -2.7751    3.3843    0.8211 C   0  0  0  0  0  0  0  0  0  0  0  0
   -2.0109    3.1730    1.9468 C   0  0  0  0  0  0  0  0  0  0  0  0
    0.5175   -0.3289   -1.0068 C   0  0  0  0  0  0  0  0  0  0  0  0
    1.0321    0.9786   -0.9776 C   0  0  0  0  0  0  0  0  0  0  0  0
    1.3023    1.6629   -2.1697 C   0  0  0  0  0  0  0  0  0  0  0  0
    1.0759    1.0856   -3.4018 C   0  0  0  0  0  0  0  0  0  0  0  0
    1.3350    1.7427   -4.5451 F   0  0  0  0  0  0  0  0  0  0  0  0
    0.5732   -0.1931   -3.3926 C   0  0  0  0  0  0  0  0  0  0  0  0
    0.3124   -0.8572   -4.5388 F   0  0  0  0  0  0  0  0  0  0  0  0
    0.3012   -0.8833   -2.2455 C   0  0  0  0  0  0  0  0  0  0  0  0
   -2.8070   -1.8412   -0.8613 C   0  0  0  0  0  0  0  0  0  0  0  0
   -4.1520   -1.5677   -0.9157 C   0  0  0  0  0  0  0  0  0  0  0  0
   -9.4026   -2.7177    0.6325 H   0  0  0  0  0  0  0  0  0  0  0  0
   -6.8277   -4.3928    0.8740 H   0  0  0  0  0  0  0  0  0  0  0  0
   -4.6068   -0.6959    2.2450 H   0  0  0  0  0  0  0  0  0  0  0  0
   -2.2679   -1.1642    2.3679 H   0  0  0  0  0  0  0  0  0  0  0  0
   -0.4366   -2.3410    1.5830 H   0  0  0  0  0  0  0  0  0  0  0  0
   -0.1499   -2.7967   -0.0916 H   0  0  0  0  0  0  0  0  0  0  0  0
    1.8739   -2.3632    0.2802 H   0  0  0  0  0  0  0  0  0  0  0  0
    1.4935   -1.7644    1.8868 H   0  0  0  0  0  0  0  0  0  0  0  0
    2.9876    0.3101    2.6566 H   0  0  0  0  0  0  0  0  0  0  0  0
    4.9191    1.7290    2.1699 H   0  0  0  0  0  0  0  0  0  0  0  0
    4.9730    0.2917   -1.8022 H   0  0  0  0  0  0  0  0  0  0  0  0
    3.0768   -1.0938   -1.3593 H   0  0  0  0  0  0  0  0  0  0  0  0
    9.6694    1.0945   -1.1686 H   0  0  0  0  0  0  0  0  0  0  0  0
    7.9043   -1.1943   -1.0642 H   0  0  0  0  0  0  0  0  0  0  0  0
   -1.7558    0.8475   -1.0420 H   0  0  0  0  0  0  0  0  0  0  0  0
   -3.2632    2.7104   -1.1190 H   0  0  0  0  0  0  0  0  0  0  0  0
   -3.4534    4.2069    0.7814 H   0  0  0  0  0  0  0  0  0  0  0  0
   -2.0673    3.8150    2.8107 H   0  0  0  0  0  0  0  0  0  0  0  0
    1.2734    1.5931   -0.1074 H   0  0  0  0  0  0  0  0  0  0  0  0
    1.7000    2.6730   -2.2006 H   0  0  0  0  0  0  0  0  0  0  0  0
   -0.0672   -1.8716   -2.1403 H   0  0  0  0  0  0  0  0  0  0  0  0
   -2.3012   -2.1768   -1.7494 H   0  0  0  0  0  0  0  0  0  0  0  0
   -4.6460   -1.6923   -1.8527 H   0  0  0  0  0  0  0  0  0  0  0  0
  1  2  1  0
  2  3  1  0
  2  4  2  0
  2  5  1  0
  5  6  1  0
  5  7  1  0
  5  8  1  0
  8  9  2  0
  9 10  1  0
 10 11  2  0
 11 12  1  0
 12 13  1  0
 13 14  1  0
 14 15  1  0
 15 16  2  0
 16 17  1  0
 17 18  2  0
 18 19  1  0
 19 20  2  0
 18 21  1  0
 21 22  1  0
 21 23  1  0
 21 24  1  0
 24 25  1  0
 24 26  1  0
 24 27  2  0
 13 28  1  0
 28 29  1  0
 29 30  2  0
 30 31  1  0
 31 32  2  0
 32 33  1  0
 33 34  2  0
 34 35  1  0
 35 36  2  0
 13 37  1  0
 37 38  2  0
 38 39  1  0
 39 40  2  0
 40 41  1  0
 40 42  1  0
 42 43  1  0
 42 44  2  0
 11 45  1  0
 45 46  2  0
 46  8  1  0
 20 15  1  0
 32 28  1  0
 44 37  1  0
 36 31  1  0
  1 47  1  0
  3 48  1  0
  9 49  1  0
 10 50  1  0
 12 51  1  0
 12 52  1  0
 14 53  1  0
 14 54  1  0
 16 55  1  0
 17 56  1  0
 19 57  1  0
 20 58  1  0
 25 59  1  0
 26 60  1  0
 33 61  1  0
 34 62  1  0
 35 63  1  0
 36 64  1  0
 38 65  1  0
 39 66  1  0
 44 67  1  0
 45 68  1  0
 46 69  1  0
M  END
$$$$
