
     RDKit          3D

 32 33  0  0  0  0  0  0  0  0999 V2000
   -4.1370    1.0607    1.0996 C   0  0  0  0  0  0  0  0  0  0  0  0
   -3.0409    0.3648    0.3765 C   0  0  0  0  0  0  0  0  0  0  0  0
   -1.7768    0.2159    0.9016 C   0  0  0  0  0  0  0  0  0  0  0  0
   -0.7717   -0.4272    0.2282 N   0  0  0  0  0  0  0  0  0  0  0  0
    0.4710   -0.5174    0.8606 C   0  0  1  0  0  0  0  0  0  0  0  0
    1.4840   -1.4631    0.5071 C   0  0  0  0  0  0  0  0  0  0  0  0
    2.5301   -0.7018   -0.3179 C   0  0  2  0  0  0  0  0  0  0  0  0
    3.8810   -0.9541    0.1502 N   0  0  0  0  0  0  0  0  0  0  0  0
    4.0029   -1.7143    1.1320 N   0  0  0  0  0  4  0  0  0  0  0  0
    4.4096   -2.4508    2.0346 N   0  0  0  0  0  2  0  0  0  0  0  0
    2.1086    0.7073   -0.0957 C   0  0  1  0  0  0  0  0  0  0  0  0
    1.8192    1.4649   -1.3769 C   0  0  0  0  0  0  0  0  0  0  0  0
    1.5868    2.8005   -1.0302 O   0  0  0  0  0  0  0  0  0  0  0  0
    1.0730    0.7654    0.7838 O   0  0  0  0  0  0  0  0  0  0  0  0
   -1.1003   -0.9046   -0.9818 C   0  0  0  0  0  0  0  0  0  0  0  0
   -0.1625   -1.4899   -1.5801 O   0  0  0  0  0  0  0  0  0  0  0  0
   -2.3308   -0.7785   -1.5321 N   0  0  0  0  0  0  0  0  0  0  0  0
   -3.3202   -0.1475   -0.8735 C   0  0  0  0  0  0  0  0  0  0  0  0
   -4.4509   -0.0509   -1.4193 O   0  0  0  0  0  0  0  0  0  0  0  0
   -4.7759    1.5664    0.3311 H   0  0  0  0  0  0  0  0  0  0  0  0
   -3.7449    1.7929    1.8494 H   0  0  0  0  0  0  0  0  0  0  0  0
   -4.7283    0.2912    1.6616 H   0  0  0  0  0  0  0  0  0  0  0  0
   -1.5892    0.6363    1.8997 H   0  0  0  0  0  0  0  0  0  0  0  0
    0.2699   -0.6048    1.9795 H   0  0  0  0  0  0  0  0  0  0  0  0
    1.2686   -2.3914   -0.0049 H   0  0  0  0  0  0  0  0  0  0  0  0
    2.0655   -1.7955    1.4257 H   0  0  0  0  0  0  0  0  0  0  0  0
    2.5169   -0.9690   -1.3769 H   0  0  0  0  0  0  0  0  0  0  0  0
    2.9786    1.2402    0.3899 H   0  0  0  0  0  0  0  0  0  0  0  0
    0.8892    1.0393   -1.7988 H   0  0  0  0  0  0  0  0  0  0  0  0
    2.6405    1.3878   -2.0882 H   0  0  0  0  0  0  0  0  0  0  0  0
    2.3833    3.2228   -0.6566 H   0  0  0  0  0  0  0  0  0  0  0  0
   -2.4491   -1.1957   -2.4781 H   0  0  0  0  0  0  0  0  0  0  0  0
  1  2  1  0
  2  3  2  0
  3  4  1  0
  4  5  1  0
  5  6  1  0
  6  7  1  0
  7  8  1  0
  8  9  2  0
  9 10  2  0
  7 11  1  0
 11 12  1  0
 12 13  1  0
 11 14  1  0
  4 15  1  0
 15 16  2  0
 15 17  1  0
 17 18  1  0
 18 19  2  0
 18  2  1  0
 14  5  1  0
  1 20  1  0
  1 21  1  0
  1 22  1  0
  3 23  1  0
  5 24  1  1
  6 25  1  0
  6 26  1  0
  7 27  1  6
 11 28  1  1
 12 29  1  0
 12 30  1  0
 13 31  1  0
 17 32  1  0
M  CHG  2   9   1  10  -1
M  END
$$$$
