
     RDKit          3D

 51 51  0  0  0  0  0  0  0  0999 V2000
   -0.7163    1.1196    0.8980 C   0  0  2  0  0  0  0  0  0  0  0  0
   -0.0715    0.6340   -0.3500 C   0  0  0  0  0  0  0  0  0  0  0  0
    0.9542    1.8984   -1.1483 S   0  0  0  0  0  0  0  0  0  0  0  0
    2.3982    2.3162   -0.1419 C   0  0  0  0  0  0  0  0  0  0  0  0
    3.2700    1.0931   -0.1097 C   0  0  0  0  0  0  0  0  0  0  0  0
    3.1337    0.1214    0.8632 C   0  0  0  0  0  0  0  0  0  0  0  0
    3.9550   -1.0007    0.8589 C   0  0  0  0  0  0  0  0  0  0  0  0
    4.9259   -1.1881   -0.1030 C   0  0  0  0  0  0  0  0  0  0  0  0
    5.7697   -2.2921   -0.1488 O   0  0  0  0  0  0  0  0  0  0  0  0
    6.7551   -2.4796   -1.1299 C   0  0  0  0  0  0  0  0  0  0  0  0
    5.0449   -0.2084   -1.0626 C   0  0  0  0  0  0  0  0  0  0  0  0
    4.2465    0.9253   -1.0940 C   0  0  0  0  0  0  0  0  0  0  0  0
   -1.5098    0.1043    1.4982 N   0  0  0  0  0  0  0  0  0  0  0  0
   -1.8263   -1.0579    1.1584 C   0  0  0  0  0  0  0  0  0  0  0  0
   -2.6025   -1.3770    2.2607 O   0  0  0  0  0  0  0  0  0  0  0  0
   -1.7235   -2.1494    0.1460 C   0  0  0  0  0  0  0  0  0  0  0  0
   -3.0047   -2.4935   -0.5318 C   0  0  0  0  0  0  0  0  0  0  0  0
   -4.0879   -2.9710    0.4026 C   0  0  0  0  0  0  0  0  0  0  0  0
   -3.6439   -4.1663    1.1180 N   0  0  0  0  0  0  0  0  0  0  0  0
   -1.6373    2.2781    0.6453 C   0  0  0  0  0  0  0  0  0  0  0  0
   -2.3929    2.9833    1.5939 O   0  0  0  0  0  0  0  0  0  0  0  0
   -1.7541    2.6726   -0.5551 N   0  0  0  0  0  0  0  0  0  0  0  0
   -2.5747    3.7516   -1.0013 C   0  0  0  0  0  0  0  0  0  0  0  0
   -4.0223    3.5706   -0.6225 C   0  0  0  0  0  0  0  0  0  0  0  0
   -4.7835    4.6543   -1.1011 O   0  0  0  0  0  0  0  0  0  0  0  0
   -4.4698    2.5911    0.0256 O   0  0  0  0  0  0  0  0  0  0  0  0
    0.0357    1.5091    1.6453 H   0  0  0  0  0  0  0  0  0  0  0  0
    0.5540   -0.2422   -0.0876 H   0  0  0  0  0  0  0  0  0  0  0  0
   -0.8415    0.3448   -1.0690 H   0  0  0  0  0  0  0  0  0  0  0  0
    2.9711    3.0911   -0.6813 H   0  0  0  0  0  0  0  0  0  0  0  0
    2.1461    2.5486    0.8974 H   0  0  0  0  0  0  0  0  0  0  0  0
    2.3875    0.2440    1.6202 H   0  0  0  0  0  0  0  0  0  0  0  0
    3.8615   -1.7634    1.6078 H   0  0  0  0  0  0  0  0  0  0  0  0
    6.3330   -2.1567   -2.1115 H   0  0  0  0  0  0  0  0  0  0  0  0
    7.0098   -3.5507   -1.2734 H   0  0  0  0  0  0  0  0  0  0  0  0
    7.6879   -1.9337   -0.9123 H   0  0  0  0  0  0  0  0  0  0  0  0
    5.7541   -0.2210   -1.8677 H   0  0  0  0  0  0  0  0  0  0  0  0
    4.3168    1.6995   -1.8243 H   0  0  0  0  0  0  0  0  0  0  0  0
   -3.3129   -0.8360    2.6854 H   0  0  0  0  0  0  0  0  0  0  0  0
   -0.9614   -1.9736   -0.6161 H   0  0  0  0  0  0  0  0  0  0  0  0
   -1.4323   -3.0602    0.7601 H   0  0  0  0  0  0  0  0  0  0  0  0
   -2.7811   -3.3799   -1.1957 H   0  0  0  0  0  0  0  0  0  0  0  0
   -3.3728   -1.6848   -1.2066 H   0  0  0  0  0  0  0  0  0  0  0  0
   -4.9171   -3.3390   -0.2531 H   0  0  0  0  0  0  0  0  0  0  0  0
   -4.4268   -2.2491    1.1405 H   0  0  0  0  0  0  0  0  0  0  0  0
   -3.0609   -4.7774    0.5045 H   0  0  0  0  0  0  0  0  0  0  0  0
   -4.4612   -4.6994    1.5048 H   0  0  0  0  0  0  0  0  0  0  0  0
   -2.5667    3.9928    1.4722 H   0  0  0  0  0  0  0  0  0  0  0  0
   -2.2267    4.7627   -0.7256 H   0  0  0  0  0  0  0  0  0  0  0  0
   -2.5285    3.7369   -2.1247 H   0  0  0  0  0  0  0  0  0  0  0  0
   -5.7994    4.6079   -0.9197 H   0  0  0  0  0  0  0  0  0  0  0  0
  1  2  1  0
  2  3  1  0
  3  4  1  0
  4  5  1  0
  5  6  2  0
  6  7  1  0
  7  8  2  0
  8  9  1  0
  9 10  1  0
  8 11  1  0
 11 12  2  0
  1 13  1  0
 13 14  2  3
 14 15  1  0
 14 16  1  0
 16 17  1  0
 17 18  1  0
 18 19  1  0
  1 20  1  0
 20 21  1  0
 20 22  2  3
 22 23  1  0
 23 24  1  0
 24 25  1  0
 24 26  2  0
 12  5  1  0
  1 27  1  1
  2 28  1  0
  2 29  1  0
  4 30  1  0
  4 31  1  0
  6 32  1  0
  7 33  1  0
 10 34  1  0
 10 35  1  0
 10 36  1  0
 11 37  1  0
 12 38  1  0
 15 39  1  0
 16 40  1  0
 16 41  1  0
 17 42  1  0
 17 43  1  0
 18 44  1  0
 18 45  1  0
 19 46  1  0
 19 47  1  0
 21 48  1  0
 23 49  1  0
 23 50  1  0
 25 51  1  0
M  END
$$$$
