
     RDKit          3D

 23 23  0  0  0  0  0  0  0  0999 V2000
   -3.6592   -0.4548   -0.0906 N   0  0  0  0  0  0  0  0  0  0  0  0
   -2.2767   -0.3457   -0.5135 C   0  0  0  0  0  0  0  0  0  0  0  0
   -1.4464    0.1586    0.6525 C   0  0  2  0  0  0  0  0  0  0  0  0
   -1.8717    1.3917    1.0867 O   0  0  0  0  0  0  0  0  0  0  0  0
   -0.0041    0.1396    0.2750 C   0  0  0  0  0  0  0  0  0  0  0  0
    0.8644   -0.8602    0.6557 C   0  0  0  0  0  0  0  0  0  0  0  0
    2.1719   -0.8031    0.2676 C   0  0  0  0  0  0  0  0  0  0  0  0
    3.0273   -1.8161    0.6600 O   0  0  0  0  0  0  0  0  0  0  0  0
    2.6500    0.2523   -0.5108 C   0  0  0  0  0  0  0  0  0  0  0  0
    3.9678    0.3044   -0.8985 O   0  0  0  0  0  0  0  0  0  0  0  0
    1.7827    1.2659   -0.9003 C   0  0  0  0  0  0  0  0  0  0  0  0
    0.4631    1.1932   -0.4993 C   0  0  0  0  0  0  0  0  0  0  0  0
   -4.2351    0.3713   -0.2920 H   0  0  0  0  0  0  0  0  0  0  0  0
   -3.6878   -0.7636    0.9001 H   0  0  0  0  0  0  0  0  0  0  0  0
   -1.9397   -1.3648   -0.7802 H   0  0  0  0  0  0  0  0  0  0  0  0
   -2.1594    0.3084   -1.3803 H   0  0  0  0  0  0  0  0  0  0  0  0
   -1.5695   -0.5945    1.4547 H   0  0  0  0  0  0  0  0  0  0  0  0
   -2.1297    1.9413    0.3058 H   0  0  0  0  0  0  0  0  0  0  0  0
    0.4547   -1.6574    1.2567 H   0  0  0  0  0  0  0  0  0  0  0  0
    2.8893   -2.8045    0.4897 H   0  0  0  0  0  0  0  0  0  0  0  0
    4.7563    0.0546   -0.3328 H   0  0  0  0  0  0  0  0  0  0  0  0
    2.1303    2.1059   -1.5109 H   0  0  0  0  0  0  0  0  0  0  0  0
   -0.1785    1.9776   -0.8088 H   0  0  0  0  0  0  0  0  0  0  0  0
  1  2  1  0
  2  3  1  0
  3  4  1  0
  3  5  1  0
  5  6  2  0
  6  7  1  0
  7  8  1  0
  7  9  2  0
  9 10  1  0
  9 11  1  0
 11 12  2  0
 12  5  1  0
  1 13  1  0
  1 14  1  0
  2 15  1  0
  2 16  1  0
  3 17  1  1
  4 18  1  0
  6 19  1  0
  8 20  1  0
 10 21  1  0
 11 22  1  0
 12 23  1  0
M  END
$$$$
