
     RDKit          3D

 43 45  0  0  0  0  0  0  0  0999 V2000
    0.1824   -3.0632   -0.9225 C   0  0  0  0  0  0  0  0  0  0  0  0
    1.0335   -1.8128   -0.9736 C   0  0  2  0  0  0  0  0  0  0  0  0
    2.1916   -2.0025   -0.0658 C   0  0  0  0  0  0  0  0  0  0  0  0
    2.8428   -0.7389    0.4084 C   0  0  0  0  0  0  0  0  0  0  0  0
    1.8909    0.2863    0.7603 N   0  0  0  0  0  0  0  0  0  0  0  0
    2.3245    1.5762    1.1024 C   0  0  0  0  0  0  0  0  0  0  0  0
    1.4658    2.4699    1.4108 O   0  0  0  0  0  0  0  0  0  0  0  0
    3.7362    1.9831    1.1319 C   0  0  0  0  0  0  0  0  0  0  0  0
    4.1075    2.7803   -0.0366 C   0  0  0  0  0  0  0  0  0  0  0  0
    4.3922    3.4270   -0.9775 N   0  0  0  0  0  0  0  0  0  0  0  0
    0.4943   -0.0895    0.7384 C   0  0  0  0  0  0  0  0  0  0  0  0
    0.2244   -0.5583   -0.7015 C   0  0  2  0  0  0  0  0  0  0  0  0
   -1.1747   -0.7437   -0.9462 N   0  0  0  0  0  0  0  0  0  0  0  0
   -1.6409   -1.3102   -2.1861 C   0  0  0  0  0  0  0  0  0  0  0  0
   -2.1308   -0.3399    0.0032 C   0  0  0  0  0  0  0  0  0  0  0  0
   -2.7416   -1.1920    0.8501 N   0  0  0  0  0  0  0  0  0  0  0  0
   -3.6437   -0.7599    1.7609 C   0  0  0  0  0  0  0  0  0  0  0  0
   -3.9756    0.5418    1.8658 N   0  0  0  0  0  0  0  0  0  0  0  0
   -3.3883    1.4225    1.0382 C   0  0  0  0  0  0  0  0  0  0  0  0
   -3.5473    2.7479    0.9319 N   0  0  0  0  0  0  0  0  0  0  0  0
   -2.7599    3.2173   -0.0448 C   0  0  0  0  0  0  0  0  0  0  0  0
   -2.0864    2.1556   -0.5671 C   0  0  0  0  0  0  0  0  0  0  0  0
   -2.4595    0.9955    0.0970 C   0  0  0  0  0  0  0  0  0  0  0  0
   -0.0727   -3.4311   -1.9481 H   0  0  0  0  0  0  0  0  0  0  0  0
    0.7748   -3.9083   -0.4738 H   0  0  0  0  0  0  0  0  0  0  0  0
   -0.7018   -2.9485   -0.2736 H   0  0  0  0  0  0  0  0  0  0  0  0
    1.4223   -1.7515   -2.0181 H   0  0  0  0  0  0  0  0  0  0  0  0
    1.8742   -2.6627    0.7804 H   0  0  0  0  0  0  0  0  0  0  0  0
    2.9718   -2.5904   -0.6076 H   0  0  0  0  0  0  0  0  0  0  0  0
    3.3768   -1.0008    1.3695 H   0  0  0  0  0  0  0  0  0  0  0  0
    3.6394   -0.3719   -0.2668 H   0  0  0  0  0  0  0  0  0  0  0  0
    3.9798    2.5256    2.0779 H   0  0  0  0  0  0  0  0  0  0  0  0
    4.3862    1.0797    1.1367 H   0  0  0  0  0  0  0  0  0  0  0  0
    0.3268   -0.9401    1.4379 H   0  0  0  0  0  0  0  0  0  0  0  0
   -0.1754    0.7527    0.9421 H   0  0  0  0  0  0  0  0  0  0  0  0
    0.5869    0.2615   -1.3435 H   0  0  0  0  0  0  0  0  0  0  0  0
   -2.1739   -2.2824   -2.0478 H   0  0  0  0  0  0  0  0  0  0  0  0
   -2.4117   -0.6490   -2.6818 H   0  0  0  0  0  0  0  0  0  0  0  0
   -0.8207   -1.3804   -2.9410 H   0  0  0  0  0  0  0  0  0  0  0  0
   -4.1230   -1.4702    2.4334 H   0  0  0  0  0  0  0  0  0  0  0  0
   -4.1856    3.3115    1.5210 H   0  0  0  0  0  0  0  0  0  0  0  0
   -2.6516    4.2572   -0.3876 H   0  0  0  0  0  0  0  0  0  0  0  0
   -1.3601    2.2065   -1.3865 H   0  0  0  0  0  0  0  0  0  0  0  0
  1  2  1  0
  2  3  1  0
  3  4  1  0
  4  5  1  0
  5  6  1  0
  6  7  2  0
  6  8  1  0
  8  9  1  0
  9 10  3  0
  5 11  1  0
 11 12  1  0
 12 13  1  0
 13 14  1  0
 13 15  1  0
 15 16  2  0
 16 17  1  0
 17 18  2  0
 18 19  1  0
 19 20  1  0
 20 21  1  0
 21 22  2  0
 22 23  1  0
 12  2  1  0
 23 15  1  0
 23 19  2  0
  1 24  1  0
  1 25  1  0
  1 26  1  0
  2 27  1  6
  3 28  1  0
  3 29  1  0
  4 30  1  0
  4 31  1  0
  8 32  1  0
  8 33  1  0
 11 34  1  0
 11 35  1  0
 12 36  1  6
 14 37  1  0
 14 38  1  0
 14 39  1  0
 17 40  1  0
 20 41  1  0
 21 42  1  0
 22 43  1  0
M  END
$$$$
