
     RDKit          3D

 56 59  0  0  0  0  0  0  0  0999 V2000
   -2.3403   -5.3746   -1.5043 C   0  0  0  0  0  0  0  0  0  0  0  0
   -3.0072   -4.2241   -2.2207 C   0  0  0  0  0  0  0  0  0  0  0  0
   -2.1863   -3.1122   -2.3846 O   0  0  0  0  0  0  0  0  0  0  0  0
   -1.6025   -2.3900   -1.3793 C   0  0  0  0  0  0  0  0  0  0  0  0
   -1.8010   -2.7327   -0.1883 O   0  0  0  0  0  0  0  0  0  0  0  0
   -0.7299   -1.1986   -1.6095 C   0  0  0  0  0  0  0  0  0  0  0  0
    0.4501   -1.5434   -2.4060 C   0  0  0  0  0  0  0  0  0  0  0  0
    0.2667   -2.2768   -3.6704 C   0  0  0  0  0  0  0  0  0  0  0  0
    1.6283   -1.2292   -2.0417 N   0  0  0  0  0  0  0  0  0  0  0  0
    1.9276   -0.5229   -0.8457 C   0  0  0  0  0  0  0  0  0  0  0  0
    3.2253   -0.2400   -0.5329 N   0  0  0  0  0  0  0  0  0  0  0  0
    3.5984    0.4094    0.5741 C   0  0  0  0  0  0  0  0  0  0  0  0
    2.5821    0.7960    1.4181 C   0  0  0  0  0  0  0  0  0  0  0  0
    1.2547    0.5287    1.1377 C   0  0  0  0  0  0  0  0  0  0  0  0
    0.2524    0.9442    2.0471 N   0  0  0  0  0  0  0  0  0  0  0  0
    0.8981   -0.1477   -0.0209 C   0  0  0  0  0  0  0  0  0  0  0  0
   -0.4891   -0.4446   -0.3580 C   0  0  0  0  0  0  0  0  0  0  0  0
   -1.2613    0.8527   -0.3628 C   0  0  0  0  0  0  0  0  0  0  0  0
   -1.0839    1.8069   -1.3285 C   0  0  0  0  0  0  0  0  0  0  0  0
   -1.8327    2.9691   -1.3011 C   0  0  0  0  0  0  0  0  0  0  0  0
   -2.7713    3.2192   -0.3253 C   0  0  0  0  0  0  0  0  0  0  0  0
   -3.5121    4.3980   -0.3218 O   0  0  0  0  0  0  0  0  0  0  0  0
   -4.4523    4.6043    0.6910 C   0  0  0  0  0  0  0  0  0  0  0  0
   -2.9544    2.2636    0.6491 C   0  0  0  0  0  0  0  0  0  0  0  0
   -2.2038    1.1059    0.6157 C   0  0  0  0  0  0  0  0  0  0  0  0
    2.9587    1.5225    2.6580 C   0  0  0  0  0  0  0  0  0  0  0  0
    4.1442    0.8175    3.2438 C   0  0  0  0  0  0  0  0  0  0  0  0
    5.3311    0.7528    2.3446 C   0  0  0  0  0  0  0  0  0  0  0  0
    5.0320    0.7021    0.8844 C   0  0  0  0  0  0  0  0  0  0  0  0
   -3.0065   -6.2590   -1.5488 H   0  0  0  0  0  0  0  0  0  0  0  0
   -2.2158   -5.1603   -0.4114 H   0  0  0  0  0  0  0  0  0  0  0  0
   -1.3916   -5.6736   -1.9792 H   0  0  0  0  0  0  0  0  0  0  0  0
   -3.2888   -4.5873   -3.2375 H   0  0  0  0  0  0  0  0  0  0  0  0
   -3.9585   -3.9855   -1.6961 H   0  0  0  0  0  0  0  0  0  0  0  0
   -1.3600   -0.5391   -2.2870 H   0  0  0  0  0  0  0  0  0  0  0  0
    0.9671   -1.9556   -4.4731 H   0  0  0  0  0  0  0  0  0  0  0  0
    0.4641   -3.3800   -3.5401 H   0  0  0  0  0  0  0  0  0  0  0  0
   -0.7587   -2.1085   -4.0796 H   0  0  0  0  0  0  0  0  0  0  0  0
   -0.3156    0.3139    2.6308 H   0  0  0  0  0  0  0  0  0  0  0  0
    0.0840    1.9800    2.1295 H   0  0  0  0  0  0  0  0  0  0  0  0
   -0.8963   -1.0573    0.4945 H   0  0  0  0  0  0  0  0  0  0  0  0
   -0.3552    1.6476   -2.1127 H   0  0  0  0  0  0  0  0  0  0  0  0
   -1.6829    3.7191   -2.0748 H   0  0  0  0  0  0  0  0  0  0  0  0
   -5.2731    3.8563    0.5481 H   0  0  0  0  0  0  0  0  0  0  0  0
   -4.9080    5.6159    0.6340 H   0  0  0  0  0  0  0  0  0  0  0  0
   -4.0547    4.4219    1.7140 H   0  0  0  0  0  0  0  0  0  0  0  0
   -3.6853    2.4389    1.4235 H   0  0  0  0  0  0  0  0  0  0  0  0
   -2.4096    0.3963    1.4249 H   0  0  0  0  0  0  0  0  0  0  0  0
    2.1454    1.5010    3.4037 H   0  0  0  0  0  0  0  0  0  0  0  0
    3.2661    2.5587    2.4149 H   0  0  0  0  0  0  0  0  0  0  0  0
    4.4859    1.3004    4.2021 H   0  0  0  0  0  0  0  0  0  0  0  0
    3.8705   -0.2224    3.5528 H   0  0  0  0  0  0  0  0  0  0  0  0
    5.9872    1.6400    2.5477 H   0  0  0  0  0  0  0  0  0  0  0  0
    5.9554   -0.1248    2.6851 H   0  0  0  0  0  0  0  0  0  0  0  0
    5.4124    1.5825    0.3525 H   0  0  0  0  0  0  0  0  0  0  0  0
    5.6010   -0.1751    0.4587 H   0  0  0  0  0  0  0  0  0  0  0  0
  1  2  1  0
  2  3  1  0
  3  4  1  0
  4  5  2  0
  4  6  1  0
  6  7  1  0
  7  8  1  0
  7  9  2  0
  9 10  1  0
 10 11  2  0
 11 12  1  0
 12 13  2  0
 13 14  1  0
 14 15  1  0
 14 16  2  0
 16 17  1  0
 17 18  1  0
 18 19  2  0
 19 20  1  0
 20 21  2  0
 21 22  1  0
 22 23  1  0
 21 24  1  0
 24 25  2  0
 13 26  1  0
 26 27  1  0
 27 28  1  0
 28 29  1  0
 17  6  1  0
 25 18  1  0
 16 10  1  0
 29 12  1  0
  1 30  1  0
  1 31  1  0
  1 32  1  0
  2 33  1  0
  2 34  1  0
  6 35  1  0
  8 36  1  0
  8 37  1  0
  8 38  1  0
 15 39  1  0
 15 40  1  0
 17 41  1  0
 19 42  1  0
 20 43  1  0
 23 44  1  0
 23 45  1  0
 23 46  1  0
 24 47  1  0
 25 48  1  0
 26 49  1  0
 26 50  1  0
 27 51  1  0
 27 52  1  0
 28 53  1  0
 28 54  1  0
 29 55  1  0
 29 56  1  0
M  END
$$$$
