
     RDKit          3D

 63 69  0  0  0  0  0  0  0  0999 V2000
    6.5464    0.8251    2.8544 C   0  0  0  0  0  0  0  0  0  0  0  0
    5.1438    1.3083    2.7937 C   0  0  0  0  0  0  0  0  0  0  0  0
    4.7939    2.1846    3.6234 O   0  0  0  0  0  0  0  0  0  0  0  0
    4.2180    0.8158    1.8464 N   0  0  0  0  0  0  0  0  0  0  0  0
    4.2672   -0.1584    0.7777 C   0  0  0  0  0  0  0  0  0  0  0  0
    3.1883    0.7033    0.1079 C   0  0  0  0  0  0  0  0  0  0  0  0
    2.2888   -0.0118   -0.7297 N   0  0  0  0  0  0  0  0  0  0  0  0
    2.7032   -0.6953   -1.8137 C   0  0  0  0  0  0  0  0  0  0  0  0
    1.6518   -1.2848   -2.4319 C   0  0  0  0  0  0  0  0  0  0  0  0
    1.6588   -2.1335   -3.6645 C   0  0  0  0  0  0  0  0  0  0  0  0
    1.8401   -3.6454   -3.4048 C   0  0  0  0  0  0  0  0  0  0  0  0
    2.8910   -2.8131   -4.1052 C   0  0  0  0  0  0  0  0  0  0  0  0
    0.5364   -0.9530   -1.6993 C   0  0  0  0  0  0  0  0  0  0  0  0
    0.9566   -0.1682   -0.6576 C   0  0  0  0  0  0  0  0  0  0  0  0
   -0.2076    0.2173    0.1312 C   0  0  0  0  0  0  0  0  0  0  0  0
   -0.4701    1.6817    0.0902 C   0  0  0  0  0  0  0  0  0  0  0  0
   -0.8506    2.3275   -1.0624 C   0  0  0  0  0  0  0  0  0  0  0  0
   -1.0997    3.6847   -1.1199 C   0  0  0  0  0  0  0  0  0  0  0  0
   -0.9699    4.4515    0.0102 C   0  0  0  0  0  0  0  0  0  0  0  0
   -1.2812    6.1690   -0.0451 Cl  0  0  0  0  0  0  0  0  0  0  0  0
   -0.5897    3.8240    1.1753 C   0  0  0  0  0  0  0  0  0  0  0  0
   -0.3460    2.4862    1.2242 C   0  0  0  0  0  0  0  0  0  0  0  0
   -1.3318   -0.4496   -0.4911 N   0  0  0  0  0  0  0  0  0  0  0  0
   -2.6898   -0.4815   -0.0776 C   0  0  0  0  0  0  0  0  0  0  0  0
   -3.6469    0.3620   -0.5244 C   0  0  0  0  0  0  0  0  0  0  0  0
   -4.9744    0.3002   -0.0832 C   0  0  0  0  0  0  0  0  0  0  0  0
   -6.0005    1.2342   -0.5874 C   0  0  0  0  0  0  0  0  0  0  0  0
   -5.2714   -0.6756    0.8436 C   0  0  0  0  0  0  0  0  0  0  0  0
   -6.4092   -1.0396    1.4893 N   0  0  0  0  0  0  0  0  0  0  0  0
   -6.1280   -2.0492    2.2761 N   0  0  0  0  0  0  0  0  0  0  0  0
   -4.8573   -2.3835    2.1926 N   0  0  0  0  0  0  0  0  0  0  0  0
   -4.1656   -3.4601    2.9171 C   0  0  0  0  0  0  0  0  0  0  0  0
   -4.3021   -1.5381    1.3028 C   0  0  0  0  0  0  0  0  0  0  0  0
   -3.0335   -1.4184    0.8292 N   0  0  0  0  0  0  0  0  0  0  0  0
   -0.8997   -1.1731   -1.6623 C   0  0  0  0  0  0  0  0  0  0  0  0
   -1.5879   -1.8413   -2.4711 O   0  0  0  0  0  0  0  0  0  0  0  0
    2.8294    1.0263    1.4876 C   0  0  0  0  0  0  0  0  0  0  0  0
    6.5872   -0.1761    3.3652 H   0  0  0  0  0  0  0  0  0  0  0  0
    7.2165    1.5544    3.3204 H   0  0  0  0  0  0  0  0  0  0  0  0
    6.9508    0.6251    1.8187 H   0  0  0  0  0  0  0  0  0  0  0  0
    5.2040   -0.2112    0.2061 H   0  0  0  0  0  0  0  0  0  0  0  0
    3.8918   -1.1446    1.1205 H   0  0  0  0  0  0  0  0  0  0  0  0
    3.6892    1.5521   -0.4018 H   0  0  0  0  0  0  0  0  0  0  0  0
    3.7364   -0.7894   -2.1826 H   0  0  0  0  0  0  0  0  0  0  0  0
    0.8742   -1.9005   -4.4124 H   0  0  0  0  0  0  0  0  0  0  0  0
    1.9890   -3.9441   -2.3600 H   0  0  0  0  0  0  0  0  0  0  0  0
    1.2318   -4.3282   -4.0089 H   0  0  0  0  0  0  0  0  0  0  0  0
    3.0044   -2.9578   -5.1993 H   0  0  0  0  0  0  0  0  0  0  0  0
    3.8140   -2.6513   -3.5222 H   0  0  0  0  0  0  0  0  0  0  0  0
   -0.1910   -0.1430    1.1773 H   0  0  0  0  0  0  0  0  0  0  0  0
   -0.9723    1.7745   -1.9977 H   0  0  0  0  0  0  0  0  0  0  0  0
   -1.3997    4.1554   -2.0572 H   0  0  0  0  0  0  0  0  0  0  0  0
   -0.4948    4.4535    2.0533 H   0  0  0  0  0  0  0  0  0  0  0  0
   -0.0454    2.0139    2.1632 H   0  0  0  0  0  0  0  0  0  0  0  0
   -3.4191    1.1228   -1.2542 H   0  0  0  0  0  0  0  0  0  0  0  0
   -5.6911    1.5394   -1.6193 H   0  0  0  0  0  0  0  0  0  0  0  0
   -6.9911    0.7510   -0.7072 H   0  0  0  0  0  0  0  0  0  0  0  0
   -6.0359    2.1197    0.0644 H   0  0  0  0  0  0  0  0  0  0  0  0
   -3.1027   -3.4233    2.6528 H   0  0  0  0  0  0  0  0  0  0  0  0
   -4.6385   -4.4384    2.7188 H   0  0  0  0  0  0  0  0  0  0  0  0
   -4.3074   -3.2105    3.9986 H   0  0  0  0  0  0  0  0  0  0  0  0
    2.4906    2.0875    1.6539 H   0  0  0  0  0  0  0  0  0  0  0  0
    2.2080    0.3410    2.0680 H   0  0  0  0  0  0  0  0  0  0  0  0
  1  2  1  0
  2  3  2  0
  2  4  1  0
  4  5  1  0
  5  6  1  0
  6  7  1  0
  7  8  1  0
  8  9  2  0
  9 10  1  0
 10 11  1  0
 11 12  1  0
  9 13  1  0
 13 14  2  0
 14 15  1  0
 15 16  1  0
 16 17  2  0
 17 18  1  0
 18 19  2  0
 19 20  1  0
 19 21  1  0
 21 22  2  0
 15 23  1  0
 23 24  1  0
 24 25  2  0
 25 26  1  0
 26 27  1  0
 26 28  2  0
 28 29  1  0
 29 30  2  0
 30 31  1  0
 31 32  1  0
 31 33  1  0
 33 34  2  0
 23 35  1  0
 35 36  2  0
  6 37  1  0
 37  4  1  0
 14  7  1  0
 22 16  1  0
 34 24  1  0
 12 10  1  0
 35 13  1  0
 33 28  1  0
  1 38  1  0
  1 39  1  0
  1 40  1  0
  5 41  1  0
  5 42  1  0
  6 43  1  0
  8 44  1  0
 10 45  1  0
 11 46  1  0
 11 47  1  0
 12 48  1  0
 12 49  1  0
 15 50  1  0
 17 51  1  0
 18 52  1  0
 21 53  1  0
 22 54  1  0
 25 55  1  0
 27 56  1  0
 27 57  1  0
 27 58  1  0
 32 59  1  0
 32 60  1  0
 32 61  1  0
 37 62  1  0
 37 63  1  0
M  END
$$$$
