
     RDKit          3D

 44 47  0  0  0  0  0  0  0  0999 V2000
   -0.7525    1.0978    0.4704 O   0  0  0  0  0  0  0  0  0  0  0  0
   -1.2315   -0.0248    0.0908 C   0  0  0  0  0  0  0  0  0  0  0  0
   -0.2827   -1.0149   -0.2465 N   0  0  0  0  0  0  0  0  0  0  0  0
    1.1346   -0.7549   -0.1610 C   0  0  0  0  0  0  0  0  0  0  0  0
    1.7550   -0.2490   -1.2782 C   0  0  0  0  0  0  0  0  0  0  0  0
    3.1305    0.0220   -1.2507 C   0  0  0  0  0  0  0  0  0  0  0  0
    3.8639   -0.2153   -0.1125 C   0  0  0  0  0  0  0  0  0  0  0  0
    5.3085    0.0773   -0.1064 C   0  0  0  0  0  0  0  0  0  0  0  0
    5.8616    1.0965   -0.8414 C   0  0  0  0  0  0  0  0  0  0  0  0
    7.2290    1.3227   -0.7944 C   0  0  0  0  0  0  0  0  0  0  0  0
    8.0611    0.5325   -0.0115 C   0  0  0  0  0  0  0  0  0  0  0  0
    9.7950    0.8001    0.0635 Cl  0  0  0  0  0  0  0  0  0  0  0  0
    7.5086   -0.4997    0.7342 C   0  0  0  0  0  0  0  0  0  0  0  0
    8.4749   -1.5476    1.7491 Cl  0  0  0  0  0  0  0  0  0  0  0  0
    6.1632   -0.7056    0.6744 C   0  0  0  0  0  0  0  0  0  0  0  0
    3.2449   -0.7231    1.0111 C   0  0  0  0  0  0  0  0  0  0  0  0
    1.8903   -0.9810    0.9579 C   0  0  0  0  0  0  0  0  0  0  0  0
   -2.6780   -0.2406    0.0204 C   0  0  0  0  0  0  0  0  0  0  0  0
   -3.4645    0.7523    0.3585 C   0  0  0  0  0  0  0  0  0  0  0  0
   -2.8449    1.9544    0.7649 O   0  0  0  0  0  0  0  0  0  0  0  0
   -4.9181    0.7563    0.3626 C   0  0  0  0  0  0  0  0  0  0  0  0
   -5.6266    1.8759    0.7442 C   0  0  0  0  0  0  0  0  0  0  0  0
   -6.9854    1.8693    0.7451 C   0  0  0  0  0  0  0  0  0  0  0  0
   -7.6944    0.7418    0.3642 C   0  0  0  0  0  0  0  0  0  0  0  0
   -7.0086   -0.3819   -0.0187 C   0  0  0  0  0  0  0  0  0  0  0  0
   -5.6404   -0.3496   -0.0109 C   0  0  0  0  0  0  0  0  0  0  0  0
   -4.8242   -1.8062   -0.5075 S   0  0  0  0  0  6  0  0  0  0  0  0
   -5.1923   -2.8971    0.4708 O   0  0  0  0  0  0  0  0  0  0  0  0
   -5.2431   -2.2117   -1.9032 O   0  0  0  0  0  0  0  0  0  0  0  0
   -3.1390   -1.5018   -0.4063 N   0  0  0  0  0  0  0  0  0  0  0  0
   -0.6287   -1.9434   -0.5606 H   0  0  0  0  0  0  0  0  0  0  0  0
    1.2566   -0.0342   -2.2096 H   0  0  0  0  0  0  0  0  0  0  0  0
    3.6376    0.4204   -2.1197 H   0  0  0  0  0  0  0  0  0  0  0  0
    5.2172    1.7108   -1.4496 H   0  0  0  0  0  0  0  0  0  0  0  0
    7.6533    2.1318   -1.3804 H   0  0  0  0  0  0  0  0  0  0  0  0
    5.6989   -1.5001    1.2418 H   0  0  0  0  0  0  0  0  0  0  0  0
    3.8473   -0.8975    1.8862 H   0  0  0  0  0  0  0  0  0  0  0  0
    1.4054   -1.3777    1.8351 H   0  0  0  0  0  0  0  0  0  0  0  0
   -2.5404    2.0315    1.7257 H   0  0  0  0  0  0  0  0  0  0  0  0
   -5.0676    2.7466    1.0384 H   0  0  0  0  0  0  0  0  0  0  0  0
   -7.5786    2.7249    1.0366 H   0  0  0  0  0  0  0  0  0  0  0  0
   -8.7669    0.7373    0.3651 H   0  0  0  0  0  0  0  0  0  0  0  0
   -7.5196   -1.2743   -0.3205 H   0  0  0  0  0  0  0  0  0  0  0  0
   -2.5092   -2.2702   -0.6672 H   0  0  0  0  0  0  0  0  0  0  0  0
  1  2  2  0
  2  3  1  0
  3  4  1  0
  4  5  2  0
  5  6  1  0
  6  7  2  0
  7  8  1  0
  8  9  2  0
  9 10  1  0
 10 11  2  0
 11 12  1  0
 11 13  1  0
 13 14  1  0
 13 15  2  0
  7 16  1  0
 16 17  2  0
  2 18  1  0
 18 19  2  0
 19 20  1  0
 19 21  1  0
 21 22  2  0
 22 23  1  0
 23 24  2  0
 24 25  1  0
 25 26  2  0
 26 27  1  0
 27 28  2  0
 27 29  2  0
 27 30  1  0
 17  4  1  0
 30 18  1  0
 15  8  1  0
 26 21  1  0
  3 31  1  0
  5 32  1  0
  6 33  1  0
  9 34  1  0
 10 35  1  0
 15 36  1  0
 16 37  1  0
 17 38  1  0
 20 39  1  0
 22 40  1  0
 23 41  1  0
 24 42  1  0
 25 43  1  0
 30 44  1  0
M  END
$$$$
