
     RDKit          3D

 62 65  0  0  0  0  0  0  0  0999 V2000
    9.6393   -2.4658    0.8452 C   0  0  0  0  0  0  0  0  0  0  0  0
    8.3427   -2.4212    0.3211 O   0  0  0  0  0  0  0  0  0  0  0  0
    7.5512   -1.2574    0.2868 C   0  0  0  0  0  0  0  0  0  0  0  0
    6.2814   -1.4211   -0.2786 C   0  0  0  0  0  0  0  0  0  0  0  0
    5.4397   -0.3074   -0.3456 C   0  0  0  0  0  0  0  0  0  0  0  0
    5.9403    0.8774    0.1591 C   0  0  0  0  0  0  0  0  0  0  0  0
    5.0699    2.4370    0.1931 S   0  0  0  0  0  0  0  0  0  0  0  0
    3.3873    2.1427    0.8228 C   0  0  0  0  0  0  0  0  0  0  0  0
    3.1239    0.6647    1.0279 C   0  0  0  0  0  0  0  0  0  0  0  0
    3.0083   -0.0751   -0.2051 N   0  0  0  0  0  0  0  0  0  0  0  0
    4.1269   -0.6160   -0.9662 C   0  0  0  0  0  0  0  0  0  0  0  0
    1.7479   -0.3561   -0.8136 C   0  0  0  0  0  0  0  0  0  0  0  0
    1.6512   -1.0118   -1.9080 O   0  0  0  0  0  0  0  0  0  0  0  0
    0.5290    0.1490   -0.1186 C   0  0  0  0  0  0  0  0  0  0  0  0
   -0.6611   -0.2320   -0.9242 C   0  0  0  0  0  0  0  0  0  0  0  0
   -1.9194    0.1789   -0.3975 N   0  0  0  0  0  0  0  0  0  0  0  0
   -2.1539    1.5915   -0.4041 C   0  0  0  0  0  0  0  0  0  0  0  0
   -3.3788    1.9427    0.3941 C   0  0  0  0  0  0  0  0  0  0  0  0
   -4.5955    1.2936   -0.2325 C   0  0  0  0  0  0  0  0  0  0  0  0
   -5.3241    0.5658    0.8506 C   0  0  0  0  0  0  0  0  0  0  0  0
   -6.5410   -0.1349    0.4425 C   0  0  0  0  0  0  0  0  0  0  0  0
   -7.6786    0.6309    0.5202 C   0  0  0  0  0  0  0  0  0  0  0  0
   -8.9228    0.1069    0.1661 C   0  0  0  0  0  0  0  0  0  0  0  0
   -8.9958   -1.2166   -0.2715 C   0  0  0  0  0  0  0  0  0  0  0  0
   -7.8669   -2.0031   -0.3572 C   0  0  0  0  0  0  0  0  0  0  0  0
   -6.6755   -1.4356    0.0031 C   0  0  0  0  0  0  0  0  0  0  0  0
   -4.1588    0.3393   -1.3088 C   0  0  0  0  0  0  0  0  0  0  0  0
   -3.0385   -0.5737   -0.8627 C   0  0  0  0  0  0  0  0  0  0  0  0
    7.1846    1.0577    0.7180 C   0  0  0  0  0  0  0  0  0  0  0  0
    8.0229   -0.0611    0.7825 C   0  0  0  0  0  0  0  0  0  0  0  0
   10.3932   -2.1941    0.0834 H   0  0  0  0  0  0  0  0  0  0  0  0
    9.7811   -3.5235    1.2134 H   0  0  0  0  0  0  0  0  0  0  0  0
    9.6656   -1.8155    1.7500 H   0  0  0  0  0  0  0  0  0  0  0  0
    5.9650   -2.3700   -0.6477 H   0  0  0  0  0  0  0  0  0  0  0  0
    2.6276    2.5770    0.1447 H   0  0  0  0  0  0  0  0  0  0  0  0
    3.3305    2.6110    1.8253 H   0  0  0  0  0  0  0  0  0  0  0  0
    2.2339    0.5806    1.6865 H   0  0  0  0  0  0  0  0  0  0  0  0
    3.9700    0.2625    1.6378 H   0  0  0  0  0  0  0  0  0  0  0  0
    4.1101   -0.1229   -1.9710 H   0  0  0  0  0  0  0  0  0  0  0  0
    4.0618   -1.7245   -1.0690 H   0  0  0  0  0  0  0  0  0  0  0  0
    0.5384   -0.3519    0.8747 H   0  0  0  0  0  0  0  0  0  0  0  0
    0.6598    1.2124    0.0573 H   0  0  0  0  0  0  0  0  0  0  0  0
   -0.6791   -1.3399   -0.9915 H   0  0  0  0  0  0  0  0  0  0  0  0
   -0.5703    0.1221   -1.9625 H   0  0  0  0  0  0  0  0  0  0  0  0
   -2.3387    1.9048   -1.4531 H   0  0  0  0  0  0  0  0  0  0  0  0
   -1.2579    2.1478   -0.0941 H   0  0  0  0  0  0  0  0  0  0  0  0
   -3.4870    3.0655    0.4130 H   0  0  0  0  0  0  0  0  0  0  0  0
   -3.2710    1.6769    1.4682 H   0  0  0  0  0  0  0  0  0  0  0  0
   -5.1933    2.1081   -0.6926 H   0  0  0  0  0  0  0  0  0  0  0  0
   -4.6185   -0.2317    1.2217 H   0  0  0  0  0  0  0  0  0  0  0  0
   -5.4608    1.2413    1.7045 H   0  0  0  0  0  0  0  0  0  0  0  0
   -7.7126    1.6666    0.8492 H   0  0  0  0  0  0  0  0  0  0  0  0
   -9.8243    0.7030    0.2234 H   0  0  0  0  0  0  0  0  0  0  0  0
   -9.9827   -1.5947   -0.5398 H   0  0  0  0  0  0  0  0  0  0  0  0
   -7.9221   -3.0264   -0.6955 H   0  0  0  0  0  0  0  0  0  0  0  0
   -5.7384   -2.0003   -0.0390 H   0  0  0  0  0  0  0  0  0  0  0  0
   -3.8712    0.8333   -2.2591 H   0  0  0  0  0  0  0  0  0  0  0  0
   -4.9963   -0.3485   -1.6051 H   0  0  0  0  0  0  0  0  0  0  0  0
   -3.3722   -1.3949   -0.1996 H   0  0  0  0  0  0  0  0  0  0  0  0
   -2.6917   -1.0983   -1.8013 H   0  0  0  0  0  0  0  0  0  0  0  0
    7.5239    2.0031    1.0954 H   0  0  0  0  0  0  0  0  0  0  0  0
    8.9917    0.0320    1.2065 H   0  0  0  0  0  0  0  0  0  0  0  0
  1  2  1  0
  2  3  1  0
  3  4  2  0
  4  5  1  0
  5  6  2  0
  6  7  1  0
  7  8  1  0
  8  9  1  0
  9 10  1  0
 10 11  1  0
 10 12  1  0
 12 13  2  0
 12 14  1  0
 14 15  1  0
 15 16  1  0
 16 17  1  0
 17 18  1  0
 18 19  1  0
 19 20  1  0
 20 21  1  0
 21 22  2  0
 22 23  1  0
 23 24  2  0
 24 25  1  0
 25 26  2  0
 19 27  1  0
 27 28  1  0
  6 29  1  0
 29 30  2  0
 30  3  1  0
 11  5  1  0
 28 16  1  0
 26 21  1  0
  1 31  1  0
  1 32  1  0
  1 33  1  0
  4 34  1  0
  8 35  1  0
  8 36  1  0
  9 37  1  0
  9 38  1  0
 11 39  1  0
 11 40  1  0
 14 41  1  0
 14 42  1  0
 15 43  1  0
 15 44  1  0
 17 45  1  0
 17 46  1  0
 18 47  1  0
 18 48  1  0
 19 49  1  0
 20 50  1  0
 20 51  1  0
 22 52  1  0
 23 53  1  0
 24 54  1  0
 25 55  1  0
 26 56  1  0
 27 57  1  0
 27 58  1  0
 28 59  1  0
 28 60  1  0
 29 61  1  0
 30 62  1  0
M  END
$$$$
