
     RDKit          3D

 71 76  0  0  0  0  0  0  0  0999 V2000
   -7.6810    2.7528    0.7766 C   0  0  0  0  0  0  0  0  0  0  0  0
   -6.2731    2.4457    0.7872 N   0  0  0  0  0  0  0  0  0  0  0  0
   -5.5727    2.4760    2.0474 C   0  0  0  0  0  0  0  0  0  0  0  0
   -5.5354    2.1366   -0.3887 C   0  0  0  0  0  0  0  0  0  0  0  0
   -6.1773    2.1554   -1.4626 O   0  0  0  0  0  0  0  0  0  0  0  0
   -4.1242    1.8283   -0.2884 C   0  0  0  0  0  0  0  0  0  0  0  0
   -3.1565    2.7436    0.1387 C   0  0  0  0  0  0  0  0  0  0  0  0
   -1.9705    2.0898    0.1147 C   0  0  0  0  0  0  0  0  0  0  0  0
   -0.6483    2.4346    0.4129 C   0  0  0  0  0  0  0  0  0  0  0  0
    0.3246    1.5208    0.2697 N   0  0  0  0  0  0  0  0  0  0  0  0
    0.1350    0.2750   -0.1447 C   0  0  0  0  0  0  0  0  0  0  0  0
    1.0570   -0.7373   -0.3604 N   0  0  0  0  0  0  0  0  0  0  0  0
    2.4568   -0.6115   -0.2168 C   0  0  0  0  0  0  0  0  0  0  0  0
    3.1099    0.5128    0.2203 C   0  0  0  0  0  0  0  0  0  0  0  0
    4.4956    0.6213    0.2956 C   0  0  0  0  0  0  0  0  0  0  0  0
    5.2612   -0.4371   -0.0825 C   0  0  0  0  0  0  0  0  0  0  0  0
    6.6962   -0.4024   -0.0754 N   0  0  0  0  0  0  0  0  0  0  0  0
    7.5005   -0.8861    1.0072 C   0  0  0  0  0  0  0  0  0  0  0  0
    8.9482   -0.9876    0.6499 C   0  0  0  0  0  0  0  0  0  0  0  0
    9.5846    0.3668    0.9027 C   0  0  0  0  0  0  0  0  0  0  0  0
    9.5925    0.9962   -0.4735 C   0  0  0  0  0  0  0  0  0  0  0  0
    8.8697    0.0192   -1.3513 C   0  0  0  0  0  0  0  0  0  0  0  0
    9.2014   -1.2624   -0.7494 N   0  0  0  0  0  0  0  0  0  0  0  0
    7.3914    0.1380   -1.2246 C   0  0  0  0  0  0  0  0  0  0  0  0
    6.6645    0.7031   -2.0833 O   0  0  0  0  0  0  0  0  0  0  0  0
    4.5906   -1.5619   -0.5177 C   0  0  0  0  0  0  0  0  0  0  0  0
    3.2689   -1.6548   -0.5850 N   0  0  0  0  0  0  0  0  0  0  0  0
   -1.1729   -0.0373   -0.4300 N   0  0  0  0  0  0  0  0  0  0  0  0
   -2.1848    0.8229   -0.3090 C   0  0  0  0  0  0  0  0  0  0  0  0
   -3.5402    0.6682   -0.5587 N   0  0  0  0  0  0  0  0  0  0  0  0
   -4.0194   -0.5945   -1.0004 C   0  0  0  0  0  0  0  0  0  0  0  0
   -5.3413   -0.6745   -1.6474 C   0  0  0  0  0  0  0  0  0  0  0  0
   -5.4879   -2.1397   -2.1207 C   0  0  0  0  0  0  0  0  0  0  0  0
   -6.3756   -2.8939   -1.1450 C   0  0  0  0  0  0  0  0  0  0  0  0
   -5.5917   -3.2549    0.0891 C   0  0  0  0  0  0  0  0  0  0  0  0
   -5.1205   -1.9875    0.7838 C   0  0  0  0  0  0  0  0  0  0  0  0
   -3.8388   -1.5844    0.1366 C   0  0  0  0  0  0  0  0  0  0  0  0
   -8.3113    1.9950    1.2866 H   0  0  0  0  0  0  0  0  0  0  0  0
   -7.9274    3.7512    1.2207 H   0  0  0  0  0  0  0  0  0  0  0  0
   -8.0798    2.7974   -0.2776 H   0  0  0  0  0  0  0  0  0  0  0  0
   -4.7267    1.7645    2.1049 H   0  0  0  0  0  0  0  0  0  0  0  0
   -5.1755    3.5355    2.1246 H   0  0  0  0  0  0  0  0  0  0  0  0
   -6.1869    2.3090    2.9318 H   0  0  0  0  0  0  0  0  0  0  0  0
   -3.3237    3.7520    0.4253 H   0  0  0  0  0  0  0  0  0  0  0  0
   -0.4278    3.4215    0.7476 H   0  0  0  0  0  0  0  0  0  0  0  0
    0.7206   -1.7025   -0.6565 H   0  0  0  0  0  0  0  0  0  0  0  0
    2.5365    1.3827    0.5358 H   0  0  0  0  0  0  0  0  0  0  0  0
    4.9773    1.5140    0.6423 H   0  0  0  0  0  0  0  0  0  0  0  0
    7.3581   -0.1613    1.8632 H   0  0  0  0  0  0  0  0  0  0  0  0
    7.0920   -1.8869    1.3179 H   0  0  0  0  0  0  0  0  0  0  0  0
    9.3991   -1.7886    1.2723 H   0  0  0  0  0  0  0  0  0  0  0  0
    8.9983    1.0043    1.5857 H   0  0  0  0  0  0  0  0  0  0  0  0
   10.6157    0.1927    1.2926 H   0  0  0  0  0  0  0  0  0  0  0  0
   10.6259    1.0843   -0.8708 H   0  0  0  0  0  0  0  0  0  0  0  0
    9.1188    2.0029   -0.4689 H   0  0  0  0  0  0  0  0  0  0  0  0
    9.1862    0.0639   -2.4182 H   0  0  0  0  0  0  0  0  0  0  0  0
   10.1686   -1.5628   -0.8810 H   0  0  0  0  0  0  0  0  0  0  0  0
    5.2368   -2.4060   -0.8119 H   0  0  0  0  0  0  0  0  0  0  0  0
   -3.2747   -0.9515   -1.7953 H   0  0  0  0  0  0  0  0  0  0  0  0
   -6.2192   -0.5045   -1.0319 H   0  0  0  0  0  0  0  0  0  0  0  0
   -5.2953   -0.1080   -2.6045 H   0  0  0  0  0  0  0  0  0  0  0  0
   -4.5123   -2.6641   -2.0954 H   0  0  0  0  0  0  0  0  0  0  0  0
   -5.8519   -2.1908   -3.1506 H   0  0  0  0  0  0  0  0  0  0  0  0
   -6.8027   -3.7956   -1.5976 H   0  0  0  0  0  0  0  0  0  0  0  0
   -7.1529   -2.1469   -0.8151 H   0  0  0  0  0  0  0  0  0  0  0  0
   -6.2207   -3.7988    0.8034 H   0  0  0  0  0  0  0  0  0  0  0  0
   -4.6696   -3.8195   -0.1592 H   0  0  0  0  0  0  0  0  0  0  0  0
   -4.8694   -2.2257    1.8595 H   0  0  0  0  0  0  0  0  0  0  0  0
   -5.8800   -1.2088    0.8396 H   0  0  0  0  0  0  0  0  0  0  0  0
   -3.3138   -2.5022   -0.2146 H   0  0  0  0  0  0  0  0  0  0  0  0
   -3.1487   -1.1456    0.8970 H   0  0  0  0  0  0  0  0  0  0  0  0
  1  2  1  0
  2  3  1  0
  2  4  1  0
  4  5  2  0
  4  6  1  0
  6  7  2  0
  7  8  1  0
  8  9  2  0
  9 10  1  0
 10 11  2  0
 11 12  1  0
 12 13  1  0
 13 14  2  0
 14 15  1  0
 15 16  2  0
 16 17  1  0
 17 18  1  0
 18 19  1  0
 19 20  1  0
 20 21  1  0
 21 22  1  0
 22 23  1  0
 22 24  1  0
 24 25  2  0
 16 26  1  0
 26 27  2  0
 11 28  1  0
 28 29  2  0
 29 30  1  0
 30 31  1  0
 31 32  1  0
 32 33  1  0
 33 34  1  0
 34 35  1  0
 35 36  1  0
 36 37  1  0
 30  6  1  0
 37 31  1  0
 29  8  1  0
 27 13  1  0
 24 17  1  0
 23 19  1  0
  1 38  1  0
  1 39  1  0
  1 40  1  0
  3 41  1  0
  3 42  1  0
  3 43  1  0
  7 44  1  0
  9 45  1  0
 12 46  1  0
 14 47  1  0
 15 48  1  0
 18 49  1  0
 18 50  1  0
 19 51  1  0
 20 52  1  0
 20 53  1  0
 21 54  1  0
 21 55  1  0
 22 56  1  0
 23 57  1  0
 26 58  1  0
 31 59  1  0
 32 60  1  0
 32 61  1  0
 33 62  1  0
 33 63  1  0
 34 64  1  0
 34 65  1  0
 35 66  1  0
 35 67  1  0
 36 68  1  0
 36 69  1  0
 37 70  1  0
 37 71  1  0
M  END
$$$$
