
     RDKit          3D

 58 60  0  0  0  0  0  0  0  0999 V2000
   -6.5023    0.4055    0.7336 C   0  0  0  0  0  0  0  0  0  0  0  0
   -5.0436    0.3455    1.0287 C   0  0  0  0  0  0  0  0  0  0  0  0
   -4.2573   -0.2463   -0.1292 C   0  0  0  0  0  0  0  0  0  0  0  0
   -4.6544   -1.6332   -0.4617 C   0  0  0  0  0  0  0  0  0  0  0  0
   -4.4437   -2.5325    0.7209 C   0  0  0  0  0  0  0  0  0  0  0  0
   -2.9052   -0.0716    0.1352 O   0  0  0  0  0  0  0  0  0  0  0  0
   -2.1549   -0.6371   -0.8568 C   0  0  0  0  0  0  0  0  0  0  0  0
   -0.6936   -0.3458   -0.7873 C   0  0  0  0  0  0  0  0  0  0  0  0
    0.3137   -1.0296   -0.1873 C   0  0  0  0  0  0  0  0  0  0  0  0
    1.5444   -0.3600   -0.4283 C   0  0  0  0  0  0  0  0  0  0  0  0
    2.8300   -0.8619    0.0464 C   0  0  0  0  0  0  0  0  0  0  0  0
    3.7120   -0.1645    0.8235 C   0  0  0  0  0  0  0  0  0  0  0  0
    4.9107   -0.7401    1.1885 C   0  0  0  0  0  0  0  0  0  0  0  0
    5.2501   -2.0142    0.7893 C   0  0  0  0  0  0  0  0  0  0  0  0
    4.3895   -2.7463    0.0084 C   0  0  0  0  0  0  0  0  0  0  0  0
    4.6110   -4.0267   -0.4540 O   0  0  0  0  0  0  0  0  0  0  0  0
    5.7808   -4.7279   -0.1567 C   0  0  0  0  0  0  0  0  0  0  0  0
    3.2045   -2.1406   -0.3368 C   0  0  0  0  0  0  0  0  0  0  0  0
    1.2455    0.6828   -1.1512 N   0  0  0  0  0  0  0  0  0  0  0  0
    1.9966    1.7357   -1.7898 C   0  0  0  0  0  0  0  0  0  0  0  0
    2.1982    2.8835   -0.9132 C   0  0  0  0  0  0  0  0  0  0  0  0
    1.0527    3.6143   -0.5547 C   0  0  0  0  0  0  0  0  0  0  0  0
    1.1742    4.6217    0.3754 C   0  0  0  0  0  0  0  0  0  0  0  0
    2.3581    4.9583    0.9779 C   0  0  0  0  0  0  0  0  0  0  0  0
    3.4747    4.2501    0.6284 C   0  0  0  0  0  0  0  0  0  0  0  0
    3.3783    3.2396   -0.2999 C   0  0  0  0  0  0  0  0  0  0  0  0
    4.8691    2.4403   -0.8410 Cl  0  0  0  0  0  0  0  0  0  0  0  0
   -0.1145    0.7017   -1.3739 N   0  0  0  0  0  0  0  0  0  0  0  0
   -4.5795    0.6861   -1.2859 C   0  0  0  0  0  0  0  0  0  0  0  0
   -5.7041    0.7090   -1.8358 O   0  0  0  0  0  0  0  0  0  0  0  0
   -3.5794    1.5251   -1.7210 O   0  0  0  0  0  0  0  0  0  0  0  0
   -6.7780    1.2966    0.1097 H   0  0  0  0  0  0  0  0  0  0  0  0
   -7.0224    0.6181    1.7136 H   0  0  0  0  0  0  0  0  0  0  0  0
   -6.8591   -0.5429    0.3267 H   0  0  0  0  0  0  0  0  0  0  0  0
   -4.6047    1.3574    1.2265 H   0  0  0  0  0  0  0  0  0  0  0  0
   -4.9016   -0.2337    1.9664 H   0  0  0  0  0  0  0  0  0  0  0  0
   -4.0758   -2.0439   -1.3150 H   0  0  0  0  0  0  0  0  0  0  0  0
   -5.7158   -1.6555   -0.8077 H   0  0  0  0  0  0  0  0  0  0  0  0
   -5.3558   -2.6148    1.3545 H   0  0  0  0  0  0  0  0  0  0  0  0
   -3.5993   -2.1117    1.2924 H   0  0  0  0  0  0  0  0  0  0  0  0
   -4.2494   -3.5761    0.3701 H   0  0  0  0  0  0  0  0  0  0  0  0
   -2.2831   -1.7724   -0.6873 H   0  0  0  0  0  0  0  0  0  0  0  0
   -2.5425   -0.5173   -1.8841 H   0  0  0  0  0  0  0  0  0  0  0  0
    0.2461   -1.9270    0.3813 H   0  0  0  0  0  0  0  0  0  0  0  0
    3.4526    0.8328    1.1655 H   0  0  0  0  0  0  0  0  0  0  0  0
    5.6235   -0.1984    1.8010 H   0  0  0  0  0  0  0  0  0  0  0  0
    6.1894   -2.4624    1.0765 H   0  0  0  0  0  0  0  0  0  0  0  0
    5.6652   -5.3224    0.7782 H   0  0  0  0  0  0  0  0  0  0  0  0
    6.0489   -5.4615   -0.9658 H   0  0  0  0  0  0  0  0  0  0  0  0
    6.6248   -4.0183   -0.1181 H   0  0  0  0  0  0  0  0  0  0  0  0
    2.4943   -2.7112   -0.9620 H   0  0  0  0  0  0  0  0  0  0  0  0
    2.9977    1.3452   -2.1587 H   0  0  0  0  0  0  0  0  0  0  0  0
    1.5192    2.1049   -2.7277 H   0  0  0  0  0  0  0  0  0  0  0  0
    0.1047    3.3682   -1.0204 H   0  0  0  0  0  0  0  0  0  0  0  0
    0.2894    5.1885    0.6589 H   0  0  0  0  0  0  0  0  0  0  0  0
    2.4163    5.7660    1.7200 H   0  0  0  0  0  0  0  0  0  0  0  0
    4.4341    4.4935    1.0942 H   0  0  0  0  0  0  0  0  0  0  0  0
   -3.7802    2.2772   -2.3759 H   0  0  0  0  0  0  0  0  0  0  0  0
  1  2  1  0
  2  3  1  0
  3  4  1  0
  4  5  1  0
  3  6  1  0
  6  7  1  0
  7  8  1  0
  8  9  1  0
  9 10  2  0
 10 11  1  0
 11 12  2  0
 12 13  1  0
 13 14  2  0
 14 15  1  0
 15 16  1  0
 16 17  1  0
 15 18  2  0
 10 19  1  0
 19 20  1  0
 20 21  1  0
 21 22  2  0
 22 23  1  0
 23 24  2  0
 24 25  1  0
 25 26  2  0
 26 27  1  0
 19 28  1  0
  3 29  1  0
 29 30  2  0
 29 31  1  0
 28  8  2  0
 18 11  1  0
 26 21  1  0
  1 32  1  0
  1 33  1  0
  1 34  1  0
  2 35  1  0
  2 36  1  0
  4 37  1  0
  4 38  1  0
  5 39  1  0
  5 40  1  0
  5 41  1  0
  7 42  1  0
  7 43  1  0
  9 44  1  0
 12 45  1  0
 13 46  1  0
 14 47  1  0
 17 48  1  0
 17 49  1  0
 17 50  1  0
 18 51  1  0
 20 52  1  0
 20 53  1  0
 22 54  1  0
 23 55  1  0
 24 56  1  0
 25 57  1  0
 31 58  1  0
M  END
$$$$
