
     RDKit          3D

 40 43  0  0  0  0  0  0  0  0999 V2000
   -1.6811    3.2116   -0.0204 C   0  0  0  0  0  0  0  0  0  0  0  0
   -1.8149    1.7693    0.0801 N   0  0  0  0  0  0  0  0  0  0  0  0
   -2.9092    1.0288    0.0730 C   0  0  0  0  0  0  0  0  0  0  0  0
   -2.6375   -0.3407    0.1911 C   0  0  0  0  0  0  0  0  0  0  0  0
   -3.6140   -1.4466    0.2181 C   0  0  0  0  0  0  0  0  0  0  0  0
   -5.0136   -0.8166    0.0795 C   0  0  0  0  0  0  0  0  0  0  0  0
   -5.1465   -0.1133   -1.1087 O   0  0  0  0  0  0  0  0  0  0  0  0
   -1.2626   -0.3444    0.2701 C   0  0  0  0  0  0  0  0  0  0  0  0
   -0.7534    0.9549    0.2018 C   0  0  0  0  0  0  0  0  0  0  0  0
    0.6093    1.1963    0.2619 C   0  0  0  0  0  0  0  0  0  0  0  0
    1.5062    0.1802    0.3897 C   0  0  0  0  0  0  0  0  0  0  0  0
    1.0130   -1.1071    0.4581 C   0  0  0  0  0  0  0  0  0  0  0  0
   -0.3447   -1.3356    0.3973 C   0  0  0  0  0  0  0  0  0  0  0  0
   -0.5275   -2.7661    0.4950 C   0  0  0  0  0  0  0  0  0  0  0  0
   -1.5224   -3.5286    0.4956 O   0  0  0  0  0  0  0  0  0  0  0  0
    0.7315   -3.4178    0.6166 N   0  0  0  0  0  0  0  0  0  0  0  0
    1.7409   -2.3870    0.5966 C   0  0  0  0  0  0  0  0  0  0  0  0
    2.9935   -2.5136    0.6781 O   0  0  0  0  0  0  0  0  0  0  0  0
    2.9421    0.4101    0.4548 C   0  0  0  0  0  0  0  0  0  0  0  0
    3.6081    0.6162    1.6649 C   0  0  0  0  0  0  0  0  0  0  0  0
    4.9748    0.8331    1.7029 C   0  0  0  0  0  0  0  0  0  0  0  0
    5.7064    0.8469    0.5105 C   0  0  0  0  0  0  0  0  0  0  0  0
    4.9929    0.6376   -0.6479 C   0  0  0  0  0  0  0  0  0  0  0  0
    3.6474    0.4199   -0.7360 C   0  0  0  0  0  0  0  0  0  0  0  0
    2.8678    0.1661   -2.2996 Cl  0  0  0  0  0  0  0  0  0  0  0  0
   -2.3057    3.5431   -0.9004 H   0  0  0  0  0  0  0  0  0  0  0  0
   -0.6635    3.5213   -0.2673 H   0  0  0  0  0  0  0  0  0  0  0  0
   -2.0969    3.7355    0.8517 H   0  0  0  0  0  0  0  0  0  0  0  0
   -3.8779    1.5036   -0.0171 H   0  0  0  0  0  0  0  0  0  0  0  0
   -3.6760   -2.0144    1.1402 H   0  0  0  0  0  0  0  0  0  0  0  0
   -3.5314   -2.1286   -0.6509 H   0  0  0  0  0  0  0  0  0  0  0  0
   -5.7241   -1.6772    0.0406 H   0  0  0  0  0  0  0  0  0  0  0  0
   -5.2778   -0.2246    0.9598 H   0  0  0  0  0  0  0  0  0  0  0  0
   -5.8774    0.5291   -1.0125 H   0  0  0  0  0  0  0  0  0  0  0  0
    0.9918    2.2081    0.2079 H   0  0  0  0  0  0  0  0  0  0  0  0
    1.0450   -4.4133    0.7099 H   0  0  0  0  0  0  0  0  0  0  0  0
    3.0511    0.6079    2.5985 H   0  0  0  0  0  0  0  0  0  0  0  0
    5.5263    0.9969    2.6224 H   0  0  0  0  0  0  0  0  0  0  0  0
    6.7678    1.0156    0.5438 H   0  0  0  0  0  0  0  0  0  0  0  0
    5.5421    0.6433   -1.5987 H   0  0  0  0  0  0  0  0  0  0  0  0
  1  2  1  0
  2  3  1  0
  3  4  2  0
  4  5  1  0
  5  6  1  0
  6  7  1  0
  4  8  1  0
  8  9  2  0
  9 10  1  0
 10 11  2  0
 11 12  1  0
 12 13  2  0
 13 14  1  0
 14 15  2  0
 14 16  1  0
 16 17  1  0
 17 18  2  0
 11 19  1  0
 19 20  2  0
 20 21  1  0
 21 22  2  0
 22 23  1  0
 23 24  2  0
 24 25  1  0
  9  2  1  0
 17 12  1  0
 24 19  1  0
 13  8  1  0
  1 26  1  0
  1 27  1  0
  1 28  1  0
  3 29  1  0
  5 30  1  0
  5 31  1  0
  6 32  1  0
  6 33  1  0
  7 34  1  0
 10 35  1  0
 16 36  1  0
 20 37  1  0
 21 38  1  0
 22 39  1  0
 23 40  1  0
M  END
$$$$
