
     RDKit          3D

 80 82  0  0  0  0  0  0  0  0999 V2000
   -0.5334   -6.1147    0.0378 C   0  0  0  0  0  0  0  0  0  0  0  0
   -0.9776   -4.8018    0.6230 C   0  0  0  0  0  0  0  0  0  0  0  0
   -0.7230   -3.6264   -0.3082 C   0  0  0  0  0  0  0  0  0  0  0  0
   -1.1907   -2.3340    0.2952 C   0  0  0  0  0  0  0  0  0  0  0  0
   -0.9247   -1.1767   -0.5840 C   0  0  2  0  0  0  0  0  0  0  0  0
    0.3731   -0.7970   -0.9236 N   0  0  0  0  0  0  0  0  0  0  0  0
    1.6475   -1.1628   -0.4543 C   0  0  0  0  0  0  0  0  0  0  0  0
    1.6817   -1.9858    0.4851 O   0  0  0  0  0  0  0  0  0  0  0  0
    2.8784   -0.5749   -1.0719 C   0  0  2  0  0  0  0  0  0  0  0  0
    2.9419   -1.2751   -2.4617 C   0  0  0  0  0  0  0  0  0  0  0  0
    3.2986   -2.6895   -2.0136 C   0  0  0  0  0  0  0  0  0  0  0  0
    4.0790   -2.4825   -0.7289 C   0  0  0  0  0  0  0  0  0  0  0  0
    4.1056   -1.0494   -0.5320 N   0  0  0  0  0  0  0  0  0  0  0  0
    5.1366   -0.2910    0.0164 C   0  0  0  0  0  0  0  0  0  0  0  0
    6.1891   -0.9319    0.3787 O   0  0  0  0  0  0  0  0  0  0  0  0
    5.1591    1.1818    0.2299 C   0  0  2  0  0  0  0  0  0  0  0  0
    4.9434    1.8455   -1.1183 C   0  0  0  0  0  0  0  0  0  0  0  0
    6.4930    1.5125    0.6447 N   0  0  0  0  0  0  0  0  0  0  0  0
    6.8663    2.0424    1.8921 C   0  0  0  0  0  0  0  0  0  0  0  0
    5.9863    2.2683    2.7476 O   0  0  0  0  0  0  0  0  0  0  0  0
    8.3289    2.3268    2.1603 C   0  0  0  0  0  0  0  0  0  0  0  0
    9.0935    2.0009    0.9814 N   0  0  0  0  0  0  0  0  0  0  0  0
    9.1275    2.8414    0.0541 N   0  0  0  0  0  4  0  0  0  0  0  0
    9.1576    3.0750   -1.1792 N   0  0  0  0  0  2  0  0  0  0  0  0
   -1.6592   -0.0187   -0.0581 C   0  0  0  0  0  0  0  0  0  0  0  0
   -1.1089    1.0857    0.2449 O   0  0  0  0  0  0  0  0  0  0  0  0
   -3.0901   -0.0593    0.1475 N   0  0  0  0  0  0  0  0  0  0  0  0
   -3.7740    1.0838    0.6742 C   0  0  1  0  0  0  0  0  0  0  0  0
   -3.8332    2.0524   -0.5457 C   0  0  0  0  0  0  0  0  0  0  0  0
   -4.4216    3.3318   -0.2306 C   0  0  0  0  0  0  0  0  0  0  0  0
   -5.7502    3.5985   -0.3223 C   0  0  0  0  0  0  0  0  0  0  0  0
   -6.1888    4.8819   -0.0126 C   0  0  0  0  0  0  0  0  0  0  0  0
   -5.3387    5.8967    0.3839 C   0  0  0  0  0  0  0  0  0  0  0  0
   -3.9851    5.6075    0.4720 C   0  0  0  0  0  0  0  0  0  0  0  0
   -3.5154    4.3459    0.1710 C   0  0  0  0  0  0  0  0  0  0  0  0
   -5.1344    0.7540    1.0901 C   0  0  0  0  0  0  0  0  0  0  0  0
   -5.7873    1.6202    1.6966 O   0  0  0  0  0  0  0  0  0  0  0  0
   -5.8458   -0.5145    0.8633 C   0  0  1  0  0  0  0  0  0  0  0  0
   -6.2508   -1.4185    2.0256 C   0  0  0  0  0  0  0  0  0  0  0  0
   -6.8310   -0.5611   -0.3084 C   0  0  0  0  0  0  0  0  0  0  0  0
   -5.6663   -1.2740   -0.2897 O   0  0  0  0  0  0  0  0  0  0  0  0
    0.5049   -6.0926   -0.3567 H   0  0  0  0  0  0  0  0  0  0  0  0
   -0.6693   -6.9538    0.7620 H   0  0  0  0  0  0  0  0  0  0  0  0
   -1.2059   -6.3621   -0.8079 H   0  0  0  0  0  0  0  0  0  0  0  0
   -2.0001   -4.8186    1.0017 H   0  0  0  0  0  0  0  0  0  0  0  0
   -0.3089   -4.6237    1.5044 H   0  0  0  0  0  0  0  0  0  0  0  0
   -1.4780   -3.8395   -1.1611 H   0  0  0  0  0  0  0  0  0  0  0  0
    0.2182   -3.6535   -0.8093 H   0  0  0  0  0  0  0  0  0  0  0  0
   -0.8818   -2.1951    1.3509 H   0  0  0  0  0  0  0  0  0  0  0  0
   -2.3159   -2.4343    0.4001 H   0  0  0  0  0  0  0  0  0  0  0  0
   -1.4169   -1.5012   -1.5708 H   0  0  0  0  0  0  0  0  0  0  0  0
    0.4114   -0.0502   -1.7154 H   0  0  0  0  0  0  0  0  0  0  0  0
    2.7461    0.4945   -1.1524 H   0  0  0  0  0  0  0  0  0  0  0  0
    3.7647   -0.8356   -3.0436 H   0  0  0  0  0  0  0  0  0  0  0  0
    1.9402   -1.1891   -2.8690 H   0  0  0  0  0  0  0  0  0  0  0  0
    3.8839   -3.1285   -2.8301 H   0  0  0  0  0  0  0  0  0  0  0  0
    2.4038   -3.3163   -1.8648 H   0  0  0  0  0  0  0  0  0  0  0  0
    5.1159   -2.8749   -0.9516 H   0  0  0  0  0  0  0  0  0  0  0  0
    3.7236   -3.0579    0.1307 H   0  0  0  0  0  0  0  0  0  0  0  0
    4.3820    1.4844    0.9720 H   0  0  0  0  0  0  0  0  0  0  0  0
    5.8426    2.4632   -1.4235 H   0  0  0  0  0  0  0  0  0  0  0  0
    4.0332    2.4710   -1.0993 H   0  0  0  0  0  0  0  0  0  0  0  0
    4.8814    1.0905   -1.9464 H   0  0  0  0  0  0  0  0  0  0  0  0
    7.2753    1.3591   -0.0427 H   0  0  0  0  0  0  0  0  0  0  0  0
    8.6976    1.6236    2.9584 H   0  0  0  0  0  0  0  0  0  0  0  0
    8.4237    3.3541    2.5159 H   0  0  0  0  0  0  0  0  0  0  0  0
   -3.5295   -0.9478   -0.1202 H   0  0  0  0  0  0  0  0  0  0  0  0
   -3.1832    1.6539    1.3859 H   0  0  0  0  0  0  0  0  0  0  0  0
   -4.3938    1.6008   -1.3887 H   0  0  0  0  0  0  0  0  0  0  0  0
   -2.7936    2.1609   -0.8699 H   0  0  0  0  0  0  0  0  0  0  0  0
   -6.4279    2.8269   -0.6352 H   0  0  0  0  0  0  0  0  0  0  0  0
   -7.2378    5.0905   -0.0809 H   0  0  0  0  0  0  0  0  0  0  0  0
   -5.7278    6.8825    0.6128 H   0  0  0  0  0  0  0  0  0  0  0  0
   -3.3365    6.4229    0.7937 H   0  0  0  0  0  0  0  0  0  0  0  0
   -2.4597    4.1642    0.2578 H   0  0  0  0  0  0  0  0  0  0  0  0
   -5.6415   -2.3114    2.1174 H   0  0  0  0  0  0  0  0  0  0  0  0
   -7.3484   -1.6856    1.9144 H   0  0  0  0  0  0  0  0  0  0  0  0
   -6.1880   -0.8062    2.9475 H   0  0  0  0  0  0  0  0  0  0  0  0
   -7.7881   -1.0750   -0.2163 H   0  0  0  0  0  0  0  0  0  0  0  0
   -6.8730    0.3965   -0.8899 H   0  0  0  0  0  0  0  0  0  0  0  0
  1  2  1  0
  2  3  1  0
  3  4  1  0
  4  5  1  0
  5  6  1  0
  6  7  1  0
  7  8  2  0
  7  9  1  0
  9 10  1  0
 10 11  1  0
 11 12  1  0
 12 13  1  0
 13 14  1  0
 14 15  2  0
 14 16  1  0
 16 17  1  0
 16 18  1  0
 18 19  1  0
 19 20  2  0
 19 21  1  0
 21 22  1  0
 22 23  2  0
 23 24  2  0
  5 25  1  0
 25 26  2  0
 25 27  1  0
 27 28  1  0
 28 29  1  0
 29 30  1  0
 30 31  2  0
 31 32  1  0
 32 33  2  0
 33 34  1  0
 34 35  2  0
 28 36  1  0
 36 37  2  0
 36 38  1  0
 38 39  1  1
 38 40  1  0
 40 41  1  0
 13  9  1  0
 35 30  1  0
 41 38  1  0
  1 42  1  0
  1 43  1  0
  1 44  1  0
  2 45  1  0
  2 46  1  0
  3 47  1  0
  3 48  1  0
  4 49  1  0
  4 50  1  0
  5 51  1  6
  6 52  1  0
  9 53  1  6
 10 54  1  0
 10 55  1  0
 11 56  1  0
 11 57  1  0
 12 58  1  0
 12 59  1  0
 16 60  1  1
 17 61  1  0
 17 62  1  0
 17 63  1  0
 18 64  1  0
 21 65  1  0
 21 66  1  0
 27 67  1  0
 28 68  1  1
 29 69  1  0
 29 70  1  0
 31 71  1  0
 32 72  1  0
 33 73  1  0
 34 74  1  0
 35 75  1  0
 39 76  1  0
 39 77  1  0
 39 78  1  0
 40 79  1  0
 40 80  1  0
M  CHG  2  23   1  24  -1
M  END
$$$$
