
     RDKit          3D

 44 43  0  0  0  0  0  0  0  0999 V2000
   -6.4996   -1.2146   -0.3986 C   0  0  0  0  0  0  0  0  0  0  0  0
   -5.2654   -0.3079   -0.3453 C   0  0  0  0  0  0  0  0  0  0  0  0
   -4.2860   -0.7686    0.6763 C   0  0  0  0  0  0  0  0  0  0  0  0
   -3.0416    0.1126    0.7754 C   0  0  0  0  0  0  0  0  0  0  0  0
   -2.3492    0.1075   -0.5501 C   0  0  0  0  0  0  0  0  0  0  0  0
   -1.1170    0.9736   -0.5339 C   0  0  0  0  0  0  0  0  0  0  0  0
   -0.1483    0.4701    0.4875 C   0  0  0  0  0  0  0  0  0  0  0  0
    1.0933    1.3371    0.5037 C   0  0  0  0  0  0  0  0  0  0  0  0
    1.7535    1.3218   -0.8379 C   0  0  0  0  0  0  0  0  0  0  0  0
    2.1418   -0.0765   -1.2213 C   0  0  0  0  0  0  0  0  0  0  0  0
    3.1223   -0.6564   -0.2673 C   0  0  0  0  0  0  0  0  0  0  0  0
    4.3827   -0.0084   -0.1571 N   0  0  0  0  0  4  0  0  0  0  0  0
    5.3000   -0.9207    0.5286 C   0  0  0  0  0  0  0  0  0  0  0  0
    4.9984    0.2913   -1.4327 C   0  0  0  0  0  0  0  0  0  0  0  0
    4.3731    1.1312    0.5506 O   0  0  0  0  0  1  0  0  0  0  0  0
   -6.1871   -2.2672   -0.3823 H   0  0  0  0  0  0  0  0  0  0  0  0
   -6.9953   -1.0234   -1.3657 H   0  0  0  0  0  0  0  0  0  0  0  0
   -7.1892   -0.9299    0.4240 H   0  0  0  0  0  0  0  0  0  0  0  0
   -4.8391   -0.3462   -1.3884 H   0  0  0  0  0  0  0  0  0  0  0  0
   -5.5814    0.7278   -0.1066 H   0  0  0  0  0  0  0  0  0  0  0  0
   -4.0044   -1.8261    0.5092 H   0  0  0  0  0  0  0  0  0  0  0  0
   -4.7938   -0.7443    1.6641 H   0  0  0  0  0  0  0  0  0  0  0  0
   -2.3607   -0.4027    1.5143 H   0  0  0  0  0  0  0  0  0  0  0  0
   -3.2794    1.1144    1.1351 H   0  0  0  0  0  0  0  0  0  0  0  0
   -3.0116    0.4564   -1.3803 H   0  0  0  0  0  0  0  0  0  0  0  0
   -2.0927   -0.9585   -0.7722 H   0  0  0  0  0  0  0  0  0  0  0  0
   -0.6205    0.9448   -1.5403 H   0  0  0  0  0  0  0  0  0  0  0  0
   -1.3861    2.0377   -0.2940 H   0  0  0  0  0  0  0  0  0  0  0  0
   -0.6176    0.4697    1.5094 H   0  0  0  0  0  0  0  0  0  0  0  0
    0.0695   -0.5923    0.2889 H   0  0  0  0  0  0  0  0  0  0  0  0
    0.8191    2.4020    0.7248 H   0  0  0  0  0  0  0  0  0  0  0  0
    1.8029    0.9657    1.2635 H   0  0  0  0  0  0  0  0  0  0  0  0
    2.6920    1.9569   -0.8133 H   0  0  0  0  0  0  0  0  0  0  0  0
    1.1443    1.7924   -1.6418 H   0  0  0  0  0  0  0  0  0  0  0  0
    1.2380   -0.7253   -1.3043 H   0  0  0  0  0  0  0  0  0  0  0  0
    2.5439   -0.0789   -2.2804 H   0  0  0  0  0  0  0  0  0  0  0  0
    3.2886   -1.7379   -0.5829 H   0  0  0  0  0  0  0  0  0  0  0  0
    2.6829   -0.7625    0.7469 H   0  0  0  0  0  0  0  0  0  0  0  0
    4.9236   -0.9500    1.5883 H   0  0  0  0  0  0  0  0  0  0  0  0
    5.2321   -1.9317    0.1164 H   0  0  0  0  0  0  0  0  0  0  0  0
    6.3066   -0.4982    0.4365 H   0  0  0  0  0  0  0  0  0  0  0  0
    4.8921   -0.5230   -2.1799 H   0  0  0  0  0  0  0  0  0  0  0  0
    6.1104    0.3429   -1.2371 H   0  0  0  0  0  0  0  0  0  0  0  0
    4.7547    1.2955   -1.8215 H   0  0  0  0  0  0  0  0  0  0  0  0
  1  2  1  0
  2  3  1  0
  3  4  1  0
  4  5  1  0
  5  6  1  0
  6  7  1  0
  7  8  1  0
  8  9  1  0
  9 10  1  0
 10 11  1  0
 11 12  1  0
 12 13  1  0
 12 14  1  0
 12 15  1  0
  1 16  1  0
  1 17  1  0
  1 18  1  0
  2 19  1  0
  2 20  1  0
  3 21  1  0
  3 22  1  0
  4 23  1  0
  4 24  1  0
  5 25  1  0
  5 26  1  0
  6 27  1  0
  6 28  1  0
  7 29  1  0
  7 30  1  0
  8 31  1  0
  8 32  1  0
  9 33  1  0
  9 34  1  0
 10 35  1  0
 10 36  1  0
 11 37  1  0
 11 38  1  0
 13 39  1  0
 13 40  1  0
 13 41  1  0
 14 42  1  0
 14 43  1  0
 14 44  1  0
M  CHG  2  12   1  15  -1
M  END
$$$$
