
     RDKit          3D

 46 49  0  0  0  0  0  0  0  0999 V2000
    0.5178    3.2844   -0.7513 C   0  0  0  0  0  0  0  0  0  0  0  0
   -0.1626    2.0333   -0.3265 C   0  0  0  0  0  0  0  0  0  0  0  0
   -1.4592    2.0921    0.0880 C   0  0  0  0  0  0  0  0  0  0  0  0
   -2.0620    0.9784    0.4656 N   0  0  0  0  0  0  0  0  0  0  0  0
   -1.4638   -0.2245    0.4651 C   0  0  0  0  0  0  0  0  0  0  0  0
   -2.2098   -1.3327    0.9873 C   0  0  0  0  0  0  0  0  0  0  0  0
   -1.6109   -2.3864    1.3012 O   0  0  0  0  0  0  0  0  0  0  0  0
   -3.6397   -1.2884    1.1782 C   0  0  0  0  0  0  0  0  0  0  0  0
   -4.1849   -1.8560    2.3011 N   0  0  0  0  0  0  0  0  0  0  0  0
   -5.4710   -1.9023    2.5587 C   0  0  0  0  0  0  0  0  0  0  0  0
   -6.3369   -1.3755    1.6987 N   0  0  0  0  0  0  0  0  0  0  0  0
   -5.8953   -0.7989    0.5681 C   0  0  0  0  0  0  0  0  0  0  0  0
   -6.5287   -0.2238   -0.4786 N   0  0  0  0  0  0  0  0  0  0  0  0
   -5.6463    0.1801   -1.3942 C   0  0  0  0  0  0  0  0  0  0  0  0
   -4.3587   -0.1388   -0.9400 C   0  0  0  0  0  0  0  0  0  0  0  0
   -4.5442   -0.7433    0.2831 C   0  0  0  0  0  0  0  0  0  0  0  0
   -0.1448   -0.3187    0.0486 C   0  0  0  0  0  0  0  0  0  0  0  0
    0.4566   -1.5961    0.0285 N   0  0  0  0  0  0  0  0  0  0  0  0
    1.9773   -2.0225    0.6418 S   0  0  0  0  0  6  0  0  0  0  0  0
    2.2427   -3.5134    0.5142 O   0  0  0  0  0  0  0  0  0  0  0  0
    2.0035   -1.6335    2.1170 O   0  0  0  0  0  0  0  0  0  0  0  0
    3.3334   -1.2188   -0.0844 C   0  0  0  0  0  0  0  0  0  0  0  0
    3.8826   -1.6827   -1.2827 C   0  0  0  0  0  0  0  0  0  0  0  0
    4.9688   -1.0773   -1.8709 C   0  0  0  0  0  0  0  0  0  0  0  0
    5.5430    0.0229   -1.2689 C   0  0  0  0  0  0  0  0  0  0  0  0
    6.9326    0.8123   -2.0040 Cl  0  0  0  0  0  0  0  0  0  0  0  0
    5.0317    0.5171   -0.0805 C   0  0  0  0  0  0  0  0  0  0  0  0
    5.6795    1.7088    0.5406 C   0  0  0  0  0  0  0  0  0  0  0  0
    6.9997    1.4064    0.8176 F   0  0  0  0  0  0  0  0  0  0  0  0
    5.6444    2.8023   -0.3020 F   0  0  0  0  0  0  0  0  0  0  0  0
    5.0383    1.9434    1.7274 F   0  0  0  0  0  0  0  0  0  0  0  0
    3.9523   -0.1170    0.4660 C   0  0  0  0  0  0  0  0  0  0  0  0
    0.4963    0.8321   -0.3476 C   0  0  0  0  0  0  0  0  0  0  0  0
    0.7246    3.9158    0.1371 H   0  0  0  0  0  0  0  0  0  0  0  0
   -0.2131    3.8433   -1.3871 H   0  0  0  0  0  0  0  0  0  0  0  0
    1.4252    3.0960   -1.3450 H   0  0  0  0  0  0  0  0  0  0  0  0
   -1.9603    3.0653    0.0942 H   0  0  0  0  0  0  0  0  0  0  0  0
   -5.8987   -2.3540    3.4526 H   0  0  0  0  0  0  0  0  0  0  0  0
   -7.5674   -0.1303   -0.5214 H   0  0  0  0  0  0  0  0  0  0  0  0
   -5.8074    0.6725   -2.3430 H   0  0  0  0  0  0  0  0  0  0  0  0
   -3.4454    0.0335   -1.4629 H   0  0  0  0  0  0  0  0  0  0  0  0
   -0.1369   -2.3562   -0.4431 H   0  0  0  0  0  0  0  0  0  0  0  0
    3.4167   -2.5555   -1.7479 H   0  0  0  0  0  0  0  0  0  0  0  0
    5.3975   -1.4417   -2.8088 H   0  0  0  0  0  0  0  0  0  0  0  0
    3.5602    0.2755    1.3931 H   0  0  0  0  0  0  0  0  0  0  0  0
    1.5232    0.7728   -0.6828 H   0  0  0  0  0  0  0  0  0  0  0  0
  1  2  1  0
  2  3  2  0
  3  4  1  0
  4  5  2  0
  5  6  1  0
  6  7  2  0
  6  8  1  0
  8  9  2  0
  9 10  1  0
 10 11  2  0
 11 12  1  0
 12 13  1  0
 13 14  1  0
 14 15  2  0
 15 16  1  0
  5 17  1  0
 17 18  1  0
 18 19  1  0
 19 20  2  0
 19 21  2  0
 19 22  1  0
 22 23  2  0
 23 24  1  0
 24 25  2  0
 25 26  1  0
 25 27  1  0
 27 28  1  0
 28 29  1  0
 28 30  1  0
 28 31  1  0
 27 32  2  0
 17 33  2  0
 33  2  1  0
 16  8  1  0
 32 22  1  0
 16 12  2  0
  1 34  1  0
  1 35  1  0
  1 36  1  0
  3 37  1  0
 10 38  1  0
 13 39  1  0
 14 40  1  0
 15 41  1  0
 18 42  1  0
 23 43  1  0
 24 44  1  0
 32 45  1  0
 33 46  1  0
M  END
$$$$
