
     RDKit          3D

 57 62  0  0  0  0  0  0  0  0999 V2000
    5.0378   -0.5610    3.3689 C   0  0  0  0  0  0  0  0  0  0  0  0
    4.3707   -0.4569    2.1228 O   0  0  0  0  0  0  0  0  0  0  0  0
    4.3945   -1.5864    1.2872 C   0  0  0  0  0  0  0  0  0  0  0  0
    5.0066   -2.7148    1.6235 N   0  0  0  0  0  0  0  0  0  0  0  0
    5.0471   -3.8109    0.8474 C   0  0  0  0  0  0  0  0  0  0  0  0
    4.4205   -3.8023   -0.3928 C   0  0  0  0  0  0  0  0  0  0  0  0
    3.7774   -2.6367   -0.7616 C   0  0  0  0  0  0  0  0  0  0  0  0
    3.7595   -1.5333    0.0651 C   0  0  0  0  0  0  0  0  0  0  0  0
    3.0933   -0.3372   -0.3257 N   0  0  0  0  0  0  0  0  0  0  0  0
    3.6082    0.8516   -0.5811 N   0  0  0  0  0  0  0  0  0  0  0  0
    2.6408    1.7203   -0.9196 C   0  0  0  0  0  0  0  0  0  0  0  0
    2.7644    3.1578   -1.2849 C   0  0  0  0  0  0  0  0  0  0  0  0
    1.4419    0.9765   -0.8589 C   0  0  0  0  0  0  0  0  0  0  0  0
    1.7455   -0.2973   -0.4886 C   0  0  0  0  0  0  0  0  0  0  0  0
    0.5117   -1.0582   -0.4276 C   0  0  0  0  0  0  0  0  0  0  0  0
    0.4379   -2.2953   -0.1096 O   0  0  0  0  0  0  0  0  0  0  0  0
   -0.5576   -0.1921   -0.7771 N   0  0  0  0  0  0  0  0  0  0  0  0
   -1.8974   -0.6750   -0.8030 C   0  0  0  0  0  0  0  0  0  0  0  0
   -2.4008   -1.2032   -1.9566 C   0  0  0  0  0  0  0  0  0  0  0  0
   -3.7104   -1.6758   -1.9836 C   0  0  0  0  0  0  0  0  0  0  0  0
   -4.3618   -2.2642   -3.1626 C   0  0  0  0  0  0  0  0  0  0  0  0
   -4.4318   -1.5768   -0.8134 C   0  0  0  0  0  0  0  0  0  0  0  0
   -5.6926   -1.9334   -0.5150 N   0  0  0  0  0  0  0  0  0  0  0  0
   -5.9330   -1.6374    0.7425 N   0  0  0  0  0  0  0  0  0  0  0  0
   -4.8351   -1.0831    1.2870 C   0  0  0  0  0  0  0  0  0  0  0  0
   -4.7349   -0.6245    2.6822 C   0  0  0  0  0  0  0  0  0  0  0  0
   -3.9216   -1.0585    0.2997 N   0  0  0  0  0  0  0  0  0  0  0  0
   -2.6728   -0.6234    0.2743 N   0  0  0  0  0  0  0  0  0  0  0  0
   -0.0123    1.0709   -1.0466 C   0  0  0  0  0  0  0  0  0  0  0  0
   -0.6193    2.2197   -0.3746 C   0  0  0  0  0  0  0  0  0  0  0  0
   -0.8530    3.3535   -1.1239 C   0  0  0  0  0  0  0  0  0  0  0  0
   -1.4241    4.5024   -0.5912 C   0  0  0  0  0  0  0  0  0  0  0  0
   -1.7807    4.5365    0.7381 C   0  0  0  0  0  0  0  0  0  0  0  0
   -2.5023    5.9803    1.4230 Cl  0  0  0  0  0  0  0  0  0  0  0  0
   -1.5451    3.4011    1.4824 C   0  0  0  0  0  0  0  0  0  0  0  0
   -0.9781    2.2658    0.9455 C   0  0  0  0  0  0  0  0  0  0  0  0
    4.8578   -1.5715    3.8001 H   0  0  0  0  0  0  0  0  0  0  0  0
    6.1195   -0.3450    3.2834 H   0  0  0  0  0  0  0  0  0  0  0  0
    4.6291    0.2164    4.0705 H   0  0  0  0  0  0  0  0  0  0  0  0
    5.5735   -4.7147    1.1886 H   0  0  0  0  0  0  0  0  0  0  0  0
    4.4676   -4.6909   -0.9936 H   0  0  0  0  0  0  0  0  0  0  0  0
    3.2903   -2.6305   -1.7261 H   0  0  0  0  0  0  0  0  0  0  0  0
    3.7501    3.5057   -0.8592 H   0  0  0  0  0  0  0  0  0  0  0  0
    2.8192    3.3141   -2.3770 H   0  0  0  0  0  0  0  0  0  0  0  0
    1.9999    3.7880   -0.7860 H   0  0  0  0  0  0  0  0  0  0  0  0
   -1.8446   -1.2873   -2.8843 H   0  0  0  0  0  0  0  0  0  0  0  0
   -3.9287   -1.9307   -4.1216 H   0  0  0  0  0  0  0  0  0  0  0  0
   -5.4396   -1.9388   -3.1309 H   0  0  0  0  0  0  0  0  0  0  0  0
   -4.3819   -3.3609   -3.0480 H   0  0  0  0  0  0  0  0  0  0  0  0
   -3.9911    0.2004    2.7864 H   0  0  0  0  0  0  0  0  0  0  0  0
   -4.3877   -1.4801    3.3020 H   0  0  0  0  0  0  0  0  0  0  0  0
   -5.7379   -0.3296    3.0366 H   0  0  0  0  0  0  0  0  0  0  0  0
   -0.1450    1.2349   -2.1672 H   0  0  0  0  0  0  0  0  0  0  0  0
   -0.5912    3.3924   -2.1930 H   0  0  0  0  0  0  0  0  0  0  0  0
   -1.6092    5.3909   -1.1707 H   0  0  0  0  0  0  0  0  0  0  0  0
   -1.8274    3.4215    2.5443 H   0  0  0  0  0  0  0  0  0  0  0  0
   -0.8154    1.4170    1.5541 H   0  0  0  0  0  0  0  0  0  0  0  0
  1  2  1  0
  2  3  1  0
  3  4  2  0
  4  5  1  0
  5  6  2  0
  6  7  1  0
  7  8  2  0
  8  9  1  0
  9 10  1  0
 10 11  2  0
 11 12  1  0
 11 13  1  0
 13 14  2  0
 14 15  1  0
 15 16  2  0
 15 17  1  0
 17 18  1  0
 18 19  1  0
 19 20  2  0
 20 21  1  0
 20 22  1  0
 22 23  2  0
 23 24  1  0
 24 25  2  0
 25 26  1  0
 25 27  1  0
 27 28  1  0
 17 29  1  0
 29 30  1  0
 30 31  2  0
 31 32  1  0
 32 33  2  0
 33 34  1  0
 33 35  1  0
 35 36  2  0
  8  3  1  0
 14  9  1  0
 28 18  2  0
 36 30  1  0
 29 13  1  0
 27 22  1  0
  1 37  1  0
  1 38  1  0
  1 39  1  0
  5 40  1  0
  6 41  1  0
  7 42  1  0
 12 43  1  0
 12 44  1  0
 12 45  1  0
 19 46  1  0
 21 47  1  0
 21 48  1  0
 21 49  1  0
 26 50  1  0
 26 51  1  0
 26 52  1  0
 29 53  1  0
 31 54  1  0
 32 55  1  0
 35 56  1  0
 36 57  1  0
M  END
$$$$
