
     RDKit          3D

 68 72  0  0  0  0  0  0  0  0999 V2000
    7.9646   -0.5412    0.8264 C   0  0  0  0  0  0  0  0  0  0  0  0
    7.1635    0.3212   -0.1505 C   0  0  0  0  0  0  0  0  0  0  0  0
    7.2566   -0.3439   -1.4950 C   0  0  0  0  0  0  0  0  0  0  0  0
    7.8065    1.6775   -0.2276 C   0  0  0  0  0  0  0  0  0  0  0  0
    5.8405    0.3424    0.2929 O   0  0  0  0  0  0  0  0  0  0  0  0
    4.8014    1.0163   -0.3225 C   0  0  0  0  0  0  0  0  0  0  0  0
    5.0880    1.6591   -1.3674 O   0  0  0  0  0  0  0  0  0  0  0  0
    3.4721    0.9985    0.1802 N   0  0  0  0  0  0  0  0  0  0  0  0
    3.1224    0.2681    1.3765 C   0  0  0  0  0  0  0  0  0  0  0  0
    2.1261   -0.8315    1.0318 C   0  0  0  0  0  0  0  0  0  0  0  0
    1.3730   -0.5000   -0.2274 C   0  0  0  0  0  0  0  0  0  0  0  0
    0.1197   -1.2294   -0.1897 N   0  0  0  0  0  0  0  0  0  0  0  0
    0.0669   -2.5505   -0.2060 N   0  0  0  0  0  0  0  0  0  0  0  0
   -1.2150   -2.9565   -0.1627 C   0  0  0  0  0  0  0  0  0  0  0  0
   -2.0017   -1.8477   -0.1176 C   0  0  0  0  0  0  0  0  0  0  0  0
   -3.3761   -1.6485   -0.0582 C   0  0  0  0  0  0  0  0  0  0  0  0
   -4.2929   -2.7280   -0.0545 N   0  0  0  0  0  0  0  0  0  0  0  0
   -4.4162   -3.5530   -1.2245 C   0  0  0  0  0  0  0  0  0  0  0  0
   -5.5660   -4.5196   -0.9623 C   0  0  0  0  0  0  0  0  0  0  0  0
   -6.6956   -3.8301   -0.5446 O   0  0  0  0  0  0  0  0  0  0  0  0
   -6.5558   -3.2791    0.7171 C   0  0  0  0  0  0  0  0  0  0  0  0
   -5.1184   -3.0338    1.0950 C   0  0  0  0  0  0  0  0  0  0  0  0
   -3.8050   -0.3618   -0.0187 N   0  0  0  0  0  0  0  0  0  0  0  0
   -2.9780    0.6932   -0.0350 C   0  0  0  0  0  0  0  0  0  0  0  0
   -3.4674    2.0654    0.0083 C   0  0  0  0  0  0  0  0  0  0  0  0
   -2.6087    3.1243   -0.0092 C   0  0  0  0  0  0  0  0  0  0  0  0
   -3.1361    4.4031    0.0341 C   0  0  0  0  0  0  0  0  0  0  0  0
   -4.5044    4.5847    0.0935 C   0  0  0  0  0  0  0  0  0  0  0  0
   -5.0216    5.8880    0.1368 N   0  0  0  0  0  0  0  0  0  0  0  0
   -5.3654    3.5173    0.1110 C   0  0  0  0  0  0  0  0  0  0  0  0
   -4.8308    2.2572    0.0677 C   0  0  0  0  0  0  0  0  0  0  0  0
   -1.6384    0.4622   -0.0941 N   0  0  0  0  0  0  0  0  0  0  0  0
   -1.1320   -0.7687   -0.1355 C   0  0  0  0  0  0  0  0  0  0  0  0
    1.1077    0.9856   -0.3460 C   0  0  0  0  0  0  0  0  0  0  0  0
    2.4205    1.7215   -0.5030 C   0  0  0  0  0  0  0  0  0  0  0  0
    7.2755   -1.2854    1.2561 H   0  0  0  0  0  0  0  0  0  0  0  0
    8.3960    0.0725    1.6383 H   0  0  0  0  0  0  0  0  0  0  0  0
    8.7791   -1.0806    0.2951 H   0  0  0  0  0  0  0  0  0  0  0  0
    8.3259   -0.5164   -1.7498 H   0  0  0  0  0  0  0  0  0  0  0  0
    6.7528    0.2080   -2.3007 H   0  0  0  0  0  0  0  0  0  0  0  0
    6.7953   -1.3576   -1.4167 H   0  0  0  0  0  0  0  0  0  0  0  0
    8.9026    1.5361    0.0037 H   0  0  0  0  0  0  0  0  0  0  0  0
    7.7738    2.0885   -1.2536 H   0  0  0  0  0  0  0  0  0  0  0  0
    7.4252    2.3837    0.5167 H   0  0  0  0  0  0  0  0  0  0  0  0
    2.6629    0.9307    2.1333 H   0  0  0  0  0  0  0  0  0  0  0  0
    4.0389   -0.2326    1.7568 H   0  0  0  0  0  0  0  0  0  0  0  0
    2.6613   -1.8093    0.9202 H   0  0  0  0  0  0  0  0  0  0  0  0
    1.4546   -0.9589    1.9056 H   0  0  0  0  0  0  0  0  0  0  0  0
    1.9478   -0.8169   -1.1250 H   0  0  0  0  0  0  0  0  0  0  0  0
   -1.5860   -3.9773   -0.1579 H   0  0  0  0  0  0  0  0  0  0  0  0
   -4.7115   -2.9042   -2.0779 H   0  0  0  0  0  0  0  0  0  0  0  0
   -3.5299   -4.1318   -1.4716 H   0  0  0  0  0  0  0  0  0  0  0  0
   -5.8050   -4.9845   -1.9407 H   0  0  0  0  0  0  0  0  0  0  0  0
   -5.2637   -5.3270   -0.2874 H   0  0  0  0  0  0  0  0  0  0  0  0
   -6.9609   -4.0178    1.4398 H   0  0  0  0  0  0  0  0  0  0  0  0
   -7.1729   -2.3761    0.7788 H   0  0  0  0  0  0  0  0  0  0  0  0
   -5.0961   -2.1418    1.7557 H   0  0  0  0  0  0  0  0  0  0  0  0
   -4.6908   -3.8670    1.6759 H   0  0  0  0  0  0  0  0  0  0  0  0
   -1.5230    2.9694   -0.0565 H   0  0  0  0  0  0  0  0  0  0  0  0
   -2.4396    5.2332    0.0194 H   0  0  0  0  0  0  0  0  0  0  0  0
   -4.5604    6.6812   -0.3529 H   0  0  0  0  0  0  0  0  0  0  0  0
   -5.8979    6.0597    0.6799 H   0  0  0  0  0  0  0  0  0  0  0  0
   -6.4526    3.6439    0.1579 H   0  0  0  0  0  0  0  0  0  0  0  0
   -5.5320    1.4232    0.0825 H   0  0  0  0  0  0  0  0  0  0  0  0
    0.6203    1.3179    0.5789 H   0  0  0  0  0  0  0  0  0  0  0  0
    0.4854    1.1856   -1.2185 H   0  0  0  0  0  0  0  0  0  0  0  0
    2.6454    1.8465   -1.5939 H   0  0  0  0  0  0  0  0  0  0  0  0
    2.2754    2.7426   -0.0892 H   0  0  0  0  0  0  0  0  0  0  0  0
  1  2  1  0
  2  3  1  0
  2  4  1  0
  2  5  1  0
  5  6  1  0
  6  7  2  0
  6  8  1  0
  8  9  1  0
  9 10  1  0
 10 11  1  0
 11 12  1  0
 12 13  1  0
 13 14  2  0
 14 15  1  0
 15 16  2  0
 16 17  1  0
 17 18  1  0
 18 19  1  0
 19 20  1  0
 20 21  1  0
 21 22  1  0
 16 23  1  0
 23 24  2  0
 24 25  1  0
 25 26  2  0
 26 27  1  0
 27 28  2  0
 28 29  1  0
 28 30  1  0
 30 31  2  0
 24 32  1  0
 32 33  2  0
 11 34  1  0
 34 35  1  0
 35  8  1  0
 33 12  1  0
 33 15  1  0
 22 17  1  0
 31 25  1  0
  1 36  1  0
  1 37  1  0
  1 38  1  0
  3 39  1  0
  3 40  1  0
  3 41  1  0
  4 42  1  0
  4 43  1  0
  4 44  1  0
  9 45  1  0
  9 46  1  0
 10 47  1  0
 10 48  1  0
 11 49  1  0
 14 50  1  0
 18 51  1  0
 18 52  1  0
 19 53  1  0
 19 54  1  0
 21 55  1  0
 21 56  1  0
 22 57  1  0
 22 58  1  0
 26 59  1  0
 27 60  1  0
 29 61  1  0
 29 62  1  0
 30 63  1  0
 31 64  1  0
 34 65  1  0
 34 66  1  0
 35 67  1  0
 35 68  1  0
M  END
$$$$
