
     RDKit          3D

 65 69  0  0  0  0  0  0  0  0999 V2000
    3.5234   -0.6217   -1.1367 C   0  0  2  0  0  0  0  0  0  0  0  0
    4.8875   -0.6995   -1.8002 C   0  0  0  0  0  0  0  0  0  0  0  0
    6.0111   -0.5334   -0.8739 C   0  0  0  0  0  0  0  0  0  0  0  0
    6.7342   -1.6168   -0.3584 C   0  0  0  0  0  0  0  0  0  0  0  0
    7.6938   -1.1713    0.4832 N   0  0  0  0  0  0  0  0  0  0  0  0
    7.6584    0.1576    0.5642 C   0  0  0  0  0  0  0  0  0  0  0  0
    8.3536    1.1595    1.2247 C   0  0  0  0  0  0  0  0  0  0  0  0
    8.0634    2.5111    1.0871 C   0  0  0  0  0  0  0  0  0  0  0  0
    7.0156    2.8658    0.2370 C   0  0  0  0  0  0  0  0  0  0  0  0
    6.3308    1.8764   -0.4135 C   0  0  0  0  0  0  0  0  0  0  0  0
    6.6207    0.5446   -0.2736 C   0  0  0  0  0  0  0  0  0  0  0  0
    3.3757    0.6471   -0.5159 N   0  0  0  0  0  0  0  0  0  0  0  0
    2.0244    1.5619   -1.0298 S   0  0  0  0  0  0  0  0  0  0  0  0
    1.9821    2.8711   -0.3082 O   0  0  0  0  0  0  0  0  0  0  0  0
    2.0798    1.8500   -2.5081 O   0  0  0  0  0  0  0  0  0  0  0  0
    0.5742    0.6938   -0.6533 C   0  0  0  0  0  0  0  0  0  0  0  0
   -0.0025    0.8675    0.5876 C   0  0  0  0  0  0  0  0  0  0  0  0
   -1.1742    0.2263    0.9990 C   0  0  0  0  0  0  0  0  0  0  0  0
   -1.8144   -0.6351    0.1392 C   0  0  0  0  0  0  0  0  0  0  0  0
   -1.2585   -0.8256   -1.1052 C   0  0  0  0  0  0  0  0  0  0  0  0
   -0.0999   -0.1781   -1.4829 C   0  0  0  0  0  0  0  0  0  0  0  0
   -3.0076   -1.2994    0.5259 N   0  0  0  0  0  0  0  0  0  0  0  0
   -3.6360   -1.2556    1.8049 C   0  0  0  0  0  0  0  0  0  0  0  0
   -5.0374   -0.6939    1.7598 C   0  0  0  0  0  0  0  0  0  0  0  0
   -5.8322   -1.0999    0.5655 C   0  0  0  0  0  0  0  0  0  0  0  0
   -5.0469   -1.3163   -0.6854 C   0  0  0  0  0  0  0  0  0  0  0  0
   -3.8147   -2.1429   -0.3292 C   0  0  0  0  0  0  0  0  0  0  0  0
   -6.7988    0.0025    0.2865 C   0  0  0  0  0  0  0  0  0  0  0  0
   -6.1313    1.1831   -0.0332 C   0  0  0  0  0  0  0  0  0  0  0  0
   -6.8522    2.3301   -0.3265 C   0  0  0  0  0  0  0  0  0  0  0  0
   -8.2381    2.2984   -0.3006 C   0  0  0  0  0  0  0  0  0  0  0  0
   -8.8957    1.1119    0.0207 C   0  0  0  0  0  0  0  0  0  0  0  0
   -8.1572   -0.0129    0.3078 C   0  0  0  0  0  0  0  0  0  0  0  0
    3.4389   -1.6602   -0.0517 C   0  0  0  0  0  0  0  0  0  0  0  0
    3.3518   -2.5527    0.9922 O   0  0  0  0  0  0  0  0  0  0  0  0
    3.5728   -2.7907   -0.6155 O   0  0  0  0  0  0  0  0  0  0  0  0
    2.7179   -0.8306   -1.8803 H   0  0  0  0  0  0  0  0  0  0  0  0
    4.9684   -1.6807   -2.3378 H   0  0  0  0  0  0  0  0  0  0  0  0
    4.9740    0.0786   -2.5934 H   0  0  0  0  0  0  0  0  0  0  0  0
    6.5808   -2.6768   -0.5759 H   0  0  0  0  0  0  0  0  0  0  0  0
    8.3794   -1.7531    1.0092 H   0  0  0  0  0  0  0  0  0  0  0  0
    9.1736    0.8632    1.8886 H   0  0  0  0  0  0  0  0  0  0  0  0
    8.6320    3.2725    1.6236 H   0  0  0  0  0  0  0  0  0  0  0  0
    6.7794    3.9210    0.1218 H   0  0  0  0  0  0  0  0  0  0  0  0
    5.5545    2.2188   -1.0490 H   0  0  0  0  0  0  0  0  0  0  0  0
    3.5696    0.7119    0.4881 H   0  0  0  0  0  0  0  0  0  0  0  0
    0.4894    1.5506    1.2940 H   0  0  0  0  0  0  0  0  0  0  0  0
   -1.5137    0.4522    1.9889 H   0  0  0  0  0  0  0  0  0  0  0  0
   -1.6662   -1.4709   -1.8576 H   0  0  0  0  0  0  0  0  0  0  0  0
    0.3478   -0.3272   -2.4749 H   0  0  0  0  0  0  0  0  0  0  0  0
   -3.0830   -0.6579    2.5522 H   0  0  0  0  0  0  0  0  0  0  0  0
   -3.7415   -2.3075    2.1938 H   0  0  0  0  0  0  0  0  0  0  0  0
   -4.9537    0.4062    1.8050 H   0  0  0  0  0  0  0  0  0  0  0  0
   -5.5637   -1.0467    2.6716 H   0  0  0  0  0  0  0  0  0  0  0  0
   -6.4133   -2.0437    0.7782 H   0  0  0  0  0  0  0  0  0  0  0  0
   -5.6597   -1.9200   -1.3887 H   0  0  0  0  0  0  0  0  0  0  0  0
   -4.6697   -0.3830   -1.1372 H   0  0  0  0  0  0  0  0  0  0  0  0
   -3.3483   -2.4014   -1.2883 H   0  0  0  0  0  0  0  0  0  0  0  0
   -4.0755   -3.1066    0.1593 H   0  0  0  0  0  0  0  0  0  0  0  0
   -5.0675    1.3860   -0.1004 H   0  0  0  0  0  0  0  0  0  0  0  0
   -6.4510    3.2966   -0.5867 H   0  0  0  0  0  0  0  0  0  0  0  0
   -8.8731    3.1666   -0.5214 H   0  0  0  0  0  0  0  0  0  0  0  0
   -9.9650    1.0464    0.0521 H   0  0  0  0  0  0  0  0  0  0  0  0
   -8.5650   -0.9835    0.5694 H   0  0  0  0  0  0  0  0  0  0  0  0
    3.9488   -2.4338    1.8121 H   0  0  0  0  0  0  0  0  0  0  0  0
  1  2  1  0
  2  3  1  0
  3  4  2  0
  4  5  1  0
  5  6  1  0
  6  7  2  0
  7  8  1  0
  8  9  2  0
  9 10  1  0
 10 11  2  0
  1 12  1  0
 12 13  1  0
 13 14  2  0
 13 15  2  0
 13 16  1  0
 16 17  2  0
 17 18  1  0
 18 19  2  0
 19 20  1  0
 20 21  2  0
 19 22  1  0
 22 23  1  0
 23 24  1  0
 24 25  1  0
 25 26  1  0
 26 27  1  0
 25 28  1  0
 28 29  2  0
 29 30  1  0
 30 31  2  0
 31 32  1  0
 32 33  2  0
  1 34  1  0
 34 35  1  0
 34 36  2  0
 11  3  1  0
 21 16  1  0
 27 22  1  0
 33 28  1  0
 11  6  1  0
  1 37  1  6
  2 38  1  0
  2 39  1  0
  4 40  1  0
  5 41  1  0
  7 42  1  0
  8 43  1  0
  9 44  1  0
 10 45  1  0
 12 46  1  0
 17 47  1  0
 18 48  1  0
 20 49  1  0
 21 50  1  0
 23 51  1  0
 23 52  1  0
 24 53  1  0
 24 54  1  0
 25 55  1  0
 26 56  1  0
 26 57  1  0
 27 58  1  0
 27 59  1  0
 29 60  1  0
 30 61  1  0
 31 62  1  0
 32 63  1  0
 33 64  1  0
 35 65  1  0
M  END
$$$$
