
     RDKit          3D

 58 60  0  0  0  0  0  0  0  0999 V2000
    9.2593    0.1240   -2.7335 C   0  0  0  0  0  0  0  0  0  0  0  0
    7.9933   -0.3169   -3.1917 O   0  0  0  0  0  0  0  0  0  0  0  0
    6.9911   -0.5107   -2.2355 C   0  0  0  0  0  0  0  0  0  0  0  0
    7.2017   -0.2890   -0.9024 C   0  0  0  0  0  0  0  0  0  0  0  0
    6.1996   -0.4881    0.0095 C   0  0  0  0  0  0  0  0  0  0  0  0
    4.9420   -0.9169   -0.3633 C   0  0  0  0  0  0  0  0  0  0  0  0
    3.8888   -1.1223    0.6303 C   0  0  0  0  0  0  0  0  0  0  0  0
    2.7768   -1.5205    0.2049 O   0  0  0  0  0  0  0  0  0  0  0  0
    4.0540   -0.9009    2.0144 N   0  0  0  0  0  0  0  0  0  0  0  0
    3.0377   -1.0912    3.0246 C   0  0  0  0  0  0  0  0  0  0  0  0
    2.0554    0.0108    3.0602 C   0  0  0  0  0  0  0  0  0  0  0  0
    2.3066    1.1562    3.8092 C   0  0  0  0  0  0  0  0  0  0  0  0
    1.3739    2.1414    3.8278 C   0  0  0  0  0  0  0  0  0  0  0  0
    0.1856    2.0057    3.1081 C   0  0  0  0  0  0  0  0  0  0  0  0
   -0.0714    0.8772    2.3651 C   0  0  0  0  0  0  0  0  0  0  0  0
   -1.3168    0.7713    1.6308 C   0  0  0  0  0  0  0  0  0  0  0  0
   -2.1617    1.7312    1.6915 O   0  0  0  0  0  0  0  0  0  0  0  0
   -1.7139   -0.3160    0.8258 N   0  0  0  0  0  0  0  0  0  0  0  0
   -2.9656   -0.3544    0.1251 C   0  0  0  0  0  0  0  0  0  0  0  0
   -3.1355    0.1178   -1.1436 C   0  0  0  0  0  0  0  0  0  0  0  0
   -4.4050    0.0166   -1.7079 C   0  0  0  0  0  0  0  0  0  0  0  0
   -5.4691   -0.5390   -1.0246 C   0  0  0  0  0  0  0  0  0  0  0  0
   -6.8221   -0.6533   -1.6130 C   0  0  0  0  0  0  0  0  0  0  0  0
   -7.6324    0.5059   -1.3379 N   0  0  0  0  0  0  0  0  0  0  0  0
   -7.0850    1.7297   -1.8524 C   0  0  0  0  0  0  0  0  0  0  0  0
   -8.9848    0.3093   -1.7777 C   0  0  0  0  0  0  0  0  0  0  0  0
   -5.2832   -1.0192    0.2741 C   0  0  0  0  0  0  0  0  0  0  0  0
   -4.0251   -0.9160    0.8260 C   0  0  0  0  0  0  0  0  0  0  0  0
    0.8769   -0.1057    2.3564 C   0  0  0  0  0  0  0  0  0  0  0  0
    4.7034   -1.1488   -1.7108 C   0  0  0  0  0  0  0  0  0  0  0  0
    5.7261   -0.9408   -2.6009 C   0  0  0  0  0  0  0  0  0  0  0  0
    5.4734   -1.2199   -4.3161 Cl  0  0  0  0  0  0  0  0  0  0  0  0
    9.9403    0.1022   -3.6061 H   0  0  0  0  0  0  0  0  0  0  0  0
    9.1561    1.1329   -2.2931 H   0  0  0  0  0  0  0  0  0  0  0  0
    9.6859   -0.5972   -1.9798 H   0  0  0  0  0  0  0  0  0  0  0  0
    8.1680    0.0451   -0.5776 H   0  0  0  0  0  0  0  0  0  0  0  0
    6.4660   -0.2830    1.0583 H   0  0  0  0  0  0  0  0  0  0  0  0
    4.9955   -0.5632    2.3689 H   0  0  0  0  0  0  0  0  0  0  0  0
    2.5189   -2.0741    2.9038 H   0  0  0  0  0  0  0  0  0  0  0  0
    3.5426   -1.1792    4.0219 H   0  0  0  0  0  0  0  0  0  0  0  0
    3.2304    1.2409    4.3577 H   0  0  0  0  0  0  0  0  0  0  0  0
    1.5889    3.0315    4.4206 H   0  0  0  0  0  0  0  0  0  0  0  0
   -0.5021    2.8387    3.1790 H   0  0  0  0  0  0  0  0  0  0  0  0
   -1.0679   -1.1276    0.7368 H   0  0  0  0  0  0  0  0  0  0  0  0
   -2.3075    0.5444   -1.6609 H   0  0  0  0  0  0  0  0  0  0  0  0
   -4.5629    0.3862   -2.7163 H   0  0  0  0  0  0  0  0  0  0  0  0
   -6.7825   -0.8358   -2.7148 H   0  0  0  0  0  0  0  0  0  0  0  0
   -7.3659   -1.5327   -1.1935 H   0  0  0  0  0  0  0  0  0  0  0  0
   -7.2203    1.8511   -2.9465 H   0  0  0  0  0  0  0  0  0  0  0  0
   -6.0469    1.8759   -1.5393 H   0  0  0  0  0  0  0  0  0  0  0  0
   -7.6840    2.5646   -1.3900 H   0  0  0  0  0  0  0  0  0  0  0  0
   -9.6553    0.4409   -0.9035 H   0  0  0  0  0  0  0  0  0  0  0  0
   -9.0930   -0.7421   -2.1452 H   0  0  0  0  0  0  0  0  0  0  0  0
   -9.3042    0.9742   -2.5858 H   0  0  0  0  0  0  0  0  0  0  0  0
   -6.1337   -1.4510    0.7900 H   0  0  0  0  0  0  0  0  0  0  0  0
   -3.9096   -1.2956    1.8324 H   0  0  0  0  0  0  0  0  0  0  0  0
    0.6519   -0.9859    1.7738 H   0  0  0  0  0  0  0  0  0  0  0  0
    3.7172   -1.4886   -2.0352 H   0  0  0  0  0  0  0  0  0  0  0  0
  1  2  1  0
  2  3  1  0
  3  4  2  0
  4  5  1  0
  5  6  2  0
  6  7  1  0
  7  8  2  0
  7  9  1  0
  9 10  1  0
 10 11  1  0
 11 12  2  0
 12 13  1  0
 13 14  2  0
 14 15  1  0
 15 16  1  0
 16 17  2  0
 16 18  1  0
 18 19  1  0
 19 20  2  0
 20 21  1  0
 21 22  2  0
 22 23  1  0
 23 24  1  0
 24 25  1  0
 24 26  1  0
 22 27  1  0
 27 28  2  0
 15 29  2  0
  6 30  1  0
 30 31  2  0
 31 32  1  0
 31  3  1  0
 29 11  1  0
 28 19  1  0
  1 33  1  0
  1 34  1  0
  1 35  1  0
  4 36  1  0
  5 37  1  0
  9 38  1  0
 10 39  1  0
 10 40  1  0
 12 41  1  0
 13 42  1  0
 14 43  1  0
 18 44  1  0
 20 45  1  0
 21 46  1  0
 23 47  1  0
 23 48  1  0
 25 49  1  0
 25 50  1  0
 25 51  1  0
 26 52  1  0
 26 53  1  0
 26 54  1  0
 27 55  1  0
 28 56  1  0
 29 57  1  0
 30 58  1  0
M  END
$$$$
