
     RDKit          3D

 52 55  0  0  0  0  0  0  0  0999 V2000
   -3.8249   -3.5240    1.8700 C   0  0  0  0  0  0  0  0  0  0  0  0
   -3.7299   -4.1824    0.5910 N   0  0  0  0  0  0  0  0  0  0  0  0
   -4.4873   -5.4129    0.4066 C   0  0  0  0  0  0  0  0  0  0  0  0
   -2.9247   -3.6284   -0.4171 C   0  0  0  0  0  0  0  0  0  0  0  0
   -2.8636   -4.2358   -1.5132 O   0  0  0  0  0  0  0  0  0  0  0  0
   -2.1425   -2.3718   -0.2659 C   0  0  2  0  0  0  0  0  0  0  0  0
   -2.7891   -1.0853   -0.0304 C   0  0  0  0  0  0  0  0  0  0  0  0
   -2.2399   -1.4234   -1.3675 C   0  0  1  0  0  0  0  0  0  0  0  0
   -1.0457   -0.7454   -1.9176 C   0  0  1  0  0  0  0  0  0  0  0  0
   -1.2273   -0.6513   -3.4638 C   0  0  0  0  0  0  0  0  0  0  0  0
   -0.9769    0.6877   -1.4937 C   0  0  0  0  0  0  0  0  0  0  0  0
    0.2107    1.1957   -1.0541 C   0  0  0  0  0  0  0  0  0  0  0  0
    0.3267    2.5290   -0.6564 C   0  0  0  0  0  0  0  0  0  0  0  0
    1.5508    3.1434   -0.1735 C   0  0  0  0  0  0  0  0  0  0  0  0
    2.3704    2.4894    0.6582 C   0  0  0  0  0  0  0  0  0  0  0  0
    1.9918    1.2533    1.0065 F   0  0  0  0  0  0  0  0  0  0  0  0
    3.5771    3.1534    1.1089 C   0  0  0  0  0  0  0  0  0  0  0  0
    4.4876    2.6041    1.9815 C   0  0  0  0  0  0  0  0  0  0  0  0
    5.6363    3.2793    2.3959 C   0  0  0  0  0  0  0  0  0  0  0  0
    5.8851    4.5373    1.9269 C   0  0  0  0  0  0  0  0  0  0  0  0
    7.0418    5.3079    2.3099 C   0  0  0  0  0  0  0  0  0  0  0  0
    7.9890    5.9198    2.6339 N   0  0  0  0  0  0  0  0  0  0  0  0
    4.9576    5.0821    1.0451 C   0  0  0  0  0  0  0  0  0  0  0  0
    3.8627    4.4137    0.6631 N   0  0  0  0  0  0  0  0  0  0  0  0
   -0.8141    3.3052   -0.7284 C   0  0  0  0  0  0  0  0  0  0  0  0
   -1.9724    2.7642   -1.1694 N   0  0  0  0  0  0  0  0  0  0  0  0
   -2.0863    1.4803   -1.5537 C   0  0  0  0  0  0  0  0  0  0  0  0
   -3.2976    1.0524   -1.9843 F   0  0  0  0  0  0  0  0  0  0  0  0
    0.2301   -1.3455   -1.7652 N   0  0  0  0  0  0  0  0  0  0  0  0
    0.6338   -2.1057   -0.8617 C   0  0  0  0  0  0  0  0  0  0  0  0
    1.9485   -2.6307   -0.8437 N   0  0  0  0  0  0  0  0  0  0  0  0
   -0.4806   -2.5683    0.4508 S   0  0  0  0  0  0  0  0  0  0  0  0
   -3.3587   -4.1358    2.6866 H   0  0  0  0  0  0  0  0  0  0  0  0
   -4.8970   -3.4331    2.1481 H   0  0  0  0  0  0  0  0  0  0  0  0
   -3.2786   -2.5877    1.8461 H   0  0  0  0  0  0  0  0  0  0  0  0
   -3.7977   -6.2843    0.6002 H   0  0  0  0  0  0  0  0  0  0  0  0
   -4.9048   -5.4804   -0.6176 H   0  0  0  0  0  0  0  0  0  0  0  0
   -5.2788   -5.4462    1.1754 H   0  0  0  0  0  0  0  0  0  0  0  0
   -2.2695   -0.3514    0.6302 H   0  0  0  0  0  0  0  0  0  0  0  0
   -3.8872   -1.0533    0.1094 H   0  0  0  0  0  0  0  0  0  0  0  0
   -3.0621   -1.5947   -2.1344 H   0  0  0  0  0  0  0  0  0  0  0  0
   -1.0007    0.3674   -3.7477 H   0  0  0  0  0  0  0  0  0  0  0  0
   -2.2897   -0.8495   -3.7140 H   0  0  0  0  0  0  0  0  0  0  0  0
   -0.6165   -1.4194   -3.9451 H   0  0  0  0  0  0  0  0  0  0  0  0
    1.1286    0.6228   -0.9867 H   0  0  0  0  0  0  0  0  0  0  0  0
    1.8307    4.1411   -0.4721 H   0  0  0  0  0  0  0  0  0  0  0  0
    4.2852    1.6065    2.3480 H   0  0  0  0  0  0  0  0  0  0  0  0
    6.3232    2.8107    3.0835 H   0  0  0  0  0  0  0  0  0  0  0  0
    5.1846    6.0938    0.6875 H   0  0  0  0  0  0  0  0  0  0  0  0
   -0.7631    4.3634   -0.4238 H   0  0  0  0  0  0  0  0  0  0  0  0
    2.3307   -2.8982   -1.8023 H   0  0  0  0  0  0  0  0  0  0  0  0
    2.5243   -2.7592    0.0124 H   0  0  0  0  0  0  0  0  0  0  0  0
  1  2  1  0
  2  3  1  0
  2  4  1  0
  4  5  2  0
  6  4  1  6
  6  7  1  0
  7  8  1  0
  8  9  1  0
  9 10  1  6
  9 11  1  0
 11 12  2  0
 12 13  1  0
 13 14  1  0
 14 15  2  0
 15 16  1  0
 15 17  1  0
 17 18  2  0
 18 19  1  0
 19 20  2  0
 20 21  1  0
 21 22  3  0
 20 23  1  0
 23 24  2  0
 13 25  2  0
 25 26  1  0
 26 27  2  0
 27 28  1  0
  9 29  1  0
 29 30  2  0
 30 31  1  0
 30 32  1  0
  8  6  1  0
 27 11  1  0
 32  6  1  0
 24 17  1  0
  1 33  1  0
  1 34  1  0
  1 35  1  0
  3 36  1  0
  3 37  1  0
  3 38  1  0
  7 39  1  0
  7 40  1  0
  8 41  1  6
 10 42  1  0
 10 43  1  0
 10 44  1  0
 12 45  1  0
 14 46  1  0
 18 47  1  0
 19 48  1  0
 23 49  1  0
 25 50  1  0
 31 51  1  0
 31 52  1  0
M  END
$$$$
