
     RDKit          3D

 54 56  0  0  0  0  0  0  0  0999 V2000
    8.8462    0.4469    0.6254 C   0  0  0  0  0  0  0  0  0  0  0  0
    7.3562    0.3254    0.5023 C   0  0  0  0  0  0  0  0  0  0  0  0
    6.8589   -0.3297   -0.5978 C   0  0  0  0  0  0  0  0  0  0  0  0
    5.5245   -0.4422   -0.7142 N   0  0  0  0  0  0  0  0  0  0  0  0
    4.6498    0.0530    0.1901 C   0  0  0  0  0  0  0  0  0  0  0  0
    3.1997   -0.1169   -0.0182 C   0  0  0  0  0  0  0  0  0  0  0  0
    2.4413    0.3574    0.8458 O   0  0  0  0  0  0  0  0  0  0  0  0
    2.6598   -0.7748   -1.1228 N   0  0  0  0  0  0  0  0  0  0  0  0
    1.2977   -1.0059   -1.4418 C   0  0  0  0  0  0  0  0  0  0  0  0
    0.9795   -1.6907   -2.6073 C   0  0  0  0  0  0  0  0  0  0  0  0
   -0.3044   -1.9440   -2.9694 C   0  0  0  0  0  0  0  0  0  0  0  0
   -1.3763   -1.5374   -2.2026 C   0  0  0  0  0  0  0  0  0  0  0  0
   -2.6541   -1.8154   -2.6349 F   0  0  0  0  0  0  0  0  0  0  0  0
   -1.1036   -0.8553   -1.0378 C   0  0  0  0  0  0  0  0  0  0  0  0
   -2.2459   -0.4242   -0.1959 C   0  0  2  0  0  0  0  0  0  0  0  0
   -1.6542    0.3296    0.9857 C   0  0  0  0  0  0  0  0  0  0  0  0
   -3.0871   -1.5811    0.2564 C   0  0  0  0  0  0  0  0  0  0  0  0
   -4.4685   -0.9132    1.1530 S   0  0  0  0  0  6  0  0  0  0  0  0
   -5.5100   -2.0269    1.1770 O   0  0  0  0  0  0  0  0  0  0  0  0
   -4.1170   -0.6791    2.5985 O   0  0  0  0  0  0  0  0  0  0  0  0
   -5.0134    0.5241    0.3403 C   0  0  0  0  0  0  0  0  0  0  0  0
   -5.1793    1.7063    1.2855 C   0  0  0  0  0  0  0  0  0  0  0  0
   -6.4692    0.2254   -0.0992 C   0  0  0  0  0  0  0  0  0  0  0  0
   -4.2192    0.8555   -0.8331 C   0  0  0  0  0  0  0  0  0  0  0  0
   -4.8571    1.7295   -1.8177 N   0  0  0  0  0  0  0  0  0  0  0  0
   -3.0515    0.4285   -1.0130 N   0  0  0  0  0  0  0  0  0  0  0  0
    0.2198   -0.6066   -0.6867 C   0  0  0  0  0  0  0  0  0  0  0  0
    5.1740    0.7035    1.2807 C   0  0  0  0  0  0  0  0  0  0  0  0
    4.2412    1.2559    2.2867 C   0  0  0  0  0  0  0  0  0  0  0  0
    6.5278    0.8343    1.4276 N   0  0  0  0  0  0  0  0  0  0  0  0
    9.2441   -0.4484    1.1210 H   0  0  0  0  0  0  0  0  0  0  0  0
    9.1086    1.3356    1.2332 H   0  0  0  0  0  0  0  0  0  0  0  0
    9.2644    0.5046   -0.3849 H   0  0  0  0  0  0  0  0  0  0  0  0
    7.5510   -0.7323   -1.3320 H   0  0  0  0  0  0  0  0  0  0  0  0
    3.3764   -1.1508   -1.8147 H   0  0  0  0  0  0  0  0  0  0  0  0
    1.7802   -2.0254   -3.2337 H   0  0  0  0  0  0  0  0  0  0  0  0
   -0.5537   -2.4887   -3.8967 H   0  0  0  0  0  0  0  0  0  0  0  0
   -2.4498    0.7561    1.6324 H   0  0  0  0  0  0  0  0  0  0  0  0
   -1.0983    1.1918    0.5781 H   0  0  0  0  0  0  0  0  0  0  0  0
   -0.9997   -0.2645    1.6136 H   0  0  0  0  0  0  0  0  0  0  0  0
   -2.5593   -2.2537    0.9605 H   0  0  0  0  0  0  0  0  0  0  0  0
   -3.4919   -2.1043   -0.6023 H   0  0  0  0  0  0  0  0  0  0  0  0
   -4.2695    2.2866    1.4352 H   0  0  0  0  0  0  0  0  0  0  0  0
   -5.9302    2.3855    0.7986 H   0  0  0  0  0  0  0  0  0  0  0  0
   -5.5808    1.3208    2.2251 H   0  0  0  0  0  0  0  0  0  0  0  0
   -7.0315    1.1610   -0.2393 H   0  0  0  0  0  0  0  0  0  0  0  0
   -6.4831   -0.4168   -0.9891 H   0  0  0  0  0  0  0  0  0  0  0  0
   -6.9225   -0.3106    0.7602 H   0  0  0  0  0  0  0  0  0  0  0  0
   -4.4107    2.5565   -2.2100 H   0  0  0  0  0  0  0  0  0  0  0  0
   -5.8174    1.4562   -2.1057 H   0  0  0  0  0  0  0  0  0  0  0  0
    0.4181   -0.0659    0.2358 H   0  0  0  0  0  0  0  0  0  0  0  0
    3.6307    2.0649    1.8667 H   0  0  0  0  0  0  0  0  0  0  0  0
    3.6787    0.4551    2.8041 H   0  0  0  0  0  0  0  0  0  0  0  0
    4.8808    1.7547    3.0766 H   0  0  0  0  0  0  0  0  0  0  0  0
  1  2  1  0
  2  3  2  0
  3  4  1  0
  4  5  2  0
  5  6  1  0
  6  7  2  0
  6  8  1  0
  8  9  1  0
  9 10  2  0
 10 11  1  0
 11 12  2  0
 12 13  1  0
 12 14  1  0
 14 15  1  0
 15 16  1  1
 15 17  1  0
 17 18  1  0
 18 19  2  0
 18 20  2  0
 18 21  1  0
 21 22  1  0
 21 23  1  0
 21 24  1  0
 24 25  1  0
 24 26  2  0
 14 27  2  0
  5 28  1  0
 28 29  1  0
 28 30  2  0
 30  2  1  0
 27  9  1  0
 26 15  1  0
  1 31  1  0
  1 32  1  0
  1 33  1  0
  3 34  1  0
  8 35  1  0
 10 36  1  0
 11 37  1  0
 16 38  1  0
 16 39  1  0
 16 40  1  0
 17 41  1  0
 17 42  1  0
 22 43  1  0
 22 44  1  0
 22 45  1  0
 23 46  1  0
 23 47  1  0
 23 48  1  0
 25 49  1  0
 25 50  1  0
 27 51  1  0
 29 52  1  0
 29 53  1  0
 29 54  1  0
M  END
$$$$
