
     RDKit          3D

 37 39  0  0  0  0  0  0  0  0999 V2000
   -2.9147   -2.7663   -0.9126 C   0  0  0  0  0  0  0  0  0  0  0  0
   -2.7505   -2.0744    0.3015 N   0  0  0  0  0  0  0  0  0  0  0  0
   -1.8868   -0.9580    0.3108 C   0  0  2  0  0  0  0  0  0  0  0  0
   -2.3100    0.1405   -0.6449 C   0  0  0  0  0  0  0  0  0  0  0  0
   -1.5609    1.3340   -0.2022 C   0  0  0  0  0  0  0  0  0  0  0  0
   -2.2293    2.4900    0.0967 C   0  0  0  0  0  0  0  0  0  0  0  0
   -1.4758    3.5909    0.5210 C   0  0  0  0  0  0  0  0  0  0  0  0
   -0.0899    3.4551    0.6173 C   0  0  0  0  0  0  0  0  0  0  0  0
    0.5754    2.2847    0.3134 C   0  0  0  0  0  0  0  0  0  0  0  0
   -0.1905    1.2040   -0.1059 C   0  0  0  0  0  0  0  0  0  0  0  0
    0.3465   -0.1146   -0.4789 C   0  0  1  0  0  0  0  0  0  0  0  0
    1.7707   -0.2920   -0.2116 C   0  0  0  0  0  0  0  0  0  0  0  0
    2.1822   -0.5696    1.0695 C   0  0  0  0  0  0  0  0  0  0  0  0
    3.5123   -0.7587    1.4204 C   0  0  0  0  0  0  0  0  0  0  0  0
    4.4515   -0.6587    0.4193 C   0  0  0  0  0  0  0  0  0  0  0  0
    6.1557   -0.8937    0.8295 Cl  0  0  0  0  0  0  0  0  0  0  0  0
    4.0645   -0.3816   -0.8703 C   0  0  0  0  0  0  0  0  0  0  0  0
    5.3082   -0.2682   -2.0931 Cl  0  0  0  0  0  0  0  0  0  0  0  0
    2.7358   -0.1984   -1.1907 C   0  0  0  0  0  0  0  0  0  0  0  0
   -0.4417   -1.2860    0.0436 C   0  0  0  0  0  0  0  0  0  0  0  0
   -3.3286   -2.0578   -1.6826 H   0  0  0  0  0  0  0  0  0  0  0  0
   -3.6845   -3.5537   -0.7824 H   0  0  0  0  0  0  0  0  0  0  0  0
   -2.0053   -3.2899   -1.2885 H   0  0  0  0  0  0  0  0  0  0  0  0
   -3.5006   -2.1078    0.9861 H   0  0  0  0  0  0  0  0  0  0  0  0
   -1.9125   -0.5261    1.3555 H   0  0  0  0  0  0  0  0  0  0  0  0
   -3.3989    0.2919   -0.6716 H   0  0  0  0  0  0  0  0  0  0  0  0
   -1.9062   -0.1191   -1.6667 H   0  0  0  0  0  0  0  0  0  0  0  0
   -3.2958    2.6152    0.0291 H   0  0  0  0  0  0  0  0  0  0  0  0
   -2.0121    4.4860    0.7505 H   0  0  0  0  0  0  0  0  0  0  0  0
    0.4724    4.3253    0.9495 H   0  0  0  0  0  0  0  0  0  0  0  0
    1.6390    2.1611    0.3812 H   0  0  0  0  0  0  0  0  0  0  0  0
    0.2539   -0.1329   -1.6187 H   0  0  0  0  0  0  0  0  0  0  0  0
    1.4940   -0.6576    1.9087 H   0  0  0  0  0  0  0  0  0  0  0  0
    3.8099   -0.9797    2.4541 H   0  0  0  0  0  0  0  0  0  0  0  0
    2.4790    0.0201   -2.2310 H   0  0  0  0  0  0  0  0  0  0  0  0
    0.0059   -1.6544    1.0077 H   0  0  0  0  0  0  0  0  0  0  0  0
   -0.3624   -2.0997   -0.7353 H   0  0  0  0  0  0  0  0  0  0  0  0
  1  2  1  0
  2  3  1  0
  3  4  1  0
  4  5  1  0
  5  6  2  0
  6  7  1  0
  7  8  2  0
  8  9  1  0
  9 10  2  0
 10 11  1  0
 11 12  1  0
 12 13  2  0
 13 14  1  0
 14 15  2  0
 15 16  1  0
 15 17  1  0
 17 18  1  0
 17 19  2  0
 11 20  1  0
 20  3  1  0
 10  5  1  0
 19 12  1  0
  1 21  1  0
  1 22  1  0
  1 23  1  0
  2 24  1  0
  3 25  1  1
  4 26  1  0
  4 27  1  0
  6 28  1  0
  7 29  1  0
  8 30  1  0
  9 31  1  0
 11 32  1  6
 13 33  1  0
 14 34  1  0
 19 35  1  0
 20 36  1  0
 20 37  1  0
M  END
$$$$
