
     RDKit          3D

 46 49  0  0  0  0  0  0  0  0999 V2000
   -1.1614    0.2712    0.9916 C   0  0  2  0  0  0  0  0  0  0  0  0
   -1.9577   -0.2419    2.1199 C   0  0  0  0  0  0  0  0  0  0  0  0
   -3.3431    0.3120    1.7534 C   0  0  0  0  0  0  0  0  0  0  0  0
   -3.3506    0.3325    0.2261 C   0  0  1  0  0  0  0  0  0  0  0  0
   -4.3049   -0.6218   -0.1667 O   0  0  0  0  0  0  0  0  0  0  0  0
   -3.6928    1.6473   -0.2920 C   0  0  0  0  0  0  0  0  0  0  0  0
   -3.9684    2.7339   -0.7041 C   0  0  0  0  0  0  0  0  0  0  0  0
   -2.0190   -0.1464   -0.2117 C   0  0  2  0  0  0  0  0  0  0  0  0
   -2.0135   -1.6250   -0.4257 C   0  0  0  0  0  0  0  0  0  0  0  0
   -1.4553    0.5868   -1.3979 C   0  0  0  0  0  0  0  0  0  0  0  0
   -0.0067    0.3272   -1.6022 C   0  0  0  0  0  0  0  0  0  0  0  0
    0.7866    0.5886   -0.3410 C   0  0  2  0  0  0  0  0  0  0  0  0
    2.2096    0.3044   -0.4915 C   0  0  0  0  0  0  0  0  0  0  0  0
    2.9005   -0.6264    0.2753 C   0  0  0  0  0  0  0  0  0  0  0  0
    2.1980   -1.4211    1.3403 C   0  0  0  0  0  0  0  0  0  0  0  0
    1.0755   -0.5209    1.8776 C   0  0  0  0  0  0  0  0  0  0  0  0
    0.1640   -0.3166    0.7242 C   0  0  1  0  0  0  0  0  0  0  0  0
    4.2624   -0.8036    0.0308 C   0  0  0  0  0  0  0  0  0  0  0  0
    4.8842   -0.0546   -0.9601 C   0  0  0  0  0  0  0  0  0  0  0  0
    6.2465   -0.3157   -1.1160 O   0  0  0  0  0  0  0  0  0  0  0  0
    4.1994    0.8671   -1.7193 C   0  0  0  0  0  0  0  0  0  0  0  0
    2.8519    1.0407   -1.4754 C   0  0  0  0  0  0  0  0  0  0  0  0
   -1.1776    1.3773    1.0255 H   0  0  0  0  0  0  0  0  0  0  0  0
   -1.9831   -1.3193    2.2625 H   0  0  0  0  0  0  0  0  0  0  0  0
   -1.5897    0.1960    3.0862 H   0  0  0  0  0  0  0  0  0  0  0  0
   -4.1487   -0.2932    2.1792 H   0  0  0  0  0  0  0  0  0  0  0  0
   -3.3435    1.3790    2.0912 H   0  0  0  0  0  0  0  0  0  0  0  0
   -4.8104   -0.9915    0.5849 H   0  0  0  0  0  0  0  0  0  0  0  0
   -4.2267    3.7167   -1.0638 H   0  0  0  0  0  0  0  0  0  0  0  0
   -3.0355   -1.9575   -0.7729 H   0  0  0  0  0  0  0  0  0  0  0  0
   -1.2918   -1.9483   -1.2273 H   0  0  0  0  0  0  0  0  0  0  0  0
   -1.7996   -2.2405    0.4466 H   0  0  0  0  0  0  0  0  0  0  0  0
   -1.7409    1.6591   -1.3884 H   0  0  0  0  0  0  0  0  0  0  0  0
   -1.9876    0.1644   -2.2955 H   0  0  0  0  0  0  0  0  0  0  0  0
    0.3567    1.0940   -2.3454 H   0  0  0  0  0  0  0  0  0  0  0  0
    0.1833   -0.6477   -2.0473 H   0  0  0  0  0  0  0  0  0  0  0  0
    0.5655    1.6286   -0.0238 H   0  0  0  0  0  0  0  0  0  0  0  0
    1.6846   -2.2597    0.8070 H   0  0  0  0  0  0  0  0  0  0  0  0
    2.8787   -1.7538    2.1188 H   0  0  0  0  0  0  0  0  0  0  0  0
    1.5775    0.4107    2.1970 H   0  0  0  0  0  0  0  0  0  0  0  0
    0.5133   -1.0158    2.6794 H   0  0  0  0  0  0  0  0  0  0  0  0
    0.0649   -1.3094    0.1976 H   0  0  0  0  0  0  0  0  0  0  0  0
    4.8001   -1.5281    0.6277 H   0  0  0  0  0  0  0  0  0  0  0  0
    6.8547    0.1575   -0.4307 H   0  0  0  0  0  0  0  0  0  0  0  0
    4.7973    1.3885   -2.4615 H   0  0  0  0  0  0  0  0  0  0  0  0
    2.3534    1.7753   -2.0954 H   0  0  0  0  0  0  0  0  0  0  0  0
  1  2  1  0
  2  3  1  0
  3  4  1  0
  4  5  1  0
  4  6  1  1
  6  7  3  0
  4  8  1  0
  8  9  1  6
  8 10  1  0
 10 11  1  0
 11 12  1  0
 12 13  1  0
 13 14  2  0
 14 15  1  0
 15 16  1  0
 16 17  1  0
 14 18  1  0
 18 19  2  0
 19 20  1  0
 19 21  1  0
 21 22  2  0
  8  1  1  0
 17 12  1  0
 17  1  1  0
 22 13  1  0
  1 23  1  1
  2 24  1  0
  2 25  1  0
  3 26  1  0
  3 27  1  0
  5 28  1  0
  7 29  1  0
  9 30  1  0
  9 31  1  0
  9 32  1  0
 10 33  1  0
 10 34  1  0
 11 35  1  0
 11 36  1  0
 12 37  1  1
 15 38  1  0
 15 39  1  0
 16 40  1  0
 16 41  1  0
 17 42  1  6
 18 43  1  0
 20 44  1  0
 21 45  1  0
 22 46  1  0
M  END
$$$$
