
     RDKit          3D

 25 25  0  0  0  0  0  0  0  0999 V2000
    3.4518   -1.2622    0.3969 N   0  0  0  0  0  0  0  0  0  0  0  0
    2.4589   -0.2451    0.6442 C   0  0  0  0  0  0  0  0  0  0  0  0
    2.5052    0.6478    1.5188 O   0  0  0  0  0  0  0  0  0  0  0  0
    1.3935   -0.3404   -0.2087 O   0  0  0  0  0  0  0  0  0  0  0  0
    0.2608    0.4644   -0.2596 C   0  0  0  0  0  0  0  0  0  0  0  0
   -0.4977    0.4175    1.0249 C   0  0  0  0  0  0  0  0  0  0  0  0
   -1.1941   -0.9235    1.0929 C   0  0  0  0  0  0  0  0  0  0  0  0
   -2.3085   -0.9505    0.0838 C   0  0  0  0  0  0  0  0  0  0  0  0
   -2.0276   -0.0948   -1.1189 C   0  0  0  0  0  0  0  0  0  0  0  0
   -0.5595    0.0327   -1.4446 C   0  0  0  0  0  0  0  0  0  0  0  0
    0.7351    1.8605   -0.4239 C   0  0  0  0  0  0  0  0  0  0  0  0
    1.1395    2.9890   -0.5581 C   0  0  0  0  0  0  0  0  0  0  0  0
    4.1637   -1.1296   -0.3789 H   0  0  0  0  0  0  0  0  0  0  0  0
    3.3876   -2.0878    1.0320 H   0  0  0  0  0  0  0  0  0  0  0  0
   -1.2379    1.2410    1.0786 H   0  0  0  0  0  0  0  0  0  0  0  0
    0.2144    0.4635    1.8675 H   0  0  0  0  0  0  0  0  0  0  0  0
   -1.5967   -1.0304    2.1362 H   0  0  0  0  0  0  0  0  0  0  0  0
   -0.4650   -1.7259    0.9341 H   0  0  0  0  0  0  0  0  0  0  0  0
   -2.5182   -2.0001   -0.1731 H   0  0  0  0  0  0  0  0  0  0  0  0
   -3.2194   -0.5502    0.5752 H   0  0  0  0  0  0  0  0  0  0  0  0
   -2.4877   -0.6128   -1.9852 H   0  0  0  0  0  0  0  0  0  0  0  0
   -2.4722    0.9138   -1.0084 H   0  0  0  0  0  0  0  0  0  0  0  0
   -0.1585   -0.8853   -1.9343 H   0  0  0  0  0  0  0  0  0  0  0  0
   -0.4758    0.8270   -2.2204 H   0  0  0  0  0  0  0  0  0  0  0  0
    1.5086    3.9811   -0.6712 H   0  0  0  0  0  0  0  0  0  0  0  0
  1  2  1  0
  2  3  2  0
  2  4  1  0
  4  5  1  0
  5  6  1  0
  6  7  1  0
  7  8  1  0
  8  9  1  0
  9 10  1  0
  5 11  1  0
 11 12  3  0
 10  5  1  0
  1 13  1  0
  1 14  1  0
  6 15  1  0
  6 16  1  0
  7 17  1  0
  7 18  1  0
  8 19  1  0
  8 20  1  0
  9 21  1  0
  9 22  1  0
 10 23  1  0
 10 24  1  0
 12 25  1  0
M  END
$$$$
