
     RDKit          3D

 56 60  0  0  0  0  0  0  0  0999 V2000
    6.2834   -0.0845   -2.1965 C   0  0  0  0  0  0  0  0  0  0  0  0
    5.0900    0.7629   -1.8470 C   0  0  0  0  0  0  0  0  0  0  0  0
    4.2696    0.0941   -0.9557 O   0  0  0  0  0  0  0  0  0  0  0  0
    4.7077   -0.2630    0.3057 C   0  0  0  0  0  0  0  0  0  0  0  0
    5.9721    0.0390    0.7529 C   0  0  0  0  0  0  0  0  0  0  0  0
    6.3275   -0.3570    2.0388 C   0  0  0  0  0  0  0  0  0  0  0  0
    5.4762   -1.0344    2.8816 C   0  0  0  0  0  0  0  0  0  0  0  0
    4.2571   -1.3027    2.3961 N   0  0  0  0  0  0  0  0  0  0  0  0
    3.8564   -0.9505    1.1736 C   0  0  0  0  0  0  0  0  0  0  0  0
    2.5432   -1.2658    0.6972 N   0  0  0  0  0  0  0  0  0  0  0  0
    1.4739   -0.3472    0.7828 C   0  0  0  0  0  0  0  0  0  0  0  0
    1.7352    0.9229    1.2596 C   0  0  0  0  0  0  0  0  0  0  0  0
    0.7374    1.8738    1.3682 C   0  0  0  0  0  0  0  0  0  0  0  0
   -0.5514    1.4952    0.9741 C   0  0  0  0  0  0  0  0  0  0  0  0
   -0.8120    0.2550    0.5079 C   0  0  0  0  0  0  0  0  0  0  0  0
    0.2134   -0.7150    0.3988 C   0  0  0  0  0  0  0  0  0  0  0  0
   -2.1521   -0.2137    0.0740 C   0  0  0  0  0  0  0  0  0  0  0  0
   -2.5114   -1.3656    0.9428 C   0  0  0  0  0  0  0  0  0  0  0  0
   -2.6221   -2.7151    0.3937 C   0  0  0  0  0  0  0  0  0  0  0  0
   -3.0925   -2.8036   -1.3519 S   0  0  0  0  0  0  0  0  0  0  0  0
   -2.3108   -1.3774   -2.0758 C   0  0  0  0  0  0  0  0  0  0  0  0
   -2.0644   -1.3661   -3.4572 N   0  0  0  0  0  0  0  0  0  0  0  0
   -2.0128   -0.4425   -1.3229 N   0  0  0  0  0  0  0  0  0  0  0  0
   -3.1682    0.8889    0.2264 C   0  0  0  0  0  0  0  0  0  0  0  0
   -4.4766    0.6464   -0.1278 C   0  0  0  0  0  0  0  0  0  0  0  0
   -5.4668    1.6115   -0.0143 C   0  0  0  0  0  0  0  0  0  0  0  0
   -6.7880    1.3598   -0.3731 O   0  0  0  0  0  0  0  0  0  0  0  0
   -7.1660    0.0897   -0.8729 C   0  0  0  0  0  0  0  0  0  0  0  0
   -5.0695    2.8353    0.4748 C   0  0  0  0  0  0  0  0  0  0  0  0
   -3.7763    3.1318    0.8435 C   0  0  0  0  0  0  0  0  0  0  0  0
   -3.4165    4.3439    1.3217 F   0  0  0  0  0  0  0  0  0  0  0  0
   -2.8304    2.1278    0.7082 C   0  0  0  0  0  0  0  0  0  0  0  0
   -1.5269    2.4383    1.0834 O   0  0  0  0  0  0  0  0  0  0  0  0
    6.3895   -0.9951   -1.5714 H   0  0  0  0  0  0  0  0  0  0  0  0
    7.2301    0.4851   -2.1508 H   0  0  0  0  0  0  0  0  0  0  0  0
    6.0892   -0.4271   -3.2649 H   0  0  0  0  0  0  0  0  0  0  0  0
    5.4635    1.6835   -1.3423 H   0  0  0  0  0  0  0  0  0  0  0  0
    4.4954    1.0672   -2.7386 H   0  0  0  0  0  0  0  0  0  0  0  0
    6.6907    0.5816    0.1449 H   0  0  0  0  0  0  0  0  0  0  0  0
    7.3227   -0.1275    2.4119 H   0  0  0  0  0  0  0  0  0  0  0  0
    5.7983   -1.3284    3.8907 H   0  0  0  0  0  0  0  0  0  0  0  0
    2.4021   -2.2061    0.2834 H   0  0  0  0  0  0  0  0  0  0  0  0
    2.7558    1.1573    1.5484 H   0  0  0  0  0  0  0  0  0  0  0  0
    0.9352    2.8567    1.7353 H   0  0  0  0  0  0  0  0  0  0  0  0
   -0.0072   -1.7032    0.0248 H   0  0  0  0  0  0  0  0  0  0  0  0
   -1.8163   -1.4422    1.8386 H   0  0  0  0  0  0  0  0  0  0  0  0
   -3.4940   -1.1080    1.4493 H   0  0  0  0  0  0  0  0  0  0  0  0
   -3.4069   -3.2901    0.9680 H   0  0  0  0  0  0  0  0  0  0  0  0
   -1.6947   -3.3325    0.5126 H   0  0  0  0  0  0  0  0  0  0  0  0
   -1.4140   -2.0598   -3.9229 H   0  0  0  0  0  0  0  0  0  0  0  0
   -2.5017   -0.6757   -4.1291 H   0  0  0  0  0  0  0  0  0  0  0  0
   -4.8178   -0.3192   -0.5199 H   0  0  0  0  0  0  0  0  0  0  0  0
   -6.5588   -0.1001   -1.7996 H   0  0  0  0  0  0  0  0  0  0  0  0
   -6.9427   -0.6951   -0.1051 H   0  0  0  0  0  0  0  0  0  0  0  0
   -8.2157    0.0662   -1.1566 H   0  0  0  0  0  0  0  0  0  0  0  0
   -5.8308    3.6005    0.5692 H   0  0  0  0  0  0  0  0  0  0  0  0
  1  2  1  0
  2  3  1  0
  3  4  1  0
  4  5  2  0
  5  6  1  0
  6  7  2  0
  7  8  1  0
  8  9  2  0
  9 10  1  0
 10 11  1  0
 11 12  2  0
 12 13  1  0
 13 14  2  0
 14 15  1  0
 15 16  2  0
 15 17  1  0
 17 18  1  0
 18 19  1  0
 19 20  1  0
 20 21  1  0
 21 22  1  0
 21 23  2  0
 17 24  1  0
 24 25  2  0
 25 26  1  0
 26 27  1  0
 27 28  1  0
 26 29  2  0
 29 30  1  0
 30 31  1  0
 30 32  2  0
 32 33  1  0
  9  4  1  0
 16 11  1  0
 23 17  1  0
 32 24  1  0
 33 14  1  0
  1 34  1  0
  1 35  1  0
  1 36  1  0
  2 37  1  0
  2 38  1  0
  5 39  1  0
  6 40  1  0
  7 41  1  0
 10 42  1  0
 12 43  1  0
 13 44  1  0
 16 45  1  0
 18 46  1  0
 18 47  1  0
 19 48  1  0
 19 49  1  0
 22 50  1  0
 22 51  1  0
 25 52  1  0
 28 53  1  0
 28 54  1  0
 28 55  1  0
 29 56  1  0
M  END
$$$$
