
     RDKit          3D

 45 49  0  0  0  0  0  0  0  0999 V2000
    4.5503    0.3802    0.7888 C   0  0  2  0  0  0  0  0  0  0  0  0
    3.3076   -0.1693    1.4235 C   0  0  0  0  0  0  0  0  0  0  0  0
    2.2975    0.0893    0.4160 N   0  0  0  0  0  0  0  0  0  0  0  0
    2.6795    1.2760   -0.3202 C   0  0  0  0  0  0  0  0  0  0  0  0
    4.1656    1.1570   -0.4165 C   0  0  2  0  0  0  0  0  0  0  0  0
    4.8577   -0.1446   -0.5836 C   0  0  1  0  0  0  0  0  0  0  0  0
    6.2492   -0.0849   -0.9354 N   0  0  0  0  0  0  0  0  0  0  0  0
    1.0961   -0.6422    0.1213 C   0  0  0  0  0  0  0  0  0  0  0  0
   -0.1108   -0.0310    0.2157 N   0  0  0  0  0  0  0  0  0  0  0  0
   -1.2644   -0.6715   -0.0493 C   0  0  0  0  0  0  0  0  0  0  0  0
   -1.2901   -1.9992   -0.4362 C   0  0  0  0  0  0  0  0  0  0  0  0
   -0.0804   -2.6475   -0.5411 C   0  0  0  0  0  0  0  0  0  0  0  0
    1.0670   -1.9544   -0.2613 C   0  0  0  0  0  0  0  0  0  0  0  0
    2.2212   -2.6247   -0.3765 F   0  0  0  0  0  0  0  0  0  0  0  0
   -2.4425   -2.7111   -0.7218 C   0  0  0  0  0  0  0  0  0  0  0  0
   -2.3718   -3.9052   -1.0633 O   0  0  0  0  0  0  0  0  0  0  0  0
   -3.6458   -2.0557   -0.6143 C   0  0  0  0  0  0  0  0  0  0  0  0
   -3.6208   -0.7388   -0.2306 C   0  0  0  0  0  0  0  0  0  0  0  0
   -2.4770   -0.0838    0.0379 N   0  0  0  0  0  0  0  0  0  0  0  0
   -2.5719    1.2639    0.4223 C   0  0  0  0  0  0  0  0  0  0  0  0
   -3.3987    1.8110    1.3674 C   0  0  0  0  0  0  0  0  0  0  0  0
   -4.2097    0.9138    1.9865 F   0  0  0  0  0  0  0  0  0  0  0  0
   -3.3677    3.1725    1.6288 C   0  0  0  0  0  0  0  0  0  0  0  0
   -2.4998    4.0041    0.9386 C   0  0  0  0  0  0  0  0  0  0  0  0
   -2.4770    5.3176    1.1978 F   0  0  0  0  0  0  0  0  0  0  0  0
   -1.6648    3.4539   -0.0154 C   0  0  0  0  0  0  0  0  0  0  0  0
   -1.7026    2.0852   -0.2715 C   0  0  0  0  0  0  0  0  0  0  0  0
   -4.9074   -2.7309   -0.8968 C   0  0  0  0  0  0  0  0  0  0  0  0
   -4.9024   -4.0633   -1.2829 O   0  0  0  0  0  0  0  0  0  0  0  0
   -6.0517   -2.1897   -0.8183 O   0  0  0  0  0  0  0  0  0  0  0  0
    5.3745    0.7616    1.4251 H   0  0  0  0  0  0  0  0  0  0  0  0
    3.0234    0.4011    2.3530 H   0  0  0  0  0  0  0  0  0  0  0  0
    3.3759   -1.2400    1.6567 H   0  0  0  0  0  0  0  0  0  0  0  0
    2.4799    2.1513    0.3620 H   0  0  0  0  0  0  0  0  0  0  0  0
    2.1644    1.3816   -1.2801 H   0  0  0  0  0  0  0  0  0  0  0  0
    4.7362    2.0825   -0.6949 H   0  0  0  0  0  0  0  0  0  0  0  0
    4.3157   -1.0315   -0.9805 H   0  0  0  0  0  0  0  0  0  0  0  0
    6.8718    0.1805   -0.1154 H   0  0  0  0  0  0  0  0  0  0  0  0
    6.5781   -0.9961   -1.3063 H   0  0  0  0  0  0  0  0  0  0  0  0
   -0.0589   -3.6874   -0.8413 H   0  0  0  0  0  0  0  0  0  0  0  0
   -4.5802   -0.2493   -0.1545 H   0  0  0  0  0  0  0  0  0  0  0  0
   -4.0463    3.5264    2.3840 H   0  0  0  0  0  0  0  0  0  0  0  0
   -1.0103    4.1325   -0.5248 H   0  0  0  0  0  0  0  0  0  0  0  0
   -1.0050    1.7864   -1.0339 H   0  0  0  0  0  0  0  0  0  0  0  0
   -5.6536   -4.6761   -1.0183 H   0  0  0  0  0  0  0  0  0  0  0  0
  1  2  1  0
  2  3  1  0
  3  4  1  0
  4  5  1  0
  5  6  1  0
  6  7  1  0
  3  8  1  0
  8  9  2  0
  9 10  1  0
 10 11  2  0
 11 12  1  0
 12 13  2  0
 13 14  1  0
 11 15  1  0
 15 16  2  0
 15 17  1  0
 17 18  2  0
 18 19  1  0
 19 20  1  0
 20 21  2  0
 21 22  1  0
 21 23  1  0
 23 24  2  0
 24 25  1  0
 24 26  1  0
 26 27  2  0
 17 28  1  0
 28 29  1  0
 28 30  2  0
  5  1  1  0
 13  8  1  0
 27 20  1  0
  6  1  1  0
 19 10  1  0
  1 31  1  1
  2 32  1  0
  2 33  1  0
  4 34  1  0
  4 35  1  0
  5 36  1  1
  6 37  1  6
  7 38  1  0
  7 39  1  0
 12 40  1  0
 18 41  1  0
 23 42  1  0
 26 43  1  0
 27 44  1  0
 29 45  1  0
M  END
$$$$
