
     RDKit          3D

 75 79  0  0  0  0  0  0  0  0999 V2000
   -4.5742    4.3864    0.4683 C   0  0  0  0  0  0  0  0  0  0  0  0
   -3.2951    3.7464    0.0951 C   0  0  0  0  0  0  0  0  0  0  0  0
   -2.3675    4.5022   -0.6038 C   0  0  0  0  0  0  0  0  0  0  0  0
   -1.1678    3.9226   -0.9606 C   0  0  0  0  0  0  0  0  0  0  0  0
   -0.8783    2.6157   -0.6367 C   0  0  0  0  0  0  0  0  0  0  0  0
    0.3817    2.0912   -1.0421 N   0  0  0  0  0  0  0  0  0  0  0  0
    1.4774    2.2331   -0.1525 C   0  0  0  0  0  0  0  0  0  0  0  0
    1.2889    2.8141    0.9519 O   0  0  0  0  0  0  0  0  0  0  0  0
    2.8076    1.7267   -0.4827 C   0  0  0  0  0  0  0  0  0  0  0  0
    3.8560    1.9053    0.4170 C   0  0  0  0  0  0  0  0  0  0  0  0
    5.1247    1.4292    0.1141 C   0  0  0  0  0  0  0  0  0  0  0  0
    5.3904    0.7728   -1.0680 C   0  0  0  0  0  0  0  0  0  0  0  0
    6.7635    0.2987   -1.3141 C   0  0  0  0  0  0  0  0  0  0  0  0
    6.9357   -1.1044   -1.1413 N   0  0  0  0  0  0  0  0  0  0  0  0
    8.2846   -1.4875   -1.3927 C   0  0  0  0  0  0  0  0  0  0  0  0
    9.1736   -1.4046   -0.1830 C   0  0  0  0  0  0  0  0  0  0  0  0
    8.6259   -2.1451    0.9052 N   0  0  0  0  0  0  0  0  0  0  0  0
    8.7166   -3.5624    0.7686 C   0  0  0  0  0  0  0  0  0  0  0  0
    7.3212   -1.6609    1.2220 C   0  0  0  0  0  0  0  0  0  0  0  0
    6.3723   -1.6394    0.0602 C   0  0  0  0  0  0  0  0  0  0  0  0
    4.3777    0.5906   -1.9565 C   0  0  0  0  0  0  0  0  0  0  0  0
    4.6060   -0.1181   -3.2628 C   0  0  0  0  0  0  0  0  0  0  0  0
    3.4043   -0.1580   -3.9607 F   0  0  0  0  0  0  0  0  0  0  0  0
    4.9983   -1.4191   -3.0649 F   0  0  0  0  0  0  0  0  0  0  0  0
    5.4867    0.5807   -4.0646 F   0  0  0  0  0  0  0  0  0  0  0  0
    3.0991    1.0715   -1.6492 C   0  0  0  0  0  0  0  0  0  0  0  0
   -1.8275    1.8956    0.0596 C   0  0  0  0  0  0  0  0  0  0  0  0
   -3.0379    2.4374    0.4347 C   0  0  0  0  0  0  0  0  0  0  0  0
   -4.0034    1.6457    1.1611 N   0  0  0  0  0  0  0  0  0  0  0  0
   -4.9821    0.8820    0.4966 C   0  0  0  0  0  0  0  0  0  0  0  0
   -4.9467    0.9453   -0.7809 O   0  0  0  0  0  0  0  0  0  0  0  0
   -5.9707    0.0734    1.1817 C   0  0  0  0  0  0  0  0  0  0  0  0
   -6.0001    0.0002    2.5456 C   0  0  0  0  0  0  0  0  0  0  0  0
   -6.9509   -0.7767    3.1851 C   0  0  0  0  0  0  0  0  0  0  0  0
   -7.8800   -1.4866    2.4603 C   0  0  0  0  0  0  0  0  0  0  0  0
   -7.8830   -1.4388    1.0899 C   0  0  0  0  0  0  0  0  0  0  0  0
   -8.8191   -2.1527    0.2464 C   0  0  0  0  0  0  0  0  0  0  0  0
   -9.7882   -2.9473    0.7752 C   0  0  0  0  0  0  0  0  0  0  0  0
  -10.6605   -3.6137   -0.0782 C   0  0  0  0  0  0  0  0  0  0  0  0
  -10.5460   -3.4720   -1.4422 C   0  0  0  0  0  0  0  0  0  0  0  0
   -9.5529   -2.6597   -1.9255 C   0  0  0  0  0  0  0  0  0  0  0  0
   -8.7362   -2.0375   -1.0786 N   0  0  0  0  0  0  0  0  0  0  0  0
   -6.9089   -0.6445    0.4787 C   0  0  0  0  0  0  0  0  0  0  0  0
   -5.3854    4.2076   -0.2494 H   0  0  0  0  0  0  0  0  0  0  0  0
   -4.4418    5.4911    0.5590 H   0  0  0  0  0  0  0  0  0  0  0  0
   -4.9419    4.0513    1.4667 H   0  0  0  0  0  0  0  0  0  0  0  0
   -2.5949    5.5236   -0.8562 H   0  0  0  0  0  0  0  0  0  0  0  0
   -0.4636    4.5394   -1.5066 H   0  0  0  0  0  0  0  0  0  0  0  0
    0.4726    1.6178   -1.9769 H   0  0  0  0  0  0  0  0  0  0  0  0
    3.6312    2.4182    1.3326 H   0  0  0  0  0  0  0  0  0  0  0  0
    5.8817    1.6110    0.8699 H   0  0  0  0  0  0  0  0  0  0  0  0
    7.0303    0.5538   -2.3623 H   0  0  0  0  0  0  0  0  0  0  0  0
    7.4945    0.8239   -0.6667 H   0  0  0  0  0  0  0  0  0  0  0  0
    8.7056   -0.7648   -2.1409 H   0  0  0  0  0  0  0  0  0  0  0  0
    8.3801   -2.4932   -1.8852 H   0  0  0  0  0  0  0  0  0  0  0  0
   10.1855   -1.7415   -0.4893 H   0  0  0  0  0  0  0  0  0  0  0  0
    9.2236   -0.3322    0.1303 H   0  0  0  0  0  0  0  0  0  0  0  0
    8.0014   -4.0903    1.4203 H   0  0  0  0  0  0  0  0  0  0  0  0
    9.7478   -3.8823    1.0799 H   0  0  0  0  0  0  0  0  0  0  0  0
    8.5625   -3.9394   -0.2560 H   0  0  0  0  0  0  0  0  0  0  0  0
    6.8803   -2.3723    1.9794 H   0  0  0  0  0  0  0  0  0  0  0  0
    7.4023   -0.6923    1.7482 H   0  0  0  0  0  0  0  0  0  0  0  0
    5.4700   -1.0880    0.3508 H   0  0  0  0  0  0  0  0  0  0  0  0
    6.0537   -2.6938   -0.1278 H   0  0  0  0  0  0  0  0  0  0  0  0
    2.3066    0.9070   -2.3885 H   0  0  0  0  0  0  0  0  0  0  0  0
   -1.5856    0.8721    0.3064 H   0  0  0  0  0  0  0  0  0  0  0  0
   -3.9510    1.6592    2.1999 H   0  0  0  0  0  0  0  0  0  0  0  0
   -5.2916    0.5385    3.1822 H   0  0  0  0  0  0  0  0  0  0  0  0
   -6.9658   -0.8281    4.2541 H   0  0  0  0  0  0  0  0  0  0  0  0
   -8.6335   -2.1013    2.9517 H   0  0  0  0  0  0  0  0  0  0  0  0
   -9.9391   -3.1059    1.8282 H   0  0  0  0  0  0  0  0  0  0  0  0
  -11.4446   -4.2561    0.3260 H   0  0  0  0  0  0  0  0  0  0  0  0
  -11.2139   -3.9807   -2.1386 H   0  0  0  0  0  0  0  0  0  0  0  0
   -9.4399   -2.5305   -2.9794 H   0  0  0  0  0  0  0  0  0  0  0  0
   -6.8524   -0.5598   -0.6124 H   0  0  0  0  0  0  0  0  0  0  0  0
  1  2  1  0
  2  3  2  0
  3  4  1  0
  4  5  2  0
  5  6  1  0
  6  7  1  0
  7  8  2  0
  7  9  1  0
  9 10  2  0
 10 11  1  0
 11 12  2  0
 12 13  1  0
 13 14  1  0
 14 15  1  0
 15 16  1  0
 16 17  1  0
 17 18  1  0
 17 19  1  0
 19 20  1  0
 12 21  1  0
 21 22  1  0
 22 23  1  0
 22 24  1  0
 22 25  1  0
 21 26  2  0
  5 27  1  0
 27 28  2  0
 28 29  1  0
 29 30  1  0
 30 31  2  0
 30 32  1  0
 32 33  2  0
 33 34  1  0
 34 35  2  0
 35 36  1  0
 36 37  1  0
 37 38  2  0
 38 39  1  0
 39 40  2  0
 40 41  1  0
 41 42  2  0
 36 43  2  0
 28  2  1  0
 43 32  1  0
 26  9  1  0
 42 37  1  0
 20 14  1  0
  1 44  1  0
  1 45  1  0
  1 46  1  0
  3 47  1  0
  4 48  1  0
  6 49  1  0
 10 50  1  0
 11 51  1  0
 13 52  1  0
 13 53  1  0
 15 54  1  0
 15 55  1  0
 16 56  1  0
 16 57  1  0
 18 58  1  0
 18 59  1  0
 18 60  1  0
 19 61  1  0
 19 62  1  0
 20 63  1  0
 20 64  1  0
 26 65  1  0
 27 66  1  0
 29 67  1  0
 33 68  1  0
 34 69  1  0
 35 70  1  0
 38 71  1  0
 39 72  1  0
 40 73  1  0
 41 74  1  0
 43 75  1  0
M  END
$$$$
