
     RDKit          3D

 40 43  0  0  0  0  0  0  0  0999 V2000
    6.2674    2.5439   -0.2061 C   0  0  0  0  0  0  0  0  0  0  0  0
    5.6422    1.2262   -0.5915 C   0  0  0  0  0  0  0  0  0  0  0  0
    6.5451    0.1786   -0.9522 N   0  0  0  0  0  0  0  0  0  0  0  0
    5.3740   -1.2102   -1.3320 S   0  0  0  0  0  0  0  0  0  0  0  0
    3.9191   -0.1781   -0.9513 C   0  0  0  0  0  0  0  0  0  0  0  0
    2.5419   -0.7658   -1.0736 C   0  0  0  0  0  0  0  0  0  0  0  0
    2.1695   -1.6618   -2.0138 N   0  0  0  0  0  0  0  0  0  0  0  0
    0.8979   -1.9439   -1.8039 N   0  0  0  0  0  0  0  0  0  0  0  0
    0.4458   -1.2478   -0.7489 C   0  0  0  0  0  0  0  0  0  0  0  0
    1.4756   -0.5171   -0.3013 N   0  0  0  0  0  0  0  0  0  0  0  0
    1.3587    0.3775    0.8488 C   0  0  0  0  0  0  0  0  0  0  0  0
    0.2975   -0.2315    1.7764 C   0  0  0  0  0  0  0  0  0  0  0  0
   -0.9007   -0.3155    0.9822 N   0  0  0  0  0  0  0  0  0  0  0  0
   -2.0126    0.4807    1.2822 C   0  0  0  0  0  0  0  0  0  0  0  0
   -1.9551    1.2844    2.2711 O   0  0  0  0  0  0  0  0  0  0  0  0
   -3.2590    0.4792    0.5556 C   0  0  0  0  0  0  0  0  0  0  0  0
   -3.6333    1.6486   -0.1182 C   0  0  0  0  0  0  0  0  0  0  0  0
   -4.8193    1.6559   -0.8040 C   0  0  0  0  0  0  0  0  0  0  0  0
   -5.6646    0.5621   -0.8620 C   0  0  0  0  0  0  0  0  0  0  0  0
   -6.8422    0.6140   -1.5568 F   0  0  0  0  0  0  0  0  0  0  0  0
   -5.2596   -0.5610   -0.1888 C   0  0  0  0  0  0  0  0  0  0  0  0
   -6.2729   -1.9860   -0.2163 Cl  0  0  0  0  0  0  0  0  0  0  0  0
   -4.0715   -0.6308    0.5230 C   0  0  0  0  0  0  0  0  0  0  0  0
   -0.9181   -1.2364   -0.1203 C   0  0  2  0  0  0  0  0  0  0  0  0
   -1.2690   -2.6638    0.3323 C   0  0  0  0  0  0  0  0  0  0  0  0
    4.4139    0.8637   -0.6513 N   0  0  0  0  0  0  0  0  0  0  0  0
    6.4317    2.5331    0.8739 H   0  0  0  0  0  0  0  0  0  0  0  0
    5.5161    3.3110   -0.5454 H   0  0  0  0  0  0  0  0  0  0  0  0
    7.1685    2.7039   -0.8200 H   0  0  0  0  0  0  0  0  0  0  0  0
    2.3161    0.5399    1.3460 H   0  0  0  0  0  0  0  0  0  0  0  0
    0.9364    1.3410    0.5312 H   0  0  0  0  0  0  0  0  0  0  0  0
    0.6058   -1.2174    2.1489 H   0  0  0  0  0  0  0  0  0  0  0  0
    0.1692    0.5140    2.5918 H   0  0  0  0  0  0  0  0  0  0  0  0
   -2.9716    2.4933   -0.0691 H   0  0  0  0  0  0  0  0  0  0  0  0
   -5.1306    2.5601   -1.3404 H   0  0  0  0  0  0  0  0  0  0  0  0
   -3.7961   -1.5349    1.0412 H   0  0  0  0  0  0  0  0  0  0  0  0
   -1.6572   -0.9558   -0.8962 H   0  0  0  0  0  0  0  0  0  0  0  0
   -1.6955   -2.6484    1.3614 H   0  0  0  0  0  0  0  0  0  0  0  0
   -2.0080   -3.1032   -0.3538 H   0  0  0  0  0  0  0  0  0  0  0  0
   -0.3555   -3.3018    0.2744 H   0  0  0  0  0  0  0  0  0  0  0  0
  1  2  1  0
  2  3  2  0
  3  4  1  0
  4  5  1  0
  5  6  1  0
  6  7  2  0
  7  8  1  0
  8  9  2  0
  9 10  1  0
 10 11  1  0
 11 12  1  0
 12 13  1  0
 13 14  1  0
 14 15  2  0
 14 16  1  0
 16 17  2  0
 17 18  1  0
 18 19  2  0
 19 20  1  0
 19 21  1  0
 21 22  1  0
 21 23  2  0
 13 24  1  0
 24 25  1  0
  5 26  2  0
 26  2  1  0
 10  6  1  0
 23 16  1  0
 24  9  1  0
  1 27  1  0
  1 28  1  0
  1 29  1  0
 11 30  1  0
 11 31  1  0
 12 32  1  0
 12 33  1  0
 17 34  1  0
 18 35  1  0
 23 36  1  0
 24 37  1  6
 25 38  1  0
 25 39  1  0
 25 40  1  0
M  END
$$$$
