
     RDKit          3D

 47 48  0  0  0  0  0  0  0  0999 V2000
    6.8729    1.8649   -0.9758 C   0  0  0  0  0  0  0  0  0  0  0  0
    5.7698    1.2177   -0.2093 C   0  0  0  0  0  0  0  0  0  0  0  0
    4.5913    0.8550   -0.8318 C   0  0  0  0  0  0  0  0  0  0  0  0
    3.6047    0.2704   -0.1208 N   0  0  0  0  0  0  0  0  0  0  0  0
    2.3806   -0.1119   -0.7430 C   0  0  1  0  0  0  0  0  0  0  0  0
    2.0182   -1.5517   -0.5762 C   0  0  0  0  0  0  0  0  0  0  0  0
    0.5356   -1.4679   -0.2205 C   0  0  2  0  0  0  0  0  0  0  0  0
   -0.2323   -2.5213   -0.8014 N   0  0  0  0  0  0  0  0  0  0  0  0
   -0.7571   -3.3397   -0.0192 N   0  0  0  0  0  4  0  0  0  0  0  0
   -1.0084   -4.3013    0.7353 N   0  0  0  0  0  2  0  0  0  0  0  0
    0.2237   -0.1032   -0.8151 C   0  0  1  0  0  0  0  0  0  0  0  0
   -1.1174    0.4114   -0.3742 C   0  0  0  0  0  0  0  0  0  0  0  0
   -1.2218    0.3614    0.9937 O   0  0  0  0  0  0  0  0  0  0  0  0
   -2.7163    0.9310    1.5320 P   0  0  2  0  0  5  0  0  0  0  0  0
   -2.5376    2.4259    1.8019 O   0  0  0  0  0  0  0  0  0  0  0  0
   -3.1387    0.1979    2.9989 O   0  0  0  0  0  0  0  0  0  0  0  0
   -3.9078    0.7619    0.3652 O   0  0  0  0  0  0  0  0  0  0  0  0
   -5.2734   -0.0377    0.9213 P   0  0  2  0  0  5  0  0  0  0  0  0
   -6.4502    0.9137    1.0498 O   0  0  0  0  0  0  0  0  0  0  0  0
   -5.0162   -0.7419    2.4511 O   0  0  0  0  0  0  0  0  0  0  0  0
   -5.6580   -1.2469   -0.1964 O   0  0  0  0  0  0  0  0  0  0  0  0
   -6.7255   -0.6489   -1.3466 P   0  0  0  0  0  5  0  0  0  0  0  0
   -7.7794   -1.7055   -1.6016 O   0  0  0  0  0  0  0  0  0  0  0  0
   -5.9072   -0.3654   -2.8199 O   0  0  0  0  0  0  0  0  0  0  0  0
   -7.4877    0.7717   -0.8507 O   0  0  0  0  0  0  0  0  0  0  0  0
    1.2771    0.6412   -0.2874 O   0  0  0  0  0  0  0  0  0  0  0  0
    3.8027    0.0557    1.1927 C   0  0  0  0  0  0  0  0  0  0  0  0
    2.8596   -0.4937    1.8308 O   0  0  0  0  0  0  0  0  0  0  0  0
    4.9559    0.4085    1.8111 N   0  0  0  0  0  0  0  0  0  0  0  0
    5.9645    0.9937    1.1388 C   0  0  0  0  0  0  0  0  0  0  0  0
    7.0338    1.3153    1.7362 O   0  0  0  0  0  0  0  0  0  0  0  0
    6.4720    2.3626   -1.8878 H   0  0  0  0  0  0  0  0  0  0  0  0
    7.3072    2.6650   -0.3501 H   0  0  0  0  0  0  0  0  0  0  0  0
    7.6476    1.1094   -1.2094 H   0  0  0  0  0  0  0  0  0  0  0  0
    4.4444    1.0357   -1.9000 H   0  0  0  0  0  0  0  0  0  0  0  0
    2.4317    0.0918   -1.8439 H   0  0  0  0  0  0  0  0  0  0  0  0
    2.5989   -2.1029    0.1549 H   0  0  0  0  0  0  0  0  0  0  0  0
    2.0790   -2.1223   -1.5440 H   0  0  0  0  0  0  0  0  0  0  0  0
    0.4290   -1.3972    0.8886 H   0  0  0  0  0  0  0  0  0  0  0  0
    0.3362   -0.1520   -1.9048 H   0  0  0  0  0  0  0  0  0  0  0  0
   -1.9565   -0.0553   -0.9248 H   0  0  0  0  0  0  0  0  0  0  0  0
   -1.1461    1.4998   -0.6716 H   0  0  0  0  0  0  0  0  0  0  0  0
   -2.7269   -0.6874    3.1176 H   0  0  0  0  0  0  0  0  0  0  0  0
   -5.5016   -0.2198    3.1591 H   0  0  0  0  0  0  0  0  0  0  0  0
   -5.3396    0.4429   -2.7375 H   0  0  0  0  0  0  0  0  0  0  0  0
   -7.0726    1.5570   -1.2993 H   0  0  0  0  0  0  0  0  0  0  0  0
    5.0419    0.2124    2.8321 H   0  0  0  0  0  0  0  0  0  0  0  0
  1  2  1  0
  2  3  2  0
  3  4  1  0
  4  5  1  0
  5  6  1  0
  6  7  1  0
  7  8  1  0
  8  9  2  0
  9 10  2  0
  7 11  1  0
 11 12  1  0
 12 13  1  0
 14 13  1  6
 14 15  2  0
 14 16  1  0
 14 17  1  0
 18 17  1  6
 18 19  2  0
 18 20  1  0
 18 21  1  0
 21 22  1  0
 22 23  2  0
 22 24  1  0
 22 25  1  0
 11 26  1  0
  4 27  1  0
 27 28  2  0
 27 29  1  0
 29 30  1  0
 30 31  2  0
 30  2  1  0
 26  5  1  0
  1 32  1  0
  1 33  1  0
  1 34  1  0
  3 35  1  0
  5 36  1  6
  6 37  1  0
  6 38  1  0
  7 39  1  1
 11 40  1  6
 12 41  1  0
 12 42  1  0
 16 43  1  0
 20 44  1  0
 24 45  1  0
 25 46  1  0
 29 47  1  0
M  CHG  2   9   1  10  -1
M  END
$$$$
