
     RDKit          3D

109113  0  0  0  0  0  0  0  0999 V2000
   12.1530    2.6074   -1.9502 C   0  0  0  0  0  0  0  0  0  0  0  0
   11.7499    1.6347   -2.8009 O   0  0  0  0  0  0  0  0  0  0  0  0
   11.5801    0.3635   -2.3081 C   0  0  0  0  0  0  0  0  0  0  0  0
   12.8525   -0.1786   -1.7692 C   0  0  0  0  0  0  0  0  0  0  0  0
   12.9385   -1.3874   -1.2670 O   0  0  0  0  0  0  0  0  0  0  0  0
   12.4113   -1.9844   -0.2520 C   0  0  0  0  0  0  0  0  0  0  0  0
   10.8779   -2.0799   -0.2681 C   0  0  0  0  0  0  0  0  0  0  0  0
   10.5321   -2.7352   -1.3825 O   0  0  0  0  0  0  0  0  0  0  0  0
    9.2270   -2.9537   -1.7121 C   0  0  0  0  0  0  0  0  0  0  0  0
    8.5321   -3.7968   -0.6901 C   0  0  0  0  0  0  0  0  0  0  0  0
    8.4744   -3.2709    0.5490 O   0  0  0  0  0  0  0  0  0  0  0  0
    7.8261   -2.1927    1.0434 C   0  0  0  0  0  0  0  0  0  0  0  0
    7.0064   -1.3995    0.2698 C   0  0  0  0  0  0  0  0  0  0  0  0
    6.3370   -0.2898    0.7678 C   0  0  0  0  0  0  0  0  0  0  0  0
    5.5288    0.4992   -0.0803 N   0  0  0  0  0  0  0  0  0  0  0  0
    4.3428    1.0703    0.4488 C   0  0  0  0  0  0  0  0  0  0  0  0
    3.1706    0.4195    0.1482 C   0  0  0  0  0  0  0  0  0  0  0  0
    1.9184    0.8664    0.6142 C   0  0  0  0  0  0  0  0  0  0  0  0
    0.7835    0.1934    0.2936 O   0  0  0  0  0  0  0  0  0  0  0  0
   -0.5078    0.4810    0.5738 C   0  0  0  0  0  0  0  0  0  0  0  0
   -1.2099   -0.4343    1.3722 C   0  0  0  0  0  0  0  0  0  0  0  0
   -2.5241   -0.2432    1.7145 C   0  0  0  0  0  0  0  0  0  0  0  0
   -3.2035    0.8858    1.2694 C   0  0  0  0  0  0  0  0  0  0  0  0
   -4.5646    1.0047    1.6361 N   0  0  0  0  0  0  0  0  0  0  0  0
   -5.6051    0.5216    0.7559 C   0  0  0  0  0  0  0  0  0  0  0  0
   -5.1902    0.0398   -0.3107 O   0  0  0  0  0  0  0  0  0  0  0  0
   -6.9635    0.5987    1.0949 N   0  0  0  0  0  0  0  0  0  0  0  0
   -8.0626    0.1552    0.3548 C   0  0  0  0  0  0  0  0  0  0  0  0
   -9.3114    0.7817    0.5275 C   0  0  0  0  0  0  0  0  0  0  0  0
  -10.4471    0.4301   -0.1213 C   0  0  0  0  0  0  0  0  0  0  0  0
  -11.7607    1.0948    0.0806 C   0  0  0  0  0  0  0  0  0  0  0  0
  -11.6648    2.1641    1.1324 C   0  0  0  0  0  0  0  0  0  0  0  0
  -12.8076    0.0656    0.5011 C   0  0  0  0  0  0  0  0  0  0  0  0
  -12.2139    1.7429   -1.2132 C   0  0  0  0  0  0  0  0  0  0  0  0
  -10.3580   -0.6272   -1.0190 C   0  0  0  0  0  0  0  0  0  0  0  0
   -9.1796   -1.2885   -1.2423 C   0  0  0  0  0  0  0  0  0  0  0  0
   -9.0754   -2.3671   -2.1498 N   0  0  0  0  0  0  0  0  0  0  0  0
  -10.3712   -2.6870   -3.2346 S   0  0  0  0  0  6  0  0  0  0  0  0
  -10.6937   -1.3453   -4.3459 C   0  0  0  0  0  0  0  0  0  0  0  0
  -11.6515   -2.9759   -2.4684 O   0  0  0  0  0  0  0  0  0  0  0  0
  -10.0355   -3.9090   -4.0938 O   0  0  0  0  0  0  0  0  0  0  0  0
   -8.0300   -0.8858   -0.5423 C   0  0  0  0  0  0  0  0  0  0  0  0
   -6.8945   -1.6271   -0.8357 O   0  0  0  0  0  0  0  0  0  0  0  0
   -6.5724   -2.8159   -0.1272 C   0  0  0  0  0  0  0  0  0  0  0  0
   -2.5429    1.7865    0.4950 C   0  0  0  0  0  0  0  0  0  0  0  0
   -3.2245    2.8969    0.0490 C   0  0  0  0  0  0  0  0  0  0  0  0
   -2.5575    3.7913   -0.7402 C   0  0  0  0  0  0  0  0  0  0  0  0
   -1.2337    3.6199   -1.1013 C   0  0  0  0  0  0  0  0  0  0  0  0
   -0.5625    2.4964   -0.6427 C   0  0  0  0  0  0  0  0  0  0  0  0
   -1.2078    1.5919    0.1460 C   0  0  0  0  0  0  0  0  0  0  0  0
    1.9798    1.9989    1.3878 C   0  0  0  0  0  0  0  0  0  0  0  0
    3.1469    2.6674    1.7013 C   0  0  0  0  0  0  0  0  0  0  0  0
    4.3167    2.1662    1.2078 N   0  0  0  0  0  0  0  0  0  0  0  0
    6.5129    0.0128    2.0909 C   0  0  0  0  0  0  0  0  0  0  0  0
    7.3317   -0.7616    2.9077 C   0  0  0  0  0  0  0  0  0  0  0  0
    7.4631   -0.3880    4.2553 O   0  0  0  0  0  0  0  0  0  0  0  0
    6.7923    0.7392    4.7793 C   0  0  0  0  0  0  0  0  0  0  0  0
    7.9814   -1.8461    2.4069 C   0  0  0  0  0  0  0  0  0  0  0  0
   12.2189    3.6082   -2.4736 H   0  0  0  0  0  0  0  0  0  0  0  0
   13.1893    2.4675   -1.5536 H   0  0  0  0  0  0  0  0  0  0  0  0
   11.5087    2.7785   -1.0632 H   0  0  0  0  0  0  0  0  0  0  0  0
   10.7430    0.4416   -1.5766 H   0  0  0  0  0  0  0  0  0  0  0  0
   11.2314   -0.3449   -3.1077 H   0  0  0  0  0  0  0  0  0  0  0  0
   13.2558    0.6160   -1.0393 H   0  0  0  0  0  0  0  0  0  0  0  0
   13.5911   -0.1185   -2.6525 H   0  0  0  0  0  0  0  0  0  0  0  0
   12.7124   -1.5628    0.7677 H   0  0  0  0  0  0  0  0  0  0  0  0
   12.8197   -3.0473   -0.1688 H   0  0  0  0  0  0  0  0  0  0  0  0
   10.6122   -2.7159    0.6548 H   0  0  0  0  0  0  0  0  0  0  0  0
   10.3904   -1.1432   -0.0904 H   0  0  0  0  0  0  0  0  0  0  0  0
    9.2286   -3.4747   -2.7202 H   0  0  0  0  0  0  0  0  0  0  0  0
    8.7050   -1.9607   -1.8351 H   0  0  0  0  0  0  0  0  0  0  0  0
    7.4682   -4.0276   -1.0507 H   0  0  0  0  0  0  0  0  0  0  0  0
    9.0721   -4.7956   -0.6228 H   0  0  0  0  0  0  0  0  0  0  0  0
    6.7999   -1.6030   -0.7862 H   0  0  0  0  0  0  0  0  0  0  0  0
    5.7896    0.6673   -1.0846 H   0  0  0  0  0  0  0  0  0  0  0  0
    3.1714   -0.4684   -0.4646 H   0  0  0  0  0  0  0  0  0  0  0  0
   -0.7067   -1.3159    1.7315 H   0  0  0  0  0  0  0  0  0  0  0  0
   -3.0501   -0.9617    2.3326 H   0  0  0  0  0  0  0  0  0  0  0  0
   -4.8242    1.4364    2.5347 H   0  0  0  0  0  0  0  0  0  0  0  0
   -7.1763    1.0493    2.0408 H   0  0  0  0  0  0  0  0  0  0  0  0
   -9.3653    1.6029    1.2268 H   0  0  0  0  0  0  0  0  0  0  0  0
  -11.3687    1.7992    2.1182 H   0  0  0  0  0  0  0  0  0  0  0  0
  -12.6700    2.6354    1.2333 H   0  0  0  0  0  0  0  0  0  0  0  0
  -10.9972    2.9715    0.7286 H   0  0  0  0  0  0  0  0  0  0  0  0
  -13.1603   -0.4747   -0.4233 H   0  0  0  0  0  0  0  0  0  0  0  0
  -12.3015   -0.6685    1.1662 H   0  0  0  0  0  0  0  0  0  0  0  0
  -13.6282    0.6114    0.9626 H   0  0  0  0  0  0  0  0  0  0  0  0
  -12.7716    0.9505   -1.7883 H   0  0  0  0  0  0  0  0  0  0  0  0
  -12.8928    2.6090   -1.0426 H   0  0  0  0  0  0  0  0  0  0  0  0
  -11.3525    2.0407   -1.8532 H   0  0  0  0  0  0  0  0  0  0  0  0
  -11.2662   -0.9097   -1.5335 H   0  0  0  0  0  0  0  0  0  0  0  0
   -8.2374   -2.9766   -2.1812 H   0  0  0  0  0  0  0  0  0  0  0  0
   -9.7097   -0.9652   -4.7351 H   0  0  0  0  0  0  0  0  0  0  0  0
  -11.2536   -1.7531   -5.2145 H   0  0  0  0  0  0  0  0  0  0  0  0
  -11.2032   -0.5119   -3.8564 H   0  0  0  0  0  0  0  0  0  0  0  0
   -5.6487   -2.6213    0.4498 H   0  0  0  0  0  0  0  0  0  0  0  0
   -6.3283   -3.6111   -0.8806 H   0  0  0  0  0  0  0  0  0  0  0  0
   -7.3410   -3.1381    0.5726 H   0  0  0  0  0  0  0  0  0  0  0  0
   -4.2783    3.0350    0.3366 H   0  0  0  0  0  0  0  0  0  0  0  0
   -3.0899    4.6674   -1.0933 H   0  0  0  0  0  0  0  0  0  0  0  0
   -0.7036    4.3313   -1.7289 H   0  0  0  0  0  0  0  0  0  0  0  0
    0.4732    2.3508   -0.9372 H   0  0  0  0  0  0  0  0  0  0  0  0
    1.0283    2.3930    1.7802 H   0  0  0  0  0  0  0  0  0  0  0  0
    3.1311    3.5520    2.3141 H   0  0  0  0  0  0  0  0  0  0  0  0
    6.0218    0.8663    2.5503 H   0  0  0  0  0  0  0  0  0  0  0  0
    5.7036    0.6421    4.7356 H   0  0  0  0  0  0  0  0  0  0  0  0
    7.1438    1.6105    4.1602 H   0  0  0  0  0  0  0  0  0  0  0  0
    7.1565    0.9848    5.8082 H   0  0  0  0  0  0  0  0  0  0  0  0
    8.6200   -2.4649    2.9966 H   0  0  0  0  0  0  0  0  0  0  0  0
  1  2  1  0
  2  3  1  0
  3  4  1  0
  4  5  1  0
  5  6  1  0
  6  7  1  0
  7  8  1  0
  8  9  1  0
  9 10  1  0
 10 11  1  0
 11 12  1  0
 12 13  2  0
 13 14  1  0
 14 15  1  0
 15 16  1  0
 16 17  2  0
 17 18  1  0
 18 19  1  0
 19 20  1  0
 20 21  2  0
 21 22  1  0
 22 23  2  0
 23 24  1  0
 24 25  1  0
 25 26  2  0
 25 27  1  0
 27 28  1  0
 28 29  2  0
 29 30  1  0
 30 31  1  0
 31 32  1  0
 31 33  1  0
 31 34  1  0
 30 35  2  0
 35 36  1  0
 36 37  1  0
 37 38  1  0
 38 39  1  0
 38 40  2  0
 38 41  2  0
 36 42  2  0
 42 43  1  0
 43 44  1  0
 23 45  1  0
 45 46  2  0
 46 47  1  0
 47 48  2  0
 48 49  1  0
 49 50  2  0
 18 51  2  0
 51 52  1  0
 52 53  2  0
 14 54  2  0
 54 55  1  0
 55 56  1  0
 56 57  1  0
 55 58  2  0
 58 12  1  0
 53 16  1  0
 50 20  1  0
 42 28  1  0
 50 45  1  0
  1 59  1  0
  1 60  1  0
  1 61  1  0
  3 62  1  0
  3 63  1  0
  4 64  1  0
  4 65  1  0
  6 66  1  0
  6 67  1  0
  7 68  1  0
  7 69  1  0
  9 70  1  0
  9 71  1  0
 10 72  1  0
 10 73  1  0
 13 74  1  0
 15 75  1  0
 17 76  1  0
 21 77  1  0
 22 78  1  0
 24 79  1  0
 27 80  1  0
 29 81  1  0
 32 82  1  0
 32 83  1  0
 32 84  1  0
 33 85  1  0
 33 86  1  0
 33 87  1  0
 34 88  1  0
 34 89  1  0
 34 90  1  0
 35 91  1  0
 37 92  1  0
 39 93  1  0
 39 94  1  0
 39 95  1  0
 44 96  1  0
 44 97  1  0
 44 98  1  0
 46 99  1  0
 47100  1  0
 48101  1  0
 49102  1  0
 51103  1  0
 52104  1  0
 54105  1  0
 57106  1  0
 57107  1  0
 57108  1  0
 58109  1  0
M  END
$$$$
