
     RDKit          3D

 29 31  0  0  0  0  0  0  0  0999 V2000
    0.5539   -1.4512   -1.0197 O   0  0  0  0  0  0  0  0  0  0  0  0
    0.0801   -0.4318   -0.3634 C   0  0  0  0  0  0  0  0  0  0  0  0
   -1.2310   -0.1269   -0.2746 C   0  0  0  0  0  0  0  0  0  0  0  0
   -2.3236   -0.8227   -0.8466 C   0  0  0  0  0  0  0  0  0  0  0  0
   -2.2398   -1.9773   -1.6292 N   0  0  0  0  0  4  0  0  0  0  0  0
   -3.2003   -2.8017   -1.5872 O   0  0  0  0  0  0  0  0  0  0  0  0
   -1.2047   -2.2965   -2.4312 O   0  0  0  0  0  1  0  0  0  0  0  0
   -3.6059   -0.3369   -0.6192 C   0  0  0  0  0  0  0  0  0  0  0  0
   -3.9319    0.7581    0.1074 C   0  0  0  0  0  0  0  0  0  0  0  0
   -5.2437    1.2214    0.3181 N   0  0  0  0  0  4  0  0  0  0  0  0
   -5.4426    2.2371    1.0028 O   0  0  0  0  0  0  0  0  0  0  0  0
   -6.2804    0.5144   -0.2557 O   0  0  0  0  0  1  0  0  0  0  0  0
   -2.8561    1.4483    0.6723 C   0  0  0  0  0  0  0  0  0  0  0  0
   -1.5688    0.9728    0.4534 C   0  0  0  0  0  0  0  0  0  0  0  0
    0.0379    1.5601    1.0057 S   0  0  0  0  0  0  0  0  0  0  0  0
    0.9674    0.3382    0.2489 N   0  0  0  0  0  0  0  0  0  0  0  0
    2.4085    0.1960    0.2840 C   0  0  0  0  0  0  0  0  0  0  0  0
    3.2388    1.2505   -0.0022 C   0  0  0  0  0  0  0  0  0  0  0  0
    4.6151    1.0738    0.0441 C   0  0  0  0  0  0  0  0  0  0  0  0
    5.1715   -0.1564    0.3763 C   0  0  0  0  0  0  0  0  0  0  0  0
    7.0436   -0.4475    0.4517 Br  0  0  0  0  0  0  0  0  0  0  0  0
    4.3461   -1.2266    0.6669 C   0  0  0  0  0  0  0  0  0  0  0  0
    2.9894   -1.0089    0.6094 C   0  0  0  0  0  0  0  0  0  0  0  0
   -4.4540   -0.8841   -1.0683 H   0  0  0  0  0  0  0  0  0  0  0  0
   -3.0321    2.3354    1.2702 H   0  0  0  0  0  0  0  0  0  0  0  0
    2.7946    2.2154   -0.2613 H   0  0  0  0  0  0  0  0  0  0  0  0
    5.2700    1.8843   -0.1783 H   0  0  0  0  0  0  0  0  0  0  0  0
    4.7695   -2.2008    0.9305 H   0  0  0  0  0  0  0  0  0  0  0  0
    2.3283   -1.8362    0.8350 H   0  0  0  0  0  0  0  0  0  0  0  0
  1  2  2  0
  2  3  1  0
  3  4  2  0
  4  5  1  0
  5  6  2  0
  5  7  1  0
  4  8  1  0
  8  9  2  0
  9 10  1  0
 10 11  2  0
 10 12  1  0
  9 13  1  0
 13 14  2  0
 14 15  1  0
 15 16  1  0
 16 17  1  0
 17 18  2  0
 18 19  1  0
 19 20  2  0
 20 21  1  0
 20 22  1  0
 22 23  2  0
 16  2  1  0
 23 17  1  0
 14  3  1  0
  8 24  1  0
 13 25  1  0
 18 26  1  0
 19 27  1  0
 22 28  1  0
 23 29  1  0
M  CHG  4   5   1   7  -1  10   1  12  -1
M  END
$$$$
