
     RDKit          3D

 54 57  0  0  0  0  0  0  0  0999 V2000
    6.1705    3.7203    0.0259 C   0  0  0  0  0  0  0  0  0  0  0  0
    5.7908    2.8953    1.1176 O   0  0  0  0  0  0  0  0  0  0  0  0
    5.0942    1.7315    0.8210 C   0  0  0  0  0  0  0  0  0  0  0  0
    4.6852    0.8689    1.8254 C   0  0  0  0  0  0  0  0  0  0  0  0
    3.9914   -0.2937    1.5524 C   0  0  0  0  0  0  0  0  0  0  0  0
    3.6764   -0.6436    0.2580 C   0  0  0  0  0  0  0  0  0  0  0  0
    2.9652   -1.8302   -0.0556 N   0  0  0  0  0  0  0  0  0  0  0  0
    3.6811   -3.0504   -0.3086 C   0  0  0  0  0  0  0  0  0  0  0  0
    3.8873   -3.8414    0.9798 C   0  0  0  0  0  0  0  0  0  0  0  0
    4.5800   -5.0128    0.7064 O   0  0  0  0  0  0  0  0  0  0  0  0
    1.5442   -1.7604   -0.1075 C   0  0  0  0  0  0  0  0  0  0  0  0
    0.8685   -2.7846   -0.3812 O   0  0  0  0  0  0  0  0  0  0  0  0
    0.8358   -0.5545    0.1425 N   0  0  0  0  0  0  0  0  0  0  0  0
   -0.5831   -0.4714    0.0939 C   0  0  0  0  0  0  0  0  0  0  0  0
   -1.3181   -0.7063    1.2364 C   0  0  0  0  0  0  0  0  0  0  0  0
   -2.6996   -0.6458    1.2755 C   0  0  0  0  0  0  0  0  0  0  0  0
   -3.3594   -0.3274    0.0783 C   0  0  0  0  0  0  0  0  0  0  0  0
   -4.8082   -0.3339    0.1086 C   0  0  0  0  0  0  0  0  0  0  0  0
   -5.4549   -1.4650    0.5122 N   0  0  0  0  0  0  0  0  0  0  0  0
   -6.7783   -1.5838    0.5850 C   0  0  0  0  0  0  0  0  0  0  0  0
   -7.5163   -0.5244    0.2398 N   0  0  0  0  0  0  0  0  0  0  0  0
   -6.9532    0.6185   -0.1640 C   0  0  0  0  0  0  0  0  0  0  0  0
   -7.4747    1.7925   -0.5336 N   0  0  0  0  0  0  0  0  0  0  0  0
   -6.5156    2.6613   -0.8382 C   0  0  0  0  0  0  0  0  0  0  0  0
   -5.2950    2.0228   -0.6592 C   0  0  0  0  0  0  0  0  0  0  0  0
   -3.9816    2.6684   -0.8602 C   0  0  0  0  0  0  0  0  0  0  0  0
   -5.5705    0.7507   -0.2421 C   0  0  0  0  0  0  0  0  0  0  0  0
   -2.6423   -0.0912   -1.0679 C   0  0  0  0  0  0  0  0  0  0  0  0
   -1.2715   -0.1601   -1.0686 C   0  0  0  0  0  0  0  0  0  0  0  0
    4.0772    0.2049   -0.7482 C   0  0  0  0  0  0  0  0  0  0  0  0
    4.7691    1.3630   -0.4678 C   0  0  0  0  0  0  0  0  0  0  0  0
    6.8636    3.1597   -0.6464 H   0  0  0  0  0  0  0  0  0  0  0  0
    6.7181    4.6226    0.3657 H   0  0  0  0  0  0  0  0  0  0  0  0
    5.2962    3.9971   -0.6015 H   0  0  0  0  0  0  0  0  0  0  0  0
    4.9273    1.1353    2.8371 H   0  0  0  0  0  0  0  0  0  0  0  0
    3.6796   -0.9592    2.3705 H   0  0  0  0  0  0  0  0  0  0  0  0
    4.6428   -2.9048   -0.8152 H   0  0  0  0  0  0  0  0  0  0  0  0
    3.0699   -3.7086   -0.9672 H   0  0  0  0  0  0  0  0  0  0  0  0
    4.5271   -3.2103    1.6285 H   0  0  0  0  0  0  0  0  0  0  0  0
    2.9348   -4.1084    1.4410 H   0  0  0  0  0  0  0  0  0  0  0  0
    3.9540   -5.7509    0.6095 H   0  0  0  0  0  0  0  0  0  0  0  0
    1.4333    0.2855    0.3691 H   0  0  0  0  0  0  0  0  0  0  0  0
   -0.8127   -0.9523    2.1619 H   0  0  0  0  0  0  0  0  0  0  0  0
   -3.2809   -0.8289    2.1675 H   0  0  0  0  0  0  0  0  0  0  0  0
   -7.2934   -2.4782    0.9040 H   0  0  0  0  0  0  0  0  0  0  0  0
   -8.5061    1.9819   -0.5712 H   0  0  0  0  0  0  0  0  0  0  0  0
   -6.6198    3.6807   -1.1670 H   0  0  0  0  0  0  0  0  0  0  0  0
   -3.2649    2.4194   -0.0666 H   0  0  0  0  0  0  0  0  0  0  0  0
   -4.1275    3.7813   -0.7418 H   0  0  0  0  0  0  0  0  0  0  0  0
   -3.6174    2.4546   -1.8768 H   0  0  0  0  0  0  0  0  0  0  0  0
   -3.1624    0.1412   -1.9815 H   0  0  0  0  0  0  0  0  0  0  0  0
   -0.6892    0.0232   -1.9619 H   0  0  0  0  0  0  0  0  0  0  0  0
    3.8523   -0.0255   -1.7999 H   0  0  0  0  0  0  0  0  0  0  0  0
    5.0808    2.0277   -1.2810 H   0  0  0  0  0  0  0  0  0  0  0  0
  1  2  1  0
  2  3  1  0
  3  4  2  0
  4  5  1  0
  5  6  2  0
  6  7  1  0
  7  8  1  0
  8  9  1  0
  9 10  1  0
  7 11  1  0
 11 12  2  0
 11 13  1  0
 13 14  1  0
 14 15  2  0
 15 16  1  0
 16 17  2  0
 17 18  1  0
 18 19  2  0
 19 20  1  0
 20 21  2  0
 21 22  1  0
 22 23  1  0
 23 24  1  0
 24 25  2  0
 25 26  1  0
 25 27  1  0
 17 28  1  0
 28 29  2  0
  6 30  1  0
 30 31  2  0
 31  3  1  0
 29 14  1  0
 27 18  1  0
 27 22  2  0
  1 32  1  0
  1 33  1  0
  1 34  1  0
  4 35  1  0
  5 36  1  0
  8 37  1  0
  8 38  1  0
  9 39  1  0
  9 40  1  0
 10 41  1  0
 13 42  1  0
 15 43  1  0
 16 44  1  0
 20 45  1  0
 23 46  1  0
 24 47  1  0
 26 48  1  0
 26 49  1  0
 26 50  1  0
 28 51  1  0
 29 52  1  0
 30 53  1  0
 31 54  1  0
M  END
$$$$
