
     RDKit          3D

 40 43  0  0  0  0  0  0  0  0999 V2000
   -0.9899    1.9557    1.8084 C   0  0  0  0  0  0  0  0  0  0  0  0
   -1.4556    0.7036    1.1166 C   0  0  0  0  0  0  0  0  0  0  0  0
   -0.8764   -0.5446    1.1910 C   0  0  0  0  0  0  0  0  0  0  0  0
    0.3317   -0.9423    1.9608 C   0  0  0  0  0  0  0  0  0  0  0  0
    1.5872   -0.5214    1.3426 C   0  0  0  0  0  0  0  0  0  0  0  0
    2.3374   -1.0924    0.5155 N   0  0  0  0  0  0  0  0  0  0  0  0
    3.4392   -0.5989    0.0409 C   0  0  0  0  0  0  0  0  0  0  0  0
    4.3250   -1.1824   -0.8863 C   0  0  0  0  0  0  0  0  0  0  0  0
    4.0769   -2.4173   -1.4041 F   0  0  0  0  0  0  0  0  0  0  0  0
    5.4442   -0.5302   -1.2854 C   0  0  0  0  0  0  0  0  0  0  0  0
    6.3265   -1.0776   -2.1905 F   0  0  0  0  0  0  0  0  0  0  0  0
    5.7982    0.7169   -0.8331 C   0  0  0  0  0  0  0  0  0  0  0  0
    4.9470    1.3100    0.0756 C   0  0  0  0  0  0  0  0  0  0  0  0
    5.1850    2.5517    0.6041 F   0  0  0  0  0  0  0  0  0  0  0  0
    3.8158    0.6664    0.4879 C   0  0  0  0  0  0  0  0  0  0  0  0
    2.4818    1.0294    1.5962 S   0  0  0  0  0  0  0  0  0  0  0  0
   -1.6665   -1.3519    0.3863 C   0  0  0  0  0  0  0  0  0  0  0  0
   -1.5593   -2.6912    0.0886 C   0  0  0  0  0  0  0  0  0  0  0  0
   -2.4842   -3.2757   -0.7533 C   0  0  0  0  0  0  0  0  0  0  0  0
   -3.5114   -2.5161   -1.2927 C   0  0  0  0  0  0  0  0  0  0  0  0
   -3.6465   -1.1736   -1.0144 C   0  0  0  0  0  0  0  0  0  0  0  0
   -2.6971   -0.6156   -0.1620 C   0  0  0  0  0  0  0  0  0  0  0  0
   -2.5402    0.6420    0.3052 N   0  0  0  0  0  0  0  0  0  0  0  0
   -3.3945    1.7414   -0.0119 C   0  0  0  0  0  0  0  0  0  0  0  0
   -2.9665    2.4934   -1.2023 C   0  0  0  0  0  0  0  0  0  0  0  0
   -3.6866    3.4944   -1.5356 O   0  0  0  0  0  0  0  0  0  0  0  0
   -1.8769    2.2310   -1.9888 O   0  0  0  0  0  0  0  0  0  0  0  0
   -0.5375    2.6687    1.0799 H   0  0  0  0  0  0  0  0  0  0  0  0
   -0.2829    1.6702    2.6067 H   0  0  0  0  0  0  0  0  0  0  0  0
   -1.8831    2.4126    2.3183 H   0  0  0  0  0  0  0  0  0  0  0  0
    0.3771   -2.0246    2.1439 H   0  0  0  0  0  0  0  0  0  0  0  0
    0.2971   -0.4694    2.9868 H   0  0  0  0  0  0  0  0  0  0  0  0
    6.6891    1.2355   -1.1511 H   0  0  0  0  0  0  0  0  0  0  0  0
   -0.7384   -3.2415    0.5354 H   0  0  0  0  0  0  0  0  0  0  0  0
   -2.4245   -4.3130   -1.0013 H   0  0  0  0  0  0  0  0  0  0  0  0
   -4.2328   -2.9836   -1.9526 H   0  0  0  0  0  0  0  0  0  0  0  0
   -4.4276   -0.5429   -1.4094 H   0  0  0  0  0  0  0  0  0  0  0  0
   -4.4312    1.3521   -0.1468 H   0  0  0  0  0  0  0  0  0  0  0  0
   -3.4810    2.4691    0.8341 H   0  0  0  0  0  0  0  0  0  0  0  0
   -1.6684    2.7621   -2.8455 H   0  0  0  0  0  0  0  0  0  0  0  0
  1  2  1  0
  2  3  2  0
  3  4  1  0
  4  5  1  0
  5  6  2  0
  6  7  1  0
  7  8  2  0
  8  9  1  0
  8 10  1  0
 10 11  1  0
 10 12  2  0
 12 13  1  0
 13 14  1  0
 13 15  2  0
 15 16  1  0
  3 17  1  0
 17 18  2  0
 18 19  1  0
 19 20  2  0
 20 21  1  0
 21 22  2  0
 22 23  1  0
 23 24  1  0
 24 25  1  0
 25 26  2  0
 25 27  1  0
 23  2  1  0
 16  5  1  0
 22 17  1  0
 15  7  1  0
  1 28  1  0
  1 29  1  0
  1 30  1  0
  4 31  1  0
  4 32  1  0
 12 33  1  0
 18 34  1  0
 19 35  1  0
 20 36  1  0
 21 37  1  0
 24 38  1  0
 24 39  1  0
 27 40  1  0
M  END
$$$$
