
     RDKit          3D

 22 23  0  0  0  0  0  0  0  0999 V2000
   -1.5221   -0.3607   -0.1250 C   0  0  1  0  0  0  0  0  0  0  0  0
   -2.7919   -1.1350   -0.3624 C   0  0  0  0  0  0  0  0  0  0  0  0
   -1.3891    0.0888    1.3124 C   0  0  0  0  0  0  0  0  0  0  0  0
   -0.6299    1.3235    1.3829 N   0  0  0  0  0  0  0  0  0  0  0  0
    0.5460    1.4605    0.8272 C   0  0  0  0  0  0  0  0  0  0  0  0
    1.2450    2.7018    0.9315 N   0  0  0  0  0  0  0  0  0  0  0  0
    1.3662    0.5567    0.0632 C   0  0  0  0  0  0  0  0  0  0  0  0
    0.9370   -0.6681   -0.5699 C   0  0  0  0  0  0  0  0  0  0  0  0
   -0.3875   -1.1533   -0.5155 O   0  0  0  0  0  0  0  0  0  0  0  0
    1.8428   -1.3906   -1.2498 C   0  0  0  0  0  0  0  0  0  0  0  0
    3.1564   -0.8463   -1.2654 C   0  0  0  0  0  0  0  0  0  0  0  0
    3.0346    0.7523   -0.2585 S   0  0  0  0  0  0  0  0  0  0  0  0
   -1.5647    0.5244   -0.7832 H   0  0  0  0  0  0  0  0  0  0  0  0
   -3.1104   -1.7072    0.5389 H   0  0  0  0  0  0  0  0  0  0  0  0
   -3.6063   -0.4153   -0.5876 H   0  0  0  0  0  0  0  0  0  0  0  0
   -2.6304   -1.7574   -1.2584 H   0  0  0  0  0  0  0  0  0  0  0  0
   -0.8615   -0.7325    1.8694 H   0  0  0  0  0  0  0  0  0  0  0  0
   -2.3852    0.2220    1.7824 H   0  0  0  0  0  0  0  0  0  0  0  0
    1.4367    3.1197    1.8792 H   0  0  0  0  0  0  0  0  0  0  0  0
    1.5481    3.1601    0.0267 H   0  0  0  0  0  0  0  0  0  0  0  0
    1.6932   -2.3158   -1.7736 H   0  0  0  0  0  0  0  0  0  0  0  0
    4.0729   -1.4277   -1.8643 H   0  0  0  0  0  0  0  0  0  0  0  0
  1  2  1  0
  1  3  1  0
  3  4  1  0
  4  5  2  0
  5  6  1  0
  5  7  1  0
  7  8  2  0
  8  9  1  0
  8 10  1  0
 10 11  2  0
 11 12  1  0
  9  1  1  0
 12  7  1  0
  1 13  1  6
  2 14  1  0
  2 15  1  0
  2 16  1  0
  3 17  1  0
  3 18  1  0
  6 19  1  0
  6 20  1  0
 10 21  1  0
 11 22  1  0
M  END
$$$$
