
     RDKit          3D

 47 50  0  0  0  0  0  0  0  0999 V2000
   -0.5432   -5.0993   -1.5578 N   0  0  0  0  0  0  0  0  0  0  0  0
    0.2018   -4.4191   -0.9934 C   0  0  0  0  0  0  0  0  0  0  0  0
    1.1159   -3.5538   -0.2808 C   0  0  0  0  0  0  0  0  0  0  0  0
    0.9848   -2.2189    0.0435 C   0  0  0  0  0  0  0  0  0  0  0  0
   -0.0186   -1.3389   -0.2027 N   0  0  0  0  0  0  0  0  0  0  0  0
    0.0760   -0.0579    0.2177 C   0  0  0  0  0  0  0  0  0  0  0  0
   -0.9801    0.8644   -0.0318 N   0  0  0  0  0  0  0  0  0  0  0  0
   -2.1595    0.4149   -0.7357 C   0  0  0  0  0  0  0  0  0  0  0  0
   -3.2073    1.5310   -0.8672 C   0  0  0  0  0  0  0  0  0  0  0  0
   -3.5823    1.9493    0.5055 C   0  0  0  0  0  0  0  0  0  0  0  0
   -5.0026    1.8281    0.9032 C   0  0  0  0  0  0  0  0  0  0  0  0
   -5.8536    0.8953    0.1155 C   0  0  0  0  0  0  0  0  0  0  0  0
   -5.1449    0.0629   -0.9029 C   0  0  0  0  0  0  0  0  0  0  0  0
   -4.3087    1.0152   -1.7280 C   0  0  0  0  0  0  0  0  0  0  0  0
    1.1898    0.2968    0.8782 N   0  0  0  0  0  0  0  0  0  0  0  0
    2.1966   -0.5872    1.1251 C   0  0  0  0  0  0  0  0  0  0  0  0
    3.3857   -0.2217    1.8243 N   0  0  0  0  0  0  0  0  0  0  0  0
    4.6061    0.1922    1.2206 C   0  0  0  0  0  0  0  0  0  0  0  0
    5.7369    0.5932    1.9100 C   0  0  0  0  0  0  0  0  0  0  0  0
    6.8676    0.9640    1.2045 C   0  0  0  0  0  0  0  0  0  0  0  0
    6.9298    0.9554   -0.1732 C   0  0  0  0  0  0  0  0  0  0  0  0
    5.7630    0.5434   -0.8158 C   0  0  0  0  0  0  0  0  0  0  0  0
    4.6085    0.1634   -0.1673 C   0  0  0  0  0  0  0  0  0  0  0  0
    2.0962   -1.8612    0.7042 N   0  0  0  0  0  0  0  0  0  0  0  0
    2.9134   -2.9118    0.8064 N   0  0  0  0  0  0  0  0  0  0  0  0
    2.3349   -3.9791    0.2052 C   0  0  0  0  0  0  0  0  0  0  0  0
   -0.8597    1.8520    0.3117 H   0  0  0  0  0  0  0  0  0  0  0  0
   -2.5619   -0.4731   -0.2170 H   0  0  0  0  0  0  0  0  0  0  0  0
   -1.8154    0.0738   -1.7475 H   0  0  0  0  0  0  0  0  0  0  0  0
   -2.6885    2.3509   -1.4464 H   0  0  0  0  0  0  0  0  0  0  0  0
   -3.3201    3.0484    0.5853 H   0  0  0  0  0  0  0  0  0  0  0  0
   -2.9108    1.4875    1.2843 H   0  0  0  0  0  0  0  0  0  0  0  0
   -5.0293    1.4315    1.9656 H   0  0  0  0  0  0  0  0  0  0  0  0
   -5.4940    2.8444    1.0289 H   0  0  0  0  0  0  0  0  0  0  0  0
   -6.5127    0.2588    0.7483 H   0  0  0  0  0  0  0  0  0  0  0  0
   -6.5744    1.5388   -0.4714 H   0  0  0  0  0  0  0  0  0  0  0  0
   -5.9375   -0.3729   -1.5604 H   0  0  0  0  0  0  0  0  0  0  0  0
   -4.5669   -0.7102   -0.3783 H   0  0  0  0  0  0  0  0  0  0  0  0
   -3.9076    0.4848   -2.6068 H   0  0  0  0  0  0  0  0  0  0  0  0
   -4.9762    1.8613   -1.9944 H   0  0  0  0  0  0  0  0  0  0  0  0
    3.2710   -0.2880    2.8643 H   0  0  0  0  0  0  0  0  0  0  0  0
    5.6849    0.5989    3.0038 H   0  0  0  0  0  0  0  0  0  0  0  0
    7.7155    1.2655    1.7994 H   0  0  0  0  0  0  0  0  0  0  0  0
    7.8192    1.2472   -0.7166 H   0  0  0  0  0  0  0  0  0  0  0  0
    5.8243    0.5403   -1.9065 H   0  0  0  0  0  0  0  0  0  0  0  0
    3.7921   -0.1291   -0.8182 H   0  0  0  0  0  0  0  0  0  0  0  0
    2.8421   -4.9315    0.1816 H   0  0  0  0  0  0  0  0  0  0  0  0
  1  2  3  0
  2  3  1  0
  3  4  2  0
  4  5  1  0
  5  6  2  0
  6  7  1  0
  7  8  1  0
  8  9  1  0
  9 10  1  0
 10 11  1  0
 11 12  1  0
 12 13  1  0
 13 14  1  0
  6 15  1  0
 15 16  2  0
 16 17  1  0
 17 18  1  0
 18 19  2  0
 19 20  1  0
 20 21  2  0
 21 22  1  0
 22 23  2  0
 16 24  1  0
 24 25  1  0
 25 26  2  0
 26  3  1  0
 24  4  1  0
 14  9  1  0
 23 18  1  0
  7 27  1  0
  8 28  1  0
  8 29  1  0
  9 30  1  0
 10 31  1  0
 10 32  1  0
 11 33  1  0
 11 34  1  0
 12 35  1  0
 12 36  1  0
 13 37  1  0
 13 38  1  0
 14 39  1  0
 14 40  1  0
 17 41  1  0
 19 42  1  0
 20 43  1  0
 21 44  1  0
 22 45  1  0
 23 46  1  0
 26 47  1  0
M  END
$$$$
