
     RDKit          3D

 59 63  0  0  0  0  0  0  0  0999 V2000
    1.7293    4.3593   -0.5847 I   0  0  0  0  0  0  0  0  0  0  0  0
    2.7477    3.1453    0.7975 C   0  0  0  0  0  0  0  0  0  0  0  0
    3.4895    3.7590    1.7749 C   0  0  0  0  0  0  0  0  0  0  0  0
    4.1537    2.9529    2.6773 C   0  0  0  0  0  0  0  0  0  0  0  0
    4.0934    1.5774    2.6248 C   0  0  0  0  0  0  0  0  0  0  0  0
    3.3447    0.9590    1.6385 C   0  0  0  0  0  0  0  0  0  0  0  0
    2.6879    1.7454    0.7462 C   0  0  0  0  0  0  0  0  0  0  0  0
    1.8418    1.2148   -0.3761 C   0  0  0  0  0  0  0  0  0  0  0  0
    1.7881   -0.1752   -0.4461 N   0  0  0  0  0  0  0  0  0  0  0  0
    1.0355   -0.8860   -1.3562 C   0  0  2  0  0  0  0  0  0  0  0  0
    1.1205   -0.5276   -2.8287 C   0  0  0  0  0  0  0  0  0  0  0  0
    0.2708   -1.6446   -3.4917 C   0  0  0  0  0  0  0  0  0  0  0  0
   -1.2069   -1.3820   -3.2406 C   0  0  0  0  0  0  0  0  0  0  0  0
   -1.2769   -0.5638   -2.0061 N   0  0  0  0  0  0  0  0  0  0  0  0
   -0.8988    0.7482   -2.4391 C   0  0  0  0  0  0  0  0  0  0  0  0
    0.4082    0.7157   -3.2220 C   0  0  0  0  0  0  0  0  0  0  0  0
   -0.4052   -1.2208   -1.0762 C   0  0  2  0  0  0  0  0  0  0  0  0
   -0.8111   -1.2860    0.3423 C   0  0  0  0  0  0  0  0  0  0  0  0
   -0.7151   -0.1132    1.1916 C   0  0  0  0  0  0  0  0  0  0  0  0
    0.1719   -0.0924    2.2508 C   0  0  0  0  0  0  0  0  0  0  0  0
    0.3024    0.9635    3.1218 C   0  0  0  0  0  0  0  0  0  0  0  0
   -0.5013    2.0684    2.9253 C   0  0  0  0  0  0  0  0  0  0  0  0
   -1.3953    2.0999    1.8933 C   0  0  0  0  0  0  0  0  0  0  0  0
   -1.4881    1.0179    1.0493 C   0  0  0  0  0  0  0  0  0  0  0  0
   -2.1388   -1.9055    0.5997 C   0  0  0  0  0  0  0  0  0  0  0  0
   -3.2813   -1.5348   -0.0787 C   0  0  0  0  0  0  0  0  0  0  0  0
   -4.4970   -2.1417    0.2046 C   0  0  0  0  0  0  0  0  0  0  0  0
   -4.5584   -3.1174    1.1682 C   0  0  0  0  0  0  0  0  0  0  0  0
   -3.4355   -3.5180    1.8717 C   0  0  0  0  0  0  0  0  0  0  0  0
   -2.2492   -2.8880    1.5571 C   0  0  0  0  0  0  0  0  0  0  0  0
    3.5705    4.8329    1.8611 H   0  0  0  0  0  0  0  0  0  0  0  0
    4.7457    3.4351    3.4571 H   0  0  0  0  0  0  0  0  0  0  0  0
    4.6060    0.9438    3.3216 H   0  0  0  0  0  0  0  0  0  0  0  0
    3.2580   -0.1084    1.5487 H   0  0  0  0  0  0  0  0  0  0  0  0
    0.8981    1.7740   -0.2943 H   0  0  0  0  0  0  0  0  0  0  0  0
    2.3570    1.6988   -1.2728 H   0  0  0  0  0  0  0  0  0  0  0  0
    2.7911   -0.5386   -0.3523 H   0  0  0  0  0  0  0  0  0  0  0  0
    1.5820   -1.9329   -1.4017 H   0  0  0  0  0  0  0  0  0  0  0  0
    2.1210   -0.6612   -3.2535 H   0  0  0  0  0  0  0  0  0  0  0  0
    0.4695   -1.5483   -4.5958 H   0  0  0  0  0  0  0  0  0  0  0  0
    0.6090   -2.6171   -3.1319 H   0  0  0  0  0  0  0  0  0  0  0  0
   -1.6485   -2.3945   -3.0125 H   0  0  0  0  0  0  0  0  0  0  0  0
   -1.7153   -0.9066   -4.0761 H   0  0  0  0  0  0  0  0  0  0  0  0
   -0.9647    1.5540   -1.7201 H   0  0  0  0  0  0  0  0  0  0  0  0
   -1.6798    1.0277   -3.2208 H   0  0  0  0  0  0  0  0  0  0  0  0
    0.9263    1.6605   -3.1306 H   0  0  0  0  0  0  0  0  0  0  0  0
    0.2016    0.6072   -4.3344 H   0  0  0  0  0  0  0  0  0  0  0  0
   -0.5174   -2.3289   -1.4042 H   0  0  0  0  0  0  0  0  0  0  0  0
   -0.0816   -2.0939    0.7708 H   0  0  0  0  0  0  0  0  0  0  0  0
    0.8252   -0.9460    2.4403 H   0  0  0  0  0  0  0  0  0  0  0  0
    1.0269    0.9194    3.9457 H   0  0  0  0  0  0  0  0  0  0  0  0
   -0.4052    2.9062    3.6072 H   0  0  0  0  0  0  0  0  0  0  0  0
   -2.0019    2.9943    1.7856 H   0  0  0  0  0  0  0  0  0  0  0  0
   -2.2023    1.0726    0.2513 H   0  0  0  0  0  0  0  0  0  0  0  0
   -3.2658   -0.7631   -0.8438 H   0  0  0  0  0  0  0  0  0  0  0  0
   -5.3734   -1.8126   -0.3610 H   0  0  0  0  0  0  0  0  0  0  0  0
   -5.5216   -3.5854    1.3802 H   0  0  0  0  0  0  0  0  0  0  0  0
   -3.5483   -4.2855    2.6127 H   0  0  0  0  0  0  0  0  0  0  0  0
   -1.3888   -3.2335    2.1349 H   0  0  0  0  0  0  0  0  0  0  0  0
  1  2  1  0
  2  3  2  0
  3  4  1  0
  4  5  2  0
  5  6  1  0
  6  7  2  0
  7  8  1  0
  8  9  1  0
  9 10  1  0
 10 11  1  0
 11 12  1  0
 12 13  1  0
 13 14  1  0
 14 15  1  0
 15 16  1  0
 14 17  1  0
 17 18  1  0
 18 19  1  0
 19 20  2  0
 20 21  1  0
 21 22  2  0
 22 23  1  0
 23 24  2  0
 18 25  1  0
 25 26  2  0
 26 27  1  0
 27 28  2  0
 28 29  1  0
 29 30  2  0
  7  2  1  0
 17 10  1  0
 24 19  1  0
 30 25  1  0
 16 11  1  0
  3 31  1  0
  4 32  1  0
  5 33  1  0
  6 34  1  0
  8 35  1  0
  8 36  1  0
  9 37  1  0
 10 38  1  6
 11 39  1  0
 12 40  1  0
 12 41  1  0
 13 42  1  0
 13 43  1  0
 15 44  1  0
 15 45  1  0
 16 46  1  0
 16 47  1  0
 17 48  1  6
 18 49  1  0
 20 50  1  0
 21 51  1  0
 22 52  1  0
 23 53  1  0
 24 54  1  0
 26 55  1  0
 27 56  1  0
 28 57  1  0
 29 58  1  0
 30 59  1  0
M  END
$$$$
