
     RDKit          3D

 68 72  0  0  0  0  0  0  0  0999 V2000
    8.0541   -0.8677    0.9809 C   0  0  0  0  0  0  0  0  0  0  0  0
    7.2292    0.1482    0.2388 C   0  0  0  0  0  0  0  0  0  0  0  0
    7.3526    1.4903    0.9151 C   0  0  0  0  0  0  0  0  0  0  0  0
    7.8723    0.3029   -1.1455 C   0  0  0  0  0  0  0  0  0  0  0  0
    5.9074   -0.2447    0.0274 O   0  0  0  0  0  0  0  0  0  0  0  0
    4.9954   -0.5460    1.0286 C   0  0  0  0  0  0  0  0  0  0  0  0
    5.4281   -0.4467    2.2166 O   0  0  0  0  0  0  0  0  0  0  0  0
    3.6567   -0.9422    0.7507 N   0  0  0  0  0  0  0  0  0  0  0  0
    2.7423   -1.2463    1.8312 C   0  0  0  0  0  0  0  0  0  0  0  0
    1.3834   -0.7508    1.4219 C   0  0  0  0  0  0  0  0  0  0  0  0
    0.8508   -1.3985    0.1772 C   0  0  0  0  0  0  0  0  0  0  0  0
    0.0443   -0.4206   -0.5299 N   0  0  0  0  0  0  0  0  0  0  0  0
    0.4054    0.4972   -1.3961 N   0  0  0  0  0  0  0  0  0  0  0  0
   -0.6301    1.2162   -1.8358 C   0  0  0  0  0  0  0  0  0  0  0  0
   -1.7494    0.7311   -1.2097 C   0  0  0  0  0  0  0  0  0  0  0  0
   -3.0987    1.0476   -1.2414 C   0  0  0  0  0  0  0  0  0  0  0  0
   -3.4885    2.1115   -2.0987 N   0  0  0  0  0  0  0  0  0  0  0  0
   -2.9393    3.4377   -1.8937 C   0  0  0  0  0  0  0  0  0  0  0  0
   -4.0990    4.3540   -1.5526 C   0  0  0  0  0  0  0  0  0  0  0  0
   -5.2959    3.8539   -2.0114 O   0  0  0  0  0  0  0  0  0  0  0  0
   -5.2037    3.2670   -3.2744 C   0  0  0  0  0  0  0  0  0  0  0  0
   -4.4233    1.9655   -3.1970 C   0  0  0  0  0  0  0  0  0  0  0  0
   -3.9265    0.3476   -0.4809 N   0  0  0  0  0  0  0  0  0  0  0  0
   -3.5334   -0.6670    0.3330 C   0  0  0  0  0  0  0  0  0  0  0  0
   -4.4764   -1.4070    1.1491 C   0  0  0  0  0  0  0  0  0  0  0  0
   -5.8199   -1.1334    1.1529 C   0  0  0  0  0  0  0  0  0  0  0  0
   -6.7218   -1.8449    1.9366 C   0  0  0  0  0  0  0  0  0  0  0  0
   -6.2278   -2.8711    2.7428 C   0  0  0  0  0  0  0  0  0  0  0  0
   -7.1456   -3.5854    3.5318 N   0  0  0  0  0  0  0  0  0  0  0  0
   -4.8832   -3.1597    2.7519 C   0  0  0  0  0  0  0  0  0  0  0  0
   -4.0140   -2.4248    1.9538 C   0  0  0  0  0  0  0  0  0  0  0  0
   -2.2179   -0.9468    0.3389 N   0  0  0  0  0  0  0  0  0  0  0  0
   -1.3022   -0.2933   -0.3971 C   0  0  0  0  0  0  0  0  0  0  0  0
    1.9480   -1.9048   -0.7204 C   0  0  0  0  0  0  0  0  0  0  0  0
    3.1864   -1.0488   -0.5935 C   0  0  0  0  0  0  0  0  0  0  0  0
    7.7782   -1.8996    0.6714 H   0  0  0  0  0  0  0  0  0  0  0  0
    9.1156   -0.7339    0.6596 H   0  0  0  0  0  0  0  0  0  0  0  0
    8.0073   -0.7173    2.0790 H   0  0  0  0  0  0  0  0  0  0  0  0
    6.6383    2.2126    0.4297 H   0  0  0  0  0  0  0  0  0  0  0  0
    7.1303    1.3775    1.9931 H   0  0  0  0  0  0  0  0  0  0  0  0
    8.4015    1.8283    0.7718 H   0  0  0  0  0  0  0  0  0  0  0  0
    7.6463   -0.6651   -1.6686 H   0  0  0  0  0  0  0  0  0  0  0  0
    8.9425    0.5144   -1.0816 H   0  0  0  0  0  0  0  0  0  0  0  0
    7.3055    1.0784   -1.7062 H   0  0  0  0  0  0  0  0  0  0  0  0
    3.0230   -0.7134    2.7560 H   0  0  0  0  0  0  0  0  0  0  0  0
    2.7143   -2.3272    2.0679 H   0  0  0  0  0  0  0  0  0  0  0  0
    1.4669    0.3393    1.2320 H   0  0  0  0  0  0  0  0  0  0  0  0
    0.6260   -0.9423    2.2316 H   0  0  0  0  0  0  0  0  0  0  0  0
    0.1953   -2.2715    0.4019 H   0  0  0  0  0  0  0  0  0  0  0  0
   -0.6669    2.0354   -2.5437 H   0  0  0  0  0  0  0  0  0  0  0  0
   -2.5481    3.8032   -2.8847 H   0  0  0  0  0  0  0  0  0  0  0  0
   -2.1503    3.4507   -1.1176 H   0  0  0  0  0  0  0  0  0  0  0  0
   -4.1702    4.3767   -0.4269 H   0  0  0  0  0  0  0  0  0  0  0  0
   -3.9600    5.3683   -1.9578 H   0  0  0  0  0  0  0  0  0  0  0  0
   -4.7124    3.9652   -3.9836 H   0  0  0  0  0  0  0  0  0  0  0  0
   -6.2225    3.0596   -3.6377 H   0  0  0  0  0  0  0  0  0  0  0  0
   -5.0705    1.0828   -3.0935 H   0  0  0  0  0  0  0  0  0  0  0  0
   -3.8169    1.9020   -4.1370 H   0  0  0  0  0  0  0  0  0  0  0  0
   -6.2054   -0.3416    0.5318 H   0  0  0  0  0  0  0  0  0  0  0  0
   -7.7802   -1.6450    1.9532 H   0  0  0  0  0  0  0  0  0  0  0  0
   -7.2838   -4.6107    3.4300 H   0  0  0  0  0  0  0  0  0  0  0  0
   -7.7100   -3.0850    4.2430 H   0  0  0  0  0  0  0  0  0  0  0  0
   -4.5350   -3.9541    3.3821 H   0  0  0  0  0  0  0  0  0  0  0  0
   -2.9528   -2.6933    1.9966 H   0  0  0  0  0  0  0  0  0  0  0  0
    1.6162   -1.8466   -1.7763 H   0  0  0  0  0  0  0  0  0  0  0  0
    2.2445   -2.9439   -0.4990 H   0  0  0  0  0  0  0  0  0  0  0  0
    3.0805   -0.0561   -1.0352 H   0  0  0  0  0  0  0  0  0  0  0  0
    3.9931   -1.5681   -1.1826 H   0  0  0  0  0  0  0  0  0  0  0  0
  1  2  1  0
  2  3  1  0
  2  4  1  0
  2  5  1  0
  5  6  1  0
  6  7  2  0
  6  8  1  0
  8  9  1  0
  9 10  1  0
 10 11  1  0
 11 12  1  0
 12 13  1  0
 13 14  2  0
 14 15  1  0
 15 16  2  0
 16 17  1  0
 17 18  1  0
 18 19  1  0
 19 20  1  0
 20 21  1  0
 21 22  1  0
 16 23  1  0
 23 24  2  0
 24 25  1  0
 25 26  2  0
 26 27  1  0
 27 28  2  0
 28 29  1  0
 28 30  1  0
 30 31  2  0
 24 32  1  0
 32 33  2  0
 11 34  1  0
 34 35  1  0
 35  8  1  0
 33 12  1  0
 33 15  1  0
 22 17  1  0
 31 25  1  0
  1 36  1  0
  1 37  1  0
  1 38  1  0
  3 39  1  0
  3 40  1  0
  3 41  1  0
  4 42  1  0
  4 43  1  0
  4 44  1  0
  9 45  1  0
  9 46  1  0
 10 47  1  0
 10 48  1  0
 11 49  1  0
 14 50  1  0
 18 51  1  0
 18 52  1  0
 19 53  1  0
 19 54  1  0
 21 55  1  0
 21 56  1  0
 22 57  1  0
 22 58  1  0
 26 59  1  0
 27 60  1  0
 29 61  1  0
 29 62  1  0
 30 63  1  0
 31 64  1  0
 34 65  1  0
 34 66  1  0
 35 67  1  0
 35 68  1  0
M  END
$$$$
