
     RDKit          3D

 41 42  0  0  0  0  0  0  0  0999 V2000
   -5.6056    0.8121    1.9916 C   0  0  0  0  0  0  0  0  0  0  0  0
   -5.0348    0.1905    0.7136 C   0  0  2  0  0  0  0  0  0  0  0  0
   -3.5980    0.2917    0.7079 N   0  0  0  0  0  0  0  0  0  0  0  0
   -3.0209   -0.4472   -0.3637 C   0  0  0  0  0  0  0  0  0  0  0  0
   -1.5239   -0.3422   -0.3801 C   0  0  0  0  0  0  0  0  0  0  0  0
   -0.8656    0.6514   -1.0773 C   0  0  0  0  0  0  0  0  0  0  0  0
    0.5122    0.7437   -1.0892 C   0  0  0  0  0  0  0  0  0  0  0  0
    1.3001   -0.1544   -0.4035 C   0  0  0  0  0  0  0  0  0  0  0  0
    2.6945   -0.0612   -0.4154 O   0  0  0  0  0  0  0  0  0  0  0  0
    3.5334   -0.9424    0.2600 C   0  0  0  0  0  0  0  0  0  0  0  0
    4.9399   -0.5231    0.0110 C   0  0  0  0  0  0  0  0  0  0  0  0
    5.5323    0.3612    0.8555 C   0  0  0  0  0  0  0  0  0  0  0  0
    6.8323    0.7552    0.6340 C   0  0  0  0  0  0  0  0  0  0  0  0
    7.5174    0.2455   -0.4450 C   0  0  0  0  0  0  0  0  0  0  0  0
    6.9287   -0.6491   -1.3054 C   0  0  0  0  0  0  0  0  0  0  0  0
    7.5990   -1.1460   -2.3586 F   0  0  0  0  0  0  0  0  0  0  0  0
    5.6445   -1.0213   -1.0638 C   0  0  0  0  0  0  0  0  0  0  0  0
    0.6467   -1.1475    0.2935 C   0  0  0  0  0  0  0  0  0  0  0  0
   -0.7310   -1.2410    0.3064 C   0  0  0  0  0  0  0  0  0  0  0  0
   -5.6640    0.9083   -0.4445 C   0  0  0  0  0  0  0  0  0  0  0  0
   -7.0699    0.8506   -0.6193 N   0  0  0  0  0  0  0  0  0  0  0  0
   -4.9576    1.5478   -1.2433 O   0  0  0  0  0  0  0  0  0  0  0  0
   -5.6798    1.9125    1.8638 H   0  0  0  0  0  0  0  0  0  0  0  0
   -6.5984    0.3357    2.1416 H   0  0  0  0  0  0  0  0  0  0  0  0
   -4.9625    0.5247    2.8328 H   0  0  0  0  0  0  0  0  0  0  0  0
   -5.3314   -0.8663    0.7013 H   0  0  0  0  0  0  0  0  0  0  0  0
   -3.3431    1.3028    0.6968 H   0  0  0  0  0  0  0  0  0  0  0  0
   -3.4565   -0.1333   -1.3243 H   0  0  0  0  0  0  0  0  0  0  0  0
   -3.3144   -1.5382   -0.2756 H   0  0  0  0  0  0  0  0  0  0  0  0
   -1.4992    1.3577   -1.6171 H   0  0  0  0  0  0  0  0  0  0  0  0
    1.0107    1.5286   -1.6408 H   0  0  0  0  0  0  0  0  0  0  0  0
    3.3623   -1.9755   -0.1601 H   0  0  0  0  0  0  0  0  0  0  0  0
    3.2980   -0.9322    1.3426 H   0  0  0  0  0  0  0  0  0  0  0  0
    5.0120    0.7811    1.7189 H   0  0  0  0  0  0  0  0  0  0  0  0
    7.3349    1.4635    1.2943 H   0  0  0  0  0  0  0  0  0  0  0  0
    8.5402    0.5438   -0.6348 H   0  0  0  0  0  0  0  0  0  0  0  0
    5.1503   -1.7296   -1.7289 H   0  0  0  0  0  0  0  0  0  0  0  0
    1.2671   -1.8527    0.8320 H   0  0  0  0  0  0  0  0  0  0  0  0
   -1.2428   -2.0300    0.8605 H   0  0  0  0  0  0  0  0  0  0  0  0
   -7.4477    0.2147   -1.3764 H   0  0  0  0  0  0  0  0  0  0  0  0
   -7.7091    1.4103   -0.0281 H   0  0  0  0  0  0  0  0  0  0  0  0
  1  2  1  0
  2  3  1  0
  3  4  1  0
  4  5  1  0
  5  6  2  0
  6  7  1  0
  7  8  2  0
  8  9  1  0
  9 10  1  0
 10 11  1  0
 11 12  2  0
 12 13  1  0
 13 14  2  0
 14 15  1  0
 15 16  1  0
 15 17  2  0
  8 18  1  0
 18 19  2  0
  2 20  1  0
 20 21  1  0
 20 22  2  0
 19  5  1  0
 17 11  1  0
  1 23  1  0
  1 24  1  0
  1 25  1  0
  2 26  1  6
  3 27  1  0
  4 28  1  0
  4 29  1  0
  6 30  1  0
  7 31  1  0
 10 32  1  0
 10 33  1  0
 12 34  1  0
 13 35  1  0
 14 36  1  0
 17 37  1  0
 18 38  1  0
 19 39  1  0
 21 40  1  0
 21 41  1  0
M  END
$$$$
