
     RDKit          3D

 54 56  0  0  0  0  0  0  0  0999 V2000
   -3.3588   -3.0981   -0.5506 N   0  0  0  0  0  0  0  0  0  0  0  0
   -2.8447   -1.8049   -0.0982 C   0  0  2  0  0  0  0  0  0  0  0  0
   -4.0082   -0.8849   -0.1047 C   0  0  0  0  0  0  0  0  0  0  0  0
   -4.9516   -1.1968   -0.9088 O   0  0  0  0  0  0  0  0  0  0  0  0
   -4.1091    0.2620    0.7065 N   0  0  0  0  0  0  0  0  0  0  0  0
   -3.1399    0.7252    1.6674 C   0  0  0  0  0  0  0  0  0  0  0  0
   -4.0576    1.2801    2.7586 C   0  0  0  0  0  0  0  0  0  0  0  0
   -5.0646    2.0371    1.9236 C   0  0  0  0  0  0  0  0  0  0  0  0
   -5.2519    1.1799    0.7153 C   0  0  0  0  0  0  0  0  0  0  0  0
   -1.7944   -1.3185   -1.0711 C   0  0  1  0  0  0  0  0  0  0  0  0
   -1.1702   -0.0000   -0.7180 C   0  0  0  0  0  0  0  0  0  0  0  0
    0.0729   -0.0291   -1.6382 C   0  0  0  0  0  0  0  0  0  0  0  0
    0.6132   -1.3961   -1.2747 C   0  0  2  0  0  0  0  0  0  0  0  0
    1.5716   -1.8834   -2.2098 N   0  0  0  0  0  0  0  0  0  0  0  0
    3.0569   -2.1907   -1.3872 S   0  0  0  0  0  6  0  0  0  0  0  0
    2.8145   -3.2090   -0.2819 O   0  0  0  0  0  0  0  0  0  0  0  0
    4.0719   -2.8253   -2.3101 O   0  0  0  0  0  0  0  0  0  0  0  0
    3.7444   -0.7762   -0.6709 C   0  0  0  0  0  0  0  0  0  0  0  0
    4.5887    0.0042   -1.4372 C   0  0  0  0  0  0  0  0  0  0  0  0
    5.1709    1.1368   -0.9379 C   0  0  0  0  0  0  0  0  0  0  0  0
    4.8983    1.4958    0.3656 C   0  0  0  0  0  0  0  0  0  0  0  0
    5.6463    2.9396    0.9875 S   0  0  0  0  0  6  0  0  0  0  0  0
    4.6085    4.2791    0.6741 N   0  0  0  0  0  0  0  0  0  0  0  0
    5.8342    2.7461    2.4770 O   0  0  0  0  0  0  0  0  0  0  0  0
    7.0093    3.1248    0.3868 O   0  0  0  0  0  0  0  0  0  0  0  0
    4.0665    0.7514    1.1630 C   0  0  0  0  0  0  0  0  0  0  0  0
    3.4970   -0.3882    0.6201 C   0  0  0  0  0  0  0  0  0  0  0  0
   -0.6526   -2.2618   -1.2708 C   0  0  0  0  0  0  0  0  0  0  0  0
   -2.6944   -3.8727   -0.3516 H   0  0  0  0  0  0  0  0  0  0  0  0
   -3.6721   -3.0619   -1.5409 H   0  0  0  0  0  0  0  0  0  0  0  0
   -2.3884   -1.9391    0.8810 H   0  0  0  0  0  0  0  0  0  0  0  0
   -2.4911    1.5400    1.2702 H   0  0  0  0  0  0  0  0  0  0  0  0
   -2.5660   -0.1195    2.0645 H   0  0  0  0  0  0  0  0  0  0  0  0
   -4.5085    0.4593    3.3193 H   0  0  0  0  0  0  0  0  0  0  0  0
   -3.4812    1.9991    3.3701 H   0  0  0  0  0  0  0  0  0  0  0  0
   -6.0396    2.0940    2.4726 H   0  0  0  0  0  0  0  0  0  0  0  0
   -4.6609    3.0461    1.6968 H   0  0  0  0  0  0  0  0  0  0  0  0
   -6.2105    0.6092    0.7725 H   0  0  0  0  0  0  0  0  0  0  0  0
   -5.2691    1.7261   -0.2389 H   0  0  0  0  0  0  0  0  0  0  0  0
   -2.3137   -1.1420   -2.0615 H   0  0  0  0  0  0  0  0  0  0  0  0
   -1.7928    0.8731   -0.9192 H   0  0  0  0  0  0  0  0  0  0  0  0
   -0.7289   -0.0152    0.3202 H   0  0  0  0  0  0  0  0  0  0  0  0
   -0.3088    0.0057   -2.6648 H   0  0  0  0  0  0  0  0  0  0  0  0
    0.7745    0.7792   -1.3749 H   0  0  0  0  0  0  0  0  0  0  0  0
    1.0484   -1.3385   -0.2735 H   0  0  0  0  0  0  0  0  0  0  0  0
    1.2962   -2.7590   -2.6920 H   0  0  0  0  0  0  0  0  0  0  0  0
    4.7944   -0.2859   -2.4537 H   0  0  0  0  0  0  0  0  0  0  0  0
    5.8278    1.7131   -1.5885 H   0  0  0  0  0  0  0  0  0  0  0  0
    5.1181    5.0488    0.2158 H   0  0  0  0  0  0  0  0  0  0  0  0
    4.0120    4.5417    1.4665 H   0  0  0  0  0  0  0  0  0  0  0  0
    3.8303    1.0078    2.1968 H   0  0  0  0  0  0  0  0  0  0  0  0
    2.8389   -0.9787    1.2575 H   0  0  0  0  0  0  0  0  0  0  0  0
   -0.7480   -2.7506   -2.2659 H   0  0  0  0  0  0  0  0  0  0  0  0
   -0.5278   -2.9853   -0.4540 H   0  0  0  0  0  0  0  0  0  0  0  0
  1  2  1  0
  2  3  1  0
  3  4  2  0
  3  5  1  0
  5  6  1  0
  6  7  1  0
  7  8  1  0
  8  9  1  0
  2 10  1  0
 10 11  1  0
 11 12  1  0
 12 13  1  0
 13 14  1  0
 14 15  1  0
 15 16  2  0
 15 17  2  0
 15 18  1  0
 18 19  2  0
 19 20  1  0
 20 21  2  0
 21 22  1  0
 22 23  1  0
 22 24  2  0
 22 25  2  0
 21 26  1  0
 26 27  2  0
 13 28  1  0
  9  5  1  0
 28 10  1  0
 27 18  1  0
  1 29  1  0
  1 30  1  0
  2 31  1  1
  6 32  1  0
  6 33  1  0
  7 34  1  0
  7 35  1  0
  8 36  1  0
  8 37  1  0
  9 38  1  0
  9 39  1  0
 10 40  1  6
 11 41  1  0
 11 42  1  0
 12 43  1  0
 12 44  1  0
 13 45  1  1
 14 46  1  0
 19 47  1  0
 20 48  1  0
 23 49  1  0
 23 50  1  0
 26 51  1  0
 27 52  1  0
 28 53  1  0
 28 54  1  0
M  END
$$$$
