
     RDKit          3D

 30 29  0  0  0  0  0  0  0  0999 V2000
    1.0302   -2.1686    0.2790 C   0  0  0  0  0  0  0  0  0  0  0  0
    0.6161   -3.3133    0.5129 O   0  0  0  0  0  0  0  0  0  0  0  0
    1.0584   -0.7950   -0.2977 C   0  0  2  0  0  0  0  0  0  0  0  0
    2.2540   -0.1619    0.1835 N   0  0  0  0  0  0  0  0  0  0  0  0
    3.3951    0.3666   -0.5210 C   0  0  0  0  0  0  0  0  0  0  0  0
    4.4983    0.9734    0.2701 C   0  0  0  0  0  0  0  0  0  0  0  0
    3.4539    0.3141   -1.7817 O   0  0  0  0  0  0  0  0  0  0  0  0
   -0.1767    0.0020    0.0856 C   0  0  1  0  0  0  0  0  0  0  0  0
   -0.0494    1.2607   -0.4866 O   0  0  0  0  0  0  0  0  0  0  0  0
   -1.3597   -0.6824   -0.5424 C   0  0  2  0  0  0  0  0  0  0  0  0
   -1.1235   -0.7820   -1.9005 O   0  0  0  0  0  0  0  0  0  0  0  0
   -2.6223    0.1360   -0.3642 C   0  0  2  0  0  0  0  0  0  0  0  0
   -2.4665    1.3914   -0.9096 O   0  0  0  0  0  0  0  0  0  0  0  0
   -2.9951    0.1889    1.1050 C   0  0  0  0  0  0  0  0  0  0  0  0
   -4.1881    0.8753    1.2164 O   0  0  0  0  0  0  0  0  0  0  0  0
    0.6495   -3.1601    0.4676 H   0  0  0  0  0  0  0  0  0  0  0  0
    1.0801   -0.8573   -1.4218 H   0  0  0  0  0  0  0  0  0  0  0  0
    2.2436   -0.0982    1.2424 H   0  0  0  0  0  0  0  0  0  0  0  0
    4.4627    0.5603    1.2945 H   0  0  0  0  0  0  0  0  0  0  0  0
    4.3524    2.0681    0.3681 H   0  0  0  0  0  0  0  0  0  0  0  0
    5.4839    0.7391   -0.1850 H   0  0  0  0  0  0  0  0  0  0  0  0
   -0.2567    0.0864    1.1761 H   0  0  0  0  0  0  0  0  0  0  0  0
   -0.2061    1.1549   -1.4573 H   0  0  0  0  0  0  0  0  0  0  0  0
   -1.5833   -1.6613   -0.0722 H   0  0  0  0  0  0  0  0  0  0  0  0
   -1.4364   -1.6199   -2.3075 H   0  0  0  0  0  0  0  0  0  0  0  0
   -3.4433   -0.4477   -0.8566 H   0  0  0  0  0  0  0  0  0  0  0  0
   -2.9101    2.0761   -0.3557 H   0  0  0  0  0  0  0  0  0  0  0  0
   -3.1657   -0.8539    1.4139 H   0  0  0  0  0  0  0  0  0  0  0  0
   -2.2125    0.6859    1.6846 H   0  0  0  0  0  0  0  0  0  0  0  0
   -4.3828    1.0079    2.1604 H   0  0  0  0  0  0  0  0  0  0  0  0
  1  2  2  0
  1  3  1  0
  3  4  1  0
  4  5  1  0
  5  6  1  0
  5  7  2  0
  3  8  1  0
  8  9  1  0
  8 10  1  0
 10 11  1  0
 10 12  1  0
 12 13  1  0
 12 14  1  0
 14 15  1  0
  1 16  1  0
  3 17  1  6
  4 18  1  0
  6 19  1  0
  6 20  1  0
  6 21  1  0
  8 22  1  1
  9 23  1  0
 10 24  1  1
 11 25  1  0
 12 26  1  6
 13 27  1  0
 14 28  1  0
 14 29  1  0
 15 30  1  0
M  END
$$$$
