
     RDKit          3D

 46 48  0  0  0  0  0  0  0  0999 V2000
   -2.2614    1.5820   -1.4981 C   0  0  0  0  0  0  0  0  0  0  0  0
   -2.0714    0.7473   -0.2642 C   0  0  0  0  0  0  0  0  0  0  0  0
   -3.1179   -0.0589    0.2120 C   0  0  0  0  0  0  0  0  0  0  0  0
   -4.4508   -0.2532   -0.3871 C   0  0  0  0  0  0  0  0  0  0  0  0
   -5.3950    0.8586   -0.1319 C   0  0  0  0  0  0  0  0  0  0  0  0
   -5.1096    1.8696    0.5490 O   0  0  0  0  0  0  0  0  0  0  0  0
   -6.6622    0.7644   -0.6823 O   0  0  0  0  0  0  0  0  0  0  0  0
   -2.6329   -0.6173    1.3666 C   0  0  0  0  0  0  0  0  0  0  0  0
   -3.2653   -1.5060    2.2495 C   0  0  0  0  0  0  0  0  0  0  0  0
   -2.5492   -1.9209    3.3514 C   0  0  0  0  0  0  0  0  0  0  0  0
   -1.2643   -1.4778    3.5723 C   0  0  0  0  0  0  0  0  0  0  0  0
   -0.7021   -0.6108    2.6736 N   0  0  0  0  0  0  0  0  0  0  0  0
   -1.3569   -0.1892    1.6038 C   0  0  0  0  0  0  0  0  0  0  0  0
   -1.0400    0.6561    0.5690 N   0  0  0  0  0  0  0  0  0  0  0  0
    0.1907    1.4108    0.4948 C   0  0  0  0  0  0  0  0  0  0  0  0
    1.4156    0.7201    0.1949 C   0  0  0  0  0  0  0  0  0  0  0  0
    2.2820    0.4367    1.2814 C   0  0  0  0  0  0  0  0  0  0  0  0
    3.4774   -0.1982    1.1347 C   0  0  0  0  0  0  0  0  0  0  0  0
    3.8881   -0.5926   -0.1046 C   0  0  0  0  0  0  0  0  0  0  0  0
    5.4263   -1.4156   -0.3340 S   0  0  0  0  0  6  0  0  0  0  0  0
    6.7059   -0.2423   -0.6260 C   0  0  0  0  0  0  0  0  0  0  0  0
    5.6854   -2.2566    0.8570 O   0  0  0  0  0  0  0  0  0  0  0  0
    5.3002   -2.3274   -1.5371 O   0  0  0  0  0  0  0  0  0  0  0  0
    3.0598   -0.3250   -1.1628 C   0  0  0  0  0  0  0  0  0  0  0  0
    1.8214    0.3283   -1.0383 C   0  0  0  0  0  0  0  0  0  0  0  0
    1.0663    0.5081   -2.2730 C   0  0  0  0  0  0  0  0  0  0  0  0
    1.8505    0.0366   -3.3453 F   0  0  0  0  0  0  0  0  0  0  0  0
    0.6777    1.7388   -2.6164 F   0  0  0  0  0  0  0  0  0  0  0  0
    0.0389   -0.4555   -2.2265 F   0  0  0  0  0  0  0  0  0  0  0  0
   -2.1661    0.9104   -2.3620 H   0  0  0  0  0  0  0  0  0  0  0  0
   -1.5816    2.4495   -1.4922 H   0  0  0  0  0  0  0  0  0  0  0  0
   -3.3044    2.0256   -1.4666 H   0  0  0  0  0  0  0  0  0  0  0  0
   -4.9151   -1.1624    0.0505 H   0  0  0  0  0  0  0  0  0  0  0  0
   -4.3568   -0.4273   -1.4930 H   0  0  0  0  0  0  0  0  0  0  0  0
   -7.4804    1.2285   -0.2730 H   0  0  0  0  0  0  0  0  0  0  0  0
   -4.2778   -1.8397    2.0527 H   0  0  0  0  0  0  0  0  0  0  0  0
   -3.0230   -2.6003    4.0329 H   0  0  0  0  0  0  0  0  0  0  0  0
   -0.7197   -1.8142    4.4413 H   0  0  0  0  0  0  0  0  0  0  0  0
    0.2612    1.9136    1.5098 H   0  0  0  0  0  0  0  0  0  0  0  0
    0.0342    2.3306   -0.1683 H   0  0  0  0  0  0  0  0  0  0  0  0
    1.9694    0.7431    2.2660 H   0  0  0  0  0  0  0  0  0  0  0  0
    4.1309   -0.4083    1.9786 H   0  0  0  0  0  0  0  0  0  0  0  0
    6.3577    0.6271   -1.2125 H   0  0  0  0  0  0  0  0  0  0  0  0
    7.0609    0.1419    0.3694 H   0  0  0  0  0  0  0  0  0  0  0  0
    7.5720   -0.6679   -1.1715 H   0  0  0  0  0  0  0  0  0  0  0  0
    3.4312   -0.6600   -2.1338 H   0  0  0  0  0  0  0  0  0  0  0  0
  1  2  1  0
  2  3  2  0
  3  4  1  0
  4  5  1  0
  5  6  2  0
  5  7  1  0
  3  8  1  0
  8  9  2  0
  9 10  1  0
 10 11  2  0
 11 12  1  0
 12 13  2  0
 13 14  1  0
 14 15  1  0
 15 16  1  0
 16 17  2  0
 17 18  1  0
 18 19  2  0
 19 20  1  0
 20 21  1  0
 20 22  2  0
 20 23  2  0
 19 24  1  0
 24 25  2  0
 25 26  1  0
 26 27  1  0
 26 28  1  0
 26 29  1  0
 14  2  1  0
 25 16  1  0
 13  8  1  0
  1 30  1  0
  1 31  1  0
  1 32  1  0
  4 33  1  0
  4 34  1  0
  7 35  1  0
  9 36  1  0
 10 37  1  0
 11 38  1  0
 15 39  1  0
 15 40  1  0
 17 41  1  0
 18 42  1  0
 21 43  1  0
 21 44  1  0
 21 45  1  0
 24 46  1  0
M  END
$$$$
