
     RDKit          3D

 45 47  0  0  0  0  0  0  0  0999 V2000
   -7.5136    1.7031   -2.0701 Cl  0  0  0  0  0  0  0  0  0  0  0  0
   -6.6908    0.7341   -0.8410 C   0  0  0  0  0  0  0  0  0  0  0  0
   -7.1510    0.6732    0.4547 C   0  0  0  0  0  0  0  0  0  0  0  0
   -6.4882   -0.0807    1.3747 C   0  0  0  0  0  0  0  0  0  0  0  0
   -5.3791   -0.7433    0.9320 C   0  0  0  0  0  0  0  0  0  0  0  0
   -4.8691   -0.7150   -0.3779 C   0  0  0  0  0  0  0  0  0  0  0  0
   -3.6221   -1.5400   -0.5934 C   0  0  0  0  0  0  0  0  0  0  0  0
   -2.5102   -0.6593   -0.2280 N   0  0  0  0  0  0  0  0  0  0  0  0
   -2.3752    0.4817   -1.0756 C   0  0  0  0  0  0  0  0  0  0  0  0
   -1.3443    1.4777   -0.6550 C   0  0  0  0  0  0  0  0  0  0  0  0
    0.0347    0.9584   -0.5486 C   0  0  0  0  0  0  0  0  0  0  0  0
    0.2966    0.4497    0.7285 C   0  0  0  0  0  0  0  0  0  0  0  0
    1.5312   -0.0641    1.0584 C   0  0  0  0  0  0  0  0  0  0  0  0
    2.5804   -0.1040    0.1413 C   0  0  0  0  0  0  0  0  0  0  0  0
    3.8463   -0.6275    0.5211 N   0  0  0  0  0  0  0  0  0  0  0  0
    4.9642   -0.7429   -0.3344 C   0  0  0  0  0  0  0  0  0  0  0  0
    4.7442   -1.1505   -1.5068 N   0  0  0  0  0  0  0  0  0  0  0  0
    6.2526   -0.3590    0.2659 C   0  0  0  0  0  0  0  0  0  0  0  0
    6.6118   -0.5731    1.6192 C   0  0  0  0  0  0  0  0  0  0  0  0
    7.8526   -0.1290    1.9510 C   0  0  0  0  0  0  0  0  0  0  0  0
    8.7015    0.4778    1.0638 C   0  0  0  0  0  0  0  0  0  0  0  0
    7.7147    0.4719   -0.4752 S   0  0  0  0  0  0  0  0  0  0  0  0
    2.2941    0.4012   -1.1073 C   0  0  0  0  0  0  0  0  0  0  0  0
    1.0672    0.9187   -1.4560 C   0  0  0  0  0  0  0  0  0  0  0  0
   -5.5770    0.0632   -1.2704 C   0  0  0  0  0  0  0  0  0  0  0  0
   -8.0392    1.2181    0.7669 H   0  0  0  0  0  0  0  0  0  0  0  0
   -6.8139   -0.1586    2.4031 H   0  0  0  0  0  0  0  0  0  0  0  0
   -4.8605   -1.3511    1.6968 H   0  0  0  0  0  0  0  0  0  0  0  0
   -3.6654   -2.4036    0.0946 H   0  0  0  0  0  0  0  0  0  0  0  0
   -3.5931   -1.8126   -1.6494 H   0  0  0  0  0  0  0  0  0  0  0  0
   -2.5177   -0.4364    0.7768 H   0  0  0  0  0  0  0  0  0  0  0  0
   -3.3584    1.0336   -1.0106 H   0  0  0  0  0  0  0  0  0  0  0  0
   -2.3023    0.2129   -2.1517 H   0  0  0  0  0  0  0  0  0  0  0  0
   -1.6815    1.9766    0.2736 H   0  0  0  0  0  0  0  0  0  0  0  0
   -1.3326    2.2667   -1.4613 H   0  0  0  0  0  0  0  0  0  0  0  0
   -0.4172    0.4112    1.5436 H   0  0  0  0  0  0  0  0  0  0  0  0
    1.7344   -0.4646    2.0614 H   0  0  0  0  0  0  0  0  0  0  0  0
    3.9520   -0.9468    1.5332 H   0  0  0  0  0  0  0  0  0  0  0  0
    5.4060   -1.3029   -2.2752 H   0  0  0  0  0  0  0  0  0  0  0  0
    5.9243   -1.0538    2.2923 H   0  0  0  0  0  0  0  0  0  0  0  0
    8.2555   -0.2327    2.9693 H   0  0  0  0  0  0  0  0  0  0  0  0
    9.6492    0.8743    1.1076 H   0  0  0  0  0  0  0  0  0  0  0  0
    3.0496    0.4130   -1.8726 H   0  0  0  0  0  0  0  0  0  0  0  0
    0.7864    1.3264   -2.4111 H   0  0  0  0  0  0  0  0  0  0  0  0
   -5.1471    0.0489   -2.2581 H   0  0  0  0  0  0  0  0  0  0  0  0
  1  2  1  0
  2  3  2  0
  3  4  1  0
  4  5  2  0
  5  6  1  0
  6  7  1  0
  7  8  1  0
  8  9  1  0
  9 10  1  0
 10 11  1  0
 11 12  2  0
 12 13  1  0
 13 14  2  0
 14 15  1  0
 15 16  1  0
 16 17  2  3
 16 18  1  0
 18 19  2  0
 19 20  1  0
 20 21  2  0
 21 22  1  0
 14 23  1  0
 23 24  2  0
  6 25  2  0
 25  2  1  0
 24 11  1  0
 22 18  1  0
  3 26  1  0
  4 27  1  0
  5 28  1  0
  7 29  1  0
  7 30  1  0
  8 31  1  0
  9 32  1  0
  9 33  1  0
 10 34  1  0
 10 35  1  0
 12 36  1  0
 13 37  1  0
 15 38  1  0
 17 39  1  0
 19 40  1  0
 20 41  1  0
 21 42  1  0
 23 43  1  0
 24 44  1  0
 25 45  1  0
M  END
$$$$
