
     RDKit          3D

 56 58  0  0  0  0  0  0  0  0999 V2000
   10.7382   -0.5952    0.0854 C   0  0  0  0  0  0  0  0  0  0  0  0
    9.6210   -1.1182    0.5423 C   0  0  0  0  0  0  0  0  0  0  0  0
    8.3511   -0.5506    0.1301 C   0  0  0  0  0  0  0  0  0  0  0  0
    8.3039    0.4305   -0.6539 O   0  0  0  0  0  0  0  0  0  0  0  0
    7.0972   -1.0676    0.5856 N   0  0  0  0  0  0  0  0  0  0  0  0
    5.8584   -0.5003    0.1716 C   0  0  0  0  0  0  0  0  0  0  0  0
    5.1919   -0.9403   -0.9526 C   0  0  0  0  0  0  0  0  0  0  0  0
    3.9877   -0.3493   -1.3096 C   0  0  0  0  0  0  0  0  0  0  0  0
    3.4352    0.6772   -0.5612 C   0  0  0  0  0  0  0  0  0  0  0  0
    1.9404    1.3869   -1.0413 S   0  0  0  0  0  6  0  0  0  0  0  0
    1.8671    1.3142   -2.5573 O   0  0  0  0  0  0  0  0  0  0  0  0
    1.9403    2.8495   -0.6671 O   0  0  0  0  0  0  0  0  0  0  0  0
    0.5461    0.6631   -0.4250 N   0  0  0  0  0  0  0  0  0  0  0  0
    0.3963    0.6646    0.9932 C   0  0  0  0  0  0  0  0  0  0  0  0
   -1.1174    0.6554    1.2591 C   0  0  0  0  0  0  0  0  0  0  0  0
   -1.8262    0.0985    0.1542 N   0  0  0  0  0  0  0  0  0  0  0  0
   -3.2066    0.4833   -0.0411 C   0  0  0  0  0  0  0  0  0  0  0  0
   -3.6940    1.2772    0.7667 O   0  0  0  0  0  0  0  0  0  0  0  0
   -3.9591    0.0161   -1.0501 O   0  0  0  0  0  0  0  0  0  0  0  0
   -5.2250    0.1570   -1.5118 C   0  0  0  0  0  0  0  0  0  0  0  0
   -6.3525   -0.2075   -0.6459 C   0  0  0  0  0  0  0  0  0  0  0  0
   -6.8072   -1.5455   -0.7109 C   0  0  0  0  0  0  0  0  0  0  0  0
   -7.8145   -2.0044    0.0900 C   0  0  0  0  0  0  0  0  0  0  0  0
   -8.4192   -1.1450    0.9985 C   0  0  0  0  0  0  0  0  0  0  0  0
   -7.9762    0.1488    1.0566 C   0  0  0  0  0  0  0  0  0  0  0  0
   -6.9426    0.6144    0.2315 C   0  0  0  0  0  0  0  0  0  0  0  0
   -6.6231    2.0424    0.3699 C   0  0  0  0  0  0  0  0  0  0  0  0
   -1.2671   -0.8314   -0.7969 C   0  0  0  0  0  0  0  0  0  0  0  0
    0.2387   -0.6316   -0.9408 C   0  0  0  0  0  0  0  0  0  0  0  0
    4.1138    1.1010    0.5543 C   0  0  0  0  0  0  0  0  0  0  0  0
    5.3217    0.5252    0.9332 C   0  0  0  0  0  0  0  0  0  0  0  0
   10.7000    0.2354   -0.5796 H   0  0  0  0  0  0  0  0  0  0  0  0
   11.7094   -0.9805    0.3614 H   0  0  0  0  0  0  0  0  0  0  0  0
    9.6769   -1.9545    1.2109 H   0  0  0  0  0  0  0  0  0  0  0  0
    7.1060   -1.8769    1.2339 H   0  0  0  0  0  0  0  0  0  0  0  0
    5.6064   -1.7356   -1.5443 H   0  0  0  0  0  0  0  0  0  0  0  0
    3.4417   -0.6785   -2.1928 H   0  0  0  0  0  0  0  0  0  0  0  0
    0.9079    1.4605    1.5313 H   0  0  0  0  0  0  0  0  0  0  0  0
    0.7550   -0.3066    1.4428 H   0  0  0  0  0  0  0  0  0  0  0  0
   -1.3247    0.1572    2.2305 H   0  0  0  0  0  0  0  0  0  0  0  0
   -1.3908    1.7323    1.3986 H   0  0  0  0  0  0  0  0  0  0  0  0
   -5.3342   -0.4353   -2.5007 H   0  0  0  0  0  0  0  0  0  0  0  0
   -5.4615    1.2020   -1.9033 H   0  0  0  0  0  0  0  0  0  0  0  0
   -6.3312   -2.2031   -1.4194 H   0  0  0  0  0  0  0  0  0  0  0  0
   -8.1832   -3.0268    0.0611 H   0  0  0  0  0  0  0  0  0  0  0  0
   -9.2163   -1.5253    1.6266 H   0  0  0  0  0  0  0  0  0  0  0  0
   -8.4283    0.8328    1.7510 H   0  0  0  0  0  0  0  0  0  0  0  0
   -5.9055    2.3520   -0.3930 H   0  0  0  0  0  0  0  0  0  0  0  0
   -6.1735    2.2814    1.3580 H   0  0  0  0  0  0  0  0  0  0  0  0
   -7.5338    2.6872    0.2585 H   0  0  0  0  0  0  0  0  0  0  0  0
   -1.7053   -0.6222   -1.7967 H   0  0  0  0  0  0  0  0  0  0  0  0
   -1.5145   -1.8763   -0.5476 H   0  0  0  0  0  0  0  0  0  0  0  0
    0.7617   -1.4566   -0.3810 H   0  0  0  0  0  0  0  0  0  0  0  0
    0.5441   -0.6586   -2.0063 H   0  0  0  0  0  0  0  0  0  0  0  0
    3.7439    1.8949    1.1839 H   0  0  0  0  0  0  0  0  0  0  0  0
    5.8315    0.8825    1.8175 H   0  0  0  0  0  0  0  0  0  0  0  0
  1  2  2  3
  2  3  1  0
  3  4  2  0
  3  5  1  0
  5  6  1  0
  6  7  2  0
  7  8  1  0
  8  9  2  0
  9 10  1  0
 10 11  2  0
 10 12  2  0
 10 13  1  0
 13 14  1  0
 14 15  1  0
 15 16  1  0
 16 17  1  0
 17 18  2  0
 17 19  1  0
 19 20  1  0
 20 21  1  0
 21 22  2  0
 22 23  1  0
 23 24  2  0
 24 25  1  0
 25 26  2  0
 26 27  1  0
 16 28  1  0
 28 29  1  0
  9 30  1  0
 30 31  2  0
 31  6  1  0
 29 13  1  0
 26 21  1  0
  1 32  1  0
  1 33  1  0
  2 34  1  0
  5 35  1  0
  7 36  1  0
  8 37  1  0
 14 38  1  0
 14 39  1  0
 15 40  1  0
 15 41  1  0
 20 42  1  0
 20 43  1  0
 22 44  1  0
 23 45  1  0
 24 46  1  0
 25 47  1  0
 27 48  1  0
 27 49  1  0
 27 50  1  0
 28 51  1  0
 28 52  1  0
 29 53  1  0
 29 54  1  0
 30 55  1  0
 31 56  1  0
M  END
$$$$
