
     RDKit          3D

 53 56  0  0  0  0  0  0  0  0999 V2000
   -4.0244    2.5770   -0.8878 C   0  0  0  0  0  0  0  0  0  0  0  0
   -3.9273    1.1075   -0.4051 C   0  0  0  0  0  0  0  0  0  0  0  0
   -3.2132    1.0734    0.9274 C   0  0  0  0  0  0  0  0  0  0  0  0
   -1.8475    1.5886    0.8727 C   0  0  0  0  0  0  0  0  0  0  0  0
   -1.5304    2.9279    1.1672 C   0  0  0  0  0  0  0  0  0  0  0  0
   -0.2837    3.4725    1.0786 C   0  0  0  0  0  0  0  0  0  0  0  0
   -0.1079    4.6839    1.3648 O   0  0  0  0  0  0  0  0  0  0  0  0
    0.7211    2.7569    0.7031 O   0  0  0  0  0  0  0  0  0  0  0  0
    0.5157    1.4789    0.4059 C   0  0  0  0  0  0  0  0  0  0  0  0
   -0.7358    0.8566    0.4753 C   0  0  0  0  0  0  0  0  0  0  0  0
   -0.8757   -0.4793    0.1601 C   0  0  0  0  0  0  0  0  0  0  0  0
    0.2668   -1.1465   -0.2237 C   0  0  0  0  0  0  0  0  0  0  0  0
    0.2212   -2.5660   -0.5759 C   0  0  0  0  0  0  0  0  0  0  0  0
   -0.9882   -3.0784   -0.4794 C   0  0  0  0  0  0  0  0  0  0  0  0
   -2.2608   -2.4319   -0.0765 C   0  0  0  0  0  0  0  0  0  0  0  0
   -2.7811   -3.1929    1.1324 C   0  0  0  0  0  0  0  0  0  0  0  0
   -3.2592   -2.6317   -1.2049 C   0  0  0  0  0  0  0  0  0  0  0  0
   -2.0958   -1.0757    0.2387 O   0  0  0  0  0  0  0  0  0  0  0  0
    1.5328   -0.5472   -0.3054 C   0  0  0  0  0  0  0  0  0  0  0  0
    1.6509    0.7931    0.0185 C   0  0  0  0  0  0  0  0  0  0  0  0
    2.9813    1.4461   -0.0629 C   0  0  1  0  0  0  0  0  0  0  0  0
    2.9730    2.6305    0.6716 O   0  0  0  0  0  0  0  0  0  0  0  0
    4.0136    0.4842    0.4483 C   0  0  2  0  0  0  0  0  0  0  0  0
    5.3779    1.0987    0.1195 C   0  0  0  0  0  0  0  0  0  0  0  0
    3.9475   -0.8244   -0.2608 C   0  0  1  0  0  0  0  0  0  0  0  0
    4.5292   -1.8930    0.6724 C   0  0  0  0  0  0  0  0  0  0  0  0
    2.6645   -1.2121   -0.6884 O   0  0  0  0  0  0  0  0  0  0  0  0
   -4.3645    3.1758   -0.0242 H   0  0  0  0  0  0  0  0  0  0  0  0
   -4.6860    2.6230   -1.7703 H   0  0  0  0  0  0  0  0  0  0  0  0
   -3.0153    2.9534   -1.1609 H   0  0  0  0  0  0  0  0  0  0  0  0
   -3.3837    0.6417   -1.2457 H   0  0  0  0  0  0  0  0  0  0  0  0
   -4.9786    0.7795   -0.2965 H   0  0  0  0  0  0  0  0  0  0  0  0
   -3.4136    0.2041    1.5564 H   0  0  0  0  0  0  0  0  0  0  0  0
   -3.7766    1.8703    1.5181 H   0  0  0  0  0  0  0  0  0  0  0  0
   -2.3423    3.5930    1.4932 H   0  0  0  0  0  0  0  0  0  0  0  0
    1.0482   -3.1800   -0.8881 H   0  0  0  0  0  0  0  0  0  0  0  0
   -1.1713   -4.1265   -0.7117 H   0  0  0  0  0  0  0  0  0  0  0  0
   -2.0110   -3.1073    1.9266 H   0  0  0  0  0  0  0  0  0  0  0  0
   -2.8170   -4.2660    0.8172 H   0  0  0  0  0  0  0  0  0  0  0  0
   -3.7727   -2.8215    1.4469 H   0  0  0  0  0  0  0  0  0  0  0  0
   -2.8548   -3.3539   -1.9745 H   0  0  0  0  0  0  0  0  0  0  0  0
   -3.4695   -1.7007   -1.7545 H   0  0  0  0  0  0  0  0  0  0  0  0
   -4.1865   -3.1109   -0.8339 H   0  0  0  0  0  0  0  0  0  0  0  0
    3.2070    1.6544   -1.1417 H   0  0  0  0  0  0  0  0  0  0  0  0
    3.0312    3.3916    0.0414 H   0  0  0  0  0  0  0  0  0  0  0  0
    3.8821    0.3772    1.5351 H   0  0  0  0  0  0  0  0  0  0  0  0
    5.3642    1.2019   -1.0030 H   0  0  0  0  0  0  0  0  0  0  0  0
    6.1735    0.4072    0.4239 H   0  0  0  0  0  0  0  0  0  0  0  0
    5.4255    2.1075    0.5336 H   0  0  0  0  0  0  0  0  0  0  0  0
    4.5821   -0.7927   -1.1710 H   0  0  0  0  0  0  0  0  0  0  0  0
    4.6184   -1.4859    1.7070 H   0  0  0  0  0  0  0  0  0  0  0  0
    3.8889   -2.8018    0.6728 H   0  0  0  0  0  0  0  0  0  0  0  0
    5.5579   -2.1303    0.3433 H   0  0  0  0  0  0  0  0  0  0  0  0
  1  2  1  0
  2  3  1  0
  3  4  1  0
  4  5  2  0
  5  6  1  0
  6  7  2  0
  6  8  1  0
  8  9  1  0
  9 10  2  0
 10 11  1  0
 11 12  2  0
 12 13  1  0
 13 14  2  0
 14 15  1  0
 15 16  1  0
 15 17  1  0
 15 18  1  0
 12 19  1  0
 19 20  2  0
 20 21  1  0
 21 22  1  0
 21 23  1  0
 23 24  1  0
 23 25  1  0
 25 26  1  0
 25 27  1  0
 10  4  1  0
 18 11  1  0
 27 19  1  0
 20  9  1  0
  1 28  1  0
  1 29  1  0
  1 30  1  0
  2 31  1  0
  2 32  1  0
  3 33  1  0
  3 34  1  0
  5 35  1  0
 13 36  1  0
 14 37  1  0
 16 38  1  0
 16 39  1  0
 16 40  1  0
 17 41  1  0
 17 42  1  0
 17 43  1  0
 21 44  1  6
 22 45  1  0
 23 46  1  1
 24 47  1  0
 24 48  1  0
 24 49  1  0
 25 50  1  6
 26 51  1  0
 26 52  1  0
 26 53  1  0
M  END
$$$$
