
     RDKit          3D

 49 52  0  0  0  0  0  0  0  0999 V2000
   -3.1140   -0.3489    1.7158 C   0  0  2  0  0  0  0  0  0  0  0  0
   -3.1692    1.0679    1.9526 N   0  0  0  0  0  0  0  0  0  0  0  0
   -1.8966   -1.0654    2.1392 C   0  0  0  0  0  0  0  0  0  0  0  0
   -0.6552   -0.7946    1.6614 O   0  0  0  0  0  0  0  0  0  0  0  0
   -0.1419   -0.8601    0.3319 C   0  0  0  0  0  0  0  0  0  0  0  0
    1.1830   -0.4202    0.8434 C   0  0  0  0  0  0  0  0  0  0  0  0
    2.2459   -0.2636   -0.0541 C   0  0  0  0  0  0  0  0  0  0  0  0
    1.8907   -0.5727   -1.4263 C   0  0  0  0  0  0  0  0  0  0  0  0
    0.6669   -0.9529   -1.7366 N   0  0  0  0  0  0  0  0  0  0  0  0
   -0.3439   -1.1018   -0.8882 C   0  0  0  0  0  0  0  0  0  0  0  0
    3.6087    0.1556    0.0696 C   0  0  0  0  0  0  0  0  0  0  0  0
    4.3611    0.4137    1.1113 C   0  0  0  0  0  0  0  0  0  0  0  0
    5.6363    0.7935    1.4273 C   0  0  0  0  0  0  0  0  0  0  0  0
    6.2740    0.9436    0.1673 C   0  0  0  0  0  0  0  0  0  0  0  0
    7.5661    1.3342   -0.1082 N   0  0  0  0  0  0  0  0  0  0  0  0
    7.7616    1.3568   -1.4589 N   0  0  0  0  0  0  0  0  0  0  0  0
    6.6299    0.9909   -2.0800 C   0  0  0  0  0  0  0  0  0  0  0  0
    6.3307    0.8863   -3.5540 C   0  0  0  0  0  0  0  0  0  0  0  0
    5.7030    0.7337   -1.1041 C   0  0  0  0  0  0  0  0  0  0  0  0
    4.4116    0.3512   -1.0582 C   0  0  0  0  0  0  0  0  0  0  0  0
   -3.6406   -0.6882    0.3564 C   0  0  0  0  0  0  0  0  0  0  0  0
   -5.0754   -0.3338    0.2053 C   0  0  0  0  0  0  0  0  0  0  0  0
   -5.7325    0.7846   -0.2648 C   0  0  0  0  0  0  0  0  0  0  0  0
   -7.1019    0.8298   -0.2362 C   0  0  0  0  0  0  0  0  0  0  0  0
   -7.8961   -0.1919    0.2434 C   0  0  0  0  0  0  0  0  0  0  0  0
   -7.2871   -1.3466    0.7267 C   0  0  0  0  0  0  0  0  0  0  0  0
   -5.8756   -1.3559    0.6833 C   0  0  0  0  0  0  0  0  0  0  0  0
   -3.9914   -0.7767    2.4058 H   0  0  0  0  0  0  0  0  0  0  0  0
   -2.9005    1.3691    2.8979 H   0  0  0  0  0  0  0  0  0  0  0  0
   -3.8522    1.5948    1.4412 H   0  0  0  0  0  0  0  0  0  0  0  0
   -2.1461   -2.1678    2.2227 H   0  0  0  0  0  0  0  0  0  0  0  0
   -1.8029   -0.7432    3.2768 H   0  0  0  0  0  0  0  0  0  0  0  0
    1.7146   -0.1489    1.7738 H   0  0  0  0  0  0  0  0  0  0  0  0
    2.3895   -0.5702   -2.3703 H   0  0  0  0  0  0  0  0  0  0  0  0
   -1.3473   -1.4167   -1.0524 H   0  0  0  0  0  0  0  0  0  0  0  0
    3.8295    0.3026    2.0994 H   0  0  0  0  0  0  0  0  0  0  0  0
    6.1177    0.9648    2.3504 H   0  0  0  0  0  0  0  0  0  0  0  0
    8.3555    1.5856    0.5124 H   0  0  0  0  0  0  0  0  0  0  0  0
    5.2204    0.9194   -3.6842 H   0  0  0  0  0  0  0  0  0  0  0  0
    6.8182    1.7062   -4.1045 H   0  0  0  0  0  0  0  0  0  0  0  0
    6.6945   -0.0726   -3.9772 H   0  0  0  0  0  0  0  0  0  0  0  0
    4.0346    0.2038   -2.0816 H   0  0  0  0  0  0  0  0  0  0  0  0
   -3.4949   -1.7485    0.1635 H   0  0  0  0  0  0  0  0  0  0  0  0
   -3.0916   -0.0533   -0.4042 H   0  0  0  0  0  0  0  0  0  0  0  0
   -5.0325    1.5228   -0.6151 H   0  0  0  0  0  0  0  0  0  0  0  0
   -7.5001    1.7777   -0.6420 H   0  0  0  0  0  0  0  0  0  0  0  0
   -8.9616   -0.1259    0.2431 H   0  0  0  0  0  0  0  0  0  0  0  0
   -7.8716   -2.1530    1.0958 H   0  0  0  0  0  0  0  0  0  0  0  0
   -5.5212   -2.3152    1.0918 H   0  0  0  0  0  0  0  0  0  0  0  0
  1  2  1  0
  1  3  1  0
  3  4  1  0
  4  5  1  0
  5  6  2  0
  6  7  1  0
  7  8  2  0
  8  9  1  0
  9 10  2  0
  7 11  1  0
 11 12  2  0
 12 13  1  0
 13 14  2  0
 14 15  1  0
 15 16  1  0
 16 17  2  0
 17 18  1  0
 17 19  1  0
 19 20  2  0
  1 21  1  0
 21 22  1  0
 22 23  2  0
 23 24  1  0
 24 25  2  0
 25 26  1  0
 26 27  2  0
 10  5  1  0
 20 11  1  0
 27 22  1  0
 19 14  1  0
  1 28  1  1
  2 29  1  0
  2 30  1  0
  3 31  1  0
  3 32  1  0
  6 33  1  0
  8 34  1  0
 10 35  1  0
 12 36  1  0
 13 37  1  0
 15 38  1  0
 18 39  1  0
 18 40  1  0
 18 41  1  0
 20 42  1  0
 21 43  1  0
 21 44  1  0
 23 45  1  0
 24 46  1  0
 25 47  1  0
 26 48  1  0
 27 49  1  0
M  END
$$$$
