
     RDKit          3D

 19 19  0  0  0  0  0  0  0  0999 V2000
   -3.1203   -1.3945   -0.8336 O   0  0  0  0  0  0  0  0  0  0  0  0
   -2.5204   -0.2609   -0.1811 B   0  0  0  0  0  0  0  0  0  0  0  0
   -3.1753    1.0510   -0.3720 O   0  0  0  0  0  0  0  0  0  0  0  0
   -1.0282   -0.2134    0.2914 C   0  0  0  0  0  0  0  0  0  0  0  0
   -0.6677   -0.5081    1.5872 C   0  0  0  0  0  0  0  0  0  0  0  0
    0.6296   -0.4796    2.0471 C   0  0  0  0  0  0  0  0  0  0  0  0
    1.6177   -0.1308    1.1352 C   0  0  0  0  0  0  0  0  0  0  0  0
    1.3140    0.1739   -0.1743 C   0  0  0  0  0  0  0  0  0  0  0  0
    2.3621    0.5484   -1.1593 C   0  0  0  0  0  0  0  0  0  0  0  0
    1.8268    1.2516   -2.2167 F   0  0  0  0  0  0  0  0  0  0  0  0
    3.2859    1.3643   -0.5038 F   0  0  0  0  0  0  0  0  0  0  0  0
    3.0500   -0.5772   -1.6110 F   0  0  0  0  0  0  0  0  0  0  0  0
   -0.0012    0.1288   -0.5784 C   0  0  0  0  0  0  0  0  0  0  0  0
   -2.8656   -1.3453   -1.8092 H   0  0  0  0  0  0  0  0  0  0  0  0
   -2.5298    1.6232   -0.8532 H   0  0  0  0  0  0  0  0  0  0  0  0
   -1.4673   -0.7772    2.2743 H   0  0  0  0  0  0  0  0  0  0  0  0
    0.9037   -0.7151    3.0768 H   0  0  0  0  0  0  0  0  0  0  0  0
    2.6280   -0.1065    1.4854 H   0  0  0  0  0  0  0  0  0  0  0  0
   -0.2420    0.3674   -1.6048 H   0  0  0  0  0  0  0  0  0  0  0  0
  1  2  1  0
  2  3  1  0
  2  4  1  0
  4  5  2  0
  5  6  1  0
  6  7  2  0
  7  8  1  0
  8  9  1  0
  9 10  1  0
  9 11  1  0
  9 12  1  0
  8 13  2  0
 13  4  1  0
  1 14  1  0
  3 15  1  0
  5 16  1  0
  6 17  1  0
  7 18  1  0
 13 19  1  0
M  END
$$$$
