
     RDKit          3D

 49 53  0  0  0  0  0  0  0  0999 V2000
   -7.6246   -1.6415    0.7266 C   0  0  0  0  0  0  0  0  0  0  0  0
   -6.8993   -0.3089    0.6033 C   0  0  0  0  0  0  0  0  0  0  0  0
   -7.9509    0.7975    0.4115 C   0  0  0  0  0  0  0  0  0  0  0  0
   -5.9637   -0.2950   -0.4037 O   0  0  0  0  0  0  0  0  0  0  0  0
   -4.6176   -0.0600   -0.2646 C   0  0  0  0  0  0  0  0  0  0  0  0
   -3.8236   -0.0918   -1.4344 C   0  0  0  0  0  0  0  0  0  0  0  0
   -2.4741    0.1365   -1.3473 C   0  0  0  0  0  0  0  0  0  0  0  0
   -1.8398    0.3998   -0.1610 C   0  0  0  0  0  0  0  0  0  0  0  0
   -0.4116    0.6321   -0.1336 C   0  0  0  0  0  0  0  0  0  0  0  0
    0.4299   -0.0103   -1.0517 C   0  0  0  0  0  0  0  0  0  0  0  0
    1.7522    0.2132   -1.0162 N   0  0  0  0  0  0  0  0  0  0  0  0
    2.2995    1.0625   -0.0940 C   0  0  0  0  0  0  0  0  0  0  0  0
    3.5925    1.4588    0.1542 C   0  0  0  0  0  0  0  0  0  0  0  0
    4.7480    0.9859   -0.6158 C   0  0  0  0  0  0  0  0  0  0  0  0
    5.1496    1.6887   -1.7408 C   0  0  0  0  0  0  0  0  0  0  0  0
    6.2336    1.2225   -2.4405 C   0  0  0  0  0  0  0  0  0  0  0  0
    6.8811    0.1103   -2.0342 N   0  0  0  0  0  0  0  0  0  0  0  0
    6.5238   -0.5982   -0.9511 C   0  0  0  0  0  0  0  0  0  0  0  0
    7.2074   -1.7303   -0.5639 C   0  0  0  0  0  0  0  0  0  0  0  0
    6.8229   -2.4394    0.5485 C   0  0  0  0  0  0  0  0  0  0  0  0
    5.7346   -1.9775    1.2571 C   0  0  0  0  0  0  0  0  0  0  0  0
    5.0139   -0.8541    0.9183 C   0  0  0  0  0  0  0  0  0  0  0  0
    5.4249   -0.1554   -0.2122 C   0  0  0  0  0  0  0  0  0  0  0  0
    3.5609    2.3339    1.2091 C   0  0  0  0  0  0  0  0  0  0  0  0
    2.2886    2.4646    1.5893 N   0  0  0  0  0  0  0  0  0  0  0  0
    1.5427    1.7037    0.8079 N   0  0  0  0  0  0  0  0  0  0  0  0
    0.1969    1.4732    0.7680 C   0  0  0  0  0  0  0  0  0  0  0  0
   -2.5868    0.4354    0.9814 C   0  0  0  0  0  0  0  0  0  0  0  0
   -3.9738    0.2043    0.9188 C   0  0  0  0  0  0  0  0  0  0  0  0
   -8.4229   -1.7456   -0.0347 H   0  0  0  0  0  0  0  0  0  0  0  0
   -6.8633   -2.4469    0.6730 H   0  0  0  0  0  0  0  0  0  0  0  0
   -8.1329   -1.6343    1.7200 H   0  0  0  0  0  0  0  0  0  0  0  0
   -6.4551   -0.1059    1.5910 H   0  0  0  0  0  0  0  0  0  0  0  0
   -8.8995    0.4109    0.8242 H   0  0  0  0  0  0  0  0  0  0  0  0
   -8.0421    1.0688   -0.6581 H   0  0  0  0  0  0  0  0  0  0  0  0
   -7.6416    1.7076    0.9656 H   0  0  0  0  0  0  0  0  0  0  0  0
   -4.3053   -0.2971   -2.3750 H   0  0  0  0  0  0  0  0  0  0  0  0
   -1.9048    0.1006   -2.2834 H   0  0  0  0  0  0  0  0  0  0  0  0
   -0.0266   -0.6749   -1.7685 H   0  0  0  0  0  0  0  0  0  0  0  0
    4.5941    2.5761   -2.0232 H   0  0  0  0  0  0  0  0  0  0  0  0
    6.5557    1.7560   -3.3129 H   0  0  0  0  0  0  0  0  0  0  0  0
    8.0527   -2.0517   -1.1513 H   0  0  0  0  0  0  0  0  0  0  0  0
    7.3824   -3.3328    0.8326 H   0  0  0  0  0  0  0  0  0  0  0  0
    5.4145   -2.5188    2.1347 H   0  0  0  0  0  0  0  0  0  0  0  0
    4.1615   -0.5078    1.4886 H   0  0  0  0  0  0  0  0  0  0  0  0
    4.4451    2.8371    1.6572 H   0  0  0  0  0  0  0  0  0  0  0  0
   -0.4317    1.9937    1.5026 H   0  0  0  0  0  0  0  0  0  0  0  0
   -2.1590    0.6371    1.9596 H   0  0  0  0  0  0  0  0  0  0  0  0
   -4.5584    0.2344    1.8291 H   0  0  0  0  0  0  0  0  0  0  0  0
  1  2  1  0
  2  3  1  0
  2  4  1  0
  4  5  1  0
  5  6  2  0
  6  7  1  0
  7  8  2  0
  8  9  1  0
  9 10  1  0
 10 11  2  0
 11 12  1  0
 12 13  2  0
 13 14  1  0
 14 15  2  0
 15 16  1  0
 16 17  2  0
 17 18  1  0
 18 19  2  0
 19 20  1  0
 20 21  2  0
 21 22  1  0
 22 23  2  0
 13 24  1  0
 24 25  2  0
 25 26  1  0
 26 27  1  0
  8 28  1  0
 28 29  2  0
 29  5  1  0
 27  9  2  0
 26 12  1  0
 23 14  1  0
 23 18  1  0
  1 30  1  0
  1 31  1  0
  1 32  1  0
  2 33  1  0
  3 34  1  0
  3 35  1  0
  3 36  1  0
  6 37  1  0
  7 38  1  0
 10 39  1  0
 15 40  1  0
 16 41  1  0
 19 42  1  0
 20 43  1  0
 21 44  1  0
 22 45  1  0
 24 46  1  0
 27 47  1  0
 28 48  1  0
 29 49  1  0
M  END
$$$$
