
     RDKit          3D

 56 57  0  0  0  0  0  0  0  0999 V2000
   -3.0380    4.9440   -0.5949 C   0  0  0  0  0  0  0  0  0  0  0  0
   -2.3311    4.7454    0.7039 C   0  0  0  0  0  0  0  0  0  0  0  0
   -1.1183    3.8519    0.5801 C   0  0  0  0  0  0  0  0  0  0  0  0
   -1.4864    2.4705    0.0768 C   0  0  0  0  0  0  0  0  0  0  0  0
   -0.2368    1.6691   -0.0120 C   0  0  0  0  0  0  0  0  0  0  0  0
    1.0323    2.0222    0.2864 N   0  0  0  0  0  0  0  0  0  0  0  0
    1.8697    0.9693    0.0496 C   0  0  0  0  0  0  0  0  0  0  0  0
    3.2267    0.7532    0.1641 C   0  0  0  0  0  0  0  0  0  0  0  0
    3.7972   -0.4458   -0.1642 C   0  0  0  0  0  0  0  0  0  0  0  0
    5.2168   -0.7385   -0.0695 C   0  0  0  0  0  0  0  0  0  0  0  0
    6.1570    0.0854    0.3461 C   0  0  0  0  0  0  0  0  0  0  0  0
    7.5814   -0.2095    0.4410 C   0  0  0  0  0  0  0  0  0  0  0  0
    8.4099    0.6614    0.8596 O   0  0  0  0  0  0  0  0  0  0  0  0
    8.1555   -1.4397    0.0923 N   0  0  0  0  0  0  0  0  0  0  0  0
    9.4733   -1.7014    0.1838 O   0  0  0  0  0  0  0  0  0  0  0  0
    2.9750   -1.4621   -0.6234 C   0  0  0  0  0  0  0  0  0  0  0  0
    1.6371   -1.2239   -0.7280 C   0  0  0  0  0  0  0  0  0  0  0  0
    1.0263   -0.0219   -0.4043 C   0  0  0  0  0  0  0  0  0  0  0  0
   -0.2737    0.3982   -0.4460 N   0  0  0  0  0  0  0  0  0  0  0  0
   -1.3194   -0.5007   -0.8962 C   0  0  0  0  0  0  0  0  0  0  0  0
   -1.8669   -1.2348    0.2958 C   0  0  0  0  0  0  0  0  0  0  0  0
   -2.8889   -2.1550    0.0153 N   0  0  0  0  0  0  0  0  0  0  0  0
   -3.4844   -2.8721    1.0681 C   0  0  0  0  0  0  0  0  0  0  0  0
   -4.3249   -2.0438    2.0117 C   0  0  0  0  0  0  0  0  0  0  0  0
   -3.3922   -2.2733   -1.2877 C   0  0  0  0  0  0  0  0  0  0  0  0
   -4.4905   -3.3102   -1.3873 C   0  0  0  0  0  0  0  0  0  0  0  0
   -3.9746    4.3164   -0.6595 H   0  0  0  0  0  0  0  0  0  0  0  0
   -3.4013    5.9971   -0.6386 H   0  0  0  0  0  0  0  0  0  0  0  0
   -2.3882    4.8056   -1.4849 H   0  0  0  0  0  0  0  0  0  0  0  0
   -1.9825    5.7254    1.0828 H   0  0  0  0  0  0  0  0  0  0  0  0
   -3.0618    4.3682    1.4335 H   0  0  0  0  0  0  0  0  0  0  0  0
   -0.3861    4.3044   -0.1054 H   0  0  0  0  0  0  0  0  0  0  0  0
   -0.6527    3.7822    1.5816 H   0  0  0  0  0  0  0  0  0  0  0  0
   -2.1598    1.9456    0.7875 H   0  0  0  0  0  0  0  0  0  0  0  0
   -1.9362    2.5851   -0.9280 H   0  0  0  0  0  0  0  0  0  0  0  0
    3.8656    1.5651    0.5292 H   0  0  0  0  0  0  0  0  0  0  0  0
    5.6179   -1.6993   -0.3484 H   0  0  0  0  0  0  0  0  0  0  0  0
    5.8341    1.0900    0.6500 H   0  0  0  0  0  0  0  0  0  0  0  0
    7.5731   -2.2100   -0.2575 H   0  0  0  0  0  0  0  0  0  0  0  0
    9.7424   -2.5080   -0.3254 H   0  0  0  0  0  0  0  0  0  0  0  0
    3.4064   -2.4225   -0.8897 H   0  0  0  0  0  0  0  0  0  0  0  0
    1.0368   -2.0715   -1.1006 H   0  0  0  0  0  0  0  0  0  0  0  0
   -0.9355   -1.2370   -1.6086 H   0  0  0  0  0  0  0  0  0  0  0  0
   -2.1416    0.1164   -1.3391 H   0  0  0  0  0  0  0  0  0  0  0  0
   -1.0505   -1.6932    0.8881 H   0  0  0  0  0  0  0  0  0  0  0  0
   -2.2854   -0.4366    0.9768 H   0  0  0  0  0  0  0  0  0  0  0  0
   -2.6441   -3.2707    1.7136 H   0  0  0  0  0  0  0  0  0  0  0  0
   -4.0157   -3.7849    0.7356 H   0  0  0  0  0  0  0  0  0  0  0  0
   -4.7124   -1.1128    1.5536 H   0  0  0  0  0  0  0  0  0  0  0  0
   -5.2369   -2.6069    2.3518 H   0  0  0  0  0  0  0  0  0  0  0  0
   -3.7877   -1.7420    2.9353 H   0  0  0  0  0  0  0  0  0  0  0  0
   -3.7222   -1.3382   -1.7719 H   0  0  0  0  0  0  0  0  0  0  0  0
   -2.5553   -2.6468   -1.9412 H   0  0  0  0  0  0  0  0  0  0  0  0
   -4.9513   -3.2689   -2.4110 H   0  0  0  0  0  0  0  0  0  0  0  0
   -5.3212   -3.1430   -0.6897 H   0  0  0  0  0  0  0  0  0  0  0  0
   -4.0798   -4.3472   -1.2326 H   0  0  0  0  0  0  0  0  0  0  0  0
  1  2  1  0
  2  3  1  0
  3  4  1  0
  4  5  1  0
  5  6  2  0
  6  7  1  0
  7  8  2  0
  8  9  1  0
  9 10  1  0
 10 11  2  0
 11 12  1  0
 12 13  2  0
 12 14  1  0
 14 15  1  0
  9 16  2  0
 16 17  1  0
 17 18  2  0
 18 19  1  0
 19 20  1  0
 20 21  1  0
 21 22  1  0
 22 23  1  0
 23 24  1  0
 22 25  1  0
 25 26  1  0
 19  5  1  0
 18  7  1  0
  1 27  1  0
  1 28  1  0
  1 29  1  0
  2 30  1  0
  2 31  1  0
  3 32  1  0
  3 33  1  0
  4 34  1  0
  4 35  1  0
  8 36  1  0
 10 37  1  0
 11 38  1  0
 14 39  1  0
 15 40  1  0
 16 41  1  0
 17 42  1  0
 20 43  1  0
 20 44  1  0
 21 45  1  0
 21 46  1  0
 23 47  1  0
 23 48  1  0
 24 49  1  0
 24 50  1  0
 24 51  1  0
 25 52  1  0
 25 53  1  0
 26 54  1  0
 26 55  1  0
 26 56  1  0
M  END
$$$$
