
     RDKit          3D

 52 54  0  0  0  0  0  0  0  0999 V2000
   -7.3378    0.9471    0.5326 C   0  0  0  0  0  0  0  0  0  0  0  0
   -5.8852    0.6436    0.4598 C   0  0  0  0  0  0  0  0  0  0  0  0
   -5.0422    1.7197    0.5410 N   0  0  0  0  0  0  0  0  0  0  0  0
   -3.6952    1.5106    0.4767 C   0  0  0  0  0  0  0  0  0  0  0  0
   -2.7548    2.6516    0.5463 C   0  0  0  0  0  0  0  0  0  0  0  0
   -3.2309    0.2326    0.3342 C   0  0  0  0  0  0  0  0  0  0  0  0
   -1.7892   -0.0135    0.2396 C   0  0  0  0  0  0  0  0  0  0  0  0
   -1.3982   -0.8426   -0.8166 C   0  0  0  0  0  0  0  0  0  0  0  0
   -0.0651   -1.1412   -0.9923 C   0  0  0  0  0  0  0  0  0  0  0  0
    0.8920   -0.6315   -0.1370 C   0  0  0  0  0  0  0  0  0  0  0  0
    2.3444   -0.9656   -0.3252 C   0  0  1  0  0  0  0  0  0  0  0  0
    2.8098   -0.4926   -1.6671 C   0  0  0  0  0  0  0  0  0  0  0  0
    4.1132    0.1524   -1.7882 C   0  0  0  0  0  0  0  0  0  0  0  0
    4.9664    0.2540   -0.5603 C   0  0  2  0  0  0  0  0  0  0  0  0
    6.4521    0.0478   -0.8855 C   0  0  0  0  0  0  0  0  0  0  0  0
    7.1754    0.1973    0.4019 C   0  0  0  0  0  0  0  0  0  0  0  0
    6.9315    1.2100    1.1209 O   0  0  0  0  0  0  0  0  0  0  0  0
    8.1126   -0.7248    0.8633 O   0  0  0  0  0  0  0  0  0  0  0  0
    4.6211   -0.8286    0.4567 C   0  0  0  0  0  0  0  0  0  0  0  0
    3.1620   -0.5044    0.8264 C   0  0  0  0  0  0  0  0  0  0  0  0
    0.5063    0.1809    0.8981 C   0  0  0  0  0  0  0  0  0  0  0  0
   -0.8439    0.4832    1.0757 C   0  0  0  0  0  0  0  0  0  0  0  0
   -4.0756   -0.8273    0.2547 N   0  0  0  0  0  0  0  0  0  0  0  0
   -5.4298   -0.6316    0.3174 C   0  0  0  0  0  0  0  0  0  0  0  0
   -6.3304   -1.7630    0.2138 C   0  0  0  0  0  0  0  0  0  0  0  0
   -7.7241   -1.6854    0.1384 N   0  0  0  0  0  0  0  0  0  0  0  0
   -5.7784   -2.9449    0.1881 O   0  0  0  0  0  0  0  0  0  0  0  0
   -7.4984    2.0485    0.7846 H   0  0  0  0  0  0  0  0  0  0  0  0
   -7.8227    0.7812   -0.4266 H   0  0  0  0  0  0  0  0  0  0  0  0
   -7.7587    0.4238    1.4138 H   0  0  0  0  0  0  0  0  0  0  0  0
   -2.5595    2.9610    1.6108 H   0  0  0  0  0  0  0  0  0  0  0  0
   -1.7917    2.4854    0.0676 H   0  0  0  0  0  0  0  0  0  0  0  0
   -3.2491    3.5689    0.1074 H   0  0  0  0  0  0  0  0  0  0  0  0
   -2.1413   -1.2580   -1.5050 H   0  0  0  0  0  0  0  0  0  0  0  0
    0.2547   -1.7929   -1.8258 H   0  0  0  0  0  0  0  0  0  0  0  0
    2.3748   -2.1008   -0.3264 H   0  0  0  0  0  0  0  0  0  0  0  0
    2.7654   -1.3820   -2.3708 H   0  0  0  0  0  0  0  0  0  0  0  0
    2.0170    0.1746   -2.0832 H   0  0  0  0  0  0  0  0  0  0  0  0
    4.0140    1.1873   -2.2002 H   0  0  0  0  0  0  0  0  0  0  0  0
    4.7617   -0.3803   -2.5551 H   0  0  0  0  0  0  0  0  0  0  0  0
    4.8859    1.2174   -0.0465 H   0  0  0  0  0  0  0  0  0  0  0  0
    6.8112    0.8833   -1.5306 H   0  0  0  0  0  0  0  0  0  0  0  0
    6.6537   -0.9292   -1.3183 H   0  0  0  0  0  0  0  0  0  0  0  0
    8.1183   -0.9901    1.8699 H   0  0  0  0  0  0  0  0  0  0  0  0
    4.6287   -1.7954   -0.0844 H   0  0  0  0  0  0  0  0  0  0  0  0
    5.3056   -0.7612    1.2907 H   0  0  0  0  0  0  0  0  0  0  0  0
    2.9020   -1.0504    1.7282 H   0  0  0  0  0  0  0  0  0  0  0  0
    3.0632    0.6018    0.9164 H   0  0  0  0  0  0  0  0  0  0  0  0
    1.2058    0.6226    1.6242 H   0  0  0  0  0  0  0  0  0  0  0  0
   -1.1413    1.1199    1.9071 H   0  0  0  0  0  0  0  0  0  0  0  0
   -8.3020   -1.8226    0.9953 H   0  0  0  0  0  0  0  0  0  0  0  0
   -8.2035   -1.4991   -0.7568 H   0  0  0  0  0  0  0  0  0  0  0  0
  1  2  1  0
  2  3  2  0
  3  4  1  0
  4  5  1  0
  4  6  2  0
  6  7  1  0
  7  8  2  0
  8  9  1  0
  9 10  2  0
 10 11  1  0
 11 12  1  0
 12 13  1  0
 13 14  1  0
 14 15  1  0
 15 16  1  0
 16 17  2  0
 16 18  1  0
 14 19  1  0
 19 20  1  0
 10 21  1  0
 21 22  2  0
  6 23  1  0
 23 24  2  0
 24 25  1  0
 25 26  1  0
 25 27  2  0
 24  2  1  0
 22  7  1  0
 20 11  1  0
  1 28  1  0
  1 29  1  0
  1 30  1  0
  5 31  1  0
  5 32  1  0
  5 33  1  0
  8 34  1  0
  9 35  1  0
 11 36  1  6
 12 37  1  0
 12 38  1  0
 13 39  1  0
 13 40  1  0
 14 41  1  1
 15 42  1  0
 15 43  1  0
 18 44  1  0
 19 45  1  0
 19 46  1  0
 20 47  1  0
 20 48  1  0
 21 49  1  0
 22 50  1  0
 26 51  1  0
 26 52  1  0
M  END
$$$$
