
     RDKit          3D

 42 46  0  0  0  0  0  0  0  0999 V2000
    4.7985    0.5249    1.7587 O   0  0  0  0  0  0  0  0  0  0  0  0
    4.7175    0.5518    0.5280 C   0  0  0  0  0  0  0  0  0  0  0  0
    3.5315    0.1616   -0.0887 N   0  0  0  0  0  0  0  0  0  0  0  0
    2.3103   -0.2936    0.4640 C   0  0  0  0  0  0  0  0  0  0  0  0
    1.2616   -0.6261   -0.3578 C   0  0  0  0  0  0  0  0  0  0  0  0
    0.0549   -1.0732    0.1277 C   0  0  0  0  0  0  0  0  0  0  0  0
   -0.1714   -1.2139    1.4804 C   0  0  0  0  0  0  0  0  0  0  0  0
    0.8511   -0.8921    2.3363 C   0  0  0  0  0  0  0  0  0  0  0  0
    2.0402   -0.4490    1.8023 C   0  0  0  0  0  0  0  0  0  0  0  0
   -0.9821   -1.3947   -0.8469 C   0  0  0  0  0  0  0  0  0  0  0  0
   -0.8092   -2.1070   -1.9902 N   0  0  0  0  0  0  0  0  0  0  0  0
   -1.9547   -2.2123   -2.6408 N   0  0  0  0  0  0  0  0  0  0  0  0
   -2.9208   -1.5840   -1.9667 C   0  0  0  0  0  0  0  0  0  0  0  0
   -4.2824   -1.4076   -2.2259 C   0  0  0  0  0  0  0  0  0  0  0  0
   -4.9794   -0.6846   -1.2797 C   0  0  0  0  0  0  0  0  0  0  0  0
   -4.4265   -0.1538   -0.1474 C   0  0  0  0  0  0  0  0  0  0  0  0
   -3.0757   -0.3492    0.0749 C   0  0  0  0  0  0  0  0  0  0  0  0
   -2.3184   -1.0654   -0.8349 C   0  0  0  0  0  0  0  0  0  0  0  0
   -5.2713    0.5934    0.7792 C   0  0  0  0  0  0  0  0  0  0  0  0
   -5.1030    0.7420    2.1201 N   0  0  0  0  0  0  0  0  0  0  0  0
   -6.0827    1.4930    2.6025 N   0  0  0  0  0  0  0  0  0  0  0  0
   -6.9023    1.8445    1.5865 C   0  0  0  0  0  0  0  0  0  0  0  0
   -6.3886    1.2805    0.4605 N   0  0  0  0  0  0  0  0  0  0  0  0
    5.9081    1.0030   -0.1754 C   0  0  0  0  0  0  0  0  0  0  0  0
    7.0864    1.3915    0.4184 C   0  0  0  0  0  0  0  0  0  0  0  0
    7.9902    1.7552   -0.5863 C   0  0  0  0  0  0  0  0  0  0  0  0
    7.2887    1.5607   -1.7575 C   0  0  0  0  0  0  0  0  0  0  0  0
    6.0870    1.1241   -1.4640 O   0  0  0  0  0  0  0  0  0  0  0  0
    3.5930    0.2307   -1.1404 H   0  0  0  0  0  0  0  0  0  0  0  0
    1.3994   -0.5287   -1.4430 H   0  0  0  0  0  0  0  0  0  0  0  0
   -1.1159   -1.5644    1.8735 H   0  0  0  0  0  0  0  0  0  0  0  0
    0.6935   -0.9952    3.3938 H   0  0  0  0  0  0  0  0  0  0  0  0
    2.7965   -0.2155    2.5337 H   0  0  0  0  0  0  0  0  0  0  0  0
   -2.1290   -2.7095   -3.5601 H   0  0  0  0  0  0  0  0  0  0  0  0
   -4.7614   -1.8126   -3.1133 H   0  0  0  0  0  0  0  0  0  0  0  0
   -6.0370   -0.5379   -1.4645 H   0  0  0  0  0  0  0  0  0  0  0  0
   -2.6263    0.0657    0.9669 H   0  0  0  0  0  0  0  0  0  0  0  0
   -6.2969    1.8245    3.5661 H   0  0  0  0  0  0  0  0  0  0  0  0
   -7.8141    2.4346    1.4767 H   0  0  0  0  0  0  0  0  0  0  0  0
    7.3306    1.4302    1.4716 H   0  0  0  0  0  0  0  0  0  0  0  0
    9.0164    2.1098   -0.4300 H   0  0  0  0  0  0  0  0  0  0  0  0
    7.6933    1.7484   -2.7602 H   0  0  0  0  0  0  0  0  0  0  0  0
  1  2  2  0
  2  3  1  0
  3  4  1  0
  4  5  2  0
  5  6  1  0
  6  7  2  0
  7  8  1  0
  8  9  2  0
  6 10  1  0
 10 11  2  0
 11 12  1  0
 12 13  1  0
 13 14  2  0
 14 15  1  0
 15 16  2  0
 16 17  1  0
 17 18  2  0
 16 19  1  0
 19 20  2  0
 20 21  1  0
 21 22  1  0
 22 23  2  0
  2 24  1  0
 24 25  2  0
 25 26  1  0
 26 27  2  0
 27 28  1  0
  9  4  1  0
 18 10  1  0
 23 19  1  0
 28 24  1  0
 18 13  1  0
  3 29  1  0
  5 30  1  0
  7 31  1  0
  8 32  1  0
  9 33  1  0
 12 34  1  0
 14 35  1  0
 15 36  1  0
 17 37  1  0
 21 38  1  0
 22 39  1  0
 25 40  1  0
 26 41  1  0
 27 42  1  0
M  END
$$$$
