
     RDKit          3D

 44 46  0  0  0  0  0  0  0  0999 V2000
    5.8113    0.1298    2.1990 C   0  0  0  0  0  0  0  0  0  0  0  0
    4.5769   -0.0297    1.3429 C   0  0  0  0  0  0  0  0  0  0  0  0
    4.7973    0.6110   -0.0219 C   0  0  0  0  0  0  0  0  0  0  0  0
    3.3146    0.3835   -0.9614 S   0  0  0  0  0  6  0  0  0  0  0  0
    3.4191    0.8775   -2.3543 O   0  0  0  0  0  0  0  0  0  0  0  0
    3.0058   -1.0897   -1.0018 O   0  0  0  0  0  0  0  0  0  0  0  0
    1.9151    1.1603   -0.1401 C   0  0  0  0  0  0  0  0  0  0  0  0
    0.7332    0.8984   -1.0278 C   0  0  1  0  0  0  0  0  0  0  0  0
    0.4182   -0.5661   -1.2562 C   0  0  0  0  0  0  0  0  0  0  0  0
   -1.0415   -0.0903   -1.3296 C   0  0  1  0  0  0  0  0  0  0  0  0
   -1.9602   -1.0854   -0.8673 N   0  0  0  0  0  0  0  0  0  0  0  0
   -1.9368   -2.3507   -1.6121 C   0  0  0  0  0  0  0  0  0  0  0  0
   -2.8551   -0.9805    0.1930 C   0  0  0  0  0  0  0  0  0  0  0  0
   -2.8415   -1.7835    1.2666 N   0  0  0  0  0  0  0  0  0  0  0  0
   -3.7088   -1.6787    2.2900 C   0  0  0  0  0  0  0  0  0  0  0  0
   -4.6520   -0.7273    2.2641 N   0  0  0  0  0  0  0  0  0  0  0  0
   -4.7384    0.1190    1.2293 C   0  0  0  0  0  0  0  0  0  0  0  0
   -5.5671    1.1498    0.9415 N   0  0  0  0  0  0  0  0  0  0  0  0
   -5.2262    1.6850   -0.2446 C   0  0  0  0  0  0  0  0  0  0  0  0
   -4.1396    0.9683   -0.7305 C   0  0  0  0  0  0  0  0  0  0  0  0
   -3.8310   -0.0072    0.1812 C   0  0  0  0  0  0  0  0  0  0  0  0
   -0.6227    0.9541   -0.3197 C   0  0  0  0  0  0  0  0  0  0  0  0
    6.6551    0.3822    1.5151 H   0  0  0  0  0  0  0  0  0  0  0  0
    5.6128    0.9073    2.9529 H   0  0  0  0  0  0  0  0  0  0  0  0
    5.9975   -0.8706    2.6779 H   0  0  0  0  0  0  0  0  0  0  0  0
    4.2913   -1.0875    1.1900 H   0  0  0  0  0  0  0  0  0  0  0  0
    3.7130    0.4832    1.8145 H   0  0  0  0  0  0  0  0  0  0  0  0
    5.6166    0.1412   -0.5726 H   0  0  0  0  0  0  0  0  0  0  0  0
    4.9710    1.6971    0.0998 H   0  0  0  0  0  0  0  0  0  0  0  0
    1.8298    0.7303    0.8572 H   0  0  0  0  0  0  0  0  0  0  0  0
    2.1467    2.2425   -0.1314 H   0  0  0  0  0  0  0  0  0  0  0  0
    0.7618    1.4974   -1.9385 H   0  0  0  0  0  0  0  0  0  0  0  0
    0.6239   -1.1266   -0.3057 H   0  0  0  0  0  0  0  0  0  0  0  0
    0.8019   -1.0090   -2.1722 H   0  0  0  0  0  0  0  0  0  0  0  0
   -1.1974    0.2884   -2.3610 H   0  0  0  0  0  0  0  0  0  0  0  0
   -0.8816   -2.6773   -1.7237 H   0  0  0  0  0  0  0  0  0  0  0  0
   -2.3502   -2.2309   -2.6208 H   0  0  0  0  0  0  0  0  0  0  0  0
   -2.4939   -3.1382   -1.0989 H   0  0  0  0  0  0  0  0  0  0  0  0
   -3.6436   -2.3676    3.1392 H   0  0  0  0  0  0  0  0  0  0  0  0
   -6.3591    1.5088    1.5180 H   0  0  0  0  0  0  0  0  0  0  0  0
   -5.6714    2.5153   -0.7752 H   0  0  0  0  0  0  0  0  0  0  0  0
   -3.5941    1.1086   -1.6546 H   0  0  0  0  0  0  0  0  0  0  0  0
   -1.1177    1.9356   -0.4220 H   0  0  0  0  0  0  0  0  0  0  0  0
   -0.5832    0.5223    0.6881 H   0  0  0  0  0  0  0  0  0  0  0  0
  1  2  1  0
  2  3  1  0
  3  4  1  0
  4  5  2  0
  4  6  2  0
  4  7  1  0
  7  8  1  0
  8  9  1  0
  9 10  1  0
 10 11  1  0
 11 12  1  0
 11 13  1  0
 13 14  2  0
 14 15  1  0
 15 16  2  0
 16 17  1  0
 17 18  1  0
 18 19  1  0
 19 20  2  0
 20 21  1  0
 10 22  1  0
 22  8  1  0
 21 13  1  0
 21 17  2  0
  1 23  1  0
  1 24  1  0
  1 25  1  0
  2 26  1  0
  2 27  1  0
  3 28  1  0
  3 29  1  0
  7 30  1  0
  7 31  1  0
  8 32  1  6
  9 33  1  0
  9 34  1  0
 10 35  1  6
 12 36  1  0
 12 37  1  0
 12 38  1  0
 15 39  1  0
 18 40  1  0
 19 41  1  0
 20 42  1  0
 22 43  1  0
 22 44  1  0
M  END
$$$$
