
     RDKit          3D

 55 58  0  0  0  0  0  0  0  0999 V2000
   -2.2821    5.2848    2.0611 C   0  0  0  0  0  0  0  0  0  0  0  0
   -1.7085    4.0627    1.4265 C   0  0  0  0  0  0  0  0  0  0  0  0
   -2.3751    3.0348    0.7947 C   0  0  0  0  0  0  0  0  0  0  0  0
   -1.4458    2.1126    0.3591 C   0  0  0  0  0  0  0  0  0  0  0  0
   -1.5656    0.8967   -0.3308 C   0  0  0  0  0  0  0  0  0  0  0  0
   -2.8103    0.4782   -0.6717 O   0  0  0  0  0  0  0  0  0  0  0  0
   -3.1637   -0.6794   -1.3536 C   0  0  2  0  0  0  0  0  0  0  0  0
   -3.8495   -0.3200   -2.6616 C   0  0  0  0  0  0  0  0  0  0  0  0
   -4.0568   -1.5864   -0.5193 C   0  0  1  0  0  0  0  0  0  0  0  0
   -3.3234   -1.9878    0.7415 C   0  0  0  0  0  0  0  0  0  0  0  0
   -4.4283   -2.2990    1.6361 N   0  0  0  0  0  0  0  0  0  0  0  0
   -5.5531   -1.5200    1.2494 C   0  0  0  0  0  0  0  0  0  0  0  0
   -6.6839   -1.4659    1.7804 O   0  0  0  0  0  0  0  0  0  0  0  0
   -5.1654   -0.7235    0.0398 C   0  0  0  0  0  0  0  0  0  0  0  0
   -0.4467    0.1701   -0.6410 C   0  0  0  0  0  0  0  0  0  0  0  0
    0.7955    0.6680   -0.2558 C   0  0  0  0  0  0  0  0  0  0  0  0
    2.0048   -0.0895   -0.5746 C   0  0  0  0  0  0  0  0  0  0  0  0
    2.1510   -0.8787   -1.6954 C   0  0  0  0  0  0  0  0  0  0  0  0
    3.3974   -1.4222   -1.6550 N   0  0  0  0  0  0  0  0  0  0  0  0
    4.0372   -1.0170   -0.5723 N   0  0  0  0  0  0  0  0  0  0  0  0
    5.3961   -1.3740   -0.1616 C   0  0  0  0  0  0  0  0  0  0  0  0
    5.8877   -0.4192    0.9169 C   0  0  0  0  0  0  0  0  0  0  0  0
    6.3637   -1.3123   -1.3030 C   0  0  0  0  0  0  0  0  0  0  0  0
    5.3386   -2.7550    0.4699 C   0  0  0  0  0  0  0  0  0  0  0  0
    3.1971   -0.1970    0.1041 C   0  0  0  0  0  0  0  0  0  0  0  0
    0.8274    1.8642    0.4154 C   0  0  0  0  0  0  0  0  0  0  0  0
   -0.2544    2.5975    0.7325 N   0  0  0  0  0  0  0  0  0  0  0  0
   -0.4091    3.7668    1.3728 N   0  0  0  0  0  0  0  0  0  0  0  0
   -1.8117    5.4333    3.0669 H   0  0  0  0  0  0  0  0  0  0  0  0
   -2.0670    6.2008    1.4715 H   0  0  0  0  0  0  0  0  0  0  0  0
   -3.3729    5.1051    2.1575 H   0  0  0  0  0  0  0  0  0  0  0  0
   -3.4349    2.9600    0.6621 H   0  0  0  0  0  0  0  0  0  0  0  0
   -2.2743   -1.2544   -1.6267 H   0  0  0  0  0  0  0  0  0  0  0  0
   -4.1949   -1.2717   -3.1369 H   0  0  0  0  0  0  0  0  0  0  0  0
   -3.0662    0.0899   -3.3298 H   0  0  0  0  0  0  0  0  0  0  0  0
   -4.6548    0.4050   -2.5322 H   0  0  0  0  0  0  0  0  0  0  0  0
   -4.4135   -2.4467   -1.0872 H   0  0  0  0  0  0  0  0  0  0  0  0
   -2.6763   -2.8631    0.5533 H   0  0  0  0  0  0  0  0  0  0  0  0
   -2.7847   -1.1221    1.1633 H   0  0  0  0  0  0  0  0  0  0  0  0
   -4.4398   -2.9695    2.4349 H   0  0  0  0  0  0  0  0  0  0  0  0
   -5.9941   -0.5579   -0.6488 H   0  0  0  0  0  0  0  0  0  0  0  0
   -4.7027    0.2058    0.4347 H   0  0  0  0  0  0  0  0  0  0  0  0
   -0.4354   -0.7699   -1.1654 H   0  0  0  0  0  0  0  0  0  0  0  0
    1.4243   -1.0614   -2.4941 H   0  0  0  0  0  0  0  0  0  0  0  0
    5.5955    0.6204    0.6367 H   0  0  0  0  0  0  0  0  0  0  0  0
    5.4031   -0.6295    1.8923 H   0  0  0  0  0  0  0  0  0  0  0  0
    6.9879   -0.5387    1.0084 H   0  0  0  0  0  0  0  0  0  0  0  0
    7.2457   -0.6488   -1.0739 H   0  0  0  0  0  0  0  0  0  0  0  0
    5.9078   -0.8740   -2.2150 H   0  0  0  0  0  0  0  0  0  0  0  0
    6.7650   -2.3298   -1.4736 H   0  0  0  0  0  0  0  0  0  0  0  0
    6.3657   -3.0160    0.7530 H   0  0  0  0  0  0  0  0  0  0  0  0
    4.8766   -3.4420   -0.2627 H   0  0  0  0  0  0  0  0  0  0  0  0
    4.6806   -2.6711    1.3561 H   0  0  0  0  0  0  0  0  0  0  0  0
    3.4026    0.3107    1.0383 H   0  0  0  0  0  0  0  0  0  0  0  0
    1.7939    2.2460    0.7128 H   0  0  0  0  0  0  0  0  0  0  0  0
  1  2  1  0
  2  3  1  0
  3  4  2  0
  4  5  1  0
  5  6  1  0
  6  7  1  0
  7  8  1  0
  7  9  1  0
  9 10  1  0
 10 11  1  0
 11 12  1  0
 12 13  2  0
 12 14  1  0
  5 15  2  0
 15 16  1  0
 16 17  1  0
 17 18  1  0
 18 19  2  0
 19 20  1  0
 20 21  1  0
 21 22  1  0
 21 23  1  0
 21 24  1  0
 20 25  1  0
 16 26  2  0
 26 27  1  0
 27 28  1  0
 28  2  2  0
 27  4  1  0
 14  9  1  0
 25 17  2  0
  1 29  1  0
  1 30  1  0
  1 31  1  0
  3 32  1  0
  7 33  1  6
  8 34  1  0
  8 35  1  0
  8 36  1  0
  9 37  1  6
 10 38  1  0
 10 39  1  0
 11 40  1  0
 14 41  1  0
 14 42  1  0
 15 43  1  0
 18 44  1  0
 22 45  1  0
 22 46  1  0
 22 47  1  0
 23 48  1  0
 23 49  1  0
 23 50  1  0
 24 51  1  0
 24 52  1  0
 24 53  1  0
 25 54  1  0
 26 55  1  0
M  END
$$$$
