
     RDKit          3D

 50 54  0  0  0  0  0  0  0  0999 V2000
    6.0765   -1.8905    0.9692 O   0  0  0  0  0  0  0  0  0  0  0  0
    5.0090   -1.2919    0.7282 C   0  0  0  0  0  0  0  0  0  0  0  0
    3.7076   -1.8613    0.8992 N   0  0  0  0  0  0  0  0  0  0  0  0
    2.7282   -0.8897    0.5313 C   0  0  0  0  0  0  0  0  0  0  0  0
    1.3317   -0.9536    0.5131 C   0  0  0  0  0  0  0  0  0  0  0  0
    0.5821    0.1281    0.1036 C   0  0  0  0  0  0  0  0  0  0  0  0
   -0.8426    0.0893    0.0578 N   0  0  0  0  0  0  0  0  0  0  0  0
   -1.4251   -0.3694   -1.1417 C   0  0  0  0  0  0  0  0  0  0  0  0
   -0.6236   -0.7100   -2.0929 O   0  0  0  0  0  0  0  0  0  0  0  0
   -2.8294   -0.4897   -1.3935 C   0  0  0  0  0  0  0  0  0  0  0  0
   -3.2747   -0.9675   -2.6214 C   0  0  0  0  0  0  0  0  0  0  0  0
   -4.5542   -1.1152   -2.9287 N   0  0  0  0  0  0  0  0  0  0  0  0
   -5.5116   -0.7989   -2.0360 C   0  0  0  0  0  0  0  0  0  0  0  0
   -5.1768   -0.3180   -0.7940 C   0  0  0  0  0  0  0  0  0  0  0  0
   -6.2187    0.0202    0.1759 C   0  0  0  0  0  0  0  0  0  0  0  0
   -6.6591    1.3422    0.1297 C   0  0  0  0  0  0  0  0  0  0  0  0
   -7.6395    1.7219    1.0232 C   0  0  0  0  0  0  0  0  0  0  0  0
   -8.1976    0.8621    1.9497 C   0  0  0  0  0  0  0  0  0  0  0  0
   -7.7289   -0.4413    1.9586 C   0  0  0  0  0  0  0  0  0  0  0  0
   -6.7404   -0.8733    1.0770 C   0  0  0  0  0  0  0  0  0  0  0  0
   -6.2797   -2.1416    1.0807 F   0  0  0  0  0  0  0  0  0  0  0  0
   -3.8241   -0.1729   -0.4985 C   0  0  0  0  0  0  0  0  0  0  0  0
   -3.5687    0.2675    0.6426 O   0  0  0  0  0  0  0  0  0  0  0  0
    1.2154    1.2779   -0.2886 C   0  0  0  0  0  0  0  0  0  0  0  0
    2.6130    1.3880   -0.2872 C   0  0  0  0  0  0  0  0  0  0  0  0
    3.3387    0.2786    0.1311 C   0  0  0  0  0  0  0  0  0  0  0  0
    4.7915    0.0599    0.2430 C   0  0  0  0  0  0  0  0  0  0  0  0
    5.7605    0.9111   -0.0607 C   0  0  0  0  0  0  0  0  0  0  0  0
    7.1784    0.6162    0.0399 C   0  0  0  0  0  0  0  0  0  0  0  0
    7.9150   -0.4167   -0.4719 C   0  0  0  0  0  0  0  0  0  0  0  0
    9.2173   -0.2395   -0.0367 C   0  0  0  0  0  0  0  0  0  0  0  0
    9.2677    0.9043    0.7397 C   0  0  0  0  0  0  0  0  0  0  0  0
    8.0119    1.4095    0.7715 N   0  0  0  0  0  0  0  0  0  0  0  0
    3.5287   -2.8308    1.2397 H   0  0  0  0  0  0  0  0  0  0  0  0
    0.8218   -1.8642    0.8253 H   0  0  0  0  0  0  0  0  0  0  0  0
   -1.3973    0.3860    0.8748 H   0  0  0  0  0  0  0  0  0  0  0  0
   -2.5288   -1.2280   -3.3526 H   0  0  0  0  0  0  0  0  0  0  0  0
   -4.8378   -1.4732   -3.8542 H   0  0  0  0  0  0  0  0  0  0  0  0
   -6.5640   -0.9175   -2.2745 H   0  0  0  0  0  0  0  0  0  0  0  0
   -6.2488    2.0496   -0.5788 H   0  0  0  0  0  0  0  0  0  0  0  0
   -8.0179    2.7470    1.0263 H   0  0  0  0  0  0  0  0  0  0  0  0
   -8.9739    1.1890    2.6467 H   0  0  0  0  0  0  0  0  0  0  0  0
   -8.1524   -1.1518    2.6853 H   0  0  0  0  0  0  0  0  0  0  0  0
    0.6222    2.1204   -0.6060 H   0  0  0  0  0  0  0  0  0  0  0  0
    3.1466    2.2549   -0.5832 H   0  0  0  0  0  0  0  0  0  0  0  0
    5.4134    1.8997   -0.4081 H   0  0  0  0  0  0  0  0  0  0  0  0
    7.5324   -1.1972   -1.1094 H   0  0  0  0  0  0  0  0  0  0  0  0
   10.0612   -0.8855   -0.2620 H   0  0  0  0  0  0  0  0  0  0  0  0
   10.1624    1.2864    1.2154 H   0  0  0  0  0  0  0  0  0  0  0  0
    7.7823    2.2792    1.2972 H   0  0  0  0  0  0  0  0  0  0  0  0
  1  2  2  0
  2  3  1  0
  3  4  1  0
  4  5  2  0
  5  6  1  0
  6  7  1  0
  7  8  1  0
  8  9  2  0
  8 10  1  0
 10 11  2  0
 11 12  1  0
 12 13  1  0
 13 14  2  0
 14 15  1  0
 15 16  2  0
 16 17  1  0
 17 18  2  0
 18 19  1  0
 19 20  2  0
 20 21  1  0
 14 22  1  0
 22 23  2  0
  6 24  2  0
 24 25  1  0
 25 26  2  0
 26 27  1  0
 27 28  2  0
 28 29  1  0
 29 30  2  0
 30 31  1  0
 31 32  2  0
 32 33  1  0
 27  2  1  0
 33 29  1  0
 26  4  1  0
 22 10  1  0
 20 15  1  0
  3 34  1  0
  5 35  1  0
  7 36  1  0
 11 37  1  0
 12 38  1  0
 13 39  1  0
 16 40  1  0
 17 41  1  0
 18 42  1  0
 19 43  1  0
 24 44  1  0
 25 45  1  0
 28 46  1  0
 30 47  1  0
 31 48  1  0
 32 49  1  0
 33 50  1  0
M  END
$$$$
