
     RDKit          3D

 64 69  0  0  0  0  0  0  0  0999 V2000
    0.1583    0.8955    1.1179 O   0  0  0  0  0  0  0  0  0  0  0  0
    1.2887    0.4500    0.7657 C   0  0  0  0  0  0  0  0  0  0  0  0
    2.3737    0.8373    1.5362 O   0  0  0  0  0  0  0  0  0  0  0  0
    1.4683   -0.4390   -0.4033 C   0  0  2  0  0  0  0  0  0  0  0  0
    0.7262   -1.7438   -0.2842 C   0  0  0  0  0  0  0  0  0  0  0  0
   -0.7191   -1.5258   -0.1431 C   0  0  0  0  0  0  0  0  0  0  0  0
   -1.5742   -1.3938   -1.2214 C   0  0  0  0  0  0  0  0  0  0  0  0
   -2.9449   -1.2023   -1.0019 C   0  0  0  0  0  0  0  0  0  0  0  0
   -3.4465   -1.1446    0.2743 C   0  0  0  0  0  0  0  0  0  0  0  0
   -4.8279   -0.9513    0.4793 N   0  0  0  0  0  0  0  0  0  0  0  0
   -5.5037    0.1830    0.1471 C   0  0  0  0  0  0  0  0  0  0  0  0
   -4.9148    1.3555   -0.4624 C   0  0  0  0  0  0  0  0  0  0  0  0
   -5.4065    1.9586   -1.6007 C   0  0  0  0  0  0  0  0  0  0  0  0
   -4.7961    3.0839   -2.1387 C   0  0  0  0  0  0  0  0  0  0  0  0
   -3.6816    3.6214   -1.5414 C   0  0  0  0  0  0  0  0  0  0  0  0
   -3.2122    3.0211   -0.4291 N   0  0  0  0  0  0  0  0  0  0  0  0
   -3.7997    1.9188    0.1088 C   0  0  0  0  0  0  0  0  0  0  0  0
   -6.7814   -0.0295    0.4995 N   0  0  0  0  0  0  0  0  0  0  0  0
   -6.9338   -1.2405    1.0348 C   0  0  0  0  0  0  0  0  0  0  0  0
   -8.0402   -1.9163    1.5445 C   0  0  0  0  0  0  0  0  0  0  0  0
   -7.8204   -3.1878    2.0280 C   0  0  0  0  0  0  0  0  0  0  0  0
   -6.5666   -3.7506    2.0031 C   0  0  0  0  0  0  0  0  0  0  0  0
   -5.5208   -3.0889    1.5117 N   0  0  0  0  0  0  0  0  0  0  0  0
   -5.6992   -1.8377    1.0281 C   0  0  0  0  0  0  0  0  0  0  0  0
   -2.5902   -1.2766    1.3287 C   0  0  0  0  0  0  0  0  0  0  0  0
   -1.2446   -1.4648    1.1269 C   0  0  0  0  0  0  0  0  0  0  0  0
    2.8968   -0.7063   -0.5388 N   0  0  0  0  0  0  0  0  0  0  0  0
    3.7983    0.4021   -0.7440 C   0  0  0  0  0  0  0  0  0  0  0  0
    3.5886    1.5617   -1.2902 C   0  0  0  0  0  0  0  0  0  0  0  0
    2.0451    2.4305   -2.0983 Br  0  0  0  0  0  0  0  0  0  0  0  0
    4.9334    1.9766   -1.0748 C   0  0  0  0  0  0  0  0  0  0  0  0
    5.5718    3.0522   -1.3346 O   0  0  0  0  0  0  0  0  0  0  0  0
    5.1910    0.7074   -0.4779 C   0  0  0  0  0  0  0  0  0  0  0  0
    6.1996   -0.1879   -1.1883 C   0  0  0  0  0  0  0  0  0  0  0  0
    7.4805    0.6306   -1.2881 C   0  0  0  0  0  0  0  0  0  0  0  0
    7.8526    1.2123    0.0596 C   0  0  0  0  0  0  0  0  0  0  0  0
    7.0411    0.5712    1.1645 C   0  0  0  0  0  0  0  0  0  0  0  0
    5.5670    0.7007    0.9956 C   0  0  0  0  0  0  0  0  0  0  0  0
    2.2873    1.6962    2.0640 H   0  0  0  0  0  0  0  0  0  0  0  0
    1.0888    0.1185   -1.2995 H   0  0  0  0  0  0  0  0  0  0  0  0
    1.1396   -2.2669    0.6184 H   0  0  0  0  0  0  0  0  0  0  0  0
    0.9144   -2.3129   -1.2090 H   0  0  0  0  0  0  0  0  0  0  0  0
   -1.1568   -1.4426   -2.2103 H   0  0  0  0  0  0  0  0  0  0  0  0
   -3.5786   -1.1037   -1.8801 H   0  0  0  0  0  0  0  0  0  0  0  0
   -6.2937    1.5179   -2.0629 H   0  0  0  0  0  0  0  0  0  0  0  0
   -5.1827    3.5482   -3.0234 H   0  0  0  0  0  0  0  0  0  0  0  0
   -3.1869    4.5121   -1.9553 H   0  0  0  0  0  0  0  0  0  0  0  0
   -3.3690    1.4987    0.9932 H   0  0  0  0  0  0  0  0  0  0  0  0
   -9.0094   -1.4375    1.5456 H   0  0  0  0  0  0  0  0  0  0  0  0
   -8.6526   -3.7651    2.4402 H   0  0  0  0  0  0  0  0  0  0  0  0
   -6.4388   -4.7471    2.3912 H   0  0  0  0  0  0  0  0  0  0  0  0
   -2.9604   -1.2346    2.3355 H   0  0  0  0  0  0  0  0  0  0  0  0
   -0.6002   -1.5707    1.9753 H   0  0  0  0  0  0  0  0  0  0  0  0
    3.2724   -1.6679   -0.4909 H   0  0  0  0  0  0  0  0  0  0  0  0
    5.8465   -0.5103   -2.1660 H   0  0  0  0  0  0  0  0  0  0  0  0
    6.4008   -1.0393   -0.5271 H   0  0  0  0  0  0  0  0  0  0  0  0
    7.2731    1.4794   -1.9662 H   0  0  0  0  0  0  0  0  0  0  0  0
    8.2965    0.0299   -1.7150 H   0  0  0  0  0  0  0  0  0  0  0  0
    8.9120    0.9359    0.2504 H   0  0  0  0  0  0  0  0  0  0  0  0
    7.8101    2.3106    0.0775 H   0  0  0  0  0  0  0  0  0  0  0  0
    7.3857   -0.4900    1.2399 H   0  0  0  0  0  0  0  0  0  0  0  0
    7.3955    1.0520    2.1197 H   0  0  0  0  0  0  0  0  0  0  0  0
    5.1726    1.5954    1.5136 H   0  0  0  0  0  0  0  0  0  0  0  0
    5.0767   -0.1892    1.4479 H   0  0  0  0  0  0  0  0  0  0  0  0
  1  2  2  0
  2  3  1  0
  2  4  1  0
  4  5  1  0
  5  6  1  0
  6  7  2  0
  7  8  1  0
  8  9  2  0
  9 10  1  0
 10 11  1  0
 11 12  1  0
 12 13  2  0
 13 14  1  0
 14 15  2  0
 15 16  1  0
 16 17  2  0
 11 18  2  0
 18 19  1  0
 19 20  2  0
 20 21  1  0
 21 22  2  0
 22 23  1  0
 23 24  2  0
  9 25  1  0
 25 26  2  0
  4 27  1  0
 27 28  1  0
 28 29  2  0
 29 30  1  0
 29 31  1  0
 31 32  2  0
 31 33  1  0
 33 34  1  0
 34 35  1  0
 35 36  1  0
 36 37  1  0
 37 38  1  0
 26  6  1  0
 33 28  1  0
 24 10  1  0
 38 33  1  0
 17 12  1  0
 24 19  1  0
  3 39  1  0
  4 40  1  6
  5 41  1  0
  5 42  1  0
  7 43  1  0
  8 44  1  0
 13 45  1  0
 14 46  1  0
 15 47  1  0
 17 48  1  0
 20 49  1  0
 21 50  1  0
 22 51  1  0
 25 52  1  0
 26 53  1  0
 27 54  1  0
 34 55  1  0
 34 56  1  0
 35 57  1  0
 35 58  1  0
 36 59  1  0
 36 60  1  0
 37 61  1  0
 37 62  1  0
 38 63  1  0
 38 64  1  0
M  END
$$$$
