
     RDKit          3D

 57 61  0  0  0  0  0  0  0  0999 V2000
   -0.6868   -2.9343   -1.5503 C   0  0  0  0  0  0  0  0  0  0  0  0
   -0.7067   -1.5016   -0.9133 C   0  0  2  0  0  0  0  0  0  0  0  0
    0.1823   -0.7169   -1.8608 C   0  0  0  0  0  0  0  0  0  0  0  0
    1.4317   -0.2965   -1.4390 C   0  0  0  0  0  0  0  0  0  0  0  0
    2.2578    0.3823   -2.2999 C   0  0  0  0  0  0  0  0  0  0  0  0
    3.6017    0.8310   -1.9670 C   0  0  0  0  0  0  0  0  0  0  0  0
    4.4279    0.1422   -1.2277 C   0  0  0  0  0  0  0  0  0  0  0  0
    3.9361   -1.0512   -0.7783 F   0  0  0  0  0  0  0  0  0  0  0  0
    5.7870    0.5187   -0.8698 C   0  0  0  0  0  0  0  0  0  0  0  0
    6.5362   -0.3436   -0.0595 C   0  0  0  0  0  0  0  0  0  0  0  0
    7.8399   -0.0542    0.2924 C   0  0  0  0  0  0  0  0  0  0  0  0
    8.4138    1.0975   -0.1567 C   0  0  0  0  0  0  0  0  0  0  0  0
    9.8120    1.3975    0.2045 C   0  0  0  0  0  0  0  0  0  0  0  0
   10.8774    1.6265    0.4983 N   0  0  0  0  0  0  0  0  0  0  0  0
    7.6922    1.9586   -0.9508 C   0  0  0  0  0  0  0  0  0  0  0  0
    6.3930    1.6309   -1.2793 N   0  0  0  0  0  0  0  0  0  0  0  0
    1.7890    0.6196   -3.5715 C   0  0  0  0  0  0  0  0  0  0  0  0
    0.5647    0.2142   -3.9986 N   0  0  0  0  0  0  0  0  0  0  0  0
   -0.2275   -0.4543   -3.1297 C   0  0  0  0  0  0  0  0  0  0  0  0
   -1.4556   -0.8639   -3.5200 F   0  0  0  0  0  0  0  0  0  0  0  0
    0.0158   -1.5625    0.3065 N   0  0  0  0  0  0  0  0  0  0  0  0
   -0.2920   -1.2834    1.4930 C   0  0  0  0  0  0  0  0  0  0  0  0
    0.6536   -1.4455    2.5341 N   0  0  0  0  0  0  0  0  0  0  0  0
   -1.9186   -0.6910    1.8357 S   0  0  0  0  0  0  0  0  0  0  0  0
   -2.7650   -0.5035    0.2410 C   0  0  1  0  0  0  0  0  0  0  0  0
   -4.2620   -0.6524    0.3179 C   0  0  0  0  0  0  0  0  0  0  0  0
   -4.7030   -1.8004    0.0624 O   0  0  0  0  0  0  0  0  0  0  0  0
   -5.1623    0.3649    0.6467 N   0  0  0  0  0  0  0  0  0  0  0  0
   -6.6161    0.1201    0.7289 C   0  0  0  0  0  0  0  0  0  0  0  0
   -6.9142    0.1227    2.2242 C   0  0  0  0  0  0  0  0  0  0  0  0
   -6.2082    1.1336    2.8650 O   0  0  0  0  0  0  0  0  0  0  0  0
   -5.7817    2.1554    2.0568 C   0  0  0  0  0  0  0  0  0  0  0  0
   -4.7986    1.7406    0.9777 C   0  0  0  0  0  0  0  0  0  0  0  0
   -2.2642    0.4703   -0.7319 C   0  0  0  0  0  0  0  0  0  0  0  0
   -2.0705   -0.9945   -0.9347 C   0  0  1  0  0  0  0  0  0  0  0  0
   -1.5261   -3.5337   -1.2061 H   0  0  0  0  0  0  0  0  0  0  0  0
    0.3250   -3.3775   -1.2915 H   0  0  0  0  0  0  0  0  0  0  0  0
   -0.6832   -2.7792   -2.6369 H   0  0  0  0  0  0  0  0  0  0  0  0
    1.7579   -0.4919   -0.4264 H   0  0  0  0  0  0  0  0  0  0  0  0
    3.9422    1.7928   -2.3523 H   0  0  0  0  0  0  0  0  0  0  0  0
    6.0356   -1.2477    0.2787 H   0  0  0  0  0  0  0  0  0  0  0  0
    8.4240   -0.7135    0.9086 H   0  0  0  0  0  0  0  0  0  0  0  0
    8.1455    2.8665   -1.3010 H   0  0  0  0  0  0  0  0  0  0  0  0
    2.3950    1.1579   -4.3220 H   0  0  0  0  0  0  0  0  0  0  0  0
    0.4523   -2.0470    3.3876 H   0  0  0  0  0  0  0  0  0  0  0  0
    1.6110   -0.9962    2.5435 H   0  0  0  0  0  0  0  0  0  0  0  0
   -6.9341   -0.7793    0.2135 H   0  0  0  0  0  0  0  0  0  0  0  0
   -7.1065    1.0077    0.2989 H   0  0  0  0  0  0  0  0  0  0  0  0
   -6.5282   -0.8327    2.6248 H   0  0  0  0  0  0  0  0  0  0  0  0
   -8.0093    0.1443    2.4034 H   0  0  0  0  0  0  0  0  0  0  0  0
   -6.6234    2.7248    1.5696 H   0  0  0  0  0  0  0  0  0  0  0  0
   -5.2600    2.8899    2.7044 H   0  0  0  0  0  0  0  0  0  0  0  0
   -3.7954    1.8474    1.3726 H   0  0  0  0  0  0  0  0  0  0  0  0
   -4.9506    2.4147    0.1077 H   0  0  0  0  0  0  0  0  0  0  0  0
   -2.9555    1.0399   -1.4014 H   0  0  0  0  0  0  0  0  0  0  0  0
   -1.3536    1.0528   -0.4885 H   0  0  0  0  0  0  0  0  0  0  0  0
   -2.7417   -1.5170   -1.6795 H   0  0  0  0  0  0  0  0  0  0  0  0
  2  1  1  6
  2  3  1  0
  3  4  2  0
  4  5  1  0
  5  6  1  0
  6  7  2  0
  7  8  1  0
  7  9  1  0
  9 10  2  0
 10 11  1  0
 11 12  2  0
 12 13  1  0
 13 14  3  0
 12 15  1  0
 15 16  2  0
  5 17  2  0
 17 18  1  0
 18 19  2  0
 19 20  1  0
  2 21  1  0
 21 22  2  0
 22 23  1  0
 22 24  1  0
 24 25  1  0
 25 26  1  1
 26 27  2  0
 26 28  1  0
 28 29  1  0
 29 30  1  0
 30 31  1  0
 31 32  1  0
 32 33  1  0
 25 34  1  0
 34 35  1  0
 35  2  1  0
 19  3  1  0
 35 25  1  0
 16  9  1  0
 33 28  1  0
  1 36  1  0
  1 37  1  0
  1 38  1  0
  4 39  1  0
  6 40  1  0
 10 41  1  0
 11 42  1  0
 15 43  1  0
 17 44  1  0
 23 45  1  0
 23 46  1  0
 29 47  1  0
 29 48  1  0
 30 49  1  0
 30 50  1  0
 32 51  1  0
 32 52  1  0
 33 53  1  0
 33 54  1  0
 34 55  1  0
 34 56  1  0
 35 57  1  6
M  END
$$$$
