
     RDKit          3D

 60 64  0  0  0  0  0  0  0  0999 V2000
    7.2929    4.3317   -2.4655 C   0  0  0  0  0  0  0  0  0  0  0  0
    7.8331    3.5817   -1.4098 O   0  0  0  0  0  0  0  0  0  0  0  0
    7.1077    2.5673   -0.7815 C   0  0  0  0  0  0  0  0  0  0  0  0
    5.8318    2.3142   -1.2255 C   0  0  0  0  0  0  0  0  0  0  0  0
    5.0779    1.3201   -0.6336 C   0  0  0  0  0  0  0  0  0  0  0  0
    5.6083    0.5892    0.3967 C   0  0  0  0  0  0  0  0  0  0  0  0
    5.0367   -0.4684    1.1579 C   0  0  0  0  0  0  0  0  0  0  0  0
    3.7253   -0.9748    0.8763 C   0  0  0  0  0  0  0  0  0  0  0  0
    2.9320   -1.6000    1.6647 C   0  0  0  0  0  0  0  0  0  0  0  0
    1.5913   -2.0886    1.2555 C   0  0  0  0  0  0  0  0  0  0  0  0
    0.9025   -2.6909    2.1169 O   0  0  0  0  0  0  0  0  0  0  0  0
    1.0387   -1.9251   -0.0257 N   0  0  0  0  0  0  0  0  0  0  0  0
   -0.2688   -2.4225   -0.3627 C   0  0  0  0  0  0  0  0  0  0  0  0
   -0.4583   -3.6892   -0.8710 C   0  0  0  0  0  0  0  0  0  0  0  0
   -1.7027   -4.1781   -1.1959 C   0  0  0  0  0  0  0  0  0  0  0  0
   -2.8205   -3.3547   -1.0018 C   0  0  0  0  0  0  0  0  0  0  0  0
   -2.6804   -2.0851   -0.4979 C   0  0  0  0  0  0  0  0  0  0  0  0
   -3.8104   -1.2072   -0.2829 C   0  0  0  0  0  0  0  0  0  0  0  0
   -5.0369   -1.5531   -0.5485 C   0  0  0  0  0  0  0  0  0  0  0  0
   -6.1640   -0.6073   -0.3070 C   0  0  0  0  0  0  0  0  0  0  0  0
   -7.4495   -0.9970   -0.5948 C   0  0  0  0  0  0  0  0  0  0  0  0
   -8.5315   -0.1380   -0.3810 C   0  0  0  0  0  0  0  0  0  0  0  0
   -8.2999    1.1267    0.1298 C   0  0  0  0  0  0  0  0  0  0  0  0
   -9.3393    2.0051    0.3558 C   0  0  0  0  0  0  0  0  0  0  0  0
   -9.0950    3.2785    0.8714 C   0  0  0  0  0  0  0  0  0  0  0  0
   -7.7922    3.6487    1.1535 C   0  0  0  0  0  0  0  0  0  0  0  0
   -7.4707    5.2562    1.8058 Cl  0  0  0  0  0  0  0  0  0  0  0  0
   -6.7795    2.7477    0.9159 C   0  0  0  0  0  0  0  0  0  0  0  0
   -6.9873    1.4845    0.4082 C   0  0  0  0  0  0  0  0  0  0  0  0
   -5.9658    0.6221    0.1866 N   0  0  0  0  0  0  0  0  0  0  0  0
   -1.3806   -1.6405   -0.1840 C   0  0  0  0  0  0  0  0  0  0  0  0
    6.0214   -0.8137    2.0406 C   0  0  0  0  0  0  0  0  0  0  0  0
    6.0451   -1.8703    3.0184 C   0  0  0  0  0  0  0  0  0  0  0  0
    7.1199   -1.9977    3.7439 O   0  0  0  0  0  0  0  0  0  0  0  0
    5.0879   -2.7969    3.3112 O   0  0  0  0  0  0  0  0  0  0  0  0
    7.1115   -0.0084    1.8259 N   0  0  0  0  0  0  0  0  0  0  0  0
    6.8598    0.8377    0.8321 C   0  0  0  0  0  0  0  0  0  0  0  0
    7.6425    1.8430    0.2447 C   0  0  0  0  0  0  0  0  0  0  0  0
    8.0243    4.9933   -2.9410 H   0  0  0  0  0  0  0  0  0  0  0  0
    6.8168    3.6920   -3.2593 H   0  0  0  0  0  0  0  0  0  0  0  0
    6.4766    4.9639   -2.0478 H   0  0  0  0  0  0  0  0  0  0  0  0
    5.3953    2.8881   -2.0448 H   0  0  0  0  0  0  0  0  0  0  0  0
    4.0623    1.1173   -0.9856 H   0  0  0  0  0  0  0  0  0  0  0  0
    3.3531   -0.8215   -0.1553 H   0  0  0  0  0  0  0  0  0  0  0  0
    3.1777   -1.7424    2.6884 H   0  0  0  0  0  0  0  0  0  0  0  0
    1.5889   -1.4297   -0.7558 H   0  0  0  0  0  0  0  0  0  0  0  0
    0.4301   -4.2971   -1.0074 H   0  0  0  0  0  0  0  0  0  0  0  0
   -1.8367   -5.1855   -1.5983 H   0  0  0  0  0  0  0  0  0  0  0  0
   -3.8038   -3.7657   -1.2682 H   0  0  0  0  0  0  0  0  0  0  0  0
   -3.6437   -0.2143    0.1167 H   0  0  0  0  0  0  0  0  0  0  0  0
   -5.2616   -2.5310   -0.9487 H   0  0  0  0  0  0  0  0  0  0  0  0
   -7.6663   -1.9772   -0.9947 H   0  0  0  0  0  0  0  0  0  0  0  0
   -9.5455   -0.4294   -0.6018 H   0  0  0  0  0  0  0  0  0  0  0  0
  -10.3539    1.7470    0.1478 H   0  0  0  0  0  0  0  0  0  0  0  0
   -9.8975    3.9576    1.0462 H   0  0  0  0  0  0  0  0  0  0  0  0
   -5.7596    3.0420    1.1384 H   0  0  0  0  0  0  0  0  0  0  0  0
   -1.3157   -0.6296    0.2120 H   0  0  0  0  0  0  0  0  0  0  0  0
    5.3180   -3.7794    3.5201 H   0  0  0  0  0  0  0  0  0  0  0  0
    7.9793   -0.0558    2.3519 H   0  0  0  0  0  0  0  0  0  0  0  0
    8.6291    2.0103    0.6170 H   0  0  0  0  0  0  0  0  0  0  0  0
  1  2  1  0
  2  3  1  0
  3  4  2  0
  4  5  1  0
  5  6  2  0
  6  7  1  0
  7  8  1  0
  8  9  2  0
  9 10  1  0
 10 11  2  0
 10 12  1  0
 12 13  1  0
 13 14  2  0
 14 15  1  0
 15 16  2  0
 16 17  1  0
 17 18  1  0
 18 19  2  0
 19 20  1  0
 20 21  2  0
 21 22  1  0
 22 23  2  0
 23 24  1  0
 24 25  2  0
 25 26  1  0
 26 27  1  0
 26 28  2  0
 28 29  1  0
 29 30  2  0
 17 31  2  0
  7 32  2  0
 32 33  1  0
 33 34  2  0
 33 35  1  0
 32 36  1  0
 36 37  1  0
 37 38  2  0
 38  3  1  0
 37  6  1  0
 31 13  1  0
 30 20  1  0
 29 23  1  0
  1 39  1  0
  1 40  1  0
  1 41  1  0
  4 42  1  0
  5 43  1  0
  8 44  1  0
  9 45  1  0
 12 46  1  0
 14 47  1  0
 15 48  1  0
 16 49  1  0
 18 50  1  0
 19 51  1  0
 21 52  1  0
 22 53  1  0
 24 54  1  0
 25 55  1  0
 28 56  1  0
 31 57  1  0
 35 58  1  0
 36 59  1  0
 38 60  1  0
M  END
$$$$
