
     RDKit          3D

 37 39  0  0  0  0  0  0  0  0999 V2000
    7.0395    1.4646   -0.8647 C   0  0  0  0  0  0  0  0  0  0  0  0
    6.5309    0.3086   -0.1582 N   0  0  0  0  0  0  0  0  0  0  0  0
    5.1360    0.0320   -0.0017 C   0  0  0  0  0  0  0  0  0  0  0  0
    4.4235   -0.7791    0.4906 N   0  0  0  0  0  0  0  0  0  0  0  0
    3.1089   -0.7750    0.4751 C   0  0  0  0  0  0  0  0  0  0  0  0
    2.2519   -1.8316    1.1171 C   0  0  0  0  0  0  0  0  0  0  0  0
    2.4968    0.2676   -0.1728 C   0  0  0  0  0  0  0  0  0  0  0  0
    3.9034    1.2126   -0.7407 S   0  0  0  0  0  0  0  0  0  0  0  0
    1.0951    0.6350   -0.4129 C   0  0  0  0  0  0  0  0  0  0  0  0
    0.8338    1.7826   -1.1221 C   0  0  0  0  0  0  0  0  0  0  0  0
   -0.4994    2.0652   -1.3091 C   0  0  0  0  0  0  0  0  0  0  0  0
   -1.4025    1.2185   -0.7967 N   0  0  0  0  0  0  0  0  0  0  0  0
   -1.1222    0.1053   -0.1085 C   0  0  0  0  0  0  0  0  0  0  0  0
   -2.0895   -0.7827    0.4288 N   0  0  0  0  0  0  0  0  0  0  0  0
   -3.5028   -0.7079    0.3693 C   0  0  0  0  0  0  0  0  0  0  0  0
   -4.3120   -1.6628    0.9494 C   0  0  0  0  0  0  0  0  0  0  0  0
   -5.6732   -1.6342    0.9189 C   0  0  0  0  0  0  0  0  0  0  0  0
   -6.3328   -0.6070    0.2802 C   0  0  0  0  0  0  0  0  0  0  0  0
   -7.7186   -0.6035    0.2648 O   0  0  0  0  0  0  0  0  0  0  0  0
   -5.5967    0.3760   -0.3180 C   0  0  0  0  0  0  0  0  0  0  0  0
   -4.2246    0.2888   -0.2513 C   0  0  0  0  0  0  0  0  0  0  0  0
    0.1780   -0.1758    0.0773 N   0  0  0  0  0  0  0  0  0  0  0  0
    8.1091    1.3100   -1.0274 H   0  0  0  0  0  0  0  0  0  0  0  0
    6.5193    1.5531   -1.8520 H   0  0  0  0  0  0  0  0  0  0  0  0
    6.8022    2.3576   -0.2425 H   0  0  0  0  0  0  0  0  0  0  0  0
    7.1215   -0.3981    0.2826 H   0  0  0  0  0  0  0  0  0  0  0  0
    1.4770   -2.2049    0.3976 H   0  0  0  0  0  0  0  0  0  0  0  0
    1.7726   -1.3906    2.0047 H   0  0  0  0  0  0  0  0  0  0  0  0
    2.8116   -2.7154    1.4264 H   0  0  0  0  0  0  0  0  0  0  0  0
    1.5598    2.4458   -1.5233 H   0  0  0  0  0  0  0  0  0  0  0  0
   -0.7812    2.9551   -1.8598 H   0  0  0  0  0  0  0  0  0  0  0  0
   -1.7337   -1.6328    0.9555 H   0  0  0  0  0  0  0  0  0  0  0  0
   -3.8479   -2.5056    1.4727 H   0  0  0  0  0  0  0  0  0  0  0  0
   -6.2430   -2.4178    1.3959 H   0  0  0  0  0  0  0  0  0  0  0  0
   -8.2662    0.1801   -0.0566 H   0  0  0  0  0  0  0  0  0  0  0  0
   -6.1118    1.1666   -0.8097 H   0  0  0  0  0  0  0  0  0  0  0  0
   -3.7128    1.0996   -0.7456 H   0  0  0  0  0  0  0  0  0  0  0  0
  1  2  1  0
  2  3  1  0
  3  4  2  0
  4  5  1  0
  5  6  1  0
  5  7  2  0
  7  8  1  0
  7  9  1  0
  9 10  2  0
 10 11  1  0
 11 12  2  0
 12 13  1  0
 13 14  1  0
 14 15  1  0
 15 16  2  0
 16 17  1  0
 17 18  2  0
 18 19  1  0
 18 20  1  0
 20 21  2  0
 13 22  2  0
  8  3  1  0
 22  9  1  0
 21 15  1  0
  1 23  1  0
  1 24  1  0
  1 25  1  0
  2 26  1  0
  6 27  1  0
  6 28  1  0
  6 29  1  0
 10 30  1  0
 11 31  1  0
 14 32  1  0
 16 33  1  0
 17 34  1  0
 19 35  1  0
 20 36  1  0
 21 37  1  0
M  END
$$$$
