
     RDKit          3D

 63 65  0  0  0  0  0  0  0  0999 V2000
    3.8585   -1.5583    0.4517 C   0  0  0  0  0  0  0  0  0  0  0  0
    3.9398   -0.4354   -0.4171 N   0  0  0  0  0  0  0  0  0  0  0  0
    5.2644    0.1084   -0.5763 C   0  0  0  0  0  0  0  0  0  0  0  0
    5.7833    0.7582    0.6843 C   0  0  0  0  0  0  0  0  0  0  0  0
    7.1110    1.2676    0.3985 N   0  0  0  0  0  0  0  0  0  0  0  0
    8.2222    0.3728    0.1470 C   0  0  0  0  0  0  0  0  0  0  0  0
    7.3226    2.6815    0.3645 C   0  0  0  0  0  0  0  0  0  0  0  0
    6.4057    3.4099   -0.2272 N   0  0  0  0  0  0  0  0  0  0  0  0
    8.4394    3.3214    0.9218 N   0  0  0  0  0  0  0  0  0  0  0  0
    2.9274    0.5543   -0.2475 C   0  0  0  0  0  0  0  0  0  0  0  0
    1.5944   -0.0575   -0.4836 C   0  0  0  0  0  0  0  0  0  0  0  0
    0.9178   -0.5977    0.5759 C   0  0  0  0  0  0  0  0  0  0  0  0
   -0.3408   -1.1816    0.3956 C   0  0  0  0  0  0  0  0  0  0  0  0
   -0.9477   -1.2403   -0.8320 C   0  0  0  0  0  0  0  0  0  0  0  0
   -2.2505   -1.8361   -1.0423 C   0  0  0  0  0  0  0  0  0  0  0  0
   -2.7146   -1.8714   -2.2054 O   0  0  0  0  0  0  0  0  0  0  0  0
   -3.0114   -2.3750    0.0119 N   0  0  0  0  0  0  0  0  0  0  0  0
   -4.3072   -2.9657   -0.2108 C   0  0  0  0  0  0  0  0  0  0  0  0
   -4.4068   -4.3135   -0.4744 C   0  0  0  0  0  0  0  0  0  0  0  0
   -5.6617   -4.8894   -0.6938 C   0  0  0  0  0  0  0  0  0  0  0  0
   -6.7617   -4.0906   -0.6392 C   0  0  0  0  0  0  0  0  0  0  0  0
   -8.3948   -4.6925   -0.8966 Cl  0  0  0  0  0  0  0  0  0  0  0  0
   -6.6251   -2.7466   -0.3730 C   0  0  0  0  0  0  0  0  0  0  0  0
   -5.4092   -2.1464   -0.1526 C   0  0  0  0  0  0  0  0  0  0  0  0
   -5.2223   -0.7398    0.1311 C   0  0  0  0  0  0  0  0  0  0  0  0
   -4.0651   -0.2589    0.3354 O   0  0  0  0  0  0  0  0  0  0  0  0
   -6.2854    0.2088    0.2053 N   0  0  0  0  0  0  0  0  0  0  0  0
   -6.0441    1.5787    0.4874 C   0  0  0  0  0  0  0  0  0  0  0  0
   -7.1136    2.4419    0.5346 C   0  0  0  0  0  0  0  0  0  0  0  0
   -6.9521    3.8019    0.8074 C   0  0  0  0  0  0  0  0  0  0  0  0
   -5.6859    4.2997    1.0372 C   0  0  0  0  0  0  0  0  0  0  0  0
   -5.4471    6.0046    1.3834 Cl  0  0  0  0  0  0  0  0  0  0  0  0
   -4.6362    3.4069    0.9823 C   0  0  0  0  0  0  0  0  0  0  0  0
   -4.8185    2.0812    0.7135 N   0  0  0  0  0  0  0  0  0  0  0  0
   -0.2328   -0.6803   -1.8974 C   0  0  0  0  0  0  0  0  0  0  0  0
    1.0028   -0.1073   -1.7179 C   0  0  0  0  0  0  0  0  0  0  0  0
    3.9782   -1.3468    1.5166 H   0  0  0  0  0  0  0  0  0  0  0  0
    4.6212   -2.2977    0.1289 H   0  0  0  0  0  0  0  0  0  0  0  0
    2.8723   -2.0645    0.2681 H   0  0  0  0  0  0  0  0  0  0  0  0
    5.9448   -0.7218   -0.8312 H   0  0  0  0  0  0  0  0  0  0  0  0
    5.2547    0.8111   -1.4221 H   0  0  0  0  0  0  0  0  0  0  0  0
    5.9272   -0.0243    1.4759 H   0  0  0  0  0  0  0  0  0  0  0  0
    5.1325    1.5358    1.0868 H   0  0  0  0  0  0  0  0  0  0  0  0
    7.9164   -0.6739    0.2818 H   0  0  0  0  0  0  0  0  0  0  0  0
    9.0750    0.5806    0.8449 H   0  0  0  0  0  0  0  0  0  0  0  0
    8.5796    0.4736   -0.9090 H   0  0  0  0  0  0  0  0  0  0  0  0
    6.5080    4.4462   -0.2819 H   0  0  0  0  0  0  0  0  0  0  0  0
    9.2899    3.6291    0.4031 H   0  0  0  0  0  0  0  0  0  0  0  0
    8.4172    3.5092    1.9582 H   0  0  0  0  0  0  0  0  0  0  0  0
    2.9317    1.0345    0.7507 H   0  0  0  0  0  0  0  0  0  0  0  0
    3.0588    1.3468   -1.0053 H   0  0  0  0  0  0  0  0  0  0  0  0
    1.3272   -0.5944    1.5884 H   0  0  0  0  0  0  0  0  0  0  0  0
   -0.8541   -1.6024    1.2568 H   0  0  0  0  0  0  0  0  0  0  0  0
   -2.6699   -2.3671    0.9819 H   0  0  0  0  0  0  0  0  0  0  0  0
   -3.5474   -4.9587   -0.5206 H   0  0  0  0  0  0  0  0  0  0  0  0
   -5.7890   -5.9427   -0.9041 H   0  0  0  0  0  0  0  0  0  0  0  0
   -7.5013   -2.1112   -0.3295 H   0  0  0  0  0  0  0  0  0  0  0  0
   -7.2452   -0.1288    0.0471 H   0  0  0  0  0  0  0  0  0  0  0  0
   -8.1213    2.0697    0.3557 H   0  0  0  0  0  0  0  0  0  0  0  0
   -7.7843    4.4809    0.8446 H   0  0  0  0  0  0  0  0  0  0  0  0
   -3.6440    3.7851    1.1604 H   0  0  0  0  0  0  0  0  0  0  0  0
   -0.6966   -0.7134   -2.8962 H   0  0  0  0  0  0  0  0  0  0  0  0
    1.5638    0.3316   -2.5500 H   0  0  0  0  0  0  0  0  0  0  0  0
  1  2  1  0
  2  3  1  0
  3  4  1  0
  4  5  1  0
  5  6  1  0
  5  7  1  0
  7  8  2  3
  7  9  1  0
  2 10  1  0
 10 11  1  0
 11 12  2  0
 12 13  1  0
 13 14  2  0
 14 15  1  0
 15 16  2  0
 15 17  1  0
 17 18  1  0
 18 19  2  0
 19 20  1  0
 20 21  2  0
 21 22  1  0
 21 23  1  0
 23 24  2  0
 24 25  1  0
 25 26  2  0
 25 27  1  0
 27 28  1  0
 28 29  2  0
 29 30  1  0
 30 31  2  0
 31 32  1  0
 31 33  1  0
 33 34  2  0
 14 35  1  0
 35 36  2  0
 36 11  1  0
 24 18  1  0
 34 28  1  0
  1 37  1  0
  1 38  1  0
  1 39  1  0
  3 40  1  0
  3 41  1  0
  4 42  1  0
  4 43  1  0
  6 44  1  0
  6 45  1  0
  6 46  1  0
  8 47  1  0
  9 48  1  0
  9 49  1  0
 10 50  1  0
 10 51  1  0
 12 52  1  0
 13 53  1  0
 17 54  1  0
 19 55  1  0
 20 56  1  0
 23 57  1  0
 27 58  1  0
 29 59  1  0
 30 60  1  0
 33 61  1  0
 35 62  1  0
 36 63  1  0
M  END
$$$$
