
     RDKit          3D

 69 74  0  0  0  0  0  0  0  0999 V2000
   -6.1812    3.1024    0.1341 C   0  0  0  0  0  0  0  0  0  0  0  0
   -6.7132    1.7161   -0.0327 C   0  0  0  0  0  0  0  0  0  0  0  0
   -7.8845    1.5134   -0.7448 C   0  0  0  0  0  0  0  0  0  0  0  0
   -8.4192    0.2528   -0.9276 C   0  0  0  0  0  0  0  0  0  0  0  0
   -7.7492   -0.8171   -0.3758 C   0  0  0  0  0  0  0  0  0  0  0  0
   -6.6245   -0.5966    0.3048 N   0  0  0  0  0  0  0  0  0  0  0  0
   -6.0754    0.6152    0.5025 C   0  0  0  0  0  0  0  0  0  0  0  0
   -4.8169    0.7735    1.2714 C   0  0  0  0  0  0  0  0  0  0  0  0
   -3.6830    1.0121    0.3649 N   0  0  0  0  0  0  0  0  0  0  0  0
   -2.5044    1.1609    1.1898 C   0  0  0  0  0  0  0  0  0  0  0  0
   -1.8058   -0.1633    1.3755 C   0  0  0  0  0  0  0  0  0  0  0  0
   -1.1837   -0.5808    0.0871 C   0  0  0  0  0  0  0  0  0  0  0  0
   -2.1598   -0.3356   -1.0400 C   0  0  0  0  0  0  0  0  0  0  0  0
   -3.5518   -0.0450   -0.5795 C   0  0  0  0  0  0  0  0  0  0  0  0
    0.0467    0.2110   -0.2685 C   0  0  0  0  0  0  0  0  0  0  0  0
    0.0110    1.3811   -0.6854 O   0  0  0  0  0  0  0  0  0  0  0  0
    1.1864   -0.6168   -0.0402 N   0  0  0  0  0  0  0  0  0  0  0  0
    2.5570   -0.2104   -0.0202 C   0  0  0  0  0  0  0  0  0  0  0  0
    3.5761   -1.1151    0.1739 C   0  0  0  0  0  0  0  0  0  0  0  0
    4.9208   -0.7330    0.1877 C   0  0  0  0  0  0  0  0  0  0  0  0
    5.2872    0.5794    0.0058 C   0  0  0  0  0  0  0  0  0  0  0  0
    6.6969    0.9887    0.0046 C   0  0  0  0  0  0  0  0  0  0  0  0
    7.6936    0.1617   -0.4568 C   0  0  0  0  0  0  0  0  0  0  0  0
    9.0056    0.5769   -0.4442 C   0  0  0  0  0  0  0  0  0  0  0  0
    9.3721    1.8197    0.0237 C   0  0  0  0  0  0  0  0  0  0  0  0
   10.7763    2.2382    0.0263 C   0  0  0  0  0  0  0  0  0  0  0  0
   11.6241    1.4417   -0.4078 O   0  0  0  0  0  0  0  0  0  0  0  0
   11.1712    3.4803    0.4942 O   0  0  0  0  0  0  0  0  0  0  0  0
    8.3683    2.6616    0.4924 C   0  0  0  0  0  0  0  0  0  0  0  0
    7.0586    2.2322    0.4737 C   0  0  0  0  0  0  0  0  0  0  0  0
    4.2701    1.4808   -0.1871 C   0  0  0  0  0  0  0  0  0  0  0  0
    2.9249    1.1087   -0.2024 C   0  0  0  0  0  0  0  0  0  0  0  0
    0.6886   -1.9164    0.1591 C   0  0  0  0  0  0  0  0  0  0  0  0
    1.3215   -2.9819    0.3954 O   0  0  0  0  0  0  0  0  0  0  0  0
   -0.7526   -1.9396    0.0629 N   0  0  0  0  0  0  0  0  0  0  0  0
   -1.5808   -3.0813   -0.0310 C   0  0  0  0  0  0  0  0  0  0  0  0
   -1.9255   -3.6297   -1.2180 N   0  0  0  0  0  0  0  0  0  0  0  0
   -2.7112   -4.7180   -1.3318 C   0  0  0  0  0  0  0  0  0  0  0  0
   -3.1947   -5.3115   -0.1766 C   0  0  0  0  0  0  0  0  0  0  0  0
   -2.8366   -4.7436    1.0258 C   0  0  0  0  0  0  0  0  0  0  0  0
   -2.0506   -3.6576    1.0892 N   0  0  0  0  0  0  0  0  0  0  0  0
   -5.6947    3.4537   -0.7904 H   0  0  0  0  0  0  0  0  0  0  0  0
   -5.5587    3.1972    1.0382 H   0  0  0  0  0  0  0  0  0  0  0  0
   -7.0641    3.7861    0.3073 H   0  0  0  0  0  0  0  0  0  0  0  0
   -8.3780    2.3977   -1.1642 H   0  0  0  0  0  0  0  0  0  0  0  0
   -9.3467    0.1216   -1.4957 H   0  0  0  0  0  0  0  0  0  0  0  0
   -8.1738   -1.8024   -0.5217 H   0  0  0  0  0  0  0  0  0  0  0  0
   -4.8713    1.5387    2.0561 H   0  0  0  0  0  0  0  0  0  0  0  0
   -4.5788   -0.1934    1.7821 H   0  0  0  0  0  0  0  0  0  0  0  0
   -1.7701    1.8553    0.7102 H   0  0  0  0  0  0  0  0  0  0  0  0
   -2.7985    1.6115    2.1691 H   0  0  0  0  0  0  0  0  0  0  0  0
   -1.0728   -0.1008    2.2173 H   0  0  0  0  0  0  0  0  0  0  0  0
   -2.5176   -0.9702    1.6651 H   0  0  0  0  0  0  0  0  0  0  0  0
   -1.8477    0.4680   -1.7124 H   0  0  0  0  0  0  0  0  0  0  0  0
   -2.2301   -1.2584   -1.6879 H   0  0  0  0  0  0  0  0  0  0  0  0
   -4.0531   -0.9505   -0.1393 H   0  0  0  0  0  0  0  0  0  0  0  0
   -4.1440    0.1601   -1.5200 H   0  0  0  0  0  0  0  0  0  0  0  0
    3.3818   -2.1710    0.3253 H   0  0  0  0  0  0  0  0  0  0  0  0
    5.6868   -1.4617    0.3418 H   0  0  0  0  0  0  0  0  0  0  0  0
    7.4224   -0.8182   -0.8276 H   0  0  0  0  0  0  0  0  0  0  0  0
    9.7968   -0.0678   -0.8064 H   0  0  0  0  0  0  0  0  0  0  0  0
   12.0629    3.5396    0.9859 H   0  0  0  0  0  0  0  0  0  0  0  0
    8.6523    3.6298    0.8576 H   0  0  0  0  0  0  0  0  0  0  0  0
    6.2871    2.8889    0.8389 H   0  0  0  0  0  0  0  0  0  0  0  0
    4.5215    2.5285   -0.3338 H   0  0  0  0  0  0  0  0  0  0  0  0
    2.1665    1.8579   -0.3556 H   0  0  0  0  0  0  0  0  0  0  0  0
   -2.9784   -5.1454   -2.2894 H   0  0  0  0  0  0  0  0  0  0  0  0
   -3.8236   -6.1841   -0.2795 H   0  0  0  0  0  0  0  0  0  0  0  0
   -3.2281   -5.2256    1.9262 H   0  0  0  0  0  0  0  0  0  0  0  0
  1  2  1  0
  2  3  2  0
  3  4  1  0
  4  5  2  0
  5  6  1  0
  6  7  2  0
  7  8  1  0
  8  9  1  0
  9 10  1  0
 10 11  1  0
 11 12  1  0
 12 13  1  0
 13 14  1  0
 12 15  1  0
 15 16  2  0
 15 17  1  0
 17 18  1  0
 18 19  2  0
 19 20  1  0
 20 21  2  0
 21 22  1  0
 22 23  2  0
 23 24  1  0
 24 25  2  0
 25 26  1  0
 26 27  2  0
 26 28  1  0
 25 29  1  0
 29 30  2  0
 21 31  1  0
 31 32  2  0
 17 33  1  0
 33 34  2  0
 33 35  1  0
 35 36  1  0
 36 37  2  0
 37 38  1  0
 38 39  2  0
 39 40  1  0
 40 41  2  0
  7  2  1  0
 14  9  1  0
 32 18  1  0
 41 36  1  0
 35 12  1  0
 30 22  1  0
  1 42  1  0
  1 43  1  0
  1 44  1  0
  3 45  1  0
  4 46  1  0
  5 47  1  0
  8 48  1  0
  8 49  1  0
 10 50  1  0
 10 51  1  0
 11 52  1  0
 11 53  1  0
 13 54  1  0
 13 55  1  0
 14 56  1  0
 14 57  1  0
 19 58  1  0
 20 59  1  0
 23 60  1  0
 24 61  1  0
 28 62  1  0
 29 63  1  0
 30 64  1  0
 31 65  1  0
 32 66  1  0
 38 67  1  0
 39 68  1  0
 40 69  1  0
M  END
$$$$
