
     RDKit          3D

 76 80  0  0  0  0  0  0  0  0999 V2000
   -2.8786    2.6242   -5.1095 C   0  0  0  0  0  0  0  0  0  0  0  0
   -3.3536    1.7855   -3.9644 C   0  0  0  0  0  0  0  0  0  0  0  0
   -3.4284    2.2824   -2.6807 C   0  0  0  0  0  0  0  0  0  0  0  0
   -3.8685    1.4909   -1.6382 C   0  0  0  0  0  0  0  0  0  0  0  0
   -4.2517    0.1792   -1.8211 C   0  0  0  0  0  0  0  0  0  0  0  0
   -4.7000   -0.6109   -0.7241 N   0  0  0  0  0  0  0  0  0  0  0  0
   -5.8225   -0.5587   -0.0331 N   0  0  0  0  0  0  0  0  0  0  0  0
   -5.8775   -1.4791    0.9357 C   0  0  0  0  0  0  0  0  0  0  0  0
   -7.0020   -1.7117    1.9163 C   0  0  0  0  0  0  0  0  0  0  0  0
   -6.8311   -0.9132    3.1687 C   0  0  0  0  0  0  0  0  0  0  0  0
   -7.1354   -3.1871    2.1293 C   0  0  0  0  0  0  0  0  0  0  0  0
   -8.2933   -1.2452    1.2287 C   0  0  0  0  0  0  0  0  0  0  0  0
   -4.6933   -2.1822    0.8629 C   0  0  0  0  0  0  0  0  0  0  0  0
   -3.9813   -1.6213   -0.1766 C   0  0  0  0  0  0  0  0  0  0  0  0
   -2.6794   -2.0247   -0.6259 N   0  0  0  0  0  0  0  0  0  0  0  0
   -1.4975   -1.4354   -0.0876 C   0  0  0  0  0  0  0  0  0  0  0  0
   -1.6692   -0.5504    0.7949 O   0  0  0  0  0  0  0  0  0  0  0  0
   -0.1841   -1.7893   -0.4881 N   0  0  0  0  0  0  0  0  0  0  0  0
    0.9709   -1.1558    0.0908 C   0  0  0  0  0  0  0  0  0  0  0  0
    1.5095   -0.0171   -0.4611 C   0  0  0  0  0  0  0  0  0  0  0  0
    2.6242    0.5772    0.1154 C   0  0  0  0  0  0  0  0  0  0  0  0
    3.2373    0.0738    1.2410 C   0  0  0  0  0  0  0  0  0  0  0  0
    4.3308    0.6133    1.8527 O   0  0  0  0  0  0  0  0  0  0  0  0
    5.1319    1.6869    1.6103 C   0  0  0  0  0  0  0  0  0  0  0  0
    5.8996    1.6400    0.3321 C   0  0  0  0  0  0  0  0  0  0  0  0
    6.7305    2.8162    0.1379 N   0  0  0  0  0  0  0  0  0  0  0  0
    7.8232    2.9144    1.0560 C   0  0  0  0  0  0  0  0  0  0  0  0
    9.1119    2.6088    0.3085 C   0  0  0  0  0  0  0  0  0  0  0  0
    9.0048    1.4734   -0.4800 O   0  0  0  0  0  0  0  0  0  0  0  0
    8.0697    1.6799   -1.5051 C   0  0  0  0  0  0  0  0  0  0  0  0
    7.2084    2.8753   -1.2496 C   0  0  0  0  0  0  0  0  0  0  0  0
    2.6850   -1.0924    1.8059 C   0  0  0  0  0  0  0  0  0  0  0  0
    3.2846   -1.6299    2.9506 C   0  0  0  0  0  0  0  0  0  0  0  0
    2.7248   -2.7656    3.4774 C   0  0  0  0  0  0  0  0  0  0  0  0
    1.6226   -3.3494    2.9046 C   0  0  0  0  0  0  0  0  0  0  0  0
    1.0485   -2.8177    1.7918 C   0  0  0  0  0  0  0  0  0  0  0  0
    1.5870   -1.6666    1.2276 C   0  0  0  0  0  0  0  0  0  0  0  0
   -4.1768   -0.3177   -3.1060 C   0  0  0  0  0  0  0  0  0  0  0  0
   -3.7329    0.4766   -4.1648 C   0  0  0  0  0  0  0  0  0  0  0  0
   -2.5034    2.0174   -5.9380 H   0  0  0  0  0  0  0  0  0  0  0  0
   -2.1194    3.3252   -4.6994 H   0  0  0  0  0  0  0  0  0  0  0  0
   -3.7163    3.2462   -5.4881 H   0  0  0  0  0  0  0  0  0  0  0  0
   -3.1300    3.3217   -2.5146 H   0  0  0  0  0  0  0  0  0  0  0  0
   -3.9279    1.8867   -0.6137 H   0  0  0  0  0  0  0  0  0  0  0  0
   -7.8397   -0.6855    3.5714 H   0  0  0  0  0  0  0  0  0  0  0  0
   -6.1913   -1.4307    3.9119 H   0  0  0  0  0  0  0  0  0  0  0  0
   -6.3481    0.0439    2.9031 H   0  0  0  0  0  0  0  0  0  0  0  0
   -8.2003   -3.4118    2.3975 H   0  0  0  0  0  0  0  0  0  0  0  0
   -6.9876   -3.6756    1.1307 H   0  0  0  0  0  0  0  0  0  0  0  0
   -6.4165   -3.5665    2.8679 H   0  0  0  0  0  0  0  0  0  0  0  0
   -9.1060   -1.0861    1.9443 H   0  0  0  0  0  0  0  0  0  0  0  0
   -8.0749   -0.2667    0.7486 H   0  0  0  0  0  0  0  0  0  0  0  0
   -8.5624   -1.9336    0.4026 H   0  0  0  0  0  0  0  0  0  0  0  0
   -4.4017   -3.0013    1.4981 H   0  0  0  0  0  0  0  0  0  0  0  0
   -2.5825   -2.7650   -1.3632 H   0  0  0  0  0  0  0  0  0  0  0  0
   -0.0776   -2.5370   -1.2287 H   0  0  0  0  0  0  0  0  0  0  0  0
    1.0410    0.3887   -1.3421 H   0  0  0  0  0  0  0  0  0  0  0  0
    2.9676    1.4716   -0.3719 H   0  0  0  0  0  0  0  0  0  0  0  0
    5.8003    1.8420    2.4988 H   0  0  0  0  0  0  0  0  0  0  0  0
    4.5193    2.6470    1.6000 H   0  0  0  0  0  0  0  0  0  0  0  0
    6.5737    0.7545    0.2770 H   0  0  0  0  0  0  0  0  0  0  0  0
    5.2342    1.5668   -0.5215 H   0  0  0  0  0  0  0  0  0  0  0  0
    7.7073    2.1437    1.8373 H   0  0  0  0  0  0  0  0  0  0  0  0
    7.9519    3.9322    1.4801 H   0  0  0  0  0  0  0  0  0  0  0  0
    9.9569    2.4654    1.0103 H   0  0  0  0  0  0  0  0  0  0  0  0
    9.3567    3.4990   -0.3311 H   0  0  0  0  0  0  0  0  0  0  0  0
    7.4130    0.7870   -1.6440 H   0  0  0  0  0  0  0  0  0  0  0  0
    8.6128    1.7868   -2.4814 H   0  0  0  0  0  0  0  0  0  0  0  0
    6.2985    2.8075   -1.8938 H   0  0  0  0  0  0  0  0  0  0  0  0
    7.6856    3.8457   -1.4577 H   0  0  0  0  0  0  0  0  0  0  0  0
    4.1372   -1.1431    3.3585 H   0  0  0  0  0  0  0  0  0  0  0  0
    3.1802   -3.1922    4.3642 H   0  0  0  0  0  0  0  0  0  0  0  0
    1.1747   -4.2508    3.3194 H   0  0  0  0  0  0  0  0  0  0  0  0
    0.1768   -3.2469    1.3067 H   0  0  0  0  0  0  0  0  0  0  0  0
   -4.4742   -1.3423   -3.2616 H   0  0  0  0  0  0  0  0  0  0  0  0
   -3.6759    0.0791   -5.1765 H   0  0  0  0  0  0  0  0  0  0  0  0
  1  2  1  0
  2  3  2  0
  3  4  1  0
  4  5  2  0
  5  6  1  0
  6  7  1  0
  7  8  2  0
  8  9  1  0
  9 10  1  0
  9 11  1  0
  9 12  1  0
  8 13  1  0
 13 14  2  0
 14 15  1  0
 15 16  1  0
 16 17  2  0
 16 18  1  0
 18 19  1  0
 19 20  2  0
 20 21  1  0
 21 22  2  0
 22 23  1  0
 23 24  1  0
 24 25  1  0
 25 26  1  0
 26 27  1  0
 27 28  1  0
 28 29  1  0
 29 30  1  0
 30 31  1  0
 22 32  1  0
 32 33  2  0
 33 34  1  0
 34 35  2  0
 35 36  1  0
 36 37  2  0
  5 38  1  0
 38 39  2  0
 39  2  1  0
 14  6  1  0
 37 19  1  0
 31 26  1  0
 37 32  1  0
  1 40  1  0
  1 41  1  0
  1 42  1  0
  3 43  1  0
  4 44  1  0
 10 45  1  0
 10 46  1  0
 10 47  1  0
 11 48  1  0
 11 49  1  0
 11 50  1  0
 12 51  1  0
 12 52  1  0
 12 53  1  0
 13 54  1  0
 15 55  1  0
 18 56  1  0
 20 57  1  0
 21 58  1  0
 24 59  1  0
 24 60  1  0
 25 61  1  0
 25 62  1  0
 27 63  1  0
 27 64  1  0
 28 65  1  0
 28 66  1  0
 30 67  1  0
 30 68  1  0
 31 69  1  0
 31 70  1  0
 33 71  1  0
 34 72  1  0
 35 73  1  0
 36 74  1  0
 38 75  1  0
 39 76  1  0
M  END
$$$$
