
     RDKit          3D

 73 77  0  0  0  0  0  0  0  0999 V2000
   -7.5037   -4.3674    0.8095 C   0  0  0  0  0  0  0  0  0  0  0  0
   -6.0162   -4.2940    1.0888 C   0  0  0  0  0  0  0  0  0  0  0  0
   -5.5327   -2.8666    0.9304 C   0  0  0  0  0  0  0  0  0  0  0  0
   -5.7696   -2.3392   -0.4511 C   0  0  0  0  0  0  0  0  0  0  0  0
   -5.2828   -0.9820   -0.5257 N   0  0  0  0  0  0  0  0  0  0  0  0
   -3.9088   -0.6912   -0.3587 C   0  0  0  0  0  0  0  0  0  0  0  0
   -3.0115   -1.6649   -0.1706 N   0  0  0  0  0  0  0  0  0  0  0  0
   -1.6948   -1.4253   -0.0130 C   0  0  0  0  0  0  0  0  0  0  0  0
   -1.1935   -0.1138   -0.0396 C   0  0  0  0  0  0  0  0  0  0  0  0
    0.2133    0.1403    0.1527 C   0  0  0  0  0  0  0  0  0  0  0  0
    1.1190   -0.9056    0.3075 C   0  0  0  0  0  0  0  0  0  0  0  0
    2.4825   -0.6928    0.4728 C   0  0  0  0  0  0  0  0  0  0  0  0
    3.3983   -1.7995    0.6331 N   0  0  0  0  0  0  0  0  0  0  0  0
    4.5896   -1.7620   -0.1302 C   0  0  0  0  0  0  0  0  0  0  0  0
    4.4607   -1.9367   -1.4924 C   0  0  0  0  0  0  0  0  0  0  0  0
    5.6018   -1.8743   -2.2526 C   0  0  0  0  0  0  0  0  0  0  0  0
    6.8413   -1.6423   -1.6684 C   0  0  0  0  0  0  0  0  0  0  0  0
    6.9758   -1.4657   -0.3007 C   0  0  0  0  0  0  0  0  0  0  0  0
    8.2705   -1.2109    0.3208 C   0  0  0  0  0  0  0  0  0  0  0  0
    8.4254   -0.4355    1.4683 C   0  0  0  0  0  0  0  0  0  0  0  0
    9.6484   -0.1893    2.0563 C   0  0  0  0  0  0  0  0  0  0  0  0
   10.7896   -0.7383    1.4837 C   0  0  0  0  0  0  0  0  0  0  0  0
   10.6612   -1.5047    0.3560 C   0  0  0  0  0  0  0  0  0  0  0  0
    9.4159   -1.7434   -0.2269 C   0  0  0  0  0  0  0  0  0  0  0  0
    5.8205   -1.5324    0.4467 C   0  0  0  0  0  0  0  0  0  0  0  0
    2.9655    0.5662    0.4895 N   0  0  0  0  0  0  0  0  0  0  0  0
    2.0962    1.5810    0.3416 C   0  0  0  0  0  0  0  0  0  0  0  0
    0.7819    1.3429    0.1808 N   0  0  0  0  0  0  0  0  0  0  0  0
   -2.1095    0.8800   -0.2323 C   0  0  0  0  0  0  0  0  0  0  0  0
   -1.7479    2.2445   -0.2907 N   0  0  0  0  0  0  0  0  0  0  0  0
   -2.7151    3.3073   -0.5061 C   0  0  1  0  0  0  0  0  0  0  0  0
   -3.4089    3.2225   -1.8437 C   0  0  0  0  0  0  0  0  0  0  0  0
   -4.5920    4.1836   -1.8875 C   0  0  0  0  0  0  0  0  0  0  0  0
   -4.4385    5.2771   -0.8751 C   0  0  2  0  0  0  0  0  0  0  0  0
   -3.3707    6.1373   -1.1659 O   0  0  0  0  0  0  0  0  0  0  0  0
   -4.3704    4.7628    0.5438 C   0  0  0  0  0  0  0  0  0  0  0  0
   -3.7434    3.3651    0.6008 C   0  0  0  0  0  0  0  0  0  0  0  0
   -3.4444    0.5558   -0.3859 N   0  0  0  0  0  0  0  0  0  0  0  0
   -7.9576   -5.2349    1.3246 H   0  0  0  0  0  0  0  0  0  0  0  0
   -7.6206   -4.5288   -0.2968 H   0  0  0  0  0  0  0  0  0  0  0  0
   -8.0177   -3.4600    1.1646 H   0  0  0  0  0  0  0  0  0  0  0  0
   -5.8248   -4.5873    2.1406 H   0  0  0  0  0  0  0  0  0  0  0  0
   -5.4174   -4.9501    0.4472 H   0  0  0  0  0  0  0  0  0  0  0  0
   -4.4848   -2.8450    1.2348 H   0  0  0  0  0  0  0  0  0  0  0  0
   -6.1063   -2.2523    1.6844 H   0  0  0  0  0  0  0  0  0  0  0  0
   -6.7960   -2.4474   -0.7958 H   0  0  0  0  0  0  0  0  0  0  0  0
   -5.1034   -2.9255   -1.1493 H   0  0  0  0  0  0  0  0  0  0  0  0
   -5.9775   -0.2253   -0.7034 H   0  0  0  0  0  0  0  0  0  0  0  0
   -1.0346   -2.2415    0.1339 H   0  0  0  0  0  0  0  0  0  0  0  0
    0.7854   -1.9287    0.3032 H   0  0  0  0  0  0  0  0  0  0  0  0
    3.1702   -2.5577    1.2785 H   0  0  0  0  0  0  0  0  0  0  0  0
    3.4831   -2.1170   -1.9583 H   0  0  0  0  0  0  0  0  0  0  0  0
    5.5293   -2.0079   -3.3248 H   0  0  0  0  0  0  0  0  0  0  0  0
    7.7445   -1.5912   -2.2620 H   0  0  0  0  0  0  0  0  0  0  0  0
    7.5179   -0.0237    1.8885 H   0  0  0  0  0  0  0  0  0  0  0  0
    9.7666    0.4124    2.9470 H   0  0  0  0  0  0  0  0  0  0  0  0
   11.7486   -0.5365    1.9602 H   0  0  0  0  0  0  0  0  0  0  0  0
   11.5516   -1.9284   -0.0787 H   0  0  0  0  0  0  0  0  0  0  0  0
    9.3826   -2.3568   -1.1197 H   0  0  0  0  0  0  0  0  0  0  0  0
    5.9282   -1.3905    1.5279 H   0  0  0  0  0  0  0  0  0  0  0  0
    2.4776    2.5982    0.3562 H   0  0  0  0  0  0  0  0  0  0  0  0
   -0.7751    2.5441   -0.1864 H   0  0  0  0  0  0  0  0  0  0  0  0
   -2.1497    4.2840   -0.4239 H   0  0  0  0  0  0  0  0  0  0  0  0
   -2.7176    3.5656   -2.6719 H   0  0  0  0  0  0  0  0  0  0  0  0
   -3.7377    2.1855   -2.0016 H   0  0  0  0  0  0  0  0  0  0  0  0
   -5.5051    3.6080   -1.6266 H   0  0  0  0  0  0  0  0  0  0  0  0
   -4.6810    4.6512   -2.8866 H   0  0  0  0  0  0  0  0  0  0  0  0
   -5.3596    5.9228   -0.9665 H   0  0  0  0  0  0  0  0  0  0  0  0
   -3.5591    6.9914   -0.7013 H   0  0  0  0  0  0  0  0  0  0  0  0
   -5.3909    4.7207    1.0044 H   0  0  0  0  0  0  0  0  0  0  0  0
   -3.7543    5.4145    1.1971 H   0  0  0  0  0  0  0  0  0  0  0  0
   -4.5289    2.5920    0.5012 H   0  0  0  0  0  0  0  0  0  0  0  0
   -3.2888    3.2571    1.5863 H   0  0  0  0  0  0  0  0  0  0  0  0
  1  2  1  0
  2  3  1  0
  3  4  1  0
  4  5  1  0
  5  6  1  0
  6  7  2  0
  7  8  1  0
  8  9  2  0
  9 10  1  0
 10 11  2  0
 11 12  1  0
 12 13  1  0
 13 14  1  0
 14 15  2  0
 15 16  1  0
 16 17  2  0
 17 18  1  0
 18 19  1  0
 19 20  2  0
 20 21  1  0
 21 22  2  0
 22 23  1  0
 23 24  2  0
 18 25  2  0
 12 26  2  0
 26 27  1  0
 27 28  2  0
  9 29  1  0
 29 30  1  0
 30 31  1  0
 31 32  1  0
 32 33  1  0
 33 34  1  0
 34 35  1  0
 34 36  1  0
 36 37  1  0
 29 38  2  0
 38  6  1  0
 28 10  1  0
 37 31  1  0
 25 14  1  0
 24 19  1  0
  1 39  1  0
  1 40  1  0
  1 41  1  0
  2 42  1  0
  2 43  1  0
  3 44  1  0
  3 45  1  0
  4 46  1  0
  4 47  1  0
  5 48  1  0
  8 49  1  0
 11 50  1  0
 13 51  1  0
 15 52  1  0
 16 53  1  0
 17 54  1  0
 20 55  1  0
 21 56  1  0
 22 57  1  0
 23 58  1  0
 24 59  1  0
 25 60  1  0
 27 61  1  0
 30 62  1  0
 31 63  1  6
 32 64  1  0
 32 65  1  0
 33 66  1  0
 33 67  1  0
 34 68  1  1
 35 69  1  0
 36 70  1  0
 36 71  1  0
 37 72  1  0
 37 73  1  0
M  END
$$$$
