
     RDKit          3D

 40 42  0  0  0  0  0  0  0  0999 V2000
    5.5753    1.1903   -0.8889 O   0  0  0  0  0  0  0  0  0  0  0  0
    5.2491   -0.2940   -0.1262 P   0  0  0  0  0  0  0  0  0  0  0  0
    6.0254   -1.5587   -0.9195 O   0  0  0  0  0  0  0  0  0  0  0  0
    5.6286   -0.2375    1.3355 O   0  0  0  0  0  0  0  0  0  0  0  0
    3.5578   -0.5332   -0.2287 O   0  0  0  0  0  0  0  0  0  0  0  0
    2.9802    0.7158   -0.1603 C   0  0  0  0  0  0  0  0  0  0  0  0
    1.5309    0.5566   -0.2452 N   0  0  0  0  0  0  0  0  0  0  0  0
    0.8602    0.5686   -1.4990 C   0  0  0  0  0  0  0  0  0  0  0  0
    1.3623    0.7069   -2.6573 O   0  0  0  0  0  0  0  0  0  0  0  0
   -0.5279    0.3963   -1.2882 N   0  0  0  0  0  0  0  0  0  0  0  0
   -0.7972    0.1699    0.1308 C   0  0  0  0  0  0  0  0  0  0  0  0
    0.5343    0.3729    0.7580 C   0  0  0  0  0  0  0  0  0  0  0  0
    0.9583    0.4166    1.9454 O   0  0  0  0  0  0  0  0  0  0  0  0
   -1.7812    1.1571    0.5998 C   0  0  0  0  0  0  0  0  0  0  0  0
   -2.8689    1.5478   -0.1800 C   0  0  0  0  0  0  0  0  0  0  0  0
   -3.8319    2.4615    0.1909 C   0  0  0  0  0  0  0  0  0  0  0  0
   -3.7347    3.0539    1.4330 C   0  0  0  0  0  0  0  0  0  0  0  0
   -2.6916    2.7191    2.2554 C   0  0  0  0  0  0  0  0  0  0  0  0
   -1.7633    1.7978    1.8221 C   0  0  0  0  0  0  0  0  0  0  0  0
   -1.1641   -1.2434    0.3410 C   0  0  0  0  0  0  0  0  0  0  0  0
   -2.2472   -1.7607   -0.3466 C   0  0  0  0  0  0  0  0  0  0  0  0
   -2.6399   -3.0856   -0.1874 C   0  0  0  0  0  0  0  0  0  0  0  0
   -1.9796   -3.9415    0.6523 C   0  0  0  0  0  0  0  0  0  0  0  0
   -0.8970   -3.4440    1.3466 C   0  0  0  0  0  0  0  0  0  0  0  0
   -0.5365   -2.1498    1.1726 C   0  0  0  0  0  0  0  0  0  0  0  0
    5.3276    1.9373   -0.3089 H   0  0  0  0  0  0  0  0  0  0  0  0
    6.9283   -1.3053   -1.2561 H   0  0  0  0  0  0  0  0  0  0  0  0
    3.2929    1.4142   -0.9522 H   0  0  0  0  0  0  0  0  0  0  0  0
    3.2643    1.1981    0.8002 H   0  0  0  0  0  0  0  0  0  0  0  0
   -1.2815    0.4197   -2.0081 H   0  0  0  0  0  0  0  0  0  0  0  0
   -3.0211    1.1364   -1.1666 H   0  0  0  0  0  0  0  0  0  0  0  0
   -4.6571    2.7318   -0.4497 H   0  0  0  0  0  0  0  0  0  0  0  0
   -4.4561    3.7669    1.7642 H   0  0  0  0  0  0  0  0  0  0  0  0
   -2.5898    3.1767    3.2519 H   0  0  0  0  0  0  0  0  0  0  0  0
   -0.9637    1.5727    2.5138 H   0  0  0  0  0  0  0  0  0  0  0  0
   -2.8627   -1.2387   -1.0315 H   0  0  0  0  0  0  0  0  0  0  0  0
   -3.4901   -3.5335   -0.7120 H   0  0  0  0  0  0  0  0  0  0  0  0
   -2.2780   -4.9712    0.7818 H   0  0  0  0  0  0  0  0  0  0  0  0
   -0.3282   -4.0894    2.0373 H   0  0  0  0  0  0  0  0  0  0  0  0
    0.3137   -1.7983    1.7309 H   0  0  0  0  0  0  0  0  0  0  0  0
  1  2  1  0
  2  3  1  0
  2  4  2  0
  2  5  1  0
  5  6  1  0
  6  7  1  0
  7  8  1  0
  8  9  2  0
  8 10  1  0
 10 11  1  0
 11 12  1  0
 12 13  2  0
 11 14  1  0
 14 15  2  0
 15 16  1  0
 16 17  2  0
 17 18  1  0
 18 19  2  0
 11 20  1  0
 20 21  2  0
 21 22  1  0
 22 23  2  0
 23 24  1  0
 24 25  2  0
 12  7  1  0
 19 14  1  0
 25 20  1  0
  1 26  1  0
  3 27  1  0
  6 28  1  0
  6 29  1  0
 10 30  1  0
 15 31  1  0
 16 32  1  0
 17 33  1  0
 18 34  1  0
 19 35  1  0
 21 36  1  0
 22 37  1  0
 23 38  1  0
 24 39  1  0
 25 40  1  0
M  END
$$$$
