
     RDKit          3D

 62 67  0  0  0  0  0  0  0  0999 V2000
   -4.0374   -0.2100   -1.6135 O   0  0  0  0  0  0  0  0  0  0  0  0
   -2.9547    0.3292   -1.2674 C   0  0  0  0  0  0  0  0  0  0  0  0
   -2.6563    1.6293   -1.4271 N   0  0  0  0  0  0  0  0  0  0  0  0
   -3.5622    2.6094   -2.0340 C   0  0  0  0  0  0  0  0  0  0  0  0
   -4.4082    3.2130   -0.9535 C   0  0  0  0  0  0  0  0  0  0  0  0
   -3.9730    4.3312   -0.3121 C   0  0  0  0  0  0  0  0  0  0  0  0
   -4.7455    4.8890    0.6800 C   0  0  0  0  0  0  0  0  0  0  0  0
   -5.9467    4.2797    0.9854 C   0  0  0  0  0  0  0  0  0  0  0  0
   -6.3453    3.1548    0.3135 C   0  0  0  0  0  0  0  0  0  0  0  0
   -5.5679    2.6497   -0.6377 N   0  0  0  0  0  0  0  0  0  0  0  0
   -1.4403    1.8326   -0.9492 N   0  0  0  0  0  0  0  0  0  0  0  0
   -0.9632    0.6570   -0.4835 C   0  0  0  0  0  0  0  0  0  0  0  0
    0.3584    0.4779    0.1247 C   0  0  0  0  0  0  0  0  0  0  0  0
    0.5281   -0.2801    1.2719 C   0  0  0  0  0  0  0  0  0  0  0  0
    1.7807   -0.4359    1.8280 C   0  0  0  0  0  0  0  0  0  0  0  0
    2.8369    0.1474    1.2572 N   0  0  0  0  0  0  0  0  0  0  0  0
    2.7059    0.8903    0.1420 C   0  0  0  0  0  0  0  0  0  0  0  0
    3.8647    1.5047   -0.4472 N   0  0  0  0  0  0  0  0  0  0  0  0
    5.1766    1.3110    0.1795 C   0  0  0  0  0  0  0  0  0  0  0  0
    5.4610   -0.1685    0.1852 C   0  0  0  0  0  0  0  0  0  0  0  0
    6.5220   -0.4123   -0.8790 C   0  0  0  0  0  0  0  0  0  0  0  0
    7.7116    0.2143   -0.5474 O   0  0  0  0  0  0  0  0  0  0  0  0
    7.5921    1.5865   -0.4302 C   0  0  0  0  0  0  0  0  0  0  0  0
    6.1772    2.0772   -0.6190 C   0  0  0  0  0  0  0  0  0  0  0  0
    1.4711    1.0661   -0.4384 C   0  0  0  0  0  0  0  0  0  0  0  0
   -1.9205   -0.2675   -0.6903 N   0  0  0  0  0  0  0  0  0  0  0  0
   -1.8284   -1.6455   -0.3453 C   0  0  0  0  0  0  0  0  0  0  0  0
   -0.7625   -2.4394   -0.7184 C   0  0  0  0  0  0  0  0  0  0  0  0
   -0.6754   -3.7738   -0.3831 C   0  0  0  0  0  0  0  0  0  0  0  0
   -1.6820   -4.3782    0.3596 C   0  0  0  0  0  0  0  0  0  0  0  0
   -1.6297   -5.7041    0.7121 C   0  0  0  0  0  0  0  0  0  0  0  0
   -2.6488   -6.2619    1.4484 C   0  0  0  0  0  0  0  0  0  0  0  0
   -3.7099   -5.4604    1.8167 C   0  0  0  0  0  0  0  0  0  0  0  0
   -3.7650   -4.1288    1.4641 C   0  0  0  0  0  0  0  0  0  0  0  0
   -2.7442   -3.5672    0.7257 C   0  0  0  0  0  0  0  0  0  0  0  0
   -2.8330   -2.2349    0.3920 C   0  0  0  0  0  0  0  0  0  0  0  0
   -4.2523    2.1336   -2.7454 H   0  0  0  0  0  0  0  0  0  0  0  0
   -2.9987    3.3911   -2.5895 H   0  0  0  0  0  0  0  0  0  0  0  0
   -3.0153    4.8153   -0.5570 H   0  0  0  0  0  0  0  0  0  0  0  0
   -4.4369    5.7807    1.2176 H   0  0  0  0  0  0  0  0  0  0  0  0
   -6.5767    4.6915    1.7584 H   0  0  0  0  0  0  0  0  0  0  0  0
   -7.2882    2.6634    0.5422 H   0  0  0  0  0  0  0  0  0  0  0  0
   -0.3581   -0.7391    1.7067 H   0  0  0  0  0  0  0  0  0  0  0  0
    1.9142   -1.0382    2.7393 H   0  0  0  0  0  0  0  0  0  0  0  0
    3.7474    2.0746   -1.3071 H   0  0  0  0  0  0  0  0  0  0  0  0
    5.0819    1.6813    1.2197 H   0  0  0  0  0  0  0  0  0  0  0  0
    4.5619   -0.7716   -0.1107 H   0  0  0  0  0  0  0  0  0  0  0  0
    5.7891   -0.5545    1.1564 H   0  0  0  0  0  0  0  0  0  0  0  0
    6.1144   -0.0836   -1.8480 H   0  0  0  0  0  0  0  0  0  0  0  0
    6.7223   -1.5078   -0.8665 H   0  0  0  0  0  0  0  0  0  0  0  0
    8.1996    2.0376   -1.2431 H   0  0  0  0  0  0  0  0  0  0  0  0
    8.0115    1.9801    0.5180 H   0  0  0  0  0  0  0  0  0  0  0  0
    6.1636    3.1384   -0.2604 H   0  0  0  0  0  0  0  0  0  0  0  0
    5.9084    2.1440   -1.7049 H   0  0  0  0  0  0  0  0  0  0  0  0
    1.3420    1.6659   -1.3450 H   0  0  0  0  0  0  0  0  0  0  0  0
    0.0413   -1.9847   -1.3034 H   0  0  0  0  0  0  0  0  0  0  0  0
    0.1660   -4.3932   -0.6798 H   0  0  0  0  0  0  0  0  0  0  0  0
   -0.7895   -6.3068    0.4113 H   0  0  0  0  0  0  0  0  0  0  0  0
   -2.6410   -7.3208    1.7492 H   0  0  0  0  0  0  0  0  0  0  0  0
   -4.5328   -5.8687    2.3991 H   0  0  0  0  0  0  0  0  0  0  0  0
   -4.5925   -3.5077    1.7524 H   0  0  0  0  0  0  0  0  0  0  0  0
   -3.6678   -1.6025    0.6812 H   0  0  0  0  0  0  0  0  0  0  0  0
  1  2  2  0
  2  3  1  0
  3  4  1  0
  4  5  1  0
  5  6  2  0
  6  7  1  0
  7  8  2  0
  8  9  1  0
  9 10  2  0
  3 11  1  0
 11 12  2  0
 12 13  1  0
 13 14  2  0
 14 15  1  0
 15 16  2  0
 16 17  1  0
 17 18  1  0
 18 19  1  0
 19 20  1  0
 20 21  1  0
 21 22  1  0
 22 23  1  0
 23 24  1  0
 17 25  2  0
 12 26  1  0
 26 27  1  0
 27 28  2  0
 28 29  1  0
 29 30  2  0
 30 31  1  0
 31 32  2  0
 32 33  1  0
 33 34  2  0
 34 35  1  0
 35 36  2  0
 26  2  1  0
 36 27  1  0
 10  5  1  0
 25 13  1  0
 35 30  1  0
 24 19  1  0
  4 37  1  0
  4 38  1  0
  6 39  1  0
  7 40  1  0
  8 41  1  0
  9 42  1  0
 14 43  1  0
 15 44  1  0
 18 45  1  0
 19 46  1  0
 20 47  1  0
 20 48  1  0
 21 49  1  0
 21 50  1  0
 23 51  1  0
 23 52  1  0
 24 53  1  0
 24 54  1  0
 25 55  1  0
 28 56  1  0
 29 57  1  0
 31 58  1  0
 32 59  1  0
 33 60  1  0
 34 61  1  0
 36 62  1  0
M  END
$$$$
