
     RDKit          3D

 55 58  0  0  0  0  0  0  0  0999 V2000
    3.1949    3.0551    0.9267 C   0  0  0  0  0  0  0  0  0  0  0  0
    2.8777    1.6868    0.7793 O   0  0  0  0  0  0  0  0  0  0  0  0
    3.8546    0.7379    0.9587 C   0  0  0  0  0  0  0  0  0  0  0  0
    5.1611    1.1283    1.2869 C   0  0  0  0  0  0  0  0  0  0  0  0
    6.1821    0.2382    1.4797 C   0  0  0  0  0  0  0  0  0  0  0  0
    5.8711   -1.0954    1.3357 C   0  0  0  0  0  0  0  0  0  0  0  0
    4.6104   -1.5288    1.0160 C   0  0  0  0  0  0  0  0  0  0  0  0
    3.5683   -0.5967    0.8204 C   0  0  0  0  0  0  0  0  0  0  0  0
    2.2458   -1.1177    0.4820 C   0  0  0  0  0  0  0  0  0  0  0  0
    2.1724   -2.3914    0.3965 O   0  0  0  0  0  0  0  0  0  0  0  0
    1.0734   -0.4291    0.2435 N   0  0  0  0  0  0  0  0  0  0  0  0
   -0.2268   -0.9066   -0.0849 C   0  0  0  0  0  0  0  0  0  0  0  0
   -0.5377   -2.2360   -0.1342 C   0  0  0  0  0  0  0  0  0  0  0  0
   -1.7951   -2.7245   -0.4499 C   0  0  0  0  0  0  0  0  0  0  0  0
   -2.7938   -1.8360   -0.7307 C   0  0  0  0  0  0  0  0  0  0  0  0
   -2.5213   -0.4924   -0.6918 C   0  0  0  0  0  0  0  0  0  0  0  0
   -1.2539   -0.0183   -0.3737 C   0  0  0  0  0  0  0  0  0  0  0  0
   -0.9908    1.3683   -0.3612 N   0  0  0  0  0  0  0  0  0  0  0  0
   -0.1236    2.0849   -1.2702 C   0  0  0  0  0  0  0  0  0  0  0  0
   -0.9282    3.1567   -2.0132 C   0  0  0  0  0  0  0  0  0  0  0  0
   -1.6950    4.0108   -1.0229 C   0  0  0  0  0  0  0  0  0  0  0  0
   -2.5373    3.2254   -0.0787 C   0  0  0  0  0  0  0  0  0  0  0  0
   -1.6598    2.2164    0.6439 C   0  0  0  0  0  0  0  0  0  0  0  0
   -3.8860   -2.5861   -0.9969 N   0  0  0  0  0  0  0  0  0  0  0  0
   -5.1858   -2.0892   -1.3467 C   0  0  0  0  0  0  0  0  0  0  0  0
   -3.5784   -3.8920   -0.8860 C   0  0  0  0  0  0  0  0  0  0  0  0
   -4.3977   -4.8531   -1.0763 O   0  0  0  0  0  0  0  0  0  0  0  0
   -2.2914   -3.9726   -0.5494 N   0  0  0  0  0  0  0  0  0  0  0  0
   -1.5461   -5.1947   -0.3267 C   0  0  0  0  0  0  0  0  0  0  0  0
    4.0485    3.3496    0.2576 H   0  0  0  0  0  0  0  0  0  0  0  0
    3.5204    3.2541    1.9810 H   0  0  0  0  0  0  0  0  0  0  0  0
    2.3396    3.6640    0.6407 H   0  0  0  0  0  0  0  0  0  0  0  0
    5.3754    2.1803    1.3932 H   0  0  0  0  0  0  0  0  0  0  0  0
    7.1751    0.5853    1.7318 H   0  0  0  0  0  0  0  0  0  0  0  0
    6.6380   -1.8408    1.4764 H   0  0  0  0  0  0  0  0  0  0  0  0
    4.3972   -2.5789    0.9100 H   0  0  0  0  0  0  0  0  0  0  0  0
    1.1298    0.6302    0.3234 H   0  0  0  0  0  0  0  0  0  0  0  0
    0.2029   -2.9966    0.0813 H   0  0  0  0  0  0  0  0  0  0  0  0
   -3.3145    0.2126   -0.9147 H   0  0  0  0  0  0  0  0  0  0  0  0
    0.6255    2.6342   -0.6850 H   0  0  0  0  0  0  0  0  0  0  0  0
    0.3771    1.4537   -1.9951 H   0  0  0  0  0  0  0  0  0  0  0  0
   -1.6130    2.7375   -2.7580 H   0  0  0  0  0  0  0  0  0  0  0  0
   -0.2129    3.8229   -2.5333 H   0  0  0  0  0  0  0  0  0  0  0  0
   -2.3628    4.6688   -1.6305 H   0  0  0  0  0  0  0  0  0  0  0  0
   -1.0216    4.6590   -0.4303 H   0  0  0  0  0  0  0  0  0  0  0  0
   -2.9432    3.8966    0.6791 H   0  0  0  0  0  0  0  0  0  0  0  0
   -3.3523    2.6701   -0.5766 H   0  0  0  0  0  0  0  0  0  0  0  0
   -2.3155    1.6192    1.2865 H   0  0  0  0  0  0  0  0  0  0  0  0
   -0.9037    2.7056    1.2786 H   0  0  0  0  0  0  0  0  0  0  0  0
   -5.9634   -2.8514   -1.1304 H   0  0  0  0  0  0  0  0  0  0  0  0
   -5.4159   -1.2321   -0.6557 H   0  0  0  0  0  0  0  0  0  0  0  0
   -5.2916   -1.8106   -2.4106 H   0  0  0  0  0  0  0  0  0  0  0  0
   -2.2119   -6.0588   -0.1892 H   0  0  0  0  0  0  0  0  0  0  0  0
   -0.8516   -5.3191   -1.1909 H   0  0  0  0  0  0  0  0  0  0  0  0
   -0.9187   -5.0033    0.5926 H   0  0  0  0  0  0  0  0  0  0  0  0
  1  2  1  0
  2  3  1  0
  3  4  2  0
  4  5  1  0
  5  6  2  0
  6  7  1  0
  7  8  2  0
  8  9  1  0
  9 10  2  0
  9 11  1  0
 11 12  1  0
 12 13  2  0
 13 14  1  0
 14 15  2  0
 15 16  1  0
 16 17  2  0
 17 18  1  0
 18 19  1  0
 19 20  1  0
 20 21  1  0
 21 22  1  0
 22 23  1  0
 15 24  1  0
 24 25  1  0
 24 26  1  0
 26 27  2  0
 26 28  1  0
 28 29  1  0
  8  3  1  0
 17 12  1  0
 23 18  1  0
 28 14  1  0
  1 30  1  0
  1 31  1  0
  1 32  1  0
  4 33  1  0
  5 34  1  0
  6 35  1  0
  7 36  1  0
 11 37  1  0
 13 38  1  0
 16 39  1  0
 19 40  1  0
 19 41  1  0
 20 42  1  0
 20 43  1  0
 21 44  1  0
 21 45  1  0
 22 46  1  0
 22 47  1  0
 23 48  1  0
 23 49  1  0
 25 50  1  0
 25 51  1  0
 25 52  1  0
 29 53  1  0
 29 54  1  0
 29 55  1  0
M  END
$$$$
