
     RDKit          3D

 58 62  0  0  0  0  0  0  0  0999 V2000
    8.0645   -2.1670    1.2295 C   0  0  0  0  0  0  0  0  0  0  0  0
    6.7918   -1.9882    0.5348 N   0  0  0  0  0  0  0  0  0  0  0  0
    6.0455   -3.0094    0.0654 C   0  0  0  0  0  0  0  0  0  0  0  0
    4.9351   -2.5437   -0.5221 N   0  0  0  0  0  0  0  0  0  0  0  0
    4.9772   -1.1938   -0.4222 C   0  0  0  0  0  0  0  0  0  0  0  0
    3.7446   -0.1408   -1.0461 S   0  0  0  0  0  6  0  0  0  0  0  0
    4.1565    1.2893   -0.8235 O   0  0  0  0  0  0  0  0  0  0  0  0
    3.5590   -0.3180   -2.5317 O   0  0  0  0  0  0  0  0  0  0  0  0
    2.2387   -0.4936   -0.2828 N   0  0  0  0  0  0  0  0  0  0  0  0
    1.8650    0.6827    0.4792 C   0  0  0  0  0  0  0  0  0  0  0  0
    1.1367    1.5629   -0.5120 C   0  0  1  0  0  0  0  0  0  0  0  0
    0.6091    0.6463   -1.5573 C   0  0  1  0  0  0  0  0  0  0  0  0
    1.1991   -0.6890   -1.2674 C   0  0  0  0  0  0  0  0  0  0  0  0
   -0.3431    1.3081   -0.5969 C   0  0  1  0  0  0  0  0  0  0  0  0
   -0.9240    0.4351    0.4531 C   0  0  0  0  0  0  0  0  0  0  0  0
   -2.3351    0.2131    0.2657 N   0  0  0  0  0  0  0  0  0  0  0  0
   -3.0332   -0.6409    1.2036 C   0  0  0  0  0  0  0  0  0  0  0  0
   -2.3666   -1.1371    2.1519 O   0  0  0  0  0  0  0  0  0  0  0  0
   -4.4339   -0.9345    1.0875 C   0  0  0  0  0  0  0  0  0  0  0  0
   -5.3920   -0.2879    1.8677 C   0  0  0  0  0  0  0  0  0  0  0  0
   -6.7295   -0.6087    1.7569 C   0  0  0  0  0  0  0  0  0  0  0  0
   -7.1783   -1.5695    0.8814 C   0  0  0  0  0  0  0  0  0  0  0  0
   -6.2476   -2.2096    0.1099 C   0  0  0  0  0  0  0  0  0  0  0  0
   -4.8885   -1.8954    0.2114 C   0  0  0  0  0  0  0  0  0  0  0  0
   -3.9293   -2.6209   -0.6592 C   0  0  0  0  0  0  0  0  0  0  0  0
   -3.2538   -1.8010   -1.5094 F   0  0  0  0  0  0  0  0  0  0  0  0
   -3.0429   -3.3735    0.1297 F   0  0  0  0  0  0  0  0  0  0  0  0
   -4.5998   -3.5541   -1.4240 F   0  0  0  0  0  0  0  0  0  0  0  0
   -1.1220    2.4800   -1.1070 C   0  0  0  0  0  0  0  0  0  0  0  0
   -1.0951    3.7310   -0.3180 C   0  0  0  0  0  0  0  0  0  0  0  0
   -1.6289    3.7891    1.1023 C   0  0  0  0  0  0  0  0  0  0  0  0
   -0.1831    3.9543    0.8550 C   0  0  0  0  0  0  0  0  0  0  0  0
    6.1328   -0.8820    0.2337 C   0  0  0  0  0  0  0  0  0  0  0  0
    8.3306   -1.1932    1.6506 H   0  0  0  0  0  0  0  0  0  0  0  0
    8.8121   -2.4353    0.4253 H   0  0  0  0  0  0  0  0  0  0  0  0
    8.0180   -2.9904    1.9753 H   0  0  0  0  0  0  0  0  0  0  0  0
    6.2859   -4.0633    0.1378 H   0  0  0  0  0  0  0  0  0  0  0  0
    1.1991    0.4708    1.3248 H   0  0  0  0  0  0  0  0  0  0  0  0
    2.7541    1.2470    0.8370 H   0  0  0  0  0  0  0  0  0  0  0  0
    1.5971    2.4720   -0.8871 H   0  0  0  0  0  0  0  0  0  0  0  0
    0.5448    0.9981   -2.6206 H   0  0  0  0  0  0  0  0  0  0  0  0
    0.4914   -1.4908   -1.0343 H   0  0  0  0  0  0  0  0  0  0  0  0
    1.7116   -1.0273   -2.2157 H   0  0  0  0  0  0  0  0  0  0  0  0
   -0.7896    0.8371    1.4876 H   0  0  0  0  0  0  0  0  0  0  0  0
   -0.4092   -0.5589    0.4866 H   0  0  0  0  0  0  0  0  0  0  0  0
   -2.9304    0.6035   -0.4813 H   0  0  0  0  0  0  0  0  0  0  0  0
   -5.0163    0.4579    2.5419 H   0  0  0  0  0  0  0  0  0  0  0  0
   -7.4431   -0.0834    2.3888 H   0  0  0  0  0  0  0  0  0  0  0  0
   -8.2305   -1.8264    0.7989 H   0  0  0  0  0  0  0  0  0  0  0  0
   -6.5415   -2.9804   -0.5981 H   0  0  0  0  0  0  0  0  0  0  0  0
   -0.7588    2.7493   -2.1452 H   0  0  0  0  0  0  0  0  0  0  0  0
   -2.1800    2.1971   -1.2586 H   0  0  0  0  0  0  0  0  0  0  0  0
   -1.3422    4.6589   -0.9386 H   0  0  0  0  0  0  0  0  0  0  0  0
   -1.9661    2.8926    1.6098 H   0  0  0  0  0  0  0  0  0  0  0  0
   -2.1575    4.7398    1.3938 H   0  0  0  0  0  0  0  0  0  0  0  0
    0.2950    4.9858    0.8783 H   0  0  0  0  0  0  0  0  0  0  0  0
    0.5389    3.1822    1.0863 H   0  0  0  0  0  0  0  0  0  0  0  0
    6.4576    0.1237    0.4708 H   0  0  0  0  0  0  0  0  0  0  0  0
  1  2  1  0
  2  3  1  0
  3  4  2  0
  4  5  1  0
  5  6  1  0
  6  7  2  0
  6  8  2  0
  6  9  1  0
  9 10  1  0
 10 11  1  0
 11 12  1  0
 12 13  1  0
 12 14  1  0
 14 15  1  1
 15 16  1  0
 16 17  1  0
 17 18  2  0
 17 19  1  0
 19 20  2  0
 20 21  1  0
 21 22  2  0
 22 23  1  0
 23 24  2  0
 24 25  1  0
 25 26  1  0
 25 27  1  0
 25 28  1  0
 14 29  1  0
 29 30  1  0
 30 31  1  0
 31 32  1  0
  5 33  2  0
 33  2  1  0
 13  9  1  0
 24 19  1  0
 32 30  1  0
 14 11  1  0
  1 34  1  0
  1 35  1  0
  1 36  1  0
  3 37  1  0
 10 38  1  0
 10 39  1  0
 11 40  1  6
 12 41  1  6
 13 42  1  0
 13 43  1  0
 15 44  1  0
 15 45  1  0
 16 46  1  0
 20 47  1  0
 21 48  1  0
 22 49  1  0
 23 50  1  0
 29 51  1  0
 29 52  1  0
 30 53  1  0
 31 54  1  0
 31 55  1  0
 32 56  1  0
 32 57  1  0
 33 58  1  0
M  END
$$$$
