
     RDKit          3D

 36 36  0  0  0  0  0  0  0  0999 V2000
   -4.1197    0.4585    1.8104 C   0  0  0  0  0  0  0  0  0  0  0  0
   -4.6379   -0.7610    1.1309 C   0  0  0  0  0  0  0  0  0  0  0  0
   -4.5380   -0.7871   -0.3509 C   0  0  0  0  0  0  0  0  0  0  0  0
   -3.1727   -0.6888   -0.9298 C   0  0  0  0  0  0  0  0  0  0  0  0
   -2.4449    0.5060   -0.6164 N   0  0  0  0  0  0  0  0  0  0  0  0
   -1.1472    0.4512   -1.2429 C   0  0  0  0  0  0  0  0  0  0  0  0
   -0.7839   -0.5296   -1.9421 O   0  0  0  0  0  0  0  0  0  0  0  0
   -0.1747    1.4891   -1.1271 N   0  0  0  0  0  0  0  0  0  0  0  0
    1.3804    1.4620   -1.8570 S   0  0  0  0  0  0  0  0  0  0  0  0
    1.7278    2.8681   -2.2537 O   0  0  0  0  0  0  0  0  0  0  0  0
    1.2368    0.6959   -3.1490 O   0  0  0  0  0  0  0  0  0  0  0  0
    2.5782    0.7381   -0.8177 C   0  0  0  0  0  0  0  0  0  0  0  0
    3.3306    1.4568    0.0887 C   0  0  0  0  0  0  0  0  0  0  0  0
    4.2637    0.8125    0.8809 C   0  0  0  0  0  0  0  0  0  0  0  0
    4.4691   -0.5587    0.7897 C   0  0  0  0  0  0  0  0  0  0  0  0
    5.4602   -1.2910    1.6210 C   0  0  0  0  0  0  0  0  0  0  0  0
    3.6962   -1.2342   -0.1278 C   0  0  0  0  0  0  0  0  0  0  0  0
    2.7521   -0.6434   -0.9426 C   0  0  0  0  0  0  0  0  0  0  0  0
   -4.4627    1.4062    1.3497 H   0  0  0  0  0  0  0  0  0  0  0  0
   -3.0332    0.4337    2.0445 H   0  0  0  0  0  0  0  0  0  0  0  0
   -4.6039    0.4649    2.8350 H   0  0  0  0  0  0  0  0  0  0  0  0
   -4.1870   -1.6462    1.6275 H   0  0  0  0  0  0  0  0  0  0  0  0
   -5.7338   -0.8380    1.3867 H   0  0  0  0  0  0  0  0  0  0  0  0
   -5.0021   -1.7377   -0.7030 H   0  0  0  0  0  0  0  0  0  0  0  0
   -5.1600    0.0525   -0.7341 H   0  0  0  0  0  0  0  0  0  0  0  0
   -2.5611   -1.5959   -0.7153 H   0  0  0  0  0  0  0  0  0  0  0  0
   -3.2973   -0.6871   -2.0461 H   0  0  0  0  0  0  0  0  0  0  0  0
   -2.5576    1.3947   -0.0845 H   0  0  0  0  0  0  0  0  0  0  0  0
   -0.4252    2.3267   -0.5573 H   0  0  0  0  0  0  0  0  0  0  0  0
    3.1670    2.5347    0.1582 H   0  0  0  0  0  0  0  0  0  0  0  0
    4.8471    1.3704    1.5838 H   0  0  0  0  0  0  0  0  0  0  0  0
    6.4734   -1.1814    1.1673 H   0  0  0  0  0  0  0  0  0  0  0  0
    5.1458   -2.3465    1.7414 H   0  0  0  0  0  0  0  0  0  0  0  0
    5.4962   -0.8267    2.6337 H   0  0  0  0  0  0  0  0  0  0  0  0
    3.8337   -2.3077   -0.2224 H   0  0  0  0  0  0  0  0  0  0  0  0
    2.1843   -1.2609   -1.6427 H   0  0  0  0  0  0  0  0  0  0  0  0
  1  2  1  0
  2  3  1  0
  3  4  1  0
  4  5  1  0
  5  6  1  0
  6  7  2  0
  6  8  1  0
  8  9  1  0
  9 10  2  0
  9 11  2  0
  9 12  1  0
 12 13  2  0
 13 14  1  0
 14 15  2  0
 15 16  1  0
 15 17  1  0
 17 18  2  0
 18 12  1  0
  1 19  1  0
  1 20  1  0
  1 21  1  0
  2 22  1  0
  2 23  1  0
  3 24  1  0
  3 25  1  0
  4 26  1  0
  4 27  1  0
  5 28  1  0
  8 29  1  0
 13 30  1  0
 14 31  1  0
 16 32  1  0
 16 33  1  0
 16 34  1  0
 17 35  1  0
 18 36  1  0
M  END
$$$$
