
     RDKit          3D

 44 46  0  0  0  0  0  0  0  0999 V2000
    6.6481   -1.7851   -1.0907 C   0  0  0  0  0  0  0  0  0  0  0  0
    5.7081   -0.8581   -0.4006 N   0  0  0  0  0  0  0  0  0  0  0  0
    6.3094    0.0487    0.5194 C   0  0  0  0  0  0  0  0  0  0  0  0
    4.3674   -0.9893   -0.7307 C   0  0  0  0  0  0  0  0  0  0  0  0
    4.1180   -1.9300   -1.6101 O   0  0  0  0  0  0  0  0  0  0  0  0
    3.2122   -0.2579   -0.2628 C   0  0  0  0  0  0  0  0  0  0  0  0
    3.2865    0.6658    0.7294 C   0  0  0  0  0  0  0  0  0  0  0  0
    2.1481    1.3604    1.1552 C   0  0  0  0  0  0  0  0  0  0  0  0
    0.9575    1.0760    0.5371 C   0  0  0  0  0  0  0  0  0  0  0  0
    0.8090    0.1637   -0.4641 C   0  0  0  0  0  0  0  0  0  0  0  0
   -0.6710   -0.2004   -1.3060 S   0  0  0  0  0  6  0  0  0  0  0  0
   -0.6246   -1.7031   -1.6586 O   0  0  0  0  0  0  0  0  0  0  0  0
   -0.6222    0.4476   -2.7047 O   0  0  0  0  0  0  0  0  0  0  0  0
   -2.0646    0.1737   -0.4988 N   0  0  0  0  0  0  0  0  0  0  0  0
   -2.4212    1.4746   -0.1545 C   0  0  0  0  0  0  0  0  0  0  0  0
   -3.1730    1.4346    1.1941 C   0  0  0  0  0  0  0  0  0  0  0  0
   -4.4303    0.7263    0.8545 C   0  0  0  0  0  0  0  0  0  0  0  0
   -5.6452    1.2251    1.1984 C   0  0  0  0  0  0  0  0  0  0  0  0
   -6.7812    0.4933    0.8200 C   0  0  0  0  0  0  0  0  0  0  0  0
   -6.6644   -0.6907    0.1224 C   0  0  0  0  0  0  0  0  0  0  0  0
   -5.4226   -1.1903   -0.2233 C   0  0  0  0  0  0  0  0  0  0  0  0
   -4.2932   -0.4553    0.1582 C   0  0  0  0  0  0  0  0  0  0  0  0
   -2.9240   -0.9030   -0.1566 C   0  0  0  0  0  0  0  0  0  0  0  0
    1.9767   -0.5012   -0.8502 C   0  0  0  0  0  0  0  0  0  0  0  0
    6.5917   -2.7255   -0.5264 H   0  0  0  0  0  0  0  0  0  0  0  0
    7.6711   -1.3961   -1.0243 H   0  0  0  0  0  0  0  0  0  0  0  0
    6.3548   -1.8820   -2.1669 H   0  0  0  0  0  0  0  0  0  0  0  0
    6.1199   -0.1883    1.5930 H   0  0  0  0  0  0  0  0  0  0  0  0
    7.4447   -0.1093    0.4532 H   0  0  0  0  0  0  0  0  0  0  0  0
    6.2090    1.1235    0.2619 H   0  0  0  0  0  0  0  0  0  0  0  0
    4.1776    0.9320    1.2574 H   0  0  0  0  0  0  0  0  0  0  0  0
    2.2039    2.1012    1.9458 H   0  0  0  0  0  0  0  0  0  0  0  0
    0.1031    1.6370    0.9300 H   0  0  0  0  0  0  0  0  0  0  0  0
   -3.2284    1.8859   -0.8794 H   0  0  0  0  0  0  0  0  0  0  0  0
   -1.6359    2.2012   -0.2058 H   0  0  0  0  0  0  0  0  0  0  0  0
   -2.5677    0.8174    1.8784 H   0  0  0  0  0  0  0  0  0  0  0  0
   -3.3524    2.4666    1.5639 H   0  0  0  0  0  0  0  0  0  0  0  0
   -5.7266    2.1483    1.7406 H   0  0  0  0  0  0  0  0  0  0  0  0
   -7.7579    0.8372    1.0622 H   0  0  0  0  0  0  0  0  0  0  0  0
   -7.5330   -1.2496   -0.1649 H   0  0  0  0  0  0  0  0  0  0  0  0
   -5.3147   -2.1060   -0.7642 H   0  0  0  0  0  0  0  0  0  0  0  0
   -2.5296   -1.3649    0.7984 H   0  0  0  0  0  0  0  0  0  0  0  0
   -2.9160   -1.7287   -0.9043 H   0  0  0  0  0  0  0  0  0  0  0  0
    1.8829   -1.2251   -1.6315 H   0  0  0  0  0  0  0  0  0  0  0  0
  1  2  1  0
  2  3  1  0
  2  4  1  0
  4  5  2  0
  4  6  1  0
  6  7  2  0
  7  8  1  0
  8  9  2  0
  9 10  1  0
 10 11  1  0
 11 12  2  0
 11 13  2  0
 11 14  1  0
 14 15  1  0
 15 16  1  0
 16 17  1  0
 17 18  2  0
 18 19  1  0
 19 20  2  0
 20 21  1  0
 21 22  2  0
 22 23  1  0
 10 24  2  0
 24  6  1  0
 23 14  1  0
 22 17  1  0
  1 25  1  0
  1 26  1  0
  1 27  1  0
  3 28  1  0
  3 29  1  0
  3 30  1  0
  7 31  1  0
  8 32  1  0
  9 33  1  0
 15 34  1  0
 15 35  1  0
 16 36  1  0
 16 37  1  0
 18 38  1  0
 19 39  1  0
 20 40  1  0
 21 41  1  0
 23 42  1  0
 23 43  1  0
 24 44  1  0
M  END
$$$$
