
     RDKit          3D

 42 45  0  0  0  0  0  0  0  0999 V2000
    0.2341   -2.4465    1.5727 C   0  0  0  0  0  0  0  0  0  0  0  0
    0.4287   -1.1136    0.8744 C   0  0  1  0  0  0  0  0  0  0  0  0
    1.6751   -1.0982    0.0466 C   0  0  0  0  0  0  0  0  0  0  0  0
    1.7624    0.1580   -0.7097 C   0  0  0  0  0  0  0  0  0  0  0  0
    0.6034    0.6593   -1.2543 C   0  0  0  0  0  0  0  0  0  0  0  0
    0.9100    1.7744   -1.8861 N   0  0  0  0  0  0  0  0  0  0  0  0
    2.2091    1.9877   -1.7574 N   0  0  0  0  0  0  0  0  0  0  0  0
    2.7409    1.0114   -1.0434 N   0  0  0  0  0  0  0  0  0  0  0  0
    4.1308    0.9184   -0.7058 C   0  0  0  0  0  0  0  0  0  0  0  0
    5.0498    1.3403   -1.5932 N   0  0  0  0  0  0  0  0  0  0  0  0
    6.3722    1.2970   -1.3759 C   0  0  0  0  0  0  0  0  0  0  0  0
    6.8369    0.7876   -0.1642 C   0  0  0  0  0  0  0  0  0  0  0  0
    8.1588    0.7377    0.0683 F   0  0  0  0  0  0  0  0  0  0  0  0
    5.8748    0.3641    0.7229 C   0  0  0  0  0  0  0  0  0  0  0  0
    4.5575    0.4283    0.4580 N   0  0  0  0  0  0  0  0  0  0  0  0
   -0.7029   -0.0370   -1.0779 C   0  0  0  0  0  0  0  0  0  0  0  0
   -0.7649   -0.7009    0.2002 N   0  0  0  0  0  0  0  0  0  0  0  0
   -2.0240   -0.9378    0.7876 C   0  0  0  0  0  0  0  0  0  0  0  0
   -2.0927   -1.5203    1.9174 O   0  0  0  0  0  0  0  0  0  0  0  0
   -3.2842   -0.5576    0.1855 C   0  0  0  0  0  0  0  0  0  0  0  0
   -3.9270   -1.4427   -0.6453 C   0  0  0  0  0  0  0  0  0  0  0  0
   -5.1296   -1.0895   -1.2247 C   0  0  0  0  0  0  0  0  0  0  0  0
   -5.6603    0.1253   -0.9665 N   0  0  0  0  0  0  0  0  0  0  0  0
   -5.0750    1.0301   -0.1620 C   0  0  0  0  0  0  0  0  0  0  0  0
   -5.6818    2.3687    0.1087 C   0  0  0  0  0  0  0  0  0  0  0  0
   -5.8911    2.4307    1.4797 F   0  0  0  0  0  0  0  0  0  0  0  0
   -4.6887    3.2994   -0.1662 F   0  0  0  0  0  0  0  0  0  0  0  0
   -6.8104    2.5791   -0.6201 F   0  0  0  0  0  0  0  0  0  0  0  0
   -3.8737    0.6611    0.4088 C   0  0  0  0  0  0  0  0  0  0  0  0
   -3.2516    1.5384    1.2229 F   0  0  0  0  0  0  0  0  0  0  0  0
   -0.5401   -3.0208    1.0689 H   0  0  0  0  0  0  0  0  0  0  0  0
    1.1588   -3.0613    1.5456 H   0  0  0  0  0  0  0  0  0  0  0  0
   -0.0366   -2.3239    2.6298 H   0  0  0  0  0  0  0  0  0  0  0  0
    0.5931   -0.3672    1.6989 H   0  0  0  0  0  0  0  0  0  0  0  0
    2.5371   -1.1591    0.7633 H   0  0  0  0  0  0  0  0  0  0  0  0
    1.7779   -2.0000   -0.5943 H   0  0  0  0  0  0  0  0  0  0  0  0
    7.0771    1.6467   -2.1164 H   0  0  0  0  0  0  0  0  0  0  0  0
    6.2341   -0.0366    1.6753 H   0  0  0  0  0  0  0  0  0  0  0  0
   -1.5030    0.7232   -1.1810 H   0  0  0  0  0  0  0  0  0  0  0  0
   -0.7981   -0.7558   -1.9314 H   0  0  0  0  0  0  0  0  0  0  0  0
   -3.5439   -2.4285   -0.8845 H   0  0  0  0  0  0  0  0  0  0  0  0
   -5.6429   -1.7694   -1.8751 H   0  0  0  0  0  0  0  0  0  0  0  0
  1  2  1  0
  2  3  1  0
  3  4  1  0
  4  5  2  0
  5  6  1  0
  6  7  2  0
  7  8  1  0
  8  9  1  0
  9 10  2  0
 10 11  1  0
 11 12  2  0
 12 13  1  0
 12 14  1  0
 14 15  2  0
  5 16  1  0
 16 17  1  0
 17 18  1  0
 18 19  2  0
 18 20  1  0
 20 21  2  0
 21 22  1  0
 22 23  2  0
 23 24  1  0
 24 25  1  0
 25 26  1  0
 25 27  1  0
 25 28  1  0
 24 29  2  0
 29 30  1  0
 17  2  1  0
 29 20  1  0
  8  4  1  0
 15  9  1  0
  1 31  1  0
  1 32  1  0
  1 33  1  0
  2 34  1  1
  3 35  1  0
  3 36  1  0
 11 37  1  0
 14 38  1  0
 16 39  1  0
 16 40  1  0
 21 41  1  0
 22 42  1  0
M  END
$$$$
