
     RDKit          3D

 23 23  0  0  0  0  0  0  0  0999 V2000
   -2.4395   -0.9791    0.4793 C   0  0  0  0  0  0  0  0  0  0  0  0
   -1.0625   -0.7618   -0.1292 C   0  0  2  0  0  0  0  0  0  0  0  0
   -0.1541   -1.1381    0.8448 O   0  0  0  0  0  0  0  0  0  0  0  0
    1.1241   -1.0156    0.3019 C   0  0  2  0  0  0  0  0  0  0  0  0
    2.0082   -1.7431    1.0833 O   0  0  0  0  0  0  0  0  0  0  0  0
    1.4323    0.4782    0.3354 C   0  0  1  0  0  0  0  0  0  0  0  0
    2.7588    0.6129   -0.0157 O   0  0  0  0  0  0  0  0  0  0  0  0
    0.5225    1.1134   -0.6775 C   0  0  2  0  0  0  0  0  0  0  0  0
    0.5675    2.5074   -0.5001 O   0  0  0  0  0  0  0  0  0  0  0  0
   -0.8862    0.6404   -0.6192 C   0  0  2  0  0  0  0  0  0  0  0  0
   -1.6727    1.5651    0.0867 O   0  0  0  0  0  0  0  0  0  0  0  0
   -2.4962   -2.0797    0.6907 H   0  0  0  0  0  0  0  0  0  0  0  0
   -2.4354   -0.4899    1.4709 H   0  0  0  0  0  0  0  0  0  0  0  0
   -3.2574   -0.6533   -0.1758 H   0  0  0  0  0  0  0  0  0  0  0  0
   -0.9699   -1.4703   -0.9804 H   0  0  0  0  0  0  0  0  0  0  0  0
    1.1166   -1.3524   -0.7597 H   0  0  0  0  0  0  0  0  0  0  0  0
    2.1275   -2.6324    0.6423 H   0  0  0  0  0  0  0  0  0  0  0  0
    1.2162    0.8684    1.3477 H   0  0  0  0  0  0  0  0  0  0  0  0
    3.2724   -0.2430    0.0617 H   0  0  0  0  0  0  0  0  0  0  0  0
    0.9588    0.9101   -1.6903 H   0  0  0  0  0  0  0  0  0  0  0  0
    1.1115    2.7682    0.2740 H   0  0  0  0  0  0  0  0  0  0  0  0
   -1.2845    0.6645   -1.6683 H   0  0  0  0  0  0  0  0  0  0  0  0
   -1.5581    2.4300   -0.4023 H   0  0  0  0  0  0  0  0  0  0  0  0
  1  2  1  0
  2  3  1  0
  3  4  1  0
  4  5  1  0
  4  6  1  0
  6  7  1  0
  6  8  1  0
  8  9  1  0
  8 10  1  0
 10 11  1  0
 10  2  1  0
  1 12  1  0
  1 13  1  0
  1 14  1  0
  2 15  1  6
  4 16  1  6
  5 17  1  0
  6 18  1  1
  7 19  1  0
  8 20  1  6
  9 21  1  0
 10 22  1  6
 11 23  1  0
M  END
$$$$
