
     RDKit          3D

 35 36  0  0  0  0  0  0  0  0999 V2000
   -5.4315    2.0351    1.9188 C   0  0  0  0  0  0  0  0  0  0  0  0
   -4.4179    1.5964    1.2305 O   0  0  0  0  0  0  0  0  0  0  0  0
   -3.4449    1.1504    0.5837 C   0  0  0  0  0  0  0  0  0  0  0  0
   -2.9229   -0.0868    0.7985 C   0  0  0  0  0  0  0  0  0  0  0  0
   -1.8539   -0.6562    0.1325 C   0  0  0  0  0  0  0  0  0  0  0  0
   -1.3298   -1.9149    0.3574 O   0  0  0  0  0  0  0  0  0  0  0  0
   -1.8571   -2.7909    1.3369 C   0  0  0  0  0  0  0  0  0  0  0  0
   -1.2893    0.1640   -0.8501 C   0  0  0  0  0  0  0  0  0  0  0  0
   -0.1905   -0.3129   -1.5946 N   0  0  0  0  0  0  0  0  0  0  0  0
    1.1737   -0.1337   -1.2185 C   0  0  0  0  0  0  0  0  0  0  0  0
    1.2501    0.5121   -0.1263 O   0  0  0  0  0  0  0  0  0  0  0  0
    2.2684   -0.6312   -1.9973 N   0  0  0  0  0  0  0  0  0  0  0  0
    3.5069   -0.3022   -1.3752 C   0  0  0  0  0  0  0  0  0  0  0  0
    3.9467   -1.2522   -0.4964 N   0  0  0  0  0  0  0  0  0  0  0  0
    5.1282   -1.0296    0.1541 C   0  0  0  0  0  0  0  0  0  0  0  0
    5.8680    0.1272   -0.0658 C   0  0  0  0  0  0  0  0  0  0  0  0
    5.4078    1.0619   -0.9488 N   0  0  0  0  0  0  0  0  0  0  0  0
    4.2452    0.8452   -1.5902 C   0  0  0  0  0  0  0  0  0  0  0  0
    7.0986    0.2870    0.6567 C   0  0  0  0  0  0  0  0  0  0  0  0
    8.0935    0.4271    1.2321 N   0  0  0  0  0  0  0  0  0  0  0  0
   -1.7365    1.4318   -1.1512 C   0  0  0  0  0  0  0  0  0  0  0  0
   -2.8172    1.8954   -0.4150 C   0  0  0  0  0  0  0  0  0  0  0  0
   -3.4510    3.5038   -0.7361 Cl  0  0  0  0  0  0  0  0  0  0  0  0
   -6.3361    2.3916    1.3188 H   0  0  0  0  0  0  0  0  0  0  0  0
   -5.9286    1.2696    2.6070 H   0  0  0  0  0  0  0  0  0  0  0  0
   -5.2395    2.9615    2.5736 H   0  0  0  0  0  0  0  0  0  0  0  0
   -3.3655   -0.7194    1.5634 H   0  0  0  0  0  0  0  0  0  0  0  0
   -2.9590   -2.7304    1.4371 H   0  0  0  0  0  0  0  0  0  0  0  0
   -1.6166   -3.8568    1.1009 H   0  0  0  0  0  0  0  0  0  0  0  0
   -1.4140   -2.5009    2.3112 H   0  0  0  0  0  0  0  0  0  0  0  0
   -0.4143   -0.8384   -2.4928 H   0  0  0  0  0  0  0  0  0  0  0  0
    2.0304   -1.1467   -2.8790 H   0  0  0  0  0  0  0  0  0  0  0  0
    5.4375   -1.8220    0.8487 H   0  0  0  0  0  0  0  0  0  0  0  0
    3.8287    1.5519   -2.3037 H   0  0  0  0  0  0  0  0  0  0  0  0
   -1.2676    2.0291   -1.9204 H   0  0  0  0  0  0  0  0  0  0  0  0
  1  2  1  0
  2  3  1  0
  3  4  2  0
  4  5  1  0
  5  6  1  0
  6  7  1  0
  5  8  2  0
  8  9  1  0
  9 10  1  0
 10 11  2  0
 10 12  1  0
 12 13  1  0
 13 14  2  0
 14 15  1  0
 15 16  2  0
 16 17  1  0
 17 18  2  0
 16 19  1  0
 19 20  3  0
  8 21  1  0
 21 22  2  0
 22 23  1  0
 22  3  1  0
 18 13  1  0
  1 24  1  0
  1 25  1  0
  1 26  1  0
  4 27  1  0
  7 28  1  0
  7 29  1  0
  7 30  1  0
  9 31  1  0
 12 32  1  0
 15 33  1  0
 18 34  1  0
 21 35  1  0
M  END
$$$$
