
     RDKit          3D

 14 13  0  0  0  0  0  0  0  0999 V2000
    0.4967    1.6209    0.3004 N   0  0  0  0  0  0  0  0  0  0  0  0
    0.0305    0.2624    0.4462 C   0  0  1  0  0  0  0  0  0  0  0  0
   -1.1665    0.1009   -0.4586 C   0  0  0  0  0  0  0  0  0  0  0  0
   -1.8731   -1.6926   -0.3396 Se  0  0  0  0  0  2  0  0  0  0  0  0
    1.1171   -0.7065    0.0907 C   0  0  0  0  0  0  0  0  0  0  0  0
    2.3597   -0.2214   -0.3096 O   0  0  0  0  0  0  0  0  0  0  0  0
    0.9317   -1.9516    0.1458 O   0  0  0  0  0  0  0  0  0  0  0  0
   -0.0021    2.3013    0.9027 H   0  0  0  0  0  0  0  0  0  0  0  0
    0.5046    1.9196   -0.6969 H   0  0  0  0  0  0  0  0  0  0  0  0
   -0.2757    0.0502    1.4688 H   0  0  0  0  0  0  0  0  0  0  0  0
   -0.8968    0.3143   -1.5142 H   0  0  0  0  0  0  0  0  0  0  0  0
   -1.9282    0.8164   -0.1495 H   0  0  0  0  0  0  0  0  0  0  0  0
   -2.1605   -2.0436    1.1298 H   0  0  0  0  0  0  0  0  0  0  0  0
    2.8626   -0.7705   -1.0161 H   0  0  0  0  0  0  0  0  0  0  0  0
  1  2  1  0
  2  3  1  0
  3  4  1  0
  2  5  1  0
  5  6  1  0
  5  7  2  0
  1  8  1  0
  1  9  1  0
  2 10  1  1
  3 11  1  0
  3 12  1  0
  4 13  1  0
  6 14  1  0
M  END
$$$$
