
     RDKit          3D

 53 57  0  0  0  0  0  0  0  0999 V2000
   -6.8240    1.6019   -1.2482 N   0  0  0  0  0  0  0  0  0  0  0  0
   -6.5133    1.6483    0.1580 C   0  0  0  0  0  0  0  0  0  0  0  0
   -5.3772    0.7474    0.5600 C   0  0  0  0  0  0  0  0  0  0  0  0
   -4.1183    1.1338   -0.1786 C   0  0  0  0  0  0  0  0  0  0  0  0
   -2.9509    0.3019    0.2837 C   0  0  0  0  0  0  0  0  0  0  0  0
   -3.2727   -0.9732    0.7629 N   0  0  0  0  0  0  0  0  0  0  0  0
   -2.4029   -1.5587    1.7089 C   0  0  0  0  0  0  0  0  0  0  0  0
   -1.0471   -1.6943    1.1108 C   0  0  0  0  0  0  0  0  0  0  0  0
   -0.0584   -0.7351    1.1820 C   0  0  0  0  0  0  0  0  0  0  0  0
    1.1751   -0.9325    0.6023 C   0  0  0  0  0  0  0  0  0  0  0  0
    1.4896   -2.0892   -0.0761 C   0  0  0  0  0  0  0  0  0  0  0  0
    2.7488   -1.9523   -0.5056 N   0  0  0  0  0  0  0  0  0  0  0  0
    3.3099   -0.7707   -0.1595 C   0  0  0  0  0  0  0  0  0  0  0  0
    2.3072   -0.1624    0.5265 C   0  0  0  0  0  0  0  0  0  0  0  0
    4.6697   -0.4503   -0.5406 C   0  0  0  0  0  0  0  0  0  0  0  0
    5.4767   -1.2621   -1.2473 N   0  0  0  0  0  0  0  0  0  0  0  0
    6.6515   -0.7416   -1.4596 N   0  0  0  0  0  0  0  0  0  0  0  0
    6.7091    0.4791   -0.8968 C   0  0  0  0  0  0  0  0  0  0  0  0
    5.4572    0.6280   -0.3331 C   0  0  0  0  0  0  0  0  0  0  0  0
    5.2430    1.8162    0.3210 C   0  0  0  0  0  0  0  0  0  0  0  0
    6.1695    2.8090    0.4328 C   0  0  0  0  0  0  0  0  0  0  0  0
    7.4147    2.6227   -0.1462 C   0  0  0  0  0  0  0  0  0  0  0  0
    7.6924    1.4437   -0.8208 C   0  0  0  0  0  0  0  0  0  0  0  0
    8.4488    3.6162   -0.0763 C   0  0  0  0  0  0  0  0  0  0  0  0
    9.2894    4.3994   -0.0231 N   0  0  0  0  0  0  0  0  0  0  0  0
    0.4979   -3.0475   -0.1458 C   0  0  0  0  0  0  0  0  0  0  0  0
   -0.7374   -2.8531    0.4332 C   0  0  0  0  0  0  0  0  0  0  0  0
   -4.5063   -1.5639    0.4920 C   0  0  0  0  0  0  0  0  0  0  0  0
   -5.6851   -0.6841    0.2786 C   0  0  0  0  0  0  0  0  0  0  0  0
   -7.3924    0.7338   -1.4278 H   0  0  0  0  0  0  0  0  0  0  0  0
   -6.0255    1.7030   -1.8835 H   0  0  0  0  0  0  0  0  0  0  0  0
   -7.4294    1.2942    0.7023 H   0  0  0  0  0  0  0  0  0  0  0  0
   -6.2646    2.6697    0.5091 H   0  0  0  0  0  0  0  0  0  0  0  0
   -5.1960    0.8794    1.6262 H   0  0  0  0  0  0  0  0  0  0  0  0
   -3.9674    2.2241   -0.0165 H   0  0  0  0  0  0  0  0  0  0  0  0
   -4.2011    0.9956   -1.2790 H   0  0  0  0  0  0  0  0  0  0  0  0
   -2.4789    0.8996    1.1186 H   0  0  0  0  0  0  0  0  0  0  0  0
   -2.1577    0.2157   -0.4916 H   0  0  0  0  0  0  0  0  0  0  0  0
   -2.3271   -0.8731    2.5840 H   0  0  0  0  0  0  0  0  0  0  0  0
   -2.7938   -2.5402    2.0339 H   0  0  0  0  0  0  0  0  0  0  0  0
   -0.2678    0.1684    1.6977 H   0  0  0  0  0  0  0  0  0  0  0  0
    3.1458   -2.7608   -1.0495 H   0  0  0  0  0  0  0  0  0  0  0  0
    2.3684    0.8023    0.9651 H   0  0  0  0  0  0  0  0  0  0  0  0
    7.3927   -1.2445   -1.9922 H   0  0  0  0  0  0  0  0  0  0  0  0
    4.2946    1.9956    0.7800 H   0  0  0  0  0  0  0  0  0  0  0  0
    5.9741    3.7343    0.9534 H   0  0  0  0  0  0  0  0  0  0  0  0
    8.6306    1.2195   -1.2973 H   0  0  0  0  0  0  0  0  0  0  0  0
    0.7251   -3.9584   -0.6720 H   0  0  0  0  0  0  0  0  0  0  0  0
   -1.4747   -3.6269    0.3521 H   0  0  0  0  0  0  0  0  0  0  0  0
   -4.3953   -2.2026   -0.4327 H   0  0  0  0  0  0  0  0  0  0  0  0
   -4.7359   -2.3183    1.2945 H   0  0  0  0  0  0  0  0  0  0  0  0
   -6.5162   -0.9641    0.9899 H   0  0  0  0  0  0  0  0  0  0  0  0
   -6.1644   -0.8229   -0.7346 H   0  0  0  0  0  0  0  0  0  0  0  0
  1  2  1  0
  2  3  1  0
  3  4  1  0
  4  5  1  0
  5  6  1  0
  6  7  1  0
  7  8  1  0
  8  9  2  0
  9 10  1  0
 10 11  2  0
 11 12  1  0
 12 13  1  0
 13 14  2  0
 13 15  1  0
 15 16  2  0
 16 17  1  0
 17 18  1  0
 18 19  2  0
 19 20  1  0
 20 21  2  0
 21 22  1  0
 22 23  2  0
 22 24  1  0
 24 25  3  0
 11 26  1  0
 26 27  2  0
  6 28  1  0
 28 29  1  0
 29  3  1  0
 27  8  1  0
 14 10  1  0
 19 15  1  0
 23 18  1  0
  1 30  1  0
  1 31  1  0
  2 32  1  0
  2 33  1  0
  3 34  1  0
  4 35  1  0
  4 36  1  0
  5 37  1  0
  5 38  1  0
  7 39  1  0
  7 40  1  0
  9 41  1  0
 12 42  1  0
 14 43  1  0
 17 44  1  0
 20 45  1  0
 21 46  1  0
 23 47  1  0
 26 48  1  0
 27 49  1  0
 28 50  1  0
 28 51  1  0
 29 52  1  0
 29 53  1  0
M  END
$$$$
