
     RDKit          3D

 55 59  0  0  0  0  0  0  0  0999 V2000
    6.0582    2.5231    0.5034 C   0  0  0  0  0  0  0  0  0  0  0  0
    4.8655    1.8904   -0.0165 N   0  0  0  0  0  0  0  0  0  0  0  0
    4.9862    1.8221   -1.4536 C   0  0  0  0  0  0  0  0  0  0  0  0
    4.7630    0.5943    0.5575 C   0  0  0  0  0  0  0  0  0  0  0  0
    3.5797   -0.2247    0.0648 C   0  0  0  0  0  0  0  0  0  0  0  0
    2.3273    0.4879    0.3808 C   0  0  0  0  0  0  0  0  0  0  0  0
    1.1236   -0.1792   -0.0366 N   0  0  0  0  0  0  0  0  0  0  0  0
    0.4490   -0.0656   -1.1880 C   0  0  0  0  0  0  0  0  0  0  0  0
   -0.6590   -0.8764   -1.1699 C   0  0  0  0  0  0  0  0  0  0  0  0
   -1.6779   -1.0925   -2.2075 C   0  0  0  0  0  0  0  0  0  0  0  0
   -3.0047   -0.9956   -2.0719 C   0  0  0  0  0  0  0  0  0  0  0  0
   -3.7538   -0.6487   -0.8737 C   0  0  0  0  0  0  0  0  0  0  0  0
   -4.8079   -1.3443   -0.3211 C   0  0  0  0  0  0  0  0  0  0  0  0
   -5.2570   -0.7009    0.7747 N   0  0  0  0  0  0  0  0  0  0  0  0
   -4.5123    0.4166    0.9569 C   0  0  0  0  0  0  0  0  0  0  0  0
   -4.5730    1.3996    1.9084 C   0  0  0  0  0  0  0  0  0  0  0  0
   -3.7086    2.4548    1.8770 C   0  0  0  0  0  0  0  0  0  0  0  0
   -2.7758    2.5061    0.8659 C   0  0  0  0  0  0  0  0  0  0  0  0
   -2.7082    1.5204   -0.0945 C   0  0  0  0  0  0  0  0  0  0  0  0
   -3.5673    0.4546   -0.0767 C   0  0  0  0  0  0  0  0  0  0  0  0
   -3.6075   -1.3049   -3.3862 C   0  0  0  0  0  0  0  0  0  0  0  0
   -4.8365   -1.3146   -3.6486 O   0  0  0  0  0  0  0  0  0  0  0  0
   -2.5875   -1.5930   -4.3223 N   0  0  0  0  0  0  0  0  0  0  0  0
   -1.3746   -1.4638   -3.5978 C   0  0  0  0  0  0  0  0  0  0  0  0
   -0.2243   -1.6477   -4.1065 O   0  0  0  0  0  0  0  0  0  0  0  0
   -0.6833   -1.5311    0.0454 C   0  0  0  0  0  0  0  0  0  0  0  0
   -1.5001   -2.4617    0.6541 C   0  0  0  0  0  0  0  0  0  0  0  0
   -1.2272   -2.9500    1.9331 C   0  0  0  0  0  0  0  0  0  0  0  0
   -0.1127   -2.4871    2.5961 C   0  0  0  0  0  0  0  0  0  0  0  0
    0.6992   -1.5548    1.9738 C   0  0  0  0  0  0  0  0  0  0  0  0
    0.4482   -1.0659    0.7234 C   0  0  0  0  0  0  0  0  0  0  0  0
    6.9220    1.7944    0.5102 H   0  0  0  0  0  0  0  0  0  0  0  0
    5.9539    2.8494    1.5597 H   0  0  0  0  0  0  0  0  0  0  0  0
    6.3793    3.3858   -0.1212 H   0  0  0  0  0  0  0  0  0  0  0  0
    4.0992    1.3400   -1.9179 H   0  0  0  0  0  0  0  0  0  0  0  0
    5.0451    2.9010   -1.7905 H   0  0  0  0  0  0  0  0  0  0  0  0
    5.9254    1.3520   -1.8073 H   0  0  0  0  0  0  0  0  0  0  0  0
    4.6387    0.7175    1.6593 H   0  0  0  0  0  0  0  0  0  0  0  0
    5.7255    0.0530    0.3559 H   0  0  0  0  0  0  0  0  0  0  0  0
    3.7509   -0.4573   -0.9897 H   0  0  0  0  0  0  0  0  0  0  0  0
    3.6104   -1.1452    0.7269 H   0  0  0  0  0  0  0  0  0  0  0  0
    2.3523    1.4815   -0.1381 H   0  0  0  0  0  0  0  0  0  0  0  0
    2.3220    0.7303    1.4737 H   0  0  0  0  0  0  0  0  0  0  0  0
    0.7269    0.5675   -2.0163 H   0  0  0  0  0  0  0  0  0  0  0  0
   -5.2136   -2.2776   -0.7178 H   0  0  0  0  0  0  0  0  0  0  0  0
   -6.0452   -0.9621    1.4261 H   0  0  0  0  0  0  0  0  0  0  0  0
   -5.3053    1.3455    2.6877 H   0  0  0  0  0  0  0  0  0  0  0  0
   -3.7190    3.2658    2.6173 H   0  0  0  0  0  0  0  0  0  0  0  0
   -2.0646    3.3371    0.8063 H   0  0  0  0  0  0  0  0  0  0  0  0
   -1.9823    1.5644   -0.9073 H   0  0  0  0  0  0  0  0  0  0  0  0
   -2.7493   -1.8463   -5.3319 H   0  0  0  0  0  0  0  0  0  0  0  0
   -2.3783   -2.8557    0.1506 H   0  0  0  0  0  0  0  0  0  0  0  0
   -1.8408   -3.6693    2.4341 H   0  0  0  0  0  0  0  0  0  0  0  0
    0.1359   -2.8400    3.5951 H   0  0  0  0  0  0  0  0  0  0  0  0
    1.5699   -1.1989    2.5014 H   0  0  0  0  0  0  0  0  0  0  0  0
  1  2  1  0
  2  3  1  0
  2  4  1  0
  4  5  1  0
  5  6  1  0
  6  7  1  0
  7  8  1  0
  8  9  2  0
  9 10  1  0
 10 11  2  0
 11 12  1  0
 12 13  2  0
 13 14  1  0
 14 15  1  0
 15 16  2  0
 16 17  1  0
 17 18  2  0
 18 19  1  0
 19 20  2  0
 11 21  1  0
 21 22  2  0
 21 23  1  0
 23 24  1  0
 24 25  2  0
  9 26  1  0
 26 27  2  0
 27 28  1  0
 28 29  2  0
 29 30  1  0
 30 31  2  0
 31  7  1  0
 24 10  1  0
 31 26  1  0
 20 12  1  0
 20 15  1  0
  1 32  1  0
  1 33  1  0
  1 34  1  0
  3 35  1  0
  3 36  1  0
  3 37  1  0
  4 38  1  0
  4 39  1  0
  5 40  1  0
  5 41  1  0
  6 42  1  0
  6 43  1  0
  8 44  1  0
 13 45  1  0
 14 46  1  0
 16 47  1  0
 17 48  1  0
 18 49  1  0
 19 50  1  0
 23 51  1  0
 27 52  1  0
 28 53  1  0
 29 54  1  0
 30 55  1  0
M  END
$$$$
