
     RDKit          3D

 53 56  0  0  0  0  0  0  0  0999 V2000
    1.7015   -1.8014    2.2745 O   0  0  0  0  0  0  0  0  0  0  0  0
    2.3029   -0.7245    2.0455 C   0  0  0  0  0  0  0  0  0  0  0  0
    3.7117   -0.6934    2.0894 N   0  0  0  0  0  0  0  0  0  0  0  0
    4.5031   -1.8804    2.3946 C   0  0  0  0  0  0  0  0  0  0  0  0
    4.2854   -2.9900    1.4125 C   0  0  0  0  0  0  0  0  0  0  0  0
    4.6474   -2.6072    0.0279 C   0  0  0  0  0  0  0  0  0  0  0  0
    3.7430   -2.0538   -0.8541 C   0  0  0  0  0  0  0  0  0  0  0  0
    4.1350   -1.7130   -2.1341 C   0  0  0  0  0  0  0  0  0  0  0  0
    5.3985   -1.9058   -2.5638 N   0  0  0  0  0  0  0  0  0  0  0  0
    6.3074   -2.4409   -1.7379 C   0  0  0  0  0  0  0  0  0  0  0  0
    5.9366   -2.7899   -0.4507 C   0  0  0  0  0  0  0  0  0  0  0  0
    1.5548    0.4802    1.7379 C   0  0  0  0  0  0  0  0  0  0  0  0
    2.1424    1.6889    1.4673 C   0  0  0  0  0  0  0  0  0  0  0  0
    1.4123    2.8463    1.1727 C   0  0  0  0  0  0  0  0  0  0  0  0
    0.0584    2.7571    1.1568 C   0  0  0  0  0  0  0  0  0  0  0  0
   -0.5818    1.5462    1.4266 C   0  0  0  0  0  0  0  0  0  0  0  0
   -2.3222    1.5546    1.3780 S   0  0  0  0  0  6  0  0  0  0  0  0
   -2.7974    2.9015    1.8383 O   0  0  0  0  0  0  0  0  0  0  0  0
   -2.8667    0.5450    2.3503 O   0  0  0  0  0  0  0  0  0  0  0  0
   -2.9556    1.1973   -0.1721 N   0  0  0  0  0  0  0  0  0  0  0  0
   -2.5615    2.1525   -1.1629 C   0  0  0  0  0  0  0  0  0  0  0  0
   -3.1875    1.8904   -2.4824 C   0  0  0  0  0  0  0  0  0  0  0  0
   -4.3407    0.9663   -2.4705 C   0  0  0  0  0  0  0  0  0  0  0  0
   -4.8284    0.3743   -3.6122 C   0  0  0  0  0  0  0  0  0  0  0  0
   -5.9093   -0.4819   -3.5682 C   0  0  0  0  0  0  0  0  0  0  0  0
   -6.5455   -0.7797   -2.3770 C   0  0  0  0  0  0  0  0  0  0  0  0
   -6.0417   -0.1765   -1.2445 C   0  0  0  0  0  0  0  0  0  0  0  0
   -4.9575    0.6842   -1.2778 C   0  0  0  0  0  0  0  0  0  0  0  0
   -4.4195    1.3264   -0.0525 C   0  0  0  0  0  0  0  0  0  0  0  0
    0.1563    0.4455    1.7079 C   0  0  0  0  0  0  0  0  0  0  0  0
    4.2656    0.1707    1.9081 H   0  0  0  0  0  0  0  0  0  0  0  0
    5.5862   -1.6593    2.4483 H   0  0  0  0  0  0  0  0  0  0  0  0
    4.1861   -2.2201    3.4085 H   0  0  0  0  0  0  0  0  0  0  0  0
    3.2406   -3.3768    1.4352 H   0  0  0  0  0  0  0  0  0  0  0  0
    4.9293   -3.8316    1.7161 H   0  0  0  0  0  0  0  0  0  0  0  0
    2.7171   -1.8759   -0.5709 H   0  0  0  0  0  0  0  0  0  0  0  0
    3.4426   -1.2779   -2.8413 H   0  0  0  0  0  0  0  0  0  0  0  0
    7.3285   -2.5919   -2.0989 H   0  0  0  0  0  0  0  0  0  0  0  0
    6.6654   -3.2176    0.2072 H   0  0  0  0  0  0  0  0  0  0  0  0
    3.2073    1.7858    1.4733 H   0  0  0  0  0  0  0  0  0  0  0  0
    1.9233    3.7751    0.9664 H   0  0  0  0  0  0  0  0  0  0  0  0
   -0.5188    3.6566    0.9276 H   0  0  0  0  0  0  0  0  0  0  0  0
   -1.4535    2.2138   -1.2622 H   0  0  0  0  0  0  0  0  0  0  0  0
   -2.8945    3.1755   -0.8305 H   0  0  0  0  0  0  0  0  0  0  0  0
   -2.3974    1.4995   -3.1851 H   0  0  0  0  0  0  0  0  0  0  0  0
   -3.5736    2.8361   -2.9695 H   0  0  0  0  0  0  0  0  0  0  0  0
   -4.3748    0.5679   -4.5665 H   0  0  0  0  0  0  0  0  0  0  0  0
   -6.2833   -0.9406   -4.4709 H   0  0  0  0  0  0  0  0  0  0  0  0
   -7.3947   -1.4452   -2.3023 H   0  0  0  0  0  0  0  0  0  0  0  0
   -6.4987   -0.3714   -0.2838 H   0  0  0  0  0  0  0  0  0  0  0  0
   -4.7928    0.8716    0.8728 H   0  0  0  0  0  0  0  0  0  0  0  0
   -4.6408    2.4301   -0.1130 H   0  0  0  0  0  0  0  0  0  0  0  0
   -0.3505   -0.4926    1.9165 H   0  0  0  0  0  0  0  0  0  0  0  0
  1  2  2  0
  2  3  1  0
  3  4  1  0
  4  5  1  0
  5  6  1  0
  6  7  2  0
  7  8  1  0
  8  9  2  0
  9 10  1  0
 10 11  2  0
  2 12  1  0
 12 13  2  0
 13 14  1  0
 14 15  2  0
 15 16  1  0
 16 17  1  0
 17 18  2  0
 17 19  2  0
 17 20  1  0
 20 21  1  0
 21 22  1  0
 22 23  1  0
 23 24  2  0
 24 25  1  0
 25 26  2  0
 26 27  1  0
 27 28  2  0
 28 29  1  0
 16 30  2  0
 11  6  1  0
 30 12  1  0
 29 20  1  0
 28 23  1  0
  3 31  1  0
  4 32  1  0
  4 33  1  0
  5 34  1  0
  5 35  1  0
  7 36  1  0
  8 37  1  0
 10 38  1  0
 11 39  1  0
 13 40  1  0
 14 41  1  0
 15 42  1  0
 21 43  1  0
 21 44  1  0
 22 45  1  0
 22 46  1  0
 24 47  1  0
 25 48  1  0
 26 49  1  0
 27 50  1  0
 29 51  1  0
 29 52  1  0
 30 53  1  0
M  END
$$$$
