
     RDKit          3D

 49 51  0  0  0  0  0  0  0  0999 V2000
   -3.8543   -1.6466    0.7805 C   0  0  2  0  0  0  0  0  0  0  0  0
   -5.1861   -1.4406    0.1432 C   0  0  0  0  0  0  0  0  0  0  0  0
   -3.9856   -2.0239    2.2619 C   0  0  0  0  0  0  0  0  0  0  0  0
   -2.6468   -2.6222    2.6172 C   0  0  0  0  0  0  0  0  0  0  0  0
   -1.6134   -1.8850    1.8251 C   0  0  0  0  0  0  0  0  0  0  0  0
   -1.5578   -0.8870    0.9509 C   0  0  0  0  0  0  0  0  0  0  0  0
   -2.9570   -0.4357    0.7638 C   0  0  0  0  0  0  0  0  0  0  0  0
   -0.2960   -0.5898    0.5076 C   0  0  0  0  0  0  0  0  0  0  0  0
   -0.3286    0.5017   -0.4298 C   0  0  0  0  0  0  0  0  0  0  0  0
    0.8240    0.7341   -0.8550 O   0  0  0  0  0  0  0  0  0  0  0  0
    0.0114    1.4927   -1.3539 N   0  0  0  0  0  0  0  0  0  0  0  0
    1.3066    1.8238   -1.9126 C   0  0  0  0  0  0  0  0  0  0  0  0
    2.0106    2.8369   -1.0298 C   0  0  0  0  0  0  0  0  0  0  0  0
   -1.1129    2.3317   -1.8310 C   0  0  0  0  0  0  0  0  0  0  0  0
   -1.3164    3.5360   -0.9781 C   0  0  0  0  0  0  0  0  0  0  0  0
    0.8225   -1.2561    0.9209 C   0  0  0  0  0  0  0  0  0  0  0  0
    2.1659   -1.0817    0.5693 N   0  0  0  0  0  0  0  0  0  0  0  0
    2.9561   -1.6716   -0.4440 C   0  0  0  0  0  0  0  0  0  0  0  0
    2.6578   -2.5404   -1.3271 O   0  0  0  0  0  0  0  0  0  0  0  0
    4.3262   -1.2472   -0.5252 C   0  0  0  0  0  0  0  0  0  0  0  0
    5.0498   -0.3324    0.2191 C   0  0  0  0  0  0  0  0  0  0  0  0
    6.3708   -0.0708   -0.0395 C   0  0  0  0  0  0  0  0  0  0  0  0
    6.9264   -0.8061   -1.1179 C   0  0  0  0  0  0  0  0  0  0  0  0
    5.5064   -1.8390   -1.7026 S   0  0  0  0  0  0  0  0  0  0  0  0
    0.0326   -2.4479    2.0715 S   0  0  0  0  0  0  0  0  0  0  0  0
   -3.3024   -2.4830    0.2610 H   0  0  0  0  0  0  0  0  0  0  0  0
   -5.3015   -0.4460   -0.3020 H   0  0  0  0  0  0  0  0  0  0  0  0
   -5.9558   -1.5444    0.9473 H   0  0  0  0  0  0  0  0  0  0  0  0
   -5.3843   -2.2760   -0.5608 H   0  0  0  0  0  0  0  0  0  0  0  0
   -4.1149   -1.0852    2.8334 H   0  0  0  0  0  0  0  0  0  0  0  0
   -4.8289   -2.7175    2.4396 H   0  0  0  0  0  0  0  0  0  0  0  0
   -2.6459   -3.7144    2.4180 H   0  0  0  0  0  0  0  0  0  0  0  0
   -2.5178   -2.4387    3.7085 H   0  0  0  0  0  0  0  0  0  0  0  0
   -3.1587    0.0702   -0.1977 H   0  0  0  0  0  0  0  0  0  0  0  0
   -3.2641    0.2516    1.5753 H   0  0  0  0  0  0  0  0  0  0  0  0
    1.9281    0.9787   -2.2175 H   0  0  0  0  0  0  0  0  0  0  0  0
    1.1243    2.3866   -2.8811 H   0  0  0  0  0  0  0  0  0  0  0  0
    2.6467    2.2604   -0.3079 H   0  0  0  0  0  0  0  0  0  0  0  0
    1.2459    3.3897   -0.4404 H   0  0  0  0  0  0  0  0  0  0  0  0
    2.6090    3.5184   -1.6498 H   0  0  0  0  0  0  0  0  0  0  0  0
   -0.9689    2.5520   -2.9139 H   0  0  0  0  0  0  0  0  0  0  0  0
   -2.0101    1.6939   -1.7821 H   0  0  0  0  0  0  0  0  0  0  0  0
   -0.7289    4.3760   -1.3691 H   0  0  0  0  0  0  0  0  0  0  0  0
   -2.4135    3.7981   -1.0282 H   0  0  0  0  0  0  0  0  0  0  0  0
   -1.0882    3.2737    0.0632 H   0  0  0  0  0  0  0  0  0  0  0  0
    2.5667   -0.3782    1.2225 H   0  0  0  0  0  0  0  0  0  0  0  0
    4.5151    0.1628    1.0151 H   0  0  0  0  0  0  0  0  0  0  0  0
    6.9616    0.6372    0.5193 H   0  0  0  0  0  0  0  0  0  0  0  0
    7.9743   -0.6987   -1.4370 H   0  0  0  0  0  0  0  0  0  0  0  0
  1  2  1  0
  1  3  1  0
  3  4  1  0
  4  5  1  0
  5  6  2  0
  6  7  1  0
  6  8  1  0
  8  9  1  0
  9 10  2  0
  9 11  1  0
 11 12  1  0
 12 13  1  0
 11 14  1  0
 14 15  1  0
  8 16  2  0
 16 17  1  0
 17 18  1  0
 18 19  2  0
 18 20  1  0
 20 21  2  0
 21 22  1  0
 22 23  2  0
 23 24  1  0
 16 25  1  0
  7  1  1  0
 24 20  1  0
 25  5  1  0
  1 26  1  6
  2 27  1  0
  2 28  1  0
  2 29  1  0
  3 30  1  0
  3 31  1  0
  4 32  1  0
  4 33  1  0
  7 34  1  0
  7 35  1  0
 12 36  1  0
 12 37  1  0
 13 38  1  0
 13 39  1  0
 13 40  1  0
 14 41  1  0
 14 42  1  0
 15 43  1  0
 15 44  1  0
 15 45  1  0
 17 46  1  0
 21 47  1  0
 22 48  1  0
 23 49  1  0
M  END
$$$$
