
     RDKit          3D

 36 37  0  0  0  0  0  0  0  0999 V2000
   -2.1830    2.2103    0.9242 N   0  0  0  0  0  0  0  0  0  0  0  0
   -2.9594    1.1972    0.3214 C   0  0  0  0  0  0  0  0  0  0  0  0
   -4.2573    1.4663   -0.0163 C   0  0  0  0  0  0  0  0  0  0  0  0
   -5.0468    3.1648    0.3019 Br  0  0  0  0  0  0  0  0  0  0  0  0
   -5.0412    0.4991   -0.6051 C   0  0  0  0  0  0  0  0  0  0  0  0
   -4.4761   -0.7343   -0.8382 C   0  0  0  0  0  0  0  0  0  0  0  0
   -5.4139   -2.1924   -1.6459 Br  0  0  0  0  0  0  0  0  0  0  0  0
   -3.1673   -1.0037   -0.4971 C   0  0  0  0  0  0  0  0  0  0  0  0
   -2.3587   -0.0368    0.0997 C   0  0  0  0  0  0  0  0  0  0  0  0
   -0.9510   -0.3611    0.4551 C   0  0  0  0  0  0  0  0  0  0  0  0
   -0.0756    0.2170   -0.4656 N   0  0  0  0  0  0  0  0  0  0  0  0
    1.3129    0.0222   -0.3129 C   0  0  1  0  0  0  0  0  0  0  0  0
    1.8892    0.5054    0.9626 C   0  0  0  0  0  0  0  0  0  0  0  0
    3.3880    0.6080    0.7625 C   0  0  0  0  0  0  0  0  0  0  0  0
    3.9439   -0.5924    0.0502 C   0  0  2  0  0  0  0  0  0  0  0  0
    4.1653   -0.3310   -1.3047 O   0  0  0  0  0  0  0  0  0  0  0  0
    3.0100   -1.7585    0.1237 C   0  0  0  0  0  0  0  0  0  0  0  0
    1.6944   -1.4276   -0.5146 C   0  0  0  0  0  0  0  0  0  0  0  0
   -1.3237    2.4296    0.3581 H   0  0  0  0  0  0  0  0  0  0  0  0
   -2.1523    2.8388    1.7511 H   0  0  0  0  0  0  0  0  0  0  0  0
   -6.0737    0.6344   -0.8995 H   0  0  0  0  0  0  0  0  0  0  0  0
   -2.6951   -1.9671   -0.6695 H   0  0  0  0  0  0  0  0  0  0  0  0
   -0.8121    0.0056    1.4898 H   0  0  0  0  0  0  0  0  0  0  0  0
   -0.8743   -1.4623    0.5112 H   0  0  0  0  0  0  0  0  0  0  0  0
   -0.3975    0.4981   -1.3895 H   0  0  0  0  0  0  0  0  0  0  0  0
    1.8207    0.6046   -1.1356 H   0  0  0  0  0  0  0  0  0  0  0  0
    1.5467    1.5431    1.2009 H   0  0  0  0  0  0  0  0  0  0  0  0
    1.6745   -0.1316    1.8346 H   0  0  0  0  0  0  0  0  0  0  0  0
    3.9197    0.8317    1.7074 H   0  0  0  0  0  0  0  0  0  0  0  0
    3.5508    1.5149    0.1218 H   0  0  0  0  0  0  0  0  0  0  0  0
    4.9372   -0.8784    0.4766 H   0  0  0  0  0  0  0  0  0  0  0  0
    4.3305    0.6575   -1.3507 H   0  0  0  0  0  0  0  0  0  0  0  0
    3.4599   -2.6078   -0.4499 H   0  0  0  0  0  0  0  0  0  0  0  0
    2.8882   -2.1702    1.1607 H   0  0  0  0  0  0  0  0  0  0  0  0
    0.9442   -2.1284   -0.1229 H   0  0  0  0  0  0  0  0  0  0  0  0
    1.7830   -1.6648   -1.6087 H   0  0  0  0  0  0  0  0  0  0  0  0
  1  2  1  0
  2  3  2  0
  3  4  1  0
  3  5  1  0
  5  6  2  0
  6  7  1  0
  6  8  1  0
  8  9  2  0
  9 10  1  0
 10 11  1  0
 11 12  1  0
 12 13  1  0
 13 14  1  0
 14 15  1  0
 15 16  1  0
 15 17  1  0
 17 18  1  0
  9  2  1  0
 18 12  1  0
  1 19  1  0
  1 20  1  0
  5 21  1  0
  8 22  1  0
 10 23  1  0
 10 24  1  0
 11 25  1  0
 12 26  1  6
 13 27  1  0
 13 28  1  0
 14 29  1  0
 14 30  1  0
 15 31  1  1
 16 32  1  0
 17 33  1  0
 17 34  1  0
 18 35  1  0
 18 36  1  0
M  END
$$$$
