
     RDKit          3D

 66 71  0  0  0  0  0  0  0  0999 V2000
    2.2336   -1.3729    0.0523 C   0  0  0  0  0  0  0  0  0  0  0  0
    1.8421   -1.1081    1.4460 C   0  0  0  0  0  0  0  0  0  0  0  0
    2.6931   -1.1305    2.5502 C   0  0  0  0  0  0  0  0  0  0  0  0
    4.0894   -1.4311    2.4716 N   0  0  0  0  0  0  0  0  0  0  0  0
    5.0641   -0.3859    2.2634 C   0  0  0  0  0  0  0  0  0  0  0  0
    4.5742    0.7695    2.1634 O   0  0  0  0  0  0  0  0  0  0  0  0
    6.4113   -0.6728    2.1866 O   0  0  0  0  0  0  0  0  0  0  0  0
    7.3481    0.3449    1.9779 C   0  0  0  0  0  0  0  0  0  0  0  0
    7.1106    1.0006    0.6579 C   0  0  2  0  0  0  0  0  0  0  0  0
    7.2074   -0.0743   -0.4115 C   0  0  0  0  0  0  0  0  0  0  0  0
    8.5147   -0.0972   -0.8735 O   0  0  0  0  0  0  0  0  0  0  0  0
    8.6759    1.0030   -1.7328 C   0  0  0  0  0  0  0  0  0  0  0  0
    8.0901    2.2137   -1.0732 C   0  0  0  0  0  0  0  0  0  0  0  0
    8.0679    2.0632    0.3878 N   0  0  0  0  0  0  0  0  0  0  0  0
    1.9506   -0.8271    3.6444 C   0  0  0  0  0  0  0  0  0  0  0  0
    0.6659   -0.6130    3.2857 N   0  0  0  0  0  0  0  0  0  0  0  0
   -0.3946   -0.2918    4.0253 N   0  0  0  0  0  0  0  0  0  0  0  0
   -1.5739   -0.1328    3.4159 C   0  0  0  0  0  0  0  0  0  0  0  0
   -1.7166   -0.2844    2.1089 N   0  0  0  0  0  0  0  0  0  0  0  0
   -0.6538   -0.6114    1.3325 C   0  0  0  0  0  0  0  0  0  0  0  0
   -0.8241   -0.7719   -0.0645 N   0  0  0  0  0  0  0  0  0  0  0  0
   -2.0661   -0.4480   -0.6591 C   0  0  0  0  0  0  0  0  0  0  0  0
   -2.8795    0.5421   -0.1827 C   0  0  0  0  0  0  0  0  0  0  0  0
   -4.1112    0.8172   -0.7854 C   0  0  0  0  0  0  0  0  0  0  0  0
   -4.4729    0.0582   -1.8717 C   0  0  0  0  0  0  0  0  0  0  0  0
   -3.6729   -0.9480   -2.3766 C   0  0  0  0  0  0  0  0  0  0  0  0
   -4.3419   -1.4818   -3.4460 C   0  0  0  0  0  0  0  0  0  0  0  0
   -5.4849   -0.8221   -3.5681 N   0  0  0  0  0  0  0  0  0  0  0  0
   -5.5866    0.1188   -2.6219 N   0  0  0  0  0  0  0  0  0  0  0  0
   -6.7309    0.9756   -2.5212 C   0  0  0  0  0  0  0  0  0  0  0  0
   -7.8151    0.4765   -1.7000 C   0  0  0  0  0  0  0  0  0  0  0  0
   -8.8439   -0.3285   -2.1827 C   0  0  0  0  0  0  0  0  0  0  0  0
   -9.8592   -0.7808   -1.3654 C   0  0  0  0  0  0  0  0  0  0  0  0
   -9.8796   -0.4424   -0.0349 C   0  0  0  0  0  0  0  0  0  0  0  0
   -8.8739    0.3533    0.4709 C   0  0  0  0  0  0  0  0  0  0  0  0
   -8.8994    0.6848    1.7885 F   0  0  0  0  0  0  0  0  0  0  0  0
   -7.8724    0.7926   -0.3610 C   0  0  0  0  0  0  0  0  0  0  0  0
   -2.4618   -1.1984   -1.7616 C   0  0  0  0  0  0  0  0  0  0  0  0
    0.5987   -0.7862    1.9328 C   0  0  0  0  0  0  0  0  0  0  0  0
    2.0664   -0.4983   -0.6006 H   0  0  0  0  0  0  0  0  0  0  0  0
    3.3733   -1.4934    0.0258 H   0  0  0  0  0  0  0  0  0  0  0  0
    1.8233   -2.2689   -0.4039 H   0  0  0  0  0  0  0  0  0  0  0  0
    4.4641   -2.4024    2.5590 H   0  0  0  0  0  0  0  0  0  0  0  0
    8.3855   -0.0753    2.0583 H   0  0  0  0  0  0  0  0  0  0  0  0
    7.2151    1.0697    2.8356 H   0  0  0  0  0  0  0  0  0  0  0  0
    6.1075    1.4525    0.6443 H   0  0  0  0  0  0  0  0  0  0  0  0
    6.4804    0.1924   -1.2119 H   0  0  0  0  0  0  0  0  0  0  0  0
    6.9038   -1.0688   -0.0308 H   0  0  0  0  0  0  0  0  0  0  0  0
    8.1671    0.7276   -2.6745 H   0  0  0  0  0  0  0  0  0  0  0  0
    9.7701    1.1174   -1.8822 H   0  0  0  0  0  0  0  0  0  0  0  0
    7.0069    2.2748   -1.3711 H   0  0  0  0  0  0  0  0  0  0  0  0
    8.6399    3.1283   -1.3730 H   0  0  0  0  0  0  0  0  0  0  0  0
    7.6681    2.9513    0.7613 H   0  0  0  0  0  0  0  0  0  0  0  0
    2.2919   -0.7562    4.6638 H   0  0  0  0  0  0  0  0  0  0  0  0
   -2.4392    0.1344    4.0511 H   0  0  0  0  0  0  0  0  0  0  0  0
   -0.0843   -1.1238   -0.6752 H   0  0  0  0  0  0  0  0  0  0  0  0
   -2.6401    1.1833    0.6601 H   0  0  0  0  0  0  0  0  0  0  0  0
   -4.7841    1.5855   -0.4477 H   0  0  0  0  0  0  0  0  0  0  0  0
   -3.9422   -2.3086   -4.0498 H   0  0  0  0  0  0  0  0  0  0  0  0
   -6.3541    1.9742   -2.1648 H   0  0  0  0  0  0  0  0  0  0  0  0
   -7.1133    1.1816   -3.5438 H   0  0  0  0  0  0  0  0  0  0  0  0
   -8.8264   -0.5923   -3.2240 H   0  0  0  0  0  0  0  0  0  0  0  0
  -10.6725   -1.4095   -1.7190 H   0  0  0  0  0  0  0  0  0  0  0  0
  -10.6730   -0.7868    0.6383 H   0  0  0  0  0  0  0  0  0  0  0  0
   -7.1067    1.4140    0.0776 H   0  0  0  0  0  0  0  0  0  0  0  0
   -1.8500   -1.9899   -2.1714 H   0  0  0  0  0  0  0  0  0  0  0  0
  1  2  1  0
  2  3  1  0
  3  4  1  0
  4  5  1  0
  5  6  2  0
  5  7  1  0
  7  8  1  0
  8  9  1  0
  9 10  1  0
 10 11  1  0
 11 12  1  0
 12 13  1  0
 13 14  1  0
  3 15  2  0
 15 16  1  0
 16 17  1  0
 17 18  2  0
 18 19  1  0
 19 20  2  0
 20 21  1  0
 21 22  1  0
 22 23  2  0
 23 24  1  0
 24 25  2  0
 25 26  1  0
 26 27  1  0
 27 28  2  0
 28 29  1  0
 29 30  1  0
 30 31  1  0
 31 32  2  0
 32 33  1  0
 33 34  2  0
 34 35  1  0
 35 36  1  0
 35 37  2  0
 26 38  2  0
 20 39  1  0
 39  2  2  0
 14  9  1  0
 39 16  1  0
 38 22  1  0
 29 25  1  0
 37 31  1  0
  1 40  1  0
  1 41  1  0
  1 42  1  0
  4 43  1  0
  8 44  1  0
  8 45  1  0
  9 46  1  1
 10 47  1  0
 10 48  1  0
 12 49  1  0
 12 50  1  0
 13 51  1  0
 13 52  1  0
 14 53  1  0
 15 54  1  0
 18 55  1  0
 21 56  1  0
 23 57  1  0
 24 58  1  0
 27 59  1  0
 30 60  1  0
 30 61  1  0
 32 62  1  0
 33 63  1  0
 34 64  1  0
 37 65  1  0
 38 66  1  0
M  END
$$$$
