
     RDKit          3D

 30 31  0  0  0  0  0  0  0  0999 V2000
    5.1511   -1.5515   -1.3612 O   0  0  0  0  0  0  0  0  0  0  0  0
    4.8146   -1.5511   -0.0076 C   0  0  0  0  0  0  0  0  0  0  0  0
    5.7218   -2.0860    0.7124 O   0  0  0  0  0  0  0  0  0  0  0  0
    3.5596   -1.0080    0.6089 C   0  0  0  0  0  0  0  0  0  0  0  0
    2.8029   -0.5059   -0.4497 O   0  0  0  0  0  0  0  0  0  0  0  0
    1.5449    0.0988   -0.3230 C   0  0  0  0  0  0  0  0  0  0  0  0
    1.5808    1.4389   -0.1395 C   0  0  0  0  0  0  0  0  0  0  0  0
   -0.1299    1.8861   -0.0189 S   0  0  0  0  0  0  0  0  0  0  0  0
   -0.7973    0.1948   -0.2289 C   0  0  0  0  0  0  0  0  0  0  0  0
    0.3706   -0.5970   -0.3784 C   0  0  0  0  0  0  0  0  0  0  0  0
    0.2943   -2.4904   -0.6367 Br  0  0  0  0  0  0  0  0  0  0  0  0
   -2.2225   -0.1169   -0.2226 C   0  0  0  0  0  0  0  0  0  0  0  0
   -2.8514   -1.3013   -0.3641 C   0  0  0  0  0  0  0  0  0  0  0  0
   -4.2016   -1.5158   -0.3470 C   0  0  0  0  0  0  0  0  0  0  0  0
   -4.9938   -0.4069   -0.1668 C   0  0  0  0  0  0  0  0  0  0  0  0
   -6.3607   -0.5726   -0.1423 O   0  0  0  0  0  0  0  0  0  0  0  0
   -4.4398    0.8433   -0.0136 C   0  0  0  0  0  0  0  0  0  0  0  0
   -3.0691    0.9635   -0.0444 C   0  0  0  0  0  0  0  0  0  0  0  0
    2.6483    2.3984   -0.0447 C   0  0  0  0  0  0  0  0  0  0  0  0
    2.3751    3.7418    0.1509 O   0  0  0  0  0  0  0  0  0  0  0  0
    3.8200    2.0180   -0.1390 O   0  0  0  0  0  0  0  0  0  0  0  0
    6.1184   -1.3048   -1.5997 H   0  0  0  0  0  0  0  0  0  0  0  0
    3.7815   -0.2673    1.3878 H   0  0  0  0  0  0  0  0  0  0  0  0
    3.0245   -1.8668    1.0932 H   0  0  0  0  0  0  0  0  0  0  0  0
   -2.1952   -2.1383   -0.5022 H   0  0  0  0  0  0  0  0  0  0  0  0
   -4.5579   -2.5120   -0.4720 H   0  0  0  0  0  0  0  0  0  0  0  0
   -6.9917    0.1550    0.1349 H   0  0  0  0  0  0  0  0  0  0  0  0
   -5.1066    1.6833    0.1252 H   0  0  0  0  0  0  0  0  0  0  0  0
   -2.7421    2.0012    0.0873 H   0  0  0  0  0  0  0  0  0  0  0  0
    3.0510    4.3698    0.5875 H   0  0  0  0  0  0  0  0  0  0  0  0
  1  2  1  0
  2  3  2  0
  2  4  1  0
  4  5  1  0
  5  6  1  0
  6  7  2  0
  7  8  1  0
  8  9  1  0
  9 10  2  0
 10 11  1  0
  9 12  1  0
 12 13  2  0
 13 14  1  0
 14 15  2  0
 15 16  1  0
 15 17  1  0
 17 18  2  0
  7 19  1  0
 19 20  1  0
 19 21  2  0
 10  6  1  0
 18 12  1  0
  1 22  1  0
  4 23  1  0
  4 24  1  0
 13 25  1  0
 14 26  1  0
 16 27  1  0
 17 28  1  0
 18 29  1  0
 20 30  1  0
M  END
$$$$
