
     RDKit          3D

 38 41  0  0  0  0  0  0  0  0999 V2000
   -3.5828   -4.5838    0.1188 F   0  0  0  0  0  0  0  0  0  0  0  0
   -3.1866   -3.2903    0.1058 C   0  0  0  0  0  0  0  0  0  0  0  0
   -3.6898   -2.3536   -0.7929 C   0  0  0  0  0  0  0  0  0  0  0  0
   -3.2456   -1.0516   -0.7539 C   0  0  0  0  0  0  0  0  0  0  0  0
   -2.3019   -0.5997    0.1494 C   0  0  0  0  0  0  0  0  0  0  0  0
   -1.8741    0.7917    0.1405 C   0  0  0  0  0  0  0  0  0  0  0  0
   -2.5962    1.9137    0.3643 N   0  0  0  0  0  0  0  0  0  0  0  0
   -1.7954    2.9922    0.2519 C   0  0  0  0  0  0  0  0  0  0  0  0
   -0.5423    2.5303   -0.0496 N   0  0  0  0  0  0  0  0  0  0  0  0
    0.5737    3.3966   -0.2351 C   0  0  0  0  0  0  0  0  0  0  0  0
    1.3425    3.7733    0.9696 C   0  0  0  0  0  0  0  0  0  0  0  0
    1.8605    2.6689    1.5811 F   0  0  0  0  0  0  0  0  0  0  0  0
    0.6571    4.5905    1.8444 F   0  0  0  0  0  0  0  0  0  0  0  0
   -0.5824    1.1983   -0.1188 C   0  0  0  0  0  0  0  0  0  0  0  0
    0.5176    0.3103   -0.4292 C   0  0  0  0  0  0  0  0  0  0  0  0
    0.8074   -0.0591   -1.7483 C   0  0  0  0  0  0  0  0  0  0  0  0
    1.8491   -0.9108   -2.0427 C   0  0  0  0  0  0  0  0  0  0  0  0
    2.6530   -1.4378   -1.0493 C   0  0  0  0  0  0  0  0  0  0  0  0
    3.7139   -2.2711   -1.0240 N   0  0  0  0  0  0  0  0  0  0  0  0
    4.1029   -2.4413    0.2501 C   0  0  0  0  0  0  0  0  0  0  0  0
    3.2458   -1.6829    1.0234 C   0  0  0  0  0  0  0  0  0  0  0  0
    2.3640   -1.0753    0.2082 N   0  0  0  0  0  0  0  0  0  0  0  0
    1.3583   -0.2511    0.5094 C   0  0  0  0  0  0  0  0  0  0  0  0
   -1.8056   -1.5194    1.0345 C   0  0  0  0  0  0  0  0  0  0  0  0
   -2.2454   -2.8340    1.0048 C   0  0  0  0  0  0  0  0  0  0  0  0
   -1.7354   -3.7246    1.8943 F   0  0  0  0  0  0  0  0  0  0  0  0
   -4.4244   -2.7092   -1.4940 H   0  0  0  0  0  0  0  0  0  0  0  0
   -3.6425   -0.3356   -1.4544 H   0  0  0  0  0  0  0  0  0  0  0  0
   -2.1118    3.9958    0.3801 H   0  0  0  0  0  0  0  0  0  0  0  0
    0.2426    4.3196   -0.8009 H   0  0  0  0  0  0  0  0  0  0  0  0
    1.3058    2.9124   -0.9493 H   0  0  0  0  0  0  0  0  0  0  0  0
    2.2120    4.4017    0.6150 H   0  0  0  0  0  0  0  0  0  0  0  0
    0.1876    0.3453   -2.5340 H   0  0  0  0  0  0  0  0  0  0  0  0
    2.0876   -1.2086   -3.0573 H   0  0  0  0  0  0  0  0  0  0  0  0
    4.9042   -3.0269    0.6749 H   0  0  0  0  0  0  0  0  0  0  0  0
    3.2857   -1.5988    2.1036 H   0  0  0  0  0  0  0  0  0  0  0  0
    1.1593    0.0171    1.5565 H   0  0  0  0  0  0  0  0  0  0  0  0
   -1.0686   -1.1922    1.7531 H   0  0  0  0  0  0  0  0  0  0  0  0
  1  2  1  0
  2  3  2  0
  3  4  1  0
  4  5  2  0
  5  6  1  0
  6  7  1  0
  7  8  2  0
  8  9  1  0
  9 10  1  0
 10 11  1  0
 11 12  1  0
 11 13  1  0
  9 14  1  0
 14 15  1  0
 15 16  1  0
 16 17  2  0
 17 18  1  0
 18 19  2  0
 19 20  1  0
 20 21  2  0
 21 22  1  0
 22 23  1  0
  5 24  1  0
 24 25  2  0
 25 26  1  0
 25  2  1  0
 14  6  2  0
 23 15  2  0
 22 18  1  0
  3 27  1  0
  4 28  1  0
  8 29  1  0
 10 30  1  0
 10 31  1  0
 11 32  1  0
 16 33  1  0
 17 34  1  0
 20 35  1  0
 21 36  1  0
 23 37  1  0
 24 38  1  0
M  END
$$$$
