
     RDKit          3D

 89 93  0  0  0  0  0  0  0  0999 V2000
    9.9768    4.0559    1.5540 C   0  0  0  0  0  0  0  0  0  0  0  0
    8.6090    3.4534    1.3182 C   0  0  0  0  0  0  0  0  0  0  0  0
    8.4815    2.9046    0.0167 O   0  0  0  0  0  0  0  0  0  0  0  0
    7.3162    2.3141   -0.4166 C   0  0  0  0  0  0  0  0  0  0  0  0
    7.1206    1.7771   -1.6306 C   0  0  0  0  0  0  0  0  0  0  0  0
    5.9202    1.2111   -1.9788 C   0  0  0  0  0  0  0  0  0  0  0  0
    4.8762    1.1872   -1.0612 C   0  0  0  0  0  0  0  0  0  0  0  0
    3.5950    0.6180   -1.4382 C   0  0  0  0  0  0  0  0  0  0  0  0
    2.7893   -0.0162   -0.4969 C   0  0  0  0  0  0  0  0  0  0  0  0
    1.5535   -0.5234   -0.8449 C   0  0  0  0  0  0  0  0  0  0  0  0
    1.0597   -0.4318   -2.1139 C   0  0  0  0  0  0  0  0  0  0  0  0
   -0.2972   -0.9546   -2.4423 C   0  0  0  0  0  0  0  0  0  0  0  0
   -0.9640   -1.1409   -1.1535 N   0  0  0  0  0  0  0  0  0  0  0  0
   -1.1664   -2.2932   -0.4606 C   0  0  0  0  0  0  0  0  0  0  0  0
   -0.8935   -3.6508   -0.9344 C   0  0  0  0  0  0  0  0  0  0  0  0
    0.2920   -4.3828   -0.4584 C   0  0  0  0  0  0  0  0  0  0  0  0
    0.4027   -4.6078    1.0270 C   0  0  0  0  0  0  0  0  0  0  0  0
    1.6267   -3.8509   -0.9197 C   0  0  0  0  0  0  0  0  0  0  0  0
    0.1997   -5.7515   -1.1449 C   0  0  0  0  0  0  0  0  0  0  0  0
    0.1134   -6.8094   -0.5338 O   0  0  0  0  0  0  0  0  0  0  0  0
    0.2197   -5.7234   -2.5218 O   0  0  0  0  0  0  0  0  0  0  0  0
   -1.7272   -1.9564    0.7505 C   0  0  0  0  0  0  0  0  0  0  0  0
   -2.2221   -3.0074    2.0566 S   0  0  0  0  0  0  0  0  0  0  0  0
   -3.9057   -3.5990    1.9913 C   0  0  0  0  0  0  0  0  0  0  0  0
   -4.9280   -2.4806    2.1544 C   0  0  0  0  0  0  0  0  0  0  0  0
   -4.2007   -4.4619    0.7769 C   0  0  0  0  0  0  0  0  0  0  0  0
   -4.0843   -4.5408    3.1916 C   0  0  0  0  0  0  0  0  0  0  0  0
   -1.8525   -0.5771    0.7521 C   0  0  0  0  0  0  0  0  0  0  0  0
   -2.3286    0.3528    1.6804 C   0  0  0  0  0  0  0  0  0  0  0  0
   -2.3187    1.7064    1.4093 C   0  0  0  0  0  0  0  0  0  0  0  0
   -2.7919    2.6108    2.3456 O   0  0  0  0  0  0  0  0  0  0  0  0
   -2.8033    3.9861    2.1067 C   0  0  0  0  0  0  0  0  0  0  0  0
   -3.6545    4.4156    0.9773 C   0  0  0  0  0  0  0  0  0  0  0  0
   -4.5941    3.5693    0.4258 C   0  0  0  0  0  0  0  0  0  0  0  0
   -5.4143    3.9548   -0.6064 C   0  0  0  0  0  0  0  0  0  0  0  0
   -5.2899    5.2292   -1.1056 C   0  0  0  0  0  0  0  0  0  0  0  0
   -6.1218    5.7732   -2.2065 C   0  0  0  0  0  0  0  0  0  0  0  0
   -4.3202    6.0648   -0.5179 C   0  0  0  0  0  0  0  0  0  0  0  0
   -3.5356    5.6589    0.4889 N   0  0  0  0  0  0  0  0  0  0  0  0
   -1.8418    2.1881    0.2190 C   0  0  0  0  0  0  0  0  0  0  0  0
   -1.3656    1.2791   -0.7165 C   0  0  0  0  0  0  0  0  0  0  0  0
   -1.3777   -0.0684   -0.4387 C   0  0  0  0  0  0  0  0  0  0  0  0
    1.8600    0.2009   -3.0710 C   0  0  0  0  0  0  0  0  0  0  0  0
    3.0935    0.7039   -2.7105 C   0  0  0  0  0  0  0  0  0  0  0  0
    5.1152    1.7376    0.1513 C   0  0  0  0  0  0  0  0  0  0  0  0
    6.2998    2.3004    0.5053 N   0  0  0  0  0  0  0  0  0  0  0  0
    9.9166    4.8361    2.3582 H   0  0  0  0  0  0  0  0  0  0  0  0
   10.6806    3.2609    1.7994 H   0  0  0  0  0  0  0  0  0  0  0  0
   10.2164    4.6181    0.6161 H   0  0  0  0  0  0  0  0  0  0  0  0
    8.3742    2.6867    2.1017 H   0  0  0  0  0  0  0  0  0  0  0  0
    7.8520    4.2767    1.3955 H   0  0  0  0  0  0  0  0  0  0  0  0
    7.9267    1.7795   -2.3751 H   0  0  0  0  0  0  0  0  0  0  0  0
    5.8066    0.8002   -2.9563 H   0  0  0  0  0  0  0  0  0  0  0  0
    3.1691   -0.0956    0.5205 H   0  0  0  0  0  0  0  0  0  0  0  0
    0.9697   -1.0056   -0.0734 H   0  0  0  0  0  0  0  0  0  0  0  0
   -0.2372   -1.9012   -3.0102 H   0  0  0  0  0  0  0  0  0  0  0  0
   -0.8605   -0.1882   -2.9918 H   0  0  0  0  0  0  0  0  0  0  0  0
   -1.8377   -4.2975   -0.8660 H   0  0  0  0  0  0  0  0  0  0  0  0
   -0.7822   -3.6012   -2.0747 H   0  0  0  0  0  0  0  0  0  0  0  0
    0.6029   -3.6727    1.5794 H   0  0  0  0  0  0  0  0  0  0  0  0
   -0.4206   -5.2269    1.3998 H   0  0  0  0  0  0  0  0  0  0  0  0
    1.3265   -5.2383    1.2507 H   0  0  0  0  0  0  0  0  0  0  0  0
    1.5378   -3.2513   -1.8346 H   0  0  0  0  0  0  0  0  0  0  0  0
    2.1085   -3.2531   -0.1004 H   0  0  0  0  0  0  0  0  0  0  0  0
    2.3056   -4.7038   -1.1439 H   0  0  0  0  0  0  0  0  0  0  0  0
    0.1685   -6.5380   -3.1113 H   0  0  0  0  0  0  0  0  0  0  0  0
   -4.5980   -1.5772    1.5786 H   0  0  0  0  0  0  0  0  0  0  0  0
   -5.8711   -2.8814    1.7263 H   0  0  0  0  0  0  0  0  0  0  0  0
   -5.0306   -2.2734    3.2381 H   0  0  0  0  0  0  0  0  0  0  0  0
   -3.3465   -5.2043    0.7578 H   0  0  0  0  0  0  0  0  0  0  0  0
   -5.1212   -5.0491    0.8968 H   0  0  0  0  0  0  0  0  0  0  0  0
   -4.1077   -3.9017   -0.1639 H   0  0  0  0  0  0  0  0  0  0  0  0
   -4.9648   -5.1978    3.0380 H   0  0  0  0  0  0  0  0  0  0  0  0
   -3.1928   -5.2322    3.1620 H   0  0  0  0  0  0  0  0  0  0  0  0
   -4.1246   -3.9942    4.1366 H   0  0  0  0  0  0  0  0  0  0  0  0
   -2.7047    0.0071    2.6093 H   0  0  0  0  0  0  0  0  0  0  0  0
   -1.7369    4.2962    1.9309 H   0  0  0  0  0  0  0  0  0  0  0  0
   -3.1695    4.5375    3.0020 H   0  0  0  0  0  0  0  0  0  0  0  0
   -4.7051    2.5443    0.8078 H   0  0  0  0  0  0  0  0  0  0  0  0
   -6.1515    3.2896   -1.0394 H   0  0  0  0  0  0  0  0  0  0  0  0
   -6.3848    6.8411   -1.9493 H   0  0  0  0  0  0  0  0  0  0  0  0
   -7.0767    5.1738   -2.2678 H   0  0  0  0  0  0  0  0  0  0  0  0
   -5.5970    5.7016   -3.1708 H   0  0  0  0  0  0  0  0  0  0  0  0
   -4.2296    7.0656   -0.9168 H   0  0  0  0  0  0  0  0  0  0  0  0
   -1.7943    3.2396   -0.0540 H   0  0  0  0  0  0  0  0  0  0  0  0
   -0.9874    1.6682   -1.6708 H   0  0  0  0  0  0  0  0  0  0  0  0
    1.4951    0.2915   -4.0933 H   0  0  0  0  0  0  0  0  0  0  0  0
    3.7377    1.2046   -3.4381 H   0  0  0  0  0  0  0  0  0  0  0  0
    4.3180    1.7404    0.9051 H   0  0  0  0  0  0  0  0  0  0  0  0
  1  2  1  0
  2  3  1  0
  3  4  1  0
  4  5  2  0
  5  6  1  0
  6  7  2  0
  7  8  1  0
  8  9  2  0
  9 10  1  0
 10 11  2  0
 11 12  1  0
 12 13  1  0
 13 14  1  0
 14 15  1  0
 15 16  1  0
 16 17  1  0
 16 18  1  0
 16 19  1  0
 19 20  2  0
 19 21  1  0
 14 22  2  0
 22 23  1  0
 23 24  1  0
 24 25  1  0
 24 26  1  0
 24 27  1  0
 22 28  1  0
 28 29  2  0
 29 30  1  0
 30 31  1  0
 31 32  1  0
 32 33  1  0
 33 34  2  0
 34 35  1  0
 35 36  2  0
 36 37  1  0
 36 38  1  0
 38 39  2  0
 30 40  2  0
 40 41  1  0
 41 42  2  0
 11 43  1  0
 43 44  2  0
  7 45  1  0
 45 46  2  0
 46  4  1  0
 44  8  1  0
 42 13  1  0
 42 28  1  0
 39 33  1  0
  1 47  1  0
  1 48  1  0
  1 49  1  0
  2 50  1  0
  2 51  1  0
  5 52  1  0
  6 53  1  0
  9 54  1  0
 10 55  1  0
 12 56  1  0
 12 57  1  0
 15 58  1  0
 15 59  1  0
 17 60  1  0
 17 61  1  0
 17 62  1  0
 18 63  1  0
 18 64  1  0
 18 65  1  0
 21 66  1  0
 25 67  1  0
 25 68  1  0
 25 69  1  0
 26 70  1  0
 26 71  1  0
 26 72  1  0
 27 73  1  0
 27 74  1  0
 27 75  1  0
 29 76  1  0
 32 77  1  0
 32 78  1  0
 34 79  1  0
 35 80  1  0
 37 81  1  0
 37 82  1  0
 37 83  1  0
 38 84  1  0
 40 85  1  0
 41 86  1  0
 43 87  1  0
 44 88  1  0
 45 89  1  0
M  END
$$$$
