
     RDKit          3D

 58 62  0  0  0  0  0  0  0  0999 V2000
    4.5499    1.0743    1.4189 C   0  0  0  0  0  0  0  0  0  0  0  0
    4.2265    0.4551    0.0535 C   0  0  1  0  0  0  0  0  0  0  0  0
    2.9202    0.2886   -0.0806 O   0  0  0  0  0  0  0  0  0  0  0  0
    1.8909   -0.5306   -0.2487 C   0  0  0  0  0  0  0  0  0  0  0  0
    0.6064    0.0443   -0.3137 C   0  0  0  0  0  0  0  0  0  0  0  0
   -0.5432   -0.6714   -0.4834 C   0  0  0  0  0  0  0  0  0  0  0  0
   -1.8597   -0.0446   -0.5464 C   0  0  0  0  0  0  0  0  0  0  0  0
   -2.0915    1.2155   -1.0628 C   0  0  0  0  0  0  0  0  0  0  0  0
   -3.3965    1.4386   -0.9498 N   0  0  0  0  0  0  0  0  0  0  0  0
   -4.0227    0.4048   -0.3943 N   0  0  0  0  0  0  0  0  0  0  0  0
   -5.4448    0.3328   -0.1325 C   0  0  0  0  0  0  0  0  0  0  0  0
   -5.9602    1.7261    0.1192 C   0  0  0  0  0  0  0  0  0  0  0  0
   -7.3261    1.7627    0.7205 C   0  0  0  0  0  0  0  0  0  0  0  0
   -7.9177    0.4765    0.9302 N   0  0  0  0  0  0  0  0  0  0  0  0
   -7.0613   -0.4491    1.6208 C   0  0  0  0  0  0  0  0  0  0  0  0
   -5.7119   -0.6143    0.9981 C   0  0  0  0  0  0  0  0  0  0  0  0
   -3.0772   -0.5133   -0.1436 C   0  0  0  0  0  0  0  0  0  0  0  0
   -0.4197   -2.0383   -0.5961 C   0  0  0  0  0  0  0  0  0  0  0  0
    0.8268   -2.6473   -0.5377 C   0  0  0  0  0  0  0  0  0  0  0  0
    1.2030   -3.9497   -0.6214 N   0  0  0  0  0  0  0  0  0  0  0  0
    2.4980   -4.0485   -0.5122 N   0  0  0  0  0  0  0  0  0  0  0  0
    3.3045   -5.2735   -0.5496 C   0  0  0  0  0  0  0  0  0  0  0  0
    3.0016   -2.8181   -0.3548 C   0  0  0  0  0  0  0  0  0  0  0  0
    1.9849   -1.9131   -0.3655 C   0  0  0  0  0  0  0  0  0  0  0  0
    4.8525    1.3187   -1.0473 C   0  0  1  0  0  0  0  0  0  0  0  0
    4.3226    2.7185   -1.0201 C   0  0  0  0  0  0  0  0  0  0  0  0
    5.2391    3.4429   -0.1612 N   0  0  0  0  0  0  0  0  0  0  0  0
    6.5078    2.8142   -0.2676 C   0  0  0  0  0  0  0  0  0  0  0  0
    7.6205    3.2763    0.0862 O   0  0  0  0  0  0  0  0  0  0  0  0
    6.3264    1.4726   -0.8839 C   0  0  0  0  0  0  0  0  0  0  0  0
    3.8162    1.8507    1.6692 H   0  0  0  0  0  0  0  0  0  0  0  0
    5.5944    1.3701    1.5081 H   0  0  0  0  0  0  0  0  0  0  0  0
    4.3946    0.2386    2.1596 H   0  0  0  0  0  0  0  0  0  0  0  0
    4.8124   -0.4829    0.0209 H   0  0  0  0  0  0  0  0  0  0  0  0
    0.4985    1.1302   -0.2250 H   0  0  0  0  0  0  0  0  0  0  0  0
   -1.3080    1.8637   -1.4743 H   0  0  0  0  0  0  0  0  0  0  0  0
   -5.9664   -0.0537   -1.0290 H   0  0  0  0  0  0  0  0  0  0  0  0
   -5.1950    2.2319    0.7659 H   0  0  0  0  0  0  0  0  0  0  0  0
   -5.8985    2.2696   -0.8662 H   0  0  0  0  0  0  0  0  0  0  0  0
   -7.2679    2.3262    1.6735 H   0  0  0  0  0  0  0  0  0  0  0  0
   -7.9987    2.3342    0.0427 H   0  0  0  0  0  0  0  0  0  0  0  0
   -8.4127    0.0805    0.1184 H   0  0  0  0  0  0  0  0  0  0  0  0
   -7.5957   -1.4293    1.6525 H   0  0  0  0  0  0  0  0  0  0  0  0
   -6.9532   -0.1321    2.6909 H   0  0  0  0  0  0  0  0  0  0  0  0
   -4.9096   -0.5308    1.7712 H   0  0  0  0  0  0  0  0  0  0  0  0
   -5.6076   -1.6587    0.5866 H   0  0  0  0  0  0  0  0  0  0  0  0
   -3.2328   -1.4808    0.3068 H   0  0  0  0  0  0  0  0  0  0  0  0
   -1.3034   -2.6351   -0.7308 H   0  0  0  0  0  0  0  0  0  0  0  0
    2.7636   -6.0976   -0.0814 H   0  0  0  0  0  0  0  0  0  0  0  0
    4.2605   -5.1395    0.0202 H   0  0  0  0  0  0  0  0  0  0  0  0
    3.5367   -5.4982   -1.6189 H   0  0  0  0  0  0  0  0  0  0  0  0
    4.0419   -2.5832   -0.2386 H   0  0  0  0  0  0  0  0  0  0  0  0
    4.6202    0.8595   -2.0099 H   0  0  0  0  0  0  0  0  0  0  0  0
    4.4352    3.1559   -2.0379 H   0  0  0  0  0  0  0  0  0  0  0  0
    3.2737    2.7832   -0.6817 H   0  0  0  0  0  0  0  0  0  0  0  0
    4.9748    4.2646    0.4092 H   0  0  0  0  0  0  0  0  0  0  0  0
    6.7696    1.5405   -1.9197 H   0  0  0  0  0  0  0  0  0  0  0  0
    6.8083    0.6717   -0.2986 H   0  0  0  0  0  0  0  0  0  0  0  0
  1  2  1  0
  2  3  1  0
  3  4  1  0
  4  5  2  0
  5  6  1  0
  6  7  1  0
  7  8  1  0
  8  9  2  0
  9 10  1  0
 10 11  1  0
 11 12  1  0
 12 13  1  0
 13 14  1  0
 14 15  1  0
 15 16  1  0
 10 17  1  0
  6 18  2  0
 18 19  1  0
 19 20  2  0
 20 21  1  0
 21 22  1  0
 21 23  1  0
 23 24  2  0
  2 25  1  0
 25 26  1  0
 26 27  1  0
 27 28  1  0
 28 29  2  0
 28 30  1  0
 24  4  1  0
 30 25  1  0
 17  7  2  0
 24 19  1  0
 16 11  1  0
  1 31  1  0
  1 32  1  0
  1 33  1  0
  2 34  1  1
  5 35  1  0
  8 36  1  0
 11 37  1  0
 12 38  1  0
 12 39  1  0
 13 40  1  0
 13 41  1  0
 14 42  1  0
 15 43  1  0
 15 44  1  0
 16 45  1  0
 16 46  1  0
 17 47  1  0
 18 48  1  0
 22 49  1  0
 22 50  1  0
 22 51  1  0
 23 52  1  0
 25 53  1  6
 26 54  1  0
 26 55  1  0
 27 56  1  0
 30 57  1  0
 30 58  1  0
M  END
$$$$
