
     RDKit          3D

 39 39  0  0  0  0  0  0  0  0999 V2000
    5.0811    2.1138   -0.4929 O   0  0  0  0  0  0  0  0  0  0  0  0
    4.7524    1.1517   -1.2296 C   0  0  0  0  0  0  0  0  0  0  0  0
    3.8700    0.0796   -0.7118 C   0  0  0  0  0  0  0  0  0  0  0  0
    3.5212    0.3897    0.7038 C   0  0  0  0  0  0  0  0  0  0  0  0
    2.6218   -0.6387    1.3382 C   0  0  0  0  0  0  0  0  0  0  0  0
    1.3022   -0.7698    0.5972 C   0  0  0  0  0  0  0  0  0  0  0  0
    0.5049   -1.8206    1.3279 C   0  0  0  0  0  0  0  0  0  0  0  0
   -0.8355   -2.1094    0.7553 C   0  0  0  0  0  0  0  0  0  0  0  0
   -1.7843   -1.0023    0.7135 C   0  0  0  0  0  0  0  0  0  0  0  0
   -1.4708    0.1124    1.1869 O   0  0  0  0  0  0  0  0  0  0  0  0
   -3.0622   -1.1529    0.1475 N   0  0  0  0  0  0  0  0  0  0  0  0
   -4.0286   -0.1178    0.0761 C   0  0  0  0  0  0  0  0  0  0  0  0
   -4.1286    0.7498   -0.9820 C   0  0  0  0  0  0  0  0  0  0  0  0
   -5.0711    1.7481   -1.0364 C   0  0  0  0  0  0  0  0  0  0  0  0
   -5.9663    1.9053    0.0046 C   0  0  0  0  0  0  0  0  0  0  0  0
   -5.8993    1.0606    1.0772 C   0  0  0  0  0  0  0  0  0  0  0  0
   -4.9443    0.0697    1.1039 C   0  0  0  0  0  0  0  0  0  0  0  0
    5.2694    1.1596   -2.5578 N   0  0  0  0  0  0  0  0  0  0  0  0
    6.0845    2.1668   -3.0079 O   0  0  0  0  0  0  0  0  0  0  0  0
    2.9710   -0.0590   -1.3616 H   0  0  0  0  0  0  0  0  0  0  0  0
    4.4356   -0.8859   -0.8062 H   0  0  0  0  0  0  0  0  0  0  0  0
    3.1311    1.4037    0.7749 H   0  0  0  0  0  0  0  0  0  0  0  0
    4.4752    0.3718    1.2898 H   0  0  0  0  0  0  0  0  0  0  0  0
    2.3720   -0.2751    2.3569 H   0  0  0  0  0  0  0  0  0  0  0  0
    3.0975   -1.6194    1.4010 H   0  0  0  0  0  0  0  0  0  0  0  0
    1.4516   -1.1300   -0.4389 H   0  0  0  0  0  0  0  0  0  0  0  0
    0.7443    0.1770    0.6284 H   0  0  0  0  0  0  0  0  0  0  0  0
    1.0770   -2.7959    1.2899 H   0  0  0  0  0  0  0  0  0  0  0  0
    0.4829   -1.5693    2.4093 H   0  0  0  0  0  0  0  0  0  0  0  0
   -0.6676   -2.5529   -0.2550 H   0  0  0  0  0  0  0  0  0  0  0  0
   -1.2506   -2.9745    1.3527 H   0  0  0  0  0  0  0  0  0  0  0  0
   -3.3201   -2.0926   -0.2490 H   0  0  0  0  0  0  0  0  0  0  0  0
   -3.4454    0.6524   -1.8076 H   0  0  0  0  0  0  0  0  0  0  0  0
   -5.1241    2.4224   -1.8934 H   0  0  0  0  0  0  0  0  0  0  0  0
   -6.7004    2.6918   -0.0502 H   0  0  0  0  0  0  0  0  0  0  0  0
   -6.5848    1.1671    1.8936 H   0  0  0  0  0  0  0  0  0  0  0  0
   -4.9223   -0.5775    1.9670 H   0  0  0  0  0  0  0  0  0  0  0  0
    5.0230    0.3816   -3.2037 H   0  0  0  0  0  0  0  0  0  0  0  0
    6.9377    2.1686   -2.5075 H   0  0  0  0  0  0  0  0  0  0  0  0
  1  2  2  0
  2  3  1  0
  3  4  1  0
  4  5  1  0
  5  6  1  0
  6  7  1  0
  7  8  1  0
  8  9  1  0
  9 10  2  0
  9 11  1  0
 11 12  1  0
 12 13  2  0
 13 14  1  0
 14 15  2  0
 15 16  1  0
 16 17  2  0
  2 18  1  0
 18 19  1  0
 17 12  1  0
  3 20  1  0
  3 21  1  0
  4 22  1  0
  4 23  1  0
  5 24  1  0
  5 25  1  0
  6 26  1  0
  6 27  1  0
  7 28  1  0
  7 29  1  0
  8 30  1  0
  8 31  1  0
 11 32  1  0
 13 33  1  0
 14 34  1  0
 15 35  1  0
 16 36  1  0
 17 37  1  0
 18 38  1  0
 19 39  1  0
M  END
$$$$
