
     RDKit          3D

 52 54  0  0  0  0  0  0  0  0999 V2000
    8.5791    0.9533    1.8559 C   0  0  0  0  0  0  0  0  0  0  0  0
    8.5567    1.3439    0.6889 C   0  0  0  0  0  0  0  0  0  0  0  0
    8.5436    1.8132   -0.6970 C   0  0  0  0  0  0  0  0  0  0  0  0
    7.8194    0.8361   -1.4593 O   0  0  0  0  0  0  0  0  0  0  0  0
    6.5034    0.6099   -1.0738 C   0  0  0  0  0  0  0  0  0  0  0  0
    5.6923   -0.3000   -1.7209 C   0  0  0  0  0  0  0  0  0  0  0  0
    4.4218   -0.5293   -1.3600 N   0  0  0  0  0  0  0  0  0  0  0  0
    3.8796    0.1339   -0.3305 C   0  0  0  0  0  0  0  0  0  0  0  0
    2.5103   -0.0941    0.0779 C   0  0  0  0  0  0  0  0  0  0  0  0
    2.0307    0.5321    1.0732 O   0  0  0  0  0  0  0  0  0  0  0  0
    1.6304   -0.9931   -0.5682 N   0  0  0  0  0  0  0  0  0  0  0  0
    0.3013   -1.1687   -0.1123 C   0  0  0  0  0  0  0  0  0  0  0  0
    0.0063   -2.1371    0.8165 C   0  0  0  0  0  0  0  0  0  0  0  0
   -1.2688   -2.3175    1.2725 C   0  0  0  0  0  0  0  0  0  0  0  0
   -1.5348   -3.3843    2.2719 C   0  0  0  0  0  0  0  0  0  0  0  0
   -2.3004   -1.5329    0.8157 C   0  0  0  0  0  0  0  0  0  0  0  0
   -3.5849   -1.7412    1.2809 F   0  0  0  0  0  0  0  0  0  0  0  0
   -2.0369   -0.5531   -0.1147 C   0  0  0  0  0  0  0  0  0  0  0  0
   -3.2091    0.2693   -0.5744 C   0  0  2  0  0  0  0  0  0  0  0  0
   -2.7551    1.2528   -1.6862 C   0  0  0  0  0  0  0  0  0  0  0  0
   -1.8051    2.0895   -1.1396 F   0  0  0  0  0  0  0  0  0  0  0  0
   -3.7457    1.1187    0.5109 C   0  0  0  0  0  0  0  0  0  0  0  0
   -5.1072    0.8700    0.9795 C   0  0  1  0  0  0  0  0  0  0  0  0
   -5.8335    2.1942    1.3273 C   0  0  0  0  0  0  0  0  0  0  0  0
   -7.0863    1.8275    1.7584 F   0  0  0  0  0  0  0  0  0  0  0  0
   -5.9409    2.9357    0.1565 F   0  0  0  0  0  0  0  0  0  0  0  0
   -5.1536    2.9153    2.2659 F   0  0  0  0  0  0  0  0  0  0  0  0
   -5.9289    0.2264    0.0563 O   0  0  0  0  0  0  0  0  0  0  0  0
   -5.4265   -0.6379   -0.8953 C   0  0  0  0  0  0  0  0  0  0  0  0
   -6.3073   -1.5378   -1.5396 N   0  0  0  0  0  0  0  0  0  0  0  0
   -4.1704   -0.5955   -1.1646 N   0  0  0  0  0  0  0  0  0  0  0  0
   -0.7518   -0.3832   -0.5653 C   0  0  0  0  0  0  0  0  0  0  0  0
    4.6506    1.0500    0.3437 C   0  0  0  0  0  0  0  0  0  0  0  0
    5.9264    1.2641   -0.0379 N   0  0  0  0  0  0  0  0  0  0  0  0
    8.5831    0.6168    2.8325 H   0  0  0  0  0  0  0  0  0  0  0  0
    9.5594    1.9259   -1.1012 H   0  0  0  0  0  0  0  0  0  0  0  0
    7.9626    2.7778   -0.7392 H   0  0  0  0  0  0  0  0  0  0  0  0
    6.1105   -0.8463   -2.5547 H   0  0  0  0  0  0  0  0  0  0  0  0
    1.9486   -1.5385   -1.3912 H   0  0  0  0  0  0  0  0  0  0  0  0
    0.8167   -2.7486    1.1696 H   0  0  0  0  0  0  0  0  0  0  0  0
   -0.6727   -3.4644    2.9771 H   0  0  0  0  0  0  0  0  0  0  0  0
   -1.6403   -4.3410    1.6943 H   0  0  0  0  0  0  0  0  0  0  0  0
   -2.4460   -3.1420    2.8280 H   0  0  0  0  0  0  0  0  0  0  0  0
   -3.6339    1.8885   -1.9122 H   0  0  0  0  0  0  0  0  0  0  0  0
   -2.3764    0.7126   -2.5596 H   0  0  0  0  0  0  0  0  0  0  0  0
   -3.0394    1.0913    1.4149 H   0  0  0  0  0  0  0  0  0  0  0  0
   -3.6554    2.2035    0.1805 H   0  0  0  0  0  0  0  0  0  0  0  0
   -5.0684    0.3063    1.9524 H   0  0  0  0  0  0  0  0  0  0  0  0
   -7.0528   -2.0360   -1.0083 H   0  0  0  0  0  0  0  0  0  0  0  0
   -6.2355   -1.7279   -2.5624 H   0  0  0  0  0  0  0  0  0  0  0  0
   -0.5089    0.3721   -1.3125 H   0  0  0  0  0  0  0  0  0  0  0  0
    4.2441    1.6197    1.1968 H   0  0  0  0  0  0  0  0  0  0  0  0
  1  2  3  0
  2  3  1  0
  3  4  1  0
  4  5  1  0
  5  6  2  0
  6  7  1  0
  7  8  2  0
  8  9  1  0
  9 10  2  0
  9 11  1  0
 11 12  1  0
 12 13  2  0
 13 14  1  0
 14 15  1  0
 14 16  2  0
 16 17  1  0
 16 18  1  0
 18 19  1  0
 19 20  1  6
 20 21  1  0
 19 22  1  0
 22 23  1  0
 23 24  1  0
 24 25  1  0
 24 26  1  0
 24 27  1  0
 23 28  1  0
 28 29  1  0
 29 30  1  0
 29 31  2  0
 18 32  2  0
  8 33  1  0
 33 34  2  0
 34  5  1  0
 32 12  1  0
 31 19  1  0
  1 35  1  0
  3 36  1  0
  3 37  1  0
  6 38  1  0
 11 39  1  0
 13 40  1  0
 15 41  1  0
 15 42  1  0
 15 43  1  0
 20 44  1  0
 20 45  1  0
 22 46  1  0
 22 47  1  0
 23 48  1  1
 30 49  1  0
 30 50  1  0
 32 51  1  0
 33 52  1  0
M  END
$$$$
