
     RDKit          3D

 61 64  0  0  0  0  0  0  0  0999 V2000
    7.2611    0.1444    0.0642 C   0  0  0  0  0  0  0  0  0  0  0  0
    6.1042   -0.8272   -0.1228 C   0  0  0  0  0  0  0  0  0  0  0  0
    6.5808   -2.2514    0.0973 C   0  0  0  0  0  0  0  0  0  0  0  0
    4.9986   -0.4380    0.7742 C   0  0  0  0  0  0  0  0  0  0  0  0
    3.9032   -0.0243   -0.1210 N   0  0  0  0  0  0  0  0  0  0  0  0
    2.5918    0.4578   -0.0188 C   0  0  0  0  0  0  0  0  0  0  0  0
    1.9503    0.6900    1.3482 C   0  0  0  0  0  0  0  0  0  0  0  0
    0.2944    1.2993    1.1742 S   0  0  0  0  0  0  0  0  0  0  0  0
   -0.8697    0.1685    0.4936 C   0  0  0  0  0  0  0  0  0  0  0  0
   -2.0649    0.5550    0.3130 N   0  0  0  0  0  0  0  0  0  0  0  0
   -2.5881    1.8449    0.6098 C   0  0  0  0  0  0  0  0  0  0  0  0
   -3.8862    2.0647   -0.1773 C   0  0  0  0  0  0  0  0  0  0  0  0
   -4.6418    3.1619    0.5343 C   0  0  0  0  0  0  0  0  0  0  0  0
   -3.7710    4.3781    0.6296 C   0  0  0  0  0  0  0  0  0  0  0  0
   -2.4803    4.2277   -0.1467 C   0  0  0  0  0  0  0  0  0  0  0  0
   -1.7016    3.0050    0.3125 C   0  0  0  0  0  0  0  0  0  0  0  0
   -0.5074   -1.1611    0.1452 N   0  0  0  0  0  0  0  0  0  0  0  0
   -1.4979   -2.1164   -0.2187 C   0  0  0  0  0  0  0  0  0  0  0  0
   -2.3110   -1.7450   -1.4282 C   0  0  0  0  0  0  0  0  0  0  0  0
   -2.9286   -3.0405   -1.9531 C   0  0  0  0  0  0  0  0  0  0  0  0
   -3.5012   -3.8681   -0.8359 C   0  0  0  0  0  0  0  0  0  0  0  0
   -3.6809   -3.1060    0.4358 C   0  0  0  0  0  0  0  0  0  0  0  0
   -2.4517   -2.4214    0.9236 C   0  0  0  0  0  0  0  0  0  0  0  0
    1.9385    0.7046   -1.1265 C   0  0  0  0  0  0  0  0  0  0  0  0
    3.0401    0.3055   -2.4745 S   0  0  0  0  0  0  0  0  0  0  0  0
    4.3897   -0.1938   -1.4244 C   0  0  0  0  0  0  0  0  0  0  0  0
    5.5854   -0.6313   -1.4484 N   0  0  0  0  0  0  0  0  0  0  0  0
    7.3593    0.3234    1.1500 H   0  0  0  0  0  0  0  0  0  0  0  0
    8.1888   -0.1839   -0.4138 H   0  0  0  0  0  0  0  0  0  0  0  0
    6.9355    1.1178   -0.3815 H   0  0  0  0  0  0  0  0  0  0  0  0
    5.8303   -2.8601    0.5990 H   0  0  0  0  0  0  0  0  0  0  0  0
    7.4691   -2.1787    0.7601 H   0  0  0  0  0  0  0  0  0  0  0  0
    6.9414   -2.6463   -0.8710 H   0  0  0  0  0  0  0  0  0  0  0  0
    4.5745   -1.2913    1.3493 H   0  0  0  0  0  0  0  0  0  0  0  0
    5.2327    0.4102    1.4534 H   0  0  0  0  0  0  0  0  0  0  0  0
    1.9492   -0.2687    1.9134 H   0  0  0  0  0  0  0  0  0  0  0  0
    2.5637    1.4360    1.8634 H   0  0  0  0  0  0  0  0  0  0  0  0
   -2.9194    1.8893    1.6883 H   0  0  0  0  0  0  0  0  0  0  0  0
   -3.6418    2.4430   -1.1906 H   0  0  0  0  0  0  0  0  0  0  0  0
   -4.4684    1.1323   -0.2463 H   0  0  0  0  0  0  0  0  0  0  0  0
   -5.6099    3.3939    0.0289 H   0  0  0  0  0  0  0  0  0  0  0  0
   -4.9099    2.8422    1.5716 H   0  0  0  0  0  0  0  0  0  0  0  0
   -4.3215    5.2352    0.1915 H   0  0  0  0  0  0  0  0  0  0  0  0
   -3.5375    4.6534    1.6844 H   0  0  0  0  0  0  0  0  0  0  0  0
   -2.6510    4.2262   -1.2369 H   0  0  0  0  0  0  0  0  0  0  0  0
   -1.8590    5.1199    0.0738 H   0  0  0  0  0  0  0  0  0  0  0  0
   -0.9747    2.7658   -0.4710 H   0  0  0  0  0  0  0  0  0  0  0  0
   -1.2249    3.3318    1.2838 H   0  0  0  0  0  0  0  0  0  0  0  0
    0.4865   -1.4168    0.1651 H   0  0  0  0  0  0  0  0  0  0  0  0
   -0.9998   -3.0787   -0.4565 H   0  0  0  0  0  0  0  0  0  0  0  0
   -1.6217   -1.4043   -2.2268 H   0  0  0  0  0  0  0  0  0  0  0  0
   -3.1001   -1.0214   -1.1765 H   0  0  0  0  0  0  0  0  0  0  0  0
   -3.6459   -2.8560   -2.7688 H   0  0  0  0  0  0  0  0  0  0  0  0
   -2.0774   -3.6179   -2.3919 H   0  0  0  0  0  0  0  0  0  0  0  0
   -2.9335   -4.7972   -0.6420 H   0  0  0  0  0  0  0  0  0  0  0  0
   -4.5190   -4.1854   -1.1713 H   0  0  0  0  0  0  0  0  0  0  0  0
   -4.5759   -2.4241    0.3897 H   0  0  0  0  0  0  0  0  0  0  0  0
   -3.9650   -3.8635    1.2246 H   0  0  0  0  0  0  0  0  0  0  0  0
   -1.9019   -3.0219    1.6981 H   0  0  0  0  0  0  0  0  0  0  0  0
   -2.7381   -1.4719    1.4092 H   0  0  0  0  0  0  0  0  0  0  0  0
    0.9093    1.0850   -1.2118 H   0  0  0  0  0  0  0  0  0  0  0  0
  1  2  1  0
  2  3  1  0
  2  4  1  0
  4  5  1  0
  5  6  1  0
  6  7  1  0
  7  8  1  0
  8  9  1  0
  9 10  2  0
 10 11  1  0
 11 12  1  0
 12 13  1  0
 13 14  1  0
 14 15  1  0
 15 16  1  0
  9 17  1  0
 17 18  1  0
 18 19  1  0
 19 20  1  0
 20 21  1  0
 21 22  1  0
 22 23  1  0
  6 24  2  0
 24 25  1  0
 25 26  1  0
 26 27  2  0
 27  2  1  0
 26  5  1  0
 16 11  1  0
 23 18  1  0
  1 28  1  0
  1 29  1  0
  1 30  1  0
  3 31  1  0
  3 32  1  0
  3 33  1  0
  4 34  1  0
  4 35  1  0
  7 36  1  0
  7 37  1  0
 11 38  1  0
 12 39  1  0
 12 40  1  0
 13 41  1  0
 13 42  1  0
 14 43  1  0
 14 44  1  0
 15 45  1  0
 15 46  1  0
 16 47  1  0
 16 48  1  0
 17 49  1  0
 18 50  1  0
 19 51  1  0
 19 52  1  0
 20 53  1  0
 20 54  1  0
 21 55  1  0
 21 56  1  0
 22 57  1  0
 22 58  1  0
 23 59  1  0
 23 60  1  0
 24 61  1  0
M  END
$$$$
