
     RDKit          3D

 46 49  0  0  0  0  0  0  0  0999 V2000
    3.4796   -1.5427   -1.5072 C   0  0  0  0  0  0  0  0  0  0  0  0
    2.5732   -0.3796   -1.1116 C   0  0  0  0  0  0  0  0  0  0  0  0
    2.7394    0.7321   -2.1153 C   0  0  0  0  0  0  0  0  0  0  0  0
    4.1555    1.2139   -2.2137 C   0  0  0  0  0  0  0  0  0  0  0  0
    5.0188    0.1811   -2.6234 O   0  0  0  0  0  0  0  0  0  0  0  0
    1.2148   -0.9065   -1.1659 N   0  0  0  0  0  0  0  0  0  0  0  0
    0.8505   -1.8260   -2.1301 C   0  0  0  0  0  0  0  0  0  0  0  0
   -0.4149   -2.1619   -1.9487 N   0  0  0  0  0  0  0  0  0  0  0  0
   -0.9270   -1.5224   -0.9033 C   0  0  0  0  0  0  0  0  0  0  0  0
   -2.2792   -1.6200   -0.3494 C   0  0  0  0  0  0  0  0  0  0  0  0
   -3.3710   -1.7807   -1.1964 C   0  0  0  0  0  0  0  0  0  0  0  0
   -4.6327   -1.8469   -0.5850 C   0  0  0  0  0  0  0  0  0  0  0  0
   -4.8788   -1.7649    0.7540 C   0  0  0  0  0  0  0  0  0  0  0  0
   -6.0758   -1.8422    1.3359 F   0  0  0  0  0  0  0  0  0  0  0  0
   -3.7679   -1.5988    1.6155 C   0  0  0  0  0  0  0  0  0  0  0  0
   -2.5153   -1.5345    0.9979 C   0  0  0  0  0  0  0  0  0  0  0  0
    0.1303   -0.7204   -0.4204 C   0  0  0  0  0  0  0  0  0  0  0  0
    0.0246    0.1576    0.7262 C   0  0  0  0  0  0  0  0  0  0  0  0
    0.9238   -0.0602    1.7967 C   0  0  0  0  0  0  0  0  0  0  0  0
    0.7612    0.7835    2.8627 C   0  0  0  0  0  0  0  0  0  0  0  0
   -0.0940    1.7473    3.0195 C   0  0  0  0  0  0  0  0  0  0  0  0
   -0.3418    2.6150    4.0122 N   0  0  0  0  0  0  0  0  0  0  0  0
   -1.4269    3.3960    3.5473 C   0  0  0  0  0  0  0  0  0  0  0  0
   -1.7614    2.9688    2.3434 C   0  0  0  0  0  0  0  0  0  0  0  0
   -2.8823    3.5806    1.5079 C   0  0  0  0  0  0  0  0  0  0  0  0
   -3.7126    4.0289    0.8831 N   0  0  0  0  0  0  0  0  0  0  0  0
   -1.0178    1.9907    1.9550 N   0  0  0  0  0  0  0  0  0  0  0  0
   -0.8679    1.1578    0.8873 C   0  0  0  0  0  0  0  0  0  0  0  0
    4.4954   -1.4636   -1.1522 H   0  0  0  0  0  0  0  0  0  0  0  0
    3.0553   -2.5004   -1.1143 H   0  0  0  0  0  0  0  0  0  0  0  0
    3.5130   -1.5540   -2.6286 H   0  0  0  0  0  0  0  0  0  0  0  0
    2.8467    0.0051   -0.1088 H   0  0  0  0  0  0  0  0  0  0  0  0
    2.0386    1.5375   -1.7687 H   0  0  0  0  0  0  0  0  0  0  0  0
    2.3461    0.4064   -3.0767 H   0  0  0  0  0  0  0  0  0  0  0  0
    4.1875    2.0542   -2.9357 H   0  0  0  0  0  0  0  0  0  0  0  0
    4.5181    1.6365   -1.2261 H   0  0  0  0  0  0  0  0  0  0  0  0
    5.0496    0.0513   -3.6102 H   0  0  0  0  0  0  0  0  0  0  0  0
    1.5435   -2.1865   -2.8980 H   0  0  0  0  0  0  0  0  0  0  0  0
   -3.2265   -1.8415   -2.2625 H   0  0  0  0  0  0  0  0  0  0  0  0
   -5.4748   -1.9734   -1.2930 H   0  0  0  0  0  0  0  0  0  0  0  0
   -3.8733   -1.5197    2.6936 H   0  0  0  0  0  0  0  0  0  0  0  0
   -1.6272   -1.4187    1.6599 H   0  0  0  0  0  0  0  0  0  0  0  0
    1.6394   -0.8192    1.7685 H   0  0  0  0  0  0  0  0  0  0  0  0
    1.4969    0.6019    3.7262 H   0  0  0  0  0  0  0  0  0  0  0  0
   -1.8370    4.1786    4.1855 H   0  0  0  0  0  0  0  0  0  0  0  0
   -1.5957    1.3599    0.0669 H   0  0  0  0  0  0  0  0  0  0  0  0
  1  2  1  0
  2  3  1  0
  3  4  1  0
  4  5  1  0
  2  6  1  0
  6  7  1  0
  7  8  2  0
  8  9  1  0
  9 10  1  0
 10 11  2  0
 11 12  1  0
 12 13  2  0
 13 14  1  0
 13 15  1  0
 15 16  2  0
  9 17  2  0
 17 18  1  0
 18 19  1  0
 19 20  2  0
 20 21  1  0
 21 22  2  0
 22 23  1  0
 23 24  2  0
 24 25  1  0
 25 26  3  0
 24 27  1  0
 27 28  1  0
 17  6  1  0
 28 18  2  0
 16 10  1  0
 27 21  1  0
  1 29  1  0
  1 30  1  0
  1 31  1  0
  2 32  1  0
  3 33  1  0
  3 34  1  0
  4 35  1  0
  4 36  1  0
  5 37  1  0
  7 38  1  0
 11 39  1  0
 12 40  1  0
 15 41  1  0
 16 42  1  0
 19 43  1  0
 20 44  1  0
 23 45  1  0
 28 46  1  0
M  END
$$$$
