
     RDKit          3D

 58 60  0  0  0  0  0  0  0  0999 V2000
   -4.9873   -0.6633   -1.2862 C   0  0  0  0  0  0  0  0  0  0  0  0
   -4.3299    0.2541   -0.2477 C   0  0  0  0  0  0  0  0  0  0  0  0
   -2.9401   -0.2634   -0.0494 C   0  0  0  0  0  0  0  0  0  0  0  0
   -1.8590    0.4691   -0.1617 C   0  0  0  0  0  0  0  0  0  0  0  0
   -1.8904    1.9123   -0.4914 C   0  0  0  0  0  0  0  0  0  0  0  0
   -2.7004    2.7961    0.2230 C   0  0  0  0  0  0  0  0  0  0  0  0
   -2.8480    4.1407    0.0149 C   0  0  0  0  0  0  0  0  0  0  0  0
   -2.1118    4.6723   -1.0137 C   0  0  0  0  0  0  0  0  0  0  0  0
   -2.2315    6.0350   -1.2606 O   0  0  0  0  0  0  0  0  0  0  0  0
   -1.2857    3.8396   -1.7606 C   0  0  0  0  0  0  0  0  0  0  0  0
   -1.1763    2.4812   -1.5046 C   0  0  0  0  0  0  0  0  0  0  0  0
   -0.4701    0.0905   -0.0256 C   0  0  0  0  0  0  0  0  0  0  0  0
    0.3365   -0.8513   -0.6089 C   0  0  0  0  0  0  0  0  0  0  0  0
    1.6513   -1.1022   -0.3205 C   0  0  0  0  0  0  0  0  0  0  0  0
    2.2820   -0.3603    0.6481 C   0  0  0  0  0  0  0  0  0  0  0  0
    3.5924   -0.5430    0.9975 O   0  0  0  0  0  0  0  0  0  0  0  0
    4.3551   -1.5302    0.3422 C   0  0  0  0  0  0  0  0  0  0  0  0
    5.7554   -1.5646    0.8718 C   0  0  0  0  0  0  0  0  0  0  0  0
    6.4090   -0.3075    0.6854 N   0  0  0  0  0  0  0  0  0  0  0  0
    6.6402   -0.0341   -0.7092 C   0  0  0  0  0  0  0  0  0  0  0  0
    5.7885    0.8110    1.3344 C   0  0  0  0  0  0  0  0  0  0  0  0
    1.5876    0.6214    1.3141 C   0  0  0  0  0  0  0  0  0  0  0  0
    0.2485    0.8086    0.9548 C   0  0  0  0  0  0  0  0  0  0  0  0
   -2.9747   -1.6794    0.2635 C   0  0  0  0  0  0  0  0  0  0  0  0
   -2.4713   -2.8426   -0.2463 C   0  0  0  0  0  0  0  0  0  0  0  0
   -2.6340   -4.0697    0.3268 C   0  0  0  0  0  0  0  0  0  0  0  0
   -3.3371   -4.2603    1.4963 C   0  0  0  0  0  0  0  0  0  0  0  0
   -3.8772   -3.1385    2.0694 C   0  0  0  0  0  0  0  0  0  0  0  0
   -3.6930   -1.8915    1.4606 C   0  0  0  0  0  0  0  0  0  0  0  0
   -5.7858   -0.1471   -1.8472 H   0  0  0  0  0  0  0  0  0  0  0  0
   -4.1928   -1.0429   -1.9485 H   0  0  0  0  0  0  0  0  0  0  0  0
   -5.4634   -1.5315   -0.7866 H   0  0  0  0  0  0  0  0  0  0  0  0
   -4.9085    0.1743    0.6796 H   0  0  0  0  0  0  0  0  0  0  0  0
   -4.3188    1.2728   -0.6828 H   0  0  0  0  0  0  0  0  0  0  0  0
   -3.2808    2.3797    1.0639 H   0  0  0  0  0  0  0  0  0  0  0  0
   -3.5165    4.7227    0.6429 H   0  0  0  0  0  0  0  0  0  0  0  0
   -3.1792    6.3827   -1.3823 H   0  0  0  0  0  0  0  0  0  0  0  0
   -0.6956    4.2712   -2.5862 H   0  0  0  0  0  0  0  0  0  0  0  0
   -0.5242    1.8516   -2.0985 H   0  0  0  0  0  0  0  0  0  0  0  0
   -0.1399   -1.4033   -1.3742 H   0  0  0  0  0  0  0  0  0  0  0  0
    2.1536   -1.8765   -0.8658 H   0  0  0  0  0  0  0  0  0  0  0  0
    3.8829   -2.5536    0.3887 H   0  0  0  0  0  0  0  0  0  0  0  0
    4.3128   -1.2720   -0.7428 H   0  0  0  0  0  0  0  0  0  0  0  0
    5.6821   -1.7891    1.9688 H   0  0  0  0  0  0  0  0  0  0  0  0
    6.3431   -2.3355    0.3326 H   0  0  0  0  0  0  0  0  0  0  0  0
    6.4959   -0.9676   -1.2915 H   0  0  0  0  0  0  0  0  0  0  0  0
    5.9705    0.7758   -1.0775 H   0  0  0  0  0  0  0  0  0  0  0  0
    7.6771    0.3519   -0.8047 H   0  0  0  0  0  0  0  0  0  0  0  0
    6.6252    1.5158    1.6100 H   0  0  0  0  0  0  0  0  0  0  0  0
    5.3318    0.4886    2.3086 H   0  0  0  0  0  0  0  0  0  0  0  0
    5.0596    1.2832    0.6696 H   0  0  0  0  0  0  0  0  0  0  0  0
    2.0482    1.2228    2.0763 H   0  0  0  0  0  0  0  0  0  0  0  0
   -0.2451    1.6035    1.5210 H   0  0  0  0  0  0  0  0  0  0  0  0
   -1.9599   -2.6696   -1.1546 H   0  0  0  0  0  0  0  0  0  0  0  0
   -2.1583   -4.8733   -0.2279 H   0  0  0  0  0  0  0  0  0  0  0  0
   -3.4236   -5.2627    1.8820 H   0  0  0  0  0  0  0  0  0  0  0  0
   -4.4280   -3.2898    2.9855 H   0  0  0  0  0  0  0  0  0  0  0  0
   -4.1913   -1.1123    2.0615 H   0  0  0  0  0  0  0  0  0  0  0  0
  1  2  1  0
  2  3  1  0
  3  4  2  0
  4  5  1  0
  5  6  2  0
  6  7  1  0
  7  8  2  0
  8  9  1  0
  8 10  1  0
 10 11  2  0
  4 12  1  0
 12 13  2  0
 13 14  1  0
 14 15  2  0
 15 16  1  0
 16 17  1  0
 17 18  1  0
 18 19  1  0
 19 20  1  0
 19 21  1  0
 15 22  1  0
 22 23  2  0
  3 24  1  0
 24 25  2  0
 25 26  1  0
 26 27  2  0
 27 28  1  0
 28 29  2  0
 11  5  1  0
 23 12  1  0
 29 24  1  0
  1 30  1  0
  1 31  1  0
  1 32  1  0
  2 33  1  0
  2 34  1  0
  6 35  1  0
  7 36  1  0
  9 37  1  0
 10 38  1  0
 11 39  1  0
 13 40  1  0
 14 41  1  0
 17 42  1  0
 17 43  1  0
 18 44  1  0
 18 45  1  0
 20 46  1  0
 20 47  1  0
 20 48  1  0
 21 49  1  0
 21 50  1  0
 21 51  1  0
 22 52  1  0
 23 53  1  0
 25 54  1  0
 26 55  1  0
 27 56  1  0
 28 57  1  0
 29 58  1  0
M  END
$$$$
