
     RDKit          3D

 30 30  0  0  0  0  0  0  0  0999 V2000
   -3.3320   -1.0399   -0.2166 N   0  0  0  0  0  0  0  0  0  0  0  0
   -2.2433   -0.1251    0.2244 C   0  0  2  0  0  0  0  0  0  0  0  0
   -2.4048    1.1186   -0.5659 C   0  0  0  0  0  0  0  0  0  0  0  0
   -3.7246    1.5811   -0.2646 O   0  0  0  0  0  0  0  0  0  0  0  0
   -1.0005   -0.9020    0.1043 C   0  0  0  0  0  0  0  0  0  0  0  0
    0.2972   -0.2965    0.4618 C   0  0  0  0  0  0  0  0  0  0  0  0
    1.4145   -1.3516    0.2669 C   0  0  0  0  0  0  0  0  0  0  0  0
    2.7032   -0.8029    0.8332 C   0  0  0  0  0  0  0  0  0  0  0  0
    2.9376    0.6175    0.3879 C   0  0  0  0  0  0  0  0  0  0  0  0
    2.1094    0.8213   -0.8532 C   0  0  0  0  0  0  0  0  0  0  0  0
    0.6442    0.9000   -0.4376 C   0  0  0  0  0  0  0  0  0  0  0  0
   -3.1883   -1.1803   -1.2573 H   0  0  0  0  0  0  0  0  0  0  0  0
   -3.0992   -1.9582    0.2245 H   0  0  0  0  0  0  0  0  0  0  0  0
   -2.4836    0.1134    1.2813 H   0  0  0  0  0  0  0  0  0  0  0  0
   -2.3572    1.0409   -1.6470 H   0  0  0  0  0  0  0  0  0  0  0  0
   -1.7551    1.9568   -0.1822 H   0  0  0  0  0  0  0  0  0  0  0  0
   -3.7083    2.0548    0.6015 H   0  0  0  0  0  0  0  0  0  0  0  0
   -1.1361   -1.8295    0.7427 H   0  0  0  0  0  0  0  0  0  0  0  0
   -0.8907   -1.3488   -0.9318 H   0  0  0  0  0  0  0  0  0  0  0  0
    0.4042    0.0534    1.4965 H   0  0  0  0  0  0  0  0  0  0  0  0
    1.1198   -2.2143    0.8778 H   0  0  0  0  0  0  0  0  0  0  0  0
    1.5130   -1.6670   -0.7697 H   0  0  0  0  0  0  0  0  0  0  0  0
    2.6940   -0.8219    1.9406 H   0  0  0  0  0  0  0  0  0  0  0  0
    3.5389   -1.4236    0.4862 H   0  0  0  0  0  0  0  0  0  0  0  0
    3.9963    0.7432    0.1190 H   0  0  0  0  0  0  0  0  0  0  0  0
    2.6481    1.3556    1.1682 H   0  0  0  0  0  0  0  0  0  0  0  0
    2.4225    1.7698   -1.3002 H   0  0  0  0  0  0  0  0  0  0  0  0
    2.2916    0.0326   -1.5810 H   0  0  0  0  0  0  0  0  0  0  0  0
    0.5635    1.8431    0.1250 H   0  0  0  0  0  0  0  0  0  0  0  0
    0.0256    0.9594   -1.3345 H   0  0  0  0  0  0  0  0  0  0  0  0
  1  2  1  0
  2  3  1  0
  3  4  1  0
  2  5  1  0
  5  6  1  0
  6  7  1  0
  7  8  1  0
  8  9  1  0
  9 10  1  0
 10 11  1  0
 11  6  1  0
  1 12  1  0
  1 13  1  0
  2 14  1  1
  3 15  1  0
  3 16  1  0
  4 17  1  0
  5 18  1  0
  5 19  1  0
  6 20  1  0
  7 21  1  0
  7 22  1  0
  8 23  1  0
  8 24  1  0
  9 25  1  0
  9 26  1  0
 10 27  1  0
 10 28  1  0
 11 29  1  0
 11 30  1  0
M  END
$$$$
