
     RDKit          3D

 45 46  0  0  0  0  0  0  0  0999 V2000
    0.6798   -0.6335    1.3854 C   0  0  0  0  0  0  0  0  0  0  0  0
    1.2511   -1.2028    0.2123 N   0  0  0  0  0  0  0  0  0  0  0  0
    2.5373   -0.6722   -0.1486 C   0  0  0  0  0  0  0  0  0  0  0  0
    2.7234    0.7658    0.2491 C   0  0  0  0  0  0  0  0  0  0  0  0
    4.0838    1.1810   -0.1807 C   0  0  0  0  0  0  0  0  0  0  0  0
    5.1947    1.0601    0.6107 C   0  0  0  0  0  0  0  0  0  0  0  0
    6.4484    1.4562    0.1795 C   0  0  0  0  0  0  0  0  0  0  0  0
    6.5659    1.9912   -1.0989 C   0  0  0  0  0  0  0  0  0  0  0  0
    5.4594    2.1238   -1.9174 C   0  0  0  0  0  0  0  0  0  0  0  0
    4.2363    1.7158   -1.4430 C   0  0  0  0  0  0  0  0  0  0  0  0
    0.1740   -0.9166   -1.1076 S   0  0  0  0  0  6  0  0  0  0  0  0
    0.7664   -1.4010   -2.3913 O   0  0  0  0  0  0  0  0  0  0  0  0
   -0.1187    0.5666   -1.2515 O   0  0  0  0  0  0  0  0  0  0  0  0
   -1.3530   -1.7099   -0.7654 C   0  0  0  0  0  0  0  0  0  0  0  0
   -1.6063   -3.0046   -1.1428 C   0  0  0  0  0  0  0  0  0  0  0  0
   -2.8147   -3.6169   -0.8663 C   0  0  0  0  0  0  0  0  0  0  0  0
   -3.7936   -2.9051   -0.1916 C   0  0  0  0  0  0  0  0  0  0  0  0
   -3.5812   -1.5977    0.2075 C   0  0  0  0  0  0  0  0  0  0  0  0
   -4.6510   -0.9044    0.9133 C   0  0  0  0  0  0  0  0  0  0  0  0
   -4.5999    0.3291    1.3522 C   0  0  0  0  0  0  0  0  0  0  0  0
   -5.7259    0.9372    2.0496 C   0  0  0  0  0  0  0  0  0  0  0  0
   -6.7852    0.2946    2.2527 O   0  0  0  0  0  0  0  0  0  0  0  0
   -5.6289    2.2716    2.5068 N   0  0  0  0  0  0  0  0  0  0  0  0
   -6.6477    2.8963    3.1656 O   0  0  0  0  0  0  0  0  0  0  0  0
   -2.3722   -1.0316   -0.0864 C   0  0  0  0  0  0  0  0  0  0  0  0
    1.1719   -0.9404    2.3276 H   0  0  0  0  0  0  0  0  0  0  0  0
    0.6472    0.4725    1.3393 H   0  0  0  0  0  0  0  0  0  0  0  0
   -0.3722   -0.9804    1.4602 H   0  0  0  0  0  0  0  0  0  0  0  0
    3.3034   -1.2611    0.3980 H   0  0  0  0  0  0  0  0  0  0  0  0
    2.7672   -0.7582   -1.2175 H   0  0  0  0  0  0  0  0  0  0  0  0
    2.6688    0.8816    1.3593 H   0  0  0  0  0  0  0  0  0  0  0  0
    2.0104    1.4576   -0.2403 H   0  0  0  0  0  0  0  0  0  0  0  0
    5.0482    0.6328    1.6083 H   0  0  0  0  0  0  0  0  0  0  0  0
    7.3070    1.3454    0.8340 H   0  0  0  0  0  0  0  0  0  0  0  0
    7.5181    2.3072   -1.4642 H   0  0  0  0  0  0  0  0  0  0  0  0
    5.5710    2.5399   -2.9027 H   0  0  0  0  0  0  0  0  0  0  0  0
    3.3697    1.8223   -2.0905 H   0  0  0  0  0  0  0  0  0  0  0  0
   -0.8107   -3.5333   -1.6725 H   0  0  0  0  0  0  0  0  0  0  0  0
   -2.9666   -4.6416   -1.1852 H   0  0  0  0  0  0  0  0  0  0  0  0
   -4.7274   -3.4090    0.0106 H   0  0  0  0  0  0  0  0  0  0  0  0
   -5.6010   -1.4240    1.1165 H   0  0  0  0  0  0  0  0  0  0  0  0
   -3.7013    0.8938    1.1873 H   0  0  0  0  0  0  0  0  0  0  0  0
   -4.7319    2.7786    2.3210 H   0  0  0  0  0  0  0  0  0  0  0  0
   -6.7386    3.8263    2.8480 H   0  0  0  0  0  0  0  0  0  0  0  0
   -2.1757   -0.0032    0.2152 H   0  0  0  0  0  0  0  0  0  0  0  0
  1  2  1  0
  2  3  1  0
  3  4  1  0
  4  5  1  0
  5  6  2  0
  6  7  1  0
  7  8  2  0
  8  9  1  0
  9 10  2  0
  2 11  1  0
 11 12  2  0
 11 13  2  0
 11 14  1  0
 14 15  2  0
 15 16  1  0
 16 17  2  0
 17 18  1  0
 18 19  1  0
 19 20  2  0
 20 21  1  0
 21 22  2  0
 21 23  1  0
 23 24  1  0
 18 25  2  0
 10  5  1  0
 25 14  1  0
  1 26  1  0
  1 27  1  0
  1 28  1  0
  3 29  1  0
  3 30  1  0
  4 31  1  0
  4 32  1  0
  6 33  1  0
  7 34  1  0
  8 35  1  0
  9 36  1  0
 10 37  1  0
 15 38  1  0
 16 39  1  0
 17 40  1  0
 19 41  1  0
 20 42  1  0
 23 43  1  0
 24 44  1  0
 25 45  1  0
M  END
$$$$
