
     RDKit          3D

 51 54  0  0  0  0  0  0  0  0999 V2000
    6.7717    0.6435    4.0017 C   0  0  0  0  0  0  0  0  0  0  0  0
    7.3844    1.1570    2.9071 C   0  0  0  0  0  0  0  0  0  0  0  0
    8.0160    1.6646    1.7725 C   0  0  0  0  0  0  0  0  0  0  0  0
    7.6449    0.9285    0.5938 O   0  0  0  0  0  0  0  0  0  0  0  0
    6.3375    0.7569    0.2761 C   0  0  0  0  0  0  0  0  0  0  0  0
    5.8507    0.0628   -0.8448 C   0  0  0  0  0  0  0  0  0  0  0  0
    4.5274   -0.0044   -0.9643 N   0  0  0  0  0  0  0  0  0  0  0  0
    3.6058    0.4799   -0.2023 C   0  0  0  0  0  0  0  0  0  0  0  0
    2.1873    0.2171   -0.3767 C   0  0  0  0  0  0  0  0  0  0  0  0
    1.3240    0.6287    0.5953 F   0  0  0  0  0  0  0  0  0  0  0  0
    1.7912   -0.4283   -1.3695 C   0  0  0  0  0  0  0  0  0  0  0  0
    0.3628   -0.8192   -1.7305 C   0  0  0  0  0  0  0  0  0  0  0  0
    0.2975   -2.0085   -2.3539 C   0  0  0  0  0  0  0  0  0  0  0  0
   -0.9215   -2.7607   -2.2837 C   0  0  0  0  0  0  0  0  0  0  0  0
   -1.9201   -2.0937   -1.5306 C   0  0  0  0  0  0  0  0  0  0  0  0
   -3.0288   -2.9611   -1.4121 F   0  0  0  0  0  0  0  0  0  0  0  0
   -1.8629   -0.9434   -0.9424 C   0  0  0  0  0  0  0  0  0  0  0  0
   -2.8212   -0.3539    0.0193 C   0  0  1  0  0  0  0  0  0  0  0  0
   -2.3496   -1.1386    1.3245 C   0  0  0  0  0  0  0  0  0  0  0  0
   -2.4094    1.0173    0.3303 N   0  0  0  0  0  0  0  0  0  0  0  0
   -2.8886    2.0066   -0.3844 C   0  0  0  0  0  0  0  0  0  0  0  0
   -2.5438    3.3237   -0.1492 N   0  0  0  0  0  0  0  0  0  0  0  0
   -4.0853    1.5726   -1.6348 S   0  0  0  0  0  0  0  0  0  0  0  0
   -5.1418    0.3084   -0.7778 C   0  0  1  0  0  0  0  0  0  0  0  0
   -6.3192    0.8303   -0.0993 C   0  0  0  0  0  0  0  0  0  0  0  0
   -6.8635    0.2179    1.0577 N   0  0  0  0  0  0  0  0  0  0  0  0
   -6.8795    1.8803   -0.5748 O   0  0  0  0  0  0  0  0  0  0  0  0
   -4.9969   -1.0632   -1.3012 C   0  0  0  0  0  0  0  0  0  0  0  0
   -4.2483   -0.6354   -0.0627 C   0  0  1  0  0  0  0  0  0  0  0  0
   -0.6343   -0.1885   -1.0207 C   0  0  0  0  0  0  0  0  0  0  0  0
    4.0798    1.1861    0.9323 C   0  0  0  0  0  0  0  0  0  0  0  0
    5.3910    1.2777    1.1034 N   0  0  0  0  0  0  0  0  0  0  0  0
    6.2632    0.2417    4.8876 H   0  0  0  0  0  0  0  0  0  0  0  0
    9.1571    1.6260    1.8939 H   0  0  0  0  0  0  0  0  0  0  0  0
    7.7745    2.7441    1.6185 H   0  0  0  0  0  0  0  0  0  0  0  0
    6.5575   -0.3615   -1.5376 H   0  0  0  0  0  0  0  0  0  0  0  0
    2.5331   -0.7531   -2.1379 H   0  0  0  0  0  0  0  0  0  0  0  0
    1.1121   -2.4384   -2.9335 H   0  0  0  0  0  0  0  0  0  0  0  0
   -0.9796   -3.6783   -2.7514 H   0  0  0  0  0  0  0  0  0  0  0  0
   -2.7349   -0.5747    2.1982 H   0  0  0  0  0  0  0  0  0  0  0  0
   -2.9187   -2.0903    1.2397 H   0  0  0  0  0  0  0  0  0  0  0  0
   -1.2624   -1.2567    1.2877 H   0  0  0  0  0  0  0  0  0  0  0  0
   -2.9214    3.8515    0.6925 H   0  0  0  0  0  0  0  0  0  0  0  0
   -1.8890    3.8582   -0.7848 H   0  0  0  0  0  0  0  0  0  0  0  0
   -6.3101   -0.2715    1.7898 H   0  0  0  0  0  0  0  0  0  0  0  0
   -7.9197    0.2318    1.2272 H   0  0  0  0  0  0  0  0  0  0  0  0
   -5.7644   -1.8483   -1.1765 H   0  0  0  0  0  0  0  0  0  0  0  0
   -4.4472   -1.1912   -2.2841 H   0  0  0  0  0  0  0  0  0  0  0  0
   -4.7516   -1.0795    0.8514 H   0  0  0  0  0  0  0  0  0  0  0  0
   -0.5232    0.7586   -0.5835 H   0  0  0  0  0  0  0  0  0  0  0  0
    3.3677    1.6024    1.6045 H   0  0  0  0  0  0  0  0  0  0  0  0
  1  2  3  0
  2  3  1  0
  3  4  1  0
  4  5  1  0
  5  6  2  0
  6  7  1  0
  7  8  2  0
  8  9  1  0
  9 10  1  0
  9 11  2  0
 11 12  1  0
 12 13  2  0
 13 14  1  0
 14 15  2  0
 15 16  1  0
 15 17  1  0
 17 18  1  0
 18 19  1  1
 18 20  1  0
 20 21  2  0
 21 22  1  0
 21 23  1  0
 23 24  1  0
 24 25  1  1
 25 26  1  0
 25 27  2  0
 24 28  1  0
 28 29  1  0
 17 30  2  0
  8 31  1  0
 31 32  2  0
 32  5  1  0
 30 12  1  0
 29 18  1  0
 29 24  1  0
  1 33  1  0
  3 34  1  0
  3 35  1  0
  6 36  1  0
 11 37  1  0
 13 38  1  0
 14 39  1  0
 19 40  1  0
 19 41  1  0
 19 42  1  0
 22 43  1  0
 22 44  1  0
 26 45  1  0
 26 46  1  0
 28 47  1  0
 28 48  1  0
 29 49  1  1
 30 50  1  0
 31 51  1  0
M  END
$$$$
