
     RDKit          3D

 35 37  0  0  0  0  0  0  0  0999 V2000
    5.9559    0.2315    0.5304 O   0  0  0  0  0  0  0  0  0  0  0  0
    5.2213    0.0691   -0.4756 C   0  0  0  0  0  0  0  0  0  0  0  0
    5.8276    0.0832   -1.7376 N   0  0  0  0  0  0  0  0  0  0  0  0
    7.1626    0.2632   -1.9163 O   0  0  0  0  0  0  0  0  0  0  0  0
    3.7898   -0.1264   -0.3255 C   0  0  0  0  0  0  0  0  0  0  0  0
    3.2576   -0.1296    0.9702 C   0  0  0  0  0  0  0  0  0  0  0  0
    1.9138   -0.3095    1.1835 C   0  0  0  0  0  0  0  0  0  0  0  0
    1.0458   -0.4929    0.1239 C   0  0  0  0  0  0  0  0  0  0  0  0
   -0.3450   -0.6759    0.4017 N   0  0  0  0  0  0  0  0  0  0  0  0
   -1.2242   -0.8640   -0.7021 C   0  0  0  0  0  0  0  0  0  0  0  0
   -2.6309   -1.0293   -0.1181 C   0  0  0  0  0  0  0  0  0  0  0  0
   -3.1705   -2.2780   -0.0587 C   0  0  0  0  0  0  0  0  0  0  0  0
   -4.7866   -2.0229    0.6750 S   0  0  0  0  0  0  0  0  0  0  0  0
   -4.6109   -0.2734    0.8425 C   0  0  0  0  0  0  0  0  0  0  0  0
   -5.4969    0.6792    1.3576 C   0  0  0  0  0  0  0  0  0  0  0  0
   -5.1368    2.0063    1.3866 C   0  0  0  0  0  0  0  0  0  0  0  0
   -3.8857    2.2961    0.8865 C   0  0  0  0  0  0  0  0  0  0  0  0
   -3.3686    4.1375    0.9196 Br  0  0  0  0  0  0  0  0  0  0  0  0
   -3.0235    1.3520    0.3827 C   0  0  0  0  0  0  0  0  0  0  0  0
   -3.3973   -0.0172    0.3539 C   0  0  0  0  0  0  0  0  0  0  0  0
    1.5359   -0.4952   -1.1631 C   0  0  0  0  0  0  0  0  0  0  0  0
    2.9076   -0.3096   -1.3451 C   0  0  0  0  0  0  0  0  0  0  0  0
    5.2640   -0.0461   -2.5924 H   0  0  0  0  0  0  0  0  0  0  0  0
    7.6250   -0.0215   -1.0760 H   0  0  0  0  0  0  0  0  0  0  0  0
    3.9320    0.0130    1.7992 H   0  0  0  0  0  0  0  0  0  0  0  0
    1.4968   -0.3120    2.2012 H   0  0  0  0  0  0  0  0  0  0  0  0
   -0.6775   -0.6673    1.3934 H   0  0  0  0  0  0  0  0  0  0  0  0
   -0.9921   -1.6808   -1.3769 H   0  0  0  0  0  0  0  0  0  0  0  0
   -1.2583    0.0742   -1.3109 H   0  0  0  0  0  0  0  0  0  0  0  0
   -2.7482   -3.2670   -0.3787 H   0  0  0  0  0  0  0  0  0  0  0  0
   -6.4387    0.2973    1.7114 H   0  0  0  0  0  0  0  0  0  0  0  0
   -5.8036    2.7615    1.7795 H   0  0  0  0  0  0  0  0  0  0  0  0
   -2.0799    1.7059    0.0243 H   0  0  0  0  0  0  0  0  0  0  0  0
    0.8505   -0.6391   -1.9840 H   0  0  0  0  0  0  0  0  0  0  0  0
    3.2890   -0.3122   -2.3622 H   0  0  0  0  0  0  0  0  0  0  0  0
  1  2  2  0
  2  3  1  0
  3  4  1  0
  2  5  1  0
  5  6  2  0
  6  7  1  0
  7  8  2  0
  8  9  1  0
  9 10  1  0
 10 11  1  0
 11 12  2  0
 12 13  1  0
 13 14  1  0
 14 15  2  0
 15 16  1  0
 16 17  2  0
 17 18  1  0
 17 19  1  0
 19 20  2  0
  8 21  1  0
 21 22  2  0
 22  5  1  0
 20 11  1  0
 20 14  1  0
  3 23  1  0
  4 24  1  0
  6 25  1  0
  7 26  1  0
  9 27  1  0
 10 28  1  0
 10 29  1  0
 12 30  1  0
 15 31  1  0
 16 32  1  0
 19 33  1  0
 21 34  1  0
 22 35  1  0
M  END
$$$$
