
     RDKit          3D

 64 69  0  0  0  0  0  0  0  0999 V2000
   -5.8637    2.1902   -0.2963 C   0  0  0  0  0  0  0  0  0  0  0  0
   -6.0193    0.8721    0.3724 C   0  0  0  0  0  0  0  0  0  0  0  0
   -7.0974    0.6743    1.2447 C   0  0  0  0  0  0  0  0  0  0  0  0
   -7.2442   -0.5333    1.8605 C   0  0  0  0  0  0  0  0  0  0  0  0
   -6.3318   -1.5235    1.6096 C   0  0  0  0  0  0  0  0  0  0  0  0
   -5.3207   -1.2954    0.7735 N   0  0  0  0  0  0  0  0  0  0  0  0
   -5.1077   -0.1342    0.1288 C   0  0  0  0  0  0  0  0  0  0  0  0
   -3.9987    0.1312   -0.7939 C   0  0  0  0  0  0  0  0  0  0  0  0
   -2.9469    0.9425   -0.2292 N   0  0  0  0  0  0  0  0  0  0  0  0
   -2.3339    0.3635    0.9226 C   0  0  0  0  0  0  0  0  0  0  0  0
   -0.8518    0.5241    0.9422 C   0  0  0  0  0  0  0  0  0  0  0  0
   -0.1243   -0.0171   -0.2391 C   0  0  0  0  0  0  0  0  0  0  0  0
   -1.0288    0.0601   -1.4496 C   0  0  0  0  0  0  0  0  0  0  0  0
   -1.9940    1.1899   -1.3064 C   0  0  0  0  0  0  0  0  0  0  0  0
    1.1215    0.7787   -0.5126 C   0  0  0  0  0  0  0  0  0  0  0  0
    1.1973    1.9276   -1.0399 O   0  0  0  0  0  0  0  0  0  0  0  0
    2.2523    0.0358   -0.0808 N   0  0  0  0  0  0  0  0  0  0  0  0
    3.5856    0.5490    0.0494 C   0  0  0  0  0  0  0  0  0  0  0  0
    4.4478    0.4856   -1.0216 C   0  0  0  0  0  0  0  0  0  0  0  0
    5.7293    0.9594   -0.9464 C   0  0  0  0  0  0  0  0  0  0  0  0
    6.1901    1.5191    0.2234 C   0  0  0  0  0  0  0  0  0  0  0  0
    7.5174    2.0001    0.2755 N   0  0  0  0  0  0  0  0  0  0  0  0
    8.5183    1.4284    0.9485 C   0  0  0  0  0  0  0  0  0  0  0  0
    9.6591    2.1675    0.7719 C   0  0  0  0  0  0  0  0  0  0  0  0
    9.2992    3.2266   -0.0493 C   0  0  0  0  0  0  0  0  0  0  0  0
    7.9793    3.0623   -0.3138 N   0  0  0  0  0  0  0  0  0  0  0  0
    5.3335    1.5843    1.2938 C   0  0  0  0  0  0  0  0  0  0  0  0
    4.0406    1.1066    1.2191 C   0  0  0  0  0  0  0  0  0  0  0  0
    1.7662   -1.2694    0.1769 C   0  0  0  0  0  0  0  0  0  0  0  0
    2.4845   -2.2154    0.5806 O   0  0  0  0  0  0  0  0  0  0  0  0
    0.3715   -1.3670   -0.0791 N   0  0  0  0  0  0  0  0  0  0  0  0
   -0.3999   -2.5870   -0.1657 C   0  0  0  0  0  0  0  0  0  0  0  0
   -0.9751   -3.1222    0.9448 C   0  0  0  0  0  0  0  0  0  0  0  0
   -1.7069   -4.2876    0.8374 C   0  0  0  0  0  0  0  0  0  0  0  0
   -2.2625   -4.8273    1.8384 O   0  0  0  0  0  0  0  0  0  0  0  0
   -1.8364   -4.8743   -0.3758 N   0  0  0  0  0  0  0  0  0  0  0  0
   -1.2699   -4.3484   -1.4735 C   0  0  0  0  0  0  0  0  0  0  0  0
   -0.5636   -3.2149   -1.3425 N   0  0  0  0  0  0  0  0  0  0  0  0
   -6.7822    2.8135   -0.0978 H   0  0  0  0  0  0  0  0  0  0  0  0
   -5.8420    2.0945   -1.4144 H   0  0  0  0  0  0  0  0  0  0  0  0
   -5.0170    2.7792    0.0962 H   0  0  0  0  0  0  0  0  0  0  0  0
   -7.8183    1.4592    1.4418 H   0  0  0  0  0  0  0  0  0  0  0  0
   -8.0636   -0.7404    2.5475 H   0  0  0  0  0  0  0  0  0  0  0  0
   -6.3772   -2.5198    2.0623 H   0  0  0  0  0  0  0  0  0  0  0  0
   -3.5487   -0.8175   -1.1552 H   0  0  0  0  0  0  0  0  0  0  0  0
   -4.3980    0.6818   -1.6705 H   0  0  0  0  0  0  0  0  0  0  0  0
   -2.7333    0.8851    1.8180 H   0  0  0  0  0  0  0  0  0  0  0  0
   -2.5760   -0.7163    0.9216 H   0  0  0  0  0  0  0  0  0  0  0  0
   -0.6287    1.6243    1.0571 H   0  0  0  0  0  0  0  0  0  0  0  0
   -0.4867    0.0740    1.9094 H   0  0  0  0  0  0  0  0  0  0  0  0
   -1.5652   -0.8717   -1.6172 H   0  0  0  0  0  0  0  0  0  0  0  0
   -0.3960    0.2628   -2.3398 H   0  0  0  0  0  0  0  0  0  0  0  0
   -2.5083    1.3197   -2.2797 H   0  0  0  0  0  0  0  0  0  0  0  0
   -1.5118    2.1587   -1.0768 H   0  0  0  0  0  0  0  0  0  0  0  0
    4.1399    0.0544   -1.9718 H   0  0  0  0  0  0  0  0  0  0  0  0
    6.4245    0.9135   -1.7950 H   0  0  0  0  0  0  0  0  0  0  0  0
    8.4472    0.5328    1.5361 H   0  0  0  0  0  0  0  0  0  0  0  0
   10.6184    1.9279    1.2077 H   0  0  0  0  0  0  0  0  0  0  0  0
    9.9735    3.9971   -0.3802 H   0  0  0  0  0  0  0  0  0  0  0  0
    5.7205    2.0348    2.2189 H   0  0  0  0  0  0  0  0  0  0  0  0
    3.3682    1.1581    2.0601 H   0  0  0  0  0  0  0  0  0  0  0  0
   -0.8798   -2.6647    1.9177 H   0  0  0  0  0  0  0  0  0  0  0  0
   -2.3924   -5.7667   -0.4786 H   0  0  0  0  0  0  0  0  0  0  0  0
   -1.3828   -4.8364   -2.4568 H   0  0  0  0  0  0  0  0  0  0  0  0
  1  2  1  0
  2  3  2  0
  3  4  1  0
  4  5  2  0
  5  6  1  0
  6  7  2  0
  7  8  1  0
  8  9  1  0
  9 10  1  0
 10 11  1  0
 11 12  1  0
 12 13  1  0
 13 14  1  0
 12 15  1  0
 15 16  2  0
 15 17  1  0
 17 18  1  0
 18 19  2  0
 19 20  1  0
 20 21  2  0
 21 22  1  0
 22 23  1  0
 23 24  2  0
 24 25  1  0
 25 26  2  0
 21 27  1  0
 27 28  2  0
 17 29  1  0
 29 30  2  0
 29 31  1  0
 31 32  1  0
 32 33  2  0
 33 34  1  0
 34 35  2  0
 34 36  1  0
 36 37  1  0
 37 38  2  0
  7  2  1  0
 14  9  1  0
 28 18  1  0
 38 32  1  0
 31 12  1  0
 26 22  1  0
  1 39  1  0
  1 40  1  0
  1 41  1  0
  3 42  1  0
  4 43  1  0
  5 44  1  0
  8 45  1  0
  8 46  1  0
 10 47  1  0
 10 48  1  0
 11 49  1  0
 11 50  1  0
 13 51  1  0
 13 52  1  0
 14 53  1  0
 14 54  1  0
 19 55  1  0
 20 56  1  0
 23 57  1  0
 24 58  1  0
 25 59  1  0
 27 60  1  0
 28 61  1  0
 33 62  1  0
 36 63  1  0
 37 64  1  0
M  END
$$$$
