
     RDKit          3D

 46 48  0  0  0  0  0  0  0  0999 V2000
    5.3881   -1.2731   -0.0315 C   0  0  0  0  0  0  0  0  0  0  0  0
    4.0944   -0.5510    0.0915 C   0  0  0  0  0  0  0  0  0  0  0  0
    3.6617    0.5652   -0.5166 N   0  0  0  0  0  0  0  0  0  0  0  0
    2.4514    0.8305   -0.0968 N   0  0  0  0  0  0  0  0  0  0  0  0
    2.0754   -0.1069    0.7900 C   0  0  0  0  0  0  0  0  0  0  0  0
    0.7435   -0.0618    1.4386 C   0  0  0  0  0  0  0  0  0  0  0  0
    0.3113   -1.3141    2.0778 C   0  0  0  0  0  0  0  0  0  0  0  0
   -0.2804    0.2428    0.3801 N   0  0  0  0  0  0  0  0  0  0  0  0
   -0.1925   -0.6802   -0.7003 C   0  0  0  0  0  0  0  0  0  0  0  0
   -1.0937   -0.7424   -1.7958 C   0  0  0  0  0  0  0  0  0  0  0  0
   -0.6920   -0.2968   -3.0673 C   0  0  0  0  0  0  0  0  0  0  0  0
   -1.4945   -0.3684   -4.1634 C   0  0  0  0  0  0  0  0  0  0  0  0
   -2.7565   -0.8901   -4.0713 C   0  0  0  0  0  0  0  0  0  0  0  0
   -3.2059   -1.3438   -2.8474 C   0  0  0  0  0  0  0  0  0  0  0  0
   -2.3798   -1.2640   -1.7458 C   0  0  0  0  0  0  0  0  0  0  0  0
   -2.9880   -1.8461   -0.2301 Cl  0  0  0  0  0  0  0  0  0  0  0  0
   -1.1656    1.2867    0.6258 C   0  0  0  0  0  0  0  0  0  0  0  0
   -2.0025    1.7856   -0.3509 C   0  0  0  0  0  0  0  0  0  0  0  0
   -2.9327    2.7849   -0.0917 C   0  0  0  0  0  0  0  0  0  0  0  0
   -3.0695    3.3368    1.1664 C   0  0  0  0  0  0  0  0  0  0  0  0
   -4.0265    4.3667    1.4384 C   0  0  0  0  0  0  0  0  0  0  0  0
   -4.7854    5.2080    1.6651 N   0  0  0  0  0  0  0  0  0  0  0  0
   -2.2279    2.8293    2.1280 C   0  0  0  0  0  0  0  0  0  0  0  0
   -2.3347    3.4804    3.7704 Cl  0  0  0  0  0  0  0  0  0  0  0  0
   -1.3016    1.8460    1.9093 C   0  0  0  0  0  0  0  0  0  0  0  0
    3.0647   -0.9414    0.9056 N   0  0  0  0  0  0  0  0  0  0  0  0
    3.1298   -2.1101    1.7441 C   0  0  0  0  0  0  0  0  0  0  0  0
    5.2496   -2.3366   -0.3005 H   0  0  0  0  0  0  0  0  0  0  0  0
    6.0514   -0.8183   -0.7836 H   0  0  0  0  0  0  0  0  0  0  0  0
    5.9418   -1.2317    0.9436 H   0  0  0  0  0  0  0  0  0  0  0  0
    0.8177    0.7447    2.1605 H   0  0  0  0  0  0  0  0  0  0  0  0
    0.5441   -2.2560    1.5906 H   0  0  0  0  0  0  0  0  0  0  0  0
    0.5274   -1.2968    3.1902 H   0  0  0  0  0  0  0  0  0  0  0  0
   -0.8274   -1.3034    2.0962 H   0  0  0  0  0  0  0  0  0  0  0  0
   -0.2179   -1.7454   -0.2396 H   0  0  0  0  0  0  0  0  0  0  0  0
    0.8800   -0.6322   -1.0742 H   0  0  0  0  0  0  0  0  0  0  0  0
    0.3007    0.1257   -3.1928 H   0  0  0  0  0  0  0  0  0  0  0  0
   -1.1529   -0.0131   -5.1388 H   0  0  0  0  0  0  0  0  0  0  0  0
   -3.3767   -0.9378   -4.9538 H   0  0  0  0  0  0  0  0  0  0  0  0
   -4.2046   -1.7550   -2.7792 H   0  0  0  0  0  0  0  0  0  0  0  0
   -1.9783    1.4555   -1.3777 H   0  0  0  0  0  0  0  0  0  0  0  0
   -3.5888    3.1736   -0.8630 H   0  0  0  0  0  0  0  0  0  0  0  0
   -0.6816    1.4778    2.7302 H   0  0  0  0  0  0  0  0  0  0  0  0
    2.7492   -1.9901    2.7569 H   0  0  0  0  0  0  0  0  0  0  0  0
    4.2204   -2.3934    1.9201 H   0  0  0  0  0  0  0  0  0  0  0  0
    2.7556   -3.0401    1.2195 H   0  0  0  0  0  0  0  0  0  0  0  0
  1  2  1  0
  2  3  2  0
  3  4  1  0
  4  5  2  0
  5  6  1  0
  6  7  1  0
  6  8  1  0
  8  9  1  0
  9 10  1  0
 10 11  2  0
 11 12  1  0
 12 13  2  0
 13 14  1  0
 14 15  2  0
 15 16  1  0
  8 17  1  0
 17 18  2  0
 18 19  1  0
 19 20  2  0
 20 21  1  0
 21 22  3  0
 20 23  1  0
 23 24  1  0
 23 25  2  0
  5 26  1  0
 26 27  1  0
 26  2  1  0
 15 10  1  0
 25 17  1  0
  1 28  1  0
  1 29  1  0
  1 30  1  0
  6 31  1  0
  7 32  1  0
  7 33  1  0
  7 34  1  0
  9 35  1  0
  9 36  1  0
 11 37  1  0
 12 38  1  0
 13 39  1  0
 14 40  1  0
 18 41  1  0
 19 42  1  0
 25 43  1  0
 27 44  1  0
 27 45  1  0
 27 46  1  0
M  END
$$$$
