
     RDKit          3D

 45 48  0  0  0  0  0  0  0  0999 V2000
   -1.1287   -3.0806   -0.2840 N   0  0  0  0  0  4  0  0  0  0  0  0
   -1.2476   -1.6156   -0.2060 C   0  0  0  0  0  0  0  0  0  0  0  0
   -2.6957   -1.3254    0.0001 C   0  0  0  0  0  0  0  0  0  0  0  0
   -3.0355    0.1130    0.1063 C   0  0  0  0  0  0  0  0  0  0  0  0
   -3.3755    0.9635   -0.9230 C   0  0  0  0  0  0  0  0  0  0  0  0
   -3.6723    2.2914   -0.6972 C   0  0  0  0  0  0  0  0  0  0  0  0
   -3.6435    2.8321    0.5666 C   0  0  0  0  0  0  0  0  0  0  0  0
   -4.0455    4.5358    0.6902 Cl  0  0  0  0  0  0  0  0  0  0  0  0
   -3.3058    1.9976    1.6092 C   0  0  0  0  0  0  0  0  0  0  0  0
   -3.0104    0.6710    1.3753 C   0  0  0  0  0  0  0  0  0  0  0  0
   -0.4846   -1.1383    1.0089 C   0  0  0  0  0  0  0  0  0  0  0  0
    0.9766   -1.4267    0.8608 C   0  0  0  0  0  0  0  0  0  0  0  0
    1.4813   -0.9531   -0.4057 N   0  0  0  0  0  0  0  0  0  0  0  0
    0.7539   -1.1128   -1.6367 C   0  0  0  0  0  0  0  0  0  0  0  0
   -0.7316   -1.0543   -1.4827 C   0  0  0  0  0  0  0  0  0  0  0  0
    2.7648   -0.2921   -0.4479 C   0  0  0  0  0  0  0  0  0  0  0  0
    3.1047    0.8476    0.2135 C   0  0  0  0  0  0  0  0  0  0  0  0
    2.3477    1.6176    1.0467 C   0  0  0  0  0  0  0  0  0  0  0  0
    3.1795    2.6606    1.4479 C   0  0  0  0  0  0  0  0  0  0  0  0
    4.3761    2.4790    0.8526 N   0  0  0  0  0  0  0  0  0  0  0  0
    4.3716    1.3706    0.0818 C   0  0  0  0  0  0  0  0  0  0  0  0
    5.3100    0.7923   -0.6890 N   0  0  0  0  0  0  0  0  0  0  0  0
    4.9446   -0.3449   -1.3385 C   0  0  0  0  0  0  0  0  0  0  0  0
    3.6967   -0.8804   -1.2230 N   0  0  0  0  0  0  0  0  0  0  0  0
   -1.6897   -3.5534    0.4752 H   0  0  0  0  0  0  0  0  0  0  0  0
   -0.1580   -3.4115   -0.1888 H   0  0  0  0  0  0  0  0  0  0  0  0
   -1.5781   -3.4138   -1.1727 H   0  0  0  0  0  0  0  0  0  0  0  0
   -3.0881   -1.8727    0.8913 H   0  0  0  0  0  0  0  0  0  0  0  0
   -3.3143   -1.7454   -0.8476 H   0  0  0  0  0  0  0  0  0  0  0  0
   -3.3942    0.5244   -1.9080 H   0  0  0  0  0  0  0  0  0  0  0  0
   -3.9288    2.8864   -1.5642 H   0  0  0  0  0  0  0  0  0  0  0  0
   -3.2963    2.4672    2.5861 H   0  0  0  0  0  0  0  0  0  0  0  0
   -2.7626    0.1412    2.2990 H   0  0  0  0  0  0  0  0  0  0  0  0
   -0.8490   -1.7755    1.8514 H   0  0  0  0  0  0  0  0  0  0  0  0
   -0.6490   -0.0741    1.1812 H   0  0  0  0  0  0  0  0  0  0  0  0
    1.2250   -2.4995    1.0013 H   0  0  0  0  0  0  0  0  0  0  0  0
    1.5113   -0.8980    1.6763 H   0  0  0  0  0  0  0  0  0  0  0  0
    1.0396   -0.2727   -2.3091 H   0  0  0  0  0  0  0  0  0  0  0  0
    1.1195   -2.0420   -2.1228 H   0  0  0  0  0  0  0  0  0  0  0  0
   -1.1661   -1.6413   -2.3193 H   0  0  0  0  0  0  0  0  0  0  0  0
   -1.0759    0.0131   -1.5778 H   0  0  0  0  0  0  0  0  0  0  0  0
    1.3189    1.4710    1.3475 H   0  0  0  0  0  0  0  0  0  0  0  0
    2.9288    3.4805    2.1176 H   0  0  0  0  0  0  0  0  0  0  0  0
    5.2058    3.1149    0.9708 H   0  0  0  0  0  0  0  0  0  0  0  0
    5.6706   -0.8465   -1.9726 H   0  0  0  0  0  0  0  0  0  0  0  0
  1  2  1  0
  2  3  1  0
  3  4  1  0
  4  5  2  0
  5  6  1  0
  6  7  2  0
  7  8  1  0
  7  9  1  0
  9 10  2  0
  2 11  1  0
 11 12  1  0
 12 13  1  0
 13 14  1  0
 14 15  1  0
 13 16  1  0
 16 17  2  0
 17 18  1  0
 18 19  2  0
 19 20  1  0
 20 21  1  0
 21 22  2  0
 22 23  1  0
 23 24  2  0
 15  2  1  0
 24 16  1  0
 10  4  1  0
 21 17  1  0
  1 25  1  0
  1 26  1  0
  1 27  1  0
  3 28  1  0
  3 29  1  0
  5 30  1  0
  6 31  1  0
  9 32  1  0
 10 33  1  0
 11 34  1  0
 11 35  1  0
 12 36  1  0
 12 37  1  0
 14 38  1  0
 14 39  1  0
 15 40  1  0
 15 41  1  0
 18 42  1  0
 19 43  1  0
 20 44  1  0
 23 45  1  0
M  CHG  1   1   1
M  END
$$$$
