
     RDKit          3D

 56 60  0  0  0  0  0  0  0  0999 V2000
    6.4306    2.1825    0.9896 O   0  0  0  0  0  0  0  0  0  0  0  0
    7.4953    1.5850    0.6576 C   0  0  0  0  0  0  0  0  0  0  0  0
    8.6848    2.0352    1.2256 O   0  0  0  0  0  0  0  0  0  0  0  0
    7.4823    0.4565   -0.2924 C   0  0  0  0  0  0  0  0  0  0  0  0
    6.0572    0.2094   -0.7272 C   0  0  0  0  0  0  0  0  0  0  0  0
    5.9330   -0.9280   -1.7024 C   0  0  0  0  0  0  0  0  0  0  0  0
    4.9995   -1.8059   -1.2204 O   0  0  0  0  0  0  0  0  0  0  0  0
    4.1864   -1.1113   -0.3305 C   0  0  0  0  0  0  0  0  0  0  0  0
    3.3363   -0.1600   -1.1365 C   0  0  0  0  0  0  0  0  0  0  0  0
    1.9266   -0.6706   -1.3095 C   0  0  0  0  0  0  0  0  0  0  0  0
    1.2926   -0.8899   -0.0202 N   0  0  0  0  0  0  0  0  0  0  0  0
   -0.0828   -0.6448    0.1085 C   0  0  0  0  0  0  0  0  0  0  0  0
   -0.7076   -0.8430    1.3124 C   0  0  0  0  0  0  0  0  0  0  0  0
   -2.0815   -0.5971    1.4367 C   0  0  0  0  0  0  0  0  0  0  0  0
   -2.7960   -0.1575    0.3479 C   0  0  0  0  0  0  0  0  0  0  0  0
   -4.2354    0.1115    0.4358 C   0  0  0  0  0  0  0  0  0  0  0  0
   -5.0537    0.5409   -0.5381 N   0  0  0  0  0  0  0  0  0  0  0  0
   -6.3077    0.6676   -0.0627 C   0  0  0  0  0  0  0  0  0  0  0  0
   -7.5209    1.0581   -0.5952 C   0  0  0  0  0  0  0  0  0  0  0  0
   -8.6882    1.0973    0.1389 C   0  0  0  0  0  0  0  0  0  0  0  0
   -9.9954    1.5208   -0.4449 C   0  0  0  0  0  0  0  0  0  0  0  0
  -10.2145    2.8485   -0.0689 F   0  0  0  0  0  0  0  0  0  0  0  0
   -9.9403    1.4963   -1.8176 F   0  0  0  0  0  0  0  0  0  0  0  0
  -11.0374    0.7907    0.0651 F   0  0  0  0  0  0  0  0  0  0  0  0
   -8.6152    0.7244    1.4653 C   0  0  0  0  0  0  0  0  0  0  0  0
   -7.4107    0.3242    2.0400 C   0  0  0  0  0  0  0  0  0  0  0  0
   -6.2679    0.3005    1.2669 C   0  0  0  0  0  0  0  0  0  0  0  0
   -5.0106   -0.0251    1.5259 N   0  0  0  0  0  0  0  0  0  0  0  0
   -2.1296    0.0287   -0.8433 C   0  0  0  0  0  0  0  0  0  0  0  0
   -0.7985   -0.2181   -0.9320 N   0  0  0  0  0  0  0  0  0  0  0  0
    2.1291   -1.3550    1.0720 C   0  0  0  0  0  0  0  0  0  0  0  0
    3.3832   -2.0165    0.5447 C   0  0  0  0  0  0  0  0  0  0  0  0
    5.2022   -0.2865    0.4320 C   0  0  0  0  0  0  0  0  0  0  0  0
    8.7225    3.0347    1.4588 H   0  0  0  0  0  0  0  0  0  0  0  0
    7.9536   -0.4507    0.0916 H   0  0  0  0  0  0  0  0  0  0  0  0
    8.0398    0.7738   -1.1979 H   0  0  0  0  0  0  0  0  0  0  0  0
    5.5981    1.1451   -1.0740 H   0  0  0  0  0  0  0  0  0  0  0  0
    6.9229   -1.4383   -1.7326 H   0  0  0  0  0  0  0  0  0  0  0  0
    5.7225   -0.5907   -2.7365 H   0  0  0  0  0  0  0  0  0  0  0  0
    3.7612   -0.0194   -2.1518 H   0  0  0  0  0  0  0  0  0  0  0  0
    3.3282    0.8377   -0.6626 H   0  0  0  0  0  0  0  0  0  0  0  0
    1.9079   -1.5641   -1.9552 H   0  0  0  0  0  0  0  0  0  0  0  0
    1.3593    0.1260   -1.8341 H   0  0  0  0  0  0  0  0  0  0  0  0
   -0.1623   -1.1880    2.1789 H   0  0  0  0  0  0  0  0  0  0  0  0
   -2.6002   -0.7419    2.3633 H   0  0  0  0  0  0  0  0  0  0  0  0
   -7.5501    1.3440   -1.6321 H   0  0  0  0  0  0  0  0  0  0  0  0
   -9.5087    0.7408    2.0774 H   0  0  0  0  0  0  0  0  0  0  0  0
   -7.3859    0.0369    3.0856 H   0  0  0  0  0  0  0  0  0  0  0  0
   -4.6343   -0.3497    2.4446 H   0  0  0  0  0  0  0  0  0  0  0  0
   -2.6237    0.3719   -1.7415 H   0  0  0  0  0  0  0  0  0  0  0  0
    2.3532   -0.5148    1.7569 H   0  0  0  0  0  0  0  0  0  0  0  0
    1.5381   -2.1552    1.5995 H   0  0  0  0  0  0  0  0  0  0  0  0
    3.0647   -2.9096   -0.0212 H   0  0  0  0  0  0  0  0  0  0  0  0
    4.0019   -2.2743    1.4312 H   0  0  0  0  0  0  0  0  0  0  0  0
    4.7577    0.5220    1.0134 H   0  0  0  0  0  0  0  0  0  0  0  0
    5.7887   -1.0048    1.0492 H   0  0  0  0  0  0  0  0  0  0  0  0
  1  2  2  0
  2  3  1  0
  2  4  1  0
  4  5  1  0
  5  6  1  0
  6  7  1  0
  7  8  1  0
  8  9  1  0
  9 10  1  0
 10 11  1  0
 11 12  1  0
 12 13  2  0
 13 14  1  0
 14 15  2  0
 15 16  1  0
 16 17  2  0
 17 18  1  0
 18 19  2  0
 19 20  1  0
 20 21  1  0
 21 22  1  0
 21 23  1  0
 21 24  1  0
 20 25  2  0
 25 26  1  0
 26 27  2  0
 27 28  1  0
 15 29  1  0
 29 30  2  0
 11 31  1  0
 31 32  1  0
  8 33  1  0
 33  5  1  0
 32  8  1  0
 30 12  1  0
 28 16  1  0
 27 18  1  0
  3 34  1  0
  4 35  1  0
  4 36  1  0
  5 37  1  0
  6 38  1  0
  6 39  1  0
  9 40  1  0
  9 41  1  0
 10 42  1  0
 10 43  1  0
 13 44  1  0
 14 45  1  0
 19 46  1  0
 25 47  1  0
 26 48  1  0
 28 49  1  0
 29 50  1  0
 31 51  1  0
 31 52  1  0
 32 53  1  0
 32 54  1  0
 33 55  1  0
 33 56  1  0
M  END
$$$$
