
     RDKit          3D

 63 67  0  0  0  0  0  0  0  0999 V2000
   -2.3031    0.2230   -1.1113 O   0  0  0  0  0  0  0  0  0  0  0  0
   -1.6454    0.8412   -0.2469 C   0  0  0  0  0  0  0  0  0  0  0  0
   -2.2766    1.7819    0.6880 C   0  0  0  0  0  0  0  0  0  0  0  0
   -3.7248    1.8422    0.4243 N   0  0  0  0  0  0  0  0  0  0  0  0
   -4.4768    0.6548    0.5729 C   0  0  0  0  0  0  0  0  0  0  0  0
   -3.8342   -0.4851    0.9551 N   0  0  0  0  0  0  0  0  0  0  0  0
   -4.4904   -1.6448    1.1164 C   0  0  0  0  0  0  0  0  0  0  0  0
   -3.7767   -2.8920    1.5364 C   0  0  0  0  0  0  0  0  0  0  0  0
   -2.5305   -2.6271    2.0171 F   0  0  0  0  0  0  0  0  0  0  0  0
   -3.7201   -3.7627    0.4581 F   0  0  0  0  0  0  0  0  0  0  0  0
   -4.5936   -3.4880    2.5033 F   0  0  0  0  0  0  0  0  0  0  0  0
   -5.8158   -1.7331    0.9073 N   0  0  0  0  0  0  0  0  0  0  0  0
   -6.5038   -0.6539    0.5317 C   0  0  0  0  0  0  0  0  0  0  0  0
   -7.8541   -0.7332    0.3161 C   0  0  0  0  0  0  0  0  0  0  0  0
   -8.5313    0.4137   -0.0736 C   0  0  0  0  0  0  0  0  0  0  0  0
   -7.8922    1.6076   -0.2460 C   0  0  0  0  0  0  0  0  0  0  0  0
   -8.6187    2.8509   -0.6670 C   0  0  0  0  0  0  0  0  0  0  0  0
   -9.9688    2.7148   -0.4886 F   0  0  0  0  0  0  0  0  0  0  0  0
   -8.1535    3.9028    0.1176 F   0  0  0  0  0  0  0  0  0  0  0  0
   -8.2929    3.1594   -1.9651 F   0  0  0  0  0  0  0  0  0  0  0  0
   -6.5154    1.6918   -0.0271 C   0  0  0  0  0  0  0  0  0  0  0  0
   -5.8330    0.5492    0.3625 C   0  0  0  0  0  0  0  0  0  0  0  0
   -0.2507    0.6140   -0.1830 N   0  0  0  0  0  0  0  0  0  0  0  0
    0.3960   -0.3196   -1.1060 C   0  0  0  0  0  0  0  0  0  0  0  0
    1.6172    0.3525   -1.7192 C   0  0  0  0  0  0  0  0  0  0  0  0
    2.4538   -0.5363   -0.9676 N   0  0  0  0  0  0  0  0  0  0  0  0
    3.2897    0.0628    0.0431 C   0  0  1  0  0  0  0  0  0  0  0  0
    4.0835   -1.0031    0.7098 C   0  0  0  0  0  0  0  0  0  0  0  0
    5.4395   -0.5717    1.1948 C   0  0  0  0  0  0  0  0  0  0  0  0
    6.2535    0.1203    0.1409 C   0  0  1  0  0  0  0  0  0  0  0  0
    6.8246    1.2610    0.7076 O   0  0  0  0  0  0  0  0  0  0  0  0
    7.3090   -0.7946   -0.3970 C   0  0  0  0  0  0  0  0  0  0  0  0
    7.3481   -1.6679   -1.4038 C   0  0  0  0  0  0  0  0  0  0  0  0
    8.5010   -2.3162   -1.5783 N   0  0  0  0  0  0  0  0  0  0  0  0
    9.4387   -2.2204   -0.9876 C   0  0  0  0  0  0  0  0  0  0  0  0
    8.9760   -0.9272    0.2970 S   0  0  0  0  0  0  0  0  0  0  0  0
    5.4153    0.5506   -1.0404 C   0  0  0  0  0  0  0  0  0  0  0  0
    4.1541    1.1620   -0.4656 C   0  0  0  0  0  0  0  0  0  0  0  0
    1.3291   -1.2976   -0.4324 C   0  0  0  0  0  0  0  0  0  0  0  0
   -2.1438    1.4381    1.7351 H   0  0  0  0  0  0  0  0  0  0  0  0
   -1.8060    2.7837    0.6388 H   0  0  0  0  0  0  0  0  0  0  0  0
   -4.0755    2.7611    0.1485 H   0  0  0  0  0  0  0  0  0  0  0  0
   -8.4132   -1.6650    0.4400 H   0  0  0  0  0  0  0  0  0  0  0  0
   -9.5891    0.3360   -0.2386 H   0  0  0  0  0  0  0  0  0  0  0  0
   -6.0068    2.6360   -0.1630 H   0  0  0  0  0  0  0  0  0  0  0  0
    0.2976    1.1295    0.5378 H   0  0  0  0  0  0  0  0  0  0  0  0
   -0.2894   -0.7933   -1.8078 H   0  0  0  0  0  0  0  0  0  0  0  0
    1.6880    1.4206   -1.5269 H   0  0  0  0  0  0  0  0  0  0  0  0
    1.6451    0.0742   -2.8104 H   0  0  0  0  0  0  0  0  0  0  0  0
    2.5998    0.5175    0.8135 H   0  0  0  0  0  0  0  0  0  0  0  0
    4.2640   -1.8773    0.0177 H   0  0  0  0  0  0  0  0  0  0  0  0
    3.5532   -1.4460    1.5818 H   0  0  0  0  0  0  0  0  0  0  0  0
    5.2846    0.0916    2.0625 H   0  0  0  0  0  0  0  0  0  0  0  0
    5.9777   -1.4809    1.5309 H   0  0  0  0  0  0  0  0  0  0  0  0
    7.0648    1.0304    1.6402 H   0  0  0  0  0  0  0  0  0  0  0  0
    6.4874   -1.8589   -2.0673 H   0  0  0  0  0  0  0  0  0  0  0  0
   10.5355   -2.6338   -0.9148 H   0  0  0  0  0  0  0  0  0  0  0  0
    5.0893   -0.3866   -1.5761 H   0  0  0  0  0  0  0  0  0  0  0  0
    5.9579    1.2396   -1.6853 H   0  0  0  0  0  0  0  0  0  0  0  0
    3.6546    1.8378   -1.1829 H   0  0  0  0  0  0  0  0  0  0  0  0
    4.4111    1.8162    0.4191 H   0  0  0  0  0  0  0  0  0  0  0  0
    1.2753   -1.3357    0.6653 H   0  0  0  0  0  0  0  0  0  0  0  0
    1.3114   -2.3168   -0.9033 H   0  0  0  0  0  0  0  0  0  0  0  0
  1  2  2  0
  2  3  1  0
  3  4  1  0
  4  5  1  0
  5  6  2  0
  6  7  1  0
  7  8  1  0
  8  9  1  0
  8 10  1  0
  8 11  1  0
  7 12  2  0
 12 13  1  0
 13 14  2  0
 14 15  1  0
 15 16  2  0
 16 17  1  0
 17 18  1  0
 17 19  1  0
 17 20  1  0
 16 21  1  0
 21 22  2  0
  2 23  1  0
 23 24  1  0
 24 25  1  0
 25 26  1  0
 26 27  1  0
 27 28  1  0
 28 29  1  0
 29 30  1  0
 30 31  1  1
 30 32  1  0
 32 33  2  0
 33 34  1  0
 34 35  2  0
 35 36  1  0
 30 37  1  0
 37 38  1  0
 26 39  1  0
 22  5  1  0
 39 24  1  0
 22 13  1  0
 38 27  1  0
 36 32  1  0
  3 40  1  0
  3 41  1  0
  4 42  1  0
 14 43  1  0
 15 44  1  0
 21 45  1  0
 23 46  1  0
 24 47  1  0
 25 48  1  0
 25 49  1  0
 27 50  1  1
 28 51  1  0
 28 52  1  0
 29 53  1  0
 29 54  1  0
 31 55  1  0
 33 56  1  0
 35 57  1  0
 37 58  1  0
 37 59  1  0
 38 60  1  0
 38 61  1  0
 39 62  1  0
 39 63  1  0
M  END
$$$$
