
     RDKit          3D

 31 32  0  0  0  0  0  0  0  0999 V2000
   -3.1845   -0.2542   -0.4673 C   0  0  0  0  0  0  0  0  0  0  0  0
   -2.0803   -1.0670    0.1016 C   0  0  0  0  0  0  0  0  0  0  0  0
   -1.0826   -0.3484    0.9480 C   0  0  1  0  0  0  0  0  0  0  0  0
   -0.3242    0.7519    0.3105 C   0  0  1  0  0  0  0  0  0  0  0  0
    0.3834    0.4526   -0.9548 C   0  0  0  0  0  0  0  0  0  0  0  0
    1.3998   -0.6140   -0.7672 C   0  0  0  0  0  0  0  0  0  0  0  0
    1.4319   -1.9796   -0.8588 C   0  0  0  0  0  0  0  0  0  0  0  0
    2.6592   -2.4510   -0.5768 N   0  0  0  0  0  0  0  0  0  0  0  0
    3.4435   -1.4194   -0.2993 C   0  0  0  0  0  0  0  0  0  0  0  0
    2.6881   -0.3173   -0.4135 N   0  0  0  0  0  0  0  0  0  0  0  0
    3.2709    1.0075   -0.1664 C   0  0  0  0  0  0  0  0  0  0  0  0
   -1.2904    1.8794    0.3005 C   0  0  0  0  0  0  0  0  0  0  0  0
   -2.0588    1.7032    1.5024 O   0  0  0  0  0  0  0  0  0  0  0  0
   -1.7912    0.4255    2.0389 C   0  0  0  0  0  0  0  0  0  0  0  0
   -2.0432   -0.0699    3.1684 O   0  0  0  0  0  0  0  0  0  0  0  0
   -3.5748    0.5109    0.2011 H   0  0  0  0  0  0  0  0  0  0  0  0
   -2.9722    0.1029   -1.5124 H   0  0  0  0  0  0  0  0  0  0  0  0
   -4.0591   -0.9544   -0.6341 H   0  0  0  0  0  0  0  0  0  0  0  0
   -2.5541   -1.8374    0.7815 H   0  0  0  0  0  0  0  0  0  0  0  0
   -1.5990   -1.6223   -0.6981 H   0  0  0  0  0  0  0  0  0  0  0  0
   -0.3916   -1.0938    1.3588 H   0  0  0  0  0  0  0  0  0  0  0  0
    0.4724    1.0462    1.0704 H   0  0  0  0  0  0  0  0  0  0  0  0
    0.8897    1.3125   -1.4149 H   0  0  0  0  0  0  0  0  0  0  0  0
   -0.3752    0.0557   -1.6744 H   0  0  0  0  0  0  0  0  0  0  0  0
    0.5471   -2.5358   -1.1293 H   0  0  0  0  0  0  0  0  0  0  0  0
    4.4811   -1.5001   -0.0378 H   0  0  0  0  0  0  0  0  0  0  0  0
    3.5726    1.0457    0.9167 H   0  0  0  0  0  0  0  0  0  0  0  0
    4.1806    1.0599   -0.8119 H   0  0  0  0  0  0  0  0  0  0  0  0
    2.6119    1.8264   -0.4509 H   0  0  0  0  0  0  0  0  0  0  0  0
   -1.8896    2.0251   -0.5895 H   0  0  0  0  0  0  0  0  0  0  0  0
   -0.7613    2.8595    0.4801 H   0  0  0  0  0  0  0  0  0  0  0  0
  1  2  1  0
  2  3  1  0
  3  4  1  0
  4  5  1  0
  5  6  1  0
  6  7  2  0
  7  8  1  0
  8  9  2  0
  9 10  1  0
 10 11  1  0
  4 12  1  0
 12 13  1  0
 13 14  1  0
 14 15  2  0
 14  3  1  0
 10  6  1  0
  1 16  1  0
  1 17  1  0
  1 18  1  0
  2 19  1  0
  2 20  1  0
  3 21  1  1
  4 22  1  1
  5 23  1  0
  5 24  1  0
  7 25  1  0
  9 26  1  0
 11 27  1  0
 11 28  1  0
 11 29  1  0
 12 30  1  0
 12 31  1  0
M  END
$$$$
