
     RDKit          3D

 65 68  0  0  0  0  0  0  0  0999 V2000
   -0.5836   -1.8059    1.4044 C   0  0  0  0  0  0  0  0  0  0  0  0
   -0.2045   -0.3400    1.6191 C   0  0  0  0  0  0  0  0  0  0  0  0
    0.5791    0.1593    0.5075 N   0  0  0  0  0  0  0  0  0  0  0  0
    1.9201    0.0908    0.4586 N   0  0  0  0  0  0  0  0  0  0  0  0
    2.3858    0.6193   -0.6707 C   0  0  0  0  0  0  0  0  0  0  0  0
    3.7706    0.7766   -1.1808 C   0  0  0  0  0  0  0  0  0  0  0  0
    4.3486   -0.6036   -1.4086 C   0  0  0  0  0  0  0  0  0  0  0  0
    5.1344   -0.9730   -0.1672 C   0  0  0  0  0  0  0  0  0  0  0  0
    6.2952   -0.1167   -0.1344 N   0  0  0  0  0  0  0  0  0  0  0  0
    7.5542   -0.6785    0.1559 C   0  0  0  0  0  0  0  0  0  0  0  0
    7.6838   -1.9060    0.3857 O   0  0  0  0  0  0  0  0  0  0  0  0
    8.7645    0.1723    0.1974 C   0  0  0  0  0  0  0  0  0  0  0  0
   10.0043   -0.6322    0.5271 C   0  0  0  0  0  0  0  0  0  0  0  0
   11.1126    0.2094    0.5546 O   0  0  0  0  0  0  0  0  0  0  0  0
    6.0977    1.2864   -0.4046 C   0  0  0  0  0  0  0  0  0  0  0  0
    4.6087    1.6364   -0.2816 C   0  0  0  0  0  0  0  0  0  0  0  0
    1.2737    1.0331   -1.3491 N   0  0  0  0  0  0  0  0  0  0  0  0
    0.2006    0.7500   -0.6296 C   0  0  0  0  0  0  0  0  0  0  0  0
   -1.1953    1.0297   -0.9989 C   0  0  0  0  0  0  0  0  0  0  0  0
   -1.4828    1.8890   -2.0425 C   0  0  0  0  0  0  0  0  0  0  0  0
   -2.7506    2.1315   -2.3649 N   0  0  0  0  0  0  0  0  0  0  0  0
   -3.7577    1.5644   -1.7042 C   0  0  0  0  0  0  0  0  0  0  0  0
   -5.0957    1.8354   -2.0627 N   0  0  0  0  0  0  0  0  0  0  0  0
   -3.5120    0.7018   -0.6575 C   0  0  0  0  0  0  0  0  0  0  0  0
   -4.6011    0.0759    0.0725 C   0  0  0  0  0  0  0  0  0  0  0  0
   -4.4714   -0.7688    1.0948 N   0  0  0  0  0  0  0  0  0  0  0  0
   -5.6957   -1.1208    1.4912 N   0  0  0  0  0  0  0  0  0  0  0  0
   -6.5684   -0.4958    0.7167 C   0  0  0  0  0  0  0  0  0  0  0  0
   -8.0595   -0.5152    0.7056 C   0  0  0  0  0  0  0  0  0  0  0  0
   -8.5243    0.5893    1.6180 C   0  0  0  0  0  0  0  0  0  0  0  0
   -8.5656   -1.8374    1.2946 C   0  0  0  0  0  0  0  0  0  0  0  0
   -8.6315   -0.3886   -0.6678 C   0  0  0  0  0  0  0  0  0  0  0  0
   -5.8752    0.2299   -0.1431 O   0  0  0  0  0  0  0  0  0  0  0  0
   -2.2170    0.4669   -0.3437 N   0  0  0  0  0  0  0  0  0  0  0  0
    0.1756   -2.2142    0.6782 H   0  0  0  0  0  0  0  0  0  0  0  0
   -1.5651   -1.9290    0.9466 H   0  0  0  0  0  0  0  0  0  0  0  0
   -0.4458   -2.3999    2.3401 H   0  0  0  0  0  0  0  0  0  0  0  0
    0.4345   -0.3170    2.5249 H   0  0  0  0  0  0  0  0  0  0  0  0
   -1.1490    0.2227    1.7653 H   0  0  0  0  0  0  0  0  0  0  0  0
    3.7701    1.2775   -2.1853 H   0  0  0  0  0  0  0  0  0  0  0  0
    3.5306   -1.3373   -1.5018 H   0  0  0  0  0  0  0  0  0  0  0  0
    4.9898   -0.6146   -2.3190 H   0  0  0  0  0  0  0  0  0  0  0  0
    4.5119   -0.7175    0.7182 H   0  0  0  0  0  0  0  0  0  0  0  0
    5.4332   -2.0418   -0.1716 H   0  0  0  0  0  0  0  0  0  0  0  0
    8.6347    1.0309    0.8812 H   0  0  0  0  0  0  0  0  0  0  0  0
    8.9473    0.6140   -0.8212 H   0  0  0  0  0  0  0  0  0  0  0  0
    9.8635   -1.0580    1.5427 H   0  0  0  0  0  0  0  0  0  0  0  0
   10.1980   -1.3914   -0.2421 H   0  0  0  0  0  0  0  0  0  0  0  0
   11.1124    0.8468    1.2852 H   0  0  0  0  0  0  0  0  0  0  0  0
    6.5970    1.8708    0.4091 H   0  0  0  0  0  0  0  0  0  0  0  0
    6.4707    1.6173   -1.3747 H   0  0  0  0  0  0  0  0  0  0  0  0
    4.2988    1.6244    0.7696 H   0  0  0  0  0  0  0  0  0  0  0  0
    4.5476    2.7114   -0.6193 H   0  0  0  0  0  0  0  0  0  0  0  0
   -0.6395    2.3472   -2.5755 H   0  0  0  0  0  0  0  0  0  0  0  0
   -5.5610    2.7426   -1.8444 H   0  0  0  0  0  0  0  0  0  0  0  0
   -5.6248    1.0958   -2.5616 H   0  0  0  0  0  0  0  0  0  0  0  0
   -8.4569    0.2530    2.6673 H   0  0  0  0  0  0  0  0  0  0  0  0
   -7.8604    1.4832    1.5112 H   0  0  0  0  0  0  0  0  0  0  0  0
   -9.5926    0.8407    1.4079 H   0  0  0  0  0  0  0  0  0  0  0  0
   -9.5989   -2.0218    0.9643 H   0  0  0  0  0  0  0  0  0  0  0  0
   -7.9462   -2.6824    0.9541 H   0  0  0  0  0  0  0  0  0  0  0  0
   -8.5794   -1.7759    2.4142 H   0  0  0  0  0  0  0  0  0  0  0  0
   -8.7903    0.6638   -0.9957 H   0  0  0  0  0  0  0  0  0  0  0  0
   -9.6363   -0.8692   -0.7040 H   0  0  0  0  0  0  0  0  0  0  0  0
   -8.0112   -0.8668   -1.4557 H   0  0  0  0  0  0  0  0  0  0  0  0
  1  2  1  0
  2  3  1  0
  3  4  1  0
  4  5  2  0
  5  6  1  0
  6  7  1  0
  7  8  1  0
  8  9  1  0
  9 10  1  0
 10 11  2  0
 10 12  1  0
 12 13  1  0
 13 14  1  0
  9 15  1  0
 15 16  1  0
  5 17  1  0
 17 18  2  0
 18 19  1  0
 19 20  2  0
 20 21  1  0
 21 22  2  0
 22 23  1  0
 22 24  1  0
 24 25  1  0
 25 26  2  0
 26 27  1  0
 27 28  2  0
 28 29  1  0
 29 30  1  0
 29 31  1  0
 29 32  1  0
 28 33  1  0
 24 34  2  0
 18  3  1  0
 34 19  1  0
 16  6  1  0
 33 25  1  0
  1 35  1  0
  1 36  1  0
  1 37  1  0
  2 38  1  0
  2 39  1  0
  6 40  1  0
  7 41  1  0
  7 42  1  0
  8 43  1  0
  8 44  1  0
 12 45  1  0
 12 46  1  0
 13 47  1  0
 13 48  1  0
 14 49  1  0
 15 50  1  0
 15 51  1  0
 16 52  1  0
 16 53  1  0
 20 54  1  0
 23 55  1  0
 23 56  1  0
 30 57  1  0
 30 58  1  0
 30 59  1  0
 31 60  1  0
 31 61  1  0
 31 62  1  0
 32 63  1  0
 32 64  1  0
 32 65  1  0
M  END
$$$$
