
     RDKit          3D

 91 97  0  0  0  0  0  0  0  0999 V2000
   12.3817   -0.0434    0.9009 C   0  0  0  0  0  0  0  0  0  0  0  0
   11.8486    0.4384   -0.4171 C   0  0  0  0  0  0  0  0  0  0  0  0
   11.1460    1.7553   -0.1574 C   0  0  0  0  0  0  0  0  0  0  0  0
   10.9121   -0.5379   -0.9822 N   0  0  0  0  0  0  0  0  0  0  0  0
   10.4360   -0.0903   -2.2430 C   0  0  0  0  0  0  0  0  0  0  0  0
    9.0726   -0.5180   -2.6481 C   0  0  0  0  0  0  0  0  0  0  0  0
    8.1751   -0.7096   -1.5237 N   0  0  0  0  0  0  0  0  0  0  0  0
    6.8851   -0.1600   -1.5674 C   0  0  0  0  0  0  0  0  0  0  0  0
    6.5616    0.5127   -2.6090 O   0  0  0  0  0  0  0  0  0  0  0  0
    5.9030   -0.3051   -0.5180 C   0  0  0  0  0  0  0  0  0  0  0  0
    5.4910    0.7504    0.2759 C   0  0  0  0  0  0  0  0  0  0  0  0
    4.5142    0.5294    1.2280 C   0  0  0  0  0  0  0  0  0  0  0  0
    3.9280   -0.7011    1.4261 C   0  0  0  0  0  0  0  0  0  0  0  0
    2.9080   -0.8438    2.3964 N   0  0  0  0  0  0  0  0  0  0  0  0
    1.5479   -0.6547    2.0367 C   0  0  0  0  0  0  0  0  0  0  0  0
    1.2756   -0.3696    0.8176 O   0  0  0  0  0  0  0  0  0  0  0  0
    0.4391   -0.7456    2.8988 N   0  0  0  0  0  0  0  0  0  0  0  0
   -0.8932   -0.5380    2.4485 C   0  0  0  0  0  0  0  0  0  0  0  0
   -1.7388   -1.5465    2.0658 C   0  0  0  0  0  0  0  0  0  0  0  0
   -3.0216   -1.2613    1.5882 C   0  0  0  0  0  0  0  0  0  0  0  0
   -3.4668    0.0378    1.4899 C   0  0  0  0  0  0  0  0  0  0  0  0
   -4.7706    0.3548    0.9392 C   0  0  0  0  0  0  0  0  0  0  0  0
   -5.2063    1.5928    0.6666 N   0  0  0  0  0  0  0  0  0  0  0  0
   -6.4174    1.8604    0.1434 C   0  0  0  0  0  0  0  0  0  0  0  0
   -6.8594    3.2756   -0.1211 C   0  0  0  0  0  0  0  0  0  0  0  0
   -6.0548    3.8626   -1.2586 C   0  0  0  0  0  0  0  0  0  0  0  0
   -6.7954    4.8135   -2.1295 C   0  0  0  0  0  0  0  0  0  0  0  0
   -8.0662    5.1417   -1.7229 O   0  0  0  0  0  0  0  0  0  0  0  0
   -8.7952    3.9423   -1.5871 C   0  0  0  0  0  0  0  0  0  0  0  0
   -8.3282    3.3468   -0.2716 C   0  0  0  0  0  0  0  0  0  0  0  0
   -7.2159    0.7979   -0.1086 N   0  0  0  0  0  0  0  0  0  0  0  0
   -6.8463   -0.4640    0.1410 C   0  0  0  0  0  0  0  0  0  0  0  0
   -7.7049   -1.5207   -0.1148 N   0  0  0  0  0  0  0  0  0  0  0  0
   -8.7566   -1.6209   -1.0789 C   0  0  0  0  0  0  0  0  0  0  0  0
   -9.9151   -2.0355   -0.1460 C   0  0  0  0  0  0  0  0  0  0  0  0
   -9.2320   -2.7432    1.0353 C   0  0  0  0  0  0  0  0  0  0  0  0
   -7.7484   -2.7749    0.6091 C   0  0  0  0  0  0  0  0  0  0  0  0
   -7.5973   -3.9632   -0.2881 C   0  0  0  0  0  0  0  0  0  0  0  0
   -7.4364   -3.5333   -1.6087 O   0  0  0  0  0  0  0  0  0  0  0  0
   -8.5648   -2.8169   -2.0073 C   0  0  0  0  0  0  0  0  0  0  0  0
   -5.6163   -0.6614    0.6659 N   0  0  0  0  0  0  0  0  0  0  0  0
   -2.6010    1.0305    1.8815 C   0  0  0  0  0  0  0  0  0  0  0  0
   -1.3320    0.7617    2.3559 C   0  0  0  0  0  0  0  0  0  0  0  0
    4.3510   -1.7333    0.6314 C   0  0  0  0  0  0  0  0  0  0  0  0
    5.3348   -1.5575   -0.3446 C   0  0  0  0  0  0  0  0  0  0  0  0
    8.6759   -1.4595   -0.4122 C   0  0  0  0  0  0  0  0  0  0  0  0
    9.9566   -0.8229    0.0301 C   0  0  0  0  0  0  0  0  0  0  0  0
   13.3401    0.5245    1.0644 H   0  0  0  0  0  0  0  0  0  0  0  0
   12.6892   -1.1107    0.8858 H   0  0  0  0  0  0  0  0  0  0  0  0
   11.7172    0.2381    1.7163 H   0  0  0  0  0  0  0  0  0  0  0  0
   12.6745    0.5509   -1.1391 H   0  0  0  0  0  0  0  0  0  0  0  0
   11.0299    1.9667    0.9389 H   0  0  0  0  0  0  0  0  0  0  0  0
   10.1151    1.7928   -0.5550 H   0  0  0  0  0  0  0  0  0  0  0  0
   11.7044    2.5746   -0.6319 H   0  0  0  0  0  0  0  0  0  0  0  0
   10.5225    1.0152   -2.3601 H   0  0  0  0  0  0  0  0  0  0  0  0
   11.1656   -0.4895   -3.0187 H   0  0  0  0  0  0  0  0  0  0  0  0
    9.1797   -1.5343   -3.1362 H   0  0  0  0  0  0  0  0  0  0  0  0
    8.5839    0.1151   -3.3824 H   0  0  0  0  0  0  0  0  0  0  0  0
    5.9606    1.7060    0.1059 H   0  0  0  0  0  0  0  0  0  0  0  0
    4.1863    1.3613    1.8580 H   0  0  0  0  0  0  0  0  0  0  0  0
    3.1476   -1.0873    3.3700 H   0  0  0  0  0  0  0  0  0  0  0  0
    0.6330   -0.9744    3.8935 H   0  0  0  0  0  0  0  0  0  0  0  0
   -1.4401   -2.5941    2.1191 H   0  0  0  0  0  0  0  0  0  0  0  0
   -3.6577   -2.0639    1.2991 H   0  0  0  0  0  0  0  0  0  0  0  0
   -6.5503    3.8297    0.8135 H   0  0  0  0  0  0  0  0  0  0  0  0
   -5.7012    3.0066   -1.8820 H   0  0  0  0  0  0  0  0  0  0  0  0
   -5.1199    4.3022   -0.8300 H   0  0  0  0  0  0  0  0  0  0  0  0
   -6.7674    4.5018   -3.2060 H   0  0  0  0  0  0  0  0  0  0  0  0
   -6.2072    5.7814   -2.1310 H   0  0  0  0  0  0  0  0  0  0  0  0
   -8.5608    3.2237   -2.3825 H   0  0  0  0  0  0  0  0  0  0  0  0
   -9.8732    4.1156   -1.5246 H   0  0  0  0  0  0  0  0  0  0  0  0
   -8.7520    2.3290   -0.1215 H   0  0  0  0  0  0  0  0  0  0  0  0
   -8.7626    3.9750    0.5319 H   0  0  0  0  0  0  0  0  0  0  0  0
   -9.0006   -0.7103   -1.6241 H   0  0  0  0  0  0  0  0  0  0  0  0
  -10.6293   -2.6989   -0.6464 H   0  0  0  0  0  0  0  0  0  0  0  0
  -10.3517   -1.0720    0.1939 H   0  0  0  0  0  0  0  0  0  0  0  0
   -9.6307   -3.7372    1.2176 H   0  0  0  0  0  0  0  0  0  0  0  0
   -9.2669   -2.0608    1.9233 H   0  0  0  0  0  0  0  0  0  0  0  0
   -7.0927   -2.7696    1.4913 H   0  0  0  0  0  0  0  0  0  0  0  0
   -6.7379   -4.6109   -0.0177 H   0  0  0  0  0  0  0  0  0  0  0  0
   -8.5048   -4.6283   -0.2876 H   0  0  0  0  0  0  0  0  0  0  0  0
   -8.3815   -2.4604   -3.0489 H   0  0  0  0  0  0  0  0  0  0  0  0
   -9.4708   -3.4545   -2.0575 H   0  0  0  0  0  0  0  0  0  0  0  0
   -2.9603    2.0619    1.8052 H   0  0  0  0  0  0  0  0  0  0  0  0
   -0.6861    1.5712    2.6523 H   0  0  0  0  0  0  0  0  0  0  0  0
    3.9038   -2.7205    0.7646 H   0  0  0  0  0  0  0  0  0  0  0  0
    5.6685   -2.3862   -0.9731 H   0  0  0  0  0  0  0  0  0  0  0  0
    7.9998   -1.4856    0.4670 H   0  0  0  0  0  0  0  0  0  0  0  0
    8.8959   -2.5031   -0.7194 H   0  0  0  0  0  0  0  0  0  0  0  0
   10.4335   -1.5575    0.7365 H   0  0  0  0  0  0  0  0  0  0  0  0
    9.7918    0.0946    0.6384 H   0  0  0  0  0  0  0  0  0  0  0  0
  1  2  1  0
  2  3  1  0
  2  4  1  0
  4  5  1  0
  5  6  1  0
  6  7  1  0
  7  8  1  0
  8  9  2  0
  8 10  1  0
 10 11  2  0
 11 12  1  0
 12 13  2  0
 13 14  1  0
 14 15  1  0
 15 16  2  0
 15 17  1  0
 17 18  1  0
 18 19  2  0
 19 20  1  0
 20 21  2  0
 21 22  1  0
 22 23  2  0
 23 24  1  0
 24 25  1  0
 25 26  1  0
 26 27  1  0
 27 28  1  0
 28 29  1  0
 29 30  1  0
 24 31  2  0
 31 32  1  0
 32 33  1  0
 33 34  1  0
 34 35  1  0
 35 36  1  0
 36 37  1  0
 37 38  1  0
 38 39  1  0
 39 40  1  0
 32 41  2  0
 21 42  1  0
 42 43  2  0
 13 44  1  0
 44 45  2  0
  7 46  1  0
 46 47  1  0
 47  4  1  0
 45 10  1  0
 43 18  1  0
 41 22  1  0
 30 25  1  0
 37 33  1  0
 40 34  1  0
  1 48  1  0
  1 49  1  0
  1 50  1  0
  2 51  1  0
  3 52  1  0
  3 53  1  0
  3 54  1  0
  5 55  1  0
  5 56  1  0
  6 57  1  0
  6 58  1  0
 11 59  1  0
 12 60  1  0
 14 61  1  0
 17 62  1  0
 19 63  1  0
 20 64  1  0
 25 65  1  0
 26 66  1  0
 26 67  1  0
 27 68  1  0
 27 69  1  0
 29 70  1  0
 29 71  1  0
 30 72  1  0
 30 73  1  0
 34 74  1  0
 35 75  1  0
 35 76  1  0
 36 77  1  0
 36 78  1  0
 37 79  1  0
 38 80  1  0
 38 81  1  0
 40 82  1  0
 40 83  1  0
 42 84  1  0
 43 85  1  0
 44 86  1  0
 45 87  1  0
 46 88  1  0
 46 89  1  0
 47 90  1  0
 47 91  1  0
M  END
$$$$
