
     RDKit          3D

 49 51  0  0  0  0  0  0  0  0999 V2000
   -5.0077    1.3215   -3.1116 C   0  0  0  0  0  0  0  0  0  0  0  0
   -6.3350    0.6033   -2.9760 C   0  0  0  0  0  0  0  0  0  0  0  0
   -6.1530   -0.5677   -2.2046 O   0  0  0  0  0  0  0  0  0  0  0  0
   -5.6788   -0.3769   -0.8852 C   0  0  0  0  0  0  0  0  0  0  0  0
   -5.4415    0.7544   -0.4419 O   0  0  0  0  0  0  0  0  0  0  0  0
   -5.4770   -1.5083   -0.0671 N   0  0  0  0  0  0  0  0  0  0  0  0
   -4.9978   -1.4534    1.2927 C   0  0  0  0  0  0  0  0  0  0  0  0
   -3.5412   -1.2348    1.2851 C   0  0  0  0  0  0  0  0  0  0  0  0
   -2.7387   -2.3747    1.2009 C   0  0  0  0  0  0  0  0  0  0  0  0
   -1.3627   -2.2651    1.1971 C   0  0  0  0  0  0  0  0  0  0  0  0
   -0.7146   -1.0528    1.2742 C   0  0  0  0  0  0  0  0  0  0  0  0
    0.7384   -0.9864    1.2735 C   0  0  0  0  0  0  0  0  0  0  0  0
    1.3973   -2.0614    1.2293 O   0  0  0  0  0  0  0  0  0  0  0  0
    1.4829    0.2100    1.3194 N   0  0  0  0  0  0  0  0  0  0  0  0
    2.8999    0.2940    1.3224 C   0  0  0  0  0  0  0  0  0  0  0  0
    3.6801    0.3766    0.1910 C   0  0  0  0  0  0  0  0  0  0  0  0
    5.0557    0.4611    0.2268 C   0  0  0  0  0  0  0  0  0  0  0  0
    5.7886    0.5467   -1.0205 C   0  0  0  0  0  0  0  0  0  0  0  0
    5.3268    0.5635   -2.3535 C   0  0  0  0  0  0  0  0  0  0  0  0
    6.2170    0.6514   -3.3204 C   0  0  0  0  0  0  0  0  0  0  0  0
    7.5631    0.7271   -3.0995 C   0  0  0  0  0  0  0  0  0  0  0  0
    7.5077    0.6601   -1.2227 S   0  0  0  0  0  0  0  0  0  0  0  0
    5.7108    0.4648    1.4472 C   0  0  0  0  0  0  0  0  0  0  0  0
    4.9548    0.3834    2.5901 C   0  0  0  0  0  0  0  0  0  0  0  0
    3.5609    0.2985    2.5334 C   0  0  0  0  0  0  0  0  0  0  0  0
    2.8182    0.2164    3.7306 N   0  0  0  0  0  0  0  0  0  0  0  0
   -1.5156    0.0628    1.3567 C   0  0  0  0  0  0  0  0  0  0  0  0
   -2.9135   -0.0293    1.3621 C   0  0  0  0  0  0  0  0  0  0  0  0
   -4.9641    2.0872   -2.2989 H   0  0  0  0  0  0  0  0  0  0  0  0
   -4.9864    1.8390   -4.1082 H   0  0  0  0  0  0  0  0  0  0  0  0
   -4.1413    0.6600   -3.0941 H   0  0  0  0  0  0  0  0  0  0  0  0
   -7.0661    1.2298   -2.3865 H   0  0  0  0  0  0  0  0  0  0  0  0
   -6.7725    0.3524   -3.9714 H   0  0  0  0  0  0  0  0  0  0  0  0
   -5.6955   -2.4615   -0.4917 H   0  0  0  0  0  0  0  0  0  0  0  0
   -5.5393   -0.6946    1.9012 H   0  0  0  0  0  0  0  0  0  0  0  0
   -5.2089   -2.4253    1.8213 H   0  0  0  0  0  0  0  0  0  0  0  0
   -3.1397   -3.3710    1.1369 H   0  0  0  0  0  0  0  0  0  0  0  0
   -0.7266   -3.1590    1.1311 H   0  0  0  0  0  0  0  0  0  0  0  0
    0.9507    1.1142    1.3533 H   0  0  0  0  0  0  0  0  0  0  0  0
    3.1782    0.3748   -0.7801 H   0  0  0  0  0  0  0  0  0  0  0  0
    4.2152    0.5005   -2.5125 H   0  0  0  0  0  0  0  0  0  0  0  0
    5.9038    0.6691   -4.4141 H   0  0  0  0  0  0  0  0  0  0  0  0
    8.4170    0.7976   -3.6196 H   0  0  0  0  0  0  0  0  0  0  0  0
    6.7728    0.5307    1.4446 H   0  0  0  0  0  0  0  0  0  0  0  0
    5.4846    0.3878    3.5415 H   0  0  0  0  0  0  0  0  0  0  0  0
    2.6382   -0.7135    4.1635 H   0  0  0  0  0  0  0  0  0  0  0  0
    2.4427    1.0594    4.1971 H   0  0  0  0  0  0  0  0  0  0  0  0
   -1.0752    1.0524    1.4203 H   0  0  0  0  0  0  0  0  0  0  0  0
   -3.5127    0.8769    1.4372 H   0  0  0  0  0  0  0  0  0  0  0  0
  1  2  1  0
  2  3  1  0
  3  4  1  0
  4  5  2  0
  4  6  1  0
  6  7  1  0
  7  8  1  0
  8  9  2  0
  9 10  1  0
 10 11  2  0
 11 12  1  0
 12 13  2  0
 12 14  1  0
 14 15  1  0
 15 16  2  0
 16 17  1  0
 17 18  1  0
 18 19  2  0
 19 20  1  0
 20 21  2  0
 21 22  1  0
 17 23  2  0
 23 24  1  0
 24 25  2  0
 25 26  1  0
 11 27  1  0
 27 28  2  0
 28  8  1  0
 25 15  1  0
 22 18  1  0
  1 29  1  0
  1 30  1  0
  1 31  1  0
  2 32  1  0
  2 33  1  0
  6 34  1  0
  7 35  1  0
  7 36  1  0
  9 37  1  0
 10 38  1  0
 14 39  1  0
 16 40  1  0
 19 41  1  0
 20 42  1  0
 21 43  1  0
 23 44  1  0
 24 45  1  0
 26 46  1  0
 26 47  1  0
 27 48  1  0
 28 49  1  0
M  END
$$$$
