
     RDKit          3D

 48 50  0  0  0  0  0  0  0  0999 V2000
   -8.8116    0.7659   -0.3884 O   0  0  0  0  0  0  0  0  0  0  0  0
   -8.1512   -0.2969   -0.2426 C   0  0  0  0  0  0  0  0  0  0  0  0
   -8.8663   -1.4708   -0.1571 O   0  0  0  0  0  0  0  0  0  0  0  0
   -6.6996   -0.2357   -0.1732 C   0  0  0  0  0  0  0  0  0  0  0  0
   -6.0428    0.9669   -0.2611 C   0  0  0  0  0  0  0  0  0  0  0  0
   -4.6519    1.0422   -0.1990 C   0  0  0  0  0  0  0  0  0  0  0  0
   -3.9095   -0.1009   -0.0469 C   0  0  0  0  0  0  0  0  0  0  0  0
   -2.5497   -0.0607    0.0170 O   0  0  0  0  0  0  0  0  0  0  0  0
   -1.6974    1.0309   -0.0477 C   0  0  0  0  0  0  0  0  0  0  0  0
   -0.8236    0.9716   -1.3015 C   0  0  0  0  0  0  0  0  0  0  0  0
    0.5729    1.3796   -0.9700 C   0  0  0  0  0  0  0  0  0  0  0  0
    1.1131    0.3533   -0.0795 N   0  0  0  0  0  0  0  0  0  0  0  0
    2.3518   -0.2824   -0.3641 C   0  0  0  0  0  0  0  0  0  0  0  0
    3.0198    0.0242   -1.4106 O   0  0  0  0  0  0  0  0  0  0  0  0
    2.9258   -1.2757    0.4643 N   0  0  0  0  0  0  0  0  0  0  0  0
    4.1808   -1.9182    0.1689 C   0  0  0  0  0  0  0  0  0  0  0  0
    5.3288   -0.9880    0.0719 C   0  0  0  0  0  0  0  0  0  0  0  0
    5.8666   -0.6411   -1.1446 C   0  0  0  0  0  0  0  0  0  0  0  0
    6.9346    0.2248   -1.1877 C   0  0  0  0  0  0  0  0  0  0  0  0
    7.5017    0.7710   -0.0505 C   0  0  0  0  0  0  0  0  0  0  0  0
    8.8758    1.8803   -0.1728 Cl  0  0  0  0  0  0  0  0  0  0  0  0
    6.9545    0.4157    1.1584 C   0  0  0  0  0  0  0  0  0  0  0  0
    5.8887   -0.4478    1.2082 C   0  0  0  0  0  0  0  0  0  0  0  0
    5.1793   -0.9100    2.7517 Cl  0  0  0  0  0  0  0  0  0  0  0  0
    0.3128    0.0374    1.0764 C   0  0  0  0  0  0  0  0  0  0  0  0
   -0.8135    1.0134    1.1677 C   0  0  0  0  0  0  0  0  0  0  0  0
   -4.5772   -1.3362    0.0440 C   0  0  0  0  0  0  0  0  0  0  0  0
   -5.9496   -1.3828   -0.0201 C   0  0  0  0  0  0  0  0  0  0  0  0
   -9.7700   -1.6014   -0.6122 H   0  0  0  0  0  0  0  0  0  0  0  0
   -6.6042    1.8872   -0.3818 H   0  0  0  0  0  0  0  0  0  0  0  0
   -4.2136    2.0038   -0.2744 H   0  0  0  0  0  0  0  0  0  0  0  0
   -2.2548    1.9844   -0.1246 H   0  0  0  0  0  0  0  0  0  0  0  0
   -1.2891    1.5539   -2.1139 H   0  0  0  0  0  0  0  0  0  0  0  0
   -0.8674   -0.0988   -1.6532 H   0  0  0  0  0  0  0  0  0  0  0  0
    1.1662    1.4021   -1.9186 H   0  0  0  0  0  0  0  0  0  0  0  0
    0.5560    2.3748   -0.4985 H   0  0  0  0  0  0  0  0  0  0  0  0
    2.3762   -1.5349    1.3387 H   0  0  0  0  0  0  0  0  0  0  0  0
    4.4452   -2.6944    0.9131 H   0  0  0  0  0  0  0  0  0  0  0  0
    4.0520   -2.4507   -0.8128 H   0  0  0  0  0  0  0  0  0  0  0  0
    5.4503   -1.0509   -2.0672 H   0  0  0  0  0  0  0  0  0  0  0  0
    7.3568    0.4960   -2.1660 H   0  0  0  0  0  0  0  0  0  0  0  0
    7.3547    0.8086    2.0653 H   0  0  0  0  0  0  0  0  0  0  0  0
    0.0036   -1.0144    1.1184 H   0  0  0  0  0  0  0  0  0  0  0  0
    0.9505    0.1961    1.9937 H   0  0  0  0  0  0  0  0  0  0  0  0
   -0.3714    2.0363    1.2773 H   0  0  0  0  0  0  0  0  0  0  0  0
   -1.3905    0.7631    2.0921 H   0  0  0  0  0  0  0  0  0  0  0  0
   -3.9637   -2.2312    0.1648 H   0  0  0  0  0  0  0  0  0  0  0  0
   -6.4498   -2.3597    0.0532 H   0  0  0  0  0  0  0  0  0  0  0  0
  1  2  2  0
  2  3  1  0
  2  4  1  0
  4  5  2  0
  5  6  1  0
  6  7  2  0
  7  8  1  0
  8  9  1  0
  9 10  1  0
 10 11  1  0
 11 12  1  0
 12 13  1  0
 13 14  2  0
 13 15  1  0
 15 16  1  0
 16 17  1  0
 17 18  2  0
 18 19  1  0
 19 20  2  0
 20 21  1  0
 20 22  1  0
 22 23  2  0
 23 24  1  0
 12 25  1  0
 25 26  1  0
  7 27  1  0
 27 28  2  0
 28  4  1  0
 26  9  1  0
 23 17  1  0
  3 29  1  0
  5 30  1  0
  6 31  1  0
  9 32  1  0
 10 33  1  0
 10 34  1  0
 11 35  1  0
 11 36  1  0
 15 37  1  0
 16 38  1  0
 16 39  1  0
 18 40  1  0
 19 41  1  0
 22 42  1  0
 25 43  1  0
 25 44  1  0
 26 45  1  0
 26 46  1  0
 27 47  1  0
 28 48  1  0
M  END
$$$$
