
     RDKit          3D

 59 63  0  0  0  0  0  0  0  0999 V2000
   -2.6234    1.4581   -3.6052 O   0  0  0  0  0  0  0  0  0  0  0  0
   -2.5444    1.1340   -2.3973 C   0  0  0  0  0  0  0  0  0  0  0  0
   -3.7247    0.9743   -1.6539 N   0  0  0  0  0  0  0  0  0  0  0  0
   -5.0550    1.1431   -2.1020 C   0  0  0  0  0  0  0  0  0  0  0  0
   -5.4187    1.4568   -3.3893 C   0  0  0  0  0  0  0  0  0  0  0  0
   -6.7705    1.6251   -3.7211 C   0  0  0  0  0  0  0  0  0  0  0  0
   -7.7653    1.4837   -2.7809 C   0  0  0  0  0  0  0  0  0  0  0  0
   -7.4072    1.1705   -1.4928 C   0  0  0  0  0  0  0  0  0  0  0  0
   -8.3610    1.0141   -0.4813 C   0  0  0  0  0  0  0  0  0  0  0  0
   -9.5530    1.1639   -0.7740 O   0  0  0  0  0  0  0  0  0  0  0  0
   -7.8899    0.7024    0.7704 C   0  0  0  0  0  0  0  0  0  0  0  0
   -6.5682    0.5375    1.0833 C   0  0  0  0  0  0  0  0  0  0  0  0
   -6.0578    0.2054    2.4174 C   0  0  0  0  0  0  0  0  0  0  0  0
   -4.7540   -0.0132    2.7370 N   0  0  0  0  0  0  0  0  0  0  0  0
   -4.7353   -0.2906    4.0495 N   0  0  0  0  0  0  0  0  0  0  0  0
   -5.9332   -0.2584    4.5536 N   0  0  0  0  0  0  0  0  0  0  0  0
   -6.7447    0.0517    3.5257 N   0  0  0  0  0  0  0  0  0  0  0  0
   -5.7165    0.7004    0.0815 O   0  0  0  0  0  0  0  0  0  0  0  0
   -6.0739    0.9986   -1.1417 C   0  0  0  0  0  0  0  0  0  0  0  0
   -1.2025    0.9431   -1.8322 C   0  0  0  0  0  0  0  0  0  0  0  0
   -0.1220    1.1770   -2.6537 C   0  0  0  0  0  0  0  0  0  0  0  0
    1.1793    1.0536   -2.2508 C   0  0  0  0  0  0  0  0  0  0  0  0
    1.4492    0.6673   -0.9287 C   0  0  0  0  0  0  0  0  0  0  0  0
    2.7591    0.5577   -0.5638 O   0  0  0  0  0  0  0  0  0  0  0  0
    3.3037    0.2051    0.6638 C   0  0  0  0  0  0  0  0  0  0  0  0
    4.8229    0.2467    0.6303 C   0  0  0  0  0  0  0  0  0  0  0  0
    5.3291   -0.7171   -0.4023 C   0  0  0  0  0  0  0  0  0  0  0  0
    6.8474   -0.6724   -0.4801 C   0  0  0  0  0  0  0  0  0  0  0  0
    7.4500   -1.0442    0.8200 C   0  0  0  0  0  0  0  0  0  0  0  0
    7.7654   -2.3490    1.0970 C   0  0  0  0  0  0  0  0  0  0  0  0
    8.3373   -2.7344    2.2943 C   0  0  0  0  0  0  0  0  0  0  0  0
    8.5935   -1.7763    3.2320 C   0  0  0  0  0  0  0  0  0  0  0  0
    8.2860   -0.4712    2.9775 C   0  0  0  0  0  0  0  0  0  0  0  0
    7.7190   -0.0945    1.7855 C   0  0  0  0  0  0  0  0  0  0  0  0
    0.3730    0.4330   -0.1082 C   0  0  0  0  0  0  0  0  0  0  0  0
   -0.9488    0.5678   -0.5493 C   0  0  0  0  0  0  0  0  0  0  0  0
   -3.5915    0.6885   -0.6357 H   0  0  0  0  0  0  0  0  0  0  0  0
   -4.6778    1.5774   -4.1664 H   0  0  0  0  0  0  0  0  0  0  0  0
   -7.0419    1.8692   -4.7229 H   0  0  0  0  0  0  0  0  0  0  0  0
   -8.8040    1.6100   -3.0022 H   0  0  0  0  0  0  0  0  0  0  0  0
   -8.6284    0.5820    1.5640 H   0  0  0  0  0  0  0  0  0  0  0  0
   -7.7643    0.1318    3.6936 H   0  0  0  0  0  0  0  0  0  0  0  0
   -0.2664    1.4851   -3.7032 H   0  0  0  0  0  0  0  0  0  0  0  0
    2.0240    1.2396   -2.8968 H   0  0  0  0  0  0  0  0  0  0  0  0
    2.9391    0.9004    1.4448 H   0  0  0  0  0  0  0  0  0  0  0  0
    3.0094   -0.8302    0.9485 H   0  0  0  0  0  0  0  0  0  0  0  0
    5.1674   -0.1086    1.6301 H   0  0  0  0  0  0  0  0  0  0  0  0
    5.2158    1.2629    0.4494 H   0  0  0  0  0  0  0  0  0  0  0  0
    4.8583   -0.5493   -1.3725 H   0  0  0  0  0  0  0  0  0  0  0  0
    5.0340   -1.7480   -0.0619 H   0  0  0  0  0  0  0  0  0  0  0  0
    7.1103    0.3766   -0.7567 H   0  0  0  0  0  0  0  0  0  0  0  0
    7.2074   -1.3815   -1.2672 H   0  0  0  0  0  0  0  0  0  0  0  0
    7.5551   -3.1079    0.3354 H   0  0  0  0  0  0  0  0  0  0  0  0
    8.5893   -3.7759    2.5073 H   0  0  0  0  0  0  0  0  0  0  0  0
    9.0443   -2.0797    4.1791 H   0  0  0  0  0  0  0  0  0  0  0  0
    8.5064    0.2585    3.7457 H   0  0  0  0  0  0  0  0  0  0  0  0
    7.4953    0.9670    1.6375 H   0  0  0  0  0  0  0  0  0  0  0  0
    0.5474    0.1303    0.9154 H   0  0  0  0  0  0  0  0  0  0  0  0
   -1.7742    0.3768    0.1245 H   0  0  0  0  0  0  0  0  0  0  0  0
  1  2  2  0
  2  3  1  0
  3  4  1  0
  4  5  2  0
  5  6  1  0
  6  7  2  0
  7  8  1  0
  8  9  1  0
  9 10  2  0
  9 11  1  0
 11 12  2  0
 12 13  1  0
 13 14  2  0
 14 15  1  0
 15 16  2  0
 16 17  1  0
 12 18  1  0
 18 19  1  0
  2 20  1  0
 20 21  2  0
 21 22  1  0
 22 23  2  0
 23 24  1  0
 24 25  1  0
 25 26  1  0
 26 27  1  0
 27 28  1  0
 28 29  1  0
 29 30  2  0
 30 31  1  0
 31 32  2  0
 32 33  1  0
 33 34  2  0
 23 35  1  0
 35 36  2  0
 19  4  1  0
 36 20  1  0
 19  8  2  0
 34 29  1  0
 17 13  1  0
  3 37  1  0
  5 38  1  0
  6 39  1  0
  7 40  1  0
 11 41  1  0
 17 42  1  0
 21 43  1  0
 22 44  1  0
 25 45  1  0
 25 46  1  0
 26 47  1  0
 26 48  1  0
 27 49  1  0
 27 50  1  0
 28 51  1  0
 28 52  1  0
 30 53  1  0
 31 54  1  0
 32 55  1  0
 33 56  1  0
 34 57  1  0
 35 58  1  0
 36 59  1  0
M  END
$$$$
