
     RDKit          3D

 72 76  0  0  0  0  0  0  0  0999 V2000
    2.3237   -0.7970   -2.0550 C   0  0  0  0  0  0  0  0  0  0  0  0
    1.6605   -1.6920   -1.2252 N   0  0  0  0  0  0  0  0  0  0  0  0
    0.4073   -2.4034   -1.4773 C   0  0  0  0  0  0  0  0  0  0  0  0
   -0.3394   -1.9670   -2.7122 C   0  0  0  0  0  0  0  0  0  0  0  0
   -1.3697   -1.0278   -2.4368 N   0  0  0  0  0  0  0  0  0  0  0  0
   -1.1297    0.4938   -2.3437 C   0  0  0  0  0  0  0  0  0  0  0  0
   -0.3070    0.9812   -2.8555 O   0  0  0  0  0  0  0  0  0  0  0  0
   -2.3475    0.7480   -1.4300 C   0  0  0  0  0  0  0  0  0  0  0  0
   -3.4004   -0.1542   -1.9840 N   0  0  0  0  0  0  0  0  0  0  0  0
   -4.7213    0.2070   -2.0146 C   0  0  0  0  0  0  0  0  0  0  0  0
   -5.4588    0.0969   -0.8043 C   0  0  0  0  0  0  0  0  0  0  0  0
   -6.6724    0.4033   -0.6134 C   0  0  0  0  0  0  0  0  0  0  0  0
   -7.5961    0.9497   -1.6005 C   0  0  0  0  0  0  0  0  0  0  0  0
   -8.7544    1.1675   -1.2005 O   0  0  0  0  0  0  0  0  0  0  0  0
   -9.3409    1.0123    0.0860 C   0  0  0  0  0  0  0  0  0  0  0  0
   -9.2399    2.3456    0.6416 C   0  0  0  0  0  0  0  0  0  0  0  0
   -9.6893    2.6685    1.8993 C   0  0  0  0  0  0  0  0  0  0  0  0
  -10.2322    1.5984    2.5166 C   0  0  0  0  0  0  0  0  0  0  0  0
  -10.3797    0.2976    2.0980 C   0  0  0  0  0  0  0  0  0  0  0  0
   -9.8682    0.0294    0.7264 C   0  0  0  0  0  0  0  0  0  0  0  0
   -6.8592    1.0698   -2.8194 C   0  0  0  0  0  0  0  0  0  0  0  0
   -5.5563    0.7432   -3.0367 C   0  0  0  0  0  0  0  0  0  0  0  0
   -2.7257   -1.3596   -2.2287 C   0  0  0  0  0  0  0  0  0  0  0  0
   -3.1729   -2.5896   -2.2813 O   0  0  0  0  0  0  0  0  0  0  0  0
    0.2798   -3.1596   -0.4987 C   0  0  0  0  0  0  0  0  0  0  0  0
    1.3238   -3.0668    0.4811 C   0  0  0  0  0  0  0  0  0  0  0  0
    1.3528   -3.7231    1.7979 C   0  0  0  0  0  0  0  0  0  0  0  0
    2.4661   -3.1569    2.4881 N   0  0  0  0  0  0  0  0  0  0  0  0
    3.2941   -2.1698    1.9360 C   0  0  0  0  0  0  0  0  0  0  0  0
    4.4141   -1.5033    2.6580 C   0  0  0  0  0  0  0  0  0  0  0  0
    4.5081   -2.0289    3.9327 O   0  0  0  0  0  0  0  0  0  0  0  0
    5.1540   -0.5965    2.1302 N   0  0  0  0  0  0  0  0  0  0  0  0
    6.2644    0.2118    2.4225 C   0  0  2  0  0  0  0  0  0  0  0  0
    5.9670    1.6461    2.2422 C   0  0  0  0  0  0  0  0  0  0  0  0
    5.6780    3.0254    2.0722 N   0  0  0  0  0  0  0  0  0  0  0  0
    7.5189   -0.2233    1.8634 C   0  0  0  0  0  0  0  0  0  0  0  0
    8.7519    0.5449    2.0366 C   0  0  0  0  0  0  0  0  0  0  0  0
    9.0497    1.8391    1.3910 C   0  0  0  0  0  0  0  0  0  0  0  0
    9.1860    1.6728   -0.1262 C   0  0  0  0  0  0  0  0  0  0  0  0
    7.9593    1.1700   -0.6726 N   0  0  0  0  0  0  0  0  0  0  0  0
    3.0835   -1.7163    0.6977 N   0  0  0  0  0  0  0  0  0  0  0  0
    1.9893   -2.2759    0.0095 C   0  0  0  0  0  0  0  0  0  0  0  0
    3.1305   -1.4178   -2.6348 H   0  0  0  0  0  0  0  0  0  0  0  0
    1.7393   -0.3790   -2.8797 H   0  0  0  0  0  0  0  0  0  0  0  0
    2.8501   -0.0001   -1.5175 H   0  0  0  0  0  0  0  0  0  0  0  0
    0.3741   -1.6132   -3.4455 H   0  0  0  0  0  0  0  0  0  0  0  0
   -0.8045   -2.9121   -3.1091 H   0  0  0  0  0  0  0  0  0  0  0  0
   -2.1584    0.4334   -0.4068 H   0  0  0  0  0  0  0  0  0  0  0  0
   -2.6900    1.7901   -1.5986 H   0  0  0  0  0  0  0  0  0  0  0  0
   -4.8329   -0.3297    0.0288 H   0  0  0  0  0  0  0  0  0  0  0  0
   -7.1753    0.2788    0.3964 H   0  0  0  0  0  0  0  0  0  0  0  0
   -8.7898    3.1552    0.0413 H   0  0  0  0  0  0  0  0  0  0  0  0
   -9.6435    3.6389    2.3139 H   0  0  0  0  0  0  0  0  0  0  0  0
  -10.6371    1.8187    3.5581 H   0  0  0  0  0  0  0  0  0  0  0  0
  -10.8138   -0.4917    2.5895 H   0  0  0  0  0  0  0  0  0  0  0  0
   -9.9356   -0.9555    0.3996 H   0  0  0  0  0  0  0  0  0  0  0  0
   -7.4702    1.4697   -3.6386 H   0  0  0  0  0  0  0  0  0  0  0  0
   -5.0532    0.8709   -3.9966 H   0  0  0  0  0  0  0  0  0  0  0  0
   -0.5780   -3.8871   -0.2305 H   0  0  0  0  0  0  0  0  0  0  0  0
    0.7322   -4.4055    2.1082 H   0  0  0  0  0  0  0  0  0  0  0  0
    4.8180   -0.2903    1.0256 H   0  0  0  0  0  0  0  0  0  0  0  0
    6.3392    0.2147    3.5943 H   0  0  0  0  0  0  0  0  0  0  0  0
    7.3979   -0.3876    0.7217 H   0  0  0  0  0  0  0  0  0  0  0  0
    7.7143   -1.3109    2.1728 H   0  0  0  0  0  0  0  0  0  0  0  0
    8.9302    0.7409    3.1665 H   0  0  0  0  0  0  0  0  0  0  0  0
    9.6292   -0.1784    1.8354 H   0  0  0  0  0  0  0  0  0  0  0  0
   10.0619    2.2134    1.7734 H   0  0  0  0  0  0  0  0  0  0  0  0
    8.3303    2.6477    1.5616 H   0  0  0  0  0  0  0  0  0  0  0  0
   10.0206    0.9690   -0.3301 H   0  0  0  0  0  0  0  0  0  0  0  0
    9.4339    2.6624   -0.6113 H   0  0  0  0  0  0  0  0  0  0  0  0
    7.4898    1.9667   -1.2135 H   0  0  0  0  0  0  0  0  0  0  0  0
    8.1198    0.3785   -1.3849 H   0  0  0  0  0  0  0  0  0  0  0  0
  1  2  1  0
  2  3  1  0
  3  4  1  0
  4  5  1  0
  5  6  1  0
  6  7  2  0
  6  8  1  0
  8  9  1  0
  9 10  1  0
 10 11  2  0
 11 12  1  0
 12 13  2  0
 13 14  1  0
 14 15  1  0
 15 16  2  0
 16 17  1  0
 17 18  2  0
 18 19  1  0
 19 20  2  0
 13 21  1  0
 21 22  2  0
  9 23  1  0
 23 24  2  0
  3 25  2  0
 25 26  1  0
 26 27  2  0
 27 28  1  0
 28 29  2  0
 29 30  1  0
 30 31  2  0
 30 32  1  0
 32 33  1  0
 33 34  1  0
 34 35  3  0
 33 36  1  0
 36 37  1  0
 37 38  1  0
 38 39  1  0
 39 40  1  0
 29 41  1  0
 41 42  2  0
 42  2  1  0
 23  5  1  0
 42 26  1  0
 22 10  1  0
 20 15  1  0
  1 43  1  0
  1 44  1  0
  1 45  1  0
  4 46  1  0
  4 47  1  0
  8 48  1  0
  8 49  1  0
 11 50  1  0
 12 51  1  0
 16 52  1  0
 17 53  1  0
 18 54  1  0
 19 55  1  0
 20 56  1  0
 21 57  1  0
 22 58  1  0
 25 59  1  0
 27 60  1  0
 32 61  1  0
 33 62  1  1
 36 63  1  0
 36 64  1  0
 37 65  1  0
 37 66  1  0
 38 67  1  0
 38 68  1  0
 39 69  1  0
 39 70  1  0
 40 71  1  0
 40 72  1  0
M  END
$$$$
