
     RDKit          3D

 44 46  0  0  0  0  0  0  0  0999 V2000
   -4.1120    2.3597    0.9037 C   0  0  0  0  0  0  0  0  0  0  0  0
   -3.7168    1.4330   -0.2445 C   0  0  2  0  0  0  0  0  0  0  0  0
   -4.8634    0.5327   -0.5604 C   0  0  0  0  0  0  0  0  0  0  0  0
   -4.7794   -0.8110    0.0863 C   0  0  0  0  0  0  0  0  0  0  0  0
   -3.8611   -0.8665    1.2584 C   0  0  0  0  0  0  0  0  0  0  0  0
   -2.5203   -0.2348    1.0316 C   0  0  0  0  0  0  0  0  0  0  0  0
   -2.4891    0.7783    0.0415 N   0  0  0  0  0  0  0  0  0  0  0  0
   -1.5961    0.3032   -1.3251 S   0  0  0  0  0  6  0  0  0  0  0  0
   -2.2076   -0.9779   -1.8671 O   0  0  0  0  0  0  0  0  0  0  0  0
   -1.6476    1.2985   -2.4381 O   0  0  0  0  0  0  0  0  0  0  0  0
    0.0776   -0.0282   -0.9471 C   0  0  0  0  0  0  0  0  0  0  0  0
    0.9721    1.0155   -1.0131 C   0  0  0  0  0  0  0  0  0  0  0  0
    2.3104    0.7775   -0.7180 C   0  0  0  0  0  0  0  0  0  0  0  0
    2.7991   -0.4582   -0.3589 C   0  0  0  0  0  0  0  0  0  0  0  0
    4.1812   -0.6303   -0.0684 N   0  0  0  0  0  0  0  0  0  0  0  0
    5.1833    0.4269   -0.0995 C   0  0  0  0  0  0  0  0  0  0  0  0
    5.9854    0.0998    1.1460 C   0  0  0  0  0  0  0  0  0  0  0  0
    6.1578   -1.3971    1.0231 C   0  0  0  0  0  0  0  0  0  0  0  0
    4.8999   -1.7936    0.3048 C   0  0  0  0  0  0  0  0  0  0  0  0
    4.5072   -2.9677    0.0524 O   0  0  0  0  0  0  0  0  0  0  0  0
    1.8911   -1.4936   -0.2973 C   0  0  0  0  0  0  0  0  0  0  0  0
    0.5428   -1.2730   -0.5904 C   0  0  0  0  0  0  0  0  0  0  0  0
   -3.5017    3.2980    0.8723 H   0  0  0  0  0  0  0  0  0  0  0  0
   -4.0039    1.8864    1.8834 H   0  0  0  0  0  0  0  0  0  0  0  0
   -5.1722    2.6884    0.7960 H   0  0  0  0  0  0  0  0  0  0  0  0
   -3.5510    2.1045   -1.1188 H   0  0  0  0  0  0  0  0  0  0  0  0
   -4.9845    0.3642   -1.6662 H   0  0  0  0  0  0  0  0  0  0  0  0
   -5.8037    1.0868   -0.2696 H   0  0  0  0  0  0  0  0  0  0  0  0
   -4.5828   -1.6420   -0.6523 H   0  0  0  0  0  0  0  0  0  0  0  0
   -5.8149   -1.0477    0.4723 H   0  0  0  0  0  0  0  0  0  0  0  0
   -3.6799   -1.9477    1.4906 H   0  0  0  0  0  0  0  0  0  0  0  0
   -4.3646   -0.4673    2.1808 H   0  0  0  0  0  0  0  0  0  0  0  0
   -1.7354   -0.9997    0.8624 H   0  0  0  0  0  0  0  0  0  0  0  0
   -2.2333    0.2483    2.0122 H   0  0  0  0  0  0  0  0  0  0  0  0
    0.6332    2.0204   -1.2945 H   0  0  0  0  0  0  0  0  0  0  0  0
    2.9473    1.6601   -0.7962 H   0  0  0  0  0  0  0  0  0  0  0  0
    5.7890    0.3452   -1.0176 H   0  0  0  0  0  0  0  0  0  0  0  0
    4.7687    1.4307    0.0610 H   0  0  0  0  0  0  0  0  0  0  0  0
    6.9317    0.6411    1.2096 H   0  0  0  0  0  0  0  0  0  0  0  0
    5.3110    0.3142    2.0134 H   0  0  0  0  0  0  0  0  0  0  0  0
    7.0568   -1.5777    0.4186 H   0  0  0  0  0  0  0  0  0  0  0  0
    6.1665   -1.9133    2.0019 H   0  0  0  0  0  0  0  0  0  0  0  0
    2.2390   -2.4847   -0.0166 H   0  0  0  0  0  0  0  0  0  0  0  0
   -0.1299   -2.1011   -0.5322 H   0  0  0  0  0  0  0  0  0  0  0  0
  1  2  1  0
  2  3  1  0
  3  4  1  0
  4  5  1  0
  5  6  1  0
  6  7  1  0
  7  8  1  0
  8  9  2  0
  8 10  2  0
  8 11  1  0
 11 12  2  0
 12 13  1  0
 13 14  2  0
 14 15  1  0
 15 16  1  0
 16 17  1  0
 17 18  1  0
 18 19  1  0
 19 20  2  0
 14 21  1  0
 21 22  2  0
  7  2  1  0
 22 11  1  0
 19 15  1  0
  1 23  1  0
  1 24  1  0
  1 25  1  0
  2 26  1  6
  3 27  1  0
  3 28  1  0
  4 29  1  0
  4 30  1  0
  5 31  1  0
  5 32  1  0
  6 33  1  0
  6 34  1  0
 12 35  1  0
 13 36  1  0
 16 37  1  0
 16 38  1  0
 17 39  1  0
 17 40  1  0
 18 41  1  0
 18 42  1  0
 21 43  1  0
 22 44  1  0
M  END
$$$$
