
     RDKit          3D

 46 48  0  0  0  0  0  0  0  0999 V2000
   -6.3371    1.6772    0.5782 C   0  0  0  0  0  0  0  0  0  0  0  0
   -5.2396    1.1731   -0.1286 O   0  0  0  0  0  0  0  0  0  0  0  0
   -3.9184    1.4936    0.1170 C   0  0  0  0  0  0  0  0  0  0  0  0
   -3.0321    0.8547   -0.7247 C   0  0  0  0  0  0  0  0  0  0  0  0
   -3.4071   -0.0346   -1.7305 O   0  0  0  0  0  0  0  0  0  0  0  0
   -2.4686   -0.6642   -2.5373 C   0  0  0  0  0  0  0  0  0  0  0  0
   -1.6797    1.0767   -0.5992 C   0  0  0  0  0  0  0  0  0  0  0  0
   -1.0826    1.8988    0.3083 C   0  0  0  0  0  0  0  0  0  0  0  0
    0.2840    2.3212    0.6180 C   0  0  0  0  0  0  0  0  0  0  0  0
    1.0613    1.4312    1.4764 C   0  0  0  0  0  0  0  0  0  0  0  0
    1.0744    1.7574    2.8098 N   0  0  0  0  0  0  0  0  0  0  0  0
    1.7420    0.9918    3.6880 C   0  0  0  0  0  0  0  0  0  0  0  0
    2.4483   -0.1407    3.3715 C   0  0  0  0  0  0  0  0  0  0  0  0
    2.4542   -0.4960    2.0308 C   0  0  0  0  0  0  0  0  0  0  0  0
    3.1581   -1.6259    1.5800 C   0  0  0  0  0  0  0  0  0  0  0  0
    3.1401   -1.9173    0.2278 C   0  0  0  0  0  0  0  0  0  0  0  0
    3.8046   -2.9566   -0.0830 O   0  0  0  0  0  0  0  0  0  0  0  0
    4.4923   -4.0316   -0.4022 C   0  0  0  0  0  0  0  0  0  0  0  0
    2.4435   -1.1258   -0.7165 C   0  0  0  0  0  0  0  0  0  0  0  0
    2.5826   -1.6163   -1.9048 O   0  0  0  0  0  0  0  0  0  0  0  0
    2.2284   -1.4702   -3.2127 C   0  0  0  0  0  0  0  0  0  0  0  0
    1.7606   -0.0111   -0.2076 C   0  0  0  0  0  0  0  0  0  0  0  0
    1.7731    0.2825    1.1233 C   0  0  0  0  0  0  0  0  0  0  0  0
   -2.0202    2.5221    1.1382 C   0  0  0  0  0  0  0  0  0  0  0  0
   -3.3764    2.3414    1.0626 C   0  0  0  0  0  0  0  0  0  0  0  0
   -6.1531    1.6257    1.6656 H   0  0  0  0  0  0  0  0  0  0  0  0
   -7.1987    1.0022    0.3783 H   0  0  0  0  0  0  0  0  0  0  0  0
   -6.6526    2.6836    0.2293 H   0  0  0  0  0  0  0  0  0  0  0  0
   -1.9649    0.0721   -3.1782 H   0  0  0  0  0  0  0  0  0  0  0  0
   -1.6801   -1.1653   -1.8945 H   0  0  0  0  0  0  0  0  0  0  0  0
   -2.9247   -1.4990   -3.1394 H   0  0  0  0  0  0  0  0  0  0  0  0
   -0.9761    0.5932   -1.2544 H   0  0  0  0  0  0  0  0  0  0  0  0
    0.3315    3.3561    1.0380 H   0  0  0  0  0  0  0  0  0  0  0  0
    0.8328    2.3878   -0.3724 H   0  0  0  0  0  0  0  0  0  0  0  0
    1.7748    1.2236    4.7609 H   0  0  0  0  0  0  0  0  0  0  0  0
    2.9987   -0.7851    4.0360 H   0  0  0  0  0  0  0  0  0  0  0  0
    3.6661   -2.1902    2.3475 H   0  0  0  0  0  0  0  0  0  0  0  0
    3.9383   -4.8073   -1.0349 H   0  0  0  0  0  0  0  0  0  0  0  0
    5.4345   -3.8663   -1.0254 H   0  0  0  0  0  0  0  0  0  0  0  0
    4.8790   -4.6742    0.4470 H   0  0  0  0  0  0  0  0  0  0  0  0
    1.7101   -2.3760   -3.6463 H   0  0  0  0  0  0  0  0  0  0  0  0
    1.5894   -0.5801   -3.4335 H   0  0  0  0  0  0  0  0  0  0  0  0
    3.1249   -1.3253   -3.8821 H   0  0  0  0  0  0  0  0  0  0  0  0
    1.2734    0.5496   -0.9780 H   0  0  0  0  0  0  0  0  0  0  0  0
   -1.7741    3.2286    1.9466 H   0  0  0  0  0  0  0  0  0  0  0  0
   -4.1146    2.8146    1.6938 H   0  0  0  0  0  0  0  0  0  0  0  0
  1  2  1  0
  2  3  1  0
  3  4  2  0
  4  5  1  0
  5  6  1  0
  4  7  1  0
  7  8  2  0
  8  9  1  0
  9 10  1  0
 10 11  2  0
 11 12  1  0
 12 13  2  0
 13 14  1  0
 14 15  2  0
 15 16  1  0
 16 17  1  0
 17 18  1  0
 16 19  2  0
 19 20  1  0
 20 21  1  0
 19 22  1  0
 22 23  2  0
  8 24  1  0
 24 25  2  0
 25  3  1  0
 23 10  1  0
 23 14  1  0
  1 26  1  0
  1 27  1  0
  1 28  1  0
  6 29  1  0
  6 30  1  0
  6 31  1  0
  7 32  1  0
  9 33  1  0
  9 34  1  0
 12 35  1  0
 13 36  1  0
 15 37  1  0
 18 38  1  0
 18 39  1  0
 18 40  1  0
 21 41  1  0
 21 42  1  0
 21 43  1  0
 22 44  1  0
 24 45  1  0
 25 46  1  0
M  END
$$$$
