
     RDKit          3D

 48 51  0  0  0  0  0  0  0  0999 V2000
   -2.7011   -0.6635    1.7199 C   0  0  0  0  0  0  0  0  0  0  0  0
   -1.8393   -0.0500    0.6684 C   0  0  0  0  0  0  0  0  0  0  0  0
   -0.6624    0.6699    1.1746 C   0  0  0  0  0  0  0  0  0  0  0  0
    0.6373    0.3008    0.8041 C   0  0  0  0  0  0  0  0  0  0  0  0
    1.7521    0.9550    1.2449 C   0  0  0  0  0  0  0  0  0  0  0  0
    3.0808    0.6398    0.9146 N   0  0  0  0  0  0  0  0  0  0  0  0
    3.5434   -0.3909    0.0806 C   0  0  0  0  0  0  0  0  0  0  0  0
    2.7330   -1.1561   -0.4653 O   0  0  0  0  0  0  0  0  0  0  0  0
    4.9738   -0.6151   -0.1852 C   0  0  0  0  0  0  0  0  0  0  0  0
    5.4049   -1.6333   -1.0071 C   0  0  0  0  0  0  0  0  0  0  0  0
    6.7482   -1.8535   -1.2641 C   0  0  0  0  0  0  0  0  0  0  0  0
    7.7014   -1.0402   -0.6899 C   0  0  0  0  0  0  0  0  0  0  0  0
    9.4197   -1.2472   -0.9603 Cl  0  0  0  0  0  0  0  0  0  0  0  0
    7.2386   -0.0228    0.1335 C   0  0  0  0  0  0  0  0  0  0  0  0
    5.9105    0.1727    0.3702 N   0  0  0  0  0  0  0  0  0  0  0  0
    1.5196    2.0296    2.0993 C   0  0  0  0  0  0  0  0  0  0  0  0
    0.2871    2.4418    2.4996 C   0  0  0  0  0  0  0  0  0  0  0  0
   -0.8211    1.7384    2.0202 C   0  0  0  0  0  0  0  0  0  0  0  0
   -2.0164    2.1910    2.4675 F   0  0  0  0  0  0  0  0  0  0  0  0
   -1.3607   -1.1551   -0.1954 N   0  0  0  0  0  0  0  0  0  0  0  0
   -2.2966   -1.7295   -0.8943 C   0  0  0  0  0  0  0  0  0  0  0  0
   -1.9249   -2.7994   -1.7499 N   0  0  0  0  0  0  0  0  0  0  0  0
   -3.5917   -1.2606   -0.7583 O   0  0  0  0  0  0  0  0  0  0  0  0
   -3.8777    0.1156   -0.7235 C   0  0  0  0  0  0  0  0  0  0  0  0
   -4.4546    0.6721   -2.0067 C   0  0  0  0  0  0  0  0  0  0  0  0
   -5.7418    1.0640   -1.3113 C   0  0  0  0  0  0  0  0  0  0  0  0
   -5.1266    0.5291   -0.0119 C   0  0  0  0  0  0  0  0  0  0  0  0
   -2.6205    0.8315   -0.3085 C   0  0  0  0  0  0  0  0  0  0  0  0
   -2.8033    2.1036    0.1060 F   0  0  0  0  0  0  0  0  0  0  0  0
   -1.8210    0.8990   -1.4593 F   0  0  0  0  0  0  0  0  0  0  0  0
   -2.9858   -1.7255    1.4620 H   0  0  0  0  0  0  0  0  0  0  0  0
   -3.6323   -0.1399    1.9327 H   0  0  0  0  0  0  0  0  0  0  0  0
   -2.1662   -0.7615    2.7077 H   0  0  0  0  0  0  0  0  0  0  0  0
    0.7277   -0.5368    0.1439 H   0  0  0  0  0  0  0  0  0  0  0  0
    3.8662    1.2374    1.3312 H   0  0  0  0  0  0  0  0  0  0  0  0
    4.6457   -2.2663   -1.4531 H   0  0  0  0  0  0  0  0  0  0  0  0
    7.0925   -2.6486   -1.9064 H   0  0  0  0  0  0  0  0  0  0  0  0
    8.0012    0.6072    0.5767 H   0  0  0  0  0  0  0  0  0  0  0  0
    2.3918    2.5806    2.4746 H   0  0  0  0  0  0  0  0  0  0  0  0
    0.1860    3.2819    3.1624 H   0  0  0  0  0  0  0  0  0  0  0  0
   -2.0468   -3.7766   -1.4689 H   0  0  0  0  0  0  0  0  0  0  0  0
   -1.5200   -2.5756   -2.6818 H   0  0  0  0  0  0  0  0  0  0  0  0
   -4.6206   -0.0961   -2.7941 H   0  0  0  0  0  0  0  0  0  0  0  0
   -3.9325    1.5604   -2.4112 H   0  0  0  0  0  0  0  0  0  0  0  0
   -6.6085    0.4243   -1.6213 H   0  0  0  0  0  0  0  0  0  0  0  0
   -5.9700    2.1381   -1.3024 H   0  0  0  0  0  0  0  0  0  0  0  0
   -5.6600   -0.3884    0.3722 H   0  0  0  0  0  0  0  0  0  0  0  0
   -5.0593    1.3484    0.7076 H   0  0  0  0  0  0  0  0  0  0  0  0
  1  2  1  0
  2  3  1  0
  3  4  2  0
  4  5  1  0
  5  6  1  0
  6  7  1  0
  7  8  2  0
  7  9  1  0
  9 10  2  0
 10 11  1  0
 11 12  2  0
 12 13  1  0
 12 14  1  0
 14 15  2  0
  5 16  2  0
 16 17  1  0
 17 18  2  0
 18 19  1  0
  2 20  1  0
 20 21  2  0
 21 22  1  0
 21 23  1  0
 23 24  1  0
 24 25  1  0
 25 26  1  0
 26 27  1  0
 24 28  1  0
 28 29  1  0
 28 30  1  0
 28  2  1  0
 18  3  1  0
 27 24  1  0
 15  9  1  0
  1 31  1  0
  1 32  1  0
  1 33  1  0
  4 34  1  0
  6 35  1  0
 10 36  1  0
 11 37  1  0
 14 38  1  0
 16 39  1  0
 17 40  1  0
 22 41  1  0
 22 42  1  0
 25 43  1  0
 25 44  1  0
 26 45  1  0
 26 46  1  0
 27 47  1  0
 27 48  1  0
M  END
$$$$
