
     RDKit          3D

 71 72  0  0  0  0  0  0  0  0999 V2000
    8.8645    1.0495    0.8945 C   0  0  0  0  0  0  0  0  0  0  0  0
    8.2039   -0.0885    0.4174 O   0  0  0  0  0  0  0  0  0  0  0  0
    6.9328   -0.1293   -0.0758 C   0  0  0  0  0  0  0  0  0  0  0  0
    6.5231   -1.3990   -0.4677 C   0  0  0  0  0  0  0  0  0  0  0  0
    7.3762   -2.4940   -0.3446 O   0  0  0  0  0  0  0  0  0  0  0  0
    6.9728   -3.7960   -0.7419 C   0  0  0  0  0  0  0  0  0  0  0  0
    5.2453   -1.5636   -0.9879 C   0  0  0  0  0  0  0  0  0  0  0  0
    4.2756   -0.5496   -1.1727 C   0  0  0  0  0  0  0  0  0  0  0  0
    3.0678   -1.0770   -1.7768 C   0  0  0  0  0  0  0  0  0  0  0  0
    2.0274   -1.7067   -0.9637 C   0  0  0  0  0  0  0  0  0  0  0  0
    1.2544   -1.0071   -0.0120 N   0  0  0  0  0  0  0  0  0  0  0  0
    0.4822   -1.8915    0.7194 C   0  0  0  0  0  0  0  0  0  0  0  0
    1.1012    0.3242   -0.2001 C   0  0  0  0  0  0  0  0  0  0  0  0
    0.0526    1.1460    0.5063 C   0  0  0  0  0  0  0  0  0  0  0  0
   -1.2912    0.6686    0.1044 C   0  0  0  0  0  0  0  0  0  0  0  0
   -2.4792    1.3707    0.6826 C   0  0  0  0  0  0  0  0  0  0  0  0
   -2.4224    1.2662    2.1365 C   0  0  0  0  0  0  0  0  0  0  0  0
   -2.3673    1.2012    3.2905 N   0  0  0  0  0  0  0  0  0  0  0  0
   -2.7904    2.7191    0.1623 C   0  0  0  0  0  0  0  0  0  0  0  0
   -3.0579    2.7127   -1.3459 C   0  0  0  0  0  0  0  0  0  0  0  0
   -1.9145    3.8508    0.4936 C   0  0  0  0  0  0  0  0  0  0  0  0
   -3.6682    0.5144    0.2854 C   0  0  0  0  0  0  0  0  0  0  0  0
   -4.9019    0.8123    0.8323 C   0  0  0  0  0  0  0  0  0  0  0  0
   -6.0259    0.0687    0.5158 C   0  0  0  0  0  0  0  0  0  0  0  0
   -7.3122    0.3012    1.0237 O   0  0  0  0  0  0  0  0  0  0  0  0
   -7.5110    1.3567    1.9273 C   0  0  0  0  0  0  0  0  0  0  0  0
   -5.9339   -0.9836   -0.3523 C   0  0  0  0  0  0  0  0  0  0  0  0
   -7.0398   -1.7545   -0.6940 O   0  0  0  0  0  0  0  0  0  0  0  0
   -6.8975   -2.8378   -1.6013 C   0  0  0  0  0  0  0  0  0  0  0  0
   -4.7316   -1.3009   -0.9079 C   0  0  0  0  0  0  0  0  0  0  0  0
   -3.6297   -0.5511   -0.5808 C   0  0  0  0  0  0  0  0  0  0  0  0
    4.7759    0.6760   -0.7539 C   0  0  0  0  0  0  0  0  0  0  0  0
    6.0277    0.8721   -0.2369 C   0  0  0  0  0  0  0  0  0  0  0  0
    9.4062    0.7939    1.8399 H   0  0  0  0  0  0  0  0  0  0  0  0
    8.1883    1.9035    1.0791 H   0  0  0  0  0  0  0  0  0  0  0  0
    9.6438    1.4125    0.1529 H   0  0  0  0  0  0  0  0  0  0  0  0
    7.8741   -4.4409   -0.6843 H   0  0  0  0  0  0  0  0  0  0  0  0
    6.1992   -4.1413   -0.0520 H   0  0  0  0  0  0  0  0  0  0  0  0
    6.6092   -3.7789   -1.7824 H   0  0  0  0  0  0  0  0  0  0  0  0
    5.0265   -2.6088   -1.2625 H   0  0  0  0  0  0  0  0  0  0  0  0
    3.3736   -1.7880   -2.6125 H   0  0  0  0  0  0  0  0  0  0  0  0
    2.6494   -0.2099   -2.4042 H   0  0  0  0  0  0  0  0  0  0  0  0
    1.2514   -2.1460   -1.6984 H   0  0  0  0  0  0  0  0  0  0  0  0
    2.3870   -2.6577   -0.4607 H   0  0  0  0  0  0  0  0  0  0  0  0
    0.0317   -1.5960    1.6754 H   0  0  0  0  0  0  0  0  0  0  0  0
   -0.2951   -2.4718    0.1585 H   0  0  0  0  0  0  0  0  0  0  0  0
    1.1926   -2.7381    1.0556 H   0  0  0  0  0  0  0  0  0  0  0  0
    1.0880    0.5658   -1.3084 H   0  0  0  0  0  0  0  0  0  0  0  0
    2.0961    0.8192    0.1007 H   0  0  0  0  0  0  0  0  0  0  0  0
    0.2243    2.2142    0.2593 H   0  0  0  0  0  0  0  0  0  0  0  0
    0.2107    1.1337    1.6241 H   0  0  0  0  0  0  0  0  0  0  0  0
   -1.3199    0.6527   -1.0138 H   0  0  0  0  0  0  0  0  0  0  0  0
   -1.4117   -0.3919    0.3858 H   0  0  0  0  0  0  0  0  0  0  0  0
   -3.8159    2.9759    0.5865 H   0  0  0  0  0  0  0  0  0  0  0  0
   -4.0566    2.3494   -1.6078 H   0  0  0  0  0  0  0  0  0  0  0  0
   -2.2303    2.2332   -1.9144 H   0  0  0  0  0  0  0  0  0  0  0  0
   -3.0286    3.7827   -1.6526 H   0  0  0  0  0  0  0  0  0  0  0  0
   -1.5655    3.8009    1.5591 H   0  0  0  0  0  0  0  0  0  0  0  0
   -2.5552    4.7932    0.4675 H   0  0  0  0  0  0  0  0  0  0  0  0
   -1.1077    4.1003   -0.2241 H   0  0  0  0  0  0  0  0  0  0  0  0
   -5.0112    1.6275    1.5137 H   0  0  0  0  0  0  0  0  0  0  0  0
   -8.4696    1.2591    2.4967 H   0  0  0  0  0  0  0  0  0  0  0  0
   -6.6684    1.4705    2.6604 H   0  0  0  0  0  0  0  0  0  0  0  0
   -7.6076    2.3342    1.3936 H   0  0  0  0  0  0  0  0  0  0  0  0
   -7.8648   -3.3126   -1.8015 H   0  0  0  0  0  0  0  0  0  0  0  0
   -6.1736   -3.5876   -1.1790 H   0  0  0  0  0  0  0  0  0  0  0  0
   -6.5022   -2.4685   -2.5583 H   0  0  0  0  0  0  0  0  0  0  0  0
   -4.6535   -2.1265   -1.5914 H   0  0  0  0  0  0  0  0  0  0  0  0
   -2.7027   -0.8332   -1.0473 H   0  0  0  0  0  0  0  0  0  0  0  0
    4.0532    1.4449   -0.9089 H   0  0  0  0  0  0  0  0  0  0  0  0
    6.3252    1.8504    0.0600 H   0  0  0  0  0  0  0  0  0  0  0  0
  1  2  1  0
  2  3  1  0
  3  4  2  0
  4  5  1  0
  5  6  1  0
  4  7  1  0
  7  8  2  0
  8  9  1  0
  9 10  1  0
 10 11  1  0
 11 12  1  0
 11 13  1  0
 13 14  1  0
 14 15  1  0
 15 16  1  0
 16 17  1  0
 17 18  3  0
 16 19  1  0
 19 20  1  0
 19 21  1  0
 16 22  1  0
 22 23  2  0
 23 24  1  0
 24 25  1  0
 25 26  1  0
 24 27  2  0
 27 28  1  0
 28 29  1  0
 27 30  1  0
 30 31  2  0
  8 32  1  0
 32 33  2  0
 33  3  1  0
 31 22  1  0
  1 34  1  0
  1 35  1  0
  1 36  1  0
  6 37  1  0
  6 38  1  0
  6 39  1  0
  7 40  1  0
  9 41  1  0
  9 42  1  0
 10 43  1  0
 10 44  1  0
 12 45  1  0
 12 46  1  0
 12 47  1  0
 13 48  1  0
 13 49  1  0
 14 50  1  0
 14 51  1  0
 15 52  1  0
 15 53  1  0
 19 54  1  0
 20 55  1  0
 20 56  1  0
 20 57  1  0
 21 58  1  0
 21 59  1  0
 21 60  1  0
 23 61  1  0
 26 62  1  0
 26 63  1  0
 26 64  1  0
 29 65  1  0
 29 66  1  0
 29 67  1  0
 30 68  1  0
 31 69  1  0
 32 70  1  0
 33 71  1  0
M  END
$$$$
