
     RDKit          3D

 42 44  0  0  0  0  0  0  0  0999 V2000
   -4.3415    1.5347   -0.1543 C   0  0  0  0  0  0  0  0  0  0  0  0
   -2.8407    1.4067   -0.0921 C   0  0  0  0  0  0  0  0  0  0  0  0
   -2.0604    2.6598   -0.1835 C   0  0  0  0  0  0  0  0  0  0  0  0
   -2.2613    0.2319    0.0689 C   0  0  0  0  0  0  0  0  0  0  0  0
   -3.0941   -0.9506    0.1887 C   0  0  0  0  0  0  0  0  0  0  0  0
   -3.7892   -1.4769   -0.9082 C   0  0  0  0  0  0  0  0  0  0  0  0
   -4.5999   -2.5787   -0.7302 C   0  0  0  0  0  0  0  0  0  0  0  0
   -4.7512   -3.1744    0.4667 N   0  0  0  0  0  0  0  0  0  0  0  0
   -4.0967   -2.6871    1.5249 C   0  0  0  0  0  0  0  0  0  0  0  0
   -3.2635   -1.5694    1.3887 C   0  0  0  0  0  0  0  0  0  0  0  0
   -0.8045    0.1448    0.0342 C   0  0  0  0  0  0  0  0  0  0  0  0
   -0.0953    0.7923   -0.9962 C   0  0  0  0  0  0  0  0  0  0  0  0
    1.2788    0.7410   -1.0537 C   0  0  0  0  0  0  0  0  0  0  0  0
    2.0263    0.0541   -0.1070 C   0  0  0  0  0  0  0  0  0  0  0  0
    3.4830    0.0039   -0.1709 C   0  0  0  0  0  0  0  0  0  0  0  0
    4.2388   -0.0831    0.9800 C   0  0  0  0  0  0  0  0  0  0  0  0
    5.6258   -0.1291    0.9371 C   0  0  0  0  0  0  0  0  0  0  0  0
    6.2667   -0.0876   -0.2753 C   0  0  0  0  0  0  0  0  0  0  0  0
    7.6599   -0.1362   -0.2716 O   0  0  0  0  0  0  0  0  0  0  0  0
    5.5490   -0.0018   -1.4313 C   0  0  0  0  0  0  0  0  0  0  0  0
    6.2242    0.0361   -2.6075 F   0  0  0  0  0  0  0  0  0  0  0  0
    4.1561    0.0438   -1.3742 C   0  0  0  0  0  0  0  0  0  0  0  0
    1.2952   -0.5621    0.8784 C   0  0  0  0  0  0  0  0  0  0  0  0
   -0.0826   -0.5392    0.9786 C   0  0  0  0  0  0  0  0  0  0  0  0
   -4.8125    0.7304   -0.7327 H   0  0  0  0  0  0  0  0  0  0  0  0
   -4.5925    2.4931   -0.6101 H   0  0  0  0  0  0  0  0  0  0  0  0
   -4.7605    1.5521    0.8782 H   0  0  0  0  0  0  0  0  0  0  0  0
   -1.0449    2.6050    0.2442 H   0  0  0  0  0  0  0  0  0  0  0  0
   -2.0632    3.1152   -1.1891 H   0  0  0  0  0  0  0  0  0  0  0  0
   -2.6015    3.3906    0.5106 H   0  0  0  0  0  0  0  0  0  0  0  0
   -3.6471   -0.9896   -1.8513 H   0  0  0  0  0  0  0  0  0  0  0  0
   -5.1346   -2.9728   -1.6040 H   0  0  0  0  0  0  0  0  0  0  0  0
   -4.2296   -3.1780    2.4820 H   0  0  0  0  0  0  0  0  0  0  0  0
   -2.8001   -1.2419    2.2878 H   0  0  0  0  0  0  0  0  0  0  0  0
   -0.6661    1.3310   -1.7568 H   0  0  0  0  0  0  0  0  0  0  0  0
    1.7545    1.2622   -1.8735 H   0  0  0  0  0  0  0  0  0  0  0  0
    3.6923   -0.1126    1.9122 H   0  0  0  0  0  0  0  0  0  0  0  0
    6.1962   -0.1976    1.8536 H   0  0  0  0  0  0  0  0  0  0  0  0
    8.1507    0.6061    0.2141 H   0  0  0  0  0  0  0  0  0  0  0  0
    3.6053    0.1113   -2.2827 H   0  0  0  0  0  0  0  0  0  0  0  0
    1.8203   -1.1212    1.6572 H   0  0  0  0  0  0  0  0  0  0  0  0
   -0.5896   -1.0561    1.7953 H   0  0  0  0  0  0  0  0  0  0  0  0
  1  2  1  0
  2  3  1  0
  2  4  2  3
  4  5  1  0
  5  6  2  0
  6  7  1  0
  7  8  2  0
  8  9  1  0
  9 10  2  0
  4 11  1  0
 11 12  2  0
 12 13  1  0
 13 14  2  0
 14 15  1  0
 15 16  2  0
 16 17  1  0
 17 18  2  0
 18 19  1  0
 18 20  1  0
 20 21  1  0
 20 22  2  0
 14 23  1  0
 23 24  2  0
 10  5  1  0
 24 11  1  0
 22 15  1  0
  1 25  1  0
  1 26  1  0
  1 27  1  0
  3 28  1  0
  3 29  1  0
  3 30  1  0
  6 31  1  0
  7 32  1  0
  9 33  1  0
 10 34  1  0
 12 35  1  0
 13 36  1  0
 16 37  1  0
 17 38  1  0
 19 39  1  0
 22 40  1  0
 23 41  1  0
 24 42  1  0
M  END
$$$$
