
     RDKit          3D

 62 64  0  0  0  0  0  0  0  0999 V2000
    2.1847   -1.2765   -2.9549 C   0  0  0  0  0  0  0  0  0  0  0  0
    1.6499    0.1077   -3.1270 C   0  0  0  0  0  0  0  0  0  0  0  0
    0.6815    0.4141   -2.0277 N   0  0  0  0  0  0  0  0  0  0  0  0
   -0.6911    0.0651   -2.2386 C   0  0  0  0  0  0  0  0  0  0  0  0
   -1.0763   -1.3278   -1.9599 C   0  0  0  0  0  0  0  0  0  0  0  0
   -1.1251   -2.1770   -3.0970 C   0  0  0  0  0  0  0  0  0  0  0  0
   -1.4694   -3.4972   -3.0221 C   0  0  0  0  0  0  0  0  0  0  0  0
   -1.4973   -4.3263   -4.2711 C   0  0  0  0  0  0  0  0  0  0  0  0
   -2.2459   -3.6689   -5.2183 F   0  0  0  0  0  0  0  0  0  0  0  0
   -1.9992   -5.5581   -3.9416 F   0  0  0  0  0  0  0  0  0  0  0  0
   -0.1948   -4.4935   -4.6999 F   0  0  0  0  0  0  0  0  0  0  0  0
   -1.7887   -4.0495   -1.7883 C   0  0  0  0  0  0  0  0  0  0  0  0
   -1.7551   -3.2693   -0.6652 C   0  0  0  0  0  0  0  0  0  0  0  0
   -1.3950   -1.9121   -0.7833 C   0  0  0  0  0  0  0  0  0  0  0  0
   -1.3825   -1.1744    0.4582 C   0  0  0  0  0  0  0  0  0  0  0  0
   -0.3635   -1.3273    1.3749 C   0  0  0  0  0  0  0  0  0  0  0  0
   -0.4097   -0.6897    2.6002 C   0  0  0  0  0  0  0  0  0  0  0  0
    0.6825   -0.8498    3.6079 C   0  0  0  0  0  0  0  0  0  0  0  0
    0.4033   -1.9227    4.5609 C   0  0  0  0  0  0  0  0  0  0  0  0
   -0.6478   -2.5973    4.4788 O   0  0  0  0  0  0  0  0  0  0  0  0
    1.2980   -2.2119    5.5734 O   0  0  0  0  0  0  0  0  0  0  0  0
   -1.4723    0.1247    2.9578 C   0  0  0  0  0  0  0  0  0  0  0  0
   -2.5029    0.2813    2.0318 C   0  0  0  0  0  0  0  0  0  0  0  0
   -2.4379   -0.3654    0.8118 C   0  0  0  0  0  0  0  0  0  0  0  0
   -3.5249   -0.1424   -0.0501 O   0  0  0  0  0  0  0  0  0  0  0  0
   -4.6099    0.6695    0.2719 C   0  0  0  0  0  0  0  0  0  0  0  0
    1.2735    0.9844   -0.8721 C   0  0  0  0  0  0  0  0  0  0  0  0
    2.5559    1.1331   -0.8247 O   0  0  0  0  0  0  0  0  0  0  0  0
    0.6219    1.4235    0.2489 O   0  0  0  0  0  0  0  0  0  0  0  0
    1.1570    1.9994    1.3875 C   0  0  0  0  0  0  0  0  0  0  0  0
    1.8928    3.2497    1.2301 C   0  0  0  0  0  0  0  0  0  0  0  0
    3.2604    3.2474    1.1155 C   0  0  0  0  0  0  0  0  0  0  0  0
    3.9860    4.4145    0.9566 C   0  0  0  0  0  0  0  0  0  0  0  0
    3.3179    5.6379    0.9106 C   0  0  0  0  0  0  0  0  0  0  0  0
    1.9527    5.6385    1.0259 C   0  0  0  0  0  0  0  0  0  0  0  0
    1.2419    4.4707    1.1832 C   0  0  0  0  0  0  0  0  0  0  0  0
    1.7986   -1.9854   -3.7108 H   0  0  0  0  0  0  0  0  0  0  0  0
    3.2957   -1.3469   -3.0073 H   0  0  0  0  0  0  0  0  0  0  0  0
    1.8590   -1.6853   -1.9636 H   0  0  0  0  0  0  0  0  0  0  0  0
    1.1649    0.2974   -4.1046 H   0  0  0  0  0  0  0  0  0  0  0  0
    2.4725    0.8304   -3.0206 H   0  0  0  0  0  0  0  0  0  0  0  0
   -0.9047    0.3266   -3.3195 H   0  0  0  0  0  0  0  0  0  0  0  0
   -1.2716    0.7825   -1.5831 H   0  0  0  0  0  0  0  0  0  0  0  0
   -0.8694   -1.7219   -4.0549 H   0  0  0  0  0  0  0  0  0  0  0  0
   -2.0645   -5.0851   -1.6918 H   0  0  0  0  0  0  0  0  0  0  0  0
   -2.0019   -3.6914    0.2976 H   0  0  0  0  0  0  0  0  0  0  0  0
    0.5146   -1.9536    1.1702 H   0  0  0  0  0  0  0  0  0  0  0  0
    0.9435    0.1092    4.1079 H   0  0  0  0  0  0  0  0  0  0  0  0
    1.5994   -1.0779    2.9821 H   0  0  0  0  0  0  0  0  0  0  0  0
    1.0211   -2.7471    6.3900 H   0  0  0  0  0  0  0  0  0  0  0  0
   -1.4971    0.6241    3.9322 H   0  0  0  0  0  0  0  0  0  0  0  0
   -3.3258    0.9152    2.3175 H   0  0  0  0  0  0  0  0  0  0  0  0
   -5.4256    0.4112   -0.4649 H   0  0  0  0  0  0  0  0  0  0  0  0
   -4.4089    1.7544    0.1455 H   0  0  0  0  0  0  0  0  0  0  0  0
   -5.0526    0.4458    1.2789 H   0  0  0  0  0  0  0  0  0  0  0  0
    1.7839    1.1963    1.8819 H   0  0  0  0  0  0  0  0  0  0  0  0
    0.3306    2.1928    2.1061 H   0  0  0  0  0  0  0  0  0  0  0  0
    3.8795    2.3387    1.1536 H   0  0  0  0  0  0  0  0  0  0  0  0
    5.0502    4.3870    0.8688 H   0  0  0  0  0  0  0  0  0  0  0  0
    3.9299    6.5156    0.7862 H   0  0  0  0  0  0  0  0  0  0  0  0
    1.4463    6.5942    0.9901 H   0  0  0  0  0  0  0  0  0  0  0  0
    0.1619    4.5489    1.2679 H   0  0  0  0  0  0  0  0  0  0  0  0
  1  2  1  0
  2  3  1  0
  3  4  1  0
  4  5  1  0
  5  6  2  0
  6  7  1  0
  7  8  1  0
  8  9  1  0
  8 10  1  0
  8 11  1  0
  7 12  2  0
 12 13  1  0
 13 14  2  0
 14 15  1  0
 15 16  2  0
 16 17  1  0
 17 18  1  0
 18 19  1  0
 19 20  2  0
 19 21  1  0
 17 22  2  0
 22 23  1  0
 23 24  2  0
 24 25  1  0
 25 26  1  0
  3 27  1  0
 27 28  2  0
 27 29  1  0
 29 30  1  0
 30 31  1  0
 31 32  2  0
 32 33  1  0
 33 34  2  0
 34 35  1  0
 35 36  2  0
 14  5  1  0
 24 15  1  0
 36 31  1  0
  1 37  1  0
  1 38  1  0
  1 39  1  0
  2 40  1  0
  2 41  1  0
  4 42  1  0
  4 43  1  0
  6 44  1  0
 12 45  1  0
 13 46  1  0
 16 47  1  0
 18 48  1  0
 18 49  1  0
 21 50  1  0
 22 51  1  0
 23 52  1  0
 26 53  1  0
 26 54  1  0
 26 55  1  0
 30 56  1  0
 30 57  1  0
 32 58  1  0
 33 59  1  0
 34 60  1  0
 35 61  1  0
 36 62  1  0
M  END
$$$$
