
     RDKit          3D

 43 46  0  0  0  0  0  0  0  0999 V2000
    3.2230    2.4066    1.8986 N   0  0  0  0  0  0  0  0  0  0  0  0
    2.6688    1.4372    1.0256 N   0  0  0  0  0  0  0  0  0  0  0  0
    3.4847    0.8949    0.0217 C   0  0  0  0  0  0  0  0  0  0  0  0
    4.6775    1.2865   -0.0683 O   0  0  0  0  0  0  0  0  0  0  0  0
    3.0435   -0.1164   -0.9538 C   0  0  0  0  0  0  0  0  0  0  0  0
    3.7794   -0.6832   -1.9666 C   0  0  0  0  0  0  0  0  0  0  0  0
    2.9912   -1.5511   -2.6137 N   0  0  0  0  0  0  0  0  0  0  0  0
    1.7724   -1.5655   -2.0553 C   0  0  0  0  0  0  0  0  0  0  0  0
    0.5990   -2.2698   -2.3278 C   0  0  0  0  0  0  0  0  0  0  0  0
   -0.4779   -2.0154   -1.5193 C   0  0  0  0  0  0  0  0  0  0  0  0
   -0.4244   -1.1138   -0.4848 C   0  0  0  0  0  0  0  0  0  0  0  0
   -1.5739   -0.8503    0.3767 C   0  0  0  0  0  0  0  0  0  0  0  0
   -2.2254    0.3495    0.5060 C   0  0  0  0  0  0  0  0  0  0  0  0
   -1.8991    1.5977   -0.1991 C   0  0  0  0  0  0  0  0  0  0  0  0
   -1.9981    1.7299   -1.5661 C   0  0  0  0  0  0  0  0  0  0  0  0
   -1.6901    2.9041   -2.2322 C   0  0  0  0  0  0  0  0  0  0  0  0
   -1.2664    3.9941   -1.5185 C   0  0  0  0  0  0  0  0  0  0  0  0
   -0.9612    5.1600   -2.1784 F   0  0  0  0  0  0  0  0  0  0  0  0
   -1.1612    3.8802   -0.1492 C   0  0  0  0  0  0  0  0  0  0  0  0
   -1.4693    2.7053    0.5185 C   0  0  0  0  0  0  0  0  0  0  0  0
   -3.2389    0.1878    1.4075 N   0  0  0  0  0  0  0  0  0  0  0  0
   -3.1945   -1.1046    1.8170 C   0  0  0  0  0  0  0  0  0  0  0  0
   -2.1643   -1.7368    1.1758 N   0  0  0  0  0  0  0  0  0  0  0  0
   -1.7939   -3.1097    1.3431 C   0  0  0  0  0  0  0  0  0  0  0  0
   -0.7783   -3.3428    2.4417 C   0  0  0  0  0  0  0  0  0  0  0  0
   -0.5387   -4.7240    2.4603 F   0  0  0  0  0  0  0  0  0  0  0  0
    0.3773   -2.6440    2.2850 F   0  0  0  0  0  0  0  0  0  0  0  0
    0.7485   -0.4750   -0.2893 N   0  0  0  0  0  0  0  0  0  0  0  0
    1.8049   -0.6882   -1.0402 N   0  0  0  0  0  0  0  0  0  0  0  0
    3.8250    1.9657    2.5988 H   0  0  0  0  0  0  0  0  0  0  0  0
    3.6995    3.0890    1.2653 H   0  0  0  0  0  0  0  0  0  0  0  0
    1.6884    1.1367    1.1241 H   0  0  0  0  0  0  0  0  0  0  0  0
    4.8329   -0.4388   -2.1767 H   0  0  0  0  0  0  0  0  0  0  0  0
    0.6016   -2.9633   -3.1439 H   0  0  0  0  0  0  0  0  0  0  0  0
   -1.4031   -2.5389   -1.7034 H   0  0  0  0  0  0  0  0  0  0  0  0
   -2.3287    0.8841   -2.1365 H   0  0  0  0  0  0  0  0  0  0  0  0
   -1.7760    2.9787   -3.2893 H   0  0  0  0  0  0  0  0  0  0  0  0
   -0.8314    4.7270    0.4060 H   0  0  0  0  0  0  0  0  0  0  0  0
   -1.3848    2.6186    1.6067 H   0  0  0  0  0  0  0  0  0  0  0  0
   -3.8669   -1.5711    2.5397 H   0  0  0  0  0  0  0  0  0  0  0  0
   -1.4789   -3.6276    0.4138 H   0  0  0  0  0  0  0  0  0  0  0  0
   -2.7016   -3.6986    1.6772 H   0  0  0  0  0  0  0  0  0  0  0  0
   -1.1904   -3.1046    3.4439 H   0  0  0  0  0  0  0  0  0  0  0  0
  1  2  1  0
  2  3  1  0
  3  4  2  0
  3  5  1  0
  5  6  2  0
  6  7  1  0
  7  8  2  0
  8  9  1  0
  9 10  2  0
 10 11  1  0
 11 12  1  0
 12 13  2  0
 13 14  1  0
 14 15  2  0
 15 16  1  0
 16 17  2  0
 17 18  1  0
 17 19  1  0
 19 20  2  0
 13 21  1  0
 21 22  2  0
 22 23  1  0
 23 24  1  0
 24 25  1  0
 25 26  1  0
 25 27  1  0
 11 28  2  0
 28 29  1  0
 29  5  1  0
 29  8  1  0
 23 12  1  0
 20 14  1  0
  1 30  1  0
  1 31  1  0
  2 32  1  0
  6 33  1  0
  9 34  1  0
 10 35  1  0
 15 36  1  0
 16 37  1  0
 19 38  1  0
 20 39  1  0
 22 40  1  0
 24 41  1  0
 24 42  1  0
 25 43  1  0
M  END
$$$$
