
     RDKit          3D

 50 52  0  0  0  0  0  0  0  0999 V2000
    2.7766   -2.2035   -1.4530 C   0  0  0  0  0  0  0  0  0  0  0  0
    2.4876   -1.3904   -0.2369 C   0  0  1  0  0  0  0  0  0  0  0  0
    3.3639   -0.2228   -0.1991 C   0  0  0  0  0  0  0  0  0  0  0  0
    4.3788   -0.0945   -1.1202 C   0  0  0  0  0  0  0  0  0  0  0  0
    5.2295    0.9985   -1.1165 C   0  0  0  0  0  0  0  0  0  0  0  0
    5.0301    1.9647   -0.1551 C   0  0  0  0  0  0  0  0  0  0  0  0
    6.1590    3.5226   -0.0654 Br  0  0  0  0  0  0  0  0  0  0  0  0
    4.0109    1.8336    0.7682 C   0  0  0  0  0  0  0  0  0  0  0  0
    3.1614    0.7520    0.7722 C   0  0  0  0  0  0  0  0  0  0  0  0
    1.0868   -1.0783   -0.0766 N   0  0  0  0  0  0  0  0  0  0  0  0
    0.3066   -1.5665    1.0336 C   0  0  0  0  0  0  0  0  0  0  0  0
   -0.8966   -0.7239    1.3417 C   0  0  0  0  0  0  0  0  0  0  0  0
   -1.5556   -0.0803    0.2040 C   0  0  2  0  0  0  0  0  0  0  0  0
   -2.4293    1.0644    0.6486 C   0  0  0  0  0  0  0  0  0  0  0  0
   -1.7389    2.1783    1.3546 C   0  0  0  0  0  0  0  0  0  0  0  0
   -2.7453    3.2301    1.6983 C   0  0  0  0  0  0  0  0  0  0  0  0
   -2.3158    4.4004    2.3820 N   0  0  0  0  0  0  0  0  0  0  0  0
   -3.9478    3.0684    1.3817 O   0  0  0  0  0  0  0  0  0  0  0  0
   -2.4515   -0.9763   -0.6160 C   0  0  0  0  0  0  0  0  0  0  0  0
   -2.6793   -2.2793   -0.2636 C   0  0  0  0  0  0  0  0  0  0  0  0
   -3.5091   -3.0594   -1.0619 C   0  0  0  0  0  0  0  0  0  0  0  0
   -4.0801   -2.5034   -2.1846 C   0  0  0  0  0  0  0  0  0  0  0  0
   -4.8941   -3.2850   -2.9593 F   0  0  0  0  0  0  0  0  0  0  0  0
   -3.8383   -1.1857   -2.5245 C   0  0  0  0  0  0  0  0  0  0  0  0
   -3.0234   -0.3892   -1.7566 C   0  0  0  0  0  0  0  0  0  0  0  0
   -0.6633    0.4846   -0.7475 O   0  0  0  0  0  0  0  0  0  0  0  0
    0.4819   -0.2565   -1.0666 C   0  0  0  0  0  0  0  0  0  0  0  0
    0.9819   -0.2002   -2.2287 O   0  0  0  0  0  0  0  0  0  0  0  0
    3.8138   -2.6332   -1.3167 H   0  0  0  0  0  0  0  0  0  0  0  0
    2.1360   -3.1345   -1.5042 H   0  0  0  0  0  0  0  0  0  0  0  0
    2.7872   -1.6625   -2.3987 H   0  0  0  0  0  0  0  0  0  0  0  0
    2.7785   -2.0429    0.6410 H   0  0  0  0  0  0  0  0  0  0  0  0
    4.5744   -0.8428   -1.9051 H   0  0  0  0  0  0  0  0  0  0  0  0
    6.0140    1.0970   -1.8291 H   0  0  0  0  0  0  0  0  0  0  0  0
    3.8466    2.5933    1.5317 H   0  0  0  0  0  0  0  0  0  0  0  0
    2.3486    0.6421    1.5044 H   0  0  0  0  0  0  0  0  0  0  0  0
    0.9869   -1.4834    1.9347 H   0  0  0  0  0  0  0  0  0  0  0  0
    0.0913   -2.6495    0.9786 H   0  0  0  0  0  0  0  0  0  0  0  0
   -1.6164   -1.3587    1.8908 H   0  0  0  0  0  0  0  0  0  0  0  0
   -0.6105    0.0523    2.1148 H   0  0  0  0  0  0  0  0  0  0  0  0
   -3.2311    0.7025    1.3661 H   0  0  0  0  0  0  0  0  0  0  0  0
   -3.0180    1.4956   -0.1909 H   0  0  0  0  0  0  0  0  0  0  0  0
   -0.9111    2.6237    0.7463 H   0  0  0  0  0  0  0  0  0  0  0  0
   -1.2969    1.8456    2.2974 H   0  0  0  0  0  0  0  0  0  0  0  0
   -1.4607    4.4259    2.9823 H   0  0  0  0  0  0  0  0  0  0  0  0
   -2.8807    5.2702    2.2780 H   0  0  0  0  0  0  0  0  0  0  0  0
   -2.2373   -2.7170    0.6118 H   0  0  0  0  0  0  0  0  0  0  0  0
   -3.6728   -4.0871   -0.7607 H   0  0  0  0  0  0  0  0  0  0  0  0
   -4.3083   -0.7967   -3.4126 H   0  0  0  0  0  0  0  0  0  0  0  0
   -2.8201    0.6578   -2.0159 H   0  0  0  0  0  0  0  0  0  0  0  0
  1  2  1  0
  2  3  1  0
  3  4  2  0
  4  5  1  0
  5  6  2  0
  6  7  1  0
  6  8  1  0
  8  9  2  0
  2 10  1  0
 10 11  1  0
 11 12  1  0
 12 13  1  0
 13 14  1  1
 14 15  1  0
 15 16  1  0
 16 17  1  0
 16 18  2  0
 13 19  1  0
 19 20  2  0
 20 21  1  0
 21 22  2  0
 22 23  1  0
 22 24  1  0
 24 25  2  0
 13 26  1  0
 26 27  1  0
 27 28  2  0
  9  3  1  0
 27 10  1  0
 25 19  1  0
  1 29  1  0
  1 30  1  0
  1 31  1  0
  2 32  1  1
  4 33  1  0
  5 34  1  0
  8 35  1  0
  9 36  1  0
 11 37  1  0
 11 38  1  0
 12 39  1  0
 12 40  1  0
 14 41  1  0
 14 42  1  0
 15 43  1  0
 15 44  1  0
 17 45  1  0
 17 46  1  0
 20 47  1  0
 21 48  1  0
 24 49  1  0
 25 50  1  0
M  END
$$$$
