
     RDKit          3D

 49 53  0  0  0  0  0  0  0  0999 V2000
    7.5636   -1.1936    1.4093 C   0  0  0  0  0  0  0  0  0  0  0  0
    6.4491   -0.6942    0.5543 C   0  0  0  0  0  0  0  0  0  0  0  0
    6.5631   -0.3476   -0.7734 C   0  0  0  0  0  0  0  0  0  0  0  0
    5.3001    0.0524   -1.1517 C   0  0  0  0  0  0  0  0  0  0  0  0
    4.8411    0.4968   -2.3531 N   0  0  0  0  0  0  0  0  0  0  0  0
    3.5468    0.8355   -2.4869 C   0  0  0  0  0  0  0  0  0  0  0  0
    2.6444    0.7503   -1.4368 C   0  0  0  0  0  0  0  0  0  0  0  0
    3.1456    0.2980   -0.2419 C   0  0  0  0  0  0  0  0  0  0  0  0
    4.4390   -0.0397   -0.1110 N   0  0  0  0  0  0  0  0  0  0  0  0
    5.1728   -0.4959    0.9052 N   0  0  0  0  0  0  0  0  0  0  0  0
    2.0019    0.3018    0.6970 C   0  0  0  0  0  0  0  0  0  0  0  0
    0.9980    1.1302    0.1107 N   0  0  0  0  0  0  0  0  0  0  0  0
   -0.3290    0.8861    0.5807 C   0  0  1  0  0  0  0  0  0  0  0  0
   -1.2890    1.8219   -0.1319 C   0  0  0  0  0  0  0  0  0  0  0  0
   -2.5566    1.5885    0.3975 O   0  0  0  0  0  0  0  0  0  0  0  0
   -2.9834    0.3686   -0.1048 C   0  0  2  0  0  0  0  0  0  0  0  0
   -4.4118    0.2179    0.1863 C   0  0  0  0  0  0  0  0  0  0  0  0
   -5.2679   -0.4291   -0.6815 C   0  0  0  0  0  0  0  0  0  0  0  0
   -6.6167   -0.5791   -0.4212 C   0  0  0  0  0  0  0  0  0  0  0  0
   -7.4544   -1.2206   -1.2864 F   0  0  0  0  0  0  0  0  0  0  0  0
   -7.1549   -0.0771    0.7346 C   0  0  0  0  0  0  0  0  0  0  0  0
   -8.4936   -0.2346    0.9768 F   0  0  0  0  0  0  0  0  0  0  0  0
   -6.3248    0.5706    1.6140 C   0  0  0  0  0  0  0  0  0  0  0  0
   -4.9670    0.7198    1.3486 C   0  0  0  0  0  0  0  0  0  0  0  0
   -4.2114    1.3717    2.2660 F   0  0  0  0  0  0  0  0  0  0  0  0
   -2.1976   -0.7911    0.4413 C   0  0  1  0  0  0  0  0  0  0  0  0
   -2.4481   -1.9244   -0.4628 N   0  0  0  0  0  0  0  0  0  0  0  0
   -0.7275   -0.5515    0.5061 C   0  0  0  0  0  0  0  0  0  0  0  0
    1.1897    1.0487   -1.2993 C   0  0  0  0  0  0  0  0  0  0  0  0
    8.5367   -0.8455    1.0647 H   0  0  0  0  0  0  0  0  0  0  0  0
    7.3867   -0.8220    2.4546 H   0  0  0  0  0  0  0  0  0  0  0  0
    7.5133   -2.3069    1.4845 H   0  0  0  0  0  0  0  0  0  0  0  0
    7.4792   -0.3980   -1.3524 H   0  0  0  0  0  0  0  0  0  0  0  0
    3.1349    1.1970   -3.4324 H   0  0  0  0  0  0  0  0  0  0  0  0
    1.5857   -0.7420    0.8019 H   0  0  0  0  0  0  0  0  0  0  0  0
    2.2834    0.6301    1.7216 H   0  0  0  0  0  0  0  0  0  0  0  0
   -0.3497    1.2210    1.6557 H   0  0  0  0  0  0  0  0  0  0  0  0
   -1.3256    1.5227   -1.1946 H   0  0  0  0  0  0  0  0  0  0  0  0
   -0.9294    2.8422    0.0437 H   0  0  0  0  0  0  0  0  0  0  0  0
   -2.8178    0.4048   -1.2151 H   0  0  0  0  0  0  0  0  0  0  0  0
   -4.8615   -0.8363   -1.6069 H   0  0  0  0  0  0  0  0  0  0  0  0
   -6.7587    0.9728    2.5412 H   0  0  0  0  0  0  0  0  0  0  0  0
   -2.5733   -1.1297    1.4329 H   0  0  0  0  0  0  0  0  0  0  0  0
   -2.5016   -1.5162   -1.4273 H   0  0  0  0  0  0  0  0  0  0  0  0
   -3.2955   -2.4506   -0.2030 H   0  0  0  0  0  0  0  0  0  0  0  0
   -0.2481   -0.9997   -0.3998 H   0  0  0  0  0  0  0  0  0  0  0  0
   -0.3263   -1.0406    1.4397 H   0  0  0  0  0  0  0  0  0  0  0  0
    0.6594    0.1972   -1.7701 H   0  0  0  0  0  0  0  0  0  0  0  0
    0.9866    2.0076   -1.8248 H   0  0  0  0  0  0  0  0  0  0  0  0
  1  2  1  0
  2  3  1  0
  3  4  2  0
  4  5  1  0
  5  6  2  0
  6  7  1  0
  7  8  2  0
  8  9  1  0
  9 10  1  0
  8 11  1  0
 11 12  1  0
 12 13  1  0
 13 14  1  0
 14 15  1  0
 15 16  1  0
 16 17  1  0
 17 18  2  0
 18 19  1  0
 19 20  1  0
 19 21  2  0
 21 22  1  0
 21 23  1  0
 23 24  2  0
 24 25  1  0
 16 26  1  0
 26 27  1  0
 26 28  1  0
 12 29  1  0
 10  2  2  0
 28 13  1  0
  9  4  1  0
 24 17  1  0
 29  7  1  0
  1 30  1  0
  1 31  1  0
  1 32  1  0
  3 33  1  0
  6 34  1  0
 11 35  1  0
 11 36  1  0
 13 37  1  1
 14 38  1  0
 14 39  1  0
 16 40  1  6
 18 41  1  0
 23 42  1  0
 26 43  1  1
 27 44  1  0
 27 45  1  0
 28 46  1  0
 28 47  1  0
 29 48  1  0
 29 49  1  0
M  END
$$$$
