
     RDKit          3D

 47 50  0  0  0  0  0  0  0  0999 V2000
   10.5884   -0.1962   -0.7489 C   0  0  0  0  0  0  0  0  0  0  0  0
    9.6157   -0.0868   -0.0199 C   0  0  0  0  0  0  0  0  0  0  0  0
    8.6226    0.0236    0.7294 C   0  0  0  0  0  0  0  0  0  0  0  0
    7.4184   -0.5505    0.3891 O   0  0  0  0  0  0  0  0  0  0  0  0
    6.1456   -0.7688    0.5182 C   0  0  0  0  0  0  0  0  0  0  0  0
    5.4052   -1.5523   -0.3824 C   0  0  0  0  0  0  0  0  0  0  0  0
    4.0349   -1.6143   -0.2658 N   0  0  0  0  0  0  0  0  0  0  0  0
    3.5008   -0.8974    0.7124 C   0  0  0  0  0  0  0  0  0  0  0  0
    2.1281   -0.4232    0.4856 C   0  0  0  0  0  0  0  0  0  0  0  0
    2.0649    0.8871    0.5669 O   0  0  0  0  0  0  0  0  0  0  0  0
    0.8598   -1.0139    0.2027 N   0  0  0  0  0  0  0  0  0  0  0  0
   -0.2333   -0.0522   -0.0606 C   0  0  0  0  0  0  0  0  0  0  0  0
    0.0793    1.1477   -0.6188 C   0  0  0  0  0  0  0  0  0  0  0  0
   -0.9628    1.9568   -1.1454 C   0  0  0  0  0  0  0  0  0  0  0  0
   -0.6806    3.1814   -1.7072 F   0  0  0  0  0  0  0  0  0  0  0  0
   -2.2545    1.5238   -1.0652 C   0  0  0  0  0  0  0  0  0  0  0  0
   -3.1650    2.2447   -1.6921 F   0  0  0  0  0  0  0  0  0  0  0  0
   -2.5907    0.3001   -0.4721 C   0  0  0  0  0  0  0  0  0  0  0  0
   -4.0077    0.0687   -0.2853 C   0  0  1  0  0  0  0  0  0  0  0  0
   -4.6212   -0.3633   -1.7182 C   0  0  0  0  0  0  0  0  0  0  0  0
   -4.6050    0.5618   -2.6266 F   0  0  0  0  0  0  0  0  0  0  0  0
   -4.3398   -1.1353    0.4119 N   0  0  0  0  0  0  0  0  0  0  0  0
   -5.6470   -1.3489    0.6831 C   0  0  0  0  0  0  0  0  0  0  0  0
   -5.9835   -2.5540    1.3529 N   0  0  0  0  0  0  0  0  0  0  0  0
   -6.4833   -0.3573    0.3038 O   0  0  0  0  0  0  0  0  0  0  0  0
   -6.1318    1.0091    0.5690 C   0  0  2  0  0  0  0  0  0  0  0  0
   -5.8693    1.9154   -0.5930 C   0  0  0  0  0  0  0  0  0  0  0  0
   -4.7207    1.2796    0.1429 C   0  0  2  0  0  0  0  0  0  0  0  0
   -1.5180   -0.4353    0.0027 C   0  0  0  0  0  0  0  0  0  0  0  0
    4.1670   -0.1226    1.6892 C   0  0  0  0  0  0  0  0  0  0  0  0
    5.4978   -0.0968    1.5462 N   0  0  0  0  0  0  0  0  0  0  0  0
   11.7375   -0.3214   -1.5792 H   0  0  0  0  0  0  0  0  0  0  0  0
    8.7142    0.2848    1.7810 H   0  0  0  0  0  0  0  0  0  0  0  0
    8.2056    1.3042    0.4350 H   0  0  0  0  0  0  0  0  0  0  0  0
    5.9348   -2.1073   -1.1443 H   0  0  0  0  0  0  0  0  0  0  0  0
    0.7847   -2.0155    0.2891 H   0  0  0  0  0  0  0  0  0  0  0  0
    1.0426    1.6081   -0.6837 H   0  0  0  0  0  0  0  0  0  0  0  0
   -5.5275   -0.9409   -1.5913 H   0  0  0  0  0  0  0  0  0  0  0  0
   -3.8266   -1.1633   -2.0017 H   0  0  0  0  0  0  0  0  0  0  0  0
   -6.0174   -2.8331    2.3058 H   0  0  0  0  0  0  0  0  0  0  0  0
   -6.2776   -3.3309    0.5920 H   0  0  0  0  0  0  0  0  0  0  0  0
   -6.4958    1.3977    1.4977 H   0  0  0  0  0  0  0  0  0  0  0  0
   -6.2574    1.6393   -1.5614 H   0  0  0  0  0  0  0  0  0  0  0  0
   -6.0563    2.9852   -0.3499 H   0  0  0  0  0  0  0  0  0  0  0  0
   -4.0946    1.9691    0.7722 H   0  0  0  0  0  0  0  0  0  0  0  0
   -1.7759   -1.3666    0.4800 H   0  0  0  0  0  0  0  0  0  0  0  0
    3.5953    0.3598    2.4610 H   0  0  0  0  0  0  0  0  0  0  0  0
  1  2  3  0
  2  3  1  0
  3  4  1  0
  4  5  1  0
  5  6  2  0
  6  7  1  0
  7  8  2  0
  8  9  1  0
  9 10  2  0
  9 11  1  0
 11 12  1  0
 12 13  2  0
 13 14  1  0
 14 15  1  0
 14 16  2  0
 16 17  1  0
 16 18  1  0
 18 19  1  0
 19 20  1  6
 20 21  1  0
 19 22  1  0
 22 23  2  0
 23 24  1  0
 23 25  1  0
 25 26  1  0
 26 27  1  0
 27 28  1  0
 18 29  2  0
  8 30  1  0
 30 31  2  0
 31  5  1  0
 29 12  1  0
 28 19  1  0
 28 26  1  0
  1 32  1  0
  3 33  1  0
  3 34  1  0
  6 35  1  0
 11 36  1  0
 13 37  1  0
 20 38  1  0
 20 39  1  0
 24 40  1  0
 24 41  1  0
 26 42  1  1
 27 43  1  0
 27 44  1  0
 28 45  1  1
 29 46  1  0
 30 47  1  0
M  END
$$$$
