
     RDKit          3D

 48 51  0  0  0  0  0  0  0  0999 V2000
    0.8718   -3.7163    0.2174 C   0  0  0  0  0  0  0  0  0  0  0  0
    1.8776   -2.6242    0.2729 C   0  0  0  0  0  0  0  0  0  0  0  0
    3.1672   -2.8622   -0.1645 C   0  0  0  0  0  0  0  0  0  0  0  0
    4.0785   -1.8272   -0.1001 C   0  0  0  0  0  0  0  0  0  0  0  0
    3.7249   -0.5966    0.3815 C   0  0  0  0  0  0  0  0  0  0  0  0
    4.6850    0.4858    0.4469 C   0  0  0  0  0  0  0  0  0  0  0  0
    4.3115    1.6076    0.9002 O   0  0  0  0  0  0  0  0  0  0  0  0
    6.0446    0.3983    0.0366 N   0  0  0  0  0  0  0  0  0  0  0  0
    6.9338    1.5019    0.1285 C   0  0  0  0  0  0  0  0  0  0  0  0
    7.1516    2.4480   -0.8431 C   0  0  0  0  0  0  0  0  0  0  0  0
    8.0839    3.3255   -0.3354 C   0  0  0  0  0  0  0  0  0  0  0  0
    8.3792    2.8967    0.8648 O   0  0  0  0  0  0  0  0  0  0  0  0
    7.7044    1.8112    1.1600 N   0  0  0  0  0  0  0  0  0  0  0  0
    2.4388   -0.3744    0.8130 C   0  0  0  0  0  0  0  0  0  0  0  0
    1.5142   -1.3871    0.7593 C   0  0  0  0  0  0  0  0  0  0  0  0
    0.1941   -1.1212    1.2139 N   0  0  0  0  0  0  0  0  0  0  0  0
   -0.7386   -0.6399    0.2658 C   0  0  0  0  0  0  0  0  0  0  0  0
   -0.4434   -0.4445   -0.9386 O   0  0  0  0  0  0  0  0  0  0  0  0
   -2.0982   -0.3589    0.7031 C   0  0  0  0  0  0  0  0  0  0  0  0
   -2.6216   -0.5052    1.9720 C   0  0  0  0  0  0  0  0  0  0  0  0
   -3.9122   -0.1315    1.9244 N   0  0  0  0  0  0  0  0  0  0  0  0
   -4.2503    0.2463    0.7013 N   0  0  0  0  0  0  0  0  0  0  0  0
   -5.5214    0.7101    0.2403 C   0  0  0  0  0  0  0  0  0  0  0  0
   -6.6844    0.0528    0.5939 C   0  0  0  0  0  0  0  0  0  0  0  0
   -7.9299    0.4662    0.1717 C   0  0  0  0  0  0  0  0  0  0  0  0
   -8.0554    1.5769   -0.6372 C   0  0  0  0  0  0  0  0  0  0  0  0
   -6.8955    2.2341   -0.9910 C   0  0  0  0  0  0  0  0  0  0  0  0
   -5.6485    1.8209   -0.5688 C   0  0  0  0  0  0  0  0  0  0  0  0
   -4.5643    2.5156   -0.9572 F   0  0  0  0  0  0  0  0  0  0  0  0
   -3.1432    0.1121   -0.0642 C   0  0  0  0  0  0  0  0  0  0  0  0
   -3.0600    0.4081   -1.4456 N   0  0  0  0  0  0  0  0  0  0  0  0
    0.0748   -3.5222    0.9520 H   0  0  0  0  0  0  0  0  0  0  0  0
    0.4536   -3.7677   -0.8147 H   0  0  0  0  0  0  0  0  0  0  0  0
    1.3594   -4.7069    0.3854 H   0  0  0  0  0  0  0  0  0  0  0  0
    3.4208   -3.8501   -0.5426 H   0  0  0  0  0  0  0  0  0  0  0  0
    5.0789   -2.0165   -0.4408 H   0  0  0  0  0  0  0  0  0  0  0  0
    6.3880   -0.5161   -0.3439 H   0  0  0  0  0  0  0  0  0  0  0  0
    6.6980    2.5071   -1.8049 H   0  0  0  0  0  0  0  0  0  0  0  0
    8.4776    4.1963   -0.8570 H   0  0  0  0  0  0  0  0  0  0  0  0
    2.1431    0.6003    1.1988 H   0  0  0  0  0  0  0  0  0  0  0  0
   -0.0862   -1.2764    2.2260 H   0  0  0  0  0  0  0  0  0  0  0  0
   -2.0354   -0.8648    2.8149 H   0  0  0  0  0  0  0  0  0  0  0  0
   -6.5859   -0.8150    1.2260 H   0  0  0  0  0  0  0  0  0  0  0  0
   -8.8411   -0.0504    0.4499 H   0  0  0  0  0  0  0  0  0  0  0  0
   -9.0432    1.8932   -0.9638 H   0  0  0  0  0  0  0  0  0  0  0  0
   -7.0346    3.1145   -1.6363 H   0  0  0  0  0  0  0  0  0  0  0  0
   -3.7522    0.0299   -2.1330 H   0  0  0  0  0  0  0  0  0  0  0  0
   -2.3097    1.0161   -1.8579 H   0  0  0  0  0  0  0  0  0  0  0  0
  1  2  1  0
  2  3  2  0
  3  4  1  0
  4  5  2  0
  5  6  1  0
  6  7  2  0
  6  8  1  0
  8  9  1  0
  9 10  1  0
 10 11  2  0
 11 12  1  0
 12 13  1  0
  5 14  1  0
 14 15  2  0
 15 16  1  0
 16 17  1  0
 17 18  2  0
 17 19  1  0
 19 20  1  0
 20 21  2  0
 21 22  1  0
 22 23  1  0
 23 24  2  0
 24 25  1  0
 25 26  2  0
 26 27  1  0
 27 28  2  0
 28 29  1  0
 22 30  1  0
 30 31  1  0
 15  2  1  0
 30 19  2  0
 13  9  2  0
 28 23  1  0
  1 32  1  0
  1 33  1  0
  1 34  1  0
  3 35  1  0
  4 36  1  0
  8 37  1  0
 10 38  1  0
 11 39  1  0
 14 40  1  0
 16 41  1  0
 20 42  1  0
 24 43  1  0
 25 44  1  0
 26 45  1  0
 27 46  1  0
 31 47  1  0
 31 48  1  0
M  END
$$$$
