
     RDKit          3D

 52 55  0  0  0  0  0  0  0  0999 V2000
   -3.9758   -0.7653    1.0843 C   0  0  0  0  0  0  0  0  0  0  0  0
   -2.7764   -1.1755    0.3537 N   0  0  0  0  0  0  0  0  0  0  0  0
   -2.7262   -2.6011    0.2998 C   0  0  0  0  0  0  0  0  0  0  0  0
   -1.4605   -3.1729   -0.2692 C   0  0  0  0  0  0  0  0  0  0  0  0
   -0.5031   -3.9270    0.1782 C   0  0  0  0  0  0  0  0  0  0  0  0
    0.7611   -4.5315   -0.3183 C   0  0  0  0  0  0  0  0  0  0  0  0
    1.9664   -4.0577    0.5119 C   0  0  0  0  0  0  0  0  0  0  0  0
    2.3196   -2.8289    0.2595 O   0  0  0  0  0  0  0  0  0  0  0  0
    2.8393   -1.5994    0.1542 C   0  0  0  0  0  0  0  0  0  0  0  0
    4.1143   -1.4980   -0.3858 C   0  0  0  0  0  0  0  0  0  0  0  0
    4.7938   -0.3069   -0.5660 C   0  0  0  0  0  0  0  0  0  0  0  0
    4.1156    0.8073   -0.1701 C   0  0  0  0  0  0  0  0  0  0  0  0
    2.8132    0.7680    0.3857 C   0  0  0  0  0  0  0  0  0  0  0  0
    2.1649   -0.4033    0.5579 C   0  0  0  0  0  0  0  0  0  0  0  0
    2.3674    2.1648    0.6449 C   0  0  0  0  0  0  0  0  0  0  0  0
    3.2487    3.1529    1.1421 C   0  0  0  0  0  0  0  0  0  0  0  0
    2.8859    4.4415    1.3592 C   0  0  0  0  0  0  0  0  0  0  0  0
    1.6144    4.8141    1.0894 N   0  0  0  0  0  0  0  0  0  0  0  0
    0.7536    3.9332    0.6255 C   0  0  0  0  0  0  0  0  0  0  0  0
    1.1637    2.6716    0.4281 N   0  0  0  0  0  0  0  0  0  0  0  0
   -0.6401    4.1121    0.2986 N   0  0  0  0  0  0  0  0  0  0  0  0
   -1.4967    3.0897   -0.2731 C   0  0  0  0  0  0  0  0  0  0  0  0
   -2.3992    3.6982   -1.1723 C   0  0  0  0  0  0  0  0  0  0  0  0
   -3.3157    2.9995   -1.9059 C   0  0  0  0  0  0  0  0  0  0  0  0
   -3.2987    1.6411   -1.7058 C   0  0  0  0  0  0  0  0  0  0  0  0
   -2.4136    0.9964   -0.8159 C   0  0  0  0  0  0  0  0  0  0  0  0
   -1.5009    1.7302   -0.0879 C   0  0  0  0  0  0  0  0  0  0  0  0
   -2.6292   -0.4959   -0.8630 C   0  0  0  0  0  0  0  0  0  0  0  0
   -4.3653   -1.6407    1.6408 H   0  0  0  0  0  0  0  0  0  0  0  0
   -4.7377   -0.3381    0.4372 H   0  0  0  0  0  0  0  0  0  0  0  0
   -3.6141   -0.0535    1.8722 H   0  0  0  0  0  0  0  0  0  0  0  0
   -3.5947   -2.8679   -0.4498 H   0  0  0  0  0  0  0  0  0  0  0  0
   -3.1622   -2.9672    1.2122 H   0  0  0  0  0  0  0  0  0  0  0  0
   -1.5011   -2.7677   -1.3533 H   0  0  0  0  0  0  0  0  0  0  0  0
   -0.4659   -4.3177    1.2877 H   0  0  0  0  0  0  0  0  0  0  0  0
    0.7548   -5.6709   -0.1189 H   0  0  0  0  0  0  0  0  0  0  0  0
    1.0881   -4.4786   -1.3301 H   0  0  0  0  0  0  0  0  0  0  0  0
    1.6241   -4.2770    1.5764 H   0  0  0  0  0  0  0  0  0  0  0  0
    2.7765   -4.8131    0.3219 H   0  0  0  0  0  0  0  0  0  0  0  0
    4.7099   -2.3810   -0.7339 H   0  0  0  0  0  0  0  0  0  0  0  0
    5.7904   -0.2769   -0.9902 H   0  0  0  0  0  0  0  0  0  0  0  0
    4.6592    1.7636   -0.3023 H   0  0  0  0  0  0  0  0  0  0  0  0
    1.1338   -0.5680    1.0101 H   0  0  0  0  0  0  0  0  0  0  0  0
    4.2683    2.8593    1.3609 H   0  0  0  0  0  0  0  0  0  0  0  0
    3.5678    5.1894    1.7399 H   0  0  0  0  0  0  0  0  0  0  0  0
   -0.9925    5.0943    0.5053 H   0  0  0  0  0  0  0  0  0  0  0  0
   -2.4159    4.7957   -1.3269 H   0  0  0  0  0  0  0  0  0  0  0  0
   -4.0056    3.4736   -2.5942 H   0  0  0  0  0  0  0  0  0  0  0  0
   -4.0360    1.0576   -2.2971 H   0  0  0  0  0  0  0  0  0  0  0  0
   -0.7993    1.2055    0.6526 H   0  0  0  0  0  0  0  0  0  0  0  0
   -3.5921   -0.7418   -1.4224 H   0  0  0  0  0  0  0  0  0  0  0  0
   -1.8762   -0.9363   -1.5377 H   0  0  0  0  0  0  0  0  0  0  0  0
  1  2  1  0
  2  3  1  0
  3  4  1  0
  4  5  2  0
  5  6  1  0
  6  7  1  0
  7  8  1  0
  8  9  1  0
  9 10  1  0
 10 11  2  0
 11 12  1  0
 12 13  2  0
 13 14  1  0
 13 15  1  0
 15 16  1  0
 16 17  2  0
 17 18  1  0
 18 19  2  0
 19 20  1  0
 19 21  1  0
 21 22  1  0
 22 23  1  0
 23 24  2  0
 24 25  1  0
 25 26  2  0
 26 27  1  0
 26 28  1  0
 28  2  1  0
 14  9  2  0
 20 15  2  0
 27 22  2  0
  1 29  1  0
  1 30  1  0
  1 31  1  0
  3 32  1  0
  3 33  1  0
  4 34  1  0
  5 35  1  0
  6 36  1  0
  6 37  1  0
  7 38  1  0
  7 39  1  0
 10 40  1  0
 11 41  1  0
 12 42  1  0
 14 43  1  0
 16 44  1  0
 17 45  1  0
 21 46  1  0
 23 47  1  0
 24 48  1  0
 25 49  1  0
 27 50  1  0
 28 51  1  0
 28 52  1  0
M  END
$$$$
