
     RDKit          3D

 61 68  0  0  0  0  0  0  0  0999 V2000
    3.2168    2.2063    2.1063 C   0  0  0  0  0  0  0  0  0  0  0  0
    3.6194    2.2517    0.7512 N   0  0  0  0  0  0  0  0  0  0  0  0
    2.7738    1.7105   -0.2388 C   0  0  2  0  0  0  0  0  0  0  0  0
    1.3825    2.2806   -0.0940 C   0  0  0  0  0  0  0  0  0  0  0  0
    0.5763    1.8465   -1.2729 C   0  0  1  0  0  0  0  0  0  0  0  0
    1.0011    0.7645   -1.9360 O   0  0  0  0  0  0  0  0  0  0  0  0
    1.6166   -0.2667   -1.2243 C   0  0  1  0  0  0  0  0  0  0  0  0
    2.3007   -1.0914   -2.3061 C   0  0  0  0  0  0  0  0  0  0  0  0
    2.6521    0.2031   -0.2493 C   0  0  2  0  0  0  0  0  0  0  0  0
    2.4543   -0.2240    1.0383 O   0  0  0  0  0  0  0  0  0  0  0  0
    3.5641   -0.9292    1.4901 C   0  0  0  0  0  0  0  0  0  0  0  0
    0.5879   -1.1036   -0.5840 N   0  0  0  0  0  0  0  0  0  0  0  0
    0.6846   -2.3993   -0.2752 C   0  0  0  0  0  0  0  0  0  0  0  0
    1.6973   -3.3133   -0.3861 C   0  0  0  0  0  0  0  0  0  0  0  0
    1.5330   -4.6137    0.0222 C   0  0  0  0  0  0  0  0  0  0  0  0
    0.3572   -5.0710    0.5606 C   0  0  0  0  0  0  0  0  0  0  0  0
   -0.6641   -4.1579    0.6756 C   0  0  0  0  0  0  0  0  0  0  0  0
   -0.5048   -2.8599    0.2697 C   0  0  0  0  0  0  0  0  0  0  0  0
   -1.3578   -1.8041    0.2965 C   0  0  0  0  0  0  0  0  0  0  0  0
   -2.6752   -1.6481    0.7228 C   0  0  0  0  0  0  0  0  0  0  0  0
   -3.3076   -0.4171    0.6248 C   0  0  0  0  0  0  0  0  0  0  0  0
   -2.6082    0.6743    0.0925 C   0  0  0  0  0  0  0  0  0  0  0  0
   -2.9036    1.9956   -0.1294 C   0  0  0  0  0  0  0  0  0  0  0  0
   -4.0209    2.7536    0.0755 C   0  0  0  0  0  0  0  0  0  0  0  0
   -3.9912    4.0980   -0.2655 C   0  0  0  0  0  0  0  0  0  0  0  0
   -2.8457    4.6345   -0.7984 C   0  0  0  0  0  0  0  0  0  0  0  0
   -1.7157    3.8760   -1.0075 C   0  0  0  0  0  0  0  0  0  0  0  0
   -1.7624    2.5472   -0.6645 C   0  0  0  0  0  0  0  0  0  0  0  0
   -0.7911    1.6337   -0.7802 N   0  0  0  0  0  0  0  0  0  0  0  0
   -1.2885    0.4669   -0.3215 C   0  0  0  0  0  0  0  0  0  0  0  0
   -0.6604   -0.7539   -0.2277 C   0  0  0  0  0  0  0  0  0  0  0  0
   -4.6396   -0.5747    1.1362 C   0  0  0  0  0  0  0  0  0  0  0  0
   -5.5351    0.2946    1.2253 O   0  0  0  0  0  0  0  0  0  0  0  0
   -4.7951   -1.9425    1.5482 N   0  0  0  0  0  0  0  0  0  0  0  0
   -3.5871   -2.6479    1.3081 C   0  0  0  0  0  0  0  0  0  0  0  0
    4.0177    1.6623    2.6920 H   0  0  0  0  0  0  0  0  0  0  0  0
    3.2026    3.2144    2.5995 H   0  0  0  0  0  0  0  0  0  0  0  0
    2.2785    1.6587    2.3033 H   0  0  0  0  0  0  0  0  0  0  0  0
    4.0068    3.1679    0.5128 H   0  0  0  0  0  0  0  0  0  0  0  0
    3.0961    2.0135   -1.2817 H   0  0  0  0  0  0  0  0  0  0  0  0
    0.9111    1.8364    0.8287 H   0  0  0  0  0  0  0  0  0  0  0  0
    1.3812    3.3806   -0.0524 H   0  0  0  0  0  0  0  0  0  0  0  0
    0.4970    2.6983   -1.9892 H   0  0  0  0  0  0  0  0  0  0  0  0
    2.3659   -0.4938   -3.2830 H   0  0  0  0  0  0  0  0  0  0  0  0
    3.3693   -1.2871   -2.0959 H   0  0  0  0  0  0  0  0  0  0  0  0
    1.7105   -1.9725   -2.6221 H   0  0  0  0  0  0  0  0  0  0  0  0
    3.6829   -0.1509   -0.5785 H   0  0  0  0  0  0  0  0  0  0  0  0
    4.5081   -0.3120    1.4764 H   0  0  0  0  0  0  0  0  0  0  0  0
    3.8161   -1.8198    0.8876 H   0  0  0  0  0  0  0  0  0  0  0  0
    3.4098   -1.3108    2.5323 H   0  0  0  0  0  0  0  0  0  0  0  0
    2.6321   -3.0238   -0.7805 H   0  0  0  0  0  0  0  0  0  0  0  0
    2.3496   -5.3360   -0.0717 H   0  0  0  0  0  0  0  0  0  0  0  0
    0.2037   -6.0906    0.8892 H   0  0  0  0  0  0  0  0  0  0  0  0
   -1.6123   -4.5070    1.1047 H   0  0  0  0  0  0  0  0  0  0  0  0
   -4.9339    2.3899    0.4842 H   0  0  0  0  0  0  0  0  0  0  0  0
   -4.8789    4.7000   -0.1027 H   0  0  0  0  0  0  0  0  0  0  0  0
   -2.8458    5.7012   -1.0606 H   0  0  0  0  0  0  0  0  0  0  0  0
   -0.8338    4.3018   -1.4210 H   0  0  0  0  0  0  0  0  0  0  0  0
   -5.6761   -2.3182    1.9559 H   0  0  0  0  0  0  0  0  0  0  0  0
   -3.2204   -3.0574    2.2692 H   0  0  0  0  0  0  0  0  0  0  0  0
   -3.8012   -3.4646    0.5804 H   0  0  0  0  0  0  0  0  0  0  0  0
  1  2  1  0
  2  3  1  0
  3  4  1  0
  4  5  1  0
  5  6  1  0
  6  7  1  0
  7  8  1  6
  7  9  1  0
  9 10  1  0
 10 11  1  0
  7 12  1  0
 12 13  1  0
 13 14  2  0
 14 15  1  0
 15 16  2  0
 16 17  1  0
 17 18  2  0
 18 19  1  0
 19 20  2  0
 20 21  1  0
 21 22  2  0
 22 23  1  0
 23 24  2  0
 24 25  1  0
 25 26  2  0
 26 27  1  0
 27 28  2  0
 28 29  1  0
 29 30  1  0
 30 31  2  0
 21 32  1  0
 32 33  2  0
 32 34  1  0
 34 35  1  0
  9  3  1  0
 31 12  1  0
 29  5  1  0
 18 13  1  0
 31 19  1  0
 35 20  1  0
 30 22  1  0
 28 23  1  0
  1 36  1  0
  1 37  1  0
  1 38  1  0
  2 39  1  0
  3 40  1  6
  4 41  1  0
  4 42  1  0
  5 43  1  6
  8 44  1  0
  8 45  1  0
  8 46  1  0
  9 47  1  6
 11 48  1  0
 11 49  1  0
 11 50  1  0
 14 51  1  0
 15 52  1  0
 16 53  1  0
 17 54  1  0
 24 55  1  0
 25 56  1  0
 26 57  1  0
 27 58  1  0
 34 59  1  0
 35 60  1  0
 35 61  1  0
M  END
$$$$
