
     RDKit          3D

 66 69  0  0  0  0  0  0  0  0999 V2000
   -0.0679   -2.5676   -0.8576 C   0  0  0  0  0  0  0  0  0  0  0  0
    0.2423   -1.7474    0.3674 C   0  0  1  0  0  0  0  0  0  0  0  0
    1.6501   -1.2712    0.3594 C   0  0  0  0  0  0  0  0  0  0  0  0
    2.5041   -1.7845   -0.5932 C   0  0  0  0  0  0  0  0  0  0  0  0
    3.8430   -1.3787   -0.6546 C   0  0  0  0  0  0  0  0  0  0  0  0
    4.3413   -0.4573    0.2341 C   0  0  0  0  0  0  0  0  0  0  0  0
    5.7317   -0.0409    0.1576 C   0  0  0  0  0  0  0  0  0  0  0  0
    6.7312   -0.8819   -0.2729 C   0  0  0  0  0  0  0  0  0  0  0  0
    8.0452   -0.4097   -0.3126 C   0  0  0  0  0  0  0  0  0  0  0  0
    8.3771    0.8333    0.0525 N   0  0  0  0  0  0  0  0  0  0  0  0
    9.7733    1.2901   -0.0033 C   0  0  0  0  0  0  0  0  0  0  0  0
   10.4764    0.3992   -0.8099 F   0  0  0  0  0  0  0  0  0  0  0  0
   10.2550    1.3210    1.2792 F   0  0  0  0  0  0  0  0  0  0  0  0
    7.4161    1.6579    0.4718 C   0  0  0  0  0  0  0  0  0  0  0  0
    7.7787    2.8254    0.8073 O   0  0  0  0  0  0  0  0  0  0  0  0
    6.1105    1.2355    0.5266 C   0  0  0  0  0  0  0  0  0  0  0  0
    3.4547    0.0406    1.1811 C   0  0  0  0  0  0  0  0  0  0  0  0
    2.1375   -0.3551    1.2459 C   0  0  0  0  0  0  0  0  0  0  0  0
   -0.6920   -0.6522    0.5167 N   0  0  0  0  0  0  0  0  0  0  0  0
   -1.5259   -0.5069    1.6577 C   0  0  0  0  0  0  0  0  0  0  0  0
   -2.8158    0.2540    1.4334 C   0  0  0  0  0  0  0  0  0  0  0  0
   -3.0677    0.6874    0.0397 C   0  0  2  0  0  0  0  0  0  0  0  0
   -4.0110    1.8370   -0.0252 C   0  0  0  0  0  0  0  0  0  0  0  0
   -5.3817    1.7069    0.4745 C   0  0  0  0  0  0  0  0  0  0  0  0
   -5.6085    1.3818    1.9130 C   0  0  0  0  0  0  0  0  0  0  0  0
   -6.1049    3.0544    0.2258 C   0  0  0  0  0  0  0  0  0  0  0  0
   -6.1568    0.7884   -0.2595 O   0  0  0  0  0  0  0  0  0  0  0  0
   -3.4935   -0.4264   -0.8553 C   0  0  0  0  0  0  0  0  0  0  0  0
   -3.7039   -1.6964   -0.3803 C   0  0  0  0  0  0  0  0  0  0  0  0
   -4.0983   -2.7260   -1.2330 C   0  0  0  0  0  0  0  0  0  0  0  0
   -4.2906   -2.5017   -2.5838 C   0  0  0  0  0  0  0  0  0  0  0  0
   -4.0777   -1.2247   -3.0546 C   0  0  0  0  0  0  0  0  0  0  0  0
   -3.6881   -0.2148   -2.2029 C   0  0  0  0  0  0  0  0  0  0  0  0
   -1.8301    1.1850   -0.4888 O   0  0  0  0  0  0  0  0  0  0  0  0
   -0.7622    0.3144   -0.5230 C   0  0  0  0  0  0  0  0  0  0  0  0
    0.1305    0.3622   -1.4385 O   0  0  0  0  0  0  0  0  0  0  0  0
    0.5295   -3.5181   -0.7676 H   0  0  0  0  0  0  0  0  0  0  0  0
    0.2062   -2.0376   -1.7960 H   0  0  0  0  0  0  0  0  0  0  0  0
   -1.1229   -2.8735   -0.8359 H   0  0  0  0  0  0  0  0  0  0  0  0
    0.1464   -2.3866    1.2658 H   0  0  0  0  0  0  0  0  0  0  0  0
    2.2164   -2.5103   -1.3342 H   0  0  0  0  0  0  0  0  0  0  0  0
    4.5249   -1.7753   -1.3995 H   0  0  0  0  0  0  0  0  0  0  0  0
    6.5085   -1.8837   -0.5740 H   0  0  0  0  0  0  0  0  0  0  0  0
    8.8457   -1.0502   -0.6500 H   0  0  0  0  0  0  0  0  0  0  0  0
    9.8086    2.3181   -0.4148 H   0  0  0  0  0  0  0  0  0  0  0  0
    5.3696    1.9256    0.8672 H   0  0  0  0  0  0  0  0  0  0  0  0
    3.8255    0.7765    1.9007 H   0  0  0  0  0  0  0  0  0  0  0  0
    1.4731    0.0496    1.9933 H   0  0  0  0  0  0  0  0  0  0  0  0
   -1.7510   -1.5109    2.1028 H   0  0  0  0  0  0  0  0  0  0  0  0
   -0.8814   -0.0229    2.4534 H   0  0  0  0  0  0  0  0  0  0  0  0
   -2.6620    1.2154    2.0206 H   0  0  0  0  0  0  0  0  0  0  0  0
   -3.6675   -0.2451    1.9363 H   0  0  0  0  0  0  0  0  0  0  0  0
   -4.0889    2.2438   -1.0886 H   0  0  0  0  0  0  0  0  0  0  0  0
   -3.5581    2.7359    0.5075 H   0  0  0  0  0  0  0  0  0  0  0  0
   -4.8465    1.6992    2.6174 H   0  0  0  0  0  0  0  0  0  0  0  0
   -5.9132    0.2967    2.0447 H   0  0  0  0  0  0  0  0  0  0  0  0
   -6.5730    1.9069    2.2539 H   0  0  0  0  0  0  0  0  0  0  0  0
   -7.0008    3.1472    0.8395 H   0  0  0  0  0  0  0  0  0  0  0  0
   -6.3402    3.1638   -0.8618 H   0  0  0  0  0  0  0  0  0  0  0  0
   -5.4229    3.8913    0.4841 H   0  0  0  0  0  0  0  0  0  0  0  0
   -7.0715    0.8693    0.1233 H   0  0  0  0  0  0  0  0  0  0  0  0
   -3.5808   -1.9604    0.6583 H   0  0  0  0  0  0  0  0  0  0  0  0
   -4.2554   -3.7034   -0.8386 H   0  0  0  0  0  0  0  0  0  0  0  0
   -4.5984   -3.3311   -3.2129 H   0  0  0  0  0  0  0  0  0  0  0  0
   -4.2180   -1.0162   -4.1100 H   0  0  0  0  0  0  0  0  0  0  0  0
   -3.5236    0.7828   -2.5797 H   0  0  0  0  0  0  0  0  0  0  0  0
  1  2  1  0
  2  3  1  0
  3  4  2  0
  4  5  1  0
  5  6  2  0
  6  7  1  0
  7  8  1  0
  8  9  2  0
  9 10  1  0
 10 11  1  0
 11 12  1  0
 11 13  1  0
 10 14  1  0
 14 15  2  0
 14 16  1  0
  6 17  1  0
 17 18  2  0
  2 19  1  0
 19 20  1  0
 20 21  1  0
 21 22  1  0
 22 23  1  1
 23 24  1  0
 24 25  1  0
 24 26  1  0
 24 27  1  0
 22 28  1  0
 28 29  2  0
 29 30  1  0
 30 31  2  0
 31 32  1  0
 32 33  2  0
 22 34  1  0
 34 35  1  0
 35 36  2  0
 18  3  1  0
 35 19  1  0
 16  7  2  0
 33 28  1  0
  1 37  1  0
  1 38  1  0
  1 39  1  0
  2 40  1  1
  4 41  1  0
  5 42  1  0
  8 43  1  0
  9 44  1  0
 11 45  1  0
 16 46  1  0
 17 47  1  0
 18 48  1  0
 20 49  1  0
 20 50  1  0
 21 51  1  0
 21 52  1  0
 23 53  1  0
 23 54  1  0
 25 55  1  0
 25 56  1  0
 25 57  1  0
 26 58  1  0
 26 59  1  0
 26 60  1  0
 27 61  1  0
 29 62  1  0
 30 63  1  0
 31 64  1  0
 32 65  1  0
 33 66  1  0
M  END
$$$$
