
     RDKit          3D

 31 32  0  0  0  0  0  0  0  0999 V2000
   -3.8749   -2.7202   -0.5775 C   0  0  0  0  0  0  0  0  0  0  0  0
   -2.7797   -1.8687   -0.4523 O   0  0  0  0  0  0  0  0  0  0  0  0
   -2.7669   -0.5252   -0.7887 C   0  0  0  0  0  0  0  0  0  0  0  0
   -3.9103    0.0936   -1.3014 C   0  0  0  0  0  0  0  0  0  0  0  0
   -3.9051    1.4298   -1.6383 C   0  0  0  0  0  0  0  0  0  0  0  0
   -2.7293    2.1225   -1.4479 C   0  0  0  0  0  0  0  0  0  0  0  0
   -1.5804    1.5088   -0.9348 C   0  0  0  0  0  0  0  0  0  0  0  0
   -1.5875    0.1734   -0.5987 C   0  0  0  0  0  0  0  0  0  0  0  0
   -0.4391   -0.5364   -0.0614 C   0  0  0  0  0  0  0  0  0  0  0  0
    0.7392    0.0136    0.1661 C   0  0  0  0  0  0  0  0  0  0  0  0
    1.8466   -0.7827    0.7125 C   0  0  0  0  0  0  0  0  0  0  0  0
    1.6690   -2.0017    0.9660 O   0  0  0  0  0  0  0  0  0  0  0  0
    3.1275   -0.1881    0.9606 C   0  0  0  0  0  0  0  0  0  0  0  0
    3.3773    1.1359    0.7030 C   0  0  0  0  0  0  0  0  0  0  0  0
    4.6410    1.6941    0.9550 C   0  0  0  0  0  0  0  0  0  0  0  0
    5.6274    0.8793    1.4684 C   0  0  0  0  0  0  0  0  0  0  0  0
    5.3772   -0.4157    1.7186 N   0  0  0  0  0  0  0  0  0  0  0  0
    4.1488   -0.9526    1.4722 C   0  0  0  0  0  0  0  0  0  0  0  0
   -4.8421   -2.2497   -0.3713 H   0  0  0  0  0  0  0  0  0  0  0  0
   -3.7560   -3.5313    0.1933 H   0  0  0  0  0  0  0  0  0  0  0  0
   -3.8561   -3.2267   -1.5701 H   0  0  0  0  0  0  0  0  0  0  0  0
   -4.8033   -0.5036   -1.4280 H   0  0  0  0  0  0  0  0  0  0  0  0
   -4.7812    1.9237   -2.0361 H   0  0  0  0  0  0  0  0  0  0  0  0
   -2.7169    3.1762   -1.7110 H   0  0  0  0  0  0  0  0  0  0  0  0
   -0.6846    2.0973   -0.8051 H   0  0  0  0  0  0  0  0  0  0  0  0
   -0.5019   -1.5981    0.1881 H   0  0  0  0  0  0  0  0  0  0  0  0
    0.8428    1.0575   -0.0662 H   0  0  0  0  0  0  0  0  0  0  0  0
    2.6431    1.8187    0.3015 H   0  0  0  0  0  0  0  0  0  0  0  0
    4.8159    2.7393    0.7447 H   0  0  0  0  0  0  0  0  0  0  0  0
    6.6184    1.2436    1.6846 H   0  0  0  0  0  0  0  0  0  0  0  0
    4.0413   -2.0068    1.7058 H   0  0  0  0  0  0  0  0  0  0  0  0
  1  2  1  0
  2  3  1  0
  3  4  2  0
  4  5  1  0
  5  6  2  0
  6  7  1  0
  7  8  2  0
  8  9  1  0
  9 10  2  0
 10 11  1  0
 11 12  2  0
 11 13  1  0
 13 14  2  0
 14 15  1  0
 15 16  2  0
 16 17  1  0
 17 18  2  0
  8  3  1  0
 18 13  1  0
  1 19  1  0
  1 20  1  0
  1 21  1  0
  4 22  1  0
  5 23  1  0
  6 24  1  0
  7 25  1  0
  9 26  1  0
 10 27  1  0
 14 28  1  0
 15 29  1  0
 16 30  1  0
 18 31  1  0
M  END
$$$$
