
     RDKit          3D

 64 64  0  0  0  0  0  0  0  0999 V2000
    7.0439   -2.1467   -1.2893 C   0  0  0  0  0  0  0  0  0  0  0  0
    7.6744   -0.9309   -0.6526 C   0  0  0  0  0  0  0  0  0  0  0  0
    7.4999   -1.0107    0.8477 C   0  0  0  0  0  0  0  0  0  0  0  0
    6.0512   -1.0585    1.2235 C   0  0  0  0  0  0  0  0  0  0  0  0
    5.2664    0.1520    0.7671 C   0  0  0  0  0  0  0  0  0  0  0  0
    3.8343   -0.0415    1.2220 C   0  0  0  0  0  0  0  0  0  0  0  0
    2.9467    1.1169    0.8205 C   0  0  0  0  0  0  0  0  0  0  0  0
    2.9185    1.2890   -0.6877 C   0  0  0  0  0  0  0  0  0  0  0  0
    2.1356    2.3161   -1.1073 O   0  0  0  0  0  0  0  0  0  0  0  0
    0.8237    2.3062   -0.8091 C   0  0  0  0  0  0  0  0  0  0  0  0
    0.0287    1.1481   -1.3175 C   0  0  0  0  0  0  0  0  0  0  0  0
   -1.4327    1.2310   -0.9375 C   0  0  0  0  0  0  0  0  0  0  0  0
   -1.6496    1.2624    0.5562 C   0  0  0  0  0  0  0  0  0  0  0  0
   -3.1365    1.3403    0.8239 C   0  0  0  0  0  0  0  0  0  0  0  0
   -3.8633    0.2235    0.2935 N   0  0  0  0  0  0  0  0  0  0  0  0
   -3.5861   -1.0211    0.9431 C   0  0  0  0  0  0  0  0  0  0  0  0
   -4.8043   -1.8749    1.1788 C   0  0  2  0  0  0  0  0  0  0  0  0
   -4.3542   -3.1729    1.4169 O   0  0  0  0  0  0  0  0  0  0  0  0
   -5.7404   -1.9228    0.0156 C   0  0  1  0  0  0  0  0  0  0  0  0
   -7.0290   -2.1526    0.5305 O   0  0  0  0  0  0  0  0  0  0  0  0
   -5.7835   -0.6680   -0.7842 C   0  0  2  0  0  0  0  0  0  0  0  0
   -4.9027   -0.8036   -1.8655 O   0  0  0  0  0  0  0  0  0  0  0  0
   -5.2502    0.4582    0.1167 C   0  0  2  0  0  0  0  0  0  0  0  0
   -5.6553    1.7303   -0.5215 C   0  0  0  0  0  0  0  0  0  0  0  0
   -7.0715    1.7447   -0.6023 O   0  0  0  0  0  0  0  0  0  0  0  0
    7.1783   -3.0583   -0.6690 H   0  0  0  0  0  0  0  0  0  0  0  0
    7.5764   -2.3250   -2.2690 H   0  0  0  0  0  0  0  0  0  0  0  0
    5.9786   -2.0289   -1.4950 H   0  0  0  0  0  0  0  0  0  0  0  0
    8.7613   -0.8964   -0.9028 H   0  0  0  0  0  0  0  0  0  0  0  0
    7.1583   -0.0207   -1.0079 H   0  0  0  0  0  0  0  0  0  0  0  0
    7.9444   -1.9818    1.2010 H   0  0  0  0  0  0  0  0  0  0  0  0
    8.0340   -0.1654    1.3294 H   0  0  0  0  0  0  0  0  0  0  0  0
    5.6136   -1.9641    0.7178 H   0  0  0  0  0  0  0  0  0  0  0  0
    5.9132   -1.2438    2.3035 H   0  0  0  0  0  0  0  0  0  0  0  0
    5.2405    0.0955   -0.3555 H   0  0  0  0  0  0  0  0  0  0  0  0
    5.6786    1.0873    1.1408 H   0  0  0  0  0  0  0  0  0  0  0  0
    3.4243   -0.9931    0.8469 H   0  0  0  0  0  0  0  0  0  0  0  0
    3.8545   -0.0412    2.3433 H   0  0  0  0  0  0  0  0  0  0  0  0
    3.3217    2.0219    1.3175 H   0  0  0  0  0  0  0  0  0  0  0  0
    1.9271    0.8611    1.2165 H   0  0  0  0  0  0  0  0  0  0  0  0
    2.7469    0.3227   -1.2049 H   0  0  0  0  0  0  0  0  0  0  0  0
    3.9815    1.5679   -0.9649 H   0  0  0  0  0  0  0  0  0  0  0  0
    0.3641    3.2522   -1.1631 H   0  0  0  0  0  0  0  0  0  0  0  0
    0.7169    2.3138    0.3071 H   0  0  0  0  0  0  0  0  0  0  0  0
    0.0582    1.0265   -2.4131 H   0  0  0  0  0  0  0  0  0  0  0  0
    0.4202    0.2269   -0.8006 H   0  0  0  0  0  0  0  0  0  0  0  0
   -1.9279    0.3574   -1.4222 H   0  0  0  0  0  0  0  0  0  0  0  0
   -1.9096    2.1380   -1.3805 H   0  0  0  0  0  0  0  0  0  0  0  0
   -1.2233    2.2242    0.9164 H   0  0  0  0  0  0  0  0  0  0  0  0
   -1.1365    0.4638    1.0892 H   0  0  0  0  0  0  0  0  0  0  0  0
   -3.3366    1.5304    1.8970 H   0  0  0  0  0  0  0  0  0  0  0  0
   -3.4586    2.2537    0.2745 H   0  0  0  0  0  0  0  0  0  0  0  0
   -2.8931   -1.6042    0.3007 H   0  0  0  0  0  0  0  0  0  0  0  0
   -3.0933   -0.9178    1.9320 H   0  0  0  0  0  0  0  0  0  0  0  0
   -5.2974   -1.5404    2.1172 H   0  0  0  0  0  0  0  0  0  0  0  0
   -4.5206   -3.7946    0.6769 H   0  0  0  0  0  0  0  0  0  0  0  0
   -5.5403   -2.8036   -0.6564 H   0  0  0  0  0  0  0  0  0  0  0  0
   -7.6018   -1.3574    0.4375 H   0  0  0  0  0  0  0  0  0  0  0  0
   -6.8117   -0.4630   -1.1090 H   0  0  0  0  0  0  0  0  0  0  0  0
   -5.3133   -1.3436   -2.5829 H   0  0  0  0  0  0  0  0  0  0  0  0
   -5.7940    0.3619    1.1024 H   0  0  0  0  0  0  0  0  0  0  0  0
   -5.4124    2.6561    0.0304 H   0  0  0  0  0  0  0  0  0  0  0  0
   -5.2998    1.8350   -1.5662 H   0  0  0  0  0  0  0  0  0  0  0  0
   -7.2861    2.4323   -1.2811 H   0  0  0  0  0  0  0  0  0  0  0  0
  1  2  1  0
  2  3  1  0
  3  4  1  0
  4  5  1  0
  5  6  1  0
  6  7  1  0
  7  8  1  0
  8  9  1  0
  9 10  1  0
 10 11  1  0
 11 12  1  0
 12 13  1  0
 13 14  1  0
 14 15  1  0
 15 16  1  0
 16 17  1  0
 17 18  1  0
 17 19  1  0
 19 20  1  0
 19 21  1  0
 21 22  1  0
 21 23  1  0
 23 24  1  0
 24 25  1  0
 23 15  1  0
  1 26  1  0
  1 27  1  0
  1 28  1  0
  2 29  1  0
  2 30  1  0
  3 31  1  0
  3 32  1  0
  4 33  1  0
  4 34  1  0
  5 35  1  0
  5 36  1  0
  6 37  1  0
  6 38  1  0
  7 39  1  0
  7 40  1  0
  8 41  1  0
  8 42  1  0
 10 43  1  0
 10 44  1  0
 11 45  1  0
 11 46  1  0
 12 47  1  0
 12 48  1  0
 13 49  1  0
 13 50  1  0
 14 51  1  0
 14 52  1  0
 16 53  1  0
 16 54  1  0
 17 55  1  1
 18 56  1  0
 19 57  1  6
 20 58  1  0
 21 59  1  6
 22 60  1  0
 23 61  1  1
 24 62  1  0
 24 63  1  0
 25 64  1  0
M  END
$$$$
