
     RDKit          3D

 26 28  0  0  0  0  0  0  0  0999 V2000
    4.5635    0.5500    0.3597 N   0  0  0  0  0  0  0  0  0  0  0  0
    3.1534    0.5016    0.2369 C   0  0  0  0  0  0  0  0  0  0  0  0
    2.5313    1.6810    0.0123 N   0  0  0  0  0  0  0  0  0  0  0  0
    1.2092    1.7546   -0.1198 N   0  0  0  0  0  0  0  0  0  0  0  0
    0.5142    0.6123   -0.0216 C   0  0  0  0  0  0  0  0  0  0  0  0
    1.0743   -0.6124    0.2038 C   0  0  0  0  0  0  0  0  0  0  0  0
    0.3510   -1.8979    0.3197 C   0  0  0  0  0  0  0  0  0  0  0  0
   -1.1139   -1.8140    0.1730 C   0  0  0  0  0  0  0  0  0  0  0  0
   -1.6779   -0.4765   -0.0687 C   0  0  0  0  0  0  0  0  0  0  0  0
   -3.0502   -0.4093   -0.2044 C   0  0  0  0  0  0  0  0  0  0  0  0
   -3.6761    0.8068   -0.4346 C   0  0  0  0  0  0  0  0  0  0  0  0
   -2.9437    1.9804   -0.5338 C   0  0  0  0  0  0  0  0  0  0  0  0
   -1.5632    1.8780   -0.3923 C   0  0  0  0  0  0  0  0  0  0  0  0
   -0.9394    0.6676   -0.1632 C   0  0  0  0  0  0  0  0  0  0  0  0
    2.4557   -0.6780    0.3402 C   0  0  0  0  0  0  0  0  0  0  0  0
    5.1360    1.3236   -0.0427 H   0  0  0  0  0  0  0  0  0  0  0  0
    5.2504   -0.0683    0.8046 H   0  0  0  0  0  0  0  0  0  0  0  0
    0.5971   -2.2991    1.3469 H   0  0  0  0  0  0  0  0  0  0  0  0
    0.8484   -2.5994   -0.3833 H   0  0  0  0  0  0  0  0  0  0  0  0
   -1.4036   -2.4425   -0.7184 H   0  0  0  0  0  0  0  0  0  0  0  0
   -1.6527   -2.2798    1.0336 H   0  0  0  0  0  0  0  0  0  0  0  0
   -3.6769   -1.2806   -0.1384 H   0  0  0  0  0  0  0  0  0  0  0  0
   -4.7485    0.9259   -0.5501 H   0  0  0  0  0  0  0  0  0  0  0  0
   -3.3584    2.9668   -0.7119 H   0  0  0  0  0  0  0  0  0  0  0  0
   -0.9398    2.7655   -0.4610 H   0  0  0  0  0  0  0  0  0  0  0  0
    3.0596   -1.5561    0.5204 H   0  0  0  0  0  0  0  0  0  0  0  0
  1  2  1  0
  2  3  2  0
  3  4  1  0
  4  5  2  0
  5  6  1  0
  6  7  1  0
  7  8  1  0
  8  9  1  0
  9 10  2  0
 10 11  1  0
 11 12  2  0
 12 13  1  0
 13 14  2  0
  6 15  2  0
 15  2  1  0
 14  5  1  0
 14  9  1  0
  1 16  1  0
  1 17  1  0
  7 18  1  0
  7 19  1  0
  8 20  1  0
  8 21  1  0
 10 22  1  0
 11 23  1  0
 12 24  1  0
 13 25  1  0
 15 26  1  0
M  END
$$$$
