
     RDKit          3D

 44 46  0  0  0  0  0  0  0  0999 V2000
   -1.2777    3.3193    0.1669 C   0  0  0  0  0  0  0  0  0  0  0  0
   -1.3704    2.0960    0.8441 O   0  0  0  0  0  0  0  0  0  0  0  0
   -2.1895    1.0452    0.5521 C   0  0  0  0  0  0  0  0  0  0  0  0
   -3.0571    1.1570   -0.5378 C   0  0  0  0  0  0  0  0  0  0  0  0
   -3.9037    0.1194   -0.8578 C   0  0  0  0  0  0  0  0  0  0  0  0
   -3.8780   -1.0271   -0.0841 C   0  0  0  0  0  0  0  0  0  0  0  0
   -4.7325   -2.1524   -0.3914 C   0  0  0  0  0  0  0  0  0  0  0  0
   -5.6373   -2.1793   -1.5311 C   0  0  0  0  0  0  0  0  0  0  0  0
   -4.6932   -3.1741    0.3724 O   0  0  0  0  0  0  0  0  0  0  0  0
   -3.0176   -1.1149    0.9808 C   0  0  0  0  0  0  0  0  0  0  0  0
   -2.1541   -0.0754    1.3175 C   0  0  0  0  0  0  0  0  0  0  0  0
   -1.2154   -0.3395    2.4401 C   0  0  0  0  0  0  0  0  0  0  0  0
    0.2854   -1.1642    1.9534 S   0  0  0  0  0  0  0  0  0  0  0  0
    1.4023   -0.2584    0.9321 C   0  0  0  0  0  0  0  0  0  0  0  0
    1.3520    0.9877    0.4403 N   0  0  0  0  0  0  0  0  0  0  0  0
    2.4155    1.2898   -0.3161 C   0  0  0  0  0  0  0  0  0  0  0  0
    2.8475    2.3850   -1.0341 C   0  0  0  0  0  0  0  0  0  0  0  0
    4.0360    2.3973   -1.7466 C   0  0  0  0  0  0  0  0  0  0  0  0
    4.4168    3.5071   -2.4404 F   0  0  0  0  0  0  0  0  0  0  0  0
    4.8051    1.2494   -1.7209 C   0  0  0  0  0  0  0  0  0  0  0  0
    4.3697    0.1624   -1.0045 C   0  0  0  0  0  0  0  0  0  0  0  0
    3.1801    0.1361   -0.2861 C   0  0  0  0  0  0  0  0  0  0  0  0
    2.5710   -0.7896    0.4626 N   0  0  0  0  0  0  0  0  0  0  0  0
    3.0376   -2.1303    0.7382 C   0  0  0  0  0  0  0  0  0  0  0  0
    3.8800   -2.0833    1.9450 C   0  0  0  0  0  0  0  0  0  0  0  0
    3.3742   -2.1839    3.0745 O   0  0  0  0  0  0  0  0  0  0  0  0
    5.2475   -1.9249    1.8216 O   0  0  0  0  0  0  0  0  0  0  0  0
   -0.6714    4.0145    0.8102 H   0  0  0  0  0  0  0  0  0  0  0  0
   -2.2592    3.8185    0.0608 H   0  0  0  0  0  0  0  0  0  0  0  0
   -0.7835    3.2788   -0.8041 H   0  0  0  0  0  0  0  0  0  0  0  0
   -3.0559    2.0621   -1.1239 H   0  0  0  0  0  0  0  0  0  0  0  0
   -4.5836    0.1885   -1.6949 H   0  0  0  0  0  0  0  0  0  0  0  0
   -6.6441   -1.7777   -1.2561 H   0  0  0  0  0  0  0  0  0  0  0  0
   -5.7834   -3.2481   -1.8778 H   0  0  0  0  0  0  0  0  0  0  0  0
   -5.2007   -1.5906   -2.3690 H   0  0  0  0  0  0  0  0  0  0  0  0
   -3.0025   -2.0286    1.5883 H   0  0  0  0  0  0  0  0  0  0  0  0
   -1.7513   -0.9955    3.1650 H   0  0  0  0  0  0  0  0  0  0  0  0
   -0.9998    0.6241    2.9909 H   0  0  0  0  0  0  0  0  0  0  0  0
    2.2439    3.2797   -1.0534 H   0  0  0  0  0  0  0  0  0  0  0  0
    5.7285    1.2678   -2.2785 H   0  0  0  0  0  0  0  0  0  0  0  0
    4.9691   -0.7445   -0.9784 H   0  0  0  0  0  0  0  0  0  0  0  0
    3.6157   -2.4415   -0.1689 H   0  0  0  0  0  0  0  0  0  0  0  0
    2.1743   -2.8028    0.8804 H   0  0  0  0  0  0  0  0  0  0  0  0
    5.9096   -2.1590    2.5451 H   0  0  0  0  0  0  0  0  0  0  0  0
  1  2  1  0
  2  3  1  0
  3  4  2  0
  4  5  1  0
  5  6  2  0
  6  7  1  0
  7  8  1  0
  7  9  2  0
  6 10  1  0
 10 11  2  0
 11 12  1  0
 12 13  1  0
 13 14  1  0
 14 15  2  0
 15 16  1  0
 16 17  2  0
 17 18  1  0
 18 19  1  0
 18 20  2  0
 20 21  1  0
 21 22  2  0
 22 23  1  0
 23 24  1  0
 24 25  1  0
 25 26  2  0
 25 27  1  0
 11  3  1  0
 23 14  1  0
 22 16  1  0
  1 28  1  0
  1 29  1  0
  1 30  1  0
  4 31  1  0
  5 32  1  0
  8 33  1  0
  8 34  1  0
  8 35  1  0
 10 36  1  0
 12 37  1  0
 12 38  1  0
 17 39  1  0
 20 40  1  0
 21 41  1  0
 24 42  1  0
 24 43  1  0
 27 44  1  0
M  END
$$$$
