
     RDKit          3D

 52 56  0  0  0  0  0  0  0  0999 V2000
   -6.7346    0.0799    1.0762 O   0  0  0  0  0  0  0  0  0  0  0  0
   -5.5701   -0.1899    0.6965 C   0  0  0  0  0  0  0  0  0  0  0  0
   -4.6977   -0.9665    1.5789 C   0  0  0  0  0  0  0  0  0  0  0  0
   -3.2591   -0.9868    1.1085 C   0  0  0  0  0  0  0  0  0  0  0  0
   -2.5090    0.2498    1.5772 C   0  0  0  0  0  0  0  0  0  0  0  0
   -1.1580    0.2037    0.9358 C   0  0  0  0  0  0  0  0  0  0  0  0
   -0.4845   -1.0583    1.0819 N   0  0  0  0  0  0  0  0  0  0  0  0
    0.8636   -1.1506    0.6752 C   0  0  0  0  0  0  0  0  0  0  0  0
    1.4912   -2.2262    0.7834 O   0  0  0  0  0  0  0  0  0  0  0  0
    1.5609   -0.0491    0.1339 N   0  0  0  0  0  0  0  0  0  0  0  0
    2.9246   -0.0565   -0.3017 C   0  0  1  0  0  0  0  0  0  0  0  0
    3.1407    0.6999   -1.6240 C   0  0  0  0  0  0  0  0  0  0  0  0
    3.7924    1.1205   -0.3510 C   0  0  2  0  0  0  0  0  0  0  0  0
    5.2518    0.8939   -0.2222 C   0  0  0  0  0  0  0  0  0  0  0  0
    5.8717   -0.2685   -0.6337 C   0  0  0  0  0  0  0  0  0  0  0  0
    7.2380   -0.4610   -0.5036 C   0  0  0  0  0  0  0  0  0  0  0  0
    8.0124    0.5168    0.0460 C   0  0  0  0  0  0  0  0  0  0  0  0
    7.4199    1.7011    0.4715 C   0  0  0  0  0  0  0  0  0  0  0  0
    6.0530    1.8648    0.3285 C   0  0  0  0  0  0  0  0  0  0  0  0
   -1.1190   -2.2270    1.6218 C   0  0  0  0  0  0  0  0  0  0  0  0
   -2.5941   -2.1700    1.7555 C   0  0  0  0  0  0  0  0  0  0  0  0
   -3.1528   -1.0207   -0.3004 O   0  0  0  0  0  0  0  0  0  0  0  0
   -3.8859   -0.1658   -1.0829 C   0  0  0  0  0  0  0  0  0  0  0  0
   -3.4959    0.2938   -2.3120 C   0  0  0  0  0  0  0  0  0  0  0  0
   -4.2762    1.1564   -3.0599 C   0  0  0  0  0  0  0  0  0  0  0  0
   -5.4907    1.5733   -2.5584 C   0  0  0  0  0  0  0  0  0  0  0  0
   -5.9066    1.1175   -1.3094 C   0  0  0  0  0  0  0  0  0  0  0  0
   -5.1173    0.2689   -0.5958 C   0  0  0  0  0  0  0  0  0  0  0  0
   -4.7077   -0.6452    2.6314 H   0  0  0  0  0  0  0  0  0  0  0  0
   -5.0472   -2.0324    1.5382 H   0  0  0  0  0  0  0  0  0  0  0  0
   -3.0698    1.1235    1.1920 H   0  0  0  0  0  0  0  0  0  0  0  0
   -2.4652    0.3073    2.6912 H   0  0  0  0  0  0  0  0  0  0  0  0
   -0.5396    1.0161    1.4182 H   0  0  0  0  0  0  0  0  0  0  0  0
   -1.2572    0.5196   -0.1227 H   0  0  0  0  0  0  0  0  0  0  0  0
    1.0256    0.8442    0.0482 H   0  0  0  0  0  0  0  0  0  0  0  0
    3.4258   -1.0402   -0.1865 H   0  0  0  0  0  0  0  0  0  0  0  0
    3.6927    0.1082   -2.3793 H   0  0  0  0  0  0  0  0  0  0  0  0
    2.3210    1.2930   -2.0243 H   0  0  0  0  0  0  0  0  0  0  0  0
    3.4830    2.1183    0.0115 H   0  0  0  0  0  0  0  0  0  0  0  0
    5.3046   -1.0575   -1.0682 H   0  0  0  0  0  0  0  0  0  0  0  0
    7.6785   -1.3857   -0.8394 H   0  0  0  0  0  0  0  0  0  0  0  0
    9.0714    0.3741    0.1497 H   0  0  0  0  0  0  0  0  0  0  0  0
    8.0469    2.4515    0.8984 H   0  0  0  0  0  0  0  0  0  0  0  0
    5.6256    2.8109    0.6758 H   0  0  0  0  0  0  0  0  0  0  0  0
   -0.6011   -2.4250    2.6066 H   0  0  0  0  0  0  0  0  0  0  0  0
   -0.7799   -3.0862    0.9742 H   0  0  0  0  0  0  0  0  0  0  0  0
   -3.0646   -3.1314    1.4314 H   0  0  0  0  0  0  0  0  0  0  0  0
   -2.8290   -2.0919    2.8577 H   0  0  0  0  0  0  0  0  0  0  0  0
   -2.5345   -0.0301   -2.7209 H   0  0  0  0  0  0  0  0  0  0  0  0
   -3.9665    1.5251   -4.0423 H   0  0  0  0  0  0  0  0  0  0  0  0
   -6.1197    2.2481   -3.1240 H   0  0  0  0  0  0  0  0  0  0  0  0
   -6.8618    1.4426   -0.9091 H   0  0  0  0  0  0  0  0  0  0  0  0
  1  2  2  0
  2  3  1  0
  3  4  1  0
  4  5  1  0
  5  6  1  0
  6  7  1  0
  7  8  1  0
  8  9  2  0
  8 10  1  0
 10 11  1  0
 11 12  1  0
 12 13  1  0
 13 14  1  0
 14 15  2  0
 15 16  1  0
 16 17  2  0
 17 18  1  0
 18 19  2  0
  7 20  1  0
 20 21  1  0
  4 22  1  0
 22 23  1  0
 23 24  2  0
 24 25  1  0
 25 26  2  0
 26 27  1  0
 27 28  2  0
 28  2  1  0
 21  4  1  0
 28 23  1  0
 13 11  1  0
 19 14  1  0
  3 29  1  0
  3 30  1  0
  5 31  1  0
  5 32  1  0
  6 33  1  0
  6 34  1  0
 10 35  1  0
 11 36  1  6
 12 37  1  0
 12 38  1  0
 13 39  1  1
 15 40  1  0
 16 41  1  0
 17 42  1  0
 18 43  1  0
 19 44  1  0
 20 45  1  0
 20 46  1  0
 21 47  1  0
 21 48  1  0
 24 49  1  0
 25 50  1  0
 26 51  1  0
 27 52  1  0
M  END
$$$$
