
     RDKit          3D

120121  0  0  0  0  0  0  0  0999 V2000
   -4.7425    6.5308    0.3878 C   0  0  0  0  0  0  0  0  0  0  0  0
   -5.4735    5.2412    0.6197 C   0  0  0  0  0  0  0  0  0  0  0  0
   -4.8292    4.3392    1.5161 N   0  0  0  0  0  0  0  0  0  0  0  0
   -4.8605    4.8465    2.8588 C   0  0  0  0  0  0  0  0  0  0  0  0
   -4.0282    6.0471    3.1381 C   0  0  0  0  0  0  0  0  0  0  0  0
   -5.4639    3.0317    1.5302 C   0  0  0  0  0  0  0  0  0  0  0  0
   -5.3053    2.2873    0.2568 C   0  0  0  0  0  0  0  0  0  0  0  0
   -3.8645    1.9981   -0.1113 C   0  0  0  0  0  0  0  0  0  0  0  0
   -3.7802    1.2869   -1.4324 C   0  0  0  0  0  0  0  0  0  0  0  0
   -4.4811   -0.0113   -1.5196 C   0  0  2  0  0  0  0  0  0  0  0  0
   -4.1214   -1.0777   -0.6861 N   0  0  0  0  0  0  0  0  0  0  0  0
   -2.7724   -1.3980   -0.4301 C   0  0  0  0  0  0  0  0  0  0  0  0
   -1.9022   -0.6943   -0.9651 O   0  0  0  0  0  0  0  0  0  0  0  0
   -2.3567   -2.5460    0.4461 C   0  0  2  0  0  0  0  0  0  0  0  0
   -2.9834   -2.3593    1.7807 C   0  0  0  0  0  0  0  0  0  0  0  0
   -2.6595   -3.4398    2.7671 C   0  0  0  0  0  0  0  0  0  0  0  0
   -3.0951   -4.8040    2.3182 C   0  0  0  0  0  0  0  0  0  0  0  0
   -1.2355   -3.4672    3.2018 C   0  0  0  0  0  0  0  0  0  0  0  0
   -0.9346   -2.7180    0.4558 N   0  0  0  0  0  0  0  0  0  0  0  0
   -0.2861   -3.7760   -0.2681 C   0  0  0  0  0  0  0  0  0  0  0  0
   -1.0518   -4.5335   -0.9167 O   0  0  0  0  0  0  0  0  0  0  0  0
    1.1546   -4.0190   -0.2996 C   0  0  2  0  0  0  0  0  0  0  0  0
    1.5278   -5.4532   -0.0712 C   0  0  0  0  0  0  0  0  0  0  0  0
    1.9523   -3.1718    0.5308 N   0  0  0  0  0  0  0  0  0  0  0  0
    2.8099   -2.1515    0.1013 C   0  0  0  0  0  0  0  0  0  0  0  0
    2.9056   -1.9209   -1.1294 O   0  0  0  0  0  0  0  0  0  0  0  0
    3.6342   -1.3031    1.0298 C   0  0  2  0  0  0  0  0  0  0  0  0
    2.6496   -0.6835    2.0255 C   0  0  0  0  0  0  0  0  0  0  0  0
    3.3676    0.1687    2.9978 C   0  0  0  0  0  0  0  0  0  0  0  0
    3.8180   -0.3691    4.1821 C   0  0  0  0  0  0  0  0  0  0  0  0
    4.5110    0.3824    5.1156 C   0  0  0  0  0  0  0  0  0  0  0  0
    4.7488    1.7285    4.8237 C   0  0  0  0  0  0  0  0  0  0  0  0
    4.3095    2.2958    3.6453 C   0  0  0  0  0  0  0  0  0  0  0  0
    3.6140    1.4841    2.7411 C   0  0  0  0  0  0  0  0  0  0  0  0
    4.3562   -0.2985    0.3120 N   0  0  0  0  0  0  0  0  0  0  0  0
    5.7712   -0.3031    0.3244 C   0  0  0  0  0  0  0  0  0  0  0  0
    6.3615   -1.2120    0.9802 O   0  0  0  0  0  0  0  0  0  0  0  0
    6.5844    0.6686   -0.3692 C   0  0  0  0  0  0  0  0  0  0  0  0
    7.9559    0.5583   -0.4213 C   0  0  0  0  0  0  0  0  0  0  0  0
    8.7403    1.4927   -1.0888 C   0  0  0  0  0  0  0  0  0  0  0  0
    8.1704    2.5689   -1.7247 C   0  0  0  0  0  0  0  0  0  0  0  0
    8.9979    3.5592   -2.4476 C   0  0  0  0  0  0  0  0  0  0  0  0
    9.6935    2.9293   -3.6459 C   0  0  0  0  0  0  0  0  0  0  0  0
   10.0440    4.2092   -1.5929 C   0  0  0  0  0  0  0  0  0  0  0  0
    6.7967    2.6910   -1.6788 C   0  0  0  0  0  0  0  0  0  0  0  0
    6.0352    1.7510   -1.0110 C   0  0  0  0  0  0  0  0  0  0  0  0
   -4.4453   -0.5013   -2.9313 C   0  0  0  0  0  0  0  0  0  0  0  0
   -4.7432    0.2516   -3.8717 O   0  0  0  0  0  0  0  0  0  0  0  0
   -4.0661   -1.8443   -3.2272 N   0  0  0  0  0  0  0  0  0  0  0  0
   -3.9875   -2.4293   -4.5257 C   0  0  1  0  0  0  0  0  0  0  0  0
   -2.5625   -2.8640   -4.7991 C   0  0  0  0  0  0  0  0  0  0  0  0
   -2.1887   -3.8054   -3.8220 O   0  0  0  0  0  0  0  0  0  0  0  0
   -4.9154   -3.5945   -4.6787 C   0  0  0  0  0  0  0  0  0  0  0  0
   -4.9205   -4.2137   -5.7729 O   0  0  0  0  0  0  0  0  0  0  0  0
   -5.7516   -4.0067   -3.6785 O   0  0  0  0  0  0  0  0  0  0  0  0
   -6.6465   -5.0957   -3.7572 C   0  0  0  0  0  0  0  0  0  0  0  0
   -4.6976    6.6452   -0.7492 H   0  0  0  0  0  0  0  0  0  0  0  0
   -5.3096    7.4377    0.6955 H   0  0  0  0  0  0  0  0  0  0  0  0
   -3.6877    6.5299    0.6799 H   0  0  0  0  0  0  0  0  0  0  0  0
   -5.7565    4.7493   -0.3499 H   0  0  0  0  0  0  0  0  0  0  0  0
   -6.4874    5.5526    1.0318 H   0  0  0  0  0  0  0  0  0  0  0  0
   -5.9363    5.1725    3.0247 H   0  0  0  0  0  0  0  0  0  0  0  0
   -4.7147    4.0463    3.6210 H   0  0  0  0  0  0  0  0  0  0  0  0
   -3.9650    6.0963    4.2785 H   0  0  0  0  0  0  0  0  0  0  0  0
   -2.9616    5.9635    2.8406 H   0  0  0  0  0  0  0  0  0  0  0  0
   -4.5208    6.9850    2.8713 H   0  0  0  0  0  0  0  0  0  0  0  0
   -5.0063    2.4503    2.3481 H   0  0  0  0  0  0  0  0  0  0  0  0
   -6.5308    3.1584    1.7395 H   0  0  0  0  0  0  0  0  0  0  0  0
   -5.8548    2.7239   -0.5977 H   0  0  0  0  0  0  0  0  0  0  0  0
   -5.7767    1.2702    0.4199 H   0  0  0  0  0  0  0  0  0  0  0  0
   -3.3922    1.4828    0.7321 H   0  0  0  0  0  0  0  0  0  0  0  0
   -3.3771    3.0020   -0.1827 H   0  0  0  0  0  0  0  0  0  0  0  0
   -2.7535    1.2762   -1.8493 H   0  0  0  0  0  0  0  0  0  0  0  0
   -4.3341    1.9697   -2.1557 H   0  0  0  0  0  0  0  0  0  0  0  0
   -5.5751    0.2416   -1.3231 H   0  0  0  0  0  0  0  0  0  0  0  0
   -4.9063   -1.6538   -0.2402 H   0  0  0  0  0  0  0  0  0  0  0  0
   -2.7776   -3.4867   -0.0357 H   0  0  0  0  0  0  0  0  0  0  0  0
   -4.0773   -2.2053    1.6982 H   0  0  0  0  0  0  0  0  0  0  0  0
   -2.5995   -1.4048    2.2443 H   0  0  0  0  0  0  0  0  0  0  0  0
   -3.2694   -3.2211    3.6945 H   0  0  0  0  0  0  0  0  0  0  0  0
   -2.6893   -5.0850    1.3168 H   0  0  0  0  0  0  0  0  0  0  0  0
   -4.1831   -4.9706    2.3959 H   0  0  0  0  0  0  0  0  0  0  0  0
   -2.6257   -5.5216    3.0397 H   0  0  0  0  0  0  0  0  0  0  0  0
   -0.8896   -2.4211    3.3006 H   0  0  0  0  0  0  0  0  0  0  0  0
   -0.5742   -4.0852    2.5843 H   0  0  0  0  0  0  0  0  0  0  0  0
   -1.2048   -3.9057    4.2408 H   0  0  0  0  0  0  0  0  0  0  0  0
   -0.3348   -2.0762    0.9910 H   0  0  0  0  0  0  0  0  0  0  0  0
    1.4892   -3.7846   -1.3649 H   0  0  0  0  0  0  0  0  0  0  0  0
    2.6159   -5.5602    0.1255 H   0  0  0  0  0  0  0  0  0  0  0  0
    1.3507   -6.0801   -0.9946 H   0  0  0  0  0  0  0  0  0  0  0  0
    0.9724   -5.9387    0.7413 H   0  0  0  0  0  0  0  0  0  0  0  0
    1.8884   -3.3365    1.5796 H   0  0  0  0  0  0  0  0  0  0  0  0
    4.3560   -1.9491    1.5683 H   0  0  0  0  0  0  0  0  0  0  0  0
    1.8591   -0.1184    1.4581 H   0  0  0  0  0  0  0  0  0  0  0  0
    2.1218   -1.5391    2.5037 H   0  0  0  0  0  0  0  0  0  0  0  0
    3.6435   -1.4083    4.4265 H   0  0  0  0  0  0  0  0  0  0  0  0
    4.8626   -0.0383    6.0424 H   0  0  0  0  0  0  0  0  0  0  0  0
    5.2975    2.2978    5.5743 H   0  0  0  0  0  0  0  0  0  0  0  0
    4.5166    3.3381    3.4659 H   0  0  0  0  0  0  0  0  0  0  0  0
    3.2910    1.9850    1.8329 H   0  0  0  0  0  0  0  0  0  0  0  0
    3.8584    0.4396   -0.2250 H   0  0  0  0  0  0  0  0  0  0  0  0
    8.4608   -0.2595    0.0524 H   0  0  0  0  0  0  0  0  0  0  0  0
    9.8214    1.4005   -1.1268 H   0  0  0  0  0  0  0  0  0  0  0  0
    8.3021    4.3729   -2.8013 H   0  0  0  0  0  0  0  0  0  0  0  0
    9.0331    2.2178   -4.1693 H   0  0  0  0  0  0  0  0  0  0  0  0
    9.9432    3.7249   -4.4074 H   0  0  0  0  0  0  0  0  0  0  0  0
   10.6597    2.4637   -3.3566 H   0  0  0  0  0  0  0  0  0  0  0  0
   10.1699    5.2675   -1.9163 H   0  0  0  0  0  0  0  0  0  0  0  0
    9.7917    4.2573   -0.5190 H   0  0  0  0  0  0  0  0  0  0  0  0
   11.0412    3.7183   -1.7708 H   0  0  0  0  0  0  0  0  0  0  0  0
    6.3656    3.5564   -2.1886 H   0  0  0  0  0  0  0  0  0  0  0  0
    4.9691    1.9006   -1.0064 H   0  0  0  0  0  0  0  0  0  0  0  0
   -3.8245   -2.4515   -2.3973 H   0  0  0  0  0  0  0  0  0  0  0  0
   -4.2436   -1.6906   -5.3424 H   0  0  0  0  0  0  0  0  0  0  0  0
   -1.8582   -2.0321   -4.7734 H   0  0  0  0  0  0  0  0  0  0  0  0
   -2.4925   -3.3876   -5.7938 H   0  0  0  0  0  0  0  0  0  0  0  0
   -3.0386   -4.1561   -3.4007 H   0  0  0  0  0  0  0  0  0  0  0  0
   -6.5307   -5.7343   -2.8424 H   0  0  0  0  0  0  0  0  0  0  0  0
   -7.6664   -4.7192   -3.8801 H   0  0  0  0  0  0  0  0  0  0  0  0
   -6.3121   -5.7547   -4.6123 H   0  0  0  0  0  0  0  0  0  0  0  0
  1  2  1  0
  2  3  1  0
  3  4  1  0
  4  5  1  0
  3  6  1  0
  6  7  1  0
  7  8  1  0
  8  9  1  0
  9 10  1  0
 10 11  1  0
 11 12  1  0
 12 13  2  0
 12 14  1  0
 14 15  1  0
 15 16  1  0
 16 17  1  0
 16 18  1  0
 14 19  1  0
 19 20  1  0
 20 21  2  0
 20 22  1  0
 22 23  1  0
 22 24  1  0
 24 25  1  0
 25 26  2  0
 25 27  1  0
 27 28  1  0
 28 29  1  0
 29 30  2  0
 30 31  1  0
 31 32  2  0
 32 33  1  0
 33 34  2  0
 27 35  1  0
 35 36  1  0
 36 37  2  0
 36 38  1  0
 38 39  2  0
 39 40  1  0
 40 41  2  0
 41 42  1  0
 42 43  1  0
 42 44  1  0
 41 45  1  0
 45 46  2  0
 10 47  1  0
 47 48  2  0
 47 49  1  0
 49 50  1  0
 50 51  1  0
 51 52  1  0
 50 53  1  0
 53 54  2  0
 53 55  1  0
 55 56  1  0
 34 29  1  0
 46 38  1  0
  1 57  1  0
  1 58  1  0
  1 59  1  0
  2 60  1  0
  2 61  1  0
  4 62  1  0
  4 63  1  0
  5 64  1  0
  5 65  1  0
  5 66  1  0
  6 67  1  0
  6 68  1  0
  7 69  1  0
  7 70  1  0
  8 71  1  0
  8 72  1  0
  9 73  1  0
  9 74  1  0
 10 75  1  1
 11 76  1  0
 14 77  1  6
 15 78  1  0
 15 79  1  0
 16 80  1  0
 17 81  1  0
 17 82  1  0
 17 83  1  0
 18 84  1  0
 18 85  1  0
 18 86  1  0
 19 87  1  0
 22 88  1  6
 23 89  1  0
 23 90  1  0
 23 91  1  0
 24 92  1  0
 27 93  1  1
 28 94  1  0
 28 95  1  0
 30 96  1  0
 31 97  1  0
 32 98  1  0
 33 99  1  0
 34100  1  0
 35101  1  0
 39102  1  0
 40103  1  0
 42104  1  0
 43105  1  0
 43106  1  0
 43107  1  0
 44108  1  0
 44109  1  0
 44110  1  0
 45111  1  0
 46112  1  0
 49113  1  0
 50114  1  6
 51115  1  0
 51116  1  0
 52117  1  0
 56118  1  0
 56119  1  0
 56120  1  0
M  END
$$$$
