
     RDKit          3D

 17 18  0  0  0  0  0  0  0  0999 V2000
    4.2325   -0.7921    0.3159 Cl  0  0  0  0  0  0  0  0  0  0  0  0
    2.6364   -0.0883    0.1685 C   0  0  0  0  0  0  0  0  0  0  0  0
    1.5604   -0.9522    0.1625 C   0  0  0  0  0  0  0  0  0  0  0  0
    1.7738   -2.6833    0.2963 Cl  0  0  0  0  0  0  0  0  0  0  0  0
    0.2541   -0.5319    0.0528 C   0  0  0  0  0  0  0  0  0  0  0  0
   -0.8201   -1.4049    0.0475 C   0  0  0  0  0  0  0  0  0  0  0  0
   -2.1169   -0.9450   -0.0644 C   0  0  0  0  0  0  0  0  0  0  0  0
   -2.2933    0.4161   -0.1702 C   0  0  0  0  0  0  0  0  0  0  0  0
   -1.2735    1.3398   -0.1718 C   0  0  0  0  0  0  0  0  0  0  0  0
    0.0083    0.8233   -0.0569 C   0  0  0  0  0  0  0  0  0  0  0  0
    1.1311    1.6245   -0.0436 C   0  0  0  0  0  0  0  0  0  0  0  0
    0.9183    2.8732   -0.1438 O   0  0  0  0  0  0  0  0  0  0  0  0
    2.3598    1.1926    0.0621 O   0  0  0  0  0  0  0  0  0  0  0  0
   -0.6373   -2.4478    0.1315 H   0  0  0  0  0  0  0  0  0  0  0  0
   -2.9864   -1.6125   -0.0714 H   0  0  0  0  0  0  0  0  0  0  0  0
   -3.3244    0.7819   -0.2592 H   0  0  0  0  0  0  0  0  0  0  0  0
   -1.4227    2.4067   -0.2555 H   0  0  0  0  0  0  0  0  0  0  0  0
  1  2  1  0
  2  3  2  0
  3  4  1  0
  3  5  1  0
  5  6  2  0
  6  7  1  0
  7  8  2  0
  8  9  1  0
  9 10  2  0
 10 11  1  0
 11 12  2  0
 11 13  1  0
 13  2  1  0
 10  5  1  0
  6 14  1  0
  7 15  1  0
  8 16  1  0
  9 17  1  0
M  END
$$$$
