
     RDKit          3D

 49 51  0  0  0  0  0  0  0  0999 V2000
   -1.2519   -1.6917    2.0215 C   0  0  0  0  0  0  0  0  0  0  0  0
   -2.3081   -0.9600    1.2874 C   0  0  0  0  0  0  0  0  0  0  0  0
   -3.5281   -1.6321    1.1180 C   0  0  0  0  0  0  0  0  0  0  0  0
   -4.5998   -1.0410    0.5221 C   0  0  0  0  0  0  0  0  0  0  0  0
   -4.4491    0.2442    0.0870 C   0  0  0  0  0  0  0  0  0  0  0  0
   -3.2802    0.9284    0.2326 C   0  0  0  0  0  0  0  0  0  0  0  0
   -2.1470    0.3223    0.8548 C   0  0  0  0  0  0  0  0  0  0  0  0
   -0.9727    1.0977    1.0133 C   0  0  0  0  0  0  0  0  0  0  0  0
    0.2013    0.9875    0.1446 N   0  0  0  0  0  0  0  0  0  0  0  0
    1.1798    1.9628    0.4470 C   0  0  0  0  0  0  0  0  0  0  0  0
    2.3295    2.2065   -0.2340 C   0  0  0  0  0  0  0  0  0  0  0  0
    3.2682    3.1569    0.1911 C   0  0  0  0  0  0  0  0  0  0  0  0
    3.1031    3.9035    1.3072 C   0  0  0  0  0  0  0  0  0  0  0  0
    4.0094    4.8853    1.7978 C   0  0  0  0  0  0  0  0  0  0  0  0
    4.7737    5.7125    2.1890 N   0  0  0  0  0  0  0  0  0  0  0  0
    1.9087    3.6711    2.0381 C   0  0  0  0  0  0  0  0  0  0  0  0
    1.6541    4.6139    3.5026 Cl  0  0  0  0  0  0  0  0  0  0  0  0
    1.0152    2.7415    1.6028 C   0  0  0  0  0  0  0  0  0  0  0  0
    0.2690   -0.0450   -0.7784 C   0  0  1  0  0  0  0  0  0  0  0  0
   -0.8005   -0.1978   -1.8496 C   0  0  0  0  0  0  0  0  0  0  0  0
   -0.2634   -1.4236   -2.6392 C   0  0  0  0  0  0  0  0  0  0  0  0
    1.1282   -1.4795   -2.4105 N   0  0  0  0  0  0  0  0  0  0  0  0
    1.7917   -2.8248   -1.6516 S   0  0  0  0  0  6  0  0  0  0  0  0
    1.5526   -4.3248   -2.5725 C   0  0  0  0  0  0  0  0  0  0  0  0
    1.2279   -3.0801   -0.2742 O   0  0  0  0  0  0  0  0  0  0  0  0
    3.3061   -2.6309   -1.5352 O   0  0  0  0  0  0  0  0  0  0  0  0
    1.4814   -0.2466   -1.6611 C   0  0  0  0  0  0  0  0  0  0  0  0
   -0.9911   -2.5671    1.3714 H   0  0  0  0  0  0  0  0  0  0  0  0
   -1.5719   -2.0086    3.0370 H   0  0  0  0  0  0  0  0  0  0  0  0
   -0.3495   -1.0652    2.0843 H   0  0  0  0  0  0  0  0  0  0  0  0
   -3.6350   -2.6706    1.4759 H   0  0  0  0  0  0  0  0  0  0  0  0
   -5.5651   -1.5549    0.3883 H   0  0  0  0  0  0  0  0  0  0  0  0
   -5.3343    0.7132   -0.3872 H   0  0  0  0  0  0  0  0  0  0  0  0
   -3.1593    1.9248   -0.1039 H   0  0  0  0  0  0  0  0  0  0  0  0
   -0.5675    0.9332    2.0838 H   0  0  0  0  0  0  0  0  0  0  0  0
   -1.2871    2.1854    1.0614 H   0  0  0  0  0  0  0  0  0  0  0  0
    2.5622    1.7147   -1.1388 H   0  0  0  0  0  0  0  0  0  0  0  0
    4.1633    3.2968   -0.4070 H   0  0  0  0  0  0  0  0  0  0  0  0
    0.1242    2.6595    2.2490 H   0  0  0  0  0  0  0  0  0  0  0  0
    0.2187   -1.0409   -0.1812 H   0  0  0  0  0  0  0  0  0  0  0  0
   -1.7728   -0.4664   -1.4369 H   0  0  0  0  0  0  0  0  0  0  0  0
   -0.7862    0.6625   -2.5318 H   0  0  0  0  0  0  0  0  0  0  0  0
   -0.5237   -1.3099   -3.7010 H   0  0  0  0  0  0  0  0  0  0  0  0
   -0.7503   -2.3490   -2.2152 H   0  0  0  0  0  0  0  0  0  0  0  0
    0.5425   -4.4621   -2.9457 H   0  0  0  0  0  0  0  0  0  0  0  0
    2.3196   -4.3445   -3.3905 H   0  0  0  0  0  0  0  0  0  0  0  0
    1.8416   -5.1770   -1.9108 H   0  0  0  0  0  0  0  0  0  0  0  0
    2.3863   -0.4784   -1.1245 H   0  0  0  0  0  0  0  0  0  0  0  0
    1.5363    0.5481   -2.4396 H   0  0  0  0  0  0  0  0  0  0  0  0
  1  2  1  0
  2  3  2  0
  3  4  1  0
  4  5  2  0
  5  6  1  0
  6  7  2  0
  7  8  1  0
  8  9  1  0
  9 10  1  0
 10 11  2  0
 11 12  1  0
 12 13  2  0
 13 14  1  0
 14 15  3  0
 13 16  1  0
 16 17  1  0
 16 18  2  0
  9 19  1  0
 19 20  1  0
 20 21  1  0
 21 22  1  0
 22 23  1  0
 23 24  1  0
 23 25  2  0
 23 26  2  0
 22 27  1  0
  7  2  1  0
 18 10  1  0
 27 19  1  0
  1 28  1  0
  1 29  1  0
  1 30  1  0
  3 31  1  0
  4 32  1  0
  5 33  1  0
  6 34  1  0
  8 35  1  0
  8 36  1  0
 11 37  1  0
 12 38  1  0
 18 39  1  0
 19 40  1  1
 20 41  1  0
 20 42  1  0
 21 43  1  0
 21 44  1  0
 24 45  1  0
 24 46  1  0
 24 47  1  0
 27 48  1  0
 27 49  1  0
M  END
$$$$
