
     RDKit          3D

 47 50  0  0  0  0  0  0  0  0999 V2000
    0.5734   -0.6550    1.1936 C   0  0  2  0  0  0  0  0  0  0  0  0
    0.9254   -1.9362    0.5230 C   0  0  0  0  0  0  0  0  0  0  0  0
   -0.3542   -2.7426    0.4128 C   0  0  0  0  0  0  0  0  0  0  0  0
   -1.3577   -2.0108   -0.4362 C   0  0  1  0  0  0  0  0  0  0  0  0
   -2.5675   -2.8732   -0.5779 C   0  0  0  0  0  0  0  0  0  0  0  0
   -1.7335   -0.6914    0.2035 C   0  0  2  0  0  0  0  0  0  0  0  0
   -2.6100    0.1070   -0.7051 C   0  0  0  0  0  0  0  0  0  0  0  0
   -2.6508    1.5600   -0.4657 C   0  0  0  0  0  0  0  0  0  0  0  0
   -1.4036    2.3232   -0.3473 C   0  0  1  0  0  0  0  0  0  0  0  0
   -1.7424    3.7785   -0.6159 C   0  0  0  0  0  0  0  0  0  0  0  0
   -0.8611    2.3177    0.9579 O   0  0  0  0  0  0  0  0  0  0  0  0
   -0.8758    1.1038    1.3598 O   0  0  0  0  0  0  0  0  0  0  0  0
   -0.4749    0.1446    0.4396 C   0  0  1  0  0  0  0  0  0  0  0  0
    0.0669    0.6546   -0.8481 C   0  0  2  0  0  0  0  0  0  0  0  0
    1.4053    0.4376   -1.0599 O   0  0  0  0  0  0  0  0  0  0  0  0
    2.2573    0.5933   -0.0206 C   0  0  2  0  0  0  0  0  0  0  0  0
    3.3497   -0.2495   -0.2334 O   0  0  0  0  0  0  0  0  0  0  0  0
    4.5223    0.4581   -0.4577 C   0  0  0  0  0  0  0  0  0  0  0  0
    1.7366    0.3012    1.3388 C   0  0  2  0  0  0  0  0  0  0  0  0
    2.7607   -0.1745    2.3136 C   0  0  0  0  0  0  0  0  0  0  0  0
   -0.3549    1.9520   -1.1555 O   0  0  0  0  0  0  0  0  0  0  0  0
    0.1895   -0.9096    2.2042 H   0  0  0  0  0  0  0  0  0  0  0  0
    1.5901   -2.4943    1.2136 H   0  0  0  0  0  0  0  0  0  0  0  0
    1.3211   -1.8420   -0.4865 H   0  0  0  0  0  0  0  0  0  0  0  0
   -0.8215   -2.9090    1.4217 H   0  0  0  0  0  0  0  0  0  0  0  0
   -0.1544   -3.7273   -0.0773 H   0  0  0  0  0  0  0  0  0  0  0  0
   -0.9168   -1.9012   -1.4458 H   0  0  0  0  0  0  0  0  0  0  0  0
   -2.6986   -3.5279    0.3275 H   0  0  0  0  0  0  0  0  0  0  0  0
   -2.4896   -3.5941   -1.4315 H   0  0  0  0  0  0  0  0  0  0  0  0
   -3.5179   -2.3493   -0.7155 H   0  0  0  0  0  0  0  0  0  0  0  0
   -2.1686   -0.9042    1.1795 H   0  0  0  0  0  0  0  0  0  0  0  0
   -2.4321   -0.1436   -1.7853 H   0  0  0  0  0  0  0  0  0  0  0  0
   -3.6633   -0.2611   -0.5390 H   0  0  0  0  0  0  0  0  0  0  0  0
   -3.2433    2.0052   -1.3048 H   0  0  0  0  0  0  0  0  0  0  0  0
   -3.2696    1.7483    0.4420 H   0  0  0  0  0  0  0  0  0  0  0  0
   -2.1413    4.2177    0.3222 H   0  0  0  0  0  0  0  0  0  0  0  0
   -2.5760    3.8155   -1.3575 H   0  0  0  0  0  0  0  0  0  0  0  0
   -0.8691    4.3697   -0.9430 H   0  0  0  0  0  0  0  0  0  0  0  0
   -0.4020    0.0638   -1.6705 H   0  0  0  0  0  0  0  0  0  0  0  0
    2.6747    1.6393   -0.0985 H   0  0  0  0  0  0  0  0  0  0  0  0
    4.8347    1.1186    0.3509 H   0  0  0  0  0  0  0  0  0  0  0  0
    4.3994    1.0247   -1.4249 H   0  0  0  0  0  0  0  0  0  0  0  0
    5.3181   -0.2849   -0.6711 H   0  0  0  0  0  0  0  0  0  0  0  0
    1.2937    1.2656    1.7228 H   0  0  0  0  0  0  0  0  0  0  0  0
    2.3973   -1.0352    2.9283 H   0  0  0  0  0  0  0  0  0  0  0  0
    3.7119   -0.4299    1.8010 H   0  0  0  0  0  0  0  0  0  0  0  0
    3.0226    0.6468    3.0413 H   0  0  0  0  0  0  0  0  0  0  0  0
  1  2  1  0
  2  3  1  0
  3  4  1  0
  4  5  1  0
  4  6  1  0
  6  7  1  0
  7  8  1  0
  8  9  1  0
  9 10  1  6
  9 11  1  0
 11 12  1  0
 13 12  1  1
 13 14  1  0
 14 15  1  0
 15 16  1  0
 16 17  1  0
 17 18  1  0
 16 19  1  0
 19 20  1  0
 14 21  1  0
 13  1  1  0
 19  1  1  0
 13  6  1  0
 21  9  1  0
  1 22  1  1
  2 23  1  0
  2 24  1  0
  3 25  1  0
  3 26  1  0
  4 27  1  6
  5 28  1  0
  5 29  1  0
  5 30  1  0
  6 31  1  1
  7 32  1  0
  7 33  1  0
  8 34  1  0
  8 35  1  0
 10 36  1  0
 10 37  1  0
 10 38  1  0
 14 39  1  6
 16 40  1  1
 18 41  1  0
 18 42  1  0
 18 43  1  0
 19 44  1  1
 20 45  1  0
 20 46  1  0
 20 47  1  0
M  END
$$$$
