
     RDKit          3D

 64 68  0  0  0  0  0  0  0  0999 V2000
   10.9294    3.0079   -1.0014 C   0  0  0  0  0  0  0  0  0  0  0  0
   10.7800    2.1060   -0.2465 C   0  0  0  0  0  0  0  0  0  0  0  0
   10.5539    0.8825    0.8025 C   0  0  0  0  0  0  0  0  0  0  0  0
    9.3810    0.3768    0.5977 O   0  0  0  0  0  0  0  0  0  0  0  0
    8.2576   -0.1762    0.2564 C   0  0  0  0  0  0  0  0  0  0  0  0
    7.2228   -0.0096    1.2580 C   0  0  0  0  0  0  0  0  0  0  0  0
    6.0702   -0.5354    0.9812 N   0  0  0  0  0  0  0  0  0  0  0  0
    5.7231   -1.2183   -0.1346 C   0  0  0  0  0  0  0  0  0  0  0  0
    4.3237   -1.6601   -0.1852 C   0  0  0  0  0  0  0  0  0  0  0  0
    3.8595   -2.2740   -1.2721 F   0  0  0  0  0  0  0  0  0  0  0  0
    3.5285   -1.4493    0.8645 C   0  0  0  0  0  0  0  0  0  0  0  0
    2.1319   -1.8112    0.9773 C   0  0  0  0  0  0  0  0  0  0  0  0
    1.7465   -2.8643    1.7866 C   0  0  0  0  0  0  0  0  0  0  0  0
    0.4711   -3.1085    1.9589 N   0  0  0  0  0  0  0  0  0  0  0  0
   -0.5119   -2.4098    1.4041 C   0  0  0  0  0  0  0  0  0  0  0  0
   -1.8076   -2.7034    1.6199 F   0  0  0  0  0  0  0  0  0  0  0  0
   -0.2142   -1.3030    0.5618 C   0  0  0  0  0  0  0  0  0  0  0  0
   -1.2225   -0.4029   -0.0049 C   0  0  1  0  0  0  0  0  0  0  0  0
   -1.7264    0.4144    1.2175 C   0  0  0  0  0  0  0  0  0  0  0  0
   -0.5116    0.6029   -0.7660 N   0  0  0  0  0  0  0  0  0  0  0  0
   -1.0224    1.4848   -1.4734 C   0  0  0  0  0  0  0  0  0  0  0  0
   -0.3189    2.4419   -2.1904 N   0  0  0  0  0  0  0  0  0  0  0  0
   -2.8270    1.5090   -1.5808 S   0  0  0  0  0  0  0  0  0  0  0  0
   -3.3175   -0.2067   -1.3455 C   0  0  1  0  0  0  0  0  0  0  0  0
   -4.7447   -0.4681   -1.1998 C   0  0  0  0  0  0  0  0  0  0  0  0
   -5.2122   -1.4707   -1.8241 O   0  0  0  0  0  0  0  0  0  0  0  0
   -5.6072    0.3118   -0.4296 N   0  0  0  0  0  0  0  0  0  0  0  0
   -5.2316    1.5125    0.3312 C   0  0  0  0  0  0  0  0  0  0  0  0
   -5.9061    2.6701   -0.4451 C   0  0  0  0  0  0  0  0  0  0  0  0
   -7.2726    2.4578   -0.2192 O   0  0  0  0  0  0  0  0  0  0  0  0
   -7.7553    1.3022   -0.7948 C   0  0  0  0  0  0  0  0  0  0  0  0
   -7.0523    0.0477   -0.2763 C   0  0  1  0  0  0  0  0  0  0  0  0
   -7.5407   -1.1706   -0.9360 C   0  0  0  0  0  0  0  0  0  0  0  0
   -2.4697   -1.1500   -2.1728 C   0  0  0  0  0  0  0  0  0  0  0  0
   -2.3439   -1.0482   -0.6502 C   0  0  1  0  0  0  0  0  0  0  0  0
    1.1281   -1.0842    0.4042 C   0  0  0  0  0  0  0  0  0  0  0  0
    6.6887   -1.3771   -1.0669 C   0  0  0  0  0  0  0  0  0  0  0  0
    7.9296   -0.8674   -0.8748 N   0  0  0  0  0  0  0  0  0  0  0  0
   11.0270    3.6472   -1.5197 H   0  0  0  0  0  0  0  0  0  0  0  0
   10.8048    1.3711    1.7773 H   0  0  0  0  0  0  0  0  0  0  0  0
   11.4335    0.2797    0.5287 H   0  0  0  0  0  0  0  0  0  0  0  0
    7.4761    0.5335    2.1623 H   0  0  0  0  0  0  0  0  0  0  0  0
    4.0227   -0.9269    1.7098 H   0  0  0  0  0  0  0  0  0  0  0  0
    2.5585   -3.4600    2.2860 H   0  0  0  0  0  0  0  0  0  0  0  0
   -0.9136    0.4558    1.9900 H   0  0  0  0  0  0  0  0  0  0  0  0
   -1.9299    1.4532    0.9215 H   0  0  0  0  0  0  0  0  0  0  0  0
   -2.6546   -0.0462    1.5976 H   0  0  0  0  0  0  0  0  0  0  0  0
   -0.2368    3.4039   -1.7674 H   0  0  0  0  0  0  0  0  0  0  0  0
    0.1360    2.2843   -3.1069 H   0  0  0  0  0  0  0  0  0  0  0  0
   -4.1955    1.6904    0.3945 H   0  0  0  0  0  0  0  0  0  0  0  0
   -5.7652    1.4945    1.3148 H   0  0  0  0  0  0  0  0  0  0  0  0
   -5.6142    2.6499   -1.4917 H   0  0  0  0  0  0  0  0  0  0  0  0
   -5.5928    3.5864    0.0417 H   0  0  0  0  0  0  0  0  0  0  0  0
   -7.7556    1.3630   -1.9010 H   0  0  0  0  0  0  0  0  0  0  0  0
   -8.8006    1.1963   -0.4572 H   0  0  0  0  0  0  0  0  0  0  0  0
   -7.3060    0.0116    0.8002 H   0  0  0  0  0  0  0  0  0  0  0  0
   -8.6170   -1.3243   -0.6132 H   0  0  0  0  0  0  0  0  0  0  0  0
   -7.4796   -1.0961   -2.0368 H   0  0  0  0  0  0  0  0  0  0  0  0
   -7.0035   -2.0711   -0.5642 H   0  0  0  0  0  0  0  0  0  0  0  0
   -1.6665   -0.7684   -2.7975 H   0  0  0  0  0  0  0  0  0  0  0  0
   -3.0705   -1.9697   -2.6191 H   0  0  0  0  0  0  0  0  0  0  0  0
   -2.8037   -1.9360   -0.1539 H   0  0  0  0  0  0  0  0  0  0  0  0
    1.4327   -0.2379   -0.2622 H   0  0  0  0  0  0  0  0  0  0  0  0
    6.4050   -1.9435   -1.9590 H   0  0  0  0  0  0  0  0  0  0  0  0
  1  2  3  0
  2  3  1  0
  3  4  1  0
  4  5  1  0
  5  6  2  0
  6  7  1  0
  7  8  2  0
  8  9  1  0
  9 10  1  0
  9 11  2  0
 11 12  1  0
 12 13  2  0
 13 14  1  0
 14 15  2  0
 15 16  1  0
 15 17  1  0
 17 18  1  0
 18 19  1  1
 18 20  1  0
 20 21  2  0
 21 22  1  0
 21 23  1  0
 23 24  1  0
 24 25  1  1
 25 26  2  0
 25 27  1  0
 27 28  1  0
 28 29  1  0
 29 30  1  0
 30 31  1  0
 31 32  1  0
 32 33  1  0
 24 34  1  0
 34 35  1  0
 17 36  2  0
  8 37  1  0
 37 38  2  0
 38  5  1  0
 36 12  1  0
 35 18  1  0
 35 24  1  0
 32 27  1  0
  1 39  1  0
  3 40  1  0
  3 41  1  0
  6 42  1  0
 11 43  1  0
 13 44  1  0
 19 45  1  0
 19 46  1  0
 19 47  1  0
 22 48  1  0
 22 49  1  0
 28 50  1  0
 28 51  1  0
 29 52  1  0
 29 53  1  0
 31 54  1  0
 31 55  1  0
 32 56  1  1
 33 57  1  0
 33 58  1  0
 33 59  1  0
 34 60  1  0
 34 61  1  0
 35 62  1  1
 36 63  1  0
 37 64  1  0
M  END
$$$$
