
     RDKit          3D

 76 80  0  0  0  0  0  0  0  0999 V2000
   -5.5265    5.8949   -0.7807 C   0  0  0  0  0  0  0  0  0  0  0  0
   -5.3145    4.4729   -0.3945 C   0  0  0  0  0  0  0  0  0  0  0  0
   -5.4708    3.5235   -1.3818 C   0  0  0  0  0  0  0  0  0  0  0  0
   -5.2823    2.1969   -1.0583 C   0  0  0  0  0  0  0  0  0  0  0  0
   -4.9443    1.8412    0.2307 C   0  0  0  0  0  0  0  0  0  0  0  0
   -4.7626    0.4627    0.5130 N   0  0  0  0  0  0  0  0  0  0  0  0
   -5.7056   -0.4168    0.8137 N   0  0  0  0  0  0  0  0  0  0  0  0
   -5.1427   -1.6053    1.0085 C   0  0  0  0  0  0  0  0  0  0  0  0
   -5.8949   -2.8420    1.3654 C   0  0  0  0  0  0  0  0  0  0  0  0
   -4.9890   -4.0296    1.5241 C   0  0  0  0  0  0  0  0  0  0  0  0
   -6.8984   -3.1820    0.2565 C   0  0  0  0  0  0  0  0  0  0  0  0
   -6.6863   -2.6466    2.6294 C   0  0  0  0  0  0  0  0  0  0  0  0
   -3.7594   -1.4792    0.8216 C   0  0  0  0  0  0  0  0  0  0  0  0
   -3.5636   -0.1555    0.5099 C   0  0  0  0  0  0  0  0  0  0  0  0
   -2.3265    0.4850    0.2267 N   0  0  0  0  0  0  0  0  0  0  0  0
   -1.0778   -0.1793    0.2133 C   0  0  0  0  0  0  0  0  0  0  0  0
   -0.9989   -1.4031    0.4548 O   0  0  0  0  0  0  0  0  0  0  0  0
    0.1183    0.5346   -0.0766 N   0  0  0  0  0  0  0  0  0  0  0  0
    1.3893   -0.0891   -0.1045 C   0  0  0  0  0  0  0  0  0  0  0  0
    2.1547   -0.1768    1.0158 C   0  0  0  0  0  0  0  0  0  0  0  0
    3.4148   -0.7919    1.0131 C   0  0  0  0  0  0  0  0  0  0  0  0
    3.8890   -1.3219   -0.1611 C   0  0  0  0  0  0  0  0  0  0  0  0
    5.0863   -1.9282   -0.2390 O   0  0  0  0  0  0  0  0  0  0  0  0
    6.1066   -2.1956    0.6192 C   0  0  0  0  0  0  0  0  0  0  0  0
    6.8529   -1.0675    1.2425 C   0  0  0  0  0  0  0  0  0  0  0  0
    7.5267   -0.1836    0.3499 N   0  0  0  0  0  0  0  0  0  0  0  0
    6.7257    0.6396   -0.4839 C   0  0  0  0  0  0  0  0  0  0  0  0
    6.0090    1.6486    0.3876 C   0  0  0  0  0  0  0  0  0  0  0  0
    6.9541    2.5867    0.7930 O   0  0  0  0  0  0  0  0  0  0  0  0
    8.2505    2.1366    0.7887 C   0  0  0  0  0  0  0  0  0  0  0  0
    8.3647    0.6934    1.1649 C   0  0  0  0  0  0  0  0  0  0  0  0
    3.0767   -1.2166   -1.3019 C   0  0  0  0  0  0  0  0  0  0  0  0
    3.5520   -1.7491   -2.4866 C   0  0  0  0  0  0  0  0  0  0  0  0
    2.7888   -1.6676   -3.6313 C   0  0  0  0  0  0  0  0  0  0  0  0
    1.5385   -1.0586   -3.6334 C   0  0  0  0  0  0  0  0  0  0  0  0
    1.0867   -0.5354   -2.4403 C   0  0  0  0  0  0  0  0  0  0  0  0
    1.8498   -0.6150   -1.2886 C   0  0  0  0  0  0  0  0  0  0  0  0
   -4.7819    2.7691    1.2354 C   0  0  0  0  0  0  0  0  0  0  0  0
   -4.9736    4.1102    0.9041 C   0  0  0  0  0  0  0  0  0  0  0  0
   -5.5534    6.5359    0.1249 H   0  0  0  0  0  0  0  0  0  0  0  0
   -6.4582    5.9890   -1.3667 H   0  0  0  0  0  0  0  0  0  0  0  0
   -4.6433    6.1911   -1.3989 H   0  0  0  0  0  0  0  0  0  0  0  0
   -5.7320    3.7787   -2.3852 H   0  0  0  0  0  0  0  0  0  0  0  0
   -5.4097    1.4542   -1.8524 H   0  0  0  0  0  0  0  0  0  0  0  0
   -5.6559   -4.9359    1.5602 H   0  0  0  0  0  0  0  0  0  0  0  0
   -4.4713   -4.0138    2.5047 H   0  0  0  0  0  0  0  0  0  0  0  0
   -4.2941   -4.0647    0.6719 H   0  0  0  0  0  0  0  0  0  0  0  0
   -7.7509   -2.4745    0.3355 H   0  0  0  0  0  0  0  0  0  0  0  0
   -7.2681   -4.2049    0.5015 H   0  0  0  0  0  0  0  0  0  0  0  0
   -6.4180   -3.1299   -0.7350 H   0  0  0  0  0  0  0  0  0  0  0  0
   -6.0263   -2.8504    3.5047 H   0  0  0  0  0  0  0  0  0  0  0  0
   -7.5878   -3.3103    2.6548 H   0  0  0  0  0  0  0  0  0  0  0  0
   -7.0453   -1.6098    2.6949 H   0  0  0  0  0  0  0  0  0  0  0  0
   -3.0669   -2.2791    0.9163 H   0  0  0  0  0  0  0  0  0  0  0  0
   -2.2986    1.5225    0.0099 H   0  0  0  0  0  0  0  0  0  0  0  0
    0.0509    1.5413   -0.2724 H   0  0  0  0  0  0  0  0  0  0  0  0
    1.8047    0.2308    1.9466 H   0  0  0  0  0  0  0  0  0  0  0  0
    3.9578   -0.8270    1.9583 H   0  0  0  0  0  0  0  0  0  0  0  0
    5.6561   -2.7707    1.4974 H   0  0  0  0  0  0  0  0  0  0  0  0
    6.8350   -2.9749    0.2101 H   0  0  0  0  0  0  0  0  0  0  0  0
    6.2516   -0.5790    2.0064 H   0  0  0  0  0  0  0  0  0  0  0  0
    7.6941   -1.5671    1.8393 H   0  0  0  0  0  0  0  0  0  0  0  0
    7.4533    1.2584   -1.0990 H   0  0  0  0  0  0  0  0  0  0  0  0
    6.0969    0.1488   -1.2229 H   0  0  0  0  0  0  0  0  0  0  0  0
    5.2614    2.1677   -0.2446 H   0  0  0  0  0  0  0  0  0  0  0  0
    5.4856    1.2077    1.2392 H   0  0  0  0  0  0  0  0  0  0  0  0
    8.8227    2.4066   -0.1277 H   0  0  0  0  0  0  0  0  0  0  0  0
    8.7803    2.7039    1.6112 H   0  0  0  0  0  0  0  0  0  0  0  0
    9.4285    0.3794    1.1114 H   0  0  0  0  0  0  0  0  0  0  0  0
    8.0945    0.6219    2.2507 H   0  0  0  0  0  0  0  0  0  0  0  0
    4.5145   -2.2177   -2.4833 H   0  0  0  0  0  0  0  0  0  0  0  0
    3.1580   -2.0827   -4.5579 H   0  0  0  0  0  0  0  0  0  0  0  0
    0.9440   -0.9935   -4.5189 H   0  0  0  0  0  0  0  0  0  0  0  0
    0.1255   -0.0540   -2.3898 H   0  0  0  0  0  0  0  0  0  0  0  0
   -4.5174    2.4836    2.2414 H   0  0  0  0  0  0  0  0  0  0  0  0
   -4.8537    4.8589    1.6677 H   0  0  0  0  0  0  0  0  0  0  0  0
  1  2  1  0
  2  3  2  0
  3  4  1  0
  4  5  2  0
  5  6  1  0
  6  7  1  0
  7  8  2  0
  8  9  1  0
  9 10  1  0
  9 11  1  0
  9 12  1  0
  8 13  1  0
 13 14  2  0
 14 15  1  0
 15 16  1  0
 16 17  2  0
 16 18  1  0
 18 19  1  0
 19 20  2  0
 20 21  1  0
 21 22  2  0
 22 23  1  0
 23 24  1  0
 24 25  1  0
 25 26  1  0
 26 27  1  0
 27 28  1  0
 28 29  1  0
 29 30  1  0
 30 31  1  0
 22 32  1  0
 32 33  2  0
 33 34  1  0
 34 35  2  0
 35 36  1  0
 36 37  2  0
  5 38  1  0
 38 39  2  0
 39  2  1  0
 14  6  1  0
 37 19  1  0
 31 26  1  0
 37 32  1  0
  1 40  1  0
  1 41  1  0
  1 42  1  0
  3 43  1  0
  4 44  1  0
 10 45  1  0
 10 46  1  0
 10 47  1  0
 11 48  1  0
 11 49  1  0
 11 50  1  0
 12 51  1  0
 12 52  1  0
 12 53  1  0
 13 54  1  0
 15 55  1  0
 18 56  1  0
 20 57  1  0
 21 58  1  0
 24 59  1  0
 24 60  1  0
 25 61  1  0
 25 62  1  0
 27 63  1  0
 27 64  1  0
 28 65  1  0
 28 66  1  0
 30 67  1  0
 30 68  1  0
 31 69  1  0
 31 70  1  0
 33 71  1  0
 34 72  1  0
 35 73  1  0
 36 74  1  0
 38 75  1  0
 39 76  1  0
M  END
$$$$
