
     RDKit          3D

 62 66  0  0  0  0  0  0  0  0999 V2000
   -5.2317   -0.3414    3.2786 C   0  0  0  0  0  0  0  0  0  0  0  0
   -4.5855   -0.8493    2.0349 C   0  0  0  0  0  0  0  0  0  0  0  0
   -3.4237   -0.3007    1.5360 C   0  0  0  0  0  0  0  0  0  0  0  0
   -2.8775   -0.8141    0.3849 C   0  0  0  0  0  0  0  0  0  0  0  0
   -1.6849   -0.2393   -0.1134 N   0  0  0  0  0  0  0  0  0  0  0  0
   -0.4025   -0.7288    0.3421 C   0  0  0  0  0  0  0  0  0  0  0  0
   -0.1887   -1.6346    1.2047 O   0  0  0  0  0  0  0  0  0  0  0  0
    0.6122    0.0114   -0.3735 C   0  0  0  0  0  0  0  0  0  0  0  0
    1.9987    0.1226   -0.5303 C   0  0  0  0  0  0  0  0  0  0  0  0
    2.9489   -0.6509    0.1873 N   0  0  0  0  0  0  0  0  0  0  0  0
    4.3496   -0.5337    0.0239 C   0  0  0  0  0  0  0  0  0  0  0  0
    4.7889    0.3026   -0.8038 O   0  0  0  0  0  0  0  0  0  0  0  0
    5.2384   -1.3374    0.7731 O   0  0  0  0  0  0  0  0  0  0  0  0
    6.6242   -1.1606    0.5530 C   0  0  0  0  0  0  0  0  0  0  0  0
    6.9826   -1.4467   -0.9037 C   0  0  0  0  0  0  0  0  0  0  0  0
    6.9675    0.2626    0.9271 C   0  0  0  0  0  0  0  0  0  0  0  0
    7.4351   -2.1534    1.3768 C   0  0  0  0  0  0  0  0  0  0  0  0
    2.1462    1.0982   -1.4827 C   0  0  0  0  0  0  0  0  0  0  0  0
    0.9635    1.5822   -1.9104 N   0  0  0  0  0  0  0  0  0  0  0  0
    0.7899    2.6266   -2.9408 C   0  0  0  0  0  0  0  0  0  0  0  0
    0.0064    0.9174   -1.2291 C   0  0  0  0  0  0  0  0  0  0  0  0
   -1.4651    0.8244   -1.0675 C   0  0  0  0  0  0  0  0  0  0  0  0
   -2.1312    2.0735   -0.6894 C   0  0  0  0  0  0  0  0  0  0  0  0
   -3.5191    2.0965   -0.5945 C   0  0  0  0  0  0  0  0  0  0  0  0
   -4.1770    3.2447   -0.2181 C   0  0  0  0  0  0  0  0  0  0  0  0
   -3.5093    4.4092    0.0784 C   0  0  0  0  0  0  0  0  0  0  0  0
   -4.3960    5.8395    0.5513 Cl  0  0  0  0  0  0  0  0  0  0  0  0
   -2.1325    4.3910   -0.0145 C   0  0  0  0  0  0  0  0  0  0  0  0
   -1.4478    3.2309   -0.3956 C   0  0  0  0  0  0  0  0  0  0  0  0
   -3.4840   -1.8377   -0.2307 N   0  0  0  0  0  0  0  0  0  0  0  0
   -4.6181   -2.3890    0.2376 C   0  0  0  0  0  0  0  0  0  0  0  0
   -5.1983   -1.9029    1.3899 C   0  0  0  0  0  0  0  0  0  0  0  0
   -6.2998   -2.6382    1.6071 N   0  0  0  0  0  0  0  0  0  0  0  0
   -6.4356   -3.5514    0.6565 N   0  0  0  0  0  0  0  0  0  0  0  0
   -5.4171   -3.3973   -0.1692 N   0  0  0  0  0  0  0  0  0  0  0  0
   -5.1504   -4.1774   -1.3605 C   0  0  0  0  0  0  0  0  0  0  0  0
   -4.6968   -0.8194    4.1263 H   0  0  0  0  0  0  0  0  0  0  0  0
   -5.0840    0.7546    3.3321 H   0  0  0  0  0  0  0  0  0  0  0  0
   -6.3053   -0.5522    3.2624 H   0  0  0  0  0  0  0  0  0  0  0  0
   -2.9509    0.5281    2.0526 H   0  0  0  0  0  0  0  0  0  0  0  0
    2.6141   -1.3561    0.8841 H   0  0  0  0  0  0  0  0  0  0  0  0
    6.2543   -2.1246   -1.3767 H   0  0  0  0  0  0  0  0  0  0  0  0
    7.9744   -1.9391   -0.9787 H   0  0  0  0  0  0  0  0  0  0  0  0
    7.0643   -0.4907   -1.4765 H   0  0  0  0  0  0  0  0  0  0  0  0
    7.9722    0.3398    1.3940 H   0  0  0  0  0  0  0  0  0  0  0  0
    6.1955    0.6396    1.6141 H   0  0  0  0  0  0  0  0  0  0  0  0
    6.9106    0.8630   -0.0163 H   0  0  0  0  0  0  0  0  0  0  0  0
    6.9211   -3.1359    1.4383 H   0  0  0  0  0  0  0  0  0  0  0  0
    7.6143   -1.7261    2.3944 H   0  0  0  0  0  0  0  0  0  0  0  0
    8.4255   -2.3355    0.9152 H   0  0  0  0  0  0  0  0  0  0  0  0
    3.1102    1.4450   -1.8538 H   0  0  0  0  0  0  0  0  0  0  0  0
   -0.2884    2.7195   -3.1084 H   0  0  0  0  0  0  0  0  0  0  0  0
    1.3601    2.3149   -3.8487 H   0  0  0  0  0  0  0  0  0  0  0  0
    1.2556    3.5456   -2.5307 H   0  0  0  0  0  0  0  0  0  0  0  0
   -1.8509    0.5426   -2.0842 H   0  0  0  0  0  0  0  0  0  0  0  0
   -4.0515    1.1739   -0.8368 H   0  0  0  0  0  0  0  0  0  0  0  0
   -5.2561    3.2617   -0.1443 H   0  0  0  0  0  0  0  0  0  0  0  0
   -1.5978    5.3010    0.2163 H   0  0  0  0  0  0  0  0  0  0  0  0
   -0.3732    3.2703   -0.4414 H   0  0  0  0  0  0  0  0  0  0  0  0
   -5.5321   -5.2152   -1.2592 H   0  0  0  0  0  0  0  0  0  0  0  0
   -5.6976   -3.7299   -2.2179 H   0  0  0  0  0  0  0  0  0  0  0  0
   -4.0639   -4.2235   -1.5718 H   0  0  0  0  0  0  0  0  0  0  0  0
  1  2  1  0
  2  3  2  0
  3  4  1  0
  4  5  1  0
  5  6  1  0
  6  7  2  0
  6  8  1  0
  8  9  1  0
  9 10  1  0
 10 11  1  0
 11 12  2  0
 11 13  1  0
 13 14  1  0
 14 15  1  0
 14 16  1  0
 14 17  1  0
  9 18  2  0
 18 19  1  0
 19 20  1  0
 19 21  1  0
 21 22  1  0
 22 23  1  0
 23 24  2  0
 24 25  1  0
 25 26  2  0
 26 27  1  0
 26 28  1  0
 28 29  2  0
  4 30  2  0
 30 31  1  0
 31 32  2  0
 32 33  1  0
 33 34  2  0
 34 35  1  0
 35 36  1  0
 32  2  1  0
 22  5  1  0
 29 23  1  0
 35 31  1  0
 21  8  2  0
  1 37  1  0
  1 38  1  0
  1 39  1  0
  3 40  1  0
 10 41  1  0
 15 42  1  0
 15 43  1  0
 15 44  1  0
 16 45  1  0
 16 46  1  0
 16 47  1  0
 17 48  1  0
 17 49  1  0
 17 50  1  0
 18 51  1  0
 20 52  1  0
 20 53  1  0
 20 54  1  0
 22 55  1  0
 24 56  1  0
 25 57  1  0
 28 58  1  0
 29 59  1  0
 36 60  1  0
 36 61  1  0
 36 62  1  0
M  END
$$$$
