
     RDKit          3D

 56 59  0  0  0  0  0  0  0  0999 V2000
    8.2615   -1.2740   -1.1329 C   0  0  0  0  0  0  0  0  0  0  0  0
    7.0190   -0.4724   -0.9164 C   0  0  0  0  0  0  0  0  0  0  0  0
    6.5316   -0.2021    0.3407 C   0  0  0  0  0  0  0  0  0  0  0  0
    5.3822    0.5400    0.5198 C   0  0  0  0  0  0  0  0  0  0  0  0
    4.6653    1.0474   -0.5535 C   0  0  0  0  0  0  0  0  0  0  0  0
    3.2212    1.9790   -0.3370 S   0  0  0  0  0  6  0  0  0  0  0  0
    3.1611    3.1203   -1.3472 O   0  0  0  0  0  0  0  0  0  0  0  0
    3.2929    2.6830    1.0140 O   0  0  0  0  0  0  0  0  0  0  0  0
    1.8386    1.0302   -0.3470 N   0  0  0  0  0  0  0  0  0  0  0  0
    1.5338    0.2940   -1.5114 C   0  0  0  0  0  0  0  0  0  0  0  0
    0.0661    0.4108   -1.8053 C   0  0  0  0  0  0  0  0  0  0  0  0
   -0.7116    0.3507   -0.5493 C   0  0  0  0  0  0  0  0  0  0  0  0
   -2.1148    0.2488   -0.6422 C   0  0  0  0  0  0  0  0  0  0  0  0
   -2.9443    0.2150    0.4450 C   0  0  0  0  0  0  0  0  0  0  0  0
   -4.3058    0.1134    0.2635 O   0  0  0  0  0  0  0  0  0  0  0  0
   -5.2379    0.0712    1.3184 C   0  0  0  0  0  0  0  0  0  0  0  0
   -6.6080   -0.0404    0.7646 C   0  0  0  0  0  0  0  0  0  0  0  0
   -7.1542   -1.2796    0.5384 C   0  0  0  0  0  0  0  0  0  0  0  0
   -8.4334   -1.3415    0.0220 C   0  0  0  0  0  0  0  0  0  0  0  0
   -9.1863   -0.2271   -0.2766 C   0  0  0  0  0  0  0  0  0  0  0  0
   -8.6033    1.0199   -0.0355 C   0  0  0  0  0  0  0  0  0  0  0  0
   -7.3361    1.1069    0.4763 C   0  0  0  0  0  0  0  0  0  0  0  0
   -2.3732    0.2849    1.6846 C   0  0  0  0  0  0  0  0  0  0  0  0
   -0.9801    0.3863    1.7925 C   0  0  0  0  0  0  0  0  0  0  0  0
   -0.1415    0.4191    0.7018 C   0  0  0  0  0  0  0  0  0  0  0  0
    1.3515    0.5250    0.8917 C   0  0  0  0  0  0  0  0  0  0  0  0
    1.9561   -0.7806    1.2396 C   0  0  0  0  0  0  0  0  0  0  0  0
    2.7655   -1.3632    0.4541 O   0  0  0  0  0  0  0  0  0  0  0  0
    1.6891   -1.4619    2.4407 N   0  0  0  0  0  0  0  0  0  0  0  0
    2.2996   -2.6788    2.6775 O   0  0  0  0  0  0  0  0  0  0  0  0
    5.1688    0.7669   -1.8147 C   0  0  0  0  0  0  0  0  0  0  0  0
    6.3183    0.0248   -1.9942 C   0  0  0  0  0  0  0  0  0  0  0  0
    8.3629   -2.0570   -0.3321 H   0  0  0  0  0  0  0  0  0  0  0  0
    8.1972   -1.8688   -2.0853 H   0  0  0  0  0  0  0  0  0  0  0  0
    9.1656   -0.6518   -1.1912 H   0  0  0  0  0  0  0  0  0  0  0  0
    7.0819   -0.5924    1.1852 H   0  0  0  0  0  0  0  0  0  0  0  0
    4.9876    0.7602    1.5041 H   0  0  0  0  0  0  0  0  0  0  0  0
    2.1307    0.6973   -2.3718 H   0  0  0  0  0  0  0  0  0  0  0  0
    1.7694   -0.8082   -1.4732 H   0  0  0  0  0  0  0  0  0  0  0  0
   -0.2880   -0.3721   -2.5139 H   0  0  0  0  0  0  0  0  0  0  0  0
   -0.0514    1.4265   -2.2963 H   0  0  0  0  0  0  0  0  0  0  0  0
   -2.5666    0.1934   -1.6412 H   0  0  0  0  0  0  0  0  0  0  0  0
   -5.1355    0.9220    2.0196 H   0  0  0  0  0  0  0  0  0  0  0  0
   -5.0428   -0.8504    1.9048 H   0  0  0  0  0  0  0  0  0  0  0  0
   -6.6289   -2.2012    0.7463 H   0  0  0  0  0  0  0  0  0  0  0  0
   -8.8539   -2.3273   -0.1523 H   0  0  0  0  0  0  0  0  0  0  0  0
  -10.1872   -0.3198   -0.6809 H   0  0  0  0  0  0  0  0  0  0  0  0
   -9.1528    1.9159   -0.2527 H   0  0  0  0  0  0  0  0  0  0  0  0
   -6.8404    2.0529    0.6809 H   0  0  0  0  0  0  0  0  0  0  0  0
   -2.9854    0.2626    2.5787 H   0  0  0  0  0  0  0  0  0  0  0  0
   -0.5355    0.4618    2.7828 H   0  0  0  0  0  0  0  0  0  0  0  0
    1.5659    1.2830    1.6791 H   0  0  0  0  0  0  0  0  0  0  0  0
    1.0619   -1.1087    3.1771 H   0  0  0  0  0  0  0  0  0  0  0  0
    2.1798   -3.2688    1.9170 H   0  0  0  0  0  0  0  0  0  0  0  0
    4.6515    1.1370   -2.6940 H   0  0  0  0  0  0  0  0  0  0  0  0
    6.7225   -0.2018   -2.9712 H   0  0  0  0  0  0  0  0  0  0  0  0
  1  2  1  0
  2  3  2  0
  3  4  1  0
  4  5  2  0
  5  6  1  0
  6  7  2  0
  6  8  2  0
  6  9  1  0
  9 10  1  0
 10 11  1  0
 11 12  1  0
 12 13  2  0
 13 14  1  0
 14 15  1  0
 15 16  1  0
 16 17  1  0
 17 18  2  0
 18 19  1  0
 19 20  2  0
 20 21  1  0
 21 22  2  0
 14 23  2  0
 23 24  1  0
 24 25  2  0
 25 26  1  0
 26 27  1  0
 27 28  2  0
 27 29  1  0
 29 30  1  0
  5 31  1  0
 31 32  2  0
 32  2  1  0
 26  9  1  0
 25 12  1  0
 22 17  1  0
  1 33  1  0
  1 34  1  0
  1 35  1  0
  3 36  1  0
  4 37  1  0
 10 38  1  0
 10 39  1  0
 11 40  1  0
 11 41  1  0
 13 42  1  0
 16 43  1  0
 16 44  1  0
 18 45  1  0
 19 46  1  0
 20 47  1  0
 21 48  1  0
 22 49  1  0
 23 50  1  0
 24 51  1  0
 26 52  1  0
 29 53  1  0
 30 54  1  0
 31 55  1  0
 32 56  1  0
M  END
$$$$
