
     RDKit          3D

 55 57  0  0  0  0  0  0  0  0999 V2000
    2.4355    1.6015    2.5289 C   0  0  0  0  0  0  0  0  0  0  0  0
    1.4115    0.5492    2.0528 C   0  0  0  0  0  0  0  0  0  0  0  0
    0.1447    0.8101    2.7623 C   0  0  0  0  0  0  0  0  0  0  0  0
    1.4281    0.6206    0.5624 C   0  0  1  0  0  0  0  0  0  0  0  0
    2.8230    0.2912    0.1848 N   0  0  0  0  0  0  0  0  0  0  0  0
    3.4657   -0.9189    0.4145 C   0  0  0  0  0  0  0  0  0  0  0  0
    2.8102   -1.8545    1.0069 O   0  0  0  0  0  0  0  0  0  0  0  0
    4.8350   -1.2287    0.0398 C   0  0  0  0  0  0  0  0  0  0  0  0
    5.6044   -0.2917   -0.5912 C   0  0  0  0  0  0  0  0  0  0  0  0
    6.9177   -0.5403   -0.9696 C   0  0  0  0  0  0  0  0  0  0  0  0
    7.4712   -1.7687   -0.7043 C   0  0  0  0  0  0  0  0  0  0  0  0
    6.7218   -2.7201   -0.0749 C   0  0  0  0  0  0  0  0  0  0  0  0
    5.4010   -2.4541    0.2996 C   0  0  0  0  0  0  0  0  0  0  0  0
    0.4885   -0.2662   -0.1399 C   0  0  0  0  0  0  0  0  0  0  0  0
    0.9564   -1.3404   -0.6851 O   0  0  0  0  0  0  0  0  0  0  0  0
   -0.8940   -0.0972   -0.3074 N   0  0  0  0  0  0  0  0  0  0  0  0
   -1.6890   -1.1100   -0.9376 C   0  0  0  0  0  0  0  0  0  0  0  0
   -2.6355   -0.6651   -1.9770 C   0  0  0  0  0  0  0  0  0  0  0  0
   -3.2221    0.7022   -1.7681 C   0  0  0  0  0  0  0  0  0  0  0  0
   -4.6220    0.6723   -1.2768 C   0  0  0  0  0  0  0  0  0  0  0  0
   -4.8740    0.0925   -0.0563 C   0  0  0  0  0  0  0  0  0  0  0  0
   -6.1621    0.0498    0.4333 C   0  0  0  0  0  0  0  0  0  0  0  0
   -7.2324    0.5738   -0.2615 C   0  0  0  0  0  0  0  0  0  0  0  0
   -8.8642    0.4913    0.4152 Cl  0  0  0  0  0  0  0  0  0  0  0  0
   -6.9792    1.1545   -1.4844 C   0  0  0  0  0  0  0  0  0  0  0  0
   -5.7024    1.2009   -1.9776 C   0  0  0  0  0  0  0  0  0  0  0  0
   -2.3453    1.6517   -1.0529 C   0  0  0  0  0  0  0  0  0  0  0  0
   -1.5434    1.1121    0.0985 C   0  0  0  0  0  0  0  0  0  0  0  0
    3.4209    1.1367    2.7285 H   0  0  0  0  0  0  0  0  0  0  0  0
    2.0808    2.1024    3.4442 H   0  0  0  0  0  0  0  0  0  0  0  0
    2.5909    2.3759    1.7570 H   0  0  0  0  0  0  0  0  0  0  0  0
    1.8321   -0.4308    2.4324 H   0  0  0  0  0  0  0  0  0  0  0  0
   -0.2676    1.8048    2.6051 H   0  0  0  0  0  0  0  0  0  0  0  0
    0.3718    0.6399    3.8688 H   0  0  0  0  0  0  0  0  0  0  0  0
   -0.5748   -0.0297    2.5328 H   0  0  0  0  0  0  0  0  0  0  0  0
    1.2259    1.6650    0.2771 H   0  0  0  0  0  0  0  0  0  0  0  0
    3.3751    1.0570   -0.3070 H   0  0  0  0  0  0  0  0  0  0  0  0
    5.2489    0.6974   -0.8371 H   0  0  0  0  0  0  0  0  0  0  0  0
    7.5370    0.1921   -1.4695 H   0  0  0  0  0  0  0  0  0  0  0  0
    8.5052   -2.0070   -0.9861 H   0  0  0  0  0  0  0  0  0  0  0  0
    7.1710   -3.6989    0.1334 H   0  0  0  0  0  0  0  0  0  0  0  0
    4.8129   -3.2022    0.7940 H   0  0  0  0  0  0  0  0  0  0  0  0
   -2.2377   -1.7386   -0.1690 H   0  0  0  0  0  0  0  0  0  0  0  0
   -0.9876   -1.8710   -1.4005 H   0  0  0  0  0  0  0  0  0  0  0  0
   -3.5090   -1.3818   -1.9936 H   0  0  0  0  0  0  0  0  0  0  0  0
   -2.1667   -0.7915   -2.9846 H   0  0  0  0  0  0  0  0  0  0  0  0
   -3.3131    1.1368   -2.8173 H   0  0  0  0  0  0  0  0  0  0  0  0
   -4.0523   -0.3252    0.5023 H   0  0  0  0  0  0  0  0  0  0  0  0
   -6.3879   -0.4058    1.4015 H   0  0  0  0  0  0  0  0  0  0  0  0
   -7.7822    1.5768   -2.0632 H   0  0  0  0  0  0  0  0  0  0  0  0
   -5.5023    1.6602   -2.9447 H   0  0  0  0  0  0  0  0  0  0  0  0
   -2.9927    2.4702   -0.6242 H   0  0  0  0  0  0  0  0  0  0  0  0
   -1.6229    2.1621   -1.7482 H   0  0  0  0  0  0  0  0  0  0  0  0
   -2.1272    0.9791    1.0125 H   0  0  0  0  0  0  0  0  0  0  0  0
   -0.7972    1.9277    0.3212 H   0  0  0  0  0  0  0  0  0  0  0  0
  1  2  1  0
  2  3  1  0
  2  4  1  0
  4  5  1  0
  5  6  1  0
  6  7  2  0
  6  8  1  0
  8  9  2  0
  9 10  1  0
 10 11  2  0
 11 12  1  0
 12 13  2  0
  4 14  1  0
 14 15  2  0
 14 16  1  0
 16 17  1  0
 17 18  1  0
 18 19  1  0
 19 20  1  0
 20 21  2  0
 21 22  1  0
 22 23  2  0
 23 24  1  0
 23 25  1  0
 25 26  2  0
 19 27  1  0
 27 28  1  0
 13  8  1  0
 28 16  1  0
 26 20  1  0
  1 29  1  0
  1 30  1  0
  1 31  1  0
  2 32  1  0
  3 33  1  0
  3 34  1  0
  3 35  1  0
  4 36  1  1
  5 37  1  0
  9 38  1  0
 10 39  1  0
 11 40  1  0
 12 41  1  0
 13 42  1  0
 17 43  1  0
 17 44  1  0
 18 45  1  0
 18 46  1  0
 19 47  1  0
 21 48  1  0
 22 49  1  0
 25 50  1  0
 26 51  1  0
 27 52  1  0
 27 53  1  0
 28 54  1  0
 28 55  1  0
M  END
$$$$
