
     RDKit          3D

 54 57  0  0  0  0  0  0  0  0999 V2000
   -2.8981   -1.5016   -1.3046 C   0  0  0  0  0  0  0  0  0  0  0  0
   -2.4492   -0.6209   -0.1690 C   0  0  2  0  0  0  0  0  0  0  0  0
   -3.0463   -1.2651    1.0983 C   0  0  0  0  0  0  0  0  0  0  0  0
   -4.5225   -1.5022    0.9700 C   0  0  0  0  0  0  0  0  0  0  0  0
   -5.1883   -0.4751    0.1321 C   0  0  0  0  0  0  0  0  0  0  0  0
   -6.3342   -0.6586   -0.2930 O   0  0  0  0  0  0  0  0  0  0  0  0
   -4.4469    0.7391   -0.1634 C   0  0  0  0  0  0  0  0  0  0  0  0
   -3.1392    0.6762   -0.3078 C   0  0  0  0  0  0  0  0  0  0  0  0
   -2.4382    1.9569   -0.5988 C   0  0  0  0  0  0  0  0  0  0  0  0
   -1.2410    1.9621    0.3632 C   0  0  0  0  0  0  0  0  0  0  0  0
   -0.3700    0.8415   -0.1135 C   0  0  2  0  0  0  0  0  0  0  0  0
   -0.9899   -0.5366    0.0398 C   0  0  2  0  0  0  0  0  0  0  0  0
   -0.1448   -1.4587   -0.8215 C   0  0  1  0  0  0  0  0  0  0  0  0
   -0.2623   -1.1904   -2.1604 O   0  0  0  0  0  0  0  0  0  0  0  0
    1.2965   -1.4295   -0.3933 C   0  0  0  0  0  0  0  0  0  0  0  0
    1.8711   -0.0741   -0.2884 C   0  0  2  0  0  0  0  0  0  0  0  0
    2.1863    0.5061   -1.5949 C   0  0  0  0  0  0  0  0  0  0  0  0
    2.0258   -0.1477   -2.6011 O   0  0  0  0  0  0  0  0  0  0  0  0
    3.0910   -0.0217    0.6350 C   0  0  1  0  0  0  0  0  0  0  0  0
    4.3341   -0.3223   -0.0993 C   0  0  0  0  0  0  0  0  0  0  0  0
    4.2825   -0.5659   -1.2809 O   0  0  0  0  0  0  0  0  0  0  0  0
    5.6418   -0.3308    0.5849 C   0  0  0  0  0  0  0  0  0  0  0  0
    6.6783   -0.6378   -0.2942 O   0  0  0  0  0  0  0  0  0  0  0  0
    3.1340    1.4652    1.0170 C   0  0  0  0  0  0  0  0  0  0  0  0
    1.7375    2.0173    0.6909 C   0  0  0  0  0  0  0  0  0  0  0  0
    0.9460    0.7746    0.5674 C   0  0  1  0  0  0  0  0  0  0  0  0
   -3.8426   -2.0797   -1.0698 H   0  0  0  0  0  0  0  0  0  0  0  0
   -3.1493   -0.9370   -2.2280 H   0  0  0  0  0  0  0  0  0  0  0  0
   -2.1956   -2.2915   -1.6037 H   0  0  0  0  0  0  0  0  0  0  0  0
   -2.7711   -0.6866    1.9928 H   0  0  0  0  0  0  0  0  0  0  0  0
   -2.5553   -2.2593    1.1862 H   0  0  0  0  0  0  0  0  0  0  0  0
   -4.8003   -2.5206    0.6685 H   0  0  0  0  0  0  0  0  0  0  0  0
   -4.9407   -1.3894    2.0151 H   0  0  0  0  0  0  0  0  0  0  0  0
   -4.9819    1.7088   -0.2672 H   0  0  0  0  0  0  0  0  0  0  0  0
   -2.0363    1.9231   -1.6160 H   0  0  0  0  0  0  0  0  0  0  0  0
   -3.0438    2.8337   -0.3948 H   0  0  0  0  0  0  0  0  0  0  0  0
   -1.5758    1.8468    1.4089 H   0  0  0  0  0  0  0  0  0  0  0  0
   -0.6607    2.8890    0.2920 H   0  0  0  0  0  0  0  0  0  0  0  0
   -0.1598    1.0602   -1.2002 H   0  0  0  0  0  0  0  0  0  0  0  0
   -0.7080   -0.8523    1.0941 H   0  0  0  0  0  0  0  0  0  0  0  0
   -0.4708   -2.5223   -0.5779 H   0  0  0  0  0  0  0  0  0  0  0  0
   -0.8133   -0.4367   -2.4145 H   0  0  0  0  0  0  0  0  0  0  0  0
    1.3477   -1.9702    0.5940 H   0  0  0  0  0  0  0  0  0  0  0  0
    1.8534   -2.0977   -1.0953 H   0  0  0  0  0  0  0  0  0  0  0  0
    2.5677    1.5132   -1.7505 H   0  0  0  0  0  0  0  0  0  0  0  0
    2.8925   -0.6530    1.4980 H   0  0  0  0  0  0  0  0  0  0  0  0
    5.6332   -1.0496    1.4559 H   0  0  0  0  0  0  0  0  0  0  0  0
    5.8962    0.6606    1.0362 H   0  0  0  0  0  0  0  0  0  0  0  0
    7.4241   -0.0126   -0.2497 H   0  0  0  0  0  0  0  0  0  0  0  0
    3.9184    2.0035    0.4760 H   0  0  0  0  0  0  0  0  0  0  0  0
    3.2828    1.5500    2.1180 H   0  0  0  0  0  0  0  0  0  0  0  0
    1.8408    2.6154   -0.2153 H   0  0  0  0  0  0  0  0  0  0  0  0
    1.3915    2.6656    1.5518 H   0  0  0  0  0  0  0  0  0  0  0  0
    0.9026    0.2886    1.5705 H   0  0  0  0  0  0  0  0  0  0  0  0
  2  1  1  6
  2  3  1  0
  3  4  1  0
  4  5  1  0
  5  6  2  0
  5  7  1  0
  7  8  2  0
  8  9  1  0
  9 10  1  0
 10 11  1  0
 11 12  1  0
 12 13  1  0
 13 14  1  0
 13 15  1  0
 15 16  1  0
 16 17  1  6
 17 18  2  0
 16 19  1  0
 19 20  1  0
 20 21  2  0
 20 22  1  0
 22 23  1  0
 19 24  1  0
 24 25  1  0
 25 26  1  0
  8  2  1  0
 26 11  1  0
 12  2  1  0
 26 16  1  0
  1 27  1  0
  1 28  1  0
  1 29  1  0
  3 30  1  0
  3 31  1  0
  4 32  1  0
  4 33  1  0
  7 34  1  0
  9 35  1  0
  9 36  1  0
 10 37  1  0
 10 38  1  0
 11 39  1  6
 12 40  1  1
 13 41  1  6
 14 42  1  0
 15 43  1  0
 15 44  1  0
 17 45  1  0
 19 46  1  1
 22 47  1  0
 22 48  1  0
 23 49  1  0
 24 50  1  0
 24 51  1  0
 25 52  1  0
 25 53  1  0
 26 54  1  1
M  END
$$$$
