
     RDKit          3D

 38 41  0  0  0  0  0  0  0  0999 V2000
   -0.3752   -0.4251   -1.2281 O   0  0  0  0  0  0  0  0  0  0  0  0
    0.1211    0.3187   -0.3496 C   0  0  0  0  0  0  0  0  0  0  0  0
   -0.7320    1.2843    0.3812 C   0  0  0  0  0  0  0  0  0  0  0  0
   -2.0880    1.2795   -0.0965 N   0  0  0  0  0  0  0  0  0  0  0  0
   -2.4111    2.1845   -1.0816 C   0  0  0  0  0  0  0  0  0  0  0  0
   -1.5193    2.9626   -1.5068 O   0  0  0  0  0  0  0  0  0  0  0  0
   -3.6911    2.2241   -1.5817 C   0  0  0  0  0  0  0  0  0  0  0  0
   -4.6675    1.3855   -1.1295 C   0  0  0  0  0  0  0  0  0  0  0  0
   -4.3387    0.4800   -0.1428 C   0  0  0  0  0  0  0  0  0  0  0  0
   -5.2890   -0.4066    0.3549 C   0  0  0  0  0  0  0  0  0  0  0  0
   -4.9879   -1.3181    1.3267 C   0  0  0  0  0  0  0  0  0  0  0  0
   -5.9634   -2.1488    1.7624 F   0  0  0  0  0  0  0  0  0  0  0  0
   -3.7074   -1.3336    1.8024 C   0  0  0  0  0  0  0  0  0  0  0  0
   -3.4075   -2.2480    2.7762 F   0  0  0  0  0  0  0  0  0  0  0  0
   -2.7254   -0.4715    1.3399 C   0  0  0  0  0  0  0  0  0  0  0  0
   -3.0280    0.4465    0.3623 C   0  0  0  0  0  0  0  0  0  0  0  0
    1.5207    0.1900   -0.0955 N   0  0  0  0  0  0  0  0  0  0  0  0
    2.3130   -0.7494   -0.8136 C   0  0  0  0  0  0  0  0  0  0  0  0
    1.6418   -1.8670   -1.9876 S   0  0  0  0  0  0  0  0  0  0  0  0
    3.2363   -2.6559   -2.4220 C   0  0  0  0  0  0  0  0  0  0  0  0
    4.1074   -1.9709   -1.6149 C   0  0  0  0  0  0  0  0  0  0  0  0
    5.9923   -2.5232   -1.7734 Br  0  0  0  0  0  0  0  0  0  0  0  0
    3.6739   -1.0106   -0.7988 C   0  0  0  0  0  0  0  0  0  0  0  0
    4.5281   -0.1953    0.1134 C   0  0  0  0  0  0  0  0  0  0  0  0
    4.1298    0.7740    0.9335 N   0  0  0  0  0  0  0  0  0  0  0  0
    5.1288    1.2706    1.5731 N   0  0  0  0  0  0  0  0  0  0  0  0
    6.2432    0.6522    1.2072 C   0  0  0  0  0  0  0  0  0  0  0  0
    5.8500   -0.2812    0.2762 N   0  0  0  0  0  0  0  0  0  0  0  0
   -0.2740    2.3162    0.2814 H   0  0  0  0  0  0  0  0  0  0  0  0
   -0.6846    1.0446    1.4492 H   0  0  0  0  0  0  0  0  0  0  0  0
   -3.9460    2.9482   -2.3688 H   0  0  0  0  0  0  0  0  0  0  0  0
   -5.6799    1.4045   -1.5130 H   0  0  0  0  0  0  0  0  0  0  0  0
   -6.2978   -0.3477   -0.0649 H   0  0  0  0  0  0  0  0  0  0  0  0
   -1.7333   -0.5273    1.7385 H   0  0  0  0  0  0  0  0  0  0  0  0
    1.9155    0.7869    0.6078 H   0  0  0  0  0  0  0  0  0  0  0  0
    3.3433   -3.4474   -3.1411 H   0  0  0  0  0  0  0  0  0  0  0  0
    7.2269    0.8635    1.5807 H   0  0  0  0  0  0  0  0  0  0  0  0
    6.5750   -0.8892   -0.1516 H   0  0  0  0  0  0  0  0  0  0  0  0
  1  2  2  0
  2  3  1  0
  3  4  1  0
  4  5  1  0
  5  6  2  0
  5  7  1  0
  7  8  2  0
  8  9  1  0
  9 10  2  0
 10 11  1  0
 11 12  1  0
 11 13  2  0
 13 14  1  0
 13 15  1  0
 15 16  2  0
  2 17  1  0
 17 18  1  0
 18 19  1  0
 19 20  1  0
 20 21  2  0
 21 22  1  0
 21 23  1  0
 23 24  1  0
 24 25  2  0
 25 26  1  0
 26 27  2  0
 27 28  1  0
 16  4  1  0
 23 18  2  0
 28 24  1  0
 16  9  1  0
  3 29  1  0
  3 30  1  0
  7 31  1  0
  8 32  1  0
 10 33  1  0
 15 34  1  0
 17 35  1  0
 20 36  1  0
 27 37  1  0
 28 38  1  0
M  END
$$$$
