
     RDKit          3D

 41 43  0  0  0  0  0  0  0  0999 V2000
    5.9873   -0.0708    1.9295 C   0  0  0  0  0  0  0  0  0  0  0  0
    5.7633    0.1484    0.5497 O   0  0  0  0  0  0  0  0  0  0  0  0
    4.5323   -0.0506   -0.0515 C   0  0  0  0  0  0  0  0  0  0  0  0
    4.4144    0.1903   -1.4027 C   0  0  0  0  0  0  0  0  0  0  0  0
    3.1929    0.0033   -2.0517 C   0  0  0  0  0  0  0  0  0  0  0  0
    2.1166   -0.4295   -1.2900 C   0  0  0  0  0  0  0  0  0  0  0  0
    2.2347   -0.6704    0.0611 C   0  0  0  0  0  0  0  0  0  0  0  0
    3.4576   -0.4799    0.6940 C   0  0  0  0  0  0  0  0  0  0  0  0
    1.1110   -1.1338    0.9133 C   0  0  0  0  0  0  0  0  0  0  0  0
   -0.0761   -1.5551    0.0619 C   0  0  0  0  0  0  0  0  0  0  0  0
   -0.2655   -0.6846   -1.0520 N   0  0  0  0  0  0  0  0  0  0  0  0
   -0.8555    0.8736   -0.6229 S   0  0  0  0  0  6  0  0  0  0  0  0
    0.0834    1.6188    0.2736 O   0  0  0  0  0  0  0  0  0  0  0  0
   -0.9806    1.6745   -1.8923 O   0  0  0  0  0  0  0  0  0  0  0  0
   -2.4237    0.7601    0.1437 C   0  0  0  0  0  0  0  0  0  0  0  0
   -2.5643    0.6212    1.5077 C   0  0  0  0  0  0  0  0  0  0  0  0
   -3.7968    0.5308    2.1220 C   0  0  0  0  0  0  0  0  0  0  0  0
   -4.9552    0.5776    1.3736 C   0  0  0  0  0  0  0  0  0  0  0  0
   -4.8193    0.7166    0.0080 C   0  0  0  0  0  0  0  0  0  0  0  0
   -6.0392    0.7678   -0.7991 C   0  0  0  0  0  0  0  0  0  0  0  0
   -5.9623    0.8933   -2.0434 O   0  0  0  0  0  0  0  0  0  0  0  0
   -7.2971    0.6827   -0.2442 O   0  0  0  0  0  0  0  0  0  0  0  0
   -3.5895    0.8071   -0.6085 C   0  0  0  0  0  0  0  0  0  0  0  0
    0.8220   -0.6282   -1.9752 C   0  0  0  0  0  0  0  0  0  0  0  0
    5.4812    0.7104    2.5396 H   0  0  0  0  0  0  0  0  0  0  0  0
    7.0858    0.0280    2.0859 H   0  0  0  0  0  0  0  0  0  0  0  0
    5.6136   -1.0863    2.1537 H   0  0  0  0  0  0  0  0  0  0  0  0
    5.2925    0.5280   -1.9470 H   0  0  0  0  0  0  0  0  0  0  0  0
    3.0926    0.1895   -3.1073 H   0  0  0  0  0  0  0  0  0  0  0  0
    3.5753   -0.6619    1.7518 H   0  0  0  0  0  0  0  0  0  0  0  0
    1.4317   -1.9767    1.5725 H   0  0  0  0  0  0  0  0  0  0  0  0
    0.8273   -0.3084    1.5997 H   0  0  0  0  0  0  0  0  0  0  0  0
   -1.0038   -1.5749    0.6526 H   0  0  0  0  0  0  0  0  0  0  0  0
    0.0798   -2.5821   -0.3293 H   0  0  0  0  0  0  0  0  0  0  0  0
   -1.6532    0.5849    2.0912 H   0  0  0  0  0  0  0  0  0  0  0  0
   -3.8935    0.4201    3.2128 H   0  0  0  0  0  0  0  0  0  0  0  0
   -5.9241    0.5059    1.8638 H   0  0  0  0  0  0  0  0  0  0  0  0
   -8.0895    0.4022   -0.8142 H   0  0  0  0  0  0  0  0  0  0  0  0
   -3.4895    0.9174   -1.6938 H   0  0  0  0  0  0  0  0  0  0  0  0
    0.6584    0.2644   -2.6379 H   0  0  0  0  0  0  0  0  0  0  0  0
    0.8252   -1.5237   -2.6342 H   0  0  0  0  0  0  0  0  0  0  0  0
  1  2  1  0
  2  3  1  0
  3  4  2  0
  4  5  1  0
  5  6  2  0
  6  7  1  0
  7  8  2  0
  7  9  1  0
  9 10  1  0
 10 11  1  0
 11 12  1  0
 12 13  2  0
 12 14  2  0
 12 15  1  0
 15 16  2  0
 16 17  1  0
 17 18  2  0
 18 19  1  0
 19 20  1  0
 20 21  2  0
 20 22  1  0
 19 23  2  0
 11 24  1  0
  8  3  1  0
 23 15  1  0
 24  6  1  0
  1 25  1  0
  1 26  1  0
  1 27  1  0
  4 28  1  0
  5 29  1  0
  8 30  1  0
  9 31  1  0
  9 32  1  0
 10 33  1  0
 10 34  1  0
 16 35  1  0
 17 36  1  0
 18 37  1  0
 22 38  1  0
 23 39  1  0
 24 40  1  0
 24 41  1  0
M  END
$$$$
