
     RDKit          3D

 51 55  0  0  0  0  0  0  0  0999 V2000
    8.4946    1.8133    0.5515 C   0  0  0  0  0  0  0  0  0  0  0  0
    7.1099    1.3147    0.3643 C   0  0  0  0  0  0  0  0  0  0  0  0
    6.1669    0.8910    1.0704 N   0  0  0  0  0  0  0  0  0  0  0  0
    5.0057    0.4992    0.6027 C   0  0  0  0  0  0  0  0  0  0  0  0
    3.9116    0.0070    1.3545 C   0  0  0  0  0  0  0  0  0  0  0  0
    2.7776   -0.3646    0.7134 C   0  0  0  0  0  0  0  0  0  0  0  0
    2.5843   -0.3060   -0.6426 C   0  0  0  0  0  0  0  0  0  0  0  0
    1.3926   -0.7290   -1.3041 N   0  0  0  0  0  0  0  0  0  0  0  0
    0.3588   -1.3194   -0.5367 C   0  0  0  0  0  0  0  0  0  0  0  0
   -0.8559   -0.6708   -0.4371 C   0  0  0  0  0  0  0  0  0  0  0  0
   -0.9876    0.6565   -1.1421 C   0  0  0  0  0  0  0  0  0  0  0  0
   -1.8628   -1.2069    0.2832 C   0  0  0  0  0  0  0  0  0  0  0  0
   -3.1582   -0.7090    0.4535 N   0  0  0  0  0  0  0  0  0  0  0  0
   -3.9640    0.3447    0.0259 C   0  0  1  0  0  0  0  0  0  0  0  0
   -3.5894    1.7678    0.1824 C   0  0  0  0  0  0  0  0  0  0  0  0
   -4.9162    2.5132    0.4792 C   0  0  0  0  0  0  0  0  0  0  0  0
   -6.0896    1.7875   -0.0738 C   0  0  0  0  0  0  0  0  0  0  0  0
   -5.9042    0.9809   -1.2189 N   0  0  0  0  0  0  0  0  0  0  0  0
   -4.6845    0.2042   -1.3004 C   0  0  0  0  0  0  0  0  0  0  0  0
   -1.5882   -2.4155    0.8944 N   0  0  0  0  0  0  0  0  0  0  0  0
   -0.4324   -3.0639    0.8192 C   0  0  0  0  0  0  0  0  0  0  0  0
    0.0457   -4.2685    1.3484 C   0  0  0  0  0  0  0  0  0  0  0  0
    1.3387   -4.3581    0.8857 C   0  0  0  0  0  0  0  0  0  0  0  0
    1.6019   -3.2774    0.1347 N   0  0  0  0  0  0  0  0  0  0  0  0
    0.5427   -2.5041    0.0954 N   0  0  0  0  0  0  0  0  0  0  0  0
    3.6490    0.1751   -1.3829 C   0  0  0  0  0  0  0  0  0  0  0  0
    4.8229    0.5622   -0.7439 C   0  0  0  0  0  0  0  0  0  0  0  0
    6.3438    1.1905   -1.3125 S   0  0  0  0  0  0  0  0  0  0  0  0
    8.6722    2.6383   -0.1573 H   0  0  0  0  0  0  0  0  0  0  0  0
    9.2019    0.9749    0.3566 H   0  0  0  0  0  0  0  0  0  0  0  0
    8.5610    2.1621    1.5809 H   0  0  0  0  0  0  0  0  0  0  0  0
    3.9602   -0.0784    2.4261 H   0  0  0  0  0  0  0  0  0  0  0  0
    1.9381   -0.7452    1.3050 H   0  0  0  0  0  0  0  0  0  0  0  0
    1.2696   -0.6203   -2.3133 H   0  0  0  0  0  0  0  0  0  0  0  0
   -1.8764    0.5651   -1.7658 H   0  0  0  0  0  0  0  0  0  0  0  0
   -0.1441    0.7468   -1.8770 H   0  0  0  0  0  0  0  0  0  0  0  0
   -0.8982    1.5012   -0.4683 H   0  0  0  0  0  0  0  0  0  0  0  0
   -3.7030   -1.4046    1.1754 H   0  0  0  0  0  0  0  0  0  0  0  0
   -4.9036    0.2679    0.7592 H   0  0  0  0  0  0  0  0  0  0  0  0
   -3.2978    2.2138   -0.8087 H   0  0  0  0  0  0  0  0  0  0  0  0
   -2.9126    2.0129    1.0010 H   0  0  0  0  0  0  0  0  0  0  0  0
   -5.0471    2.5358    1.5978 H   0  0  0  0  0  0  0  0  0  0  0  0
   -4.8977    3.5490    0.1346 H   0  0  0  0  0  0  0  0  0  0  0  0
   -6.8411    2.5890   -0.3799 H   0  0  0  0  0  0  0  0  0  0  0  0
   -6.6595    1.2533    0.7518 H   0  0  0  0  0  0  0  0  0  0  0  0
   -6.7190    0.3338   -1.3115 H   0  0  0  0  0  0  0  0  0  0  0  0
   -4.8832   -0.8675   -1.5567 H   0  0  0  0  0  0  0  0  0  0  0  0
   -4.0780    0.6881   -2.0905 H   0  0  0  0  0  0  0  0  0  0  0  0
   -0.5266   -4.9423    1.9791 H   0  0  0  0  0  0  0  0  0  0  0  0
    2.0260   -5.1662    1.0964 H   0  0  0  0  0  0  0  0  0  0  0  0
    3.6452    0.2781   -2.4574 H   0  0  0  0  0  0  0  0  0  0  0  0
  1  2  1  0
  2  3  2  0
  3  4  1  0
  4  5  2  0
  5  6  1  0
  6  7  2  0
  7  8  1  0
  8  9  1  0
  9 10  2  0
 10 11  1  0
 10 12  1  0
 12 13  1  0
 13 14  1  0
 14 15  1  0
 15 16  1  0
 16 17  1  0
 17 18  1  0
 18 19  1  0
 12 20  2  0
 20 21  1  0
 21 22  2  0
 22 23  1  0
 23 24  2  0
 24 25  1  0
  7 26  1  0
 26 27  2  0
 27 28  1  0
 28  2  1  0
 27  4  1  0
 25  9  1  0
 19 14  1  0
 25 21  1  0
  1 29  1  0
  1 30  1  0
  1 31  1  0
  5 32  1  0
  6 33  1  0
  8 34  1  0
 11 35  1  0
 11 36  1  0
 11 37  1  0
 13 38  1  0
 14 39  1  1
 15 40  1  0
 15 41  1  0
 16 42  1  0
 16 43  1  0
 17 44  1  0
 17 45  1  0
 18 46  1  0
 19 47  1  0
 19 48  1  0
 22 49  1  0
 23 50  1  0
 26 51  1  0
M  END
$$$$
