
     RDKit          3D

 34 35  0  0  0  0  0  0  0  0999 V2000
   -1.9382   -0.9299    1.7394 C   0  0  0  0  0  0  0  0  0  0  0  0
   -1.4952   -0.5052    0.4311 N   0  0  0  0  0  0  0  0  0  0  0  0
   -2.3795   -0.1820   -0.5338 C   0  0  0  0  0  0  0  0  0  0  0  0
   -3.8754   -0.2047   -0.4278 C   0  0  0  0  0  0  0  0  0  0  0  0
   -4.3909    1.1249    0.0470 C   0  0  0  0  0  0  0  0  0  0  0  0
   -5.7796    1.1812    0.1719 O   0  0  0  0  0  0  0  0  0  0  0  0
   -3.6032    2.0739    0.2975 O   0  0  0  0  0  0  0  0  0  0  0  0
   -1.7581    0.1973   -1.7035 C   0  0  0  0  0  0  0  0  0  0  0  0
   -0.4163    0.0866   -1.3975 C   0  0  0  0  0  0  0  0  0  0  0  0
    0.6770    0.3705   -2.3577 C   0  0  0  0  0  0  0  0  0  0  0  0
   -0.2715   -0.3453   -0.0820 C   0  0  0  0  0  0  0  0  0  0  0  0
    0.8869   -0.6367    0.7011 C   0  0  0  0  0  0  0  0  0  0  0  0
    0.7258   -1.3200    1.7723 O   0  0  0  0  0  0  0  0  0  0  0  0
    2.3039   -0.3412    0.5964 C   0  0  0  0  0  0  0  0  0  0  0  0
    3.2517   -1.2053    1.0575 C   0  0  0  0  0  0  0  0  0  0  0  0
    4.6237   -0.9282    0.9863 C   0  0  0  0  0  0  0  0  0  0  0  0
    5.0757    0.2416    0.4417 C   0  0  0  0  0  0  0  0  0  0  0  0
    6.8122    0.4608    0.4146 Cl  0  0  0  0  0  0  0  0  0  0  0  0
    4.1575    1.1397   -0.0338 C   0  0  0  0  0  0  0  0  0  0  0  0
    2.8205    0.8172    0.0613 C   0  0  0  0  0  0  0  0  0  0  0  0
   -2.9759   -0.5642    1.9597 H   0  0  0  0  0  0  0  0  0  0  0  0
   -1.3243   -0.5580    2.5714 H   0  0  0  0  0  0  0  0  0  0  0  0
   -1.9878   -2.0341    1.8316 H   0  0  0  0  0  0  0  0  0  0  0  0
   -4.3350   -0.3883   -1.3966 H   0  0  0  0  0  0  0  0  0  0  0  0
   -4.1723   -1.0216    0.2576 H   0  0  0  0  0  0  0  0  0  0  0  0
   -6.1629    1.9723    0.7046 H   0  0  0  0  0  0  0  0  0  0  0  0
   -2.1902    0.5093   -2.6437 H   0  0  0  0  0  0  0  0  0  0  0  0
    0.2703    0.1360   -3.3857 H   0  0  0  0  0  0  0  0  0  0  0  0
    0.9936    1.4173   -2.3969 H   0  0  0  0  0  0  0  0  0  0  0  0
    1.4929   -0.3672   -2.2120 H   0  0  0  0  0  0  0  0  0  0  0  0
    2.9544   -2.1573    1.5039 H   0  0  0  0  0  0  0  0  0  0  0  0
    5.3025   -1.6808    1.3809 H   0  0  0  0  0  0  0  0  0  0  0  0
    4.5298    2.0489   -0.4565 H   0  0  0  0  0  0  0  0  0  0  0  0
    2.1776    1.5925   -0.3225 H   0  0  0  0  0  0  0  0  0  0  0  0
  1  2  1  0
  2  3  1  0
  3  4  1  0
  4  5  1  0
  5  6  1  0
  5  7  2  0
  3  8  2  0
  8  9  1  0
  9 10  1  0
  9 11  2  0
 11 12  1  0
 12 13  2  0
 12 14  1  0
 14 15  2  0
 15 16  1  0
 16 17  2  0
 17 18  1  0
 17 19  1  0
 19 20  2  0
 11  2  1  0
 20 14  1  0
  1 21  1  0
  1 22  1  0
  1 23  1  0
  4 24  1  0
  4 25  1  0
  6 26  1  0
  8 27  1  0
 10 28  1  0
 10 29  1  0
 10 30  1  0
 15 31  1  0
 16 32  1  0
 19 33  1  0
 20 34  1  0
M  END
$$$$
