
     RDKit          3D

 48 51  0  0  0  0  0  0  0  0999 V2000
   -1.6496   -1.2440    3.1826 C   0  0  0  0  0  0  0  0  0  0  0  0
   -2.7986   -1.2658    2.3531 O   0  0  0  0  0  0  0  0  0  0  0  0
   -2.7182   -0.6808    1.1076 C   0  0  0  0  0  0  0  0  0  0  0  0
   -1.5387   -0.0763    0.6576 C   0  0  0  0  0  0  0  0  0  0  0  0
   -1.4710    0.5059   -0.5912 C   0  0  0  0  0  0  0  0  0  0  0  0
   -0.2327    1.1433   -1.0712 C   0  0  0  0  0  0  0  0  0  0  0  0
   -0.2882    2.2163   -1.9351 C   0  0  0  0  0  0  0  0  0  0  0  0
    0.8095    2.8324   -2.4022 N   0  0  0  0  0  0  0  0  0  0  0  0
    2.0383    2.4147   -2.0349 C   0  0  0  0  0  0  0  0  0  0  0  0
    3.2871    2.8170   -2.3285 N   0  0  0  0  0  0  0  0  0  0  0  0
    4.1719    2.0407   -1.6829 C   0  0  0  0  0  0  0  0  0  0  0  0
    3.4681    1.0885   -0.9338 C   0  0  0  0  0  0  0  0  0  0  0  0
    4.0075    0.0493   -0.0761 C   0  0  0  0  0  0  0  0  0  0  0  0
    3.5579   -0.2018    1.2003 C   0  0  0  0  0  0  0  0  0  0  0  0
    4.1179   -1.2226    1.9730 C   0  0  0  0  0  0  0  0  0  0  0  0
    5.1381   -2.0066    1.4755 C   0  0  0  0  0  0  0  0  0  0  0  0
    5.7086   -3.0507    2.2700 N   0  0  0  0  0  0  0  0  0  0  0  0
    5.5650   -1.7456    0.2243 N   0  0  0  0  0  0  0  0  0  0  0  0
    5.0369   -0.7634   -0.5394 C   0  0  0  0  0  0  0  0  0  0  0  0
    2.1313    1.3259   -1.1571 C   0  0  0  0  0  0  0  0  0  0  0  0
    1.0072    0.6884   -0.6737 C   0  0  0  0  0  0  0  0  0  0  0  0
   -2.6091    0.4655   -1.3696 C   0  0  0  0  0  0  0  0  0  0  0  0
   -3.7846   -0.1299   -0.9371 C   0  0  0  0  0  0  0  0  0  0  0  0
   -4.9232   -0.1592   -1.7410 O   0  0  0  0  0  0  0  0  0  0  0  0
   -4.8649    0.4352   -3.0242 C   0  0  0  0  0  0  0  0  0  0  0  0
   -3.8453   -0.7092    0.3106 C   0  0  0  0  0  0  0  0  0  0  0  0
   -4.9968   -1.3112    0.7763 O   0  0  0  0  0  0  0  0  0  0  0  0
   -6.0067   -0.6411    1.4991 C   0  0  0  0  0  0  0  0  0  0  0  0
   -0.7704   -1.7093    2.7108 H   0  0  0  0  0  0  0  0  0  0  0  0
   -1.8401   -1.7885    4.1460 H   0  0  0  0  0  0  0  0  0  0  0  0
   -1.4722   -0.1663    3.4388 H   0  0  0  0  0  0  0  0  0  0  0  0
   -0.6576   -0.0508    1.2728 H   0  0  0  0  0  0  0  0  0  0  0  0
   -1.2983    2.5423   -2.2226 H   0  0  0  0  0  0  0  0  0  0  0  0
    3.5432    3.6026   -2.9542 H   0  0  0  0  0  0  0  0  0  0  0  0
    5.2482    2.0782   -1.6875 H   0  0  0  0  0  0  0  0  0  0  0  0
    2.7637    0.4177    1.5817 H   0  0  0  0  0  0  0  0  0  0  0  0
    3.7594   -1.4060    2.9604 H   0  0  0  0  0  0  0  0  0  0  0  0
    6.7129   -3.2957    2.1214 H   0  0  0  0  0  0  0  0  0  0  0  0
    5.1798   -3.5752    2.9829 H   0  0  0  0  0  0  0  0  0  0  0  0
    5.4224   -0.5986   -1.5437 H   0  0  0  0  0  0  0  0  0  0  0  0
    1.0777   -0.1618    0.0077 H   0  0  0  0  0  0  0  0  0  0  0  0
   -2.5592    0.9240   -2.3554 H   0  0  0  0  0  0  0  0  0  0  0  0
   -4.8343    1.5406   -2.9256 H   0  0  0  0  0  0  0  0  0  0  0  0
   -3.9620    0.0252   -3.5345 H   0  0  0  0  0  0  0  0  0  0  0  0
   -5.8042    0.1955   -3.5813 H   0  0  0  0  0  0  0  0  0  0  0  0
   -6.1470    0.4051    1.1314 H   0  0  0  0  0  0  0  0  0  0  0  0
   -5.6975   -0.6247    2.5673 H   0  0  0  0  0  0  0  0  0  0  0  0
   -6.9827   -1.1693    1.3519 H   0  0  0  0  0  0  0  0  0  0  0  0
  1  2  1  0
  2  3  1  0
  3  4  2  0
  4  5  1  0
  5  6  1  0
  6  7  2  0
  7  8  1  0
  8  9  2  0
  9 10  1  0
 10 11  1  0
 11 12  2  0
 12 13  1  0
 13 14  2  0
 14 15  1  0
 15 16  2  0
 16 17  1  0
 16 18  1  0
 18 19  2  0
 12 20  1  0
 20 21  2  0
  5 22  2  0
 22 23  1  0
 23 24  1  0
 24 25  1  0
 23 26  2  0
 26 27  1  0
 27 28  1  0
 26  3  1  0
 21  6  1  0
 20  9  1  0
 19 13  1  0
  1 29  1  0
  1 30  1  0
  1 31  1  0
  4 32  1  0
  7 33  1  0
 10 34  1  0
 11 35  1  0
 14 36  1  0
 15 37  1  0
 17 38  1  0
 17 39  1  0
 19 40  1  0
 21 41  1  0
 22 42  1  0
 25 43  1  0
 25 44  1  0
 25 45  1  0
 28 46  1  0
 28 47  1  0
 28 48  1  0
M  END
$$$$
