
     RDKit          3D

 31 33  0  0  0  0  0  0  0  0999 V2000
    6.8753    0.0313   -0.2737 O   0  0  0  0  0  0  0  0  0  0  0  0
    5.5062   -0.2339   -0.2146 C   0  0  0  0  0  0  0  0  0  0  0  0
    4.9884   -1.3117   -0.9196 C   0  0  0  0  0  0  0  0  0  0  0  0
    3.6396   -1.5331   -0.8321 C   0  0  0  0  0  0  0  0  0  0  0  0
    2.7765   -0.7353   -0.0769 C   0  0  0  0  0  0  0  0  0  0  0  0
    1.4312   -1.1128   -0.0835 N   0  0  0  0  0  0  0  0  0  0  0  0
    0.3576   -0.2399    0.1267 C   0  0  0  0  0  0  0  0  0  0  0  0
   -0.9025   -0.3454    0.2355 N   0  0  0  0  0  0  0  0  0  0  0  0
   -1.7485    0.5942    0.4076 C   0  0  0  0  0  0  0  0  0  0  0  0
   -3.2141    0.3507    0.5211 C   0  0  0  0  0  0  0  0  0  0  0  0
   -3.7557   -0.9097    0.4476 C   0  0  0  0  0  0  0  0  0  0  0  0
   -5.1067   -1.1515    0.5493 C   0  0  0  0  0  0  0  0  0  0  0  0
   -5.9564   -0.1005    0.7316 C   0  0  0  0  0  0  0  0  0  0  0  0
   -7.6747   -0.4297    0.8583 Cl  0  0  0  0  0  0  0  0  0  0  0  0
   -5.4427    1.1760    0.8094 C   0  0  0  0  0  0  0  0  0  0  0  0
   -4.0786    1.3963    0.7043 C   0  0  0  0  0  0  0  0  0  0  0  0
   -1.2560    1.8798    0.4870 C   0  0  0  0  0  0  0  0  0  0  0  0
    0.5458    1.5985    0.2891 S   0  0  0  0  0  0  0  0  0  0  0  0
    3.3378    0.3112    0.5973 C   0  0  0  0  0  0  0  0  0  0  0  0
    4.7050    0.5855    0.5453 C   0  0  0  0  0  0  0  0  0  0  0  0
    7.2399    0.9382   -0.0087 H   0  0  0  0  0  0  0  0  0  0  0  0
    5.6524   -1.9445   -1.5147 H   0  0  0  0  0  0  0  0  0  0  0  0
    3.2540   -2.3790   -1.3891 H   0  0  0  0  0  0  0  0  0  0  0  0
    1.1582   -2.1255   -0.2553 H   0  0  0  0  0  0  0  0  0  0  0  0
   -3.1020   -1.7558    0.3039 H   0  0  0  0  0  0  0  0  0  0  0  0
   -5.5219   -2.1636    0.4882 H   0  0  0  0  0  0  0  0  0  0  0  0
   -6.1303    2.0193    0.9558 H   0  0  0  0  0  0  0  0  0  0  0  0
   -3.7158    2.4212    0.7714 H   0  0  0  0  0  0  0  0  0  0  0  0
   -1.7093    2.8119    0.6213 H   0  0  0  0  0  0  0  0  0  0  0  0
    2.7146    0.9444    1.2019 H   0  0  0  0  0  0  0  0  0  0  0  0
    5.1325    1.4136    1.0815 H   0  0  0  0  0  0  0  0  0  0  0  0
  1  2  1  0
  2  3  2  0
  3  4  1  0
  4  5  2  0
  5  6  1  0
  6  7  1  0
  7  8  2  0
  8  9  1  0
  9 10  1  0
 10 11  2  0
 11 12  1  0
 12 13  2  0
 13 14  1  0
 13 15  1  0
 15 16  2  0
  9 17  2  0
 17 18  1  0
  5 19  1  0
 19 20  2  0
 20  2  1  0
 18  7  1  0
 16 10  1  0
  1 21  1  0
  3 22  1  0
  4 23  1  0
  6 24  1  0
 11 25  1  0
 12 26  1  0
 15 27  1  0
 16 28  1  0
 17 29  1  0
 19 30  1  0
 20 31  1  0
M  END
$$$$
