
     RDKit          3D

 45 47  0  0  0  0  0  0  0  0999 V2000
    6.7851   -1.5570   -0.1303 C   0  0  0  0  0  0  0  0  0  0  0  0
    6.7538   -0.2594    0.4280 O   0  0  0  0  0  0  0  0  0  0  0  0
    5.6764    0.5764    0.1665 C   0  0  0  0  0  0  0  0  0  0  0  0
    4.6219    0.1836   -0.6276 C   0  0  0  0  0  0  0  0  0  0  0  0
    3.5461    0.9935   -0.8998 C   0  0  0  0  0  0  0  0  0  0  0  0
    2.4491    0.6122   -1.7136 N   0  0  0  0  0  0  0  0  0  0  0  0
    1.2865   -0.0229   -1.1934 C   0  0  0  0  0  0  0  0  0  0  0  0
    1.2051   -0.2661    0.0324 O   0  0  0  0  0  0  0  0  0  0  0  0
    0.1641   -0.4005   -2.1009 C   0  0  0  0  0  0  0  0  0  0  0  0
   -0.9143   -1.0397   -1.3172 C   0  0  0  0  0  0  0  0  0  0  0  0
   -1.8891   -0.2690   -0.7931 N   0  0  0  0  0  0  0  0  0  0  0  0
   -2.9050   -0.7864   -0.0663 C   0  0  0  0  0  0  0  0  0  0  0  0
   -3.9402    0.0049    0.4935 N   0  0  0  0  0  0  0  0  0  0  0  0
   -4.0126    1.4384    0.3290 C   0  0  0  0  0  0  0  0  0  0  0  0
   -5.5074    1.7665    0.2575 C   0  0  0  0  0  0  0  0  0  0  0  0
   -6.1726    1.4756    1.4202 O   0  0  0  0  0  0  0  0  0  0  0  0
   -5.7995    0.3233    2.0590 C   0  0  0  0  0  0  0  0  0  0  0  0
   -4.9720   -0.6285    1.2617 C   0  0  0  0  0  0  0  0  0  0  0  0
   -2.8813   -2.1547    0.1055 C   0  0  0  0  0  0  0  0  0  0  0  0
   -1.8787   -2.9430   -0.4343 C   0  0  0  0  0  0  0  0  0  0  0  0
   -1.8577   -4.1891   -0.2774 O   0  0  0  0  0  0  0  0  0  0  0  0
   -0.8886   -2.3865   -1.1497 N   0  0  0  0  0  0  0  0  0  0  0  0
    3.5457    2.2548   -0.3396 C   0  0  0  0  0  0  0  0  0  0  0  0
    4.5882    2.7029    0.4720 C   0  0  0  0  0  0  0  0  0  0  0  0
    5.6550    1.8514    0.7204 C   0  0  0  0  0  0  0  0  0  0  0  0
    6.6919    2.2450    1.5044 F   0  0  0  0  0  0  0  0  0  0  0  0
    6.9977   -1.4752   -1.2262 H   0  0  0  0  0  0  0  0  0  0  0  0
    7.6874   -2.0633    0.3090 H   0  0  0  0  0  0  0  0  0  0  0  0
    5.8672   -2.1358    0.0542 H   0  0  0  0  0  0  0  0  0  0  0  0
    4.6553   -0.8094   -1.0493 H   0  0  0  0  0  0  0  0  0  0  0  0
    2.4450    0.7854   -2.7620 H   0  0  0  0  0  0  0  0  0  0  0  0
   -0.2208    0.4934   -2.6391 H   0  0  0  0  0  0  0  0  0  0  0  0
    0.5327   -1.1014   -2.8991 H   0  0  0  0  0  0  0  0  0  0  0  0
   -3.6161    1.9984    1.2000 H   0  0  0  0  0  0  0  0  0  0  0  0
   -3.5909    1.7865   -0.6386 H   0  0  0  0  0  0  0  0  0  0  0  0
   -5.6440    2.8660    0.0640 H   0  0  0  0  0  0  0  0  0  0  0  0
   -5.9549    1.2632   -0.6241 H   0  0  0  0  0  0  0  0  0  0  0  0
   -6.6919   -0.2533    2.4347 H   0  0  0  0  0  0  0  0  0  0  0  0
   -5.2061    0.6252    2.9652 H   0  0  0  0  0  0  0  0  0  0  0  0
   -4.4658   -1.3106    2.0069 H   0  0  0  0  0  0  0  0  0  0  0  0
   -5.6399   -1.2257    0.5782 H   0  0  0  0  0  0  0  0  0  0  0  0
   -3.6670   -2.6298    0.6774 H   0  0  0  0  0  0  0  0  0  0  0  0
   -0.1110   -2.9487   -1.5750 H   0  0  0  0  0  0  0  0  0  0  0  0
    2.7152    2.9221   -0.5309 H   0  0  0  0  0  0  0  0  0  0  0  0
    4.5580    3.6874    0.8918 H   0  0  0  0  0  0  0  0  0  0  0  0
  1  2  1  0
  2  3  1  0
  3  4  2  0
  4  5  1  0
  5  6  1  0
  6  7  1  0
  7  8  2  0
  7  9  1  0
  9 10  1  0
 10 11  2  0
 11 12  1  0
 12 13  1  0
 13 14  1  0
 14 15  1  0
 15 16  1  0
 16 17  1  0
 17 18  1  0
 12 19  2  0
 19 20  1  0
 20 21  2  0
 20 22  1  0
  5 23  2  0
 23 24  1  0
 24 25  2  0
 25 26  1  0
 25  3  1  0
 22 10  1  0
 18 13  1  0
  1 27  1  0
  1 28  1  0
  1 29  1  0
  4 30  1  0
  6 31  1  0
  9 32  1  0
  9 33  1  0
 14 34  1  0
 14 35  1  0
 15 36  1  0
 15 37  1  0
 17 38  1  0
 17 39  1  0
 18 40  1  0
 18 41  1  0
 19 42  1  0
 22 43  1  0
 23 44  1  0
 24 45  1  0
M  END
$$$$
