
     RDKit          3D

 36 38  0  0  0  0  0  0  0  0999 V2000
   -1.7655   -3.1337    0.4281 C   0  0  0  0  0  0  0  0  0  0  0  0
   -1.3047   -1.8567    0.9210 N   0  0  0  0  0  0  0  0  0  0  0  0
   -0.0285   -1.5752    0.3197 C   0  0  0  0  0  0  0  0  0  0  0  0
    0.5224   -0.2420    0.7396 C   0  0  0  0  0  0  0  0  0  0  0  0
    1.9141   -0.0756    0.3372 C   0  0  0  0  0  0  0  0  0  0  0  0
    2.8095    0.6918    1.0608 C   0  0  0  0  0  0  0  0  0  0  0  0
    4.1338    0.9173    0.7780 C   0  0  0  0  0  0  0  0  0  0  0  0
    4.6330    0.3110   -0.3574 C   0  0  0  0  0  0  0  0  0  0  0  0
    3.7971   -0.4831   -1.1486 C   0  0  0  0  0  0  0  0  0  0  0  0
    2.4737   -0.6660   -0.8025 C   0  0  0  0  0  0  0  0  0  0  0  0
   -0.3925    0.7817    0.1705 C   0  0  0  0  0  0  0  0  0  0  0  0
   -1.7462    0.4237    0.1891 C   0  0  0  0  0  0  0  0  0  0  0  0
   -2.2937   -0.8392    0.7104 C   0  0  0  0  0  0  0  0  0  0  0  0
   -2.6270    1.3550   -0.3339 C   0  0  0  0  0  0  0  0  0  0  0  0
   -4.0204    1.0741   -0.3551 N   0  0  0  0  0  0  0  0  0  0  0  0
   -2.2075    2.5628   -0.8437 C   0  0  0  0  0  0  0  0  0  0  0  0
   -0.8470    2.8811   -0.8433 C   0  0  0  0  0  0  0  0  0  0  0  0
    0.0407    1.9764   -0.3318 C   0  0  0  0  0  0  0  0  0  0  0  0
   -1.0174   -3.8961    0.6924 H   0  0  0  0  0  0  0  0  0  0  0  0
   -2.6996   -3.4055    0.9542 H   0  0  0  0  0  0  0  0  0  0  0  0
   -1.9425   -3.1483   -0.6501 H   0  0  0  0  0  0  0  0  0  0  0  0
   -0.0438   -1.6260   -0.7809 H   0  0  0  0  0  0  0  0  0  0  0  0
    0.6771   -2.3576    0.6706 H   0  0  0  0  0  0  0  0  0  0  0  0
    0.4550   -0.1636    1.8514 H   0  0  0  0  0  0  0  0  0  0  0  0
    2.4226    1.1686    1.9511 H   0  0  0  0  0  0  0  0  0  0  0  0
    4.7377    1.5396    1.4218 H   0  0  0  0  0  0  0  0  0  0  0  0
    5.6573    0.4361   -0.6496 H   0  0  0  0  0  0  0  0  0  0  0  0
    4.1990   -0.9606   -2.0468 H   0  0  0  0  0  0  0  0  0  0  0  0
    1.8602   -1.2763   -1.4242 H   0  0  0  0  0  0  0  0  0  0  0  0
   -3.1242   -1.1207    0.0542 H   0  0  0  0  0  0  0  0  0  0  0  0
   -2.7257   -0.6135    1.7145 H   0  0  0  0  0  0  0  0  0  0  0  0
   -4.5279    0.3534    0.1915 H   0  0  0  0  0  0  0  0  0  0  0  0
   -4.6776    1.6116   -0.9656 H   0  0  0  0  0  0  0  0  0  0  0  0
   -2.8839    3.2939   -1.2527 H   0  0  0  0  0  0  0  0  0  0  0  0
   -0.5337    3.8377   -1.2491 H   0  0  0  0  0  0  0  0  0  0  0  0
    1.0760    2.2237   -0.3338 H   0  0  0  0  0  0  0  0  0  0  0  0
  1  2  1  0
  2  3  1  0
  3  4  1  0
  4  5  1  0
  5  6  2  0
  6  7  1  0
  7  8  2  0
  8  9  1  0
  9 10  2  0
  4 11  1  0
 11 12  2  0
 12 13  1  0
 12 14  1  0
 14 15  1  0
 14 16  2  0
 16 17  1  0
 17 18  2  0
 13  2  1  0
 10  5  1  0
 18 11  1  0
  1 19  1  0
  1 20  1  0
  1 21  1  0
  3 22  1  0
  3 23  1  0
  4 24  1  0
  6 25  1  0
  7 26  1  0
  8 27  1  0
  9 28  1  0
 10 29  1  0
 13 30  1  0
 13 31  1  0
 15 32  1  0
 15 33  1  0
 16 34  1  0
 17 35  1  0
 18 36  1  0
M  END
$$$$
