
     RDKit          3D

 48 50  0  0  0  0  0  0  0  0999 V2000
    8.6061    0.8857    1.5087 C   0  0  0  0  0  0  0  0  0  0  0  0
    7.8628   -0.3188    1.4168 O   0  0  0  0  0  0  0  0  0  0  0  0
    6.5665   -0.3788    0.9747 C   0  0  0  0  0  0  0  0  0  0  0  0
    5.9540   -1.6128    0.9321 C   0  0  0  0  0  0  0  0  0  0  0  0
    4.6582   -1.6858    0.4920 C   0  0  0  0  0  0  0  0  0  0  0  0
    3.9801   -0.5614    0.1014 C   0  0  0  0  0  0  0  0  0  0  0  0
    2.5883   -0.6985   -0.3635 C   0  0  0  0  0  0  0  0  0  0  0  0
    2.0780   -1.8415   -0.3828 O   0  0  0  0  0  0  0  0  0  0  0  0
    1.8256    0.4188   -0.7831 N   0  0  0  0  0  0  0  0  0  0  0  0
    0.4698    0.2918   -1.2369 C   0  0  0  0  0  0  0  0  0  0  0  0
    0.2047    0.0763   -2.5723 C   0  0  0  0  0  0  0  0  0  0  0  0
   -1.0965   -0.0462   -3.0117 C   0  0  0  0  0  0  0  0  0  0  0  0
   -1.4135   -0.2600   -4.3218 F   0  0  0  0  0  0  0  0  0  0  0  0
   -2.1279    0.0520   -2.0821 C   0  0  0  0  0  0  0  0  0  0  0  0
   -3.3782   -0.0662   -2.5152 F   0  0  0  0  0  0  0  0  0  0  0  0
   -1.8936    0.2658   -0.7487 C   0  0  0  0  0  0  0  0  0  0  0  0
   -3.0022    0.3639    0.1958 C   0  0  2  0  0  0  0  0  0  0  0  0
   -2.4030    0.8314    1.5445 C   0  0  0  0  0  0  0  0  0  0  0  0
   -3.4738    0.9243    2.4277 F   0  0  0  0  0  0  0  0  0  0  0  0
   -3.7526   -0.9044    0.4035 C   0  0  0  0  0  0  0  0  0  0  0  0
   -5.2067   -0.8750    0.0089 C   0  0  1  0  0  0  0  0  0  0  0  0
   -5.9644   -1.9410    0.7826 C   0  0  0  0  0  0  0  0  0  0  0  0
   -5.4624   -3.1937    0.5185 F   0  0  0  0  0  0  0  0  0  0  0  0
   -5.9117   -1.7481    2.1367 F   0  0  0  0  0  0  0  0  0  0  0  0
   -7.3031   -1.9017    0.4088 F   0  0  0  0  0  0  0  0  0  0  0  0
   -5.7380    0.4016    0.3790 O   0  0  0  0  0  0  0  0  0  0  0  0
   -5.0993    1.5160   -0.1438 C   0  0  0  0  0  0  0  0  0  0  0  0
   -5.8050    2.6894   -0.5932 N   0  0  0  0  0  0  0  0  0  0  0  0
   -3.8261    1.4757   -0.2198 N   0  0  0  0  0  0  0  0  0  0  0  0
   -0.5893    0.3829   -0.3463 C   0  0  0  0  0  0  0  0  0  0  0  0
    4.5856    0.6317    0.1472 N   0  0  0  0  0  0  0  0  0  0  0  0
    5.8523    0.7346    0.5731 C   0  0  0  0  0  0  0  0  0  0  0  0
    8.2058    1.4768    2.3547 H   0  0  0  0  0  0  0  0  0  0  0  0
    9.6896    0.6998    1.5768 H   0  0  0  0  0  0  0  0  0  0  0  0
    8.3958    1.4474    0.5514 H   0  0  0  0  0  0  0  0  0  0  0  0
    6.5077   -2.5151    1.2488 H   0  0  0  0  0  0  0  0  0  0  0  0
    4.2018   -2.6666    0.4687 H   0  0  0  0  0  0  0  0  0  0  0  0
    2.3058    1.3574   -0.7459 H   0  0  0  0  0  0  0  0  0  0  0  0
    0.9910   -0.0032   -3.3113 H   0  0  0  0  0  0  0  0  0  0  0  0
   -1.7744    0.0065    1.9492 H   0  0  0  0  0  0  0  0  0  0  0  0
   -1.8739    1.7833    1.4519 H   0  0  0  0  0  0  0  0  0  0  0  0
   -3.7729   -1.1151    1.5155 H   0  0  0  0  0  0  0  0  0  0  0  0
   -3.2299   -1.7993   -0.0049 H   0  0  0  0  0  0  0  0  0  0  0  0
   -5.3965   -1.0732   -1.0465 H   0  0  0  0  0  0  0  0  0  0  0  0
   -6.7034    2.9639   -0.1764 H   0  0  0  0  0  0  0  0  0  0  0  0
   -5.4012    3.2757   -1.3560 H   0  0  0  0  0  0  0  0  0  0  0  0
   -0.3043    0.5552    0.6887 H   0  0  0  0  0  0  0  0  0  0  0  0
    6.3741    1.6986    0.6216 H   0  0  0  0  0  0  0  0  0  0  0  0
  1  2  1  0
  2  3  1  0
  3  4  2  0
  4  5  1  0
  5  6  2  0
  6  7  1  0
  7  8  2  0
  7  9  1  0
  9 10  1  0
 10 11  2  0
 11 12  1  0
 12 13  1  0
 12 14  2  0
 14 15  1  0
 14 16  1  0
 16 17  1  0
 17 18  1  1
 18 19  1  0
 17 20  1  0
 20 21  1  0
 21 22  1  0
 22 23  1  0
 22 24  1  0
 22 25  1  0
 21 26  1  0
 26 27  1  0
 27 28  1  0
 27 29  2  0
 16 30  2  0
  6 31  1  0
 31 32  2  0
 32  3  1  0
 30 10  1  0
 29 17  1  0
  1 33  1  0
  1 34  1  0
  1 35  1  0
  4 36  1  0
  5 37  1  0
  9 38  1  0
 11 39  1  0
 18 40  1  0
 18 41  1  0
 20 42  1  0
 20 43  1  0
 21 44  1  6
 28 45  1  0
 28 46  1  0
 30 47  1  0
 32 48  1  0
M  END
$$$$
