
     RDKit          3D

 78 80  0  0  0  0  0  0  0  0999 V2000
   -5.3680   -3.8501    1.0628 C   0  0  0  0  0  0  0  0  0  0  0  0
   -4.6666   -3.1762   -0.0802 C   0  0  0  0  0  0  0  0  0  0  0  0
   -5.5136   -3.3574   -1.3268 C   0  0  0  0  0  0  0  0  0  0  0  0
   -3.3094   -3.5881   -0.2851 N   0  0  0  0  0  0  0  0  0  0  0  0
   -3.0870   -4.9494   -0.5800 C   0  0  0  0  0  0  0  0  0  0  0  0
   -2.5287   -2.6105   -0.9371 C   0  0  2  0  0  0  0  0  0  0  0  0
   -1.2005   -3.0892   -1.4652 C   0  0  0  0  0  0  0  0  0  0  0  0
   -0.1453   -2.0664   -1.3558 C   0  0  0  0  0  0  0  0  0  0  0  0
   -0.5769   -0.6096   -1.6183 C   0  0  2  0  0  0  0  0  0  0  0  0
    0.5990    0.1723   -1.3188 N   0  0  0  0  0  0  0  0  0  0  0  0
    1.3985    0.8421   -2.3402 C   0  0  0  0  0  0  0  0  0  0  0  0
    2.1634    1.9154   -1.6492 C   0  0  0  0  0  0  0  0  0  0  0  0
    2.3227    1.3740   -0.2557 C   0  0  2  0  0  0  0  0  0  0  0  0
    3.6530    0.7892   -0.0864 N   0  0  0  0  0  0  0  0  0  0  0  0
    4.5826    1.3036    0.8312 C   0  0  0  0  0  0  0  0  0  0  0  0
    4.1927    2.3140    1.5136 O   0  0  0  0  0  0  0  0  0  0  0  0
    5.9237    0.8124    1.0782 C   0  0  0  0  0  0  0  0  0  0  0  0
    6.4606   -0.2888    0.4249 C   0  0  0  0  0  0  0  0  0  0  0  0
    7.7388   -0.7510    0.6512 C   0  0  0  0  0  0  0  0  0  0  0  0
    8.5763   -0.1038    1.5810 C   0  0  0  0  0  0  0  0  0  0  0  0
    8.0456    0.9778    2.2204 C   0  0  0  0  0  0  0  0  0  0  0  0
    8.8847    1.7295    3.2153 C   0  0  0  0  0  0  0  0  0  0  0  0
   10.1276    1.1861    3.3577 F   0  0  0  0  0  0  0  0  0  0  0  0
    9.0174    3.0033    2.6450 F   0  0  0  0  0  0  0  0  0  0  0  0
    8.2040    1.8529    4.4072 F   0  0  0  0  0  0  0  0  0  0  0  0
    6.7631    1.4371    1.9918 C   0  0  0  0  0  0  0  0  0  0  0  0
    1.2265    0.4380   -0.0863 C   0  0  0  0  0  0  0  0  0  0  0  0
    0.9121   -0.0549    1.0455 O   0  0  0  0  0  0  0  0  0  0  0  0
   -1.8683   -0.2908   -0.9876 C   0  0  2  0  0  0  0  0  0  0  0  0
   -2.3790    0.9966   -0.6293 C   0  0  0  0  0  0  0  0  0  0  0  0
   -1.7440    2.1566    0.4422 S   0  0  0  0  0  6  0  0  0  0  0  0
   -0.5318    2.8972   -0.1283 O   0  0  0  0  0  0  0  0  0  0  0  0
   -1.4148    1.7957    1.8258 O   0  0  0  0  0  0  0  0  0  0  0  0
   -2.9194    3.5619    0.5863 C   0  0  0  0  0  0  0  0  0  0  0  0
   -3.1245    4.1945   -0.7574 C   0  0  0  0  0  0  0  0  0  0  0  0
   -2.3277    4.4889    1.6173 C   0  0  0  0  0  0  0  0  0  0  0  0
   -4.1869    2.9567    1.1492 C   0  0  0  0  0  0  0  0  0  0  0  0
   -2.1682   -1.4297   -0.0065 C   0  0  0  0  0  0  0  0  0  0  0  0
   -6.4750   -3.8099    0.8429 H   0  0  0  0  0  0  0  0  0  0  0  0
   -5.1210   -4.9154    1.1669 H   0  0  0  0  0  0  0  0  0  0  0  0
   -5.2113   -3.2678    1.9833 H   0  0  0  0  0  0  0  0  0  0  0  0
   -4.6803   -2.0787    0.1265 H   0  0  0  0  0  0  0  0  0  0  0  0
   -5.3368   -4.2816   -1.8636 H   0  0  0  0  0  0  0  0  0  0  0  0
   -6.5763   -3.2941   -0.9746 H   0  0  0  0  0  0  0  0  0  0  0  0
   -5.3963   -2.5160   -2.0341 H   0  0  0  0  0  0  0  0  0  0  0  0
   -4.0698   -5.4380   -0.7884 H   0  0  0  0  0  0  0  0  0  0  0  0
   -2.6810   -5.4639    0.3202 H   0  0  0  0  0  0  0  0  0  0  0  0
   -2.4686   -5.1395   -1.4852 H   0  0  0  0  0  0  0  0  0  0  0  0
   -3.0791   -2.2168   -1.8458 H   0  0  0  0  0  0  0  0  0  0  0  0
   -1.3059   -3.5271   -2.5000 H   0  0  0  0  0  0  0  0  0  0  0  0
   -0.8824   -3.9543   -0.7916 H   0  0  0  0  0  0  0  0  0  0  0  0
    0.4474   -2.1119   -0.4200 H   0  0  0  0  0  0  0  0  0  0  0  0
    0.6181   -2.2809   -2.1588 H   0  0  0  0  0  0  0  0  0  0  0  0
   -0.6871   -0.6079   -2.7692 H   0  0  0  0  0  0  0  0  0  0  0  0
    0.7652    1.1503   -3.1688 H   0  0  0  0  0  0  0  0  0  0  0  0
    2.0980    0.0425   -2.7582 H   0  0  0  0  0  0  0  0  0  0  0  0
    3.1504    2.0253   -2.1683 H   0  0  0  0  0  0  0  0  0  0  0  0
    1.6408    2.8597   -1.6767 H   0  0  0  0  0  0  0  0  0  0  0  0
    2.2415    2.1929    0.4501 H   0  0  0  0  0  0  0  0  0  0  0  0
    3.9377   -0.0338   -0.6555 H   0  0  0  0  0  0  0  0  0  0  0  0
    5.8695   -0.8255   -0.2988 H   0  0  0  0  0  0  0  0  0  0  0  0
    8.1689   -1.6074    0.1536 H   0  0  0  0  0  0  0  0  0  0  0  0
    9.5690   -0.4833    1.7394 H   0  0  0  0  0  0  0  0  0  0  0  0
    6.4056    2.2829    2.5281 H   0  0  0  0  0  0  0  0  0  0  0  0
   -2.6437   -0.6271   -1.8399 H   0  0  0  0  0  0  0  0  0  0  0  0
   -3.5019    0.9008   -0.3475 H   0  0  0  0  0  0  0  0  0  0  0  0
   -2.5500    1.5567   -1.6393 H   0  0  0  0  0  0  0  0  0  0  0  0
   -3.4323    5.2497   -0.6208 H   0  0  0  0  0  0  0  0  0  0  0  0
   -3.9569    3.6726   -1.2494 H   0  0  0  0  0  0  0  0  0  0  0  0
   -2.2281    4.0879   -1.3841 H   0  0  0  0  0  0  0  0  0  0  0  0
   -1.2356    4.4116    1.7327 H   0  0  0  0  0  0  0  0  0  0  0  0
   -2.6323    5.5274    1.3458 H   0  0  0  0  0  0  0  0  0  0  0  0
   -2.7826    4.2796    2.6196 H   0  0  0  0  0  0  0  0  0  0  0  0
   -3.8770    2.0918    1.7909 H   0  0  0  0  0  0  0  0  0  0  0  0
   -4.7909    2.5053    0.3292 H   0  0  0  0  0  0  0  0  0  0  0  0
   -4.7512    3.6198    1.8037 H   0  0  0  0  0  0  0  0  0  0  0  0
   -2.9813   -1.1878    0.6820 H   0  0  0  0  0  0  0  0  0  0  0  0
   -1.3094   -1.7680    0.5589 H   0  0  0  0  0  0  0  0  0  0  0  0
  1  2  1  0
  2  3  1  0
  2  4  1  0
  4  5  1  0
  4  6  1  0
  6  7  1  0
  7  8  1  0
  8  9  1  0
  9 10  1  0
 10 11  1  0
 11 12  1  0
 12 13  1  0
 13 14  1  0
 14 15  1  0
 15 16  2  0
 15 17  1  0
 17 18  2  0
 18 19  1  0
 19 20  2  0
 20 21  1  0
 21 22  1  0
 22 23  1  0
 22 24  1  0
 22 25  1  0
 21 26  2  0
 13 27  1  0
 27 28  2  0
  9 29  1  0
 29 30  1  0
 30 31  1  0
 31 32  2  0
 31 33  2  0
 31 34  1  0
 34 35  1  0
 34 36  1  0
 34 37  1  0
 29 38  1  0
 38  6  1  0
 27 10  1  0
 26 17  1  0
  1 39  1  0
  1 40  1  0
  1 41  1  0
  2 42  1  0
  3 43  1  0
  3 44  1  0
  3 45  1  0
  5 46  1  0
  5 47  1  0
  5 48  1  0
  6 49  1  6
  7 50  1  0
  7 51  1  0
  8 52  1  0
  8 53  1  0
  9 54  1  6
 11 55  1  0
 11 56  1  0
 12 57  1  0
 12 58  1  0
 13 59  1  1
 14 60  1  0
 18 61  1  0
 19 62  1  0
 20 63  1  0
 26 64  1  0
 29 65  1  6
 30 66  1  0
 30 67  1  0
 35 68  1  0
 35 69  1  0
 35 70  1  0
 36 71  1  0
 36 72  1  0
 36 73  1  0
 37 74  1  0
 37 75  1  0
 37 76  1  0
 38 77  1  0
 38 78  1  0
M  END
$$$$
