
     RDKit          3D

 89 92  0  0  0  0  0  0  0  0999 V2000
    2.4521    3.0105    0.3785 C   0  0  0  0  0  0  0  0  0  0  0  0
    1.8643    1.5856    0.5254 C   0  0  2  0  0  0  0  0  0  0  0  0
    2.1658    0.9315   -0.7189 N   0  0  0  0  0  0  0  0  0  0  0  0
    3.2832    0.0147   -0.6915 C   0  0  0  0  0  0  0  0  0  0  0  0
    3.9190   -0.1568    0.3737 O   0  0  0  0  0  0  0  0  0  0  0  0
    3.7018   -0.7350   -1.9019 C   0  0  1  0  0  0  0  0  0  0  0  0
    3.7662    0.0764   -3.1472 C   0  0  0  0  0  0  0  0  0  0  0  0
    4.7417    1.0401   -3.1753 O   0  0  0  0  0  0  0  0  0  0  0  0
    4.9110   -1.4524   -1.6317 N   0  0  0  0  0  0  0  0  0  0  0  0
    6.0894   -0.8517   -1.1050 C   0  0  0  0  0  0  0  0  0  0  0  0
    6.1115    0.3836   -0.8504 O   0  0  0  0  0  0  0  0  0  0  0  0
    7.2529   -1.5578   -0.8460 O   0  0  0  0  0  0  0  0  0  0  0  0
    8.3804   -0.9082   -0.3314 C   0  0  0  0  0  0  0  0  0  0  0  0
    9.4678   -1.9325   -0.1670 C   0  0  0  0  0  0  0  0  0  0  0  0
    9.6348   -2.6391    1.0010 C   0  0  0  0  0  0  0  0  0  0  0  0
   10.6617   -3.5776    1.1174 C   0  0  0  0  0  0  0  0  0  0  0  0
   11.5392   -3.8230    0.0633 C   0  0  0  0  0  0  0  0  0  0  0  0
   11.3636   -3.1143   -1.0952 C   0  0  0  0  0  0  0  0  0  0  0  0
   10.3521   -2.1908   -1.2088 C   0  0  0  0  0  0  0  0  0  0  0  0
    0.4346    1.6504    0.8327 C   0  0  0  0  0  0  0  0  0  0  0  0
    0.0184    2.1251    1.9437 O   0  0  0  0  0  0  0  0  0  0  0  0
   -0.5903    1.2073   -0.0494 N   0  0  0  0  0  0  0  0  0  0  0  0
   -2.0038    1.3110    0.3420 C   0  0  0  0  0  0  0  0  0  0  0  0
   -2.5248    2.4924   -0.4845 C   0  0  0  0  0  0  0  0  0  0  0  0
   -3.9375    2.7859   -0.2370 C   0  0  0  0  0  0  0  0  0  0  0  0
   -4.9603    2.2254   -0.9644 C   0  0  0  0  0  0  0  0  0  0  0  0
   -6.2567    2.5649   -0.6486 C   0  0  0  0  0  0  0  0  0  0  0  0
   -6.5772    3.4471    0.3698 C   0  0  0  0  0  0  0  0  0  0  0  0
   -7.9220    3.7624    0.6571 N   0  0  0  0  0  0  0  0  0  0  0  0
   -8.7131    4.0911   -0.2852 C   0  0  0  0  0  0  0  0  0  0  0  0
   -8.2560    4.1431   -1.6185 N   0  0  0  0  0  0  0  0  0  0  0  0
  -10.0565    4.4056    0.0042 N   0  0  0  0  0  0  0  0  0  0  0  0
   -5.5235    4.0087    1.0992 C   0  0  0  0  0  0  0  0  0  0  0  0
   -4.2454    3.6730    0.7883 C   0  0  0  0  0  0  0  0  0  0  0  0
   -2.8618   -0.2085   -0.0889 P   0  0  0  0  0  5  0  0  0  0  0  0
   -2.8211   -0.4133   -1.5887 O   0  0  0  0  0  0  0  0  0  0  0  0
   -2.1361   -1.5188    0.7369 O   0  0  0  0  0  0  0  0  0  0  0  0
   -1.9845   -2.7671    0.2080 C   0  0  0  0  0  0  0  0  0  0  0  0
   -0.7512   -3.3746    0.2504 C   0  0  0  0  0  0  0  0  0  0  0  0
   -0.5227   -4.6286   -0.2618 C   0  0  0  0  0  0  0  0  0  0  0  0
   -1.5524   -5.3357   -0.8503 C   0  0  0  0  0  0  0  0  0  0  0  0
   -2.7975   -4.7525   -0.9065 C   0  0  0  0  0  0  0  0  0  0  0  0
   -3.0042   -3.4978   -0.3887 C   0  0  0  0  0  0  0  0  0  0  0  0
   -4.4788   -0.0871    0.4491 O   0  0  0  0  0  0  0  0  0  0  0  0
   -4.7609   -0.4214    1.7630 C   0  0  0  0  0  0  0  0  0  0  0  0
   -5.3256   -1.6530    2.0245 C   0  0  0  0  0  0  0  0  0  0  0  0
   -5.6380   -2.0592    3.3069 C   0  0  0  0  0  0  0  0  0  0  0  0
   -5.3830   -1.2188    4.3687 C   0  0  0  0  0  0  0  0  0  0  0  0
   -4.8187    0.0165    4.1315 C   0  0  0  0  0  0  0  0  0  0  0  0
   -4.5148    0.4017    2.8422 C   0  0  0  0  0  0  0  0  0  0  0  0
    3.5276    2.9325    0.2033 H   0  0  0  0  0  0  0  0  0  0  0  0
    2.2104    3.4926    1.3653 H   0  0  0  0  0  0  0  0  0  0  0  0
    1.8941    3.5583   -0.3926 H   0  0  0  0  0  0  0  0  0  0  0  0
    2.4133    1.1698    1.3857 H   0  0  0  0  0  0  0  0  0  0  0  0
    1.6720    1.0505   -1.6036 H   0  0  0  0  0  0  0  0  0  0  0  0
    2.8976   -1.5127   -2.0304 H   0  0  0  0  0  0  0  0  0  0  0  0
    2.7658    0.4889   -3.3913 H   0  0  0  0  0  0  0  0  0  0  0  0
    3.9926   -0.6479   -3.9816 H   0  0  0  0  0  0  0  0  0  0  0  0
    4.4616    1.7907   -3.7633 H   0  0  0  0  0  0  0  0  0  0  0  0
    5.0079   -2.4974   -1.8098 H   0  0  0  0  0  0  0  0  0  0  0  0
    8.7353   -0.1712   -1.0774 H   0  0  0  0  0  0  0  0  0  0  0  0
    8.1853   -0.3942    0.6328 H   0  0  0  0  0  0  0  0  0  0  0  0
    8.9569   -2.4582    1.8385 H   0  0  0  0  0  0  0  0  0  0  0  0
   10.7912   -4.1358    2.0431 H   0  0  0  0  0  0  0  0  0  0  0  0
   12.3319   -4.5678    0.2036 H   0  0  0  0  0  0  0  0  0  0  0  0
   12.0304   -3.2890   -1.9234 H   0  0  0  0  0  0  0  0  0  0  0  0
   10.1754   -1.6025   -2.1232 H   0  0  0  0  0  0  0  0  0  0  0  0
   -0.3575    0.8103   -0.9695 H   0  0  0  0  0  0  0  0  0  0  0  0
   -2.0674    1.6022    1.3938 H   0  0  0  0  0  0  0  0  0  0  0  0
   -2.2950    2.3215   -1.5479 H   0  0  0  0  0  0  0  0  0  0  0  0
   -1.8999    3.3637   -0.1587 H   0  0  0  0  0  0  0  0  0  0  0  0
   -4.7361    1.5428   -1.7547 H   0  0  0  0  0  0  0  0  0  0  0  0
   -7.0558    2.1284   -1.2131 H   0  0  0  0  0  0  0  0  0  0  0  0
   -7.4103    4.6686   -1.9135 H   0  0  0  0  0  0  0  0  0  0  0  0
   -8.7804    3.6333   -2.3693 H   0  0  0  0  0  0  0  0  0  0  0  0
  -10.7756    3.6700   -0.0658 H   0  0  0  0  0  0  0  0  0  0  0  0
  -10.3106    5.3611    0.2837 H   0  0  0  0  0  0  0  0  0  0  0  0
   -5.8026    4.6991    1.8947 H   0  0  0  0  0  0  0  0  0  0  0  0
   -3.4150    4.1090    1.3583 H   0  0  0  0  0  0  0  0  0  0  0  0
    0.1033   -2.8638    0.7032 H   0  0  0  0  0  0  0  0  0  0  0  0
    0.4659   -5.0496   -0.1977 H   0  0  0  0  0  0  0  0  0  0  0  0
   -1.3438   -6.3387   -1.2554 H   0  0  0  0  0  0  0  0  0  0  0  0
   -3.5930   -5.3334   -1.3765 H   0  0  0  0  0  0  0  0  0  0  0  0
   -3.9967   -3.0792   -0.4552 H   0  0  0  0  0  0  0  0  0  0  0  0
   -5.5453   -2.3494    1.2329 H   0  0  0  0  0  0  0  0  0  0  0  0
   -6.0867   -3.0496    3.4615 H   0  0  0  0  0  0  0  0  0  0  0  0
   -5.6423   -1.5725    5.3705 H   0  0  0  0  0  0  0  0  0  0  0  0
   -4.6198    0.6780    4.9869 H   0  0  0  0  0  0  0  0  0  0  0  0
   -4.0775    1.3635    2.6812 H   0  0  0  0  0  0  0  0  0  0  0  0
  1  2  1  0
  2  3  1  0
  3  4  1  0
  4  5  2  0
  4  6  1  0
  6  7  1  0
  7  8  1  0
  6  9  1  0
  9 10  1  0
 10 11  2  0
 10 12  1  0
 12 13  1  0
 13 14  1  0
 14 15  2  0
 15 16  1  0
 16 17  2  0
 17 18  1  0
 18 19  2  0
  2 20  1  0
 20 21  2  0
 20 22  1  0
 22 23  1  0
 23 24  1  0
 24 25  1  0
 25 26  2  0
 26 27  1  0
 27 28  2  0
 28 29  1  0
 29 30  2  3
 30 31  1  0
 30 32  1  0
 28 33  1  0
 33 34  2  0
 23 35  1  0
 35 36  2  0
 35 37  1  0
 37 38  1  0
 38 39  2  0
 39 40  1  0
 40 41  2  0
 41 42  1  0
 42 43  2  0
 35 44  1  0
 44 45  1  0
 45 46  2  0
 46 47  1  0
 47 48  2  0
 48 49  1  0
 49 50  2  0
 19 14  1  0
 34 25  1  0
 43 38  1  0
 50 45  1  0
  1 51  1  0
  1 52  1  0
  1 53  1  0
  2 54  1  1
  3 55  1  0
  6 56  1  6
  7 57  1  0
  7 58  1  0
  8 59  1  0
  9 60  1  0
 13 61  1  0
 13 62  1  0
 15 63  1  0
 16 64  1  0
 17 65  1  0
 18 66  1  0
 19 67  1  0
 22 68  1  0
 23 69  1  0
 24 70  1  0
 24 71  1  0
 26 72  1  0
 27 73  1  0
 31 74  1  0
 31 75  1  0
 32 76  1  0
 32 77  1  0
 33 78  1  0
 34 79  1  0
 39 80  1  0
 40 81  1  0
 41 82  1  0
 42 83  1  0
 43 84  1  0
 46 85  1  0
 47 86  1  0
 48 87  1  0
 49 88  1  0
 50 89  1  0
M  END
$$$$
