
     RDKit          3D

 73 77  0  0  0  0  0  0  0  0999 V2000
    8.9693    3.8597    0.6279 C   0  0  0  0  0  0  0  0  0  0  0  0
    8.3082    3.3553   -0.6184 C   0  0  0  0  0  0  0  0  0  0  0  0
    7.4125    2.3016   -0.3930 O   0  0  0  0  0  0  0  0  0  0  0  0
    7.8298    1.1054    0.1829 C   0  0  0  0  0  0  0  0  0  0  0  0
    9.0559    0.7602    0.5994 N   0  0  0  0  0  0  0  0  0  0  0  0
    8.9562   -0.4513    1.0659 N   0  0  0  0  0  0  0  0  0  0  0  0
   10.0365   -1.2405    1.6276 C   0  0  0  0  0  0  0  0  0  0  0  0
    7.6813   -0.9295    0.9703 C   0  0  0  0  0  0  0  0  0  0  0  0
    6.9256    0.0499    0.4042 C   0  0  0  0  0  0  0  0  0  0  0  0
    5.5641    0.0283    0.0901 N   0  0  0  0  0  0  0  0  0  0  0  0
    4.7099   -1.0353    0.3734 C   0  0  0  0  0  0  0  0  0  0  0  0
    5.1360   -2.1148    1.0381 N   0  0  0  0  0  0  0  0  0  0  0  0
    4.3499   -3.1569    1.3300 C   0  0  0  0  0  0  0  0  0  0  0  0
    3.0324   -3.1454    0.9388 C   0  0  0  0  0  0  0  0  0  0  0  0
    2.2121   -4.1832    1.2167 F   0  0  0  0  0  0  0  0  0  0  0  0
    2.5546   -2.0418    0.2460 C   0  0  0  0  0  0  0  0  0  0  0  0
    1.1642   -1.9499   -0.2205 C   0  0  0  0  0  0  0  0  0  0  0  0
    0.1358   -2.8196   -0.0629 C   0  0  0  0  0  0  0  0  0  0  0  0
   -0.9751   -2.3039   -0.6686 N   0  0  0  0  0  0  0  0  0  0  0  0
   -0.6893   -1.1162   -1.2166 C   0  0  0  0  0  0  0  0  0  0  0  0
   -1.5061   -0.2556   -1.9224 C   0  0  0  0  0  0  0  0  0  0  0  0
   -2.8635   -0.5228   -2.1838 N   0  0  0  0  0  0  0  0  0  0  0  0
   -3.8532   -0.0914   -1.2765 C   0  0  0  0  0  0  0  0  0  0  0  0
   -3.4621    0.5283   -0.2534 O   0  0  0  0  0  0  0  0  0  0  0  0
   -5.3037   -0.3382   -1.4844 C   0  0  1  0  0  0  0  0  0  0  0  0
   -5.4597   -1.8107   -1.7606 C   0  0  0  0  0  0  0  0  0  0  0  0
   -6.0479    0.1601   -0.4149 N   0  0  0  0  0  0  0  0  0  0  0  0
   -5.9093   -0.3585    0.8790 C   0  0  0  0  0  0  0  0  0  0  0  0
   -6.2263    0.8076    1.8348 C   0  0  0  0  0  0  0  0  0  0  0  0
   -7.6194    1.0610    1.7039 N   0  0  0  0  0  0  0  0  0  0  0  0
   -8.4109    0.3033    2.6228 C   0  0  0  0  0  0  0  0  0  0  0  0
   -8.1769    1.0697    0.4094 C   0  0  0  0  0  0  0  0  0  0  0  0
   -7.2586    0.7993   -0.7417 C   0  0  1  0  0  0  0  0  0  0  0  0
   -6.9394    2.1344   -1.3906 C   0  0  0  0  0  0  0  0  0  0  0  0
   -0.9230    0.9225   -2.3814 C   0  0  0  0  0  0  0  0  0  0  0  0
    0.4023    1.1899   -2.1298 C   0  0  0  0  0  0  0  0  0  0  0  0
    1.1933    0.3115   -1.4223 C   0  0  0  0  0  0  0  0  0  0  0  0
    0.6456   -0.8760   -0.9475 C   0  0  0  0  0  0  0  0  0  0  0  0
    3.4063   -1.0590    0.0035 N   0  0  0  0  0  0  0  0  0  0  0  0
    9.0132    4.9663    0.5824 H   0  0  0  0  0  0  0  0  0  0  0  0
   10.0493    3.5341    0.6727 H   0  0  0  0  0  0  0  0  0  0  0  0
    8.4379    3.5934    1.5603 H   0  0  0  0  0  0  0  0  0  0  0  0
    9.1011    3.1224   -1.3615 H   0  0  0  0  0  0  0  0  0  0  0  0
    7.6954    4.1968   -1.0554 H   0  0  0  0  0  0  0  0  0  0  0  0
   11.0022   -0.7557    1.4205 H   0  0  0  0  0  0  0  0  0  0  0  0
    9.8257   -1.3389    2.7135 H   0  0  0  0  0  0  0  0  0  0  0  0
    9.9477   -2.2563    1.1843 H   0  0  0  0  0  0  0  0  0  0  0  0
    7.3907   -1.9321    1.3088 H   0  0  0  0  0  0  0  0  0  0  0  0
    5.1461    0.8619   -0.3900 H   0  0  0  0  0  0  0  0  0  0  0  0
    4.7252   -4.0052    1.8651 H   0  0  0  0  0  0  0  0  0  0  0  0
    0.1658   -3.7643    0.4506 H   0  0  0  0  0  0  0  0  0  0  0  0
   -1.9008   -2.7703   -0.6958 H   0  0  0  0  0  0  0  0  0  0  0  0
   -3.1358   -1.0321   -3.0361 H   0  0  0  0  0  0  0  0  0  0  0  0
   -5.5654    0.2011   -2.4432 H   0  0  0  0  0  0  0  0  0  0  0  0
   -6.4955   -2.1280   -1.9217 H   0  0  0  0  0  0  0  0  0  0  0  0
   -4.9936   -2.4226   -0.9606 H   0  0  0  0  0  0  0  0  0  0  0  0
   -4.9048   -2.0597   -2.7017 H   0  0  0  0  0  0  0  0  0  0  0  0
   -6.6616   -1.1320    1.1625 H   0  0  0  0  0  0  0  0  0  0  0  0
   -4.8809   -0.6794    1.0806 H   0  0  0  0  0  0  0  0  0  0  0  0
   -5.9879    0.5563    2.8734 H   0  0  0  0  0  0  0  0  0  0  0  0
   -5.6419    1.6777    1.4452 H   0  0  0  0  0  0  0  0  0  0  0  0
   -9.3240    0.8842    2.8430 H   0  0  0  0  0  0  0  0  0  0  0  0
   -7.8627    0.1866    3.5930 H   0  0  0  0  0  0  0  0  0  0  0  0
   -8.6764   -0.6684    2.1742 H   0  0  0  0  0  0  0  0  0  0  0  0
   -8.9764    0.2719    0.3633 H   0  0  0  0  0  0  0  0  0  0  0  0
   -8.7492    2.0332    0.2797 H   0  0  0  0  0  0  0  0  0  0  0  0
   -7.7744    0.1894   -1.5404 H   0  0  0  0  0  0  0  0  0  0  0  0
   -6.1010    2.6079   -0.8168 H   0  0  0  0  0  0  0  0  0  0  0  0
   -7.7992    2.8523   -1.2574 H   0  0  0  0  0  0  0  0  0  0  0  0
   -6.6565    2.0299   -2.4511 H   0  0  0  0  0  0  0  0  0  0  0  0
   -1.5699    1.5942   -2.9350 H   0  0  0  0  0  0  0  0  0  0  0  0
    0.8532    2.1000   -2.4855 H   0  0  0  0  0  0  0  0  0  0  0  0
    2.2473    0.5378   -1.2282 H   0  0  0  0  0  0  0  0  0  0  0  0
  1  2  1  0
  2  3  1  0
  3  4  1  0
  4  5  2  0
  5  6  1  0
  6  7  1  0
  6  8  1  0
  8  9  2  0
  9 10  1  0
 10 11  1  0
 11 12  2  0
 12 13  1  0
 13 14  2  0
 14 15  1  0
 14 16  1  0
 16 17  1  0
 17 18  2  0
 18 19  1  0
 19 20  1  0
 20 21  2  0
 21 22  1  0
 22 23  1  0
 23 24  2  0
 23 25  1  0
 25 26  1  0
 25 27  1  0
 27 28  1  0
 28 29  1  0
 29 30  1  0
 30 31  1  0
 30 32  1  0
 32 33  1  0
 33 34  1  0
 21 35  1  0
 35 36  2  0
 36 37  1  0
 37 38  2  0
 16 39  2  0
  9  4  1  0
 39 11  1  0
 38 17  1  0
 38 20  1  0
 33 27  1  0
  1 40  1  0
  1 41  1  0
  1 42  1  0
  2 43  1  0
  2 44  1  0
  7 45  1  0
  7 46  1  0
  7 47  1  0
  8 48  1  0
 10 49  1  0
 13 50  1  0
 18 51  1  0
 19 52  1  0
 22 53  1  0
 25 54  1  6
 26 55  1  0
 26 56  1  0
 26 57  1  0
 28 58  1  0
 28 59  1  0
 29 60  1  0
 29 61  1  0
 31 62  1  0
 31 63  1  0
 31 64  1  0
 32 65  1  0
 32 66  1  0
 33 67  1  6
 34 68  1  0
 34 69  1  0
 34 70  1  0
 35 71  1  0
 36 72  1  0
 37 73  1  0
M  END
$$$$
