
     RDKit          3D

 52 54  0  0  0  0  0  0  0  0999 V2000
    8.1234   -0.4634    3.5617 N   0  0  0  0  0  0  0  0  0  0  0  0
    7.7344   -0.5205    2.2224 C   0  0  0  0  0  0  0  0  0  0  0  0
    6.7750   -1.0090    1.6092 N   0  0  0  0  0  0  0  0  0  0  0  0
    6.6708   -0.9008    0.2966 C   0  0  0  0  0  0  0  0  0  0  0  0
    5.4771   -1.5202   -0.3829 C   0  0  0  0  0  0  0  0  0  0  0  0
    4.3926   -0.5396   -0.4262 C   0  0  0  0  0  0  0  0  0  0  0  0
    4.6390    0.5778    0.0889 O   0  0  0  0  0  0  0  0  0  0  0  0
    3.1126   -0.7453   -0.9913 N   0  0  0  0  0  0  0  0  0  0  0  0
    1.9968    0.1155   -1.0892 C   0  0  0  0  0  0  0  0  0  0  0  0
    0.8641   -0.3506   -1.7142 C   0  0  0  0  0  0  0  0  0  0  0  0
   -0.2534    0.4441   -1.8348 C   0  0  0  0  0  0  0  0  0  0  0  0
   -0.3065    1.7304   -1.3470 C   0  0  0  0  0  0  0  0  0  0  0  0
   -1.5037    2.6235   -1.4575 C   0  0  0  0  0  0  0  0  0  0  0  0
   -2.4163    2.4546   -0.2684 C   0  0  0  0  0  0  0  0  0  0  0  0
   -2.9085    1.1074   -0.1347 N   0  0  0  0  0  0  0  0  0  0  0  0
   -3.8099    0.7063   -1.1552 C   0  0  0  0  0  0  0  0  0  0  0  0
   -4.2398   -0.7181   -0.9200 C   0  0  2  0  0  0  0  0  0  0  0  0
   -5.1263   -1.0926   -1.9570 O   0  0  0  0  0  0  0  0  0  0  0  0
   -4.9105   -0.9724    0.3496 C   0  0  0  0  0  0  0  0  0  0  0  0
   -5.0686   -0.2356    1.4868 C   0  0  0  0  0  0  0  0  0  0  0  0
   -5.7525   -0.6878    2.5944 C   0  0  0  0  0  0  0  0  0  0  0  0
   -6.3240   -1.9418    2.6021 C   0  0  0  0  0  0  0  0  0  0  0  0
   -6.1862   -2.7164    1.4721 C   0  0  0  0  0  0  0  0  0  0  0  0
   -5.4978   -2.2427    0.3768 C   0  0  0  0  0  0  0  0  0  0  0  0
    0.8273    2.2396   -0.7044 C   0  0  0  0  0  0  0  0  0  0  0  0
    1.9156    1.4001   -0.6130 C   0  0  0  0  0  0  0  0  0  0  0  0
    7.6348   -0.2305   -0.4714 C   0  0  0  0  0  0  0  0  0  0  0  0
    8.7831    0.2811    0.8267 S   0  0  0  0  0  0  0  0  0  0  0  0
    8.5589   -1.3066    3.9686 H   0  0  0  0  0  0  0  0  0  0  0  0
    7.9803    0.4022    4.1359 H   0  0  0  0  0  0  0  0  0  0  0  0
    5.1106   -2.4168    0.1184 H   0  0  0  0  0  0  0  0  0  0  0  0
    5.7419   -1.8415   -1.4280 H   0  0  0  0  0  0  0  0  0  0  0  0
    3.0453   -1.7190   -1.3862 H   0  0  0  0  0  0  0  0  0  0  0  0
    0.8484   -1.3478   -2.1152 H   0  0  0  0  0  0  0  0  0  0  0  0
   -1.1214    0.0425   -2.3317 H   0  0  0  0  0  0  0  0  0  0  0  0
   -2.0489    2.4639   -2.4084 H   0  0  0  0  0  0  0  0  0  0  0  0
   -1.1822    3.6857   -1.4689 H   0  0  0  0  0  0  0  0  0  0  0  0
   -3.2876    3.1232   -0.4108 H   0  0  0  0  0  0  0  0  0  0  0  0
   -1.8870    2.7786    0.6394 H   0  0  0  0  0  0  0  0  0  0  0  0
   -2.2010    0.4132    0.1444 H   0  0  0  0  0  0  0  0  0  0  0  0
   -4.7432    1.3292   -1.0661 H   0  0  0  0  0  0  0  0  0  0  0  0
   -3.4118    0.7385   -2.1902 H   0  0  0  0  0  0  0  0  0  0  0  0
   -3.3245   -1.3384   -1.0717 H   0  0  0  0  0  0  0  0  0  0  0  0
   -4.6129   -1.4409   -2.7348 H   0  0  0  0  0  0  0  0  0  0  0  0
   -4.6101    0.7326    1.4329 H   0  0  0  0  0  0  0  0  0  0  0  0
   -5.7967    0.0104    3.4277 H   0  0  0  0  0  0  0  0  0  0  0  0
   -6.8349   -2.1914    3.5225 H   0  0  0  0  0  0  0  0  0  0  0  0
   -6.6509   -3.6872    1.5283 H   0  0  0  0  0  0  0  0  0  0  0  0
   -5.4776   -2.9778   -0.4377 H   0  0  0  0  0  0  0  0  0  0  0  0
    0.8340    3.2442   -0.3056 H   0  0  0  0  0  0  0  0  0  0  0  0
    2.7633    1.8343   -0.1111 H   0  0  0  0  0  0  0  0  0  0  0  0
    7.6654   -0.0824   -1.4719 H   0  0  0  0  0  0  0  0  0  0  0  0
  1  2  1  0
  2  3  2  0
  3  4  1  0
  4  5  1  0
  5  6  1  0
  6  7  2  0
  6  8  1  0
  8  9  1  0
  9 10  2  0
 10 11  1  0
 11 12  2  0
 12 13  1  0
 13 14  1  0
 14 15  1  0
 15 16  1  0
 16 17  1  0
 17 18  1  0
 17 19  1  0
 19 20  2  0
 20 21  1  0
 21 22  2  0
 22 23  1  0
 23 24  2  0
 12 25  1  0
 25 26  2  0
  4 27  2  0
 27 28  1  0
 28  2  1  0
 26  9  1  0
 24 19  1  0
  1 29  1  0
  1 30  1  0
  5 31  1  0
  5 32  1  0
  8 33  1  0
 10 34  1  0
 11 35  1  0
 13 36  1  0
 13 37  1  0
 14 38  1  0
 14 39  1  0
 15 40  1  0
 16 41  1  0
 16 42  1  0
 17 43  1  1
 18 44  1  0
 20 45  1  0
 21 46  1  0
 22 47  1  0
 23 48  1  0
 24 49  1  0
 25 50  1  0
 26 51  1  0
 27 52  1  0
M  END
$$$$
