
     RDKit          3D

 58 62  0  0  0  0  0  0  0  0999 V2000
    3.1222   -2.7895    1.6449 C   0  0  0  0  0  0  0  0  0  0  0  0
    3.5152   -1.6406    0.8051 C   0  0  0  0  0  0  0  0  0  0  0  0
    4.8642   -1.2610    0.8052 C   0  0  0  0  0  0  0  0  0  0  0  0
    5.3374   -0.2336    0.0225 C   0  0  0  0  0  0  0  0  0  0  0  0
    4.4809    0.4744   -0.8081 C   0  0  0  0  0  0  0  0  0  0  0  0
    4.9410    1.5422   -1.6275 N   0  0  0  0  0  0  0  0  0  0  0  0
    4.7783    2.8149   -1.3676 N   0  0  0  0  0  0  0  0  0  0  0  0
    5.3267    3.5757   -2.3310 C   0  0  0  0  0  0  0  0  0  0  0  0
    5.8645    2.6979   -3.2481 C   0  0  0  0  0  0  0  0  0  0  0  0
    5.6011    1.4640   -2.7698 N   0  0  0  0  0  0  0  0  0  0  0  0
    3.1604    0.1029   -0.8072 C   0  0  0  0  0  0  0  0  0  0  0  0
    2.6635   -0.9453   -0.0109 C   0  0  0  0  0  0  0  0  0  0  0  0
    1.2224   -1.2626   -0.0083 C   0  0  0  0  0  0  0  0  0  0  0  0
    0.4751   -0.5176    1.0345 C   0  0  2  0  0  0  0  0  0  0  0  0
    0.8880   -0.7181    2.4482 C   0  0  0  0  0  0  0  0  0  0  0  0
    0.2453    0.1318    3.3618 O   0  0  0  0  0  0  0  0  0  0  0  0
   -0.7744    0.8410    2.7941 C   0  0  0  0  0  0  0  0  0  0  0  0
   -1.7346    0.0054    1.9837 C   0  0  0  0  0  0  0  0  0  0  0  0
   -0.9779   -0.7072    0.9727 N   0  0  0  0  0  0  0  0  0  0  0  0
   -1.6372   -1.5211    0.0144 C   0  0  0  0  0  0  0  0  0  0  0  0
   -1.0590   -2.1535   -0.8757 O   0  0  0  0  0  0  0  0  0  0  0  0
   -3.1186   -1.5707    0.1494 C   0  0  0  0  0  0  0  0  0  0  0  0
   -3.7055   -2.5281    0.9627 C   0  0  0  0  0  0  0  0  0  0  0  0
   -5.0823   -2.5201    1.0528 C   0  0  0  0  0  0  0  0  0  0  0  0
   -5.8251   -1.5829    0.3489 C   0  0  0  0  0  0  0  0  0  0  0  0
   -5.2484   -0.6407   -0.4517 C   0  0  0  0  0  0  0  0  0  0  0  0
   -6.0260    0.3777   -1.2201 C   0  0  0  0  0  0  0  0  0  0  0  0
   -3.8505   -0.6392   -0.5507 C   0  0  0  0  0  0  0  0  0  0  0  0
   -3.1867    0.3220   -1.3764 N   0  0  0  0  0  0  0  0  0  0  0  0
   -3.4231    1.6242   -1.3208 N   0  0  0  0  0  0  0  0  0  0  0  0
   -2.6670    2.2900   -2.2021 C   0  0  0  0  0  0  0  0  0  0  0  0
   -1.9082    1.3348   -2.8501 C   0  0  0  0  0  0  0  0  0  0  0  0
   -2.2731    0.1636   -2.3010 N   0  0  0  0  0  0  0  0  0  0  0  0
    3.1767   -2.5433    2.7357 H   0  0  0  0  0  0  0  0  0  0  0  0
    3.8460   -3.6489    1.5256 H   0  0  0  0  0  0  0  0  0  0  0  0
    2.1356   -3.1997    1.4565 H   0  0  0  0  0  0  0  0  0  0  0  0
    5.5525   -1.8113    1.4565 H   0  0  0  0  0  0  0  0  0  0  0  0
    6.3795    0.0580    0.0243 H   0  0  0  0  0  0  0  0  0  0  0  0
    5.3560    4.6532   -2.4000 H   0  0  0  0  0  0  0  0  0  0  0  0
    6.3843    2.9771   -4.1534 H   0  0  0  0  0  0  0  0  0  0  0  0
    2.4640    0.6324   -1.4428 H   0  0  0  0  0  0  0  0  0  0  0  0
    0.8434   -0.8914   -1.0059 H   0  0  0  0  0  0  0  0  0  0  0  0
    1.0322   -2.3551   -0.0079 H   0  0  0  0  0  0  0  0  0  0  0  0
    0.5901    0.5999    0.8236 H   0  0  0  0  0  0  0  0  0  0  0  0
    1.9796   -0.4287    2.5759 H   0  0  0  0  0  0  0  0  0  0  0  0
    0.7525   -1.7514    2.7886 H   0  0  0  0  0  0  0  0  0  0  0  0
   -0.3357    1.6916    2.2087 H   0  0  0  0  0  0  0  0  0  0  0  0
   -1.3394    1.3596    3.6366 H   0  0  0  0  0  0  0  0  0  0  0  0
   -2.4195    0.6946    1.4433 H   0  0  0  0  0  0  0  0  0  0  0  0
   -2.2809   -0.6773    2.6596 H   0  0  0  0  0  0  0  0  0  0  0  0
   -3.0787   -3.2337    1.4886 H   0  0  0  0  0  0  0  0  0  0  0  0
   -5.5732   -3.2535    1.6798 H   0  0  0  0  0  0  0  0  0  0  0  0
   -6.9133   -1.6083    0.4454 H   0  0  0  0  0  0  0  0  0  0  0  0
   -5.5051    0.6595   -2.1355 H   0  0  0  0  0  0  0  0  0  0  0  0
   -6.2382    1.2564   -0.5437 H   0  0  0  0  0  0  0  0  0  0  0  0
   -7.0319   -0.0509   -1.4662 H   0  0  0  0  0  0  0  0  0  0  0  0
   -2.5984    3.3433   -2.4265 H   0  0  0  0  0  0  0  0  0  0  0  0
   -1.1667    1.4805   -3.6407 H   0  0  0  0  0  0  0  0  0  0  0  0
  1  2  1  0
  2  3  2  0
  3  4  1  0
  4  5  2  0
  5  6  1  0
  6  7  1  0
  7  8  2  0
  8  9  1  0
  9 10  2  0
  5 11  1  0
 11 12  2  0
 12 13  1  0
 13 14  1  0
 14 15  1  0
 15 16  1  0
 16 17  1  0
 17 18  1  0
 18 19  1  0
 19 20  1  0
 20 21  2  0
 20 22  1  0
 22 23  2  0
 23 24  1  0
 24 25  2  0
 25 26  1  0
 26 27  1  0
 26 28  2  0
 28 29  1  0
 29 30  1  0
 30 31  2  0
 31 32  1  0
 32 33  2  0
 12  2  1  0
 19 14  1  0
 28 22  1  0
 33 29  1  0
 10  6  1  0
  1 34  1  0
  1 35  1  0
  1 36  1  0
  3 37  1  0
  4 38  1  0
  8 39  1  0
  9 40  1  0
 11 41  1  0
 13 42  1  0
 13 43  1  0
 14 44  1  6
 15 45  1  0
 15 46  1  0
 17 47  1  0
 17 48  1  0
 18 49  1  0
 18 50  1  0
 23 51  1  0
 24 52  1  0
 25 53  1  0
 27 54  1  0
 27 55  1  0
 27 56  1  0
 31 57  1  0
 32 58  1  0
M  END
$$$$
