
     RDKit          3D

 62 67  0  0  0  0  0  0  0  0999 V2000
    9.6058    3.8326    0.0567 F   0  0  0  0  0  0  0  0  0  0  0  0
    8.7233    2.8047    0.0194 C   0  0  0  0  0  0  0  0  0  0  0  0
    8.9928    1.7553   -0.8604 C   0  0  0  0  0  0  0  0  0  0  0  0
    8.0975    0.7051   -0.9037 C   0  0  0  0  0  0  0  0  0  0  0  0
    6.9723    0.7248   -0.0829 C   0  0  0  0  0  0  0  0  0  0  0  0
    6.7055    1.7587    0.7853 C   0  0  0  0  0  0  0  0  0  0  0  0
    5.5382    1.8295    1.6591 C   0  0  0  0  0  0  0  0  0  0  0  0
    4.7380    0.6417    1.7347 N   0  0  0  0  0  0  0  0  0  0  0  0
    4.8392   -0.3929    2.5375 N   0  0  0  0  0  0  0  0  0  0  0  0
    3.8907   -1.3112    2.3023 C   0  0  0  0  0  0  0  0  0  0  0  0
    3.1160   -0.8334    1.2687 C   0  0  0  0  0  0  0  0  0  0  0  0
    1.9926   -1.3488    0.6085 C   0  0  0  0  0  0  0  0  0  0  0  0
    1.4318   -0.6168   -0.3977 C   0  0  0  0  0  0  0  0  0  0  0  0
    0.2971   -1.0925   -1.0838 N   0  0  0  0  0  0  0  0  0  0  0  0
   -0.2242   -2.3956   -0.9559 C   0  0  0  0  0  0  0  0  0  0  0  0
    0.6104   -3.4309   -0.7891 N   0  0  0  0  0  0  0  0  0  0  0  0
    0.1649   -4.7047   -0.6561 C   0  0  0  0  0  0  0  0  0  0  0  0
   -1.1489   -4.9280   -0.6929 N   0  0  0  0  0  0  0  0  0  0  0  0
   -1.9894   -3.9102   -0.8566 N   0  0  0  0  0  0  0  0  0  0  0  0
   -3.3355   -3.9163   -0.9173 C   0  0  0  0  0  0  0  0  0  0  0  0
   -3.8081   -2.6457   -1.0917 C   0  0  0  0  0  0  0  0  0  0  0  0
   -2.6873   -1.8054   -1.1397 C   0  0  0  0  0  0  0  0  0  0  0  0
   -2.7015   -0.3489   -1.3096 C   0  0  0  0  0  0  0  0  0  0  0  0
   -3.9483    0.2309   -1.0513 O   0  0  0  0  0  0  0  0  0  0  0  0
   -4.3633    0.1484    0.2518 C   0  0  0  0  0  0  0  0  0  0  0  0
   -5.7389    0.7817    0.3287 C   0  0  2  0  0  0  0  0  0  0  0  0
   -5.7876    2.1589   -0.2675 C   0  0  0  0  0  0  0  0  0  0  0  0
   -7.1005    2.7314   -0.0603 N   0  0  0  0  0  0  0  0  0  0  0  0
   -8.0796    1.7222    0.2984 C   0  0  0  0  0  0  0  0  0  0  0  0
   -7.6665    0.8619    1.4505 C   0  0  0  0  0  0  0  0  0  0  0  0
   -6.2675    0.8200    1.6039 O   0  0  0  0  0  0  0  0  0  0  0  0
   -1.5852   -2.6130   -0.9944 C   0  0  0  0  0  0  0  0  0  0  0  0
    1.9894    0.6030   -0.7297 C   0  0  0  0  0  0  0  0  0  0  0  0
    3.0909    1.1177   -0.0879 C   0  0  0  0  0  0  0  0  0  0  0  0
    3.6668    0.3839    0.9342 C   0  0  0  0  0  0  0  0  0  0  0  0
    7.6137    2.8181    0.8254 C   0  0  0  0  0  0  0  0  0  0  0  0
    9.8646    1.7431   -1.4947 H   0  0  0  0  0  0  0  0  0  0  0  0
    8.2433   -0.1605   -1.5692 H   0  0  0  0  0  0  0  0  0  0  0  0
    6.2504   -0.0938   -0.0981 H   0  0  0  0  0  0  0  0  0  0  0  0
    4.9411    2.7130    1.3525 H   0  0  0  0  0  0  0  0  0  0  0  0
    5.8559    2.0551    2.7173 H   0  0  0  0  0  0  0  0  0  0  0  0
    3.7050   -2.2569    2.7848 H   0  0  0  0  0  0  0  0  0  0  0  0
    1.6209   -2.2995    0.9326 H   0  0  0  0  0  0  0  0  0  0  0  0
   -0.1643   -0.4396   -1.7513 H   0  0  0  0  0  0  0  0  0  0  0  0
    0.8263   -5.5465   -0.5218 H   0  0  0  0  0  0  0  0  0  0  0  0
   -3.9713   -4.7885   -0.8424 H   0  0  0  0  0  0  0  0  0  0  0  0
   -4.8306   -2.2982   -1.1900 H   0  0  0  0  0  0  0  0  0  0  0  0
   -2.4326   -0.0928   -2.3410 H   0  0  0  0  0  0  0  0  0  0  0  0
   -2.0012    0.1675   -0.6056 H   0  0  0  0  0  0  0  0  0  0  0  0
   -4.4323   -0.8868    0.6097 H   0  0  0  0  0  0  0  0  0  0  0  0
   -3.6517    0.6944    0.9443 H   0  0  0  0  0  0  0  0  0  0  0  0
   -6.4537    0.1651   -0.3041 H   0  0  0  0  0  0  0  0  0  0  0  0
   -5.0529    2.8118    0.2396 H   0  0  0  0  0  0  0  0  0  0  0  0
   -5.5341    2.1336   -1.3666 H   0  0  0  0  0  0  0  0  0  0  0  0
   -7.4310    3.0907   -1.0065 H   0  0  0  0  0  0  0  0  0  0  0  0
   -9.0149    2.2637    0.5523 H   0  0  0  0  0  0  0  0  0  0  0  0
   -8.3515    1.0979   -0.6043 H   0  0  0  0  0  0  0  0  0  0  0  0
   -7.9438   -0.2034    1.1884 H   0  0  0  0  0  0  0  0  0  0  0  0
   -8.2004    1.0591    2.3948 H   0  0  0  0  0  0  0  0  0  0  0  0
    1.5553    1.2077   -1.5314 H   0  0  0  0  0  0  0  0  0  0  0  0
    3.5349    2.0717   -0.3382 H   0  0  0  0  0  0  0  0  0  0  0  0
    7.4241    3.6557    1.5099 H   0  0  0  0  0  0  0  0  0  0  0  0
  1  2  1  0
  2  3  2  0
  3  4  1  0
  4  5  2  0
  5  6  1  0
  6  7  1  0
  7  8  1  0
  8  9  1  0
  9 10  2  0
 10 11  1  0
 11 12  2  0
 12 13  1  0
 13 14  1  0
 14 15  1  0
 15 16  2  0
 16 17  1  0
 17 18  2  0
 18 19  1  0
 19 20  1  0
 20 21  2  0
 21 22  1  0
 22 23  1  0
 23 24  1  0
 24 25  1  0
 25 26  1  0
 26 27  1  0
 27 28  1  0
 28 29  1  0
 29 30  1  0
 30 31  1  0
 22 32  2  0
 13 33  2  0
 33 34  1  0
 34 35  2  0
  6 36  2  0
 36  2  1  0
 35  8  1  0
 35 11  1  0
 32 15  1  0
 32 19  1  0
 31 26  1  0
  3 37  1  0
  4 38  1  0
  5 39  1  0
  7 40  1  0
  7 41  1  0
 10 42  1  0
 12 43  1  0
 14 44  1  0
 17 45  1  0
 20 46  1  0
 21 47  1  0
 23 48  1  0
 23 49  1  0
 25 50  1  0
 25 51  1  0
 26 52  1  6
 27 53  1  0
 27 54  1  0
 28 55  1  0
 29 56  1  0
 29 57  1  0
 30 58  1  0
 30 59  1  0
 33 60  1  0
 34 61  1  0
 36 62  1  0
M  END
$$$$
