
     RDKit          3D

 60 63  0  0  0  0  0  0  0  0999 V2000
   -7.8166   -2.5582   -1.3589 C   0  0  0  0  0  0  0  0  0  0  0  0
   -7.7720   -1.2592   -0.7807 O   0  0  0  0  0  0  0  0  0  0  0  0
   -6.5259   -0.7792   -0.3383 C   0  0  0  0  0  0  0  0  0  0  0  0
   -5.3822   -1.5445   -0.4615 C   0  0  0  0  0  0  0  0  0  0  0  0
   -4.1759   -1.0437   -0.0173 C   0  0  0  0  0  0  0  0  0  0  0  0
   -4.0735    0.2081    0.5513 C   0  0  0  0  0  0  0  0  0  0  0  0
   -5.2208    0.9775    0.6757 C   0  0  0  0  0  0  0  0  0  0  0  0
   -6.4462    0.4768    0.2279 C   0  0  0  0  0  0  0  0  0  0  0  0
   -7.6140    1.2384    0.3450 O   0  0  0  0  0  0  0  0  0  0  0  0
   -7.5692    2.5201    0.9159 C   0  0  0  0  0  0  0  0  0  0  0  0
   -2.6593    0.4118    0.9055 C   0  0  0  0  0  0  0  0  0  0  0  0
   -2.2895    1.2417    1.8053 O   0  0  0  0  0  0  0  0  0  0  0  0
   -1.8905   -0.4875    0.0486 C   0  0  0  0  0  0  0  0  0  0  0  0
   -0.5562   -0.9017    0.5581 C   0  0  0  0  0  0  0  0  0  0  0  0
    0.3579    0.2624    0.7781 C   0  0  0  0  0  0  0  0  0  0  0  0
    1.7114   -0.2304    1.2994 C   0  0  0  0  0  0  0  0  0  0  0  0
    2.6392   -0.3834    0.1131 C   0  0  0  0  0  0  0  0  0  0  0  0
    2.9642    0.8642   -0.5016 N   0  0  0  0  0  0  0  0  0  0  0  0
    4.0055    1.6141    0.1304 C   0  0  0  0  0  0  0  0  0  0  0  0
    5.3106    0.8920    0.1899 C   0  0  0  0  0  0  0  0  0  0  0  0
    6.2011    1.0237   -0.8505 C   0  0  0  0  0  0  0  0  0  0  0  0
    7.4140    0.3634   -0.8100 C   0  0  0  0  0  0  0  0  0  0  0  0
    7.7456   -0.4251    0.2563 C   0  0  0  0  0  0  0  0  0  0  0  0
    9.0541   -1.1516    0.3242 C   0  0  0  0  0  0  0  0  0  0  0  0
    6.8690   -0.5639    1.2963 C   0  0  0  0  0  0  0  0  0  0  0  0
    5.6615    0.0947    1.2540 C   0  0  0  0  0  0  0  0  0  0  0  0
    1.8169    1.7414   -0.6396 C   0  0  0  0  0  0  0  0  0  0  0  0
    0.5100    1.0050   -0.5286 C   0  0  0  0  0  0  0  0  0  0  0  0
   -2.8155   -1.6876   -0.0490 C   0  0  0  0  0  0  0  0  0  0  0  0
   -7.1956   -2.6062   -2.2942 H   0  0  0  0  0  0  0  0  0  0  0  0
   -7.3794   -3.3292   -0.6662 H   0  0  0  0  0  0  0  0  0  0  0  0
   -8.8795   -2.7939   -1.5729 H   0  0  0  0  0  0  0  0  0  0  0  0
   -5.5007   -2.5177   -0.9108 H   0  0  0  0  0  0  0  0  0  0  0  0
   -5.1454    1.9645    1.1229 H   0  0  0  0  0  0  0  0  0  0  0  0
   -8.5998    2.9589    0.7814 H   0  0  0  0  0  0  0  0  0  0  0  0
   -7.3225    2.4433    2.0028 H   0  0  0  0  0  0  0  0  0  0  0  0
   -6.8161    3.1855    0.4693 H   0  0  0  0  0  0  0  0  0  0  0  0
   -1.7891   -0.0805   -0.9764 H   0  0  0  0  0  0  0  0  0  0  0  0
   -0.0946   -1.5495   -0.2334 H   0  0  0  0  0  0  0  0  0  0  0  0
   -0.6397   -1.5573    1.4500 H   0  0  0  0  0  0  0  0  0  0  0  0
    0.0013    0.9759    1.5239 H   0  0  0  0  0  0  0  0  0  0  0  0
    2.1396    0.4844    2.0378 H   0  0  0  0  0  0  0  0  0  0  0  0
    1.6256   -1.2006    1.7934 H   0  0  0  0  0  0  0  0  0  0  0  0
    3.5207   -0.9379    0.4265 H   0  0  0  0  0  0  0  0  0  0  0  0
    2.0973   -0.9992   -0.6312 H   0  0  0  0  0  0  0  0  0  0  0  0
    3.7211    1.9157    1.1708 H   0  0  0  0  0  0  0  0  0  0  0  0
    4.1748    2.5271   -0.4730 H   0  0  0  0  0  0  0  0  0  0  0  0
    5.9500    1.6507   -1.7099 H   0  0  0  0  0  0  0  0  0  0  0  0
    8.1099    0.4801   -1.6470 H   0  0  0  0  0  0  0  0  0  0  0  0
    9.6909   -0.9470   -0.5457 H   0  0  0  0  0  0  0  0  0  0  0  0
    9.5700   -0.8013    1.2439 H   0  0  0  0  0  0  0  0  0  0  0  0
    8.8020   -2.2332    0.3930 H   0  0  0  0  0  0  0  0  0  0  0  0
    7.1460   -1.2019    2.1514 H   0  0  0  0  0  0  0  0  0  0  0  0
    4.9713   -0.0283    2.0993 H   0  0  0  0  0  0  0  0  0  0  0  0
    1.8576    2.1765   -1.6577 H   0  0  0  0  0  0  0  0  0  0  0  0
    1.8524    2.5798    0.0876 H   0  0  0  0  0  0  0  0  0  0  0  0
    0.3724    0.3421   -1.4069 H   0  0  0  0  0  0  0  0  0  0  0  0
   -0.2952    1.7659   -0.5833 H   0  0  0  0  0  0  0  0  0  0  0  0
   -2.6594   -2.2872   -0.9436 H   0  0  0  0  0  0  0  0  0  0  0  0
   -2.7395   -2.2989    0.8716 H   0  0  0  0  0  0  0  0  0  0  0  0
  1  2  1  0
  2  3  1  0
  3  4  2  0
  4  5  1  0
  5  6  2  0
  6  7  1  0
  7  8  2  0
  8  9  1  0
  9 10  1  0
  6 11  1  0
 11 12  2  0
 11 13  1  0
 13 14  1  0
 14 15  1  0
 15 16  1  0
 16 17  1  0
 17 18  1  0
 18 19  1  0
 19 20  1  0
 20 21  2  0
 21 22  1  0
 22 23  2  0
 23 24  1  0
 23 25  1  0
 25 26  2  0
 18 27  1  0
 27 28  1  0
 13 29  1  0
  8  3  1  0
 28 15  1  0
 29  5  1  0
 26 20  1  0
  1 30  1  0
  1 31  1  0
  1 32  1  0
  4 33  1  0
  7 34  1  0
 10 35  1  0
 10 36  1  0
 10 37  1  0
 13 38  1  0
 14 39  1  0
 14 40  1  0
 15 41  1  0
 16 42  1  0
 16 43  1  0
 17 44  1  0
 17 45  1  0
 19 46  1  0
 19 47  1  0
 21 48  1  0
 22 49  1  0
 24 50  1  0
 24 51  1  0
 24 52  1  0
 25 53  1  0
 26 54  1  0
 27 55  1  0
 27 56  1  0
 28 57  1  0
 28 58  1  0
 29 59  1  0
 29 60  1  0
M  END
$$$$
