
     RDKit          3D

 47 48  0  0  0  0  0  0  0  0999 V2000
   -1.9545   -1.3037    3.5215 Cl  0  0  0  0  0  0  0  0  0  0  0  0
   -2.1572   -1.3715    1.7861 C   0  0  0  0  0  0  0  0  0  0  0  0
   -3.0346   -2.3582    1.3297 C   0  0  0  0  0  0  0  0  0  0  0  0
   -3.2886   -2.5233   -0.0344 C   0  0  0  0  0  0  0  0  0  0  0  0
   -2.6347   -1.6709   -0.9052 C   0  0  0  0  0  0  0  0  0  0  0  0
   -1.7735   -0.7002   -0.4576 C   0  0  0  0  0  0  0  0  0  0  0  0
   -1.5311   -0.5467    0.8866 C   0  0  0  0  0  0  0  0  0  0  0  0
   -0.6056    0.4799    1.4303 C   0  0  0  0  0  0  0  0  0  0  0  0
    0.5000    0.8035    0.6014 N   0  0  0  0  0  0  0  0  0  0  0  0
    1.5922   -0.0630    0.3606 C   0  0  0  0  0  0  0  0  0  0  0  0
    1.3719   -1.2797   -0.4759 C   0  0  0  0  0  0  0  0  0  0  0  0
    2.7207   -2.0029   -0.6050 C   0  0  0  0  0  0  0  0  0  0  0  0
    2.0851   -3.2193   -0.2196 N   0  0  0  0  0  0  0  0  0  0  0  0
    0.9166   -2.5299    0.2195 C   0  0  0  0  0  0  0  0  0  0  0  0
    0.5186    2.0741   -0.0468 C   0  0  0  0  0  0  0  0  0  0  0  0
    1.5066    2.4420   -0.9525 C   0  0  0  0  0  0  0  0  0  0  0  0
    1.5200    3.6743   -1.5456 C   0  0  0  0  0  0  0  0  0  0  0  0
    0.5442    4.6147   -1.2684 C   0  0  0  0  0  0  0  0  0  0  0  0
   -0.4399    4.3012   -0.3904 C   0  0  0  0  0  0  0  0  0  0  0  0
   -0.4350    3.0436    0.2013 C   0  0  0  0  0  0  0  0  0  0  0  0
    0.8979    1.4569   -0.3668 O   0  0  0  0  0  0  0  0  0  0  0  0
    0.4771    0.2976   -0.0741 C   0  0  0  0  0  0  0  0  0  0  0  0
    1.4174   -0.6781    0.1257 O   0  0  0  0  0  0  0  0  0  0  0  0
   -0.9602   -0.0205    0.0538 C   0  0  0  0  0  0  0  0  0  0  0  0
   -1.2692   -1.0088   -0.8790 F   0  0  0  0  0  0  0  0  0  0  0  0
   -1.7676    1.0597   -0.1631 F   0  0  0  0  0  0  0  0  0  0  0  0
   -1.2062   -0.5342    1.3114 F   0  0  0  0  0  0  0  0  0  0  0  0
   -3.5414   -3.0181    1.9956 H   0  0  0  0  0  0  0  0  0  0  0  0
   -3.9711   -3.2918   -0.4029 H   0  0  0  0  0  0  0  0  0  0  0  0
   -2.8327   -1.8139   -1.9759 H   0  0  0  0  0  0  0  0  0  0  0  0
   -1.2845   -0.0636   -1.1672 H   0  0  0  0  0  0  0  0  0  0  0  0
   -0.1735    0.0432    2.4066 H   0  0  0  0  0  0  0  0  0  0  0  0
   -1.2233    1.3052    1.8086 H   0  0  0  0  0  0  0  0  0  0  0  0
    1.8136   -0.5177    1.4146 H   0  0  0  0  0  0  0  0  0  0  0  0
    2.5329    0.4183    0.0738 H   0  0  0  0  0  0  0  0  0  0  0  0
    0.9677   -1.1343   -1.5010 H   0  0  0  0  0  0  0  0  0  0  0  0
    3.5034   -1.6580    0.0973 H   0  0  0  0  0  0  0  0  0  0  0  0
    3.1480   -1.9762   -1.6300 H   0  0  0  0  0  0  0  0  0  0  0  0
    1.9604   -3.8637   -1.0072 H   0  0  0  0  0  0  0  0  0  0  0  0
    0.0236   -2.9612   -0.3009 H   0  0  0  0  0  0  0  0  0  0  0  0
    0.8631   -2.4751    1.3183 H   0  0  0  0  0  0  0  0  0  0  0  0
    2.3010    1.7321   -1.2306 H   0  0  0  0  0  0  0  0  0  0  0  0
    2.3261    3.9211   -2.2650 H   0  0  0  0  0  0  0  0  0  0  0  0
    0.6387    5.5738   -1.7935 H   0  0  0  0  0  0  0  0  0  0  0  0
   -1.2122    5.0281   -0.1620 H   0  0  0  0  0  0  0  0  0  0  0  0
   -1.2610    2.8879    0.8861 H   0  0  0  0  0  0  0  0  0  0  0  0
    2.4108   -0.5726   -0.0079 H   0  0  0  0  0  0  0  0  0  0  0  0
  1  2  1  0
  2  3  2  0
  3  4  1  0
  4  5  2  0
  5  6  1  0
  6  7  2  0
  7  8  1  0
  8  9  1  0
  9 10  1  0
 10 11  1  0
 11 12  1  0
 12 13  1  0
 13 14  1  0
  9 15  1  0
 15 16  2  0
 16 17  1  0
 17 18  2  0
 18 19  1  0
 19 20  2  0
 21 22  2  0
 22 23  1  0
 22 24  1  0
 24 25  1  0
 24 26  1  0
 24 27  1  0
  7  2  1  0
 14 11  1  0
 20 15  1  0
  3 28  1  0
  4 29  1  0
  5 30  1  0
  6 31  1  0
  8 32  1  0
  8 33  1  0
 10 34  1  0
 10 35  1  0
 11 36  1  0
 12 37  1  0
 12 38  1  0
 13 39  1  0
 14 40  1  0
 14 41  1  0
 16 42  1  0
 17 43  1  0
 18 44  1  0
 19 45  1  0
 20 46  1  0
 23 47  1  0
M  END
$$$$
