
     RDKit          3D

 33 35  0  0  0  0  0  0  0  0999 V2000
    0.4564    1.1870    0.4998 C   0  0  0  0  0  0  0  0  0  0  0  0
   -0.6707    0.2103    0.4657 C   0  0  1  0  0  0  0  0  0  0  0  0
   -0.3248   -1.1979    0.8031 C   0  0  0  0  0  0  0  0  0  0  0  0
    0.8732   -2.0029   -0.2227 S   0  0  0  0  0  0  0  0  0  0  0  0
    2.5358   -1.4398   -0.0691 C   0  0  0  0  0  0  0  0  0  0  0  0
    2.9904   -0.6094    0.7425 N   0  0  0  0  0  0  0  0  0  0  0  0
    4.3214   -0.2493    0.7610 C   0  0  0  0  0  0  0  0  0  0  0  0
    5.2003   -1.3490    0.1855 C   0  0  0  0  0  0  0  0  0  0  0  0
    3.9733   -1.9765   -1.0412 S   0  0  0  0  0  0  0  0  0  0  0  0
   -1.9697    0.8438    1.6165 S   0  0  0  0  0  0  0  0  0  0  0  0
   -3.3778    0.7460    0.4747 C   0  0  2  0  0  0  0  0  0  0  0  0
   -4.4052   -0.3138    0.7963 C   0  0  2  0  0  0  0  0  0  0  0  0
   -4.0027   -1.4612    2.2695 Br  0  0  0  0  0  0  0  0  0  0  0  0
   -4.0214   -0.8252   -0.5503 C   0  0  0  0  0  0  0  0  0  0  0  0
   -4.6105   -1.5965   -1.3509 O   0  0  0  0  0  0  0  0  0  0  0  0
   -2.7809   -0.1203   -0.5582 N   0  0  0  0  0  0  0  0  0  0  0  0
   -1.4326    0.3209   -0.8421 C   0  0  1  0  0  0  0  0  0  0  0  0
   -1.4180    1.6563   -1.4396 C   0  0  0  0  0  0  0  0  0  0  0  0
   -2.4473    2.3503   -1.6592 O   0  0  0  0  0  0  0  0  0  0  0  0
   -0.2140    2.2383   -1.8059 O   0  0  0  0  0  0  0  0  0  0  0  0
    1.1554    1.1001   -0.3463 H   0  0  0  0  0  0  0  0  0  0  0  0
    0.9601    1.1060    1.5067 H   0  0  0  0  0  0  0  0  0  0  0  0
   -0.0039    2.2217    0.5173 H   0  0  0  0  0  0  0  0  0  0  0  0
    0.0752   -1.2064    1.8625 H   0  0  0  0  0  0  0  0  0  0  0  0
   -1.2778   -1.8060    0.8389 H   0  0  0  0  0  0  0  0  0  0  0  0
    4.5021    0.6655    0.1480 H   0  0  0  0  0  0  0  0  0  0  0  0
    4.6202   -0.0754    1.8239 H   0  0  0  0  0  0  0  0  0  0  0  0
    5.4411   -2.1287    0.9238 H   0  0  0  0  0  0  0  0  0  0  0  0
    6.0693   -0.9179   -0.3139 H   0  0  0  0  0  0  0  0  0  0  0  0
   -3.7681    1.7011    0.1315 H   0  0  0  0  0  0  0  0  0  0  0  0
   -5.4492    0.0765    0.7442 H   0  0  0  0  0  0  0  0  0  0  0  0
   -0.9807   -0.3838   -1.5383 H   0  0  0  0  0  0  0  0  0  0  0  0
   -0.0190    3.2366   -1.6978 H   0  0  0  0  0  0  0  0  0  0  0  0
  2  1  1  6
  2  3  1  0
  3  4  1  0
  4  5  1  0
  5  6  2  0
  6  7  1  0
  7  8  1  0
  8  9  1  0
  2 10  1  0
 10 11  1  0
 11 12  1  0
 12 13  1  0
 12 14  1  0
 14 15  2  0
 14 16  1  0
 16 17  1  0
 17 18  1  0
 18 19  2  0
 18 20  1  0
 17  2  1  0
  9  5  1  0
 16 11  1  0
  1 21  1  0
  1 22  1  0
  1 23  1  0
  3 24  1  0
  3 25  1  0
  7 26  1  0
  7 27  1  0
  8 28  1  0
  8 29  1  0
 11 30  1  6
 12 31  1  6
 17 32  1  6
 20 33  1  0
M  END
$$$$
