
     RDKit          3D

 38 41  0  0  0  0  0  0  0  0999 V2000
   -1.5274    1.4764   -0.4235 C   0  0  0  0  0  0  0  0  0  0  0  0
   -2.4550    1.4143    0.7540 C   0  0  0  0  0  0  0  0  0  0  0  0
   -2.5265   -0.0080    1.2455 C   0  0  0  0  0  0  0  0  0  0  0  0
   -3.0652   -0.8934    0.1612 C   0  0  0  0  0  0  0  0  0  0  0  0
   -2.1991   -0.8188   -1.0497 C   0  0  0  0  0  0  0  0  0  0  0  0
   -2.1515    0.6291   -1.5103 C   0  0  0  0  0  0  0  0  0  0  0  0
   -0.7670   -1.2202   -0.7892 C   0  0  0  0  0  0  0  0  0  0  0  0
   -0.2217   -0.4409    0.3700 C   0  0  0  0  0  0  0  0  0  0  0  0
   -0.1419    1.0144   -0.0354 C   0  0  0  0  0  0  0  0  0  0  0  0
   -1.1306   -0.4861    1.5831 C   0  0  0  0  0  0  0  0  0  0  0  0
    1.1119   -0.9679    0.7904 C   0  0  0  0  0  0  0  0  0  0  0  0
    1.4039   -1.3331    1.9139 O   0  0  0  0  0  0  0  0  0  0  0  0
    2.0739   -1.0013   -0.3403 C   0  0  0  0  0  0  0  0  0  0  0  0
    3.3337   -0.3891    0.0122 N   0  0  0  0  0  0  0  0  0  0  0  0
    3.5527    0.9338   -0.1573 C   0  0  0  0  0  0  0  0  0  0  0  0
    4.8502    1.2488    0.2358 C   0  0  0  0  0  0  0  0  0  0  0  0
    5.3757    0.0634    0.6407 N   0  0  0  0  0  0  0  0  0  0  0  0
    4.4737   -0.9202    0.5092 C   0  0  0  0  0  0  0  0  0  0  0  0
   -1.4606    2.5141   -0.8247 H   0  0  0  0  0  0  0  0  0  0  0  0
   -2.1729    2.1155    1.5442 H   0  0  0  0  0  0  0  0  0  0  0  0
   -3.4739    1.7283    0.3783 H   0  0  0  0  0  0  0  0  0  0  0  0
   -3.1401   -0.0634    2.1613 H   0  0  0  0  0  0  0  0  0  0  0  0
   -4.0800   -0.5616   -0.1457 H   0  0  0  0  0  0  0  0  0  0  0  0
   -3.1682   -1.9295    0.5482 H   0  0  0  0  0  0  0  0  0  0  0  0
   -2.6181   -1.4689   -1.8335 H   0  0  0  0  0  0  0  0  0  0  0  0
   -1.5186    0.6693   -2.4269 H   0  0  0  0  0  0  0  0  0  0  0  0
   -3.1740    1.0129   -1.6397 H   0  0  0  0  0  0  0  0  0  0  0  0
   -0.2151   -0.8530   -1.7060 H   0  0  0  0  0  0  0  0  0  0  0  0
   -0.5823   -2.2936   -0.7748 H   0  0  0  0  0  0  0  0  0  0  0  0
    0.1443    1.6287    0.8281 H   0  0  0  0  0  0  0  0  0  0  0  0
    0.5425    1.1229   -0.8926 H   0  0  0  0  0  0  0  0  0  0  0  0
   -0.7258    0.2611    2.3043 H   0  0  0  0  0  0  0  0  0  0  0  0
   -1.1280   -1.4452    2.1097 H   0  0  0  0  0  0  0  0  0  0  0  0
    1.7143   -0.5847   -1.2831 H   0  0  0  0  0  0  0  0  0  0  0  0
    2.3447   -2.1044   -0.4888 H   0  0  0  0  0  0  0  0  0  0  0  0
    2.8496    1.6788   -0.5434 H   0  0  0  0  0  0  0  0  0  0  0  0
    5.2632    2.2501    0.1909 H   0  0  0  0  0  0  0  0  0  0  0  0
    4.6091   -1.9783    0.7512 H   0  0  0  0  0  0  0  0  0  0  0  0
  1  2  1  0
  2  3  1  0
  3  4  1  0
  4  5  1  0
  5  6  1  0
  5  7  1  0
  7  8  1  0
  8  9  1  0
  8 10  1  0
  8 11  1  0
 11 12  2  0
 11 13  1  0
 13 14  1  0
 14 15  1  0
 15 16  2  0
 16 17  1  0
 17 18  2  0
  6  1  1  0
 18 14  1  0
  9  1  1  0
 10  3  1  0
  1 19  1  0
  2 20  1  0
  2 21  1  0
  3 22  1  0
  4 23  1  0
  4 24  1  0
  5 25  1  0
  6 26  1  0
  6 27  1  0
  7 28  1  0
  7 29  1  0
  9 30  1  0
  9 31  1  0
 10 32  1  0
 10 33  1  0
 13 34  1  0
 13 35  1  0
 15 36  1  0
 16 37  1  0
 18 38  1  0
M  END
$$$$
