
     RDKit          3D

 48 51  0  0  0  0  0  0  0  0999 V2000
    6.3386   -1.3739   -3.3250 N   0  0  0  0  0  0  0  0  0  0  0  0
    5.6985   -1.2413   -2.3645 C   0  0  0  0  0  0  0  0  0  0  0  0
    4.8992   -1.0582   -1.1920 C   0  0  0  0  0  0  0  0  0  0  0  0
    3.9117   -2.0143   -0.9457 C   0  0  0  0  0  0  0  0  0  0  0  0
    3.1760   -1.8551    0.1606 N   0  0  0  0  0  0  0  0  0  0  0  0
    3.3574   -0.8314    1.0133 C   0  0  0  0  0  0  0  0  0  0  0  0
    2.5143   -0.8091    2.1304 C   0  0  0  0  0  0  0  0  0  0  0  0
    1.5384   -1.8285    2.3010 N   0  0  0  0  0  0  0  0  0  0  0  0
    0.2328   -1.7494    1.7215 C   0  0  0  0  0  0  0  0  0  0  0  0
   -0.6910   -2.7539    1.9008 C   0  0  0  0  0  0  0  0  0  0  0  0
   -1.9489   -2.7137    1.3532 C   0  0  0  0  0  0  0  0  0  0  0  0
   -2.3216   -1.6322    0.5900 C   0  0  0  0  0  0  0  0  0  0  0  0
   -3.5610   -1.5534    0.0257 F   0  0  0  0  0  0  0  0  0  0  0  0
   -1.3993   -0.5980    0.3939 C   0  0  0  0  0  0  0  0  0  0  0  0
   -1.8239    0.5485   -0.4562 C   0  0  2  0  0  0  0  0  0  0  0  0
   -0.6954    1.5254   -0.5647 C   0  0  0  0  0  0  0  0  0  0  0  0
   -0.2936    2.0664    0.6365 F   0  0  0  0  0  0  0  0  0  0  0  0
   -3.0618    1.2062    0.1258 C   0  0  0  0  0  0  0  0  0  0  0  0
   -4.1058    1.5982   -0.8700 C   0  0  1  0  0  0  0  0  0  0  0  0
   -4.6924    2.9718   -0.5612 C   0  0  0  0  0  0  0  0  0  0  0  0
   -3.7436    3.9555   -0.5736 F   0  0  0  0  0  0  0  0  0  0  0  0
   -5.3724    2.8688    0.6149 F   0  0  0  0  0  0  0  0  0  0  0  0
   -5.6180    3.2307   -1.5565 F   0  0  0  0  0  0  0  0  0  0  0  0
   -3.7440    1.4801   -2.2104 O   0  0  0  0  0  0  0  0  0  0  0  0
   -2.9737    0.3839   -2.5972 C   0  0  0  0  0  0  0  0  0  0  0  0
   -3.1747   -0.2287   -3.8576 N   0  0  0  0  0  0  0  0  0  0  0  0
   -2.1052   -0.0035   -1.7511 N   0  0  0  0  0  0  0  0  0  0  0  0
   -0.1492   -0.6483    0.9433 C   0  0  0  0  0  0  0  0  0  0  0  0
    2.6885    0.1983    2.9925 N   0  0  0  0  0  0  0  0  0  0  0  0
    3.6356    1.1688    2.8104 C   0  0  0  0  0  0  0  0  0  0  0  0
    4.4613    1.1365    1.7049 C   0  0  0  0  0  0  0  0  0  0  0  0
    5.4014    2.0844    1.5075 F   0  0  0  0  0  0  0  0  0  0  0  0
    4.3126    0.1139    0.7956 C   0  0  0  0  0  0  0  0  0  0  0  0
    5.1027   -0.0109   -0.3441 C   0  0  0  0  0  0  0  0  0  0  0  0
    3.7802   -2.8334   -1.6463 H   0  0  0  0  0  0  0  0  0  0  0  0
    1.7551   -2.6760    2.8629 H   0  0  0  0  0  0  0  0  0  0  0  0
   -0.4102   -3.6221    2.5070 H   0  0  0  0  0  0  0  0  0  0  0  0
   -2.6836   -3.4982    1.4880 H   0  0  0  0  0  0  0  0  0  0  0  0
    0.2164    1.0645   -1.0097 H   0  0  0  0  0  0  0  0  0  0  0  0
   -0.9450    2.3746   -1.2670 H   0  0  0  0  0  0  0  0  0  0  0  0
   -2.7293    2.1844    0.6017 H   0  0  0  0  0  0  0  0  0  0  0  0
   -3.5332    0.5584    0.8931 H   0  0  0  0  0  0  0  0  0  0  0  0
   -4.9897    0.9018   -0.7267 H   0  0  0  0  0  0  0  0  0  0  0  0
   -3.6774    0.2817   -4.5965 H   0  0  0  0  0  0  0  0  0  0  0  0
   -2.8191   -1.1785   -4.0324 H   0  0  0  0  0  0  0  0  0  0  0  0
    0.6261    0.0931    0.8379 H   0  0  0  0  0  0  0  0  0  0  0  0
    3.7621    1.9768    3.5179 H   0  0  0  0  0  0  0  0  0  0  0  0
    5.8543    0.7395   -0.5077 H   0  0  0  0  0  0  0  0  0  0  0  0
  1  2  3  0
  2  3  1  0
  3  4  2  0
  4  5  1  0
  5  6  2  0
  6  7  1  0
  7  8  1  0
  8  9  1  0
  9 10  2  0
 10 11  1  0
 11 12  2  0
 12 13  1  0
 12 14  1  0
 14 15  1  0
 15 16  1  6
 16 17  1  0
 15 18  1  0
 18 19  1  0
 19 20  1  0
 20 21  1  0
 20 22  1  0
 20 23  1  0
 19 24  1  0
 24 25  1  0
 25 26  1  0
 25 27  2  0
 14 28  2  0
  7 29  2  0
 29 30  1  0
 30 31  2  0
 31 32  1  0
 31 33  1  0
 33 34  2  0
 34  3  1  0
 33  6  1  0
 28  9  1  0
 27 15  1  0
  4 35  1  0
  8 36  1  0
 10 37  1  0
 11 38  1  0
 16 39  1  0
 16 40  1  0
 18 41  1  0
 18 42  1  0
 19 43  1  6
 26 44  1  0
 26 45  1  0
 28 46  1  0
 30 47  1  0
 34 48  1  0
M  END
$$$$
