
     RDKit          3D

 48 46  0  0  0  0  0  0  0  0999 V2000
    0.0000    0.0000    0.0000 Gd  0  0  0  0  0 15  0  0  0  0  0  0
    6.0677   -1.0331   -2.2860 O   0  0  0  0  0  0  0  0  0  0  0  0
    5.1158   -0.6781   -1.3785 C   0  0  0  0  0  0  0  0  0  0  0  0
    5.9941    0.1240   -0.9062 O   0  0  0  0  0  0  0  0  0  0  0  0
    3.7461   -0.8679   -0.8790 C   0  0  0  0  0  0  0  0  0  0  0  0
    3.3984   -0.0287    0.1576 N   0  0  0  0  0  0  0  0  0  0  0  0
    2.0658   -0.1594    0.6837 C   0  0  0  0  0  0  0  0  0  0  0  0
    1.0707    0.2795   -0.3361 C   0  0  0  0  0  0  0  0  0  0  0  0
   -0.2872    0.2278    0.0752 N   0  0  0  0  0  0  0  0  0  0  0  0
   -1.1149    0.6353   -1.0213 C   0  0  0  0  0  0  0  0  0  0  0  0
   -2.5439    0.8606   -0.7565 C   0  0  0  0  0  0  0  0  0  0  0  0
   -3.2865   -0.2624   -0.2287 N   0  0  0  0  0  0  0  0  0  0  0  0
   -3.4588   -1.3509   -1.1607 C   0  0  0  0  0  0  0  0  0  0  0  0
   -4.2029   -2.4861   -0.4964 C   0  0  0  0  0  0  0  0  0  0  0  0
   -4.7371   -2.9244    0.7266 O   0  0  0  0  0  0  0  0  0  0  0  0
   -4.4818   -3.4515   -1.2887 O   0  0  0  0  0  0  0  0  0  0  0  0
   -4.6446    0.1726    0.1035 C   0  0  0  0  0  0  0  0  0  0  0  0
   -4.6405    1.1011    1.2489 C   0  0  0  0  0  0  0  0  0  0  0  0
   -5.3149    1.8919    2.1455 O   0  0  0  0  0  1  0  0  0  0  0  0
   -3.9915    1.7365    2.1119 O   0  0  0  0  0  0  0  0  0  0  0  0
   -0.6381    0.7353    1.3384 C   0  0  0  0  0  0  0  0  0  0  0  0
   -0.5418    2.1934    1.4821 C   0  0  0  0  0  0  0  0  0  0  0  0
   -0.2697    3.3565    0.7938 O   0  0  0  0  0  1  0  0  0  0  0  0
   -0.6223    3.2497    2.1960 O   0  0  0  0  0  0  0  0  0  0  0  0
    4.2902    0.7076    0.9293 C   0  0  0  0  0  0  0  0  0  0  0  0
    5.1132   -0.2626    1.7358 C   0  0  0  0  0  0  0  0  0  0  0  0
    6.0550    0.3426    2.5660 O   0  0  0  0  0  1  0  0  0  0  0  0
    5.0064   -1.5427    1.7106 O   0  0  0  0  0  0  0  0  0  0  0  0
    6.7484   -1.7810   -2.1371 H   0  0  0  0  0  0  0  0  0  0  0  0
    3.0382   -0.9192   -1.7354 H   0  0  0  0  0  0  0  0  0  0  0  0
    3.7233   -1.9367   -0.4621 H   0  0  0  0  0  0  0  0  0  0  0  0
    2.0239    0.4143    1.6183 H   0  0  0  0  0  0  0  0  0  0  0  0
    1.9278   -1.2289    0.9366 H   0  0  0  0  0  0  0  0  0  0  0  0
    1.3105    1.3142   -0.6932 H   0  0  0  0  0  0  0  0  0  0  0  0
    1.1419   -0.3529   -1.2670 H   0  0  0  0  0  0  0  0  0  0  0  0
   -0.6220    1.5693   -1.4386 H   0  0  0  0  0  0  0  0  0  0  0  0
   -1.0002   -0.1277   -1.8194 H   0  0  0  0  0  0  0  0  0  0  0  0
   -3.0189    1.0949   -1.7642 H   0  0  0  0  0  0  0  0  0  0  0  0
   -2.7798    1.7106   -0.0890 H   0  0  0  0  0  0  0  0  0  0  0  0
   -2.4968   -1.7830   -1.4992 H   0  0  0  0  0  0  0  0  0  0  0  0
   -4.0949   -0.9473   -1.9808 H   0  0  0  0  0  0  0  0  0  0  0  0
   -5.7549   -3.0067    0.7615 H   0  0  0  0  0  0  0  0  0  0  0  0
   -5.2600   -0.7241    0.2901 H   0  0  0  0  0  0  0  0  0  0  0  0
   -5.0480    0.7362   -0.7609 H   0  0  0  0  0  0  0  0  0  0  0  0
    0.0511    0.2791    2.0960 H   0  0  0  0  0  0  0  0  0  0  0  0
   -1.6498    0.3424    1.6157 H   0  0  0  0  0  0  0  0  0  0  0  0
    3.6885    1.3107    1.7002 H   0  0  0  0  0  0  0  0  0  0  0  0
    4.9246    1.4688    0.4785 H   0  0  0  0  0  0  0  0  0  0  0  0
  2  3  1  0
  3  4  2  0
  3  5  1  0
  5  6  1  0
  6  7  1  0
  7  8  1  0
  8  9  1  0
  9 10  1  0
 10 11  1  0
 11 12  1  0
 12 13  1  0
 13 14  1  0
 14 15  1  0
 14 16  2  0
 12 17  1  0
 17 18  1  0
 18 19  1  0
 18 20  2  0
  9 21  1  0
 21 22  1  0
 22 23  1  0
 22 24  2  0
  6 25  1  0
 25 26  1  0
 26 27  1  0
 26 28  2  0
  2 29  1  0
  5 30  1  0
  5 31  1  0
  7 32  1  0
  7 33  1  0
  8 34  1  0
  8 35  1  0
 10 36  1  0
 10 37  1  0
 11 38  1  0
 11 39  1  0
 13 40  1  0
 13 41  1  0
 15 42  1  0
 17 43  1  0
 17 44  1  0
 21 45  1  0
 21 46  1  0
 25 47  1  0
 25 48  1  0
M  CHG  4   1   3  19  -1  23  -1  27  -1
M  END
$$$$
