
     RDKit          3D

 59 63  0  0  0  0  0  0  0  0999 V2000
    8.5699   -0.6864   -0.0148 C   0  0  0  0  0  0  0  0  0  0  0  0
    7.2052   -0.4205   -0.2254 O   0  0  0  0  0  0  0  0  0  0  0  0
    6.2652   -0.4336    0.7904 C   0  0  0  0  0  0  0  0  0  0  0  0
    6.6772   -0.6986    1.9466 O   0  0  0  0  0  0  0  0  0  0  0  0
    4.9134   -0.1509    0.4677 N   0  0  0  0  0  0  0  0  0  0  0  0
    3.9739   -0.1795    1.5758 C   0  0  0  0  0  0  0  0  0  0  0  0
    3.0619    0.9980    1.4110 C   0  0  0  0  0  0  0  0  0  0  0  0
    2.3694    0.9529    0.0902 C   0  0  0  0  0  0  0  0  0  0  0  0
    1.3249   -0.0832    0.1111 N   0  0  0  0  0  0  0  0  0  0  0  0
    1.5696   -1.3909    0.1607 N   0  0  0  0  0  0  0  0  0  0  0  0
    0.4091   -2.0735    0.1675 C   0  0  0  0  0  0  0  0  0  0  0  0
   -0.6171   -1.1535    0.1198 C   0  0  0  0  0  0  0  0  0  0  0  0
   -2.0039   -1.2787    0.1037 C   0  0  0  0  0  0  0  0  0  0  0  0
   -2.6355   -2.5438    0.1380 N   0  0  0  0  0  0  0  0  0  0  0  0
   -2.4964   -3.5924   -0.8165 C   0  0  0  0  0  0  0  0  0  0  0  0
   -3.7731   -4.3393   -1.0962 C   0  0  0  0  0  0  0  0  0  0  0  0
   -4.6034   -4.4345    0.0091 O   0  0  0  0  0  0  0  0  0  0  0  0
   -4.8538   -3.2393    0.6346 C   0  0  0  0  0  0  0  0  0  0  0  0
   -3.5299   -2.8022    1.2770 C   0  0  0  0  0  0  0  0  0  0  0  0
   -2.7088   -0.1215    0.0527 N   0  0  0  0  0  0  0  0  0  0  0  0
   -2.1321    1.0967    0.0184 C   0  0  0  0  0  0  0  0  0  0  0  0
   -2.9755    2.2827   -0.0357 C   0  0  0  0  0  0  0  0  0  0  0  0
   -2.3593    3.5118   -0.0701 C   0  0  0  0  0  0  0  0  0  0  0  0
   -3.0902    4.6754   -0.1220 C   0  0  0  0  0  0  0  0  0  0  0  0
   -4.4669    4.5499   -0.1378 C   0  0  0  0  0  0  0  0  0  0  0  0
   -5.2618    5.7397   -0.1915 N   0  0  0  0  0  0  0  0  0  0  0  0
   -5.1056    3.3230   -0.1038 C   0  0  0  0  0  0  0  0  0  0  0  0
   -4.3459    2.1612   -0.0515 C   0  0  0  0  0  0  0  0  0  0  0  0
   -0.7845    1.1944    0.0349 N   0  0  0  0  0  0  0  0  0  0  0  0
   -0.0118    0.0827    0.0853 C   0  0  0  0  0  0  0  0  0  0  0  0
    3.2628    0.8262   -1.0852 C   0  0  0  0  0  0  0  0  0  0  0  0
    4.5478    0.1374   -0.8778 C   0  0  0  0  0  0  0  0  0  0  0  0
    8.7856   -1.0823    0.9869 H   0  0  0  0  0  0  0  0  0  0  0  0
    9.1081    0.2932   -0.1697 H   0  0  0  0  0  0  0  0  0  0  0  0
    8.9008   -1.3646   -0.8241 H   0  0  0  0  0  0  0  0  0  0  0  0
    3.4539   -1.1506    1.5925 H   0  0  0  0  0  0  0  0  0  0  0  0
    4.4840   -0.0673    2.5508 H   0  0  0  0  0  0  0  0  0  0  0  0
    2.2833    1.0588    2.2008 H   0  0  0  0  0  0  0  0  0  0  0  0
    3.6959    1.9125    1.4481 H   0  0  0  0  0  0  0  0  0  0  0  0
    1.8167    1.9318   -0.0123 H   0  0  0  0  0  0  0  0  0  0  0  0
    0.2802   -3.1669    0.2043 H   0  0  0  0  0  0  0  0  0  0  0  0
   -2.1587   -3.1469   -1.7774 H   0  0  0  0  0  0  0  0  0  0  0  0
   -1.7250   -4.3161   -0.4199 H   0  0  0  0  0  0  0  0  0  0  0  0
   -4.3158   -3.9342   -1.9753 H   0  0  0  0  0  0  0  0  0  0  0  0
   -3.4821   -5.3839   -1.3655 H   0  0  0  0  0  0  0  0  0  0  0  0
   -5.1764   -2.4545   -0.1008 H   0  0  0  0  0  0  0  0  0  0  0  0
   -5.6150   -3.4139    1.4143 H   0  0  0  0  0  0  0  0  0  0  0  0
   -3.6541   -1.9288    1.9181 H   0  0  0  0  0  0  0  0  0  0  0  0
   -3.1548   -3.7054    1.8057 H   0  0  0  0  0  0  0  0  0  0  0  0
   -1.2706    3.6200   -0.0581 H   0  0  0  0  0  0  0  0  0  0  0  0
   -2.6238    5.6586   -0.1499 H   0  0  0  0  0  0  0  0  0  0  0  0
   -6.1318    5.6866   -0.7608 H   0  0  0  0  0  0  0  0  0  0  0  0
   -4.9788    6.5882    0.3066 H   0  0  0  0  0  0  0  0  0  0  0  0
   -6.2034    3.2640   -0.1178 H   0  0  0  0  0  0  0  0  0  0  0  0
   -4.8362    1.1870   -0.0243 H   0  0  0  0  0  0  0  0  0  0  0  0
    3.4796    1.8420   -1.5308 H   0  0  0  0  0  0  0  0  0  0  0  0
    2.6750    0.3080   -1.9001 H   0  0  0  0  0  0  0  0  0  0  0  0
    4.5553   -0.8455   -1.4362 H   0  0  0  0  0  0  0  0  0  0  0  0
    5.4134    0.7003   -1.3383 H   0  0  0  0  0  0  0  0  0  0  0  0
  1  2  1  0
  2  3  1  0
  3  4  2  0
  3  5  1  0
  5  6  1  0
  6  7  1  0
  7  8  1  0
  8  9  1  0
  9 10  1  0
 10 11  2  0
 11 12  1  0
 12 13  2  0
 13 14  1  0
 14 15  1  0
 15 16  1  0
 16 17  1  0
 17 18  1  0
 18 19  1  0
 13 20  1  0
 20 21  2  0
 21 22  1  0
 22 23  2  0
 23 24  1  0
 24 25  2  0
 25 26  1  0
 25 27  1  0
 27 28  2  0
 21 29  1  0
 29 30  2  0
  8 31  1  0
 31 32  1  0
 32  5  1  0
 30  9  1  0
 30 12  1  0
 19 14  1  0
 28 22  1  0
  1 33  1  0
  1 34  1  0
  1 35  1  0
  6 36  1  0
  6 37  1  0
  7 38  1  0
  7 39  1  0
  8 40  1  0
 11 41  1  0
 15 42  1  0
 15 43  1  0
 16 44  1  0
 16 45  1  0
 18 46  1  0
 18 47  1  0
 19 48  1  0
 19 49  1  0
 23 50  1  0
 24 51  1  0
 26 52  1  0
 26 53  1  0
 27 54  1  0
 28 55  1  0
 31 56  1  0
 31 57  1  0
 32 58  1  0
 32 59  1  0
M  END
$$$$
