
     RDKit          3D

 37 38  0  0  0  0  0  0  0  0999 V2000
   -3.2171    2.2313    0.0582 C   0  0  0  0  0  0  0  0  0  0  0  0
   -3.6153    0.9723   -0.5097 N   0  0  0  0  0  0  0  0  0  0  0  0
   -4.9898    0.6524   -0.1714 C   0  0  0  0  0  0  0  0  0  0  0  0
   -2.7866   -0.0899   -0.0517 C   0  0  0  0  0  0  0  0  0  0  0  0
   -1.3696   -0.0129   -0.4143 C   0  0  0  0  0  0  0  0  0  0  0  0
   -0.6441    0.8450   -1.1967 C   0  0  0  0  0  0  0  0  0  0  0  0
    0.6346    0.4649   -1.2042 N   0  0  0  0  0  0  0  0  0  0  0  0
    0.7353   -0.6275   -0.4339 C   0  0  0  0  0  0  0  0  0  0  0  0
   -0.4900   -0.9791    0.0913 C   0  0  0  0  0  0  0  0  0  0  0  0
   -0.6196   -2.0905    0.9110 C   0  0  0  0  0  0  0  0  0  0  0  0
    0.5103   -2.8293    1.1831 C   0  0  0  0  0  0  0  0  0  0  0  0
    1.6983   -2.4310    0.6337 C   0  0  0  0  0  0  0  0  0  0  0  0
    1.8908   -1.3177   -0.2005 C   0  0  0  0  0  0  0  0  0  0  0  0
    3.2830   -1.1326   -0.5939 C   0  0  0  0  0  0  0  0  0  0  0  0
    4.0890   -0.1762    0.2055 C   0  0  0  0  0  0  0  0  0  0  0  0
    3.6746    1.2495    0.1994 C   0  0  0  0  0  0  0  0  0  0  0  0
    3.7935    1.7239   -1.1193 O   0  0  0  0  0  0  0  0  0  0  0  0
   -3.8082    2.3693    1.0112 H   0  0  0  0  0  0  0  0  0  0  0  0
   -3.4847    3.0780   -0.6079 H   0  0  0  0  0  0  0  0  0  0  0  0
   -2.1549    2.1823    0.3329 H   0  0  0  0  0  0  0  0  0  0  0  0
   -5.6773    0.8544   -1.0427 H   0  0  0  0  0  0  0  0  0  0  0  0
   -5.0768   -0.4587   -0.0095 H   0  0  0  0  0  0  0  0  0  0  0  0
   -5.3425    1.1540    0.7604 H   0  0  0  0  0  0  0  0  0  0  0  0
   -2.8997   -0.2378    1.0607 H   0  0  0  0  0  0  0  0  0  0  0  0
   -3.1868   -1.0471   -0.4977 H   0  0  0  0  0  0  0  0  0  0  0  0
   -1.0625    1.6894   -1.7197 H   0  0  0  0  0  0  0  0  0  0  0  0
    1.3647    0.9627   -1.7382 H   0  0  0  0  0  0  0  0  0  0  0  0
   -1.5901   -2.3401    1.3070 H   0  0  0  0  0  0  0  0  0  0  0  0
    0.3748   -3.6843    1.8197 H   0  0  0  0  0  0  0  0  0  0  0  0
    2.5129   -3.1052    0.9293 H   0  0  0  0  0  0  0  0  0  0  0  0
    3.3408   -0.8404   -1.6913 H   0  0  0  0  0  0  0  0  0  0  0  0
    3.8415   -2.1045   -0.5843 H   0  0  0  0  0  0  0  0  0  0  0  0
    4.2160   -0.5703    1.2493 H   0  0  0  0  0  0  0  0  0  0  0  0
    5.1365   -0.2143   -0.2264 H   0  0  0  0  0  0  0  0  0  0  0  0
    4.3707    1.8109    0.8288 H   0  0  0  0  0  0  0  0  0  0  0  0
    2.6146    1.3661    0.5560 H   0  0  0  0  0  0  0  0  0  0  0  0
    3.9338    2.6832   -1.1644 H   0  0  0  0  0  0  0  0  0  0  0  0
  1  2  1  0
  2  3  1  0
  2  4  1  0
  4  5  1  0
  5  6  2  0
  6  7  1  0
  7  8  1  0
  8  9  2  0
  9 10  1  0
 10 11  2  0
 11 12  1  0
 12 13  2  0
 13 14  1  0
 14 15  1  0
 15 16  1  0
 16 17  1  0
  9  5  1  0
 13  8  1  0
  1 18  1  0
  1 19  1  0
  1 20  1  0
  3 21  1  0
  3 22  1  0
  3 23  1  0
  4 24  1  0
  4 25  1  0
  6 26  1  0
  7 27  1  0
 10 28  1  0
 11 29  1  0
 12 30  1  0
 14 31  1  0
 14 32  1  0
 15 33  1  0
 15 34  1  0
 16 35  1  0
 16 36  1  0
 17 37  1  0
M  END
$$$$
