
     RDKit          3D

 68 71  0  0  0  0  0  0  0  0999 V2000
   -2.4817    0.1340    0.8025 C   0  0  1  0  0  0  0  0  0  0  0  0
   -2.4707   -0.7696    2.0110 C   0  0  0  0  0  0  0  0  0  0  0  0
   -1.0233   -1.2793    2.1163 C   0  0  0  0  0  0  0  0  0  0  0  0
   -0.3287   -0.4874    1.0751 C   0  0  1  0  0  0  0  0  0  0  0  0
    0.9940   -0.9367    0.5800 C   0  0  2  0  0  0  0  0  0  0  0  0
    1.9770   -1.3163    1.6058 C   0  0  2  0  0  0  0  0  0  0  0  0
    1.5070   -1.8020    2.7982 O   0  0  0  0  0  0  0  0  0  0  0  0
    2.8947   -0.1048    1.8273 C   0  0  0  0  0  0  0  0  0  0  0  0
    3.7686   -0.0412    0.5919 C   0  0  2  0  0  0  0  0  0  0  0  0
    4.8277    1.0194    0.7660 C   0  0  0  0  0  0  0  0  0  0  0  0
    5.5996    1.0414   -0.5471 C   0  0  2  0  0  0  0  0  0  0  0  0
    6.7527    1.8060   -0.3759 O   0  0  0  0  0  0  0  0  0  0  0  0
    4.6983    1.7014   -1.5432 C   0  0  0  0  0  0  0  0  0  0  0  0
    3.2395    1.4626   -1.3474 C   0  0  0  0  0  0  0  0  0  0  0  0
    2.9075    0.1878   -0.6192 C   0  0  1  0  0  0  0  0  0  0  0  0
    3.1858   -0.9513   -1.5857 C   0  0  0  0  0  0  0  0  0  0  0  0
    1.4650    0.2668   -0.2561 C   0  0  1  0  0  0  0  0  0  0  0  0
    0.5643    0.2522   -1.4526 C   0  0  0  0  0  0  0  0  0  0  0  0
   -0.8708    0.4596   -1.0540 C   0  0  0  0  0  0  0  0  0  0  0  0
   -1.3929   -0.4714   -0.0184 C   0  0  2  0  0  0  0  0  0  0  0  0
   -1.6751   -1.8729   -0.4805 C   0  0  0  0  0  0  0  0  0  0  0  0
   -3.7774    0.3952    0.1889 C   0  0  2  0  0  0  0  0  0  0  0  0
   -4.7057    1.0540    1.1877 C   0  0  0  0  0  0  0  0  0  0  0  0
   -4.5272   -0.7111   -0.4455 C   0  0  0  0  0  0  0  0  0  0  0  0
   -5.8377   -0.1981   -1.0087 C   0  0  0  0  0  0  0  0  0  0  0  0
   -5.6565    0.8549   -2.0471 C   0  0  0  0  0  0  0  0  0  0  0  0
   -6.9070    1.2834   -2.5140 O   0  0  0  0  0  0  0  0  0  0  0  0
   -4.7212    1.4684   -2.6242 O   0  0  0  0  0  0  0  0  0  0  0  0
   -2.0642    1.1044    1.1533 H   0  0  0  0  0  0  0  0  0  0  0  0
   -3.1890   -1.6107    1.9552 H   0  0  0  0  0  0  0  0  0  0  0  0
   -2.7607   -0.1678    2.8996 H   0  0  0  0  0  0  0  0  0  0  0  0
   -0.9797   -2.3708    1.9643 H   0  0  0  0  0  0  0  0  0  0  0  0
   -0.6720   -0.9759    3.1241 H   0  0  0  0  0  0  0  0  0  0  0  0
   -0.2426    0.5622    1.4324 H   0  0  0  0  0  0  0  0  0  0  0  0
    0.9818   -1.7550   -0.1705 H   0  0  0  0  0  0  0  0  0  0  0  0
    2.6981   -2.1093    1.2483 H   0  0  0  0  0  0  0  0  0  0  0  0
    1.6023   -2.7753    2.9082 H   0  0  0  0  0  0  0  0  0  0  0  0
    2.3204    0.8198    2.0052 H   0  0  0  0  0  0  0  0  0  0  0  0
    3.5839   -0.3724    2.6640 H   0  0  0  0  0  0  0  0  0  0  0  0
    4.3097   -1.0101    0.5615 H   0  0  0  0  0  0  0  0  0  0  0  0
    5.4963    0.7215    1.5803 H   0  0  0  0  0  0  0  0  0  0  0  0
    4.3845    2.0363    0.8840 H   0  0  0  0  0  0  0  0  0  0  0  0
    5.9176    0.0326   -0.8529 H   0  0  0  0  0  0  0  0  0  0  0  0
    7.5335    1.2225   -0.2396 H   0  0  0  0  0  0  0  0  0  0  0  0
    4.8768    2.8042   -1.4731 H   0  0  0  0  0  0  0  0  0  0  0  0
    5.0585    1.4311   -2.5739 H   0  0  0  0  0  0  0  0  0  0  0  0
    2.6980    2.3018   -0.8658 H   0  0  0  0  0  0  0  0  0  0  0  0
    2.8137    1.3550   -2.3799 H   0  0  0  0  0  0  0  0  0  0  0  0
    3.4972   -0.5978   -2.5918 H   0  0  0  0  0  0  0  0  0  0  0  0
    4.0508   -1.5917   -1.2440 H   0  0  0  0  0  0  0  0  0  0  0  0
    2.3539   -1.6494   -1.7084 H   0  0  0  0  0  0  0  0  0  0  0  0
    1.2765    1.2175    0.2764 H   0  0  0  0  0  0  0  0  0  0  0  0
    0.5925   -0.6777   -2.0468 H   0  0  0  0  0  0  0  0  0  0  0  0
    0.7826    1.0931   -2.1632 H   0  0  0  0  0  0  0  0  0  0  0  0
   -0.9335    1.4819   -0.6287 H   0  0  0  0  0  0  0  0  0  0  0  0
   -1.4406    0.4824   -1.9957 H   0  0  0  0  0  0  0  0  0  0  0  0
   -1.7884   -2.0071   -1.5554 H   0  0  0  0  0  0  0  0  0  0  0  0
   -2.5300   -2.2545    0.1361 H   0  0  0  0  0  0  0  0  0  0  0  0
   -0.8661   -2.6126   -0.2061 H   0  0  0  0  0  0  0  0  0  0  0  0
   -3.6265    1.1622   -0.6030 H   0  0  0  0  0  0  0  0  0  0  0  0
   -5.2788    1.9110    0.7536 H   0  0  0  0  0  0  0  0  0  0  0  0
   -5.4565    0.3365    1.5955 H   0  0  0  0  0  0  0  0  0  0  0  0
   -4.1892    1.4641    2.0658 H   0  0  0  0  0  0  0  0  0  0  0  0
   -4.0031   -1.1049   -1.3660 H   0  0  0  0  0  0  0  0  0  0  0  0
   -4.8179   -1.5300    0.2323 H   0  0  0  0  0  0  0  0  0  0  0  0
   -6.5100    0.1781   -0.1815 H   0  0  0  0  0  0  0  0  0  0  0  0
   -6.4331   -1.0073   -1.4826 H   0  0  0  0  0  0  0  0  0  0  0  0
   -7.0527    2.0171   -3.1772 H   0  0  0  0  0  0  0  0  0  0  0  0
  1  2  1  0
  2  3  1  0
  3  4  1  0
  4  5  1  0
  5  6  1  0
  6  7  1  0
  6  8  1  0
  8  9  1  0
  9 10  1  0
 10 11  1  0
 11 12  1  0
 11 13  1  0
 13 14  1  0
 14 15  1  0
 15 16  1  6
 15 17  1  0
 17 18  1  0
 18 19  1  0
 19 20  1  0
 20 21  1  6
  1 22  1  0
 22 23  1  0
 22 24  1  0
 24 25  1  0
 25 26  1  0
 26 27  1  0
 26 28  2  0
 20  1  1  0
 20  4  1  0
 17  5  1  0
 15  9  1  0
  1 29  1  1
  2 30  1  0
  2 31  1  0
  3 32  1  0
  3 33  1  0
  4 34  1  1
  5 35  1  6
  6 36  1  6
  7 37  1  0
  8 38  1  0
  8 39  1  0
  9 40  1  6
 10 41  1  0
 10 42  1  0
 11 43  1  6
 12 44  1  0
 13 45  1  0
 13 46  1  0
 14 47  1  0
 14 48  1  0
 16 49  1  0
 16 50  1  0
 16 51  1  0
 17 52  1  1
 18 53  1  0
 18 54  1  0
 19 55  1  0
 19 56  1  0
 21 57  1  0
 21 58  1  0
 21 59  1  0
 22 60  1  6
 23 61  1  0
 23 62  1  0
 23 63  1  0
 24 64  1  0
 24 65  1  0
 25 66  1  0
 25 67  1  0
 27 68  1  0
M  END
$$$$
