
     RDKit          3D

 42 45  0  0  0  0  0  0  0  0999 V2000
    0.6716   -0.4503    1.1775 O   0  0  0  0  0  0  0  0  0  0  0  0
    0.8377   -0.9017    0.0254 C   0  0  0  0  0  0  0  0  0  0  0  0
   -0.2120   -1.4424   -0.6306 O   0  0  0  0  0  0  0  0  0  0  0  0
   -1.5357   -1.6215   -0.3059 C   0  0  0  0  0  0  0  0  0  0  0  0
   -2.3979   -0.4294   -0.0988 C   0  0  0  0  0  0  0  0  0  0  0  0
   -3.8127   -0.9931    0.2181 C   0  0  0  0  0  0  0  0  0  0  0  0
   -4.8677    0.0493   -0.0338 C   0  0  0  0  0  0  0  0  0  0  0  0
   -4.2154    1.3484    0.1973 N   0  0  0  0  0  0  0  0  0  0  0  0
   -3.4110    1.1937    1.3691 C   0  0  0  0  0  0  0  0  0  0  0  0
   -2.0847    0.4477    1.0680 C   0  0  0  0  0  0  0  0  0  0  0  0
   -3.4254    1.5962   -0.9973 C   0  0  0  0  0  0  0  0  0  0  0  0
   -2.5681    0.4021   -1.3517 C   0  0  0  0  0  0  0  0  0  0  0  0
    2.1955   -0.8172   -0.5640 C   0  0  0  0  0  0  0  0  0  0  0  0
    2.6029   -1.2464   -1.8044 C   0  0  0  0  0  0  0  0  0  0  0  0
    3.9088   -0.9899   -1.9614 N   0  0  0  0  0  0  0  0  0  0  0  0
    4.3702   -0.3944   -0.8359 C   0  0  0  0  0  0  0  0  0  0  0  0
    5.6328    0.0677   -0.4871 C   0  0  0  0  0  0  0  0  0  0  0  0
    5.8724    0.6511    0.7387 C   0  0  0  0  0  0  0  0  0  0  0  0
    7.1217    1.1192    1.1093 O   0  0  0  0  0  0  0  0  0  0  0  0
    4.7967    0.7512    1.5966 C   0  0  0  0  0  0  0  0  0  0  0  0
    5.0070    1.3291    2.8263 F   0  0  0  0  0  0  0  0  0  0  0  0
    3.5495    0.3012    1.2670 C   0  0  0  0  0  0  0  0  0  0  0  0
    3.3025   -0.2816    0.0469 C   0  0  0  0  0  0  0  0  0  0  0  0
   -1.9682   -2.2768   -1.1328 H   0  0  0  0  0  0  0  0  0  0  0  0
   -1.6576   -2.3253    0.5920 H   0  0  0  0  0  0  0  0  0  0  0  0
   -3.9419   -1.8437   -0.4794 H   0  0  0  0  0  0  0  0  0  0  0  0
   -3.7571   -1.3004    1.2806 H   0  0  0  0  0  0  0  0  0  0  0  0
   -5.7233   -0.0874    0.6662 H   0  0  0  0  0  0  0  0  0  0  0  0
   -5.2164    0.0116   -1.0740 H   0  0  0  0  0  0  0  0  0  0  0  0
   -3.1931    2.1410    1.8838 H   0  0  0  0  0  0  0  0  0  0  0  0
   -3.9902    0.5577    2.0901 H   0  0  0  0  0  0  0  0  0  0  0  0
   -1.8625   -0.2145    1.9457 H   0  0  0  0  0  0  0  0  0  0  0  0
   -1.3652    1.2478    0.8992 H   0  0  0  0  0  0  0  0  0  0  0  0
   -4.1786    1.7772   -1.8177 H   0  0  0  0  0  0  0  0  0  0  0  0
   -2.8657    2.5245   -0.8773 H   0  0  0  0  0  0  0  0  0  0  0  0
   -1.6026    0.7340   -1.7695 H   0  0  0  0  0  0  0  0  0  0  0  0
   -3.0633   -0.1974   -2.1476 H   0  0  0  0  0  0  0  0  0  0  0  0
    1.9585   -1.7117   -2.5191 H   0  0  0  0  0  0  0  0  0  0  0  0
    4.5416   -1.1815   -2.7765 H   0  0  0  0  0  0  0  0  0  0  0  0
    6.4565   -0.0197   -1.1690 H   0  0  0  0  0  0  0  0  0  0  0  0
    7.3875    2.0880    1.0026 H   0  0  0  0  0  0  0  0  0  0  0  0
    2.7031    0.3876    1.9600 H   0  0  0  0  0  0  0  0  0  0  0  0
  1  2  2  0
  2  3  1  0
  3  4  1  0
  4  5  1  0
  5  6  1  0
  6  7  1  0
  7  8  1  0
  8  9  1  0
  9 10  1  0
  8 11  1  0
 11 12  1  0
  2 13  1  0
 13 14  2  0
 14 15  1  0
 15 16  1  0
 16 17  2  0
 17 18  1  0
 18 19  1  0
 18 20  2  0
 20 21  1  0
 20 22  1  0
 22 23  2  0
 10  5  1  0
 23 13  1  0
 12  5  1  0
 23 16  1  0
  4 24  1  0
  4 25  1  0
  6 26  1  0
  6 27  1  0
  7 28  1  0
  7 29  1  0
  9 30  1  0
  9 31  1  0
 10 32  1  0
 10 33  1  0
 11 34  1  0
 11 35  1  0
 12 36  1  0
 12 37  1  0
 14 38  1  0
 15 39  1  0
 17 40  1  0
 19 41  1  0
 22 42  1  0
M  END
$$$$
