
     RDKit          3D

 52 56  0  0  0  0  0  0  0  0999 V2000
   -3.8536    4.6985    1.0038 C   0  0  0  0  0  0  0  0  0  0  0  0
   -3.1874    3.4328    0.6030 C   0  0  0  0  0  0  0  0  0  0  0  0
   -2.0568    3.4523   -0.2120 C   0  0  0  0  0  0  0  0  0  0  0  0
   -1.4798    2.2612   -0.5533 C   0  0  0  0  0  0  0  0  0  0  0  0
   -1.9829    1.0466   -0.1157 C   0  0  0  0  0  0  0  0  0  0  0  0
   -1.3079   -0.2066   -0.5236 C   0  0  0  0  0  0  0  0  0  0  0  0
   -2.2698   -0.9718   -1.3933 C   0  0  0  0  0  0  0  0  0  0  0  0
   -1.7794   -2.3903   -1.5570 C   0  0  1  0  0  0  0  0  0  0  0  0
   -0.3319   -2.4567   -1.9447 C   0  0  0  0  0  0  0  0  0  0  0  0
    0.3618   -2.8165   -0.6730 C   0  0  0  0  0  0  0  0  0  0  0  0
   -0.6342   -2.4587    0.3730 C   0  0  0  0  0  0  0  0  0  0  0  0
   -0.7798   -0.9931    0.6336 C   0  0  1  0  0  0  0  0  0  0  0  0
    0.4882   -0.3667    1.0723 C   0  0  0  0  0  0  0  0  0  0  0  0
    0.7414    0.2239    2.2514 N   0  0  0  0  0  0  0  0  0  0  0  0
    1.9811    0.6596    2.2658 N   0  0  0  0  0  0  0  0  0  0  0  0
    2.5223    0.3481    1.0954 C   0  0  0  0  0  0  0  0  0  0  0  0
    3.8777    0.6400    0.6784 C   0  0  0  0  0  0  0  0  0  0  0  0
    4.7224    1.3013    1.5428 C   0  0  0  0  0  0  0  0  0  0  0  0
    6.0092    1.6028    1.2041 C   0  0  0  0  0  0  0  0  0  0  0  0
    6.4516    1.2217   -0.0490 C   0  0  0  0  0  0  0  0  0  0  0  0
    5.6130    0.5588   -0.9219 C   0  0  0  0  0  0  0  0  0  0  0  0
    4.3183    0.2514   -0.5906 C   0  0  0  0  0  0  0  0  0  0  0  0
    1.6033   -0.2706    0.3913 O   0  0  0  0  0  0  0  0  0  0  0  0
   -1.8597   -2.9698   -0.2064 N   0  0  0  0  0  0  0  0  0  0  0  0
   -1.8787   -4.4132   -0.2560 C   0  0  0  0  0  0  0  0  0  0  0  0
   -3.1170    1.0059    0.7031 C   0  0  0  0  0  0  0  0  0  0  0  0
   -3.6739    2.2176    1.0287 C   0  0  0  0  0  0  0  0  0  0  0  0
   -4.9184    4.5273    1.2509 H   0  0  0  0  0  0  0  0  0  0  0  0
   -3.7630    5.4351    0.1602 H   0  0  0  0  0  0  0  0  0  0  0  0
   -3.3755    5.1535    1.8935 H   0  0  0  0  0  0  0  0  0  0  0  0
   -1.6686    4.4038   -0.5505 H   0  0  0  0  0  0  0  0  0  0  0  0
   -0.6061    2.2670   -1.1825 H   0  0  0  0  0  0  0  0  0  0  0  0
   -0.4460    0.0693   -1.1611 H   0  0  0  0  0  0  0  0  0  0  0  0
   -2.2838   -0.5213   -2.4228 H   0  0  0  0  0  0  0  0  0  0  0  0
   -3.2928   -1.0289   -0.9652 H   0  0  0  0  0  0  0  0  0  0  0  0
   -2.3569   -2.9652   -2.2848 H   0  0  0  0  0  0  0  0  0  0  0  0
   -0.1326   -3.2322   -2.7174 H   0  0  0  0  0  0  0  0  0  0  0  0
    0.0833   -1.5187   -2.3258 H   0  0  0  0  0  0  0  0  0  0  0  0
    0.4567   -3.9380   -0.6592 H   0  0  0  0  0  0  0  0  0  0  0  0
    1.3581   -2.3929   -0.5502 H   0  0  0  0  0  0  0  0  0  0  0  0
   -0.3861   -2.9481    1.3372 H   0  0  0  0  0  0  0  0  0  0  0  0
   -1.5102   -0.8835    1.4651 H   0  0  0  0  0  0  0  0  0  0  0  0
    4.3489    1.5928    2.5297 H   0  0  0  0  0  0  0  0  0  0  0  0
    6.6303    2.1244    1.9224 H   0  0  0  0  0  0  0  0  0  0  0  0
    7.4720    1.4611   -0.3166 H   0  0  0  0  0  0  0  0  0  0  0  0
    6.0072    0.2815   -1.8922 H   0  0  0  0  0  0  0  0  0  0  0  0
    3.6558   -0.2673   -1.2685 H   0  0  0  0  0  0  0  0  0  0  0  0
   -1.4569   -4.8164   -1.1979 H   0  0  0  0  0  0  0  0  0  0  0  0
   -1.3610   -4.8718    0.6188 H   0  0  0  0  0  0  0  0  0  0  0  0
   -2.9365   -4.7790   -0.2077 H   0  0  0  0  0  0  0  0  0  0  0  0
   -3.4635    0.0392    1.0126 H   0  0  0  0  0  0  0  0  0  0  0  0
   -4.5517    2.1997    1.6616 H   0  0  0  0  0  0  0  0  0  0  0  0
  1  2  1  0
  2  3  2  0
  3  4  1  0
  4  5  2  0
  5  6  1  0
  6  7  1  0
  7  8  1  0
  8  9  1  0
  9 10  1  0
 10 11  1  0
 11 12  1  0
 12 13  1  0
 13 14  2  0
 14 15  1  0
 15 16  2  0
 16 17  1  0
 17 18  2  0
 18 19  1  0
 19 20  2  0
 20 21  1  0
 21 22  2  0
 16 23  1  0
 11 24  1  0
 24 25  1  0
  5 26  1  0
 26 27  2  0
 27  2  1  0
 12  6  1  0
 23 13  1  0
 24  8  1  0
 22 17  1  0
  1 28  1  0
  1 29  1  0
  1 30  1  0
  3 31  1  0
  4 32  1  0
  6 33  1  0
  7 34  1  0
  7 35  1  0
  8 36  1  6
  9 37  1  0
  9 38  1  0
 10 39  1  0
 10 40  1  0
 11 41  1  0
 12 42  1  1
 18 43  1  0
 19 44  1  0
 20 45  1  0
 21 46  1  0
 22 47  1  0
 25 48  1  0
 25 49  1  0
 25 50  1  0
 26 51  1  0
 27 52  1  0
M  END
$$$$
