
     RDKit          3D

 39 40  0  0  0  0  0  0  0  0999 V2000
   -4.0344    0.1721    2.2661 C   0  0  0  0  0  0  0  0  0  0  0  0
   -3.6822   -0.0845    0.8149 C   0  0  0  0  0  0  0  0  0  0  0  0
   -2.3233    0.3813    0.4867 C   0  0  0  0  0  0  0  0  0  0  0  0
   -1.5168    0.9659    1.4361 C   0  0  0  0  0  0  0  0  0  0  0  0
   -0.2468    1.4109    1.1378 C   0  0  0  0  0  0  0  0  0  0  0  0
    0.2792    1.2890   -0.1403 C   0  0  0  0  0  0  0  0  0  0  0  0
    1.6493    1.7876   -0.4555 C   0  0  0  0  0  0  0  0  0  0  0  0
    2.7128    0.8698   -0.0709 C   0  0  0  0  0  0  0  0  0  0  0  0
    3.4232    1.1432    1.0797 C   0  0  0  0  0  0  0  0  0  0  0  0
    4.4103    0.3234    1.4757 N   0  0  0  0  0  0  0  0  0  0  0  0
    4.7188   -0.7759    0.7549 C   0  0  0  0  0  0  0  0  0  0  0  0
    5.7548   -1.6616    1.1424 N   0  0  0  0  0  0  0  0  0  0  0  0
    4.0221   -1.0198   -0.3490 N   0  0  0  0  0  0  0  0  0  0  0  0
    3.0129   -0.2435   -0.8164 C   0  0  0  0  0  0  0  0  0  0  0  0
    2.3351   -0.5896   -2.0104 N   0  0  0  0  0  0  0  0  0  0  0  0
   -0.5079    0.7134   -1.0859 C   0  0  0  0  0  0  0  0  0  0  0  0
   -1.7990    0.2619   -0.7779 C   0  0  0  0  0  0  0  0  0  0  0  0
   -2.5926   -0.3583   -1.8548 C   0  0  0  0  0  0  0  0  0  0  0  0
   -2.6494   -1.8688   -1.7703 C   0  0  0  0  0  0  0  0  0  0  0  0
   -5.0425   -0.2242    2.4945 H   0  0  0  0  0  0  0  0  0  0  0  0
   -4.0896    1.2717    2.3928 H   0  0  0  0  0  0  0  0  0  0  0  0
   -3.3119   -0.2602    2.9585 H   0  0  0  0  0  0  0  0  0  0  0  0
   -4.3803    0.4849    0.1375 H   0  0  0  0  0  0  0  0  0  0  0  0
   -3.8262   -1.1436    0.6272 H   0  0  0  0  0  0  0  0  0  0  0  0
   -1.8807    1.0895    2.4654 H   0  0  0  0  0  0  0  0  0  0  0  0
    0.4092    1.8780    1.8776 H   0  0  0  0  0  0  0  0  0  0  0  0
    1.6435    2.0138   -1.5566 H   0  0  0  0  0  0  0  0  0  0  0  0
    1.7618    2.7984    0.0265 H   0  0  0  0  0  0  0  0  0  0  0  0
    3.2344    2.0021    1.7085 H   0  0  0  0  0  0  0  0  0  0  0  0
    6.6267   -1.6922    0.5840 H   0  0  0  0  0  0  0  0  0  0  0  0
    5.6419   -2.2676    1.9695 H   0  0  0  0  0  0  0  0  0  0  0  0
    1.8630   -1.4956   -2.0951 H   0  0  0  0  0  0  0  0  0  0  0  0
    2.3126    0.0726   -2.8066 H   0  0  0  0  0  0  0  0  0  0  0  0
   -0.1305    0.6092   -2.1036 H   0  0  0  0  0  0  0  0  0  0  0  0
   -3.6664   -0.0123   -1.8097 H   0  0  0  0  0  0  0  0  0  0  0  0
   -2.1623   -0.1140   -2.8436 H   0  0  0  0  0  0  0  0  0  0  0  0
   -2.0124   -2.3482   -2.5456 H   0  0  0  0  0  0  0  0  0  0  0  0
   -2.2719   -2.2440   -0.7984 H   0  0  0  0  0  0  0  0  0  0  0  0
   -3.6846   -2.2627   -1.9458 H   0  0  0  0  0  0  0  0  0  0  0  0
  1  2  1  0
  2  3  1  0
  3  4  2  0
  4  5  1  0
  5  6  2  0
  6  7  1  0
  7  8  1  0
  8  9  2  0
  9 10  1  0
 10 11  2  0
 11 12  1  0
 11 13  1  0
 13 14  2  0
 14 15  1  0
  6 16  1  0
 16 17  2  0
 17 18  1  0
 18 19  1  0
 17  3  1  0
 14  8  1  0
  1 20  1  0
  1 21  1  0
  1 22  1  0
  2 23  1  0
  2 24  1  0
  4 25  1  0
  5 26  1  0
  7 27  1  0
  7 28  1  0
  9 29  1  0
 12 30  1  0
 12 31  1  0
 15 32  1  0
 15 33  1  0
 16 34  1  0
 18 35  1  0
 18 36  1  0
 19 37  1  0
 19 38  1  0
 19 39  1  0
M  END
$$$$
