
     RDKit          3D

 37 40  0  0  0  0  0  0  0  0999 V2000
   -2.7054   -2.2260    0.4785 C   0  0  0  0  0  0  0  0  0  0  0  0
   -2.2132   -0.8610    0.4699 N   0  0  0  0  0  0  0  0  0  0  0  0
   -3.2805    0.1009    0.3669 C   0  0  0  0  0  0  0  0  0  0  0  0
   -3.0419    1.1719   -0.6682 C   0  0  0  0  0  0  0  0  0  0  0  0
   -1.6625    1.6928   -0.4424 C   0  0  0  0  0  0  0  0  0  0  0  0
   -1.3360    3.0019   -0.3161 C   0  0  0  0  0  0  0  0  0  0  0  0
   -0.0400    3.3715   -0.1091 C   0  0  0  0  0  0  0  0  0  0  0  0
    0.9825    2.4098   -0.0219 C   0  0  0  0  0  0  0  0  0  0  0  0
    0.6382    1.0837   -0.1516 C   0  0  0  0  0  0  0  0  0  0  0  0
   -0.6744    0.7043   -0.3620 C   0  0  0  0  0  0  0  0  0  0  0  0
   -1.1815   -0.6660   -0.5278 C   0  0  1  0  0  0  0  0  0  0  0  0
   -0.1759   -1.7374   -0.3975 C   0  0  0  0  0  0  0  0  0  0  0  0
    1.2076   -1.2856   -0.1894 C   0  0  0  0  0  0  0  0  0  0  0  0
    2.1541   -2.2863   -0.1114 C   0  0  0  0  0  0  0  0  0  0  0  0
    3.4912   -2.0285    0.0871 C   0  0  0  0  0  0  0  0  0  0  0  0
    3.8851   -0.7201    0.2107 C   0  0  0  0  0  0  0  0  0  0  0  0
    5.2135   -0.3685    0.4132 O   0  0  0  0  0  0  0  0  0  0  0  0
    2.9535    0.3264    0.1371 C   0  0  0  0  0  0  0  0  0  0  0  0
    3.4324    1.5928    0.2702 O   0  0  0  0  0  0  0  0  0  0  0  0
    1.6458    0.0270   -0.0596 C   0  0  0  0  0  0  0  0  0  0  0  0
   -2.6795   -2.6903   -0.5211 H   0  0  0  0  0  0  0  0  0  0  0  0
   -2.2305   -2.8058    1.2713 H   0  0  0  0  0  0  0  0  0  0  0  0
   -3.8003   -2.1568    0.7435 H   0  0  0  0  0  0  0  0  0  0  0  0
   -4.2682   -0.3478    0.1667 H   0  0  0  0  0  0  0  0  0  0  0  0
   -3.3450    0.6247    1.3576 H   0  0  0  0  0  0  0  0  0  0  0  0
   -3.7596    1.9906   -0.4800 H   0  0  0  0  0  0  0  0  0  0  0  0
   -3.1909    0.8106   -1.7025 H   0  0  0  0  0  0  0  0  0  0  0  0
   -2.1193    3.7472   -0.3822 H   0  0  0  0  0  0  0  0  0  0  0  0
    0.2667    4.3940   -0.0033 H   0  0  0  0  0  0  0  0  0  0  0  0
    1.9822    2.7495    0.1416 H   0  0  0  0  0  0  0  0  0  0  0  0
   -1.6390   -0.6922   -1.5654 H   0  0  0  0  0  0  0  0  0  0  0  0
   -0.3890   -2.4421    0.4606 H   0  0  0  0  0  0  0  0  0  0  0  0
   -0.1493   -2.3393   -1.3595 H   0  0  0  0  0  0  0  0  0  0  0  0
    1.8904   -3.3377   -0.2035 H   0  0  0  0  0  0  0  0  0  0  0  0
    4.2309   -2.8198    0.1475 H   0  0  0  0  0  0  0  0  0  0  0  0
    5.7235    0.2197   -0.2297 H   0  0  0  0  0  0  0  0  0  0  0  0
    4.1841    1.7917    0.9047 H   0  0  0  0  0  0  0  0  0  0  0  0
  1  2  1  0
  2  3  1  0
  3  4  1  0
  4  5  1  0
  5  6  2  0
  6  7  1  0
  7  8  2  0
  8  9  1  0
  9 10  2  0
 10 11  1  0
 11 12  1  0
 12 13  1  0
 13 14  2  0
 14 15  1  0
 15 16  2  0
 16 17  1  0
 16 18  1  0
 18 19  1  0
 18 20  2  0
 11  2  1  0
 20 13  1  0
 10  5  1  0
 20  9  1  0
  1 21  1  0
  1 22  1  0
  1 23  1  0
  3 24  1  0
  3 25  1  0
  4 26  1  0
  4 27  1  0
  6 28  1  0
  7 29  1  0
  8 30  1  0
 11 31  1  6
 12 32  1  0
 12 33  1  0
 14 34  1  0
 15 35  1  0
 17 36  1  0
 19 37  1  0
M  END
$$$$
