
     RDKit          3D

 52 57  0  0  0  0  0  0  0  0999 V2000
    1.5401   -5.0133   -0.5900 C   0  0  0  0  0  0  0  0  0  0  0  0
    2.6947   -4.3479   -0.9346 C   0  0  0  0  0  0  0  0  0  0  0  0
    2.6184   -3.1179   -0.3954 N   0  0  0  0  0  0  0  0  0  0  0  0
    3.4574   -2.0520   -0.4099 C   0  0  0  0  0  0  0  0  0  0  0  0
    3.1553   -0.8748    0.2280 C   0  0  0  0  0  0  0  0  0  0  0  0
    4.0494    0.2724    0.1959 C   0  0  0  0  0  0  0  0  0  0  0  0
    3.6979    1.4531    0.8326 C   0  0  0  0  0  0  0  0  0  0  0  0
    4.5510    2.5587    0.8054 C   0  0  0  0  0  0  0  0  0  0  0  0
    5.7499    2.4996    0.1514 C   0  0  0  0  0  0  0  0  0  0  0  0
    6.7525    3.3919   -0.0353 C   0  0  0  0  0  0  0  0  0  0  0  0
    7.7152    2.7743   -0.7777 N   0  0  0  0  0  0  0  0  0  0  0  0
    7.3174    1.5320   -1.0431 N   0  0  0  0  0  0  0  0  0  0  0  0
    6.1099    1.3370   -0.4821 C   0  0  0  0  0  0  0  0  0  0  0  0
    5.2597    0.2449   -0.4517 C   0  0  0  0  0  0  0  0  0  0  0  0
    1.9686   -0.8160    0.8845 N   0  0  0  0  0  0  0  0  0  0  0  0
    1.1123   -1.8220    0.9318 C   0  0  0  0  0  0  0  0  0  0  0  0
   -0.1404   -1.8029    1.6187 N   0  0  0  0  0  0  0  0  0  0  0  0
   -1.2833   -1.1261    1.0987 C   0  0  0  0  0  0  0  0  0  0  0  0
   -2.5165   -1.4389    1.6225 C   0  0  0  0  0  0  0  0  0  0  0  0
   -3.6263   -0.7747    1.1401 C   0  0  0  0  0  0  0  0  0  0  0  0
   -3.4937    0.1844    0.1508 C   0  0  0  0  0  0  0  0  0  0  0  0
   -4.6724    0.8268   -0.3073 N   0  0  0  0  0  0  0  0  0  0  0  0
   -4.5176    2.0809   -1.0468 C   0  0  0  0  0  0  0  0  0  0  0  0
   -5.7870    2.8789   -0.7120 C   0  0  0  0  0  0  0  0  0  0  0  0
   -6.8134    2.1963   -1.3280 O   0  0  0  0  0  0  0  0  0  0  0  0
   -7.1128    1.0322   -0.6737 C   0  0  0  0  0  0  0  0  0  0  0  0
   -5.9767    0.2827   -0.0796 C   0  0  0  0  0  0  0  0  0  0  0  0
   -2.2414    0.4733   -0.3526 C   0  0  0  0  0  0  0  0  0  0  0  0
   -1.1135   -0.1644    0.0997 C   0  0  0  0  0  0  0  0  0  0  0  0
    1.4577   -3.0046    0.2678 C   0  0  0  0  0  0  0  0  0  0  0  0
    0.7902   -4.1719    0.1498 N   0  0  0  0  0  0  0  0  0  0  0  0
    1.2280   -6.0293   -0.8357 H   0  0  0  0  0  0  0  0  0  0  0  0
    3.4840   -4.7783   -1.5290 H   0  0  0  0  0  0  0  0  0  0  0  0
    4.3737   -2.2014   -0.9580 H   0  0  0  0  0  0  0  0  0  0  0  0
    2.7635    1.5342    1.3540 H   0  0  0  0  0  0  0  0  0  0  0  0
    4.2783    3.4746    1.2997 H   0  0  0  0  0  0  0  0  0  0  0  0
    6.7619    4.3982    0.3439 H   0  0  0  0  0  0  0  0  0  0  0  0
    7.8925    0.8678   -1.5993 H   0  0  0  0  0  0  0  0  0  0  0  0
    5.6127   -0.6316   -0.9710 H   0  0  0  0  0  0  0  0  0  0  0  0
   -0.2314   -2.2935    2.5248 H   0  0  0  0  0  0  0  0  0  0  0  0
   -2.6282   -2.2007    2.4105 H   0  0  0  0  0  0  0  0  0  0  0  0
   -4.6120   -1.0284    1.5584 H   0  0  0  0  0  0  0  0  0  0  0  0
   -4.4874    1.8291   -2.1247 H   0  0  0  0  0  0  0  0  0  0  0  0
   -3.6277    2.6341   -0.7333 H   0  0  0  0  0  0  0  0  0  0  0  0
   -5.6883    3.9320   -0.9685 H   0  0  0  0  0  0  0  0  0  0  0  0
   -5.9439    2.7199    0.3939 H   0  0  0  0  0  0  0  0  0  0  0  0
   -7.6024    0.3468   -1.4295 H   0  0  0  0  0  0  0  0  0  0  0  0
   -7.9234    1.2337    0.0644 H   0  0  0  0  0  0  0  0  0  0  0  0
   -5.9599   -0.7786   -0.4211 H   0  0  0  0  0  0  0  0  0  0  0  0
   -6.1605    0.2046    1.0342 H   0  0  0  0  0  0  0  0  0  0  0  0
   -2.1171    1.2146   -1.1267 H   0  0  0  0  0  0  0  0  0  0  0  0
   -0.1150    0.0602   -0.2968 H   0  0  0  0  0  0  0  0  0  0  0  0
  1  2  2  0
  2  3  1  0
  3  4  1  0
  4  5  2  0
  5  6  1  0
  6  7  2  0
  7  8  1  0
  8  9  2  0
  9 10  1  0
 10 11  2  0
 11 12  1  0
 12 13  1  0
 13 14  2  0
  5 15  1  0
 15 16  2  0
 16 17  1  0
 17 18  1  0
 18 19  2  0
 19 20  1  0
 20 21  2  0
 21 22  1  0
 22 23  1  0
 23 24  1  0
 24 25  1  0
 25 26  1  0
 26 27  1  0
 21 28  1  0
 28 29  2  0
 16 30  1  0
 30 31  2  0
 31  1  1  0
 30  3  1  0
 14  6  1  0
 29 18  1  0
 13  9  1  0
 27 22  1  0
  1 32  1  0
  2 33  1  0
  4 34  1  0
  7 35  1  0
  8 36  1  0
 10 37  1  0
 12 38  1  0
 14 39  1  0
 17 40  1  0
 19 41  1  0
 20 42  1  0
 23 43  1  0
 23 44  1  0
 24 45  1  0
 24 46  1  0
 26 47  1  0
 26 48  1  0
 27 49  1  0
 27 50  1  0
 28 51  1  0
 29 52  1  0
M  END
$$$$
