
     RDKit          3D

 43 45  0  0  0  0  0  0  0  0999 V2000
    0.7039    0.3821    0.3353 O   0  0  0  0  0  0  0  0  0  0  0  0
    0.7847   -0.7616   -0.1765 C   0  0  0  0  0  0  0  0  0  0  0  0
    2.0131   -1.4528    0.1460 N   0  0  0  0  0  0  0  0  0  0  0  0
    2.9960   -0.8220    0.9839 C   0  0  0  0  0  0  0  0  0  0  0  0
    2.8989   -1.0268    2.3412 C   0  0  0  0  0  0  0  0  0  0  0  0
    3.8136   -0.4476    3.2006 C   0  0  0  0  0  0  0  0  0  0  0  0
    4.8442    0.3509    2.6944 C   0  0  0  0  0  0  0  0  0  0  0  0
    4.9436    0.5570    1.3425 C   0  0  0  0  0  0  0  0  0  0  0  0
    6.0201    1.3949    0.7750 C   0  0  0  0  0  0  0  0  0  0  0  0
    5.6526    1.8597   -0.4857 F   0  0  0  0  0  0  0  0  0  0  0  0
    7.1357    0.6056    0.5922 F   0  0  0  0  0  0  0  0  0  0  0  0
    6.2913    2.5104    1.5440 F   0  0  0  0  0  0  0  0  0  0  0  0
    4.0163   -0.0332    0.5005 C   0  0  0  0  0  0  0  0  0  0  0  0
   -0.2557   -1.3538   -1.0234 C   0  0  0  0  0  0  0  0  0  0  0  0
   -0.1543   -2.7246   -1.3290 C   0  0  0  0  0  0  0  0  0  0  0  0
   -1.1288   -3.3586   -2.0691 C   0  0  0  0  0  0  0  0  0  0  0  0
   -2.2068   -2.6244   -2.5058 C   0  0  0  0  0  0  0  0  0  0  0  0
   -2.3401   -1.2922   -2.2305 C   0  0  0  0  0  0  0  0  0  0  0  0
   -1.3366   -0.6620   -1.4744 C   0  0  0  0  0  0  0  0  0  0  0  0
   -1.4337    0.7479   -1.2686 N   0  0  0  0  0  0  0  0  0  0  0  0
   -2.6143    1.5176   -1.6811 C   0  0  0  0  0  0  0  0  0  0  0  0
   -3.6578    1.5063   -0.5997 C   0  0  0  0  0  0  0  0  0  0  0  0
   -4.7162    0.6470   -0.5471 C   0  0  0  0  0  0  0  0  0  0  0  0
   -5.6646    0.6506    0.4865 C   0  0  0  0  0  0  0  0  0  0  0  0
   -5.4894    1.5603    1.4554 N   0  0  0  0  0  0  0  0  0  0  0  0
   -4.4481    2.4282    1.4312 C   0  0  0  0  0  0  0  0  0  0  0  0
   -3.5247    2.4423    0.4478 C   0  0  0  0  0  0  0  0  0  0  0  0
    2.1549   -2.3925   -0.2463 H   0  0  0  0  0  0  0  0  0  0  0  0
    2.1012   -1.6443    2.7265 H   0  0  0  0  0  0  0  0  0  0  0  0
    3.7763   -0.5809    4.2733 H   0  0  0  0  0  0  0  0  0  0  0  0
    5.5692    0.8125    3.3508 H   0  0  0  0  0  0  0  0  0  0  0  0
    4.0819    0.1212   -0.5770 H   0  0  0  0  0  0  0  0  0  0  0  0
    0.6848   -3.2766   -0.9776 H   0  0  0  0  0  0  0  0  0  0  0  0
   -1.0393   -4.4084   -2.2960 H   0  0  0  0  0  0  0  0  0  0  0  0
   -2.9547   -3.1811   -3.0915 H   0  0  0  0  0  0  0  0  0  0  0  0
   -3.1761   -0.7291   -2.5996 H   0  0  0  0  0  0  0  0  0  0  0  0
   -0.6508    1.2438   -0.8374 H   0  0  0  0  0  0  0  0  0  0  0  0
   -2.2877    2.5873   -1.7487 H   0  0  0  0  0  0  0  0  0  0  0  0
   -3.0201    1.2303   -2.6426 H   0  0  0  0  0  0  0  0  0  0  0  0
   -4.8784   -0.0866   -1.3309 H   0  0  0  0  0  0  0  0  0  0  0  0
   -6.4840   -0.0573    0.4737 H   0  0  0  0  0  0  0  0  0  0  0  0
   -4.3434    3.1543    2.2423 H   0  0  0  0  0  0  0  0  0  0  0  0
   -2.6767    3.1234    0.3955 H   0  0  0  0  0  0  0  0  0  0  0  0
  1  2  2  0
  2  3  1  0
  3  4  1  0
  4  5  2  0
  5  6  1  0
  6  7  2  0
  7  8  1  0
  8  9  1  0
  9 10  1  0
  9 11  1  0
  9 12  1  0
  8 13  2  0
  2 14  1  0
 14 15  2  0
 15 16  1  0
 16 17  2  0
 17 18  1  0
 18 19  2  0
 19 20  1  0
 20 21  1  0
 21 22  1  0
 22 23  2  0
 23 24  1  0
 24 25  2  0
 25 26  1  0
 26 27  2  0
 13  4  1  0
 19 14  1  0
 27 22  1  0
  3 28  1  0
  5 29  1  0
  6 30  1  0
  7 31  1  0
 13 32  1  0
 15 33  1  0
 16 34  1  0
 17 35  1  0
 18 36  1  0
 20 37  1  0
 21 38  1  0
 21 39  1  0
 23 40  1  0
 24 41  1  0
 26 42  1  0
 27 43  1  0
M  END
$$$$
