
     RDKit          3D

 45 52  0  0  0  0  0  0  0  0999 V2000
   -1.1349   -2.5143    0.3631 C   0  0  1  0  0  0  0  0  0  0  0  0
   -0.6585   -3.0733   -0.9621 C   0  0  0  0  0  0  0  0  0  0  0  0
    0.8408   -3.1199   -0.8444 C   0  0  0  0  0  0  0  0  0  0  0  0
    1.1158   -2.4954    0.4803 C   0  0  2  0  0  0  0  0  0  0  0  0
   -0.0555   -2.6082    1.2262 O   0  0  0  0  0  0  0  0  0  0  0  0
    1.5223   -1.0982    0.3657 N   0  0  0  0  0  0  0  0  0  0  0  0
    2.7368   -0.5215    0.3705 C   0  0  0  0  0  0  0  0  0  0  0  0
    2.6449    0.8466    0.2386 C   0  0  0  0  0  0  0  0  0  0  0  0
    3.8452    1.4691    0.2385 C   0  0  0  0  0  0  0  0  0  0  0  0
    5.0678    0.8633    0.3539 C   0  0  0  0  0  0  0  0  0  0  0  0
    5.1196   -0.5175    0.4850 C   0  0  0  0  0  0  0  0  0  0  0  0
    3.9361   -1.2121    0.4927 C   0  0  0  0  0  0  0  0  0  0  0  0
    1.3370    1.1605    0.1462 C   0  0  0  0  0  0  0  0  0  0  0  0
    0.6602    2.3323    0.0055 C   0  0  0  0  0  0  0  0  0  0  0  0
    1.1177    3.7028   -0.0997 C   0  0  0  0  0  0  0  0  0  0  0  0
    2.2336    4.2599   -0.0983 O   0  0  0  0  0  0  0  0  0  0  0  0
   -0.0330    4.5300   -0.2310 N   0  0  0  0  0  0  0  0  0  0  0  0
   -1.1908    3.7063   -0.2097 C   0  0  0  0  0  0  0  0  0  0  0  0
   -2.3079    4.2255   -0.3109 O   0  0  0  0  0  0  0  0  0  0  0  0
   -0.7085    2.3535   -0.0615 C   0  0  0  0  0  0  0  0  0  0  0  0
   -1.3498    1.1584    0.0185 C   0  0  0  0  0  0  0  0  0  0  0  0
   -2.6672    0.7985   -0.0120 C   0  0  0  0  0  0  0  0  0  0  0  0
   -2.7482   -0.5703    0.1100 C   0  0  0  0  0  0  0  0  0  0  0  0
   -3.9449   -1.2758    0.1171 C   0  0  0  0  0  0  0  0  0  0  0  0
   -5.1375   -0.5984   -0.0028 C   0  0  0  0  0  0  0  0  0  0  0  0
   -5.1145    0.7886   -0.1293 C   0  0  0  0  0  0  0  0  0  0  0  0
   -3.8830    1.4010   -0.1262 C   0  0  0  0  0  0  0  0  0  0  0  0
   -1.5193   -1.1077    0.2188 N   0  0  0  0  0  0  0  0  0  0  0  0
   -0.6987   -0.0417    0.1606 C   0  0  0  0  0  0  0  0  0  0  0  0
    0.6811   -0.0293    0.2254 C   0  0  0  0  0  0  0  0  0  0  0  0
   -1.9701   -3.0859    0.7690 H   0  0  0  0  0  0  0  0  0  0  0  0
   -0.9895   -2.4335   -1.8203 H   0  0  0  0  0  0  0  0  0  0  0  0
   -1.0556   -4.1001   -1.0824 H   0  0  0  0  0  0  0  0  0  0  0  0
    1.3231   -2.5454   -1.6709 H   0  0  0  0  0  0  0  0  0  0  0  0
    1.2117   -4.1659   -0.8740 H   0  0  0  0  0  0  0  0  0  0  0  0
    1.9030   -3.0346    1.0534 H   0  0  0  0  0  0  0  0  0  0  0  0
    3.8701    2.5141    0.1423 H   0  0  0  0  0  0  0  0  0  0  0  0
    5.9939    1.4130    0.3473 H   0  0  0  0  0  0  0  0  0  0  0  0
    6.0726   -1.0141    0.5773 H   0  0  0  0  0  0  0  0  0  0  0  0
    4.0032   -2.2774    0.5952 H   0  0  0  0  0  0  0  0  0  0  0  0
   -0.0413    5.5963   -0.3301 H   0  0  0  0  0  0  0  0  0  0  0  0
   -3.9799   -2.3507    0.2143 H   0  0  0  0  0  0  0  0  0  0  0  0
   -6.0903   -1.1095   -0.0018 H   0  0  0  0  0  0  0  0  0  0  0  0
   -6.0385    1.3235   -0.2232 H   0  0  0  0  0  0  0  0  0  0  0  0
   -3.9193    2.4575   -0.2251 H   0  0  0  0  0  0  0  0  0  0  0  0
  1  2  1  0
  2  3  1  0
  3  4  1  0
  4  5  1  0
  4  6  1  0
  6  7  1  0
  7  8  2  0
  8  9  1  0
  9 10  2  0
 10 11  1  0
 11 12  2  0
  8 13  1  0
 13 14  2  0
 14 15  1  0
 15 16  2  0
 15 17  1  0
 17 18  1  0
 18 19  2  0
 18 20  1  0
 20 21  2  0
 21 22  1  0
 22 23  2  0
 23 24  1  0
 24 25  2  0
 25 26  1  0
 26 27  2  0
 23 28  1  0
 28 29  1  0
 29 30  2  0
  5  1  1  0
 30  6  1  0
 28  1  1  0
 12  7  1  0
 30 13  1  0
 20 14  1  0
 29 21  1  0
 27 22  1  0
  1 31  1  1
  2 32  1  0
  2 33  1  0
  3 34  1  0
  3 35  1  0
  4 36  1  1
  9 37  1  0
 10 38  1  0
 11 39  1  0
 12 40  1  0
 17 41  1  0
 24 42  1  0
 25 43  1  0
 26 44  1  0
 27 45  1  0
M  END
$$$$
