
     RDKit          3D

 62 66  0  0  0  0  0  0  0  0999 V2000
    1.0735    2.5817   -0.2224 C   0  0  0  0  0  0  0  0  0  0  0  0
    1.8274    1.2908   -0.1598 C   0  0  0  0  0  0  0  0  0  0  0  0
    3.1946    1.2561   -0.0067 C   0  0  0  0  0  0  0  0  0  0  0  0
    3.9328    0.0895    0.0565 C   0  0  0  0  0  0  0  0  0  0  0  0
    5.3704    0.0791    0.2193 C   0  0  0  0  0  0  0  0  0  0  0  0
    6.1335    1.0981    0.3280 N   0  0  0  0  0  0  0  0  0  0  0  0
    7.5205    0.7705    0.4787 C   0  0  0  0  0  0  0  0  0  0  0  0
    8.3748    1.6516   -0.4004 C   0  0  0  0  0  0  0  0  0  0  0  0
    7.9759    0.8770    1.9283 C   0  0  0  0  0  0  0  0  0  0  0  0
    7.5879   -0.6820    0.1009 C   0  0  0  0  0  0  0  0  0  0  0  0
    6.1814   -1.0772    0.2842 N   0  0  0  0  0  0  0  0  0  0  0  0
    3.2192   -1.1036   -0.0440 C   0  0  0  0  0  0  0  0  0  0  0  0
    1.8490   -1.1013   -0.1979 C   0  0  0  0  0  0  0  0  0  0  0  0
    0.9042   -2.0915   -0.3207 N   0  0  0  0  0  0  0  0  0  0  0  0
   -0.3302   -1.5451   -0.4499 C   0  0  0  0  0  0  0  0  0  0  0  0
   -1.5601   -2.3248   -0.6015 C   0  0  0  0  0  0  0  0  0  0  0  0
   -2.7842   -1.7129   -0.7313 C   0  0  0  0  0  0  0  0  0  0  0  0
   -2.9057   -0.3128   -0.7836 N   0  0  0  0  0  0  0  0  0  0  0  0
   -4.2222    0.3293   -0.8798 C   0  0  0  0  0  0  0  0  0  0  0  0
   -4.8851    0.2974    0.4660 C   0  0  0  0  0  0  0  0  0  0  0  0
   -4.0077    1.0293    1.3204 O   0  0  0  0  0  0  0  0  0  0  0  0
   -6.1724    1.0212    0.4860 C   0  0  0  0  0  0  0  0  0  0  0  0
   -6.7038    1.4629    1.6799 C   0  0  0  0  0  0  0  0  0  0  0  0
   -7.8852    2.1377    1.7771 C   0  0  0  0  0  0  0  0  0  0  0  0
   -8.5948    2.3964    0.6164 C   0  0  0  0  0  0  0  0  0  0  0  0
   -8.1102    1.9776   -0.6052 C   0  0  0  0  0  0  0  0  0  0  0  0
   -9.0214    2.3114   -2.0856 Cl  0  0  0  0  0  0  0  0  0  0  0  0
   -6.8958    1.2895   -0.6590 C   0  0  0  0  0  0  0  0  0  0  0  0
   -3.9618   -2.4901   -0.8624 C   0  0  0  0  0  0  0  0  0  0  0  0
   -3.8580   -3.8488   -0.8564 C   0  0  0  0  0  0  0  0  0  0  0  0
   -2.6654   -4.4548   -0.7301 N   0  0  0  0  0  0  0  0  0  0  0  0
   -1.5338   -3.7033   -0.6048 C   0  0  0  0  0  0  0  0  0  0  0  0
   -0.4739   -4.3454   -0.4934 O   0  0  0  0  0  0  0  0  0  0  0  0
   -0.1477   -0.2239   -0.4071 N   0  0  0  0  0  0  0  0  0  0  0  0
    1.1448    0.0774   -0.2570 C   0  0  0  0  0  0  0  0  0  0  0  0
    0.6976    2.8954    0.7692 H   0  0  0  0  0  0  0  0  0  0  0  0
    1.7766    3.3504   -0.6153 H   0  0  0  0  0  0  0  0  0  0  0  0
    0.2521    2.5207   -0.9907 H   0  0  0  0  0  0  0  0  0  0  0  0
    3.7204    2.1782    0.0679 H   0  0  0  0  0  0  0  0  0  0  0  0
    8.7889    2.4584    0.2600 H   0  0  0  0  0  0  0  0  0  0  0  0
    9.2031    1.0432   -0.8496 H   0  0  0  0  0  0  0  0  0  0  0  0
    7.7302    2.0493   -1.1984 H   0  0  0  0  0  0  0  0  0  0  0  0
    8.9108    0.2538    1.9951 H   0  0  0  0  0  0  0  0  0  0  0  0
    7.2309    0.3578    2.5746 H   0  0  0  0  0  0  0  0  0  0  0  0
    8.1462    1.9091    2.2519 H   0  0  0  0  0  0  0  0  0  0  0  0
    7.8648   -0.8519   -0.9474 H   0  0  0  0  0  0  0  0  0  0  0  0
    8.2215   -1.2663    0.7986 H   0  0  0  0  0  0  0  0  0  0  0  0
    5.9303   -2.0761    0.4315 H   0  0  0  0  0  0  0  0  0  0  0  0
    3.7549   -2.0623    0.0001 H   0  0  0  0  0  0  0  0  0  0  0  0
    1.2164   -3.0794   -0.3025 H   0  0  0  0  0  0  0  0  0  0  0  0
   -2.1049    0.3194   -0.7641 H   0  0  0  0  0  0  0  0  0  0  0  0
   -4.8456   -0.1082   -1.6557 H   0  0  0  0  0  0  0  0  0  0  0  0
   -4.1018    1.4197   -1.1342 H   0  0  0  0  0  0  0  0  0  0  0  0
   -5.0527   -0.6912    0.8718 H   0  0  0  0  0  0  0  0  0  0  0  0
   -4.1580    0.6506    2.2336 H   0  0  0  0  0  0  0  0  0  0  0  0
   -6.1659    1.2739    2.6193 H   0  0  0  0  0  0  0  0  0  0  0  0
   -8.2511    2.4591    2.7423 H   0  0  0  0  0  0  0  0  0  0  0  0
   -9.5429    2.9403    0.7134 H   0  0  0  0  0  0  0  0  0  0  0  0
   -6.5560    0.9815   -1.6335 H   0  0  0  0  0  0  0  0  0  0  0  0
   -4.9185   -1.9794   -0.9831 H   0  0  0  0  0  0  0  0  0  0  0  0
   -4.7562   -4.4639   -0.9557 H   0  0  0  0  0  0  0  0  0  0  0  0
   -2.5615   -5.4888   -0.7233 H   0  0  0  0  0  0  0  0  0  0  0  0
  1  2  1  0
  2  3  2  0
  3  4  1  0
  4  5  1  0
  5  6  2  0
  6  7  1  0
  7  8  1  0
  7  9  1  0
  7 10  1  0
 10 11  1  0
  4 12  2  0
 12 13  1  0
 13 14  1  0
 14 15  1  0
 15 16  1  0
 16 17  2  0
 17 18  1  0
 18 19  1  0
 19 20  1  0
 20 21  1  0
 20 22  1  0
 22 23  2  0
 23 24  1  0
 24 25  2  0
 25 26  1  0
 26 27  1  0
 26 28  2  0
 17 29  1  0
 29 30  2  0
 30 31  1  0
 31 32  1  0
 32 33  2  0
 15 34  2  0
 34 35  1  0
 35  2  1  0
 11  5  1  0
 35 13  2  0
 32 16  1  0
 28 22  1  0
  1 36  1  0
  1 37  1  0
  1 38  1  0
  3 39  1  0
  8 40  1  0
  8 41  1  0
  8 42  1  0
  9 43  1  0
  9 44  1  0
  9 45  1  0
 10 46  1  0
 10 47  1  0
 11 48  1  0
 12 49  1  0
 14 50  1  0
 18 51  1  0
 19 52  1  0
 19 53  1  0
 20 54  1  0
 21 55  1  0
 23 56  1  0
 24 57  1  0
 25 58  1  0
 28 59  1  0
 29 60  1  0
 30 61  1  0
 31 62  1  0
M  END
$$$$
