
     RDKit          3D

 37 40  0  0  0  0  0  0  0  0999 V2000
    4.4668   -1.0565   -0.7038 C   0  0  0  0  0  0  0  0  0  0  0  0
    3.7397   -0.6695    0.4301 O   0  0  0  0  0  0  0  0  0  0  0  0
    2.7292    0.2634    0.4710 C   0  0  0  0  0  0  0  0  0  0  0  0
    3.0709    1.5773    0.7161 C   0  0  0  0  0  0  0  0  0  0  0  0
    4.4194    1.9065    0.9113 O   0  0  0  0  0  0  0  0  0  0  0  0
    2.0809    2.5402    0.7642 C   0  0  0  0  0  0  0  0  0  0  0  0
    0.7680    2.1644    0.5652 C   0  0  0  0  0  0  0  0  0  0  0  0
    0.3749    0.8712    0.3177 C   0  0  0  0  0  0  0  0  0  0  0  0
    1.3964   -0.0528    0.2792 C   0  0  0  0  0  0  0  0  0  0  0  0
    1.0815   -1.3768    0.0341 C   0  0  0  0  0  0  0  0  0  0  0  0
   -0.2491   -1.6757   -0.1560 C   0  0  0  0  0  0  0  0  0  0  0  0
   -1.2435   -0.7263   -0.1101 C   0  0  0  0  0  0  0  0  0  0  0  0
   -0.9379    0.5952    0.1334 C   0  0  0  0  0  0  0  0  0  0  0  0
   -1.9609    1.5115    0.1708 C   0  0  0  0  0  0  0  0  0  0  0  0
   -3.2762    1.1584   -0.0254 C   0  0  0  0  0  0  0  0  0  0  0  0
   -4.0446    2.3386    0.0804 O   0  0  0  0  0  0  0  0  0  0  0  0
   -3.1195    3.4029   -0.2101 C   0  0  0  0  0  0  0  0  0  0  0  0
   -1.9623    2.8698    0.3881 O   0  0  0  0  0  0  0  0  0  0  0  0
   -3.5962   -0.1326   -0.2647 C   0  0  0  0  0  0  0  0  0  0  0  0
   -2.5692   -1.0496   -0.3018 C   0  0  0  0  0  0  0  0  0  0  0  0
   -2.9876   -2.4154   -0.5485 C   0  0  0  0  0  0  0  0  0  0  0  0
   -3.0538   -3.7617   -0.7513 O   0  0  0  0  0  0  0  0  0  0  0  0
   -4.2243   -2.7134   -0.7351 O   0  0  0  0  0  0  0  0  0  0  0  0
   -0.5424   -3.0363   -0.4131 N   0  0  0  0  0  4  0  0  0  0  0  0
    0.2339   -4.0012    0.1544 O   0  0  0  0  0  1  0  0  0  0  0  0
   -0.0004   -4.0882   -0.0253 O   0  0  0  0  0  0  0  0  0  0  0  0
    5.4831   -1.4145   -0.3814 H   0  0  0  0  0  0  0  0  0  0  0  0
    4.6365   -0.2399   -1.4227 H   0  0  0  0  0  0  0  0  0  0  0  0
    3.9782   -1.8799   -1.2482 H   0  0  0  0  0  0  0  0  0  0  0  0
    4.8790    1.7609    1.8050 H   0  0  0  0  0  0  0  0  0  0  0  0
    2.4274    3.5473    0.9619 H   0  0  0  0  0  0  0  0  0  0  0  0
    0.1145    3.0103    0.6313 H   0  0  0  0  0  0  0  0  0  0  0  0
    1.8572   -2.1180   -0.0015 H   0  0  0  0  0  0  0  0  0  0  0  0
   -3.4685    4.3379    0.2636 H   0  0  0  0  0  0  0  0  0  0  0  0
   -3.0502    3.4372   -1.3054 H   0  0  0  0  0  0  0  0  0  0  0  0
   -4.6228   -0.3885   -0.4145 H   0  0  0  0  0  0  0  0  0  0  0  0
   -2.8280   -4.4961   -0.0589 H   0  0  0  0  0  0  0  0  0  0  0  0
  1  2  1  0
  2  3  1  0
  3  4  2  0
  4  5  1  0
  4  6  1  0
  6  7  2  0
  7  8  1  0
  8  9  2  0
  9 10  1  0
 10 11  2  0
 11 12  1  0
 12 13  2  0
 13 14  1  0
 14 15  2  0
 15 16  1  0
 16 17  1  0
 17 18  1  0
 15 19  1  0
 19 20  2  0
 20 21  1  0
 21 22  1  0
 21 23  2  0
 11 24  1  0
 24 25  1  0
 24 26  2  0
  9  3  1  0
 20 12  1  0
 13  8  1  0
 18 14  1  0
  1 27  1  0
  1 28  1  0
  1 29  1  0
  5 30  1  0
  6 31  1  0
  7 32  1  0
 10 33  1  0
 17 34  1  0
 17 35  1  0
 19 36  1  0
 22 37  1  0
M  CHG  2  24   1  25  -1
M  END
$$$$
