
     RDKit          3D

 49 51  0  0  0  0  0  0  0  0999 V2000
    4.3249   -2.0101    1.4136 C   0  0  0  0  0  0  0  0  0  0  0  0
    3.9204   -2.3027    0.0549 N   0  0  0  0  0  0  0  0  0  0  0  0
    3.2594   -1.1371   -0.5019 C   0  0  0  0  0  0  0  0  0  0  0  0
    1.9444   -0.9402    0.2088 C   0  0  1  0  0  0  0  0  0  0  0  0
    2.0329   -0.7366    1.5634 O   0  0  0  0  0  0  0  0  0  0  0  0
    0.9440   -0.1286   -0.5246 C   0  0  2  0  0  0  0  0  0  0  0  0
    1.1380    1.3301   -0.5325 C   0  0  0  0  0  0  0  0  0  0  0  0
    2.1575    2.0341    0.0178 C   0  0  0  0  0  0  0  0  0  0  0  0
    2.2540    3.4185   -0.0539 C   0  0  0  0  0  0  0  0  0  0  0  0
    1.2828    4.1241   -0.7068 C   0  0  0  0  0  0  0  0  0  0  0  0
    0.2403    3.4389   -1.2723 C   0  0  0  0  0  0  0  0  0  0  0  0
   -0.7062    4.1819   -1.9134 F   0  0  0  0  0  0  0  0  0  0  0  0
    0.1552    2.0654   -1.1950 C   0  0  0  0  0  0  0  0  0  0  0  0
   -0.4089   -0.4237   -0.0471 N   0  0  0  0  0  0  0  0  0  0  0  0
   -0.9219   -0.2513    1.2953 C   0  0  0  0  0  0  0  0  0  0  0  0
   -2.3928    0.0538    1.0865 C   0  0  0  0  0  0  0  0  0  0  0  0
   -3.2303   -0.5166    2.2117 C   0  0  0  0  0  0  0  0  0  0  0  0
   -2.5948    1.5301    0.9068 C   0  0  0  0  0  0  0  0  0  0  0  0
   -2.6927   -0.6758   -0.1695 C   0  0  0  0  0  0  0  0  0  0  0  0
   -3.9104   -1.0620   -0.6834 C   0  0  0  0  0  0  0  0  0  0  0  0
   -3.9814   -1.7444   -1.8904 C   0  0  0  0  0  0  0  0  0  0  0  0
   -2.7951   -2.0155   -2.5446 C   0  0  0  0  0  0  0  0  0  0  0  0
   -1.5666   -1.6184   -2.0131 C   0  0  0  0  0  0  0  0  0  0  0  0
   -0.4176   -1.8951   -2.6690 F   0  0  0  0  0  0  0  0  0  0  0  0
   -1.5069   -0.9433   -0.8170 C   0  0  0  0  0  0  0  0  0  0  0  0
    5.3368   -2.4670    1.5647 H   0  0  0  0  0  0  0  0  0  0  0  0
    4.4401   -0.9174    1.4906 H   0  0  0  0  0  0  0  0  0  0  0  0
    3.5777   -2.4370    2.0921 H   0  0  0  0  0  0  0  0  0  0  0  0
    4.7325   -2.5156   -0.5689 H   0  0  0  0  0  0  0  0  0  0  0  0
    3.9356   -0.2962   -0.5206 H   0  0  0  0  0  0  0  0  0  0  0  0
    3.0049   -1.3518   -1.5724 H   0  0  0  0  0  0  0  0  0  0  0  0
    1.4953   -2.0095    0.1607 H   0  0  0  0  0  0  0  0  0  0  0  0
    1.4813   -1.2898    2.1337 H   0  0  0  0  0  0  0  0  0  0  0  0
    0.9707   -0.4514   -1.5860 H   0  0  0  0  0  0  0  0  0  0  0  0
    2.9195    1.5206    0.5373 H   0  0  0  0  0  0  0  0  0  0  0  0
    3.0737    3.9649    0.3892 H   0  0  0  0  0  0  0  0  0  0  0  0
    1.3581    5.2169   -0.7642 H   0  0  0  0  0  0  0  0  0  0  0  0
   -0.6911    1.5826   -1.6609 H   0  0  0  0  0  0  0  0  0  0  0  0
   -0.4809    0.5696    1.8508 H   0  0  0  0  0  0  0  0  0  0  0  0
   -0.8911   -1.2060    1.8828 H   0  0  0  0  0  0  0  0  0  0  0  0
   -2.5834   -1.2539    2.7492 H   0  0  0  0  0  0  0  0  0  0  0  0
   -3.5104    0.2703    2.9225 H   0  0  0  0  0  0  0  0  0  0  0  0
   -4.1054   -1.0262    1.7855 H   0  0  0  0  0  0  0  0  0  0  0  0
   -1.7483    2.1455    1.2788 H   0  0  0  0  0  0  0  0  0  0  0  0
   -3.5350    1.8841    1.3939 H   0  0  0  0  0  0  0  0  0  0  0  0
   -2.6876    1.7485   -0.1925 H   0  0  0  0  0  0  0  0  0  0  0  0
   -4.8487   -0.8609   -0.1895 H   0  0  0  0  0  0  0  0  0  0  0  0
   -4.9523   -2.0433   -2.2850 H   0  0  0  0  0  0  0  0  0  0  0  0
   -2.8204   -2.5525   -3.5009 H   0  0  0  0  0  0  0  0  0  0  0  0
  1  2  1  0
  2  3  1  0
  3  4  1  0
  4  5  1  0
  4  6  1  0
  6  7  1  0
  7  8  2  0
  8  9  1  0
  9 10  2  0
 10 11  1  0
 11 12  1  0
 11 13  2  0
  6 14  1  0
 14 15  1  0
 15 16  1  0
 16 17  1  0
 16 18  1  0
 16 19  1  0
 19 20  2  0
 20 21  1  0
 21 22  2  0
 22 23  1  0
 23 24  1  0
 23 25  2  0
 13  7  1  0
 25 14  1  0
 25 19  1  0
  1 26  1  0
  1 27  1  0
  1 28  1  0
  2 29  1  0
  3 30  1  0
  3 31  1  0
  4 32  1  1
  5 33  1  0
  6 34  1  6
  8 35  1  0
  9 36  1  0
 10 37  1  0
 13 38  1  0
 15 39  1  0
 15 40  1  0
 17 41  1  0
 17 42  1  0
 17 43  1  0
 18 44  1  0
 18 45  1  0
 18 46  1  0
 20 47  1  0
 21 48  1  0
 22 49  1  0
M  END
$$$$
