
     RDKit          3D

 63 69  0  0  0  0  0  0  0  0999 V2000
    1.8062   -3.6005   -2.4101 O   0  0  0  0  0  0  0  0  0  0  0  0
    2.8776   -3.1231   -1.9528 C   0  0  0  0  0  0  0  0  0  0  0  0
    4.2049   -3.4462   -2.3374 N   0  0  0  0  0  0  0  0  0  0  0  0
    5.0393   -2.6131   -1.5007 C   0  0  0  0  0  0  0  0  0  0  0  0
    6.2870   -2.6596   -1.5926 O   0  0  0  0  0  0  0  0  0  0  0  0
    4.1861   -1.8108   -0.6343 C   0  0  0  0  0  0  0  0  0  0  0  0
    4.6321   -0.8824    0.3985 C   0  0  0  0  0  0  0  0  0  0  0  0
    4.1216   -0.8251    1.7022 C   0  0  0  0  0  0  0  0  0  0  0  0
    4.7672    0.1406    2.3399 N   0  0  0  0  0  0  0  0  0  0  0  0
    5.6752    0.7178    1.5172 C   0  0  0  0  0  0  0  0  0  0  0  0
    6.5815    1.7355    1.6600 C   0  0  0  0  0  0  0  0  0  0  0  0
    7.4075    2.1473    0.6478 C   0  0  0  0  0  0  0  0  0  0  0  0
    7.3019    1.4942   -0.5540 C   0  0  0  0  0  0  0  0  0  0  0  0
    6.3688    0.4616   -0.6667 C   0  0  0  0  0  0  0  0  0  0  0  0
    5.5702    0.0783    0.3481 N   0  0  0  0  0  0  0  0  0  0  0  0
    2.9238   -2.0972   -0.8871 C   0  0  0  0  0  0  0  0  0  0  0  0
    1.7824   -1.4785   -0.2381 C   0  0  0  0  0  0  0  0  0  0  0  0
    0.7171   -2.1546    0.3785 C   0  0  0  0  0  0  0  0  0  0  0  0
   -0.1653   -1.3027    0.8533 N   0  0  0  0  0  0  0  0  0  0  0  0
    0.2777   -0.0584    0.5720 C   0  0  0  0  0  0  0  0  0  0  0  0
   -0.3030    1.1716    0.8542 C   0  0  0  0  0  0  0  0  0  0  0  0
    0.3106    2.3259    0.4613 C   0  0  0  0  0  0  0  0  0  0  0  0
    1.5083    2.2394   -0.2146 C   0  0  0  0  0  0  0  0  0  0  0  0
    2.1134    3.3885   -0.6046 F   0  0  0  0  0  0  0  0  0  0  0  0
    2.1040    1.0043   -0.5031 C   0  0  0  0  0  0  0  0  0  0  0  0
    1.4594   -0.1345   -0.0922 C   0  0  0  0  0  0  0  0  0  0  0  0
   -1.5678    1.3656    1.5973 C   0  0  0  0  0  0  0  0  0  0  0  0
   -2.5944    0.5163    0.9485 N   0  0  0  0  0  0  0  0  0  0  0  0
   -3.7115    1.2334    0.5520 C   0  0  0  0  0  0  0  0  0  0  0  0
   -3.6684    2.5218    0.8403 O   0  0  0  0  0  0  0  0  0  0  0  0
   -4.8616    0.8088   -0.0963 N   0  0  0  0  0  0  0  0  0  0  0  0
   -5.1681   -0.5102   -0.5504 C   0  0  0  0  0  0  0  0  0  0  0  0
   -6.3629   -0.4220   -1.5288 C   0  0  0  0  0  0  0  0  0  0  0  0
   -7.5680   -0.0064   -0.7585 C   0  0  0  0  0  0  0  0  0  0  0  0
   -7.2329    1.1885    0.1248 C   0  0  0  0  0  0  0  0  0  0  0  0
   -5.9528    1.8021   -0.3640 C   0  0  0  0  0  0  0  0  0  0  0  0
   -2.5359   -0.8887    0.7331 C   0  0  0  0  0  0  0  0  0  0  0  0
   -1.4145   -1.5559    1.5515 C   0  0  0  0  0  0  0  0  0  0  0  0
    4.5232   -4.1244   -3.0560 H   0  0  0  0  0  0  0  0  0  0  0  0
    3.3547   -1.4591    2.0722 H   0  0  0  0  0  0  0  0  0  0  0  0
    6.6727    2.2640    2.6152 H   0  0  0  0  0  0  0  0  0  0  0  0
    8.1247    2.9420    0.7411 H   0  0  0  0  0  0  0  0  0  0  0  0
    7.9254    1.7575   -1.4169 H   0  0  0  0  0  0  0  0  0  0  0  0
    6.3320    0.0018   -1.6394 H   0  0  0  0  0  0  0  0  0  0  0  0
    0.6599   -3.2286    0.4397 H   0  0  0  0  0  0  0  0  0  0  0  0
   -0.1700    3.2645    0.6977 H   0  0  0  0  0  0  0  0  0  0  0  0
    3.0284    0.9455   -1.0364 H   0  0  0  0  0  0  0  0  0  0  0  0
   -1.4738    0.9644    2.6246 H   0  0  0  0  0  0  0  0  0  0  0  0
   -1.9043    2.4050    1.6087 H   0  0  0  0  0  0  0  0  0  0  0  0
   -5.5792   -1.1276    0.2787 H   0  0  0  0  0  0  0  0  0  0  0  0
   -4.3240   -0.9681   -1.0823 H   0  0  0  0  0  0  0  0  0  0  0  0
   -6.4783   -1.4469   -1.9509 H   0  0  0  0  0  0  0  0  0  0  0  0
   -6.0577    0.2864   -2.3130 H   0  0  0  0  0  0  0  0  0  0  0  0
   -7.8523   -0.8344   -0.0735 H   0  0  0  0  0  0  0  0  0  0  0  0
   -8.3882    0.3259   -1.4225 H   0  0  0  0  0  0  0  0  0  0  0  0
   -8.0225    1.9575    0.0950 H   0  0  0  0  0  0  0  0  0  0  0  0
   -7.0176    0.8336    1.1765 H   0  0  0  0  0  0  0  0  0  0  0  0
   -5.9558    2.0512   -1.4125 H   0  0  0  0  0  0  0  0  0  0  0  0
   -5.7246    2.7309    0.2037 H   0  0  0  0  0  0  0  0  0  0  0  0
   -3.4239   -1.4683    0.9823 H   0  0  0  0  0  0  0  0  0  0  0  0
   -2.2107   -1.0442   -0.3176 H   0  0  0  0  0  0  0  0  0  0  0  0
   -1.6006   -2.6259    1.5471 H   0  0  0  0  0  0  0  0  0  0  0  0
   -1.3537   -1.1744    2.5659 H   0  0  0  0  0  0  0  0  0  0  0  0
  1  2  2  0
  2  3  1  0
  3  4  1  0
  4  5  2  0
  4  6  1  0
  6  7  1  0
  7  8  2  0
  8  9  1  0
  9 10  2  0
 10 11  1  0
 11 12  2  0
 12 13  1  0
 13 14  2  0
 14 15  1  0
  6 16  2  0
 16 17  1  0
 17 18  2  0
 18 19  1  0
 19 20  1  0
 20 21  2  0
 21 22  1  0
 22 23  2  0
 23 24  1  0
 23 25  1  0
 25 26  2  0
 21 27  1  0
 27 28  1  0
 28 29  1  0
 29 30  2  0
 29 31  1  0
 31 32  1  0
 32 33  1  0
 33 34  1  0
 34 35  1  0
 35 36  1  0
 28 37  1  0
 37 38  1  0
 16  2  1  0
 26 17  1  0
 36 31  1  0
 15  7  1  0
 38 19  1  0
 15 10  1  0
 26 20  1  0
  3 39  1  0
  8 40  1  0
 11 41  1  0
 12 42  1  0
 13 43  1  0
 14 44  1  0
 18 45  1  0
 22 46  1  0
 25 47  1  0
 27 48  1  0
 27 49  1  0
 32 50  1  0
 32 51  1  0
 33 52  1  0
 33 53  1  0
 34 54  1  0
 34 55  1  0
 35 56  1  0
 35 57  1  0
 36 58  1  0
 36 59  1  0
 37 60  1  0
 37 61  1  0
 38 62  1  0
 38 63  1  0
M  END
$$$$
