
     RDKit          3D

 40 43  0  0  0  0  0  0  0  0999 V2000
    2.5640    4.3666   -1.1916 C   0  0  0  0  0  0  0  0  0  0  0  0
    2.2383    4.0430    0.2401 C   0  0  0  0  0  0  0  0  0  0  0  0
    1.5098    2.7311    0.3244 C   0  0  0  0  0  0  0  0  0  0  0  0
    2.0556    1.5226    0.4622 N   0  0  0  0  0  0  0  0  0  0  0  0
    1.0810    0.5705    0.5038 C   0  0  0  0  0  0  0  0  0  0  0  0
    1.3116   -0.8668    0.6486 C   0  0  0  0  0  0  0  0  0  0  0  0
    1.4350   -1.4653    1.8818 C   0  0  0  0  0  0  0  0  0  0  0  0
    1.6538   -2.8159    2.0422 C   0  0  0  0  0  0  0  0  0  0  0  0
    1.7552   -3.6154    0.9148 C   0  0  0  0  0  0  0  0  0  0  0  0
    1.6367   -3.0503   -0.3260 C   0  0  0  0  0  0  0  0  0  0  0  0
    1.7447   -3.9060   -1.5458 C   0  0  0  0  0  0  0  0  0  0  0  0
    1.4145   -1.6732   -0.4635 C   0  0  0  0  0  0  0  0  0  0  0  0
   -0.1010    1.2462    0.3852 C   0  0  0  0  0  0  0  0  0  0  0  0
   -1.4206    0.6162    0.3802 C   0  0  0  0  0  0  0  0  0  0  0  0
   -1.8677   -0.1011    1.4684 C   0  0  0  0  0  0  0  0  0  0  0  0
   -3.1014   -0.6915    1.4764 C   0  0  0  0  0  0  0  0  0  0  0  0
   -3.9346   -0.5737    0.3685 C   0  0  0  0  0  0  0  0  0  0  0  0
   -5.1814   -1.0588    0.1389 N   0  0  0  0  0  0  0  0  0  0  0  0
   -5.5238   -0.6499   -1.0916 C   0  0  0  0  0  0  0  0  0  0  0  0
   -4.4988    0.0648   -1.5834 N   0  0  0  0  0  0  0  0  0  0  0  0
   -3.5018    0.1234   -0.6907 N   0  0  0  0  0  0  0  0  0  0  0  0
   -2.2907    0.7048   -0.7032 C   0  0  0  0  0  0  0  0  0  0  0  0
    0.1815    2.5567    0.2775 N   0  0  0  0  0  0  0  0  0  0  0  0
    1.9402    5.2197   -1.5269 H   0  0  0  0  0  0  0  0  0  0  0  0
    3.6209    4.7186   -1.2190 H   0  0  0  0  0  0  0  0  0  0  0  0
    2.4570    3.4826   -1.8582 H   0  0  0  0  0  0  0  0  0  0  0  0
    3.1525    3.9914    0.8576 H   0  0  0  0  0  0  0  0  0  0  0  0
    1.5467    4.7901    0.6776 H   0  0  0  0  0  0  0  0  0  0  0  0
    1.3583   -0.8574    2.7708 H   0  0  0  0  0  0  0  0  0  0  0  0
    1.7507   -3.2840    3.0212 H   0  0  0  0  0  0  0  0  0  0  0  0
    1.9277   -4.6767    1.0577 H   0  0  0  0  0  0  0  0  0  0  0  0
    0.7734   -3.9829   -2.0499 H   0  0  0  0  0  0  0  0  0  0  0  0
    2.0277   -4.9329   -1.2369 H   0  0  0  0  0  0  0  0  0  0  0  0
    2.5572   -3.5497   -2.2068 H   0  0  0  0  0  0  0  0  0  0  0  0
    1.3298   -1.2912   -1.4703 H   0  0  0  0  0  0  0  0  0  0  0  0
   -1.1852   -0.1702    2.3169 H   0  0  0  0  0  0  0  0  0  0  0  0
   -3.4433   -1.2546    2.3402 H   0  0  0  0  0  0  0  0  0  0  0  0
   -6.4782   -0.8884   -1.5530 H   0  0  0  0  0  0  0  0  0  0  0  0
   -1.9711    1.2608   -1.5756 H   0  0  0  0  0  0  0  0  0  0  0  0
   -0.5238    3.3465    0.1714 H   0  0  0  0  0  0  0  0  0  0  0  0
  1  2  1  0
  2  3  1  0
  3  4  2  0
  4  5  1  0
  5  6  1  0
  6  7  2  0
  7  8  1  0
  8  9  2  0
  9 10  1  0
 10 11  1  0
 10 12  2  0
  5 13  2  0
 13 14  1  0
 14 15  1  0
 15 16  2  0
 16 17  1  0
 17 18  2  0
 18 19  1  0
 19 20  2  0
 20 21  1  0
 21 22  1  0
 13 23  1  0
 23  3  1  0
 12  6  1  0
 22 14  2  0
 21 17  1  0
  1 24  1  0
  1 25  1  0
  1 26  1  0
  2 27  1  0
  2 28  1  0
  7 29  1  0
  8 30  1  0
  9 31  1  0
 11 32  1  0
 11 33  1  0
 11 34  1  0
 12 35  1  0
 15 36  1  0
 16 37  1  0
 19 38  1  0
 22 39  1  0
 23 40  1  0
M  END
$$$$
