
     RDKit          3D

 30 31  0  0  0  0  0  0  0  0999 V2000
   -1.6353   -2.5791    0.1268 C   0  0  0  0  0  0  0  0  0  0  0  0
   -0.2191   -2.0939   -0.0943 C   0  0  0  0  0  0  0  0  0  0  0  0
   -0.1645   -0.6070   -0.2568 C   0  0  0  0  0  0  0  0  0  0  0  0
   -0.9600   -0.1966   -1.3967 N   0  0  0  0  0  0  0  0  0  0  0  0
   -1.8510    0.8674   -1.0900 C   0  0  0  0  0  0  0  0  0  0  0  0
   -2.4519    1.5139   -1.9667 O   0  0  0  0  0  0  0  0  0  0  0  0
   -1.8483    0.9572    0.3264 N   0  0  0  0  0  0  0  0  0  0  0  0
   -2.6402    1.9320    1.0436 C   0  0  0  0  0  0  0  0  0  0  0  0
   -0.9752   -0.0301    0.8703 C   0  0  0  0  0  0  0  0  0  0  0  0
   -0.8966   -0.3621    2.0877 O   0  0  0  0  0  0  0  0  0  0  0  0
    1.1623   -0.0211   -0.1886 C   0  0  0  0  0  0  0  0  0  0  0  0
    2.2900   -0.7798   -0.3236 C   0  0  0  0  0  0  0  0  0  0  0  0
    3.5186   -0.1563   -0.2481 C   0  0  0  0  0  0  0  0  0  0  0  0
    3.6101    1.2101   -0.0400 C   0  0  0  0  0  0  0  0  0  0  0  0
    2.4744    2.0059    0.1007 C   0  0  0  0  0  0  0  0  0  0  0  0
    1.2343    1.3585    0.0218 C   0  0  0  0  0  0  0  0  0  0  0  0
   -1.8469   -3.5264   -0.4018 H   0  0  0  0  0  0  0  0  0  0  0  0
   -1.7684   -2.7485    1.2311 H   0  0  0  0  0  0  0  0  0  0  0  0
   -2.3277   -1.7983   -0.2513 H   0  0  0  0  0  0  0  0  0  0  0  0
    0.4061   -2.4982    0.6910 H   0  0  0  0  0  0  0  0  0  0  0  0
    0.1109   -2.5458   -1.0641 H   0  0  0  0  0  0  0  0  0  0  0  0
   -0.8209   -0.6950   -2.3156 H   0  0  0  0  0  0  0  0  0  0  0  0
   -3.7009    1.6420    0.8858 H   0  0  0  0  0  0  0  0  0  0  0  0
   -2.4800    2.9145    0.5461 H   0  0  0  0  0  0  0  0  0  0  0  0
   -2.3545    1.9451    2.1115 H   0  0  0  0  0  0  0  0  0  0  0  0
    2.2573   -1.8486   -0.4870 H   0  0  0  0  0  0  0  0  0  0  0  0
    4.4638   -0.6501   -0.3394 H   0  0  0  0  0  0  0  0  0  0  0  0
    4.5551    1.7644    0.0295 H   0  0  0  0  0  0  0  0  0  0  0  0
    2.5438    3.0771    0.2639 H   0  0  0  0  0  0  0  0  0  0  0  0
    0.3146    1.9487    0.1274 H   0  0  0  0  0  0  0  0  0  0  0  0
  1  2  1  0
  2  3  1  0
  3  4  1  0
  4  5  1  0
  5  6  2  0
  5  7  1  0
  7  8  1  0
  7  9  1  0
  9 10  2  0
  3 11  1  0
 11 12  2  0
 12 13  1  0
 13 14  2  0
 14 15  1  0
 15 16  2  0
  9  3  1  0
 16 11  1  0
  1 17  1  0
  1 18  1  0
  1 19  1  0
  2 20  1  0
  2 21  1  0
  4 22  1  0
  8 23  1  0
  8 24  1  0
  8 25  1  0
 12 26  1  0
 13 27  1  0
 14 28  1  0
 15 29  1  0
 16 30  1  0
M  END
$$$$
