
     RDKit          3D

 37 40  0  0  0  0  0  0  0  0999 V2000
   -1.3919   -1.7700   -0.8913 C   0  0  2  0  0  0  0  0  0  0  0  0
    0.0174   -1.8802   -0.5185 C   0  0  0  0  0  0  0  0  0  0  0  0
    0.8485   -0.6908   -0.2964 C   0  0  1  0  0  0  0  0  0  0  0  0
    0.4947    0.2559    0.7487 C   0  0  0  0  0  0  0  0  0  0  0  0
   -0.3960    0.5633    1.5934 O   0  0  0  0  0  0  0  0  0  0  0  0
    1.5151    1.1890    0.8868 O   0  0  0  0  0  0  0  0  0  0  0  0
    2.8468    1.0029    0.6396 C   0  0  0  0  0  0  0  0  0  0  0  0
    3.3199   -0.2357    0.1936 C   0  0  0  0  0  0  0  0  0  0  0  0
    4.6415   -0.5901   -0.1020 C   0  0  0  0  0  0  0  0  0  0  0  0
    5.5637    0.4197    0.0757 C   0  0  0  0  0  0  0  0  0  0  0  0
    5.1642    1.6646    0.5125 C   0  0  0  0  0  0  0  0  0  0  0  0
    3.8466    1.9603    0.7899 C   0  0  0  0  0  0  0  0  0  0  0  0
    2.2268   -1.2233    0.0460 C   0  0  0  0  0  0  0  0  0  0  0  0
    2.5005   -2.4562    0.2129 O   0  0  0  0  0  0  0  0  0  0  0  0
   -1.6717   -1.0403   -2.1388 C   0  0  0  0  0  0  0  0  0  0  0  0
   -1.0959   -1.4039   -3.1985 O   0  0  0  0  0  0  0  0  0  0  0  0
   -2.5443    0.0391   -2.2170 O   0  0  0  0  0  0  0  0  0  0  0  0
   -3.2700    0.4963   -1.1266 C   0  0  0  0  0  0  0  0  0  0  0  0
   -4.1422    1.5619   -1.1698 C   0  0  0  0  0  0  0  0  0  0  0  0
   -4.8407    1.9668   -0.0284 C   0  0  0  0  0  0  0  0  0  0  0  0
   -4.6538    1.2826    1.1765 C   0  0  0  0  0  0  0  0  0  0  0  0
   -3.7824    0.2041    1.2560 C   0  0  0  0  0  0  0  0  0  0  0  0
   -3.1309   -0.1349    0.0896 C   0  0  0  0  0  0  0  0  0  0  0  0
   -2.2186   -1.2837    0.2246 C   0  0  0  0  0  0  0  0  0  0  0  0
   -1.9954   -2.0045    1.2333 O   0  0  0  0  0  0  0  0  0  0  0  0
   -1.8160   -2.8185   -1.1023 H   0  0  0  0  0  0  0  0  0  0  0  0
    0.5362   -2.4727   -1.3384 H   0  0  0  0  0  0  0  0  0  0  0  0
    0.1703   -2.5603    0.3763 H   0  0  0  0  0  0  0  0  0  0  0  0
    1.0231   -0.1192   -1.2663 H   0  0  0  0  0  0  0  0  0  0  0  0
    4.8098   -1.5991   -0.4340 H   0  0  0  0  0  0  0  0  0  0  0  0
    6.5872    0.1555   -0.1501 H   0  0  0  0  0  0  0  0  0  0  0  0
    5.9397    2.4241    0.6342 H   0  0  0  0  0  0  0  0  0  0  0  0
    3.5399    2.9458    1.1343 H   0  0  0  0  0  0  0  0  0  0  0  0
   -4.2828    2.0850   -2.0982 H   0  0  0  0  0  0  0  0  0  0  0  0
   -5.5254    2.7956   -0.0416 H   0  0  0  0  0  0  0  0  0  0  0  0
   -5.1928    1.5914    2.0670 H   0  0  0  0  0  0  0  0  0  0  0  0
   -3.6411   -0.3207    2.1866 H   0  0  0  0  0  0  0  0  0  0  0  0
  1  2  1  0
  2  3  1  0
  3  4  1  0
  4  5  2  0
  4  6  1  0
  6  7  1  0
  7  8  2  0
  8  9  1  0
  9 10  2  0
 10 11  1  0
 11 12  2  0
  8 13  1  0
 13 14  2  0
  1 15  1  0
 15 16  2  0
 15 17  1  0
 17 18  1  0
 18 19  2  0
 19 20  1  0
 20 21  2  0
 21 22  1  0
 22 23  2  0
 23 24  1  0
 24 25  2  0
 24  1  1  0
 13  3  1  0
 23 18  1  0
 12  7  1  0
  1 26  1  6
  2 27  1  0
  2 28  1  0
  3 29  1  6
  9 30  1  0
 10 31  1  0
 11 32  1  0
 12 33  1  0
 19 34  1  0
 20 35  1  0
 21 36  1  0
 22 37  1  0
M  END
$$$$
