
     RDKit          3D

 72 76  0  0  0  0  0  0  0  0999 V2000
   -6.5907    1.4502    1.3153 O   0  0  0  0  0  0  0  0  0  0  0  0
   -7.2465    0.4183    1.0699 C   0  0  0  0  0  0  0  0  0  0  0  0
   -6.5912   -0.8322    1.0968 N   0  0  0  0  0  0  0  0  0  0  0  0
   -5.1806   -0.8722    1.4070 C   0  0  0  0  0  0  0  0  0  0  0  0
   -4.4105   -0.0907    0.4064 C   0  0  0  0  0  0  0  0  0  0  0  0
   -5.0119    0.4902   -0.5445 O   0  0  0  0  0  0  0  0  0  0  0  0
   -2.9902    0.0296    0.4810 N   0  0  0  0  0  0  0  0  0  0  0  0
   -2.1960   -0.5873    1.5198 C   0  0  0  0  0  0  0  0  0  0  0  0
   -0.7528   -0.1498    1.1908 C   0  0  0  0  0  0  0  0  0  0  0  0
   -0.8211   -0.0575   -0.3070 C   0  0  2  0  0  0  0  0  0  0  0  0
    0.1884    0.6864   -0.9376 N   0  0  0  0  0  0  0  0  0  0  0  0
    1.5307    0.2336   -0.8939 C   0  0  1  0  0  0  0  0  0  0  0  0
    2.3132    1.1203   -1.8818 C   0  0  0  0  0  0  0  0  0  0  0  0
    3.6994    0.5691   -2.0976 C   0  0  0  0  0  0  0  0  0  0  0  0
    4.1507   -0.0139   -0.7787 C   0  0  1  0  0  0  0  0  0  0  0  0
    3.7421   -1.3488   -0.7172 O   0  0  0  0  0  0  0  0  0  0  0  0
    5.6548   -0.0521   -0.6933 C   0  0  0  0  0  0  0  0  0  0  0  0
    6.1761   -0.5647    0.4806 C   0  0  0  0  0  0  0  0  0  0  0  0
    7.5598   -0.6218    0.6023 C   0  0  0  0  0  0  0  0  0  0  0  0
    8.3975   -0.1867   -0.4025 C   0  0  0  0  0  0  0  0  0  0  0  0
    9.8443   -0.2623   -0.2409 C   0  0  0  0  0  0  0  0  0  0  0  0
   10.3642   -0.7558    0.8960 N   0  0  0  0  0  0  0  0  0  0  0  0
   11.6883   -0.8520    1.1046 C   0  0  0  0  0  0  0  0  0  0  0  0
   12.5836   -0.4399    0.1416 C   0  0  0  0  0  0  0  0  0  0  0  0
   12.0445    0.0655   -1.0225 C   0  0  0  0  0  0  0  0  0  0  0  0
   10.7059    0.1424   -1.1864 N   0  0  0  0  0  0  0  0  0  0  0  0
    7.8206    0.3136   -1.5475 C   0  0  0  0  0  0  0  0  0  0  0  0
    6.4626    0.3648   -1.6560 N   0  0  0  0  0  0  0  0  0  0  0  0
    3.5753    0.8352    0.3105 C   0  0  0  0  0  0  0  0  0  0  0  0
    2.1091    0.4338    0.4937 C   0  0  0  0  0  0  0  0  0  0  0  0
   -2.1271    0.7611   -0.4434 C   0  0  0  0  0  0  0  0  0  0  0  0
   -8.6746    0.5152    0.7598 C   0  0  0  0  0  0  0  0  0  0  0  0
   -9.2862    1.7758    0.7478 C   0  0  0  0  0  0  0  0  0  0  0  0
  -10.6071    1.8986    0.4633 C   0  0  0  0  0  0  0  0  0  0  0  0
  -11.3664    0.7766    0.1809 C   0  0  0  0  0  0  0  0  0  0  0  0
  -10.8168   -0.4858    0.1787 C   0  0  0  0  0  0  0  0  0  0  0  0
  -11.6195   -1.6966   -0.1226 C   0  0  0  0  0  0  0  0  0  0  0  0
  -11.5244   -1.9804   -1.4609 F   0  0  0  0  0  0  0  0  0  0  0  0
  -12.9188   -1.5635    0.3096 F   0  0  0  0  0  0  0  0  0  0  0  0
  -11.0436   -2.7802    0.5489 F   0  0  0  0  0  0  0  0  0  0  0  0
   -9.4547   -0.5692    0.4765 C   0  0  0  0  0  0  0  0  0  0  0  0
   -7.0719   -1.7346    0.9035 H   0  0  0  0  0  0  0  0  0  0  0  0
   -4.9917   -0.5014    2.4487 H   0  0  0  0  0  0  0  0  0  0  0  0
   -4.7796   -1.9081    1.3676 H   0  0  0  0  0  0  0  0  0  0  0  0
   -2.3012   -1.6738    1.5172 H   0  0  0  0  0  0  0  0  0  0  0  0
   -2.4337   -0.1285    2.5089 H   0  0  0  0  0  0  0  0  0  0  0  0
   -0.5177    0.7890    1.6864 H   0  0  0  0  0  0  0  0  0  0  0  0
   -0.1156   -1.0100    1.5057 H   0  0  0  0  0  0  0  0  0  0  0  0
   -0.9895   -1.0699   -0.7626 H   0  0  0  0  0  0  0  0  0  0  0  0
   -0.0941    0.8964   -1.9171 H   0  0  0  0  0  0  0  0  0  0  0  0
    1.5418   -0.8268   -1.2168 H   0  0  0  0  0  0  0  0  0  0  0  0
    2.2799    2.1429   -1.5143 H   0  0  0  0  0  0  0  0  0  0  0  0
    1.7022    1.1010   -2.8226 H   0  0  0  0  0  0  0  0  0  0  0  0
    3.7831   -0.1199   -2.9378 H   0  0  0  0  0  0  0  0  0  0  0  0
    4.3617    1.4556   -2.3204 H   0  0  0  0  0  0  0  0  0  0  0  0
    3.7459   -1.6882   -1.6484 H   0  0  0  0  0  0  0  0  0  0  0  0
    5.5279   -0.9148    1.2886 H   0  0  0  0  0  0  0  0  0  0  0  0
    8.0218   -1.0135    1.4991 H   0  0  0  0  0  0  0  0  0  0  0  0
   12.0941   -1.2497    2.0223 H   0  0  0  0  0  0  0  0  0  0  0  0
   13.6610   -0.5070    0.2845 H   0  0  0  0  0  0  0  0  0  0  0  0
   12.7538    0.3886   -1.7770 H   0  0  0  0  0  0  0  0  0  0  0  0
    8.4662    0.6560   -2.3395 H   0  0  0  0  0  0  0  0  0  0  0  0
    4.1306    0.7563    1.2669 H   0  0  0  0  0  0  0  0  0  0  0  0
    3.5783    1.8950    0.0228 H   0  0  0  0  0  0  0  0  0  0  0  0
    2.1221   -0.5007    1.0716 H   0  0  0  0  0  0  0  0  0  0  0  0
    1.6582    1.2849    1.0317 H   0  0  0  0  0  0  0  0  0  0  0  0
   -2.4291    0.6680   -1.4910 H   0  0  0  0  0  0  0  0  0  0  0  0
   -1.9576    1.7954   -0.1530 H   0  0  0  0  0  0  0  0  0  0  0  0
   -8.6339    2.6279    0.9794 H   0  0  0  0  0  0  0  0  0  0  0  0
  -11.0534    2.9021    0.4631 H   0  0  0  0  0  0  0  0  0  0  0  0
  -12.4187    0.9428   -0.0389 H   0  0  0  0  0  0  0  0  0  0  0  0
   -9.0212   -1.5724    0.4744 H   0  0  0  0  0  0  0  0  0  0  0  0
  1  2  2  0
  2  3  1  0
  3  4  1  0
  4  5  1  0
  5  6  2  0
  5  7  1  0
  7  8  1  0
  8  9  1  0
  9 10  1  0
 10 11  1  0
 11 12  1  0
 12 13  1  0
 13 14  1  0
 14 15  1  0
 15 16  1  1
 15 17  1  0
 17 18  2  0
 18 19  1  0
 19 20  2  0
 20 21  1  0
 21 22  2  0
 22 23  1  0
 23 24  2  0
 24 25  1  0
 25 26  2  0
 20 27  1  0
 27 28  2  0
 15 29  1  0
 29 30  1  0
 10 31  1  0
  2 32  1  0
 32 33  2  0
 33 34  1  0
 34 35  2  0
 35 36  1  0
 36 37  1  0
 37 38  1  0
 37 39  1  0
 37 40  1  0
 36 41  2  0
 31  7  1  0
 41 32  1  0
 30 12  1  0
 28 17  1  0
 26 21  1  0
  3 42  1  0
  4 43  1  0
  4 44  1  0
  8 45  1  0
  8 46  1  0
  9 47  1  0
  9 48  1  0
 10 49  1  6
 11 50  1  0
 12 51  1  6
 13 52  1  0
 13 53  1  0
 14 54  1  0
 14 55  1  0
 16 56  1  0
 18 57  1  0
 19 58  1  0
 23 59  1  0
 24 60  1  0
 25 61  1  0
 27 62  1  0
 29 63  1  0
 29 64  1  0
 30 65  1  0
 30 66  1  0
 31 67  1  0
 31 68  1  0
 33 69  1  0
 34 70  1  0
 35 71  1  0
 41 72  1  0
M  END
$$$$
