
     RDKit          3D

 15 14  0  0  0  0  0  0  0  0999 V2000
   -1.0583    1.6223   -0.0082 O   0  0  0  0  0  0  0  0  0  0  0  0
   -0.7927    0.4166   -0.6541 C   0  0  0  0  0  0  0  0  0  0  0  0
   -0.6540   -0.7264    0.3020 C   0  0  1  0  0  0  0  0  0  0  0  0
   -0.3972   -1.8727   -0.4319 O   0  0  0  0  0  0  0  0  0  0  0  0
    0.4395   -0.4802    1.3313 C   0  0  0  0  0  0  0  0  0  0  0  0
    2.0424   -0.2537    0.5227 S   0  0  0  0  0  0  0  0  0  0  0  0
    2.1028    1.1721   -0.4136 O   0  0  0  0  0  0  0  0  0  0  0  0
   -0.6730    2.3670   -0.5284 H   0  0  0  0  0  0  0  0  0  0  0  0
   -1.6688    0.1656   -1.3082 H   0  0  0  0  0  0  0  0  0  0  0  0
    0.0658    0.4900   -1.3519 H   0  0  0  0  0  0  0  0  0  0  0  0
   -1.6281   -0.8577    0.8153 H   0  0  0  0  0  0  0  0  0  0  0  0
   -1.1983   -2.1364   -0.9452 H   0  0  0  0  0  0  0  0  0  0  0  0
    0.5294   -1.3669    1.9893 H   0  0  0  0  0  0  0  0  0  0  0  0
    0.2272    0.4409    1.9208 H   0  0  0  0  0  0  0  0  0  0  0  0
    2.6632    1.0196   -1.2397 H   0  0  0  0  0  0  0  0  0  0  0  0
  1  2  1  0
  2  3  1  0
  3  4  1  0
  3  5  1  0
  5  6  1  0
  6  7  1  0
  1  8  1  0
  2  9  1  0
  2 10  1  0
  3 11  1  1
  4 12  1  0
  5 13  1  0
  5 14  1  0
  7 15  1  0
M  END
$$$$
