
     RDKit          3D

 55 58  0  0  0  0  0  0  0  0999 V2000
   -5.3862   -2.8281   -5.1041 C   0  0  0  0  0  0  0  0  0  0  0  0
   -5.2755   -4.0262   -4.1778 C   0  0  0  0  0  0  0  0  0  0  0  0
   -4.6346   -5.2108   -4.8972 C   0  0  0  0  0  0  0  0  0  0  0  0
   -4.3871   -3.6805   -3.0245 C   0  0  0  0  0  0  0  0  0  0  0  0
   -3.1646   -3.1456   -3.0552 N   0  0  0  0  0  0  0  0  0  0  0  0
   -2.7345   -3.0062   -1.7843 C   0  0  0  0  0  0  0  0  0  0  0  0
   -1.5168   -2.4864   -1.3261 N   0  0  0  0  0  0  0  0  0  0  0  0
   -1.3774   -2.2433    0.1276 C   0  0  0  0  0  0  0  0  0  0  0  0
   -1.3065   -0.6991    0.1585 C   0  0  0  0  0  0  0  0  0  0  0  0
   -0.0801   -0.3553   -0.5148 N   0  0  0  0  0  0  0  0  0  0  0  0
    0.8139    0.4960    0.1970 C   0  0  0  0  0  0  0  0  0  0  0  0
    0.9254    0.4007    1.5427 N   0  0  0  0  0  0  0  0  0  0  0  0
    1.7574    1.2635    2.1826 C   0  0  0  0  0  0  0  0  0  0  0  0
    2.4823    2.2163    1.5340 C   0  0  0  0  0  0  0  0  0  0  0  0
    3.3424    3.1031    2.2338 O   0  0  0  0  0  0  0  0  0  0  0  0
    3.3903    2.9069    3.6580 C   0  0  0  0  0  0  0  0  0  0  0  0
    4.2919    3.8619    4.2723 C   0  0  0  0  0  0  0  0  0  0  0  0
    5.5891    3.4859    4.6020 C   0  0  0  0  0  0  0  0  0  0  0  0
    6.4787    4.3597    5.1534 C   0  0  0  0  0  0  0  0  0  0  0  0
    6.0741    5.6305    5.3815 N   0  0  0  0  0  0  0  0  0  0  0  0
    4.8461    6.0126    5.0759 C   0  0  0  0  0  0  0  0  0  0  0  0
    3.8977    5.1656    4.5147 C   0  0  0  0  0  0  0  0  0  0  0  0
    2.5906    5.6365    4.2257 C   0  0  0  0  0  0  0  0  0  0  0  0
    1.5054    6.0419    3.9990 N   0  0  0  0  0  0  0  0  0  0  0  0
    2.3551    2.3005    0.1521 C   0  0  0  0  0  0  0  0  0  0  0  0
    1.5088    1.4147   -0.4573 N   0  0  0  0  0  0  0  0  0  0  0  0
    0.2531   -0.8255   -1.8081 C   0  0  2  0  0  0  0  0  0  0  0  0
   -0.1621    0.2071   -2.8439 C   0  0  0  0  0  0  0  0  0  0  0  0
   -0.3795   -2.1442   -2.1177 C   0  0  0  0  0  0  0  0  0  0  0  0
   -3.7419   -3.4745   -1.0100 N   0  0  0  0  0  0  0  0  0  0  0  0
   -4.7050   -3.8657   -1.7762 O   0  0  0  0  0  0  0  0  0  0  0  0
   -5.2317   -3.1442   -6.1600 H   0  0  0  0  0  0  0  0  0  0  0  0
   -6.3715   -2.3685   -5.0165 H   0  0  0  0  0  0  0  0  0  0  0  0
   -4.6198   -2.0625   -4.8054 H   0  0  0  0  0  0  0  0  0  0  0  0
   -6.2572   -4.3638   -3.8061 H   0  0  0  0  0  0  0  0  0  0  0  0
   -5.3028   -5.5210   -5.7055 H   0  0  0  0  0  0  0  0  0  0  0  0
   -4.5871   -6.0301   -4.1452 H   0  0  0  0  0  0  0  0  0  0  0  0
   -3.6033   -4.9667   -5.1952 H   0  0  0  0  0  0  0  0  0  0  0  0
   -2.2431   -2.5961    0.6816 H   0  0  0  0  0  0  0  0  0  0  0  0
   -0.4140   -2.6455    0.4883 H   0  0  0  0  0  0  0  0  0  0  0  0
   -1.4090   -0.3074    1.1806 H   0  0  0  0  0  0  0  0  0  0  0  0
   -2.1652   -0.3535   -0.4732 H   0  0  0  0  0  0  0  0  0  0  0  0
    1.8404    1.1731    3.2772 H   0  0  0  0  0  0  0  0  0  0  0  0
    2.3349    3.0233    4.0183 H   0  0  0  0  0  0  0  0  0  0  0  0
    3.7343    1.8739    3.8097 H   0  0  0  0  0  0  0  0  0  0  0  0
    5.8707    2.4556    4.4025 H   0  0  0  0  0  0  0  0  0  0  0  0
    7.5043    4.0873    5.4183 H   0  0  0  0  0  0  0  0  0  0  0  0
    4.5090    7.0268    5.2515 H   0  0  0  0  0  0  0  0  0  0  0  0
    2.9100    3.0340   -0.3910 H   0  0  0  0  0  0  0  0  0  0  0  0
    1.3691   -0.9855   -1.9235 H   0  0  0  0  0  0  0  0  0  0  0  0
   -1.1363   -0.1257   -3.2651 H   0  0  0  0  0  0  0  0  0  0  0  0
    0.6207    0.2244   -3.6304 H   0  0  0  0  0  0  0  0  0  0  0  0
   -0.3296    1.1893   -2.3734 H   0  0  0  0  0  0  0  0  0  0  0  0
   -0.6429   -2.1538   -3.2192 H   0  0  0  0  0  0  0  0  0  0  0  0
    0.3697   -2.9755   -2.0104 H   0  0  0  0  0  0  0  0  0  0  0  0
  1  2  1  0
  2  3  1  0
  2  4  1  0
  4  5  2  0
  5  6  1  0
  6  7  1  0
  7  8  1  0
  8  9  1  0
  9 10  1  0
 10 11  1  0
 11 12  2  0
 12 13  1  0
 13 14  2  0
 14 15  1  0
 15 16  1  0
 16 17  1  0
 17 18  2  0
 18 19  1  0
 19 20  2  0
 20 21  1  0
 21 22  2  0
 22 23  1  0
 23 24  3  0
 14 25  1  0
 25 26  2  0
 10 27  1  0
 27 28  1  0
 27 29  1  0
  6 30  2  0
 30 31  1  0
 31  4  1  0
 29  7  1  0
 26 11  1  0
 22 17  1  0
  1 32  1  0
  1 33  1  0
  1 34  1  0
  2 35  1  0
  3 36  1  0
  3 37  1  0
  3 38  1  0
  8 39  1  0
  8 40  1  0
  9 41  1  0
  9 42  1  0
 13 43  1  0
 16 44  1  0
 16 45  1  0
 18 46  1  0
 19 47  1  0
 21 48  1  0
 25 49  1  0
 27 50  1  1
 28 51  1  0
 28 52  1  0
 28 53  1  0
 29 54  1  0
 29 55  1  0
M  END
$$$$
