
     RDKit          3D

 41 41  0  0  0  0  0  0  0  0999 V2000
   -3.8834   -0.1658    2.3709 C   0  0  0  0  0  0  0  0  0  0  0  0
   -3.5041    0.7695    1.2377 C   0  0  0  0  0  0  0  0  0  0  0  0
   -3.7170    0.0103   -0.0550 C   0  0  0  0  0  0  0  0  0  0  0  0
   -3.3397    0.9393   -1.1942 C   0  0  0  0  0  0  0  0  0  0  0  0
   -3.4868    0.3028   -2.5186 C   0  0  0  0  0  0  0  0  0  0  0  0
   -2.7092   -0.8807   -2.8951 C   0  0  0  0  0  0  0  0  0  0  0  0
   -1.2915   -0.8277   -3.0101 N   0  0  0  0  0  0  0  0  0  0  0  0
   -0.3291   -0.5920   -2.0290 C   0  0  0  0  0  0  0  0  0  0  0  0
   -0.6330   -0.3990   -0.8452 O   0  0  0  0  0  0  0  0  0  0  0  0
    1.0480   -0.5555   -2.3055 O   0  0  0  0  0  0  0  0  0  0  0  0
    1.9626   -0.3165   -1.2892 C   0  0  0  0  0  0  0  0  0  0  0  0
    2.4789   -1.3945   -0.5844 C   0  0  0  0  0  0  0  0  0  0  0  0
    3.3920   -1.2112    0.4365 C   0  0  0  0  0  0  0  0  0  0  0  0
    3.8278    0.0459    0.7973 C   0  0  0  0  0  0  0  0  0  0  0  0
    4.7916    0.2332    1.8754 C   0  0  0  0  0  0  0  0  0  0  0  0
    5.1467    1.4077    2.1533 O   0  0  0  0  0  0  0  0  0  0  0  0
    5.3331   -0.7896    2.6029 O   0  0  0  0  0  0  0  0  0  0  0  0
    6.2685   -0.6176    3.6502 C   0  0  0  0  0  0  0  0  0  0  0  0
    3.3119    1.1118    0.0943 C   0  0  0  0  0  0  0  0  0  0  0  0
    2.3908    0.9324   -0.9360 C   0  0  0  0  0  0  0  0  0  0  0  0
    1.6417    2.6140   -1.9712 I   0  0  0  0  0  0  0  0  0  0  0  0
   -3.6527    0.2681    3.3606 H   0  0  0  0  0  0  0  0  0  0  0  0
   -3.3381   -1.1133    2.1905 H   0  0  0  0  0  0  0  0  0  0  0  0
   -4.9686   -0.3864    2.2368 H   0  0  0  0  0  0  0  0  0  0  0  0
   -4.1233    1.6817    1.2917 H   0  0  0  0  0  0  0  0  0  0  0  0
   -2.4402    1.1069    1.3317 H   0  0  0  0  0  0  0  0  0  0  0  0
   -4.8098   -0.2322   -0.0904 H   0  0  0  0  0  0  0  0  0  0  0  0
   -3.1064   -0.9020   -0.0309 H   0  0  0  0  0  0  0  0  0  0  0  0
   -4.1633    1.7619   -1.1680 H   0  0  0  0  0  0  0  0  0  0  0  0
   -2.4172    1.4451   -0.9507 H   0  0  0  0  0  0  0  0  0  0  0  0
   -3.4792    1.0976   -3.3410 H   0  0  0  0  0  0  0  0  0  0  0  0
   -4.5900   -0.0222   -2.5710 H   0  0  0  0  0  0  0  0  0  0  0  0
   -3.0795   -1.3180   -3.8821 H   0  0  0  0  0  0  0  0  0  0  0  0
   -2.9496   -1.7725   -2.1973 H   0  0  0  0  0  0  0  0  0  0  0  0
   -0.8357   -0.9887   -4.0003 H   0  0  0  0  0  0  0  0  0  0  0  0
    2.1552   -2.4050   -0.8441 H   0  0  0  0  0  0  0  0  0  0  0  0
    3.7891   -2.0681    0.9815 H   0  0  0  0  0  0  0  0  0  0  0  0
    6.3138   -1.5393    4.2625 H   0  0  0  0  0  0  0  0  0  0  0  0
    7.2743   -0.4847    3.2054 H   0  0  0  0  0  0  0  0  0  0  0  0
    6.0671    0.2852    4.2515 H   0  0  0  0  0  0  0  0  0  0  0  0
    3.6545    2.0953    0.3785 H   0  0  0  0  0  0  0  0  0  0  0  0
  1  2  1  0
  2  3  1  0
  3  4  1  0
  4  5  1  0
  5  6  1  0
  6  7  1  0
  7  8  1  0
  8  9  2  0
  8 10  1  0
 10 11  1  0
 11 12  2  0
 12 13  1  0
 13 14  2  0
 14 15  1  0
 15 16  2  0
 15 17  1  0
 17 18  1  0
 14 19  1  0
 19 20  2  0
 20 21  1  0
 20 11  1  0
  1 22  1  0
  1 23  1  0
  1 24  1  0
  2 25  1  0
  2 26  1  0
  3 27  1  0
  3 28  1  0
  4 29  1  0
  4 30  1  0
  5 31  1  0
  5 32  1  0
  6 33  1  0
  6 34  1  0
  7 35  1  0
 12 36  1  0
 13 37  1  0
 18 38  1  0
 18 39  1  0
 18 40  1  0
 19 41  1  0
M  END
$$$$
