
     RDKit          3D

 50 54  0  0  0  0  0  0  0  0999 V2000
    5.4820    5.0276    1.2007 Cl  0  0  0  0  0  0  0  0  0  0  0  0
    4.8889    3.4767    0.6830 C   0  0  0  0  0  0  0  0  0  0  0  0
    4.2443    2.6441    1.5592 C   0  0  0  0  0  0  0  0  0  0  0  0
    3.7826    1.4182    1.1240 C   0  0  0  0  0  0  0  0  0  0  0  0
    3.9443    0.9865   -0.1770 C   0  0  0  0  0  0  0  0  0  0  0  0
    3.4410   -0.3173   -0.5951 C   0  0  0  0  0  0  0  0  0  0  0  0
    3.5397   -0.8648   -1.8614 C   0  0  0  0  0  0  0  0  0  0  0  0
    2.9357   -2.0966   -1.8038 C   0  0  0  0  0  0  0  0  0  0  0  0
    2.4973   -2.2516   -0.5211 C   0  0  0  0  0  0  0  0  0  0  0  0
    1.7969   -3.4101    0.0004 C   0  0  0  0  0  0  0  0  0  0  0  0
    2.2947   -4.6510    0.2298 N   0  0  0  0  0  0  0  0  0  0  0  0
    1.3143   -5.4267    0.7146 C   0  0  0  0  0  0  0  0  0  0  0  0
    0.2045   -4.6298    0.7762 C   0  0  0  0  0  0  0  0  0  0  0  0
    0.4949   -3.3876    0.3380 N   0  0  0  0  0  0  0  0  0  0  0  0
   -0.4193   -2.3013    0.2633 C   0  0  0  0  0  0  0  0  0  0  0  0
   -1.0920   -1.8465    1.3806 C   0  0  0  0  0  0  0  0  0  0  0  0
   -1.9830   -0.8004    1.3285 C   0  0  0  0  0  0  0  0  0  0  0  0
   -2.2480   -0.1509    0.1446 C   0  0  0  0  0  0  0  0  0  0  0  0
   -3.1853    0.9469    0.0756 N   0  0  0  0  0  0  0  0  0  0  0  0
   -3.4595    1.5954   -1.1605 C   0  0  0  0  0  0  0  0  0  0  0  0
   -4.7790    2.3155   -1.1575 C   0  0  0  0  0  0  0  0  0  0  0  0
   -5.6573    1.8647   -0.0688 N   0  0  0  0  0  0  0  0  0  0  0  0
   -4.9482    2.2914    1.1493 C   0  0  0  0  0  0  0  0  0  0  0  0
   -3.8113    1.3344    1.3194 C   0  0  0  0  0  0  0  0  0  0  0  0
   -1.5884   -0.5849   -0.9903 C   0  0  0  0  0  0  0  0  0  0  0  0
   -0.6845   -1.6512   -0.9198 C   0  0  0  0  0  0  0  0  0  0  0  0
    2.8141   -1.1845    0.1550 O   0  0  0  0  0  0  0  0  0  0  0  0
    4.5949    1.8380   -1.0424 C   0  0  0  0  0  0  0  0  0  0  0  0
    5.0654    3.0809   -0.6099 C   0  0  0  0  0  0  0  0  0  0  0  0
    4.1256    2.9972    2.5758 H   0  0  0  0  0  0  0  0  0  0  0  0
    3.2833    0.7845    1.8209 H   0  0  0  0  0  0  0  0  0  0  0  0
    4.0138   -0.3725   -2.7018 H   0  0  0  0  0  0  0  0  0  0  0  0
    2.8198   -2.8100   -2.5934 H   0  0  0  0  0  0  0  0  0  0  0  0
    1.3840   -6.4759    1.0016 H   0  0  0  0  0  0  0  0  0  0  0  0
   -0.7920   -4.9145    1.1223 H   0  0  0  0  0  0  0  0  0  0  0  0
   -0.9085   -2.3376    2.3450 H   0  0  0  0  0  0  0  0  0  0  0  0
   -2.4839   -0.4808    2.2264 H   0  0  0  0  0  0  0  0  0  0  0  0
   -3.5128    0.8824   -2.0277 H   0  0  0  0  0  0  0  0  0  0  0  0
   -2.6746    2.3342   -1.4619 H   0  0  0  0  0  0  0  0  0  0  0  0
   -5.3477    2.1881   -2.1007 H   0  0  0  0  0  0  0  0  0  0  0  0
   -4.5825    3.3858   -0.9277 H   0  0  0  0  0  0  0  0  0  0  0  0
   -5.6191    0.8233   -0.0883 H   0  0  0  0  0  0  0  0  0  0  0  0
   -5.6266    2.1794    2.0199 H   0  0  0  0  0  0  0  0  0  0  0  0
   -4.6198    3.3382    0.9877 H   0  0  0  0  0  0  0  0  0  0  0  0
   -4.2552    0.3911    1.7544 H   0  0  0  0  0  0  0  0  0  0  0  0
   -3.0621    1.6647    2.0773 H   0  0  0  0  0  0  0  0  0  0  0  0
   -1.7609   -0.1051   -1.9454 H   0  0  0  0  0  0  0  0  0  0  0  0
   -0.1670   -1.9939   -1.8024 H   0  0  0  0  0  0  0  0  0  0  0  0
    4.7271    1.5088   -2.0621 H   0  0  0  0  0  0  0  0  0  0  0  0
    5.5792    3.7472   -1.3035 H   0  0  0  0  0  0  0  0  0  0  0  0
  1  2  1  0
  2  3  2  0
  3  4  1  0
  4  5  2  0
  5  6  1  0
  6  7  2  0
  7  8  1  0
  8  9  2  0
  9 10  1  0
 10 11  2  0
 11 12  1  0
 12 13  2  0
 13 14  1  0
 14 15  1  0
 15 16  2  0
 16 17  1  0
 17 18  2  0
 18 19  1  0
 19 20  1  0
 20 21  1  0
 21 22  1  0
 22 23  1  0
 23 24  1  0
 18 25  1  0
 25 26  2  0
  9 27  1  0
  5 28  1  0
 28 29  2  0
 29  2  1  0
 27  6  1  0
 14 10  1  0
 26 15  1  0
 24 19  1  0
  3 30  1  0
  4 31  1  0
  7 32  1  0
  8 33  1  0
 12 34  1  0
 13 35  1  0
 16 36  1  0
 17 37  1  0
 20 38  1  0
 20 39  1  0
 21 40  1  0
 21 41  1  0
 22 42  1  0
 23 43  1  0
 23 44  1  0
 24 45  1  0
 24 46  1  0
 25 47  1  0
 26 48  1  0
 28 49  1  0
 29 50  1  0
M  END
$$$$
