
     RDKit          3D

 42 45  0  0  0  0  0  0  0  0999 V2000
    0.2401   -3.5522    3.8078 N   0  0  0  0  0  0  0  0  0  0  0  0
   -0.0095   -3.5773    2.6613 C   0  0  0  0  0  0  0  0  0  0  0  0
   -0.3420   -3.6030    1.2498 C   0  0  0  0  0  0  0  0  0  0  0  0
   -0.3807   -4.7021    0.4216 C   0  0  0  0  0  0  0  0  0  0  0  0
   -0.7232   -4.2991   -0.8105 N   0  0  0  0  0  0  0  0  0  0  0  0
   -0.9032   -2.9825   -0.7922 C   0  0  0  0  0  0  0  0  0  0  0  0
   -1.2582   -2.0453   -1.7729 C   0  0  0  0  0  0  0  0  0  0  0  0
   -1.3433   -0.7313   -1.3598 C   0  0  0  0  0  0  0  0  0  0  0  0
   -1.1105   -0.2893   -0.0838 C   0  0  0  0  0  0  0  0  0  0  0  0
   -1.2141    1.0928    0.3680 C   0  0  0  0  0  0  0  0  0  0  0  0
   -0.1042    1.8653    0.7232 C   0  0  0  0  0  0  0  0  0  0  0  0
    1.2682    1.4025    0.6464 C   0  0  0  0  0  0  0  0  0  0  0  0
    2.0090    1.4012    1.8312 C   0  0  0  0  0  0  0  0  0  0  0  0
    3.3155    0.9772    1.8730 C   0  0  0  0  0  0  0  0  0  0  0  0
    3.9022    0.5417    0.7021 C   0  0  0  0  0  0  0  0  0  0  0  0
    3.2260    0.5161   -0.5097 C   0  0  0  0  0  0  0  0  0  0  0  0
    3.8810    0.0497   -1.7586 C   0  0  0  0  0  0  0  0  0  0  0  0
    4.4803    1.1246   -2.4123 O   0  0  0  0  0  0  0  0  0  0  0  0
    1.9075    0.9578   -0.4797 C   0  0  0  0  0  0  0  0  0  0  0  0
   -0.5840    3.0518    1.1413 N   0  0  0  0  0  0  0  0  0  0  0  0
   -1.9065    3.0814    1.0755 C   0  0  0  0  0  0  0  0  0  0  0  0
   -2.2829    1.8503    0.5903 N   0  0  0  0  0  0  0  0  0  0  0  0
   -3.6701    1.4896    0.3280 C   0  0  0  0  0  0  0  0  0  0  0  0
   -4.1762    2.0415   -0.9622 C   0  0  0  0  0  0  0  0  0  0  0  0
   -3.5581    1.6800   -2.0983 F   0  0  0  0  0  0  0  0  0  0  0  0
   -5.5265    1.6903   -1.0814 F   0  0  0  0  0  0  0  0  0  0  0  0
   -0.7681   -1.2645    0.8185 N   0  0  0  0  0  0  0  0  0  0  0  0
   -0.6765   -2.5380    0.4536 N   0  0  0  0  0  0  0  0  0  0  0  0
   -0.1725   -5.7372    0.7059 H   0  0  0  0  0  0  0  0  0  0  0  0
   -1.4366   -2.3923   -2.7578 H   0  0  0  0  0  0  0  0  0  0  0  0
   -1.5976    0.0142   -2.1041 H   0  0  0  0  0  0  0  0  0  0  0  0
    1.5382    1.7483    2.7476 H   0  0  0  0  0  0  0  0  0  0  0  0
    3.9299    0.9575    2.7627 H   0  0  0  0  0  0  0  0  0  0  0  0
    4.9451    0.2004    0.7177 H   0  0  0  0  0  0  0  0  0  0  0  0
    4.6953   -0.6494   -1.4077 H   0  0  0  0  0  0  0  0  0  0  0  0
    3.1803   -0.4988   -2.3870 H   0  0  0  0  0  0  0  0  0  0  0  0
    4.7453    0.8867   -3.3207 H   0  0  0  0  0  0  0  0  0  0  0  0
    1.3685    0.9429   -1.4037 H   0  0  0  0  0  0  0  0  0  0  0  0
   -2.6263    3.8615    1.3270 H   0  0  0  0  0  0  0  0  0  0  0  0
   -4.3344    1.8835    1.1327 H   0  0  0  0  0  0  0  0  0  0  0  0
   -3.7895    0.3820    0.3491 H   0  0  0  0  0  0  0  0  0  0  0  0
   -4.1377    3.1712   -0.9319 H   0  0  0  0  0  0  0  0  0  0  0  0
  1  2  3  0
  2  3  1  0
  3  4  2  0
  4  5  1  0
  5  6  2  0
  6  7  1  0
  7  8  2  0
  8  9  1  0
  9 10  1  0
 10 11  2  0
 11 12  1  0
 12 13  2  0
 13 14  1  0
 14 15  2  0
 15 16  1  0
 16 17  1  0
 17 18  1  0
 16 19  2  0
 11 20  1  0
 20 21  2  0
 21 22  1  0
 22 23  1  0
 23 24  1  0
 24 25  1  0
 24 26  1  0
  9 27  2  0
 27 28  1  0
 28  3  1  0
 28  6  1  0
 22 10  1  0
 19 12  1  0
  4 29  1  0
  7 30  1  0
  8 31  1  0
 13 32  1  0
 14 33  1  0
 15 34  1  0
 17 35  1  0
 17 36  1  0
 18 37  1  0
 19 38  1  0
 21 39  1  0
 23 40  1  0
 23 41  1  0
 24 42  1  0
M  END
$$$$
