
     RDKit          3D

 39 41  0  0  0  0  0  0  0  0999 V2000
   -3.7109   -1.8735    2.1269 N   0  0  0  0  0  0  0  0  0  0  0  0
   -3.7362   -0.8055    1.1492 C   0  0  0  0  0  0  0  0  0  0  0  0
   -4.7767    0.0957    1.1207 C   0  0  0  0  0  0  0  0  0  0  0  0
   -4.8184    1.1192    0.1975 C   0  0  0  0  0  0  0  0  0  0  0  0
   -3.8031    1.2598   -0.7273 C   0  0  0  0  0  0  0  0  0  0  0  0
   -2.7526    0.3453   -0.6941 C   0  0  0  0  0  0  0  0  0  0  0  0
   -2.7283   -0.6652    0.2307 C   0  0  0  0  0  0  0  0  0  0  0  0
   -1.5620   -1.5786    0.1727 C   0  0  0  0  0  0  0  0  0  0  0  0
   -0.3465   -0.7160   -0.0575 C   0  0  0  0  0  0  0  0  0  0  0  0
   -0.3796    0.0547   -1.2479 N   0  0  0  0  0  0  0  0  0  0  0  0
    0.7461    1.3569   -1.1058 S   0  0  0  0  0  6  0  0  0  0  0  0
    0.3615    2.3008    0.0017 O   0  0  0  0  0  0  0  0  0  0  0  0
    0.6548    2.1492   -2.3951 O   0  0  0  0  0  0  0  0  0  0  0  0
    2.3794    0.7697   -0.9055 C   0  0  0  0  0  0  0  0  0  0  0  0
    3.1700    0.5414   -2.0217 C   0  0  0  0  0  0  0  0  0  0  0  0
    4.4654    0.0764   -1.8787 C   0  0  0  0  0  0  0  0  0  0  0  0
    5.0142   -0.1753   -0.6300 C   0  0  0  0  0  0  0  0  0  0  0  0
    4.2269    0.0521    0.4812 C   0  0  0  0  0  0  0  0  0  0  0  0
    4.7737   -0.2033    1.8233 C   0  0  0  0  0  0  0  0  0  0  0  0
    5.9189   -0.6177    2.0224 O   0  0  0  0  0  0  0  0  0  0  0  0
    3.9603    0.0339    2.9217 O   0  0  0  0  0  0  0  0  0  0  0  0
    2.9378    0.5155    0.3220 C   0  0  0  0  0  0  0  0  0  0  0  0
   -1.6459    0.5018   -1.7066 C   0  0  0  0  0  0  0  0  0  0  0  0
   -2.8582   -1.9796    2.7175 H   0  0  0  0  0  0  0  0  0  0  0  0
   -4.5393   -2.4751    2.1884 H   0  0  0  0  0  0  0  0  0  0  0  0
   -5.5693   -0.0235    1.8514 H   0  0  0  0  0  0  0  0  0  0  0  0
   -5.6637    1.8181    0.2052 H   0  0  0  0  0  0  0  0  0  0  0  0
   -3.8077    2.0571   -1.4683 H   0  0  0  0  0  0  0  0  0  0  0  0
   -1.4076   -2.1351    1.1152 H   0  0  0  0  0  0  0  0  0  0  0  0
   -1.6296   -2.2764   -0.7087 H   0  0  0  0  0  0  0  0  0  0  0  0
    0.5767   -1.3359   -0.0177 H   0  0  0  0  0  0  0  0  0  0  0  0
   -0.2822   -0.0117    0.8155 H   0  0  0  0  0  0  0  0  0  0  0  0
    2.8198    0.7118   -3.0302 H   0  0  0  0  0  0  0  0  0  0  0  0
    5.0999   -0.1080   -2.7494 H   0  0  0  0  0  0  0  0  0  0  0  0
    6.0251   -0.5391   -0.4990 H   0  0  0  0  0  0  0  0  0  0  0  0
    4.0933   -0.5480    3.7638 H   0  0  0  0  0  0  0  0  0  0  0  0
    2.3282    0.6909    1.1963 H   0  0  0  0  0  0  0  0  0  0  0  0
   -1.9554    0.0282   -2.6671 H   0  0  0  0  0  0  0  0  0  0  0  0
   -1.5791    1.5892   -1.9123 H   0  0  0  0  0  0  0  0  0  0  0  0
  1  2  1  0
  2  3  2  0
  3  4  1  0
  4  5  2  0
  5  6  1  0
  6  7  2  0
  7  8  1  0
  8  9  1  0
  9 10  1  0
 10 11  1  0
 11 12  2  0
 11 13  2  0
 11 14  1  0
 14 15  2  0
 15 16  1  0
 16 17  2  0
 17 18  1  0
 18 19  1  0
 19 20  2  0
 19 21  1  0
 18 22  2  0
 10 23  1  0
  7  2  1  0
 22 14  1  0
 23  6  1  0
  1 24  1  0
  1 25  1  0
  3 26  1  0
  4 27  1  0
  5 28  1  0
  8 29  1  0
  8 30  1  0
  9 31  1  0
  9 32  1  0
 15 33  1  0
 16 34  1  0
 17 35  1  0
 21 36  1  0
 22 37  1  0
 23 38  1  0
 23 39  1  0
M  END
$$$$
