
     RDKit          3D

 25 26  0  0  0  0  0  0  0  0999 V2000
   -3.7315   -1.2737   -0.2365 N   0  0  0  0  0  0  0  0  0  0  0  0
   -2.6145   -0.5014    0.2661 C   0  0  0  0  0  0  0  0  0  0  0  0
   -1.7974   -0.0442   -0.9392 C   0  0  0  0  0  0  0  0  0  0  0  0
   -0.6173    0.7482   -0.5549 C   0  0  0  0  0  0  0  0  0  0  0  0
   -0.4762    2.1226   -0.5894 C   0  0  0  0  0  0  0  0  0  0  0  0
    0.7464    2.4562   -0.1468 N   0  0  0  0  0  0  0  0  0  0  0  0
    1.4462    1.3312    0.1893 C   0  0  0  0  0  0  0  0  0  0  0  0
    2.7167    1.1265    0.6822 C   0  0  0  0  0  0  0  0  0  0  0  0
    3.1791   -0.1445    0.9352 C   0  0  0  0  0  0  0  0  0  0  0  0
    2.3113   -1.1818    0.6722 C   0  0  0  0  0  0  0  0  0  0  0  0
    2.7711   -2.4715    0.9249 O   0  0  0  0  0  0  0  0  0  0  0  0
    1.0516   -1.0061    0.1867 C   0  0  0  0  0  0  0  0  0  0  0  0
    0.5851    0.2832   -0.0694 C   0  0  0  0  0  0  0  0  0  0  0  0
   -3.4953   -2.2808   -0.1230 H   0  0  0  0  0  0  0  0  0  0  0  0
   -3.8072   -1.0928   -1.2564 H   0  0  0  0  0  0  0  0  0  0  0  0
   -2.0391   -1.0905    0.9872 H   0  0  0  0  0  0  0  0  0  0  0  0
   -3.0521    0.4188    0.7459 H   0  0  0  0  0  0  0  0  0  0  0  0
   -2.4581    0.6079   -1.5506 H   0  0  0  0  0  0  0  0  0  0  0  0
   -1.4642   -0.9552   -1.4720 H   0  0  0  0  0  0  0  0  0  0  0  0
   -1.2495    2.8077   -0.9277 H   0  0  0  0  0  0  0  0  0  0  0  0
    1.1662    3.4118   -0.0500 H   0  0  0  0  0  0  0  0  0  0  0  0
    3.3699    1.9668    0.8760 H   0  0  0  0  0  0  0  0  0  0  0  0
    4.1962   -0.3053    1.3272 H   0  0  0  0  0  0  0  0  0  0  0  0
    2.9064   -3.1339    0.1490 H   0  0  0  0  0  0  0  0  0  0  0  0
    0.3563   -1.7993   -0.0260 H   0  0  0  0  0  0  0  0  0  0  0  0
  1  2  1  0
  2  3  1  0
  3  4  1  0
  4  5  2  0
  5  6  1  0
  6  7  1  0
  7  8  2  0
  8  9  1  0
  9 10  2  0
 10 11  1  0
 10 12  1  0
 12 13  2  0
 13  4  1  0
 13  7  1  0
  1 14  1  0
  1 15  1  0
  2 16  1  0
  2 17  1  0
  3 18  1  0
  3 19  1  0
  5 20  1  0
  6 21  1  0
  8 22  1  0
  9 23  1  0
 11 24  1  0
 12 25  1  0
M  END
$$$$
