
     RDKit          3D

 54 57  0  0  0  0  0  0  0  0999 V2000
   -1.6715   -0.0670   -4.0652 C   0  0  0  0  0  0  0  0  0  0  0  0
   -1.8249   -0.7052   -2.8012 O   0  0  0  0  0  0  0  0  0  0  0  0
   -1.3266   -0.1824   -1.6246 C   0  0  0  0  0  0  0  0  0  0  0  0
   -0.7115    0.9045   -1.6774 O   0  0  0  0  0  0  0  0  0  0  0  0
   -1.4852   -0.8410   -0.3226 C   0  0  2  0  0  0  0  0  0  0  0  0
   -2.9705   -0.9521    0.0506 C   0  0  0  0  0  0  0  0  0  0  0  0
   -3.5532    0.4074   -0.2221 C   0  0  0  0  0  0  0  0  0  0  0  0
   -3.8952    0.9119    1.1565 C   0  0  0  0  0  0  0  0  0  0  0  0
   -2.8874    0.1708    1.9957 C   0  0  0  0  0  0  0  0  0  0  0  0
   -1.5137    0.7127    1.6500 C   0  0  0  0  0  0  0  0  0  0  0  0
   -0.7188   -0.1739    0.7849 C   0  0  2  0  0  0  0  0  0  0  0  0
    0.3514    0.4900    0.1934 O   0  0  0  0  0  0  0  0  0  0  0  0
    1.5709   -0.0204    0.5600 C   0  0  0  0  0  0  0  0  0  0  0  0
    2.2331   -0.7204   -0.6007 C   0  0  0  0  0  0  0  0  0  0  0  0
    2.3584   -0.1488   -1.8453 C   0  0  0  0  0  0  0  0  0  0  0  0
    2.9727   -0.8388   -2.8887 C   0  0  0  0  0  0  0  0  0  0  0  0
    3.4674   -2.1008   -2.7049 C   0  0  0  0  0  0  0  0  0  0  0  0
    4.0714   -2.7775   -3.7334 F   0  0  0  0  0  0  0  0  0  0  0  0
    3.3518   -2.6911   -1.4644 C   0  0  0  0  0  0  0  0  0  0  0  0
    2.7421   -1.9905   -0.4523 C   0  0  0  0  0  0  0  0  0  0  0  0
    2.4635    1.0361    1.0792 C   0  0  0  0  0  0  0  0  0  0  0  0
    1.9916    1.9762    1.9451 C   0  0  0  0  0  0  0  0  0  0  0  0
    2.8284    2.9697    2.4370 C   0  0  0  0  0  0  0  0  0  0  0  0
    4.1470    3.0362    2.0699 C   0  0  0  0  0  0  0  0  0  0  0  0
    4.9824    4.0144    2.5506 F   0  0  0  0  0  0  0  0  0  0  0  0
    4.6066    2.0787    1.1946 C   0  0  0  0  0  0  0  0  0  0  0  0
    3.7980    1.0958    0.7019 C   0  0  0  0  0  0  0  0  0  0  0  0
   -2.9776   -1.1649    1.4579 N   0  0  0  0  0  0  0  0  0  0  0  0
   -4.0411   -1.9438    1.9669 C   0  0  0  0  0  0  0  0  0  0  0  0
   -2.3521    0.8211   -4.0840 H   0  0  0  0  0  0  0  0  0  0  0  0
   -0.6318    0.1701   -4.3000 H   0  0  0  0  0  0  0  0  0  0  0  0
   -2.0567   -0.7735   -4.8357 H   0  0  0  0  0  0  0  0  0  0  0  0
   -1.1303   -1.8877   -0.4213 H   0  0  0  0  0  0  0  0  0  0  0  0
   -3.4813   -1.7268   -0.5398 H   0  0  0  0  0  0  0  0  0  0  0  0
   -4.4389    0.3677   -0.8873 H   0  0  0  0  0  0  0  0  0  0  0  0
   -2.8415    1.1216   -0.6846 H   0  0  0  0  0  0  0  0  0  0  0  0
   -3.7276    2.0014    1.2643 H   0  0  0  0  0  0  0  0  0  0  0  0
   -4.9387    0.6296    1.3944 H   0  0  0  0  0  0  0  0  0  0  0  0
   -3.1269    0.1924    3.0606 H   0  0  0  0  0  0  0  0  0  0  0  0
   -1.5803    1.7432    1.2581 H   0  0  0  0  0  0  0  0  0  0  0  0
   -1.0166    0.8050    2.6627 H   0  0  0  0  0  0  0  0  0  0  0  0
   -0.2536   -0.9736    1.4368 H   0  0  0  0  0  0  0  0  0  0  0  0
    1.4609   -0.8039    1.3277 H   0  0  0  0  0  0  0  0  0  0  0  0
    1.9803    0.8446   -2.0032 H   0  0  0  0  0  0  0  0  0  0  0  0
    3.0498   -0.3516   -3.8513 H   0  0  0  0  0  0  0  0  0  0  0  0
    3.7487   -3.7007   -1.3210 H   0  0  0  0  0  0  0  0  0  0  0  0
    2.6702   -2.4921    0.5143 H   0  0  0  0  0  0  0  0  0  0  0  0
    0.9595    1.9906    2.2808 H   0  0  0  0  0  0  0  0  0  0  0  0
    2.4385    3.7266    3.1374 H   0  0  0  0  0  0  0  0  0  0  0  0
    5.6531    2.1134    0.8894 H   0  0  0  0  0  0  0  0  0  0  0  0
    4.1716    0.3458    0.0120 H   0  0  0  0  0  0  0  0  0  0  0  0
   -4.8536   -2.0001    1.2361 H   0  0  0  0  0  0  0  0  0  0  0  0
   -4.3982   -1.6477    2.9721 H   0  0  0  0  0  0  0  0  0  0  0  0
   -3.6641   -3.0017    2.0903 H   0  0  0  0  0  0  0  0  0  0  0  0
  1  2  1  0
  2  3  1  0
  3  4  2  0
  3  5  1  0
  5  6  1  0
  6  7  1  0
  7  8  1  0
  8  9  1  0
  9 10  1  0
 10 11  1  0
 11 12  1  0
 12 13  1  0
 13 14  1  0
 14 15  2  0
 15 16  1  0
 16 17  2  0
 17 18  1  0
 17 19  1  0
 19 20  2  0
 13 21  1  0
 21 22  2  0
 22 23  1  0
 23 24  2  0
 24 25  1  0
 24 26  1  0
 26 27  2  0
  9 28  1  0
 28 29  1  0
 11  5  1  0
 20 14  1  0
 27 21  1  0
 28  6  1  0
  1 30  1  0
  1 31  1  0
  1 32  1  0
  5 33  1  6
  6 34  1  0
  7 35  1  0
  7 36  1  0
  8 37  1  0
  8 38  1  0
  9 39  1  0
 10 40  1  0
 10 41  1  0
 11 42  1  1
 13 43  1  0
 15 44  1  0
 16 45  1  0
 19 46  1  0
 20 47  1  0
 22 48  1  0
 23 49  1  0
 26 50  1  0
 27 51  1  0
 29 52  1  0
 29 53  1  0
 29 54  1  0
M  END
$$$$
