
     RDKit          3D

 52 55  0  0  0  0  0  0  0  0999 V2000
   -5.0489   -1.0261   -0.2500 C   0  0  0  0  0  0  0  0  0  0  0  0
   -3.7802   -1.3678    0.1863 N   0  0  0  0  0  0  0  0  0  0  0  0
   -3.1811   -2.5786   -0.3435 C   0  0  0  0  0  0  0  0  0  0  0  0
   -1.7635   -2.6441    0.1486 C   0  0  0  0  0  0  0  0  0  0  0  0
   -0.6054   -2.6020   -0.4195 C   0  0  0  0  0  0  0  0  0  0  0  0
    0.8064   -2.6426    0.0113 C   0  0  0  0  0  0  0  0  0  0  0  0
    1.7070   -3.6810   -0.5139 C   0  0  0  0  0  0  0  0  0  0  0  0
    3.0828   -3.2671   -0.0269 O   0  0  0  0  0  0  0  0  0  0  0  0
    3.5623   -1.9498   -0.3075 C   0  0  0  0  0  0  0  0  0  0  0  0
    4.5366   -1.8571   -1.2778 C   0  0  0  0  0  0  0  0  0  0  0  0
    5.0933   -0.6545   -1.7054 C   0  0  0  0  0  0  0  0  0  0  0  0
    4.5893    0.4759   -1.0818 C   0  0  0  0  0  0  0  0  0  0  0  0
    3.5976    0.3994   -0.0913 C   0  0  0  0  0  0  0  0  0  0  0  0
    3.0764   -0.7945    0.3273 C   0  0  0  0  0  0  0  0  0  0  0  0
    3.0627    1.7862    0.1677 C   0  0  0  0  0  0  0  0  0  0  0  0
    3.9162    2.8393    0.3961 C   0  0  0  0  0  0  0  0  0  0  0  0
    3.3963    4.0902    0.5595 C   0  0  0  0  0  0  0  0  0  0  0  0
    2.0782    4.2411    0.4903 N   0  0  0  0  0  0  0  0  0  0  0  0
    1.2004    3.2423    0.2682 C   0  0  0  0  0  0  0  0  0  0  0  0
    1.7173    2.0496    0.1154 N   0  0  0  0  0  0  0  0  0  0  0  0
   -0.2180    3.4008    0.1558 N   0  0  0  0  0  0  0  0  0  0  0  0
   -1.3354    2.6079    0.5471 C   0  0  0  0  0  0  0  0  0  0  0  0
   -2.3899    3.4653    0.9729 C   0  0  0  0  0  0  0  0  0  0  0  0
   -3.6083    3.0410    1.4139 C   0  0  0  0  0  0  0  0  0  0  0  0
   -3.7686    1.6755    1.4271 C   0  0  0  0  0  0  0  0  0  0  0  0
   -2.7746    0.7694    1.0240 C   0  0  0  0  0  0  0  0  0  0  0  0
   -1.5511    1.2441    0.5787 C   0  0  0  0  0  0  0  0  0  0  0  0
   -3.2228   -0.6489    1.2107 C   0  0  0  0  0  0  0  0  0  0  0  0
   -5.0922    0.0424   -0.5681 H   0  0  0  0  0  0  0  0  0  0  0  0
   -5.8574   -1.2822    0.4698 H   0  0  0  0  0  0  0  0  0  0  0  0
   -5.3017   -1.6197   -1.1787 H   0  0  0  0  0  0  0  0  0  0  0  0
   -3.4504   -2.6100   -1.3663 H   0  0  0  0  0  0  0  0  0  0  0  0
   -3.7938   -3.4336    0.1112 H   0  0  0  0  0  0  0  0  0  0  0  0
   -1.9304   -2.8227    1.2858 H   0  0  0  0  0  0  0  0  0  0  0  0
   -0.4323   -2.5314   -1.5735 H   0  0  0  0  0  0  0  0  0  0  0  0
    1.0669   -2.5167    1.0674 H   0  0  0  0  0  0  0  0  0  0  0  0
    1.2600   -1.6501   -0.4425 H   0  0  0  0  0  0  0  0  0  0  0  0
    1.7010   -3.9287   -1.5489 H   0  0  0  0  0  0  0  0  0  0  0  0
    1.5853   -4.6331    0.0727 H   0  0  0  0  0  0  0  0  0  0  0  0
    4.9987   -2.7120   -1.8025 H   0  0  0  0  0  0  0  0  0  0  0  0
    5.8504   -0.6118   -2.4560 H   0  0  0  0  0  0  0  0  0  0  0  0
    5.0442    1.4127   -1.4186 H   0  0  0  0  0  0  0  0  0  0  0  0
    2.4128   -0.8992    1.2564 H   0  0  0  0  0  0  0  0  0  0  0  0
    4.9741    2.6023    0.4238 H   0  0  0  0  0  0  0  0  0  0  0  0
    4.0781    4.9241    0.7422 H   0  0  0  0  0  0  0  0  0  0  0  0
   -0.4095    4.3739   -0.3462 H   0  0  0  0  0  0  0  0  0  0  0  0
   -2.2634    4.5707    0.9604 H   0  0  0  0  0  0  0  0  0  0  0  0
   -4.3924    3.7158    1.7315 H   0  0  0  0  0  0  0  0  0  0  0  0
   -4.7633    1.3237    1.7765 H   0  0  0  0  0  0  0  0  0  0  0  0
   -0.7515    0.5070    0.2060 H   0  0  0  0  0  0  0  0  0  0  0  0
   -4.1291   -0.5712    1.9895 H   0  0  0  0  0  0  0  0  0  0  0  0
   -2.5795   -1.2641    1.8733 H   0  0  0  0  0  0  0  0  0  0  0  0
  1  2  1  0
  2  3  1  0
  3  4  1  0
  4  5  2  0
  5  6  1  0
  6  7  1  0
  7  8  1  0
  8  9  1  0
  9 10  1  0
 10 11  2  0
 11 12  1  0
 12 13  2  0
 13 14  1  0
 13 15  1  0
 15 16  1  0
 16 17  2  0
 17 18  1  0
 18 19  2  0
 19 20  1  0
 19 21  1  0
 21 22  1  0
 22 23  1  0
 23 24  2  0
 24 25  1  0
 25 26  2  0
 26 27  1  0
 26 28  1  0
 28  2  1  0
 14  9  2  0
 20 15  2  0
 27 22  2  0
  1 29  1  0
  1 30  1  0
  1 31  1  0
  3 32  1  0
  3 33  1  0
  4 34  1  0
  5 35  1  0
  6 36  1  0
  6 37  1  0
  7 38  1  0
  7 39  1  0
 10 40  1  0
 11 41  1  0
 12 42  1  0
 14 43  1  0
 16 44  1  0
 17 45  1  0
 21 46  1  0
 23 47  1  0
 24 48  1  0
 25 49  1  0
 27 50  1  0
 28 51  1  0
 28 52  1  0
M  END
$$$$
