
     RDKit          3D

 47 49  0  0  0  0  0  0  0  0999 V2000
   -3.3523   -2.7282   -1.2063 C   0  0  0  0  0  0  0  0  0  0  0  0
   -2.6685   -2.3455    0.0879 C   0  0  0  0  0  0  0  0  0  0  0  0
   -1.6443   -3.4460    0.3647 C   0  0  0  0  0  0  0  0  0  0  0  0
   -3.6534   -2.3751    1.2371 C   0  0  0  0  0  0  0  0  0  0  0  0
   -1.9542   -1.0417   -0.0231 C   0  0  0  0  0  0  0  0  0  0  0  0
   -0.6513   -0.7900   -0.4042 C   0  0  0  0  0  0  0  0  0  0  0  0
   -0.4060    0.5805   -0.3647 C   0  0  0  0  0  0  0  0  0  0  0  0
    0.7062    1.1667   -0.6589 N   0  0  0  0  0  0  0  0  0  0  0  0
    1.7793    0.3018   -1.0630 C   0  0  0  0  0  0  0  0  0  0  0  0
    1.9582   -0.4798   -2.0319 O   0  0  0  0  0  0  0  0  0  0  0  0
    2.8141    0.4319   -0.0887 N   0  0  0  0  0  0  0  0  0  0  0  0
    4.1162   -0.1645    0.0620 C   0  0  0  0  0  0  0  0  0  0  0  0
    5.1775    0.5000   -0.5249 C   0  0  0  0  0  0  0  0  0  0  0  0
    6.5024    0.0575   -0.4729 C   0  0  0  0  0  0  0  0  0  0  0  0
    6.7438   -1.1257    0.2166 C   0  0  0  0  0  0  0  0  0  0  0  0
    8.3873   -1.7132    0.3049 Cl  0  0  0  0  0  0  0  0  0  0  0  0
    5.6836   -1.7855    0.8003 C   0  0  0  0  0  0  0  0  0  0  0  0
    4.3831   -1.3468    0.7467 C   0  0  0  0  0  0  0  0  0  0  0  0
   -1.5580    1.1165    0.0361 N   0  0  0  0  0  0  0  0  0  0  0  0
   -2.4629    0.1596    0.2351 N   0  0  0  0  0  0  0  0  0  0  0  0
   -1.8315    2.4909    0.2362 C   0  0  0  0  0  0  0  0  0  0  0  0
   -0.8700    3.4381    0.5116 C   0  0  0  0  0  0  0  0  0  0  0  0
   -1.2146    4.7600    0.6942 C   0  0  0  0  0  0  0  0  0  0  0  0
   -2.5238    5.1954    0.6115 C   0  0  0  0  0  0  0  0  0  0  0  0
   -3.5298    4.2917    0.3382 C   0  0  0  0  0  0  0  0  0  0  0  0
   -3.1411    2.9698    0.1608 C   0  0  0  0  0  0  0  0  0  0  0  0
   -4.0851   -3.5335   -0.9421 H   0  0  0  0  0  0  0  0  0  0  0  0
   -2.6333   -3.0474   -1.9747 H   0  0  0  0  0  0  0  0  0  0  0  0
   -3.9467   -1.8498   -1.5185 H   0  0  0  0  0  0  0  0  0  0  0  0
   -2.2434   -4.3744    0.5833 H   0  0  0  0  0  0  0  0  0  0  0  0
   -1.0428   -3.2342    1.2695 H   0  0  0  0  0  0  0  0  0  0  0  0
   -0.9933   -3.6442   -0.5146 H   0  0  0  0  0  0  0  0  0  0  0  0
   -4.3073   -3.2623    1.0631 H   0  0  0  0  0  0  0  0  0  0  0  0
   -3.0763   -2.5886    2.1802 H   0  0  0  0  0  0  0  0  0  0  0  0
   -4.2002   -1.4352    1.2807 H   0  0  0  0  0  0  0  0  0  0  0  0
    0.0667   -1.5663   -0.6912 H   0  0  0  0  0  0  0  0  0  0  0  0
    2.8855    1.0068    0.7792 H   0  0  0  0  0  0  0  0  0  0  0  0
    5.0450    1.4152   -1.0672 H   0  0  0  0  0  0  0  0  0  0  0  0
    7.3050    0.5994   -0.9411 H   0  0  0  0  0  0  0  0  0  0  0  0
    5.9020   -2.6980    1.3268 H   0  0  0  0  0  0  0  0  0  0  0  0
    3.5487   -1.8357    1.1874 H   0  0  0  0  0  0  0  0  0  0  0  0
   -3.4483    0.3158    0.5525 H   0  0  0  0  0  0  0  0  0  0  0  0
    0.1518    3.1234    0.5804 H   0  0  0  0  0  0  0  0  0  0  0  0
   -0.4294    5.4905    0.9118 H   0  0  0  0  0  0  0  0  0  0  0  0
   -2.8019    6.2393    0.7550 H   0  0  0  0  0  0  0  0  0  0  0  0
   -4.5668    4.5365    0.2557 H   0  0  0  0  0  0  0  0  0  0  0  0
   -3.9200    2.2243   -0.0585 H   0  0  0  0  0  0  0  0  0  0  0  0
  1  2  1  0
  2  3  1  0
  2  4  1  0
  2  5  1  0
  5  6  2  0
  6  7  1  0
  7  8  2  0
  8  9  1  0
  9 10  2  0
  9 11  1  0
 11 12  1  0
 12 13  2  0
 13 14  1  0
 14 15  2  0
 15 16  1  0
 15 17  1  0
 17 18  2  0
  7 19  1  0
 19 20  1  0
 19 21  1  0
 21 22  2  0
 22 23  1  0
 23 24  2  0
 24 25  1  0
 25 26  2  0
 20  5  1  0
 26 21  1  0
 18 12  1  0
  1 27  1  0
  1 28  1  0
  1 29  1  0
  3 30  1  0
  3 31  1  0
  3 32  1  0
  4 33  1  0
  4 34  1  0
  4 35  1  0
  6 36  1  0
 11 37  1  0
 13 38  1  0
 14 39  1  0
 17 40  1  0
 18 41  1  0
 20 42  1  0
 22 43  1  0
 23 44  1  0
 24 45  1  0
 25 46  1  0
 26 47  1  0
M  END
$$$$
