
     RDKit          3D

 79 82  0  0  0  0  0  0  0  0999 V2000
    8.4979   -2.7927   -2.5563 C   0  0  0  0  0  0  0  0  0  0  0  0
    8.5030   -1.5331   -1.7384 C   0  0  0  0  0  0  0  0  0  0  0  0
    8.0270   -1.5023   -0.4485 C   0  0  0  0  0  0  0  0  0  0  0  0
    8.0230   -0.3576    0.3170 C   0  0  0  0  0  0  0  0  0  0  0  0
    7.5545   -0.2894    1.7151 C   0  0  0  0  0  0  0  0  0  0  0  0
    6.3859    0.3785    1.9181 O   0  0  0  0  0  0  0  0  0  0  0  0
    5.1034    0.2146    1.5040 C   0  0  0  0  0  0  0  0  0  0  0  0
    4.1640    1.1648    1.9448 C   0  0  0  0  0  0  0  0  0  0  0  0
    2.8308    1.0766    1.5729 C   0  0  0  0  0  0  0  0  0  0  0  0
    2.3924    0.0578    0.7632 C   0  0  0  0  0  0  0  0  0  0  0  0
    0.7240   -0.0619    0.2959 S   0  0  0  0  0  6  0  0  0  0  0  0
    0.1017    1.3249    0.2478 O   0  0  0  0  0  0  0  0  0  0  0  0
    0.5687   -0.6671   -1.0751 O   0  0  0  0  0  0  0  0  0  0  0  0
   -0.0904   -1.0386    1.5342 C   0  0  0  0  0  0  0  0  0  0  0  0
   -1.5696   -1.2279    1.2516 C   0  0  0  0  0  0  0  0  0  0  0  0
   -2.2037    0.1040    1.2127 C   0  0  0  0  0  0  0  0  0  0  0  0
   -3.2952    0.4035    0.5671 C   0  0  0  0  0  0  0  0  0  0  0  0
   -4.1014   -0.5706   -0.2574 C   0  0  0  0  0  0  0  0  0  0  0  0
   -5.4416   -0.6341    0.4606 C   0  0  0  0  0  0  0  0  0  0  0  0
   -6.0749    0.6073    0.6015 N   0  0  0  0  0  0  0  0  0  0  0  0
   -7.0111    0.8150   -0.3725 O   0  0  0  0  0  0  0  0  0  0  0  0
   -8.1541    0.0350   -0.4710 C   0  0  0  0  0  0  0  0  0  0  0  0
   -8.2916   -0.8828    0.3839 O   0  0  0  0  0  0  0  0  0  0  0  0
   -9.1598    0.2733   -1.5300 C   0  0  0  0  0  0  0  0  0  0  0  0
  -10.3030   -0.7125   -1.4490 C   0  0  0  0  0  0  0  0  0  0  0  0
   -8.5299    0.1989   -2.8982 C   0  0  0  0  0  0  0  0  0  0  0  0
   -9.6733    1.7003   -1.3359 C   0  0  0  0  0  0  0  0  0  0  0  0
   -5.3424    1.7775    0.8503 C   0  0  0  0  0  0  0  0  0  0  0  0
   -3.8803    1.7792    0.5888 C   0  0  0  0  0  0  0  0  0  0  0  0
   -2.0910   -1.9722    2.3968 N   0  0  0  0  0  0  0  0  0  0  0  0
   -2.0144   -1.4819    3.6476 O   0  0  0  0  0  0  0  0  0  0  0  0
   -2.6892   -3.2347    2.1883 C   0  0  0  0  0  0  0  0  0  0  0  0
   -2.7757   -3.7319    1.0230 O   0  0  0  0  0  0  0  0  0  0  0  0
    3.2903   -0.8791    0.3222 C   0  0  0  0  0  0  0  0  0  0  0  0
    4.6388   -0.7905    0.6981 C   0  0  0  0  0  0  0  0  0  0  0  0
    8.5235    0.8339   -0.2337 C   0  0  0  0  0  0  0  0  0  0  0  0
    8.5344    2.0006    0.4963 C   0  0  0  0  0  0  0  0  0  0  0  0
    9.0362    3.1323   -0.1031 C   0  0  0  0  0  0  0  0  0  0  0  0
    9.5165    3.1080   -1.3976 C   0  0  0  0  0  0  0  0  0  0  0  0
    9.5037    1.9374   -2.1257 C   0  0  0  0  0  0  0  0  0  0  0  0
    8.9954    0.7813   -1.5256 C   0  0  0  0  0  0  0  0  0  0  0  0
    8.9764   -0.3817   -2.2411 N   0  0  0  0  0  0  0  0  0  0  0  0
    8.5092   -2.4878   -3.6033 H   0  0  0  0  0  0  0  0  0  0  0  0
    7.5956   -3.3902   -2.3139 H   0  0  0  0  0  0  0  0  0  0  0  0
    9.3950   -3.3816   -2.2528 H   0  0  0  0  0  0  0  0  0  0  0  0
    7.6370   -2.4138   -0.0087 H   0  0  0  0  0  0  0  0  0  0  0  0
    7.5565   -1.3300    2.1735 H   0  0  0  0  0  0  0  0  0  0  0  0
    8.3706    0.2190    2.3091 H   0  0  0  0  0  0  0  0  0  0  0  0
    4.5122    1.9645    2.5812 H   0  0  0  0  0  0  0  0  0  0  0  0
    2.1401    1.8270    1.9332 H   0  0  0  0  0  0  0  0  0  0  0  0
    0.0902   -0.5776    2.5075 H   0  0  0  0  0  0  0  0  0  0  0  0
    0.4161   -2.0403    1.5314 H   0  0  0  0  0  0  0  0  0  0  0  0
   -1.7249   -1.7709    0.3116 H   0  0  0  0  0  0  0  0  0  0  0  0
   -1.7126    0.9124    1.7789 H   0  0  0  0  0  0  0  0  0  0  0  0
   -3.6341   -1.5421   -0.3645 H   0  0  0  0  0  0  0  0  0  0  0  0
   -4.2867   -0.0587   -1.2256 H   0  0  0  0  0  0  0  0  0  0  0  0
   -5.2269   -1.0917    1.4502 H   0  0  0  0  0  0  0  0  0  0  0  0
   -6.0653   -1.3383   -0.1335 H   0  0  0  0  0  0  0  0  0  0  0  0
   -9.9348   -1.6203   -0.9602 H   0  0  0  0  0  0  0  0  0  0  0  0
  -11.1538   -0.2545   -0.8903 H   0  0  0  0  0  0  0  0  0  0  0  0
  -10.6791   -0.9895   -2.4608 H   0  0  0  0  0  0  0  0  0  0  0  0
   -7.6900    0.9225   -2.9829 H   0  0  0  0  0  0  0  0  0  0  0  0
   -9.2982    0.4580   -3.6641 H   0  0  0  0  0  0  0  0  0  0  0  0
   -8.1383   -0.8073   -3.0780 H   0  0  0  0  0  0  0  0  0  0  0  0
   -8.8170    2.3196   -1.0452 H   0  0  0  0  0  0  0  0  0  0  0  0
  -10.4443    1.7129   -0.5391 H   0  0  0  0  0  0  0  0  0  0  0  0
  -10.0653    2.0805   -2.2919 H   0  0  0  0  0  0  0  0  0  0  0  0
   -5.7778    2.6961    0.3644 H   0  0  0  0  0  0  0  0  0  0  0  0
   -5.4595    2.0143    1.9556 H   0  0  0  0  0  0  0  0  0  0  0  0
   -3.3453    2.4370    1.3022 H   0  0  0  0  0  0  0  0  0  0  0  0
   -3.6940    2.2233   -0.4189 H   0  0  0  0  0  0  0  0  0  0  0  0
   -2.5023   -0.6121    3.7271 H   0  0  0  0  0  0  0  0  0  0  0  0
   -3.0832   -3.7921    3.0390 H   0  0  0  0  0  0  0  0  0  0  0  0
    2.9633   -1.6891   -0.3175 H   0  0  0  0  0  0  0  0  0  0  0  0
    5.3327   -1.5384    0.3507 H   0  0  0  0  0  0  0  0  0  0  0  0
    8.1570    2.0221    1.5034 H   0  0  0  0  0  0  0  0  0  0  0  0
    9.0779    4.1028    0.4148 H   0  0  0  0  0  0  0  0  0  0  0  0
    9.9162    3.9928   -1.8851 H   0  0  0  0  0  0  0  0  0  0  0  0
    9.8654    1.8590   -3.1395 H   0  0  0  0  0  0  0  0  0  0  0  0
  1  2  1  0
  2  3  2  0
  3  4  1  0
  4  5  1  0
  5  6  1  0
  6  7  1  0
  7  8  2  0
  8  9  1  0
  9 10  2  0
 10 11  1  0
 11 12  2  0
 11 13  2  0
 11 14  1  0
 14 15  1  0
 15 16  1  0
 16 17  2  3
 17 18  1  0
 18 19  1  0
 19 20  1  0
 20 21  1  0
 21 22  1  0
 22 23  2  0
 22 24  1  0
 24 25  1  0
 24 26  1  0
 24 27  1  0
 20 28  1  0
 28 29  1  0
 15 30  1  0
 30 31  1  0
 30 32  1  0
 32 33  2  0
 10 34  1  0
 34 35  2  0
  4 36  2  0
 36 37  1  0
 37 38  2  0
 38 39  1  0
 39 40  2  0
 40 41  1  0
 41 42  2  0
 42  2  1  0
 35  7  1  0
 41 36  1  0
 29 17  1  0
  1 43  1  0
  1 44  1  0
  1 45  1  0
  3 46  1  0
  5 47  1  0
  5 48  1  0
  8 49  1  0
  9 50  1  0
 14 51  1  0
 14 52  1  0
 15 53  1  0
 16 54  1  0
 18 55  1  0
 18 56  1  0
 19 57  1  0
 19 58  1  0
 25 59  1  0
 25 60  1  0
 25 61  1  0
 26 62  1  0
 26 63  1  0
 26 64  1  0
 27 65  1  0
 27 66  1  0
 27 67  1  0
 28 68  1  0
 28 69  1  0
 29 70  1  0
 29 71  1  0
 31 72  1  0
 32 73  1  0
 34 74  1  0
 35 75  1  0
 37 76  1  0
 38 77  1  0
 39 78  1  0
 40 79  1  0
M  END
$$$$
