
     RDKit          3D

 49 53  0  0  0  0  0  0  0  0999 V2000
    6.8718   -1.4539    0.5466 C   0  0  0  0  0  0  0  0  0  0  0  0
    6.1561   -0.6853   -0.4455 N   0  0  0  0  0  0  0  0  0  0  0  0
    6.9092    0.1504   -1.3510 C   0  0  0  0  0  0  0  0  0  0  0  0
    4.7552   -0.7289   -0.5417 C   0  0  0  0  0  0  0  0  0  0  0  0
    3.9835   -1.5040    0.3224 C   0  0  0  0  0  0  0  0  0  0  0  0
    2.6092   -1.5291    0.2012 C   0  0  0  0  0  0  0  0  0  0  0  0
    1.9433   -0.7979   -0.7683 C   0  0  0  0  0  0  0  0  0  0  0  0
    0.5199   -0.8753   -0.8645 C   0  0  0  0  0  0  0  0  0  0  0  0
   -0.0727   -1.8310   -1.6533 N   0  0  0  0  0  0  0  0  0  0  0  0
   -1.3750   -1.7382   -1.5986 N   0  0  0  0  0  0  0  0  0  0  0  0
   -1.6686   -0.7118   -0.7668 C   0  0  0  0  0  0  0  0  0  0  0  0
   -2.8967   -0.2188   -0.3777 C   0  0  0  0  0  0  0  0  0  0  0  0
   -4.1086   -0.8049   -0.9110 C   0  0  0  0  0  0  0  0  0  0  0  0
   -3.9980   -1.6132   -1.8972 O   0  0  0  0  0  0  0  0  0  0  0  0
   -5.4170   -0.4933   -0.3550 C   0  0  0  0  0  0  0  0  0  0  0  0
   -5.5118   -0.0921    0.9606 C   0  0  0  0  0  0  0  0  0  0  0  0
   -6.7513    0.2165    1.5022 C   0  0  0  0  0  0  0  0  0  0  0  0
   -7.9256    0.1454    0.7870 C   0  0  0  0  0  0  0  0  0  0  0  0
   -7.8048   -0.2614   -0.5381 C   0  0  0  0  0  0  0  0  0  0  0  0
   -6.5881   -0.5713   -1.0920 C   0  0  0  0  0  0  0  0  0  0  0  0
   -2.8503    0.8178    0.4736 N   0  0  0  0  0  0  0  0  0  0  0  0
   -1.7198    1.3629    0.9348 C   0  0  0  0  0  0  0  0  0  0  0  0
   -1.7608    2.4335    1.8076 C   0  0  0  0  0  0  0  0  0  0  0  0
   -0.5965    2.9967    2.2804 C   0  0  0  0  0  0  0  0  0  0  0  0
    0.6095    2.4812    1.8728 C   0  0  0  0  0  0  0  0  0  0  0  0
    0.6625    1.3924    0.9845 C   0  0  0  0  0  0  0  0  0  0  0  0
   -0.4909    0.8291    0.5123 C   0  0  0  0  0  0  0  0  0  0  0  0
   -0.4918   -0.2017   -0.3327 N   0  0  0  0  0  0  0  0  0  0  0  0
    2.7071   -0.0343   -1.6200 C   0  0  0  0  0  0  0  0  0  0  0  0
    4.0781   -0.0015   -1.5086 C   0  0  0  0  0  0  0  0  0  0  0  0
    6.6087   -1.0257    1.5335 H   0  0  0  0  0  0  0  0  0  0  0  0
    6.6661   -2.5383    0.4562 H   0  0  0  0  0  0  0  0  0  0  0  0
    7.9770   -1.3562    0.4376 H   0  0  0  0  0  0  0  0  0  0  0  0
    7.9828   -0.0166   -1.2596 H   0  0  0  0  0  0  0  0  0  0  0  0
    6.6107    1.2201   -1.2477 H   0  0  0  0  0  0  0  0  0  0  0  0
    6.6457   -0.1550   -2.4008 H   0  0  0  0  0  0  0  0  0  0  0  0
    4.5100   -2.0734    1.0790 H   0  0  0  0  0  0  0  0  0  0  0  0
    2.0640   -2.1531    0.9047 H   0  0  0  0  0  0  0  0  0  0  0  0
   -4.6280   -0.0172    1.6172 H   0  0  0  0  0  0  0  0  0  0  0  0
   -6.8049    0.5287    2.5487 H   0  0  0  0  0  0  0  0  0  0  0  0
   -8.9049    0.3725    1.1634 H   0  0  0  0  0  0  0  0  0  0  0  0
   -8.7224   -0.3278   -1.1297 H   0  0  0  0  0  0  0  0  0  0  0  0
   -6.5063   -0.8864   -2.1236 H   0  0  0  0  0  0  0  0  0  0  0  0
   -2.7175    2.8308    2.1212 H   0  0  0  0  0  0  0  0  0  0  0  0
   -0.6210    3.8300    2.9594 H   0  0  0  0  0  0  0  0  0  0  0  0
    1.5571    2.8714    2.2007 H   0  0  0  0  0  0  0  0  0  0  0  0
    1.6212    1.0327    0.7034 H   0  0  0  0  0  0  0  0  0  0  0  0
    2.2492    0.5720   -2.4176 H   0  0  0  0  0  0  0  0  0  0  0  0
    4.6356    0.6134   -2.2017 H   0  0  0  0  0  0  0  0  0  0  0  0
  1  2  1  0
  2  3  1  0
  2  4  1  0
  4  5  2  0
  5  6  1  0
  6  7  2  0
  7  8  1  0
  8  9  2  0
  9 10  1  0
 10 11  2  0
 11 12  1  0
 12 13  1  0
 13 14  2  0
 13 15  1  0
 15 16  2  0
 16 17  1  0
 17 18  2  0
 18 19  1  0
 19 20  2  0
 12 21  2  0
 21 22  1  0
 22 23  2  0
 23 24  1  0
 24 25  2  0
 25 26  1  0
 26 27  2  0
 27 28  1  0
  7 29  1  0
 29 30  2  0
 30  4  1  0
 28  8  1  0
 28 11  1  0
 20 15  1  0
 27 22  1  0
  1 31  1  0
  1 32  1  0
  1 33  1  0
  3 34  1  0
  3 35  1  0
  3 36  1  0
  5 37  1  0
  6 38  1  0
 16 39  1  0
 17 40  1  0
 18 41  1  0
 19 42  1  0
 20 43  1  0
 23 44  1  0
 24 45  1  0
 25 46  1  0
 26 47  1  0
 29 48  1  0
 30 49  1  0
M  END
$$$$
