
     RDKit          3D

 68 71  0  0  0  0  0  0  0  0999 V2000
   10.6241   -0.9156    0.8892 C   0  0  0  0  0  0  0  0  0  0  0  0
    9.8700    0.3520    0.5696 C   0  0  0  0  0  0  0  0  0  0  0  0
   10.7105    1.5888    0.8389 C   0  0  0  0  0  0  0  0  0  0  0  0
    9.2973    0.3653   -0.6981 O   0  0  0  0  0  0  0  0  0  0  0  0
    7.8700    0.4372   -0.8929 C   0  0  0  0  0  0  0  0  0  0  0  0
    7.0511    0.4696   -1.6853 N   0  0  0  0  0  0  0  0  0  0  0  0
    5.7449    0.5392   -1.5729 C   0  0  0  0  0  0  0  0  0  0  0  0
    5.2421    0.5817   -0.3223 C   0  0  0  0  0  0  0  0  0  0  0  0
    3.9201    0.6634    0.2964 C   0  0  2  0  0  0  0  0  0  0  0  0
    3.9852    1.2403    1.5880 O   0  0  0  0  0  0  0  0  0  0  0  0
    3.4075   -0.7519    0.4798 C   0  0  0  0  0  0  0  0  0  0  0  0
    1.9353   -0.6104    0.8924 C   0  0  0  0  0  0  0  0  0  0  0  0
    1.0770   -0.0926   -0.2002 C   0  0  2  0  0  0  0  0  0  0  0  0
    0.3769   -1.0957   -0.9510 N   0  0  0  0  0  0  0  0  0  0  0  0
   -0.5221   -1.9478   -0.2732 C   0  0  0  0  0  0  0  0  0  0  0  0
   -1.7249   -1.2396   -0.8551 C   0  0  0  0  0  0  0  0  0  0  0  0
   -2.4230   -0.5200    0.1698 N   0  0  0  0  0  0  0  0  0  0  0  0
   -3.8264   -0.5963    0.3685 C   0  0  0  0  0  0  0  0  0  0  0  0
   -4.4597   -1.3495   -0.4206 O   0  0  0  0  0  0  0  0  0  0  0  0
   -4.5099    0.1770    1.4565 C   0  0  0  0  0  0  0  0  0  0  0  0
   -5.9394   -0.0768    1.4430 N   0  0  0  0  0  0  0  0  0  0  0  0
   -6.6281    0.2633    0.2599 C   0  0  0  0  0  0  0  0  0  0  0  0
   -5.9992    0.7681   -0.7350 O   0  0  0  0  0  0  0  0  0  0  0  0
   -8.0638    0.0390    0.1687 C   0  0  0  0  0  0  0  0  0  0  0  0
   -8.7355   -0.4968    1.2201 C   0  0  0  0  0  0  0  0  0  0  0  0
  -10.1161   -0.6949    1.0889 C   0  0  0  0  0  0  0  0  0  0  0  0
  -10.7536   -0.3520   -0.0739 C   0  0  0  0  0  0  0  0  0  0  0  0
  -10.0631    0.1913   -1.1361 C   0  0  0  0  0  0  0  0  0  0  0  0
  -10.8298    0.5399   -2.3724 C   0  0  0  0  0  0  0  0  0  0  0  0
  -11.2452    1.8703   -2.2603 F   0  0  0  0  0  0  0  0  0  0  0  0
  -10.0349    0.4248   -3.4897 F   0  0  0  0  0  0  0  0  0  0  0  0
  -11.9202   -0.2844   -2.4716 F   0  0  0  0  0  0  0  0  0  0  0  0
   -8.7156    0.3901   -1.0217 C   0  0  0  0  0  0  0  0  0  0  0  0
   -0.7323   -0.5049   -1.6737 C   0  0  0  0  0  0  0  0  0  0  0  0
    1.9594    0.6611   -1.1868 C   0  0  0  0  0  0  0  0  0  0  0  0
    2.9659    1.5362   -0.4863 C   0  0  0  0  0  0  0  0  0  0  0  0
    6.8099    0.5129    0.6802 S   0  0  0  0  0  0  0  0  0  0  0  0
   11.4721   -0.9849    0.1864 H   0  0  0  0  0  0  0  0  0  0  0  0
   10.9469   -0.8298    1.9523 H   0  0  0  0  0  0  0  0  0  0  0  0
    9.9077   -1.7501    0.8132 H   0  0  0  0  0  0  0  0  0  0  0  0
    9.0224    0.4061    1.3129 H   0  0  0  0  0  0  0  0  0  0  0  0
   11.2549    1.9261   -0.0757 H   0  0  0  0  0  0  0  0  0  0  0  0
   11.3791    1.3505    1.6795 H   0  0  0  0  0  0  0  0  0  0  0  0
   10.0521    2.4447    1.1175 H   0  0  0  0  0  0  0  0  0  0  0  0
    5.0775    0.5623   -2.4559 H   0  0  0  0  0  0  0  0  0  0  0  0
    4.2475    0.5140    2.2340 H   0  0  0  0  0  0  0  0  0  0  0  0
    3.4216   -1.3496   -0.4330 H   0  0  0  0  0  0  0  0  0  0  0  0
    3.9155   -1.2279    1.3276 H   0  0  0  0  0  0  0  0  0  0  0  0
    1.9468    0.1316    1.7185 H   0  0  0  0  0  0  0  0  0  0  0  0
    1.5848   -1.5603    1.3401 H   0  0  0  0  0  0  0  0  0  0  0  0
    0.3795    0.6768    0.2130 H   0  0  0  0  0  0  0  0  0  0  0  0
   -0.4382   -3.0038   -0.6378 H   0  0  0  0  0  0  0  0  0  0  0  0
   -0.4935   -1.9654    0.8302 H   0  0  0  0  0  0  0  0  0  0  0  0
   -2.3689   -1.8769   -1.4986 H   0  0  0  0  0  0  0  0  0  0  0  0
   -1.8702    0.0945    0.8056 H   0  0  0  0  0  0  0  0  0  0  0  0
   -4.3491    1.2499    1.2243 H   0  0  0  0  0  0  0  0  0  0  0  0
   -4.0296   -0.0594    2.4101 H   0  0  0  0  0  0  0  0  0  0  0  0
   -6.3362   -0.4844    2.2972 H   0  0  0  0  0  0  0  0  0  0  0  0
   -8.2653   -0.7782    2.1501 H   0  0  0  0  0  0  0  0  0  0  0  0
  -10.6289   -1.1197    1.9317 H   0  0  0  0  0  0  0  0  0  0  0  0
  -11.8073   -0.5044   -0.1709 H   0  0  0  0  0  0  0  0  0  0  0  0
   -8.1539    0.8132   -1.8378 H   0  0  0  0  0  0  0  0  0  0  0  0
   -0.6530   -0.8199   -2.7506 H   0  0  0  0  0  0  0  0  0  0  0  0
   -0.7575    0.5968   -1.6370 H   0  0  0  0  0  0  0  0  0  0  0  0
    2.5187   -0.1011   -1.7656 H   0  0  0  0  0  0  0  0  0  0  0  0
    1.3515    1.2225   -1.9244 H   0  0  0  0  0  0  0  0  0  0  0  0
    2.4987    2.3228    0.1158 H   0  0  0  0  0  0  0  0  0  0  0  0
    3.5700    2.0216   -1.2826 H   0  0  0  0  0  0  0  0  0  0  0  0
  1  2  1  0
  2  3  1  0
  2  4  1  0
  4  5  1  0
  5  6  2  0
  6  7  1  0
  7  8  2  0
  8  9  1  0
  9 10  1  1
  9 11  1  0
 11 12  1  0
 12 13  1  0
 13 14  1  0
 14 15  1  0
 15 16  1  0
 16 17  1  0
 17 18  1  0
 18 19  2  0
 18 20  1  0
 20 21  1  0
 21 22  1  0
 22 23  2  0
 22 24  1  0
 24 25  2  0
 25 26  1  0
 26 27  2  0
 27 28  1  0
 28 29  1  0
 29 30  1  0
 29 31  1  0
 29 32  1  0
 28 33  2  0
 16 34  1  0
 13 35  1  0
 35 36  1  0
  8 37  1  0
 37  5  1  0
 36  9  1  0
 34 14  1  0
 33 24  1  0
  1 38  1  0
  1 39  1  0
  1 40  1  0
  2 41  1  0
  3 42  1  0
  3 43  1  0
  3 44  1  0
  7 45  1  0
 10 46  1  0
 11 47  1  0
 11 48  1  0
 12 49  1  0
 12 50  1  0
 13 51  1  1
 15 52  1  0
 15 53  1  0
 16 54  1  0
 17 55  1  0
 20 56  1  0
 20 57  1  0
 21 58  1  0
 25 59  1  0
 26 60  1  0
 27 61  1  0
 33 62  1  0
 34 63  1  0
 34 64  1  0
 35 65  1  0
 35 66  1  0
 36 67  1  0
 36 68  1  0
M  END
$$$$
