
     RDKit          3D

 61 65  0  0  0  0  0  0  0  0999 V2000
   -9.9105    0.3679    0.8243 C   0  0  0  0  0  0  0  0  0  0  0  0
   -8.6048    0.2247    0.8168 O   0  0  0  0  0  0  0  0  0  0  0  0
   -7.3318    0.0761    0.8245 C   0  0  0  0  0  0  0  0  0  0  0  0
   -6.4856   -0.5733    1.6941 C   0  0  0  0  0  0  0  0  0  0  0  0
   -5.2323   -0.3828    1.3390 C   0  0  0  0  0  0  0  0  0  0  0  0
   -4.4101    0.2024    0.4782 C   0  0  0  0  0  0  0  0  0  0  0  0
   -5.3181    0.8855   -0.5014 C   0  0  0  0  0  0  0  0  0  0  0  0
   -6.6948    0.7516   -0.2671 C   0  0  0  0  0  0  0  0  0  0  0  0
   -7.9368    1.0255   -0.9539 O   0  0  0  0  0  0  0  0  0  0  0  0
   -7.8278    1.0717   -2.3498 C   0  0  0  0  0  0  0  0  0  0  0  0
   -3.2259    0.2648   -0.0780 C   0  0  0  0  0  0  0  0  0  0  0  0
   -2.7763    1.3070   -0.9870 O   0  0  0  0  0  0  0  0  0  0  0  0
   -1.3139    1.2798   -0.9333 C   0  0  0  0  0  0  0  0  0  0  0  0
   -0.5129    1.5759   -1.9822 C   0  0  0  0  0  0  0  0  0  0  0  0
    0.8847    1.4772   -1.9088 C   0  0  0  0  0  0  0  0  0  0  0  0
    1.3024    1.0472   -0.6868 C   0  0  0  0  0  0  0  0  0  0  0  0
    2.4114    0.1004   -0.4315 N   0  0  0  0  0  0  0  0  0  0  0  0
    3.2275   -0.4326    0.6023 C   0  0  0  0  0  0  0  0  0  0  0  0
    2.9794    0.2072    1.7025 O   0  0  0  0  0  0  0  0  0  0  0  0
    4.1142   -1.6233    0.1767 C   0  0  0  0  0  0  0  0  0  0  0  0
    3.5401   -2.9741    0.3635 C   0  0  0  0  0  0  0  0  0  0  0  0
    4.5334   -2.3862    1.3744 C   0  0  0  0  0  0  0  0  0  0  0  0
    4.9846   -1.2522   -0.9085 C   0  0  0  0  0  0  0  0  0  0  0  0
    5.0440   -1.1381   -2.1620 O   0  0  0  0  0  0  0  0  0  0  0  0
    6.2703   -0.8824   -0.3858 N   0  0  0  0  0  0  0  0  0  0  0  0
    7.6085   -0.3862   -0.5568 C   0  0  0  0  0  0  0  0  0  0  0  0
    8.9260   -0.6278   -0.2920 C   0  0  0  0  0  0  0  0  0  0  0  0
    9.6886    0.4966   -0.4334 C   0  0  0  0  0  0  0  0  0  0  0  0
    9.2409    1.7807   -0.7996 C   0  0  0  0  0  0  0  0  0  0  0  0
   10.0699    2.8218   -0.8479 F   0  0  0  0  0  0  0  0  0  0  0  0
    7.8803    1.9848   -1.0683 C   0  0  0  0  0  0  0  0  0  0  0  0
    7.0287    0.8637   -0.9481 C   0  0  0  0  0  0  0  0  0  0  0  0
    0.6741    0.7183    0.5180 C   0  0  0  0  0  0  0  0  0  0  0  0
   -0.7496    0.8710    0.3211 C   0  0  0  0  0  0  0  0  0  0  0  0
   -2.4672   -0.8196    0.4298 C   0  0  0  0  0  0  0  0  0  0  0  0
   -3.1389   -1.6363    1.3877 C   0  0  0  0  0  0  0  0  0  0  0  0
   -4.4196   -1.4567    1.8319 N   0  0  0  0  0  0  0  0  0  0  0  0
  -10.3486    1.0341    0.0116 H   0  0  0  0  0  0  0  0  0  0  0  0
  -10.2272    1.0374    1.7642 H   0  0  0  0  0  0  0  0  0  0  0  0
  -10.5232   -0.5217    0.8884 H   0  0  0  0  0  0  0  0  0  0  0  0
   -6.8506   -1.1363    2.5308 H   0  0  0  0  0  0  0  0  0  0  0  0
   -5.1807    1.4841   -1.3881 H   0  0  0  0  0  0  0  0  0  0  0  0
   -6.8503    1.1817   -2.7833 H   0  0  0  0  0  0  0  0  0  0  0  0
   -7.8891   -0.1782   -2.5809 H   0  0  0  0  0  0  0  0  0  0  0  0
   -8.7242    1.3062   -2.8942 H   0  0  0  0  0  0  0  0  0  0  0  0
   -0.9978    1.9382   -2.8569 H   0  0  0  0  0  0  0  0  0  0  0  0
    1.6197    1.6921   -2.6255 H   0  0  0  0  0  0  0  0  0  0  0  0
    2.6450   -0.3390   -1.3706 H   0  0  0  0  0  0  0  0  0  0  0  0
    3.9287   -3.8171   -0.2041 H   0  0  0  0  0  0  0  0  0  0  0  0
    2.4505   -2.9965    0.6486 H   0  0  0  0  0  0  0  0  0  0  0  0
    5.4475   -2.8476    1.5925 H   0  0  0  0  0  0  0  0  0  0  0  0
    4.0244   -2.0254    2.3591 H   0  0  0  0  0  0  0  0  0  0  0  0
    6.4661   -1.1511    0.6522 H   0  0  0  0  0  0  0  0  0  0  0  0
    9.0683   -1.6524   -0.0654 H   0  0  0  0  0  0  0  0  0  0  0  0
   10.7256    0.3647   -0.2114 H   0  0  0  0  0  0  0  0  0  0  0  0
    7.6323    2.9985   -1.3464 H   0  0  0  0  0  0  0  0  0  0  0  0
    5.9938    1.1989   -1.2383 H   0  0  0  0  0  0  0  0  0  0  0  0
    0.8482    0.3863    1.5153 H   0  0  0  0  0  0  0  0  0  0  0  0
   -1.3708    0.7630    1.2265 H   0  0  0  0  0  0  0  0  0  0  0  0
   -1.4831   -1.0966    0.0546 H   0  0  0  0  0  0  0  0  0  0  0  0
   -2.4566   -2.4534    1.6687 H   0  0  0  0  0  0  0  0  0  0  0  0
  1  2  1  0
  2  3  1  0
  3  4  2  0
  4  5  1  0
  5  6  2  0
  6  7  1  0
  7  8  2  0
  8  9  1  0
  9 10  1  0
  6 11  1  0
 11 12  1  0
 12 13  1  0
 13 14  2  0
 14 15  1  0
 15 16  2  0
 16 17  1  0
 17 18  1  0
 18 19  2  0
 18 20  1  0
 20 21  1  0
 21 22  1  0
 20 23  1  0
 23 24  2  0
 23 25  1  0
 25 26  1  0
 26 27  2  0
 27 28  1  0
 28 29  2  0
 29 30  1  0
 29 31  1  0
 31 32  2  0
 16 33  1  0
 33 34  2  0
 11 35  2  0
 35 36  1  0
 36 37  2  0
  8  3  1  0
 34 13  1  0
 37  5  1  0
 22 20  1  0
 32 26  1  0
  1 38  1  0
  1 39  1  0
  1 40  1  0
  4 41  1  0
  7 42  1  0
 10 43  1  0
 10 44  1  0
 10 45  1  0
 14 46  1  0
 15 47  1  0
 17 48  1  0
 21 49  1  0
 21 50  1  0
 22 51  1  0
 22 52  1  0
 25 53  1  0
 27 54  1  0
 28 55  1  0
 31 56  1  0
 32 57  1  0
 33 58  1  0
 34 59  1  0
 35 60  1  0
 36 61  1  0
M  END
$$$$
