
     RDKit          3D

 83 84  0  0  0  0  0  0  0  0999 V2000
   -9.6814    1.3944   -1.9441 C   0  0  0  0  0  0  0  0  0  0  0  0
   -8.8340    2.5585   -1.6274 C   0  0  0  0  0  0  0  0  0  0  0  0
   -9.2318    3.8522   -1.8046 C   0  0  0  0  0  0  0  0  0  0  0  0
   -8.4302    4.9190   -1.4993 C   0  0  0  0  0  0  0  0  0  0  0  0
   -7.1449    4.7129   -0.9808 C   0  0  0  0  0  0  0  0  0  0  0  0
   -6.7247    3.4124   -0.7946 C   0  0  0  0  0  0  0  0  0  0  0  0
   -5.6098    2.8683   -0.3430 O   0  0  0  0  0  0  0  0  0  0  0  0
   -5.6945    1.5609   -0.3626 C   0  0  0  0  0  0  0  0  0  0  0  0
   -4.6857    0.5880    0.0509 C   0  0  0  0  0  0  0  0  0  0  0  0
   -4.9478   -0.6335   -0.0537 O   0  0  0  0  0  0  0  0  0  0  0  0
   -3.3595    0.9883    0.5871 C   0  0  0  0  0  0  0  0  0  0  0  0
   -3.5118    1.8397    1.8349 C   0  0  0  0  0  0  0  0  0  0  0  0
   -2.5883   -0.2093    0.8373 N   0  0  0  0  0  0  0  0  0  0  0  0
   -1.3310   -0.4624    0.1816 C   0  0  0  0  0  0  0  0  0  0  0  0
   -0.9513    0.4201   -0.6098 O   0  0  0  0  0  0  0  0  0  0  0  0
   -0.6023   -1.7144    0.4844 C   0  0  2  0  0  0  0  0  0  0  0  0
   -0.4582   -2.0183    1.9388 C   0  0  0  0  0  0  0  0  0  0  0  0
    0.2279   -3.3078    2.2179 C   0  0  0  0  0  0  0  0  0  0  0  0
    1.3109   -3.6065    1.6603 O   0  0  0  0  0  0  0  0  0  0  0  0
   -0.3495   -4.2458    3.1429 N   0  0  0  0  0  0  0  0  0  0  0  0
    0.3269   -5.4825    3.4307 C   0  0  0  0  0  0  0  0  0  0  0  0
   -1.6305   -3.9517    3.7569 C   0  0  0  0  0  0  0  0  0  0  0  0
    0.6172   -1.6382   -0.2881 N   0  0  0  0  0  0  0  0  0  0  0  0
    1.8617   -1.1689    0.1496 C   0  0  0  0  0  0  0  0  0  0  0  0
    1.9814   -0.7384    1.3231 O   0  0  0  0  0  0  0  0  0  0  0  0
    3.0507   -1.1565   -0.7258 C   0  0  1  0  0  0  0  0  0  0  0  0
    4.1414   -0.4000   -0.0585 N   0  0  0  0  0  0  0  0  0  0  0  0
    4.5754    0.8038   -0.6717 C   0  0  0  0  0  0  0  0  0  0  0  0
    4.0807    1.2530   -1.7333 O   0  0  0  0  0  0  0  0  0  0  0  0
    5.6657    1.5603   -0.0190 C   0  0  0  0  0  0  0  0  0  0  0  0
    6.0564    2.8280   -0.6930 C   0  0  0  0  0  0  0  0  0  0  0  0
    7.1913    3.4365    0.1279 C   0  0  0  0  0  0  0  0  0  0  0  0
    4.9257    3.8379   -0.6998 C   0  0  0  0  0  0  0  0  0  0  0  0
    6.5447    2.6615   -2.1104 C   0  0  0  0  0  0  0  0  0  0  0  0
    3.5765   -2.4924   -1.1382 C   0  0  0  0  0  0  0  0  0  0  0  0
    2.5703   -3.2802   -1.9159 C   0  0  0  0  0  0  0  0  0  0  0  0
    4.7466   -2.2217   -2.0930 C   0  0  0  0  0  0  0  0  0  0  0  0
    4.1663   -3.2917   -0.0031 C   0  0  0  0  0  0  0  0  0  0  0  0
   -6.9006    1.2597   -0.8385 N   0  0  0  0  0  0  0  0  0  0  0  0
   -7.5504    2.3808   -1.1111 C   0  0  0  0  0  0  0  0  0  0  0  0
   -9.0850    0.4449   -1.8303 H   0  0  0  0  0  0  0  0  0  0  0  0
   -9.9925    1.4394   -2.9943 H   0  0  0  0  0  0  0  0  0  0  0  0
  -10.5267    1.2925   -1.2159 H   0  0  0  0  0  0  0  0  0  0  0  0
  -10.2427    3.9945   -2.2157 H   0  0  0  0  0  0  0  0  0  0  0  0
   -8.7512    5.9505   -1.6404 H   0  0  0  0  0  0  0  0  0  0  0  0
   -6.5185    5.5419   -0.7431 H   0  0  0  0  0  0  0  0  0  0  0  0
   -2.8765    1.6356   -0.1727 H   0  0  0  0  0  0  0  0  0  0  0  0
   -3.7360    2.8749    1.5144 H   0  0  0  0  0  0  0  0  0  0  0  0
   -2.6001    1.8453    2.4536 H   0  0  0  0  0  0  0  0  0  0  0  0
   -4.3938    1.4614    2.3861 H   0  0  0  0  0  0  0  0  0  0  0  0
   -2.9191   -0.9332    1.5034 H   0  0  0  0  0  0  0  0  0  0  0  0
   -1.1790   -2.6064    0.0829 H   0  0  0  0  0  0  0  0  0  0  0  0
    0.0579   -1.2416    2.5371 H   0  0  0  0  0  0  0  0  0  0  0  0
   -1.4993   -2.0778    2.3554 H   0  0  0  0  0  0  0  0  0  0  0  0
   -0.3910   -6.3504    3.4747 H   0  0  0  0  0  0  0  0  0  0  0  0
    0.9001   -5.4513    4.3872 H   0  0  0  0  0  0  0  0  0  0  0  0
    1.0427   -5.7317    2.6074 H   0  0  0  0  0  0  0  0  0  0  0  0
   -2.4252   -3.7632    2.9701 H   0  0  0  0  0  0  0  0  0  0  0  0
   -2.0336   -4.8567    4.3051 H   0  0  0  0  0  0  0  0  0  0  0  0
   -1.5874   -3.1518    4.5192 H   0  0  0  0  0  0  0  0  0  0  0  0
    0.4676   -1.9663   -1.2972 H   0  0  0  0  0  0  0  0  0  0  0  0
    2.7666   -0.5634   -1.6103 H   0  0  0  0  0  0  0  0  0  0  0  0
    4.5588   -0.7605    0.8335 H   0  0  0  0  0  0  0  0  0  0  0  0
    6.5452    0.8851    0.0579 H   0  0  0  0  0  0  0  0  0  0  0  0
    5.3990    1.8133    1.0400 H   0  0  0  0  0  0  0  0  0  0  0  0
    6.8334    4.3239    0.7031 H   0  0  0  0  0  0  0  0  0  0  0  0
    8.0204    3.7472   -0.5440 H   0  0  0  0  0  0  0  0  0  0  0  0
    7.5572    2.7270    0.8895 H   0  0  0  0  0  0  0  0  0  0  0  0
    5.3822    4.8719   -0.6296 H   0  0  0  0  0  0  0  0  0  0  0  0
    4.3322    3.8424   -1.6106 H   0  0  0  0  0  0  0  0  0  0  0  0
    4.2895    3.6820    0.2080 H   0  0  0  0  0  0  0  0  0  0  0  0
    6.9713    1.6355   -2.2404 H   0  0  0  0  0  0  0  0  0  0  0  0
    5.6967    2.8604   -2.8059 H   0  0  0  0  0  0  0  0  0  0  0  0
    7.3312    3.4080   -2.3025 H   0  0  0  0  0  0  0  0  0  0  0  0
    2.1029   -2.6978   -2.7338 H   0  0  0  0  0  0  0  0  0  0  0  0
    1.8510   -3.8338   -1.3037 H   0  0  0  0  0  0  0  0  0  0  0  0
    3.0963   -4.1216   -2.5026 H   0  0  0  0  0  0  0  0  0  0  0  0
    5.0985   -3.2240   -2.4270 H   0  0  0  0  0  0  0  0  0  0  0  0
    4.4392   -1.6593   -2.9650 H   0  0  0  0  0  0  0  0  0  0  0  0
    5.6146   -1.7726   -1.5387 H   0  0  0  0  0  0  0  0  0  0  0  0
    4.2913   -2.7239    0.9363 H   0  0  0  0  0  0  0  0  0  0  0  0
    5.1759   -3.6927   -0.2272 H   0  0  0  0  0  0  0  0  0  0  0  0
    3.5363   -4.2136    0.1807 H   0  0  0  0  0  0  0  0  0  0  0  0
  1  2  1  0
  2  3  2  0
  3  4  1  0
  4  5  2  0
  5  6  1  0
  6  7  1  0
  7  8  1  0
  8  9  1  0
  9 10  2  0
  9 11  1  0
 11 12  1  0
 11 13  1  0
 13 14  1  0
 14 15  2  0
 14 16  1  0
 16 17  1  0
 17 18  1  0
 18 19  2  0
 18 20  1  0
 20 21  1  0
 20 22  1  0
 16 23  1  0
 23 24  1  0
 24 25  2  0
 24 26  1  0
 26 27  1  0
 27 28  1  0
 28 29  2  0
 28 30  1  0
 30 31  1  0
 31 32  1  0
 31 33  1  0
 31 34  1  0
 26 35  1  0
 35 36  1  0
 35 37  1  0
 35 38  1  0
  8 39  2  0
 39 40  1  0
 40  2  1  0
 40  6  2  0
  1 41  1  0
  1 42  1  0
  1 43  1  0
  3 44  1  0
  4 45  1  0
  5 46  1  0
 11 47  1  0
 12 48  1  0
 12 49  1  0
 12 50  1  0
 13 51  1  0
 16 52  1  6
 17 53  1  0
 17 54  1  0
 21 55  1  0
 21 56  1  0
 21 57  1  0
 22 58  1  0
 22 59  1  0
 22 60  1  0
 23 61  1  0
 26 62  1  6
 27 63  1  0
 30 64  1  0
 30 65  1  0
 32 66  1  0
 32 67  1  0
 32 68  1  0
 33 69  1  0
 33 70  1  0
 33 71  1  0
 34 72  1  0
 34 73  1  0
 34 74  1  0
 36 75  1  0
 36 76  1  0
 36 77  1  0
 37 78  1  0
 37 79  1  0
 37 80  1  0
 38 81  1  0
 38 82  1  0
 38 83  1  0
M  END
$$$$
