
     RDKit          3D

 32 34  0  0  0  0  0  0  0  0999 V2000
   -2.5522    4.0686    1.5881 O   0  0  0  0  0  1  0  0  0  0  0  0
   -1.4286    3.2872    1.3626 N   0  0  0  0  0  4  0  0  0  0  0  0
   -0.2706    3.6925    1.5874 O   0  0  0  0  0  0  0  0  0  0  0  0
   -1.6752    1.9736    0.8513 C   0  0  0  0  0  0  0  0  0  0  0  0
   -0.5698    1.1528    0.6098 C   0  0  0  0  0  0  0  0  0  0  0  0
   -0.8848   -0.0820    0.1240 C   0  0  0  0  0  0  0  0  0  0  0  0
   -2.1709   -0.5605   -0.1363 C   0  0  0  0  0  0  0  0  0  0  0  0
   -2.5665   -1.8330   -0.6413 N   0  0  0  0  0  0  0  0  0  0  0  0
   -1.7287   -2.9692   -0.9096 C   0  0  0  0  0  0  0  0  0  0  0  0
   -2.1588   -3.7260   -1.8199 O   0  0  0  0  0  0  0  0  0  0  0  0
   -0.4504   -3.2303   -0.1674 C   0  0  0  0  0  0  0  0  0  0  0  0
    0.4638   -2.1311   -0.2029 N   0  0  0  0  0  0  0  0  0  0  0  0
    0.3404   -0.8536   -0.0914 C   0  0  0  0  0  0  0  0  0  0  0  0
    1.6016   -0.1246   -0.1993 C   0  0  0  0  0  0  0  0  0  0  0  0
    1.9565    0.8676   -1.0935 C   0  0  0  0  0  0  0  0  0  0  0  0
    3.2182    1.4240   -1.0117 C   0  0  0  0  0  0  0  0  0  0  0  0
    4.1233    1.0053   -0.0551 C   0  0  0  0  0  0  0  0  0  0  0  0
    3.7747    0.0019    0.8549 C   0  0  0  0  0  0  0  0  0  0  0  0
    2.5143   -0.5373    0.7547 C   0  0  0  0  0  0  0  0  0  0  0  0
    2.2134   -1.7899    1.9645 Cl  0  0  0  0  0  0  0  0  0  0  0  0
   -3.2221    0.2999    0.1235 C   0  0  0  0  0  0  0  0  0  0  0  0
   -2.9581    1.5721    0.6202 C   0  0  0  0  0  0  0  0  0  0  0  0
    0.4542    1.4312    0.7784 H   0  0  0  0  0  0  0  0  0  0  0  0
   -3.5842   -1.9400   -0.8347 H   0  0  0  0  0  0  0  0  0  0  0  0
    0.0175   -4.1095   -0.6155 H   0  0  0  0  0  0  0  0  0  0  0  0
   -0.6707   -3.5086    0.9000 H   0  0  0  0  0  0  0  0  0  0  0  0
    1.1692    1.1095   -1.7913 H   0  0  0  0  0  0  0  0  0  0  0  0
    3.4324    2.1947   -1.7400 H   0  0  0  0  0  0  0  0  0  0  0  0
    5.1104    1.4577   -0.0098 H   0  0  0  0  0  0  0  0  0  0  0  0
    4.5312   -0.2766    1.5759 H   0  0  0  0  0  0  0  0  0  0  0  0
   -4.2173   -0.0642   -0.0757 H   0  0  0  0  0  0  0  0  0  0  0  0
   -3.8121    2.1977    0.8036 H   0  0  0  0  0  0  0  0  0  0  0  0
  1  2  1  0
  2  3  2  0
  2  4  1  0
  4  5  2  0
  5  6  1  0
  6  7  2  0
  7  8  1  0
  8  9  1  0
  9 10  2  0
  9 11  1  0
 11 12  1  0
 12 13  2  0
 13 14  1  0
 14 15  2  0
 15 16  1  0
 16 17  2  0
 17 18  1  0
 18 19  2  0
 19 20  1  0
  7 21  1  0
 21 22  2  0
 22  4  1  0
 13  6  1  0
 19 14  1  0
  5 23  1  0
  8 24  1  0
 11 25  1  0
 11 26  1  0
 15 27  1  0
 16 28  1  0
 17 29  1  0
 18 30  1  0
 21 31  1  0
 22 32  1  0
M  CHG  2   1  -1   2   1
M  END
$$$$
