
     RDKit          3D

 42 43  0  0  0  0  0  0  0  0999 V2000
   -4.1064   -1.8485    1.4610 C   0  0  0  0  0  0  0  0  0  0  0  0
   -2.8000   -1.1249    1.5103 C   0  0  0  0  0  0  0  0  0  0  0  0
   -2.2894   -0.4159    2.4408 O   0  0  0  0  0  0  0  0  0  0  0  0
   -2.0298   -1.2587    0.3412 O   0  0  0  0  0  0  0  0  0  0  0  0
   -0.7514   -0.6382    0.2023 C   0  0  0  0  0  0  0  0  0  0  0  0
   -0.7167    0.8337    0.1761 C   0  0  0  0  0  0  0  0  0  0  0  0
    0.6298    1.4963    0.0975 C   0  0  0  0  0  0  0  0  0  0  0  0
    1.5240    1.3090   -1.0348 C   0  0  0  0  0  0  0  0  0  0  0  0
    2.0485    0.0525   -1.4116 N   0  0  0  0  0  0  0  0  0  0  0  0
    1.8208   -0.9555   -2.3124 C   0  0  0  0  0  0  0  0  0  0  0  0
    2.7248   -1.9131   -2.2361 N   0  0  0  0  0  0  0  0  0  0  0  0
    3.5962   -1.6002   -1.2907 C   0  0  0  0  0  0  0  0  0  0  0  0
    4.6953   -2.3225   -0.8861 C   0  0  0  0  0  0  0  0  0  0  0  0
    5.4404   -1.7781    0.1177 N   0  0  0  0  0  0  0  0  0  0  0  0
    5.0547   -0.5878    0.6368 C   0  0  0  0  0  0  0  0  0  0  0  0
    5.8604   -0.0422    1.6920 N   0  0  0  0  0  0  0  0  0  0  0  0
    3.9741    0.0861    0.2136 N   0  0  0  0  0  0  0  0  0  0  0  0
    3.1861   -0.3877   -0.7762 C   0  0  0  0  0  0  0  0  0  0  0  0
   -1.5735    1.3346   -0.9892 C   0  0  0  0  0  0  0  0  0  0  0  0
   -2.9203    1.0342   -0.9509 O   0  0  0  0  0  0  0  0  0  0  0  0
   -3.8278    1.5172   -0.0007 C   0  0  0  0  0  0  0  0  0  0  0  0
   -5.2774    1.2043    0.0546 C   0  0  0  0  0  0  0  0  0  0  0  0
   -3.3458    2.2835    0.8739 O   0  0  0  0  0  0  0  0  0  0  0  0
   -4.7165   -1.4852    2.3036 H   0  0  0  0  0  0  0  0  0  0  0  0
   -3.8456   -2.9272    1.5514 H   0  0  0  0  0  0  0  0  0  0  0  0
   -4.5793   -1.6692    0.4761 H   0  0  0  0  0  0  0  0  0  0  0  0
   -0.1856   -1.1344   -0.6008 H   0  0  0  0  0  0  0  0  0  0  0  0
   -0.2170   -0.9470    1.1417 H   0  0  0  0  0  0  0  0  0  0  0  0
   -1.2034    1.2026    1.1260 H   0  0  0  0  0  0  0  0  0  0  0  0
    1.1624    1.3083    1.1039 H   0  0  0  0  0  0  0  0  0  0  0  0
    0.3798    2.6111    0.2306 H   0  0  0  0  0  0  0  0  0  0  0  0
    2.3965    2.0478   -0.8867 H   0  0  0  0  0  0  0  0  0  0  0  0
    1.0435    1.7970   -1.9628 H   0  0  0  0  0  0  0  0  0  0  0  0
    0.9312   -0.8046   -2.9459 H   0  0  0  0  0  0  0  0  0  0  0  0
    4.9562   -3.2696   -1.3374 H   0  0  0  0  0  0  0  0  0  0  0  0
    6.5164    0.7075    1.9627 H   0  0  0  0  0  0  0  0  0  0  0  0
    5.9416   -0.4322    2.6555 H   0  0  0  0  0  0  0  0  0  0  0  0
   -1.1530    0.9013   -1.9455 H   0  0  0  0  0  0  0  0  0  0  0  0
   -1.3657    2.4289   -1.0820 H   0  0  0  0  0  0  0  0  0  0  0  0
   -5.5383    0.2935   -0.5258 H   0  0  0  0  0  0  0  0  0  0  0  0
   -5.5665    1.0155    1.1157 H   0  0  0  0  0  0  0  0  0  0  0  0
   -5.8737    2.0777   -0.3093 H   0  0  0  0  0  0  0  0  0  0  0  0
  1  2  1  0
  2  3  2  0
  2  4  1  0
  4  5  1  0
  5  6  1  0
  6  7  1  0
  7  8  1  0
  8  9  1  0
  9 10  1  0
 10 11  2  0
 11 12  1  0
 12 13  2  0
 13 14  1  0
 14 15  2  0
 15 16  1  0
 15 17  1  0
 17 18  2  0
  6 19  1  0
 19 20  1  0
 20 21  1  0
 21 22  1  0
 21 23  2  0
 18  9  1  0
 18 12  1  0
  1 24  1  0
  1 25  1  0
  1 26  1  0
  5 27  1  0
  5 28  1  0
  6 29  1  0
  7 30  1  0
  7 31  1  0
  8 32  1  0
  8 33  1  0
 10 34  1  0
 13 35  1  0
 16 36  1  0
 16 37  1  0
 19 38  1  0
 19 39  1  0
 22 40  1  0
 22 41  1  0
 22 42  1  0
M  END
$$$$
