
     RDKit          3D

 72 77  0  0  0  0  0  0  0  0999 V2000
    4.7883    2.4502    2.4213 C   0  0  0  0  0  0  0  0  0  0  0  0
    5.9827    1.8700    1.7602 C   0  0  0  0  0  0  0  0  0  0  0  0
    7.2469    2.2422    2.2309 C   0  0  0  0  0  0  0  0  0  0  0  0
    8.3716    1.7167    1.6424 C   0  0  0  0  0  0  0  0  0  0  0  0
    9.7189    2.0854    2.1095 C   0  0  0  0  0  0  0  0  0  0  0  0
    9.8284    2.8834    3.0485 O   0  0  0  0  0  0  0  0  0  0  0  0
   10.8509    1.5594    1.5212 O   0  0  0  0  0  0  0  0  0  0  0  0
    8.2333    0.8293    0.5951 C   0  0  0  0  0  0  0  0  0  0  0  0
    6.9842    0.4544    0.1216 C   0  0  0  0  0  0  0  0  0  0  0  0
    5.8613    0.9872    0.7185 C   0  0  0  0  0  0  0  0  0  0  0  0
    4.5492    0.6066    0.2254 C   0  0  0  0  0  0  0  0  0  0  0  0
    4.2941   -0.7358    0.0144 C   0  0  0  0  0  0  0  0  0  0  0  0
    3.0342   -1.1220   -0.4685 C   0  0  0  0  0  0  0  0  0  0  0  0
    2.0428   -0.2146   -0.7403 C   0  0  0  0  0  0  0  0  0  0  0  0
    0.7795   -0.6354   -1.2230 N   0  0  0  0  0  0  0  0  0  0  0  0
    0.2912   -1.9616   -1.4733 C   0  0  0  0  0  0  0  0  0  0  0  0
    0.9237   -3.0341   -1.2979 O   0  0  0  0  0  0  0  0  0  0  0  0
   -1.0648   -1.8743   -1.9678 N   0  0  0  0  0  0  0  0  0  0  0  0
   -1.6904   -2.8141   -2.8080 C   0  0  0  0  0  0  0  0  0  0  0  0
   -1.6495   -2.7402   -4.1599 N   0  0  0  0  0  0  0  0  0  0  0  0
   -2.2327   -3.6164   -4.9658 C   0  0  0  0  0  0  0  0  0  0  0  0
   -2.9265   -4.6719   -4.4192 C   0  0  0  0  0  0  0  0  0  0  0  0
   -2.9833   -4.7700   -3.0513 C   0  0  0  0  0  0  0  0  0  0  0  0
   -2.3709   -3.8494   -2.2830 N   0  0  0  0  0  0  0  0  0  0  0  0
   -1.5368   -0.6278   -1.3819 C   0  0  0  0  0  0  0  0  0  0  0  0
   -1.7972   -0.7274    0.0780 C   0  0  0  0  0  0  0  0  0  0  0  0
   -3.2454   -0.5664    0.4621 C   0  0  0  0  0  0  0  0  0  0  0  0
   -3.8920    0.5509   -0.1124 N   0  0  0  0  0  0  0  0  0  0  0  0
   -4.2396    1.5938    0.8020 C   0  0  0  0  0  0  0  0  0  0  0  0
   -5.1820    0.9788    1.8077 C   0  0  0  0  0  0  0  0  0  0  0  0
   -4.7649    0.6650    3.0461 N   0  0  0  0  0  0  0  0  0  0  0  0
   -5.5374    0.1241    3.9771 C   0  0  0  0  0  0  0  0  0  0  0  0
   -6.8571   -0.1325    3.6494 C   0  0  0  0  0  0  0  0  0  0  0  0
   -7.3322    0.1674    2.4047 C   0  0  0  0  0  0  0  0  0  0  0  0
   -6.4927    0.7249    1.4802 C   0  0  0  0  0  0  0  0  0  0  0  0
   -6.9368    1.0782    0.1037 C   0  0  0  0  0  0  0  0  0  0  0  0
   -3.4668    0.9665   -1.3932 C   0  0  0  0  0  0  0  0  0  0  0  0
   -2.6763   -0.0338   -2.1635 C   0  0  0  0  0  0  0  0  0  0  0  0
   -0.3287    0.2121   -1.5868 C   0  0  0  0  0  0  0  0  0  0  0  0
   -0.3117    1.3843   -1.9860 O   0  0  0  0  0  0  0  0  0  0  0  0
    2.3105    1.1231   -0.5251 C   0  0  0  0  0  0  0  0  0  0  0  0
    3.5498    1.5124   -0.0493 C   0  0  0  0  0  0  0  0  0  0  0  0
    4.6031    3.5166    2.0987 H   0  0  0  0  0  0  0  0  0  0  0  0
    3.8995    1.8152    2.3624 H   0  0  0  0  0  0  0  0  0  0  0  0
    5.0620    2.5635    3.5145 H   0  0  0  0  0  0  0  0  0  0  0  0
    7.3443    2.9320    3.0445 H   0  0  0  0  0  0  0  0  0  0  0  0
   11.7434    2.0744    1.4945 H   0  0  0  0  0  0  0  0  0  0  0  0
    9.1440    0.4233    0.1420 H   0  0  0  0  0  0  0  0  0  0  0  0
    6.9216   -0.2486   -0.7073 H   0  0  0  0  0  0  0  0  0  0  0  0
    5.0456   -1.4966    0.2139 H   0  0  0  0  0  0  0  0  0  0  0  0
    2.8911   -2.1593   -0.6130 H   0  0  0  0  0  0  0  0  0  0  0  0
   -2.1990   -3.5547   -6.0520 H   0  0  0  0  0  0  0  0  0  0  0  0
   -3.4033   -5.3885   -5.0673 H   0  0  0  0  0  0  0  0  0  0  0  0
   -3.5332   -5.6069   -2.6224 H   0  0  0  0  0  0  0  0  0  0  0  0
   -1.4710   -1.7163    0.4598 H   0  0  0  0  0  0  0  0  0  0  0  0
   -1.2261    0.0602    0.6077 H   0  0  0  0  0  0  0  0  0  0  0  0
   -3.2445   -0.4245    1.5832 H   0  0  0  0  0  0  0  0  0  0  0  0
   -3.7654   -1.5380    0.3088 H   0  0  0  0  0  0  0  0  0  0  0  0
   -3.3248    1.8686    1.3649 H   0  0  0  0  0  0  0  0  0  0  0  0
   -4.7506    2.4417    0.3495 H   0  0  0  0  0  0  0  0  0  0  0  0
   -5.2168   -0.1351    4.9802 H   0  0  0  0  0  0  0  0  0  0  0  0
   -7.5438   -0.5714    4.3572 H   0  0  0  0  0  0  0  0  0  0  0  0
   -8.3647   -0.0265    2.1297 H   0  0  0  0  0  0  0  0  0  0  0  0
   -8.0279    0.8923    0.0106 H   0  0  0  0  0  0  0  0  0  0  0  0
   -6.7374    2.1308   -0.0905 H   0  0  0  0  0  0  0  0  0  0  0  0
   -6.3807    0.4452   -0.6119 H   0  0  0  0  0  0  0  0  0  0  0  0
   -4.3124    1.3106   -1.9970 H   0  0  0  0  0  0  0  0  0  0  0  0
   -2.7986    1.8672   -1.2584 H   0  0  0  0  0  0  0  0  0  0  0  0
   -3.3694   -0.8872   -2.4093 H   0  0  0  0  0  0  0  0  0  0  0  0
   -2.3426    0.3755   -3.1179 H   0  0  0  0  0  0  0  0  0  0  0  0
    1.5273    1.8272   -0.7370 H   0  0  0  0  0  0  0  0  0  0  0  0
    3.7040    2.5711    0.0980 H   0  0  0  0  0  0  0  0  0  0  0  0
  1  2  1  0
  2  3  2  0
  3  4  1  0
  4  5  1  0
  5  6  2  0
  5  7  1  0
  4  8  2  0
  8  9  1  0
  9 10  2  0
 10 11  1  0
 11 12  2  0
 12 13  1  0
 13 14  2  0
 14 15  1  0
 15 16  1  0
 16 17  2  0
 16 18  1  0
 18 19  1  0
 19 20  2  0
 20 21  1  0
 21 22  2  0
 22 23  1  0
 23 24  2  0
 18 25  1  0
 25 26  1  0
 26 27  1  0
 27 28  1  0
 28 29  1  0
 29 30  1  0
 30 31  2  0
 31 32  1  0
 32 33  2  0
 33 34  1  0
 34 35  2  0
 35 36  1  0
 28 37  1  0
 37 38  1  0
 25 39  1  0
 39 40  2  0
 14 41  1  0
 41 42  2  0
 10  2  1  0
 42 11  1  0
 39 15  1  0
 24 19  1  0
 38 25  1  0
 35 30  1  0
  1 43  1  0
  1 44  1  0
  1 45  1  0
  3 46  1  0
  7 47  1  0
  8 48  1  0
  9 49  1  0
 12 50  1  0
 13 51  1  0
 21 52  1  0
 22 53  1  0
 23 54  1  0
 26 55  1  0
 26 56  1  0
 27 57  1  0
 27 58  1  0
 29 59  1  0
 29 60  1  0
 32 61  1  0
 33 62  1  0
 34 63  1  0
 36 64  1  0
 36 65  1  0
 36 66  1  0
 37 67  1  0
 37 68  1  0
 38 69  1  0
 38 70  1  0
 41 71  1  0
 42 72  1  0
M  END
$$$$
