
     RDKit          3D

 39 41  0  0  0  0  0  0  0  0999 V2000
    7.0461   -2.1730    0.5352 Cl  0  0  0  0  0  0  0  0  0  0  0  0
    5.5200   -1.3546    0.1902 C   0  0  0  0  0  0  0  0  0  0  0  0
    4.9599   -0.4867    1.0932 C   0  0  0  0  0  0  0  0  0  0  0  0
    3.7620    0.1907    0.8854 C   0  0  0  0  0  0  0  0  0  0  0  0
    3.1164    1.2926    2.1113 Cl  0  0  0  0  0  0  0  0  0  0  0  0
    3.1114   -0.0439   -0.3205 C   0  0  0  0  0  0  0  0  0  0  0  0
    1.8318    0.6824   -0.5373 C   0  0  0  0  0  0  0  0  0  0  0  0
    0.8568    0.0603    0.2189 O   0  0  0  0  0  0  0  0  0  0  0  0
   -0.3907    0.6323    0.1118 C   0  0  0  0  0  0  0  0  0  0  0  0
   -0.9761    1.1551    1.3871 C   0  0  0  0  0  0  0  0  0  0  0  0
   -2.2897    1.7496    1.2302 N   0  0  0  0  0  0  0  0  0  0  0  0
   -3.5239    1.1733    1.3134 C   0  0  0  0  0  0  0  0  0  0  0  0
   -4.4913    2.1336    1.0911 C   0  0  0  0  0  0  0  0  0  0  0  0
   -3.8357    3.2968    0.8722 N   0  0  0  0  0  0  0  0  0  0  0  0
   -2.5330    3.0512    0.9583 C   0  0  0  0  0  0  0  0  0  0  0  0
   -1.3368   -0.3663   -0.4570 C   0  0  0  0  0  0  0  0  0  0  0  0
   -1.1607   -1.6714   -0.0420 C   0  0  0  0  0  0  0  0  0  0  0  0
    0.0751   -2.2087    1.0853 Cl  0  0  0  0  0  0  0  0  0  0  0  0
   -1.9960   -2.6532   -0.5249 C   0  0  0  0  0  0  0  0  0  0  0  0
   -3.0043   -2.3323   -1.4195 C   0  0  0  0  0  0  0  0  0  0  0  0
   -4.1033   -3.5155   -2.0777 Cl  0  0  0  0  0  0  0  0  0  0  0  0
   -3.1947   -1.0367   -1.8440 C   0  0  0  0  0  0  0  0  0  0  0  0
   -2.3461   -0.0576   -1.3499 C   0  0  0  0  0  0  0  0  0  0  0  0
    3.6836   -0.9196   -1.2232 C   0  0  0  0  0  0  0  0  0  0  0  0
    4.8687   -1.5755   -0.9919 C   0  0  0  0  0  0  0  0  0  0  0  0
    5.5127   -0.3426    2.0183 H   0  0  0  0  0  0  0  0  0  0  0  0
    1.6151    0.6521   -1.6246 H   0  0  0  0  0  0  0  0  0  0  0  0
    2.0045    1.7267   -0.1806 H   0  0  0  0  0  0  0  0  0  0  0  0
   -0.3503    1.5106   -0.5910 H   0  0  0  0  0  0  0  0  0  0  0  0
   -0.3338    1.9153    1.8804 H   0  0  0  0  0  0  0  0  0  0  0  0
   -1.0852    0.3516    2.1552 H   0  0  0  0  0  0  0  0  0  0  0  0
   -3.6597    0.1179    1.5240 H   0  0  0  0  0  0  0  0  0  0  0  0
   -5.5604    1.9801    1.0928 H   0  0  0  0  0  0  0  0  0  0  0  0
   -1.7839    3.8390    0.8181 H   0  0  0  0  0  0  0  0  0  0  0  0
   -1.9701   -3.7130   -0.2836 H   0  0  0  0  0  0  0  0  0  0  0  0
   -3.9717   -0.7508   -2.5415 H   0  0  0  0  0  0  0  0  0  0  0  0
   -2.4399    0.9739   -1.6408 H   0  0  0  0  0  0  0  0  0  0  0  0
    3.1006   -1.0343   -2.1310 H   0  0  0  0  0  0  0  0  0  0  0  0
    5.2727   -2.2496   -1.7295 H   0  0  0  0  0  0  0  0  0  0  0  0
  1  2  1  0
  2  3  2  0
  3  4  1  0
  4  5  1  0
  4  6  2  0
  6  7  1  0
  7  8  1  0
  8  9  1  0
  9 10  1  0
 10 11  1  0
 11 12  1  0
 12 13  2  0
 13 14  1  0
 14 15  2  0
  9 16  1  0
 16 17  2  0
 17 18  1  0
 17 19  1  0
 19 20  2  0
 20 21  1  0
 20 22  1  0
 22 23  2  0
  6 24  1  0
 24 25  2  0
 25  2  1  0
 15 11  1  0
 23 16  1  0
  3 26  1  0
  7 27  1  0
  7 28  1  0
  9 29  1  0
 10 30  1  0
 10 31  1  0
 12 32  1  0
 13 33  1  0
 15 34  1  0
 19 35  1  0
 22 36  1  0
 23 37  1  0
 24 38  1  0
 25 39  1  0
M  END
$$$$
