
     RDKit          3D

 33 34  0  0  0  0  0  0  0  0999 V2000
    5.2759   -0.4359   -0.4261 C   0  0  0  0  0  0  0  0  0  0  0  0
    5.1301    0.8061    0.4013 C   0  0  0  0  0  0  0  0  0  0  0  0
    3.9300    0.7457    1.3178 C   0  0  0  0  0  0  0  0  0  0  0  0
    2.6597    0.5822    0.5128 C   0  0  0  0  0  0  0  0  0  0  0  0
    1.5285    0.5233    1.3414 O   0  0  0  0  0  0  0  0  0  0  0  0
    0.2382    0.3759    0.8566 C   0  0  0  0  0  0  0  0  0  0  0  0
   -0.0289    0.2755   -0.4907 C   0  0  0  0  0  0  0  0  0  0  0  0
   -1.3376    0.1267   -0.9703 C   0  0  0  0  0  0  0  0  0  0  0  0
   -2.4101    0.0750   -0.1102 C   0  0  0  0  0  0  0  0  0  0  0  0
   -3.7767   -0.0786   -0.5789 C   0  0  0  0  0  0  0  0  0  0  0  0
   -4.0874   -0.1810   -1.8905 C   0  0  0  0  0  0  0  0  0  0  0  0
   -5.3949   -0.3227   -2.2456 N   0  0  0  0  0  0  0  0  0  0  0  0
   -6.3632   -0.3618   -1.3330 C   0  0  0  0  0  0  0  0  0  0  0  0
   -6.0383   -0.2564    0.0079 C   0  0  0  0  0  0  0  0  0  0  0  0
   -4.7502   -0.1168    0.3569 N   0  0  0  0  0  0  0  0  0  0  0  0
   -2.1391    0.1771    1.2600 C   0  0  0  0  0  0  0  0  0  0  0  0
   -0.8457    0.3225    1.7043 C   0  0  0  0  0  0  0  0  0  0  0  0
    6.3779   -0.6215   -0.5600 H   0  0  0  0  0  0  0  0  0  0  0  0
    4.8572   -1.3389    0.0363 H   0  0  0  0  0  0  0  0  0  0  0  0
    4.8982   -0.2817   -1.4780 H   0  0  0  0  0  0  0  0  0  0  0  0
    4.9713    1.6614   -0.3013 H   0  0  0  0  0  0  0  0  0  0  0  0
    6.0217    0.9318    1.0358 H   0  0  0  0  0  0  0  0  0  0  0  0
    4.0030   -0.1387    1.9943 H   0  0  0  0  0  0  0  0  0  0  0  0
    3.8581    1.6361    1.9712 H   0  0  0  0  0  0  0  0  0  0  0  0
    2.5446    1.5030   -0.1181 H   0  0  0  0  0  0  0  0  0  0  0  0
    2.7234   -0.2592   -0.1817 H   0  0  0  0  0  0  0  0  0  0  0  0
    0.7991    0.3124   -1.2088 H   0  0  0  0  0  0  0  0  0  0  0  0
   -1.4722    0.0535   -2.0513 H   0  0  0  0  0  0  0  0  0  0  0  0
   -3.3488   -0.1559   -2.6698 H   0  0  0  0  0  0  0  0  0  0  0  0
   -7.4025   -0.4758   -1.6385 H   0  0  0  0  0  0  0  0  0  0  0  0
   -6.8175   -0.2879    0.7403 H   0  0  0  0  0  0  0  0  0  0  0  0
   -2.9751    0.1377    1.9472 H   0  0  0  0  0  0  0  0  0  0  0  0
   -0.6289    0.4024    2.7686 H   0  0  0  0  0  0  0  0  0  0  0  0
  1  2  1  0
  2  3  1  0
  3  4  1  0
  4  5  1  0
  5  6  1  0
  6  7  2  0
  7  8  1  0
  8  9  2  0
  9 10  1  0
 10 11  2  0
 11 12  1  0
 12 13  2  0
 13 14  1  0
 14 15  2  0
  9 16  1  0
 16 17  2  0
 17  6  1  0
 15 10  1  0
  1 18  1  0
  1 19  1  0
  1 20  1  0
  2 21  1  0
  2 22  1  0
  3 23  1  0
  3 24  1  0
  4 25  1  0
  4 26  1  0
  7 27  1  0
  8 28  1  0
 11 29  1  0
 13 30  1  0
 14 31  1  0
 16 32  1  0
 17 33  1  0
M  END
$$$$
