
     RDKit          3D

100106  0  0  0  0  0  0  0  0999 V2000
   -3.2468    1.1408    0.0344 C   0  0  1  0  0  0  0  0  0  0  0  0
   -2.6747    2.1030    1.0334 C   0  0  0  0  0  0  0  0  0  0  0  0
   -1.9427    1.3891    2.0980 C   0  0  0  0  0  0  0  0  0  0  0  0
   -0.8565    0.5160    1.6857 C   0  0  0  0  0  0  0  0  0  0  0  0
    0.3530    0.9584    0.9645 C   0  0  0  0  0  0  0  0  0  0  0  0
    0.2856    1.5171   -0.3830 C   0  0  0  0  0  0  0  0  0  0  0  0
    1.5919    1.9801   -0.9276 C   0  0  0  0  0  0  0  0  0  0  0  0
    2.7532    1.1363   -1.1401 C   0  0  0  0  0  0  0  0  0  0  0  0
    3.4723    0.4821   -0.0190 C   0  0  0  0  0  0  0  0  0  0  0  0
    4.6569   -0.2426   -0.6722 C   0  0  0  0  0  0  0  0  0  0  0  0
    4.9664   -0.3079   -1.8837 O   0  0  0  0  0  0  0  0  0  0  0  0
    5.4398   -0.8872    0.2962 O   0  0  0  0  0  0  0  0  0  0  0  0
    6.5921   -1.6230   -0.0683 C   0  0  0  0  0  0  0  0  0  0  0  0
    7.1984   -2.1751    1.2059 C   0  0  1  0  0  0  0  0  0  0  0  0
    8.3280   -2.9065    0.9892 O   0  0  0  0  0  0  0  0  0  0  0  0
    9.3801   -2.3255    1.6811 C   0  0  1  0  0  0  0  0  0  0  0  0
   10.0574   -1.4367    0.7644 N   0  0  0  0  0  0  0  0  0  0  0  0
   10.4019   -0.1586    1.0410 C   0  0  0  0  0  0  0  0  0  0  0  0
   11.0068    0.3252   -0.0594 N   0  0  0  0  0  0  0  0  0  0  0  0
   11.0414   -0.6293   -1.0072 C   0  0  0  0  0  0  0  0  0  0  0  0
   11.5494   -0.6225   -2.2908 C   0  0  0  0  0  0  0  0  0  0  0  0
   12.1544    0.5699   -2.7535 N   0  0  0  0  0  0  0  0  0  0  0  0
   11.4480   -1.7258   -3.0273 N   0  0  0  0  0  0  0  0  0  0  0  0
   10.8479   -2.8337   -2.5019 C   0  0  0  0  0  0  0  0  0  0  0  0
   10.3476   -2.8512   -1.2472 N   0  0  0  0  0  0  0  0  0  0  0  0
   10.4359   -1.7568   -0.4855 C   0  0  0  0  0  0  0  0  0  0  0  0
    8.7590   -1.5842    2.8434 C   0  0  2  0  0  0  0  0  0  0  0  0
    8.4321   -2.5690    3.8019 O   0  0  0  0  0  0  0  0  0  0  0  0
    7.4919   -1.0743    2.1926 C   0  0  2  0  0  0  0  0  0  0  0  0
    6.4688   -0.9001    3.1235 O   0  0  0  0  0  0  0  0  0  0  0  0
   -4.2152    0.1630    0.6755 C   0  0  0  0  0  0  0  0  0  0  0  0
   -5.2668    0.0315   -0.3727 C   0  0  1  0  0  0  0  0  0  0  0  0
   -6.6011   -0.4184    0.1031 C   0  0  2  0  0  0  0  0  0  0  0  0
   -6.6215   -1.6924    0.8750 C   0  0  0  0  0  0  0  0  0  0  0  0
   -8.0550   -1.9947    1.2519 C   0  0  0  0  0  0  0  0  0  0  0  0
   -9.0476   -1.1503    0.5417 C   0  0  0  0  0  0  0  0  0  0  0  0
  -10.3062   -1.1027    1.1445 C   0  0  0  0  0  0  0  0  0  0  0  0
  -11.3332   -0.3565    0.5969 C   0  0  0  0  0  0  0  0  0  0  0  0
  -12.5726   -0.3393    1.2340 O   0  0  0  0  0  0  0  0  0  0  0  0
  -11.1118    0.3549   -0.5664 C   0  0  0  0  0  0  0  0  0  0  0  0
   -9.8694    0.3116   -1.1668 C   0  0  0  0  0  0  0  0  0  0  0  0
   -8.8450   -0.4196   -0.6401 C   0  0  0  0  0  0  0  0  0  0  0  0
   -7.4608   -0.5876   -1.1330 C   0  0  1  0  0  0  0  0  0  0  0  0
   -7.0379    0.2290   -2.2752 C   0  0  0  0  0  0  0  0  0  0  0  0
   -6.3481    1.5168   -1.9748 C   0  0  0  0  0  0  0  0  0  0  0  0
   -5.4458    1.4810   -0.7828 C   0  0  1  0  0  0  0  0  0  0  0  0
   -6.0604    2.3246    0.2867 C   0  0  0  0  0  0  0  0  0  0  0  0
   -4.0309    1.8606   -1.0556 C   0  0  1  0  0  0  0  0  0  0  0  0
   -3.8546    3.2316   -0.8397 O   0  0  0  0  0  0  0  0  0  0  0  0
   -2.4530    0.5595   -0.4764 H   0  0  0  0  0  0  0  0  0  0  0  0
   -3.6061    2.6229    1.4798 H   0  0  0  0  0  0  0  0  0  0  0  0
   -2.1628    2.9114    0.5376 H   0  0  0  0  0  0  0  0  0  0  0  0
   -2.6919    0.7208    2.6625 H   0  0  0  0  0  0  0  0  0  0  0  0
   -1.6489    2.0947    2.9480 H   0  0  0  0  0  0  0  0  0  0  0  0
   -0.4424   -0.0530    2.6070 H   0  0  0  0  0  0  0  0  0  0  0  0
   -1.3142   -0.3910    1.1288 H   0  0  0  0  0  0  0  0  0  0  0  0
    0.9355   -0.0362    0.8390 H   0  0  0  0  0  0  0  0  0  0  0  0
    1.0608    1.5493    1.5920 H   0  0  0  0  0  0  0  0  0  0  0  0
   -0.1071    0.7678   -1.1469 H   0  0  0  0  0  0  0  0  0  0  0  0
   -0.3996    2.3900   -0.5370 H   0  0  0  0  0  0  0  0  0  0  0  0
    1.9285    2.8641   -0.2483 H   0  0  0  0  0  0  0  0  0  0  0  0
    1.3977    2.5937   -1.8973 H   0  0  0  0  0  0  0  0  0  0  0  0
    2.4843    0.3025   -1.8730 H   0  0  0  0  0  0  0  0  0  0  0  0
    3.5572    1.7622   -1.6815 H   0  0  0  0  0  0  0  0  0  0  0  0
    3.9092    1.2217    0.7086 H   0  0  0  0  0  0  0  0  0  0  0  0
    2.9712   -0.3163    0.5301 H   0  0  0  0  0  0  0  0  0  0  0  0
    6.2154   -2.5108   -0.6230 H   0  0  0  0  0  0  0  0  0  0  0  0
    7.2835   -1.0625   -0.6959 H   0  0  0  0  0  0  0  0  0  0  0  0
    6.4330   -2.8367    1.6599 H   0  0  0  0  0  0  0  0  0  0  0  0
   10.0493   -3.1312    2.0364 H   0  0  0  0  0  0  0  0  0  0  0  0
   10.2618    0.4393    1.9361 H   0  0  0  0  0  0  0  0  0  0  0  0
   11.6800    1.0146   -3.5950 H   0  0  0  0  0  0  0  0  0  0  0  0
   12.9570    1.1988   -2.5359 H   0  0  0  0  0  0  0  0  0  0  0  0
   10.7425   -3.7534   -3.0625 H   0  0  0  0  0  0  0  0  0  0  0  0
    9.3883   -0.8139    3.2831 H   0  0  0  0  0  0  0  0  0  0  0  0
    9.2694   -3.0889    4.0051 H   0  0  0  0  0  0  0  0  0  0  0  0
    7.7597   -0.1125    1.6894 H   0  0  0  0  0  0  0  0  0  0  0  0
    5.7562   -0.3975    2.6147 H   0  0  0  0  0  0  0  0  0  0  0  0
   -3.7054   -0.8086    0.8328 H   0  0  0  0  0  0  0  0  0  0  0  0
   -4.5733    0.4915    1.6569 H   0  0  0  0  0  0  0  0  0  0  0  0
   -4.8419   -0.4999   -1.2231 H   0  0  0  0  0  0  0  0  0  0  0  0
   -7.0419    0.3715    0.7350 H   0  0  0  0  0  0  0  0  0  0  0  0
   -6.2724   -2.5003    0.1747 H   0  0  0  0  0  0  0  0  0  0  0  0
   -6.0042   -1.6558    1.7934 H   0  0  0  0  0  0  0  0  0  0  0  0
   -8.2028   -1.8909    2.3470 H   0  0  0  0  0  0  0  0  0  0  0  0
   -8.3104   -3.0622    1.0082 H   0  0  0  0  0  0  0  0  0  0  0  0
  -10.5268   -1.6487    2.0636 H   0  0  0  0  0  0  0  0  0  0  0  0
  -12.9101    0.5742    1.5613 H   0  0  0  0  0  0  0  0  0  0  0  0
  -11.9019    0.9427   -1.0071 H   0  0  0  0  0  0  0  0  0  0  0  0
   -9.6269    0.8316   -2.0599 H   0  0  0  0  0  0  0  0  0  0  0  0
   -7.3916   -1.6797   -1.4156 H   0  0  0  0  0  0  0  0  0  0  0  0
   -6.3140   -0.3776   -2.8985 H   0  0  0  0  0  0  0  0  0  0  0  0
   -7.8547    0.4561   -2.9888 H   0  0  0  0  0  0  0  0  0  0  0  0
   -5.7372    1.7984   -2.8787 H   0  0  0  0  0  0  0  0  0  0  0  0
   -7.1274    2.3172   -1.8873 H   0  0  0  0  0  0  0  0  0  0  0  0
   -7.1804    2.3547    0.1366 H   0  0  0  0  0  0  0  0  0  0  0  0
   -5.7441    3.3792    0.1144 H   0  0  0  0  0  0  0  0  0  0  0  0
   -5.9099    1.9906    1.3144 H   0  0  0  0  0  0  0  0  0  0  0  0
   -3.6796    1.6163   -2.0762 H   0  0  0  0  0  0  0  0  0  0  0  0
   -3.0132    3.5394   -1.2228 H   0  0  0  0  0  0  0  0  0  0  0  0
  1  2  1  0
  2  3  1  0
  3  4  1  0
  4  5  1  0
  5  6  1  0
  6  7  1  0
  7  8  1  0
  8  9  1  0
  9 10  1  0
 10 11  2  0
 10 12  1  0
 12 13  1  0
 13 14  1  0
 14 15  1  0
 15 16  1  0
 16 17  1  0
 17 18  1  0
 18 19  2  0
 19 20  1  0
 20 21  2  0
 21 22  1  0
 21 23  1  0
 23 24  2  0
 24 25  1  0
 25 26  2  0
 16 27  1  0
 27 28  1  0
 27 29  1  0
 29 30  1  0
  1 31  1  0
 31 32  1  0
 32 33  1  0
 33 34  1  0
 34 35  1  0
 35 36  1  0
 36 37  2  0
 37 38  1  0
 38 39  1  0
 38 40  2  0
 40 41  1  0
 41 42  2  0
 42 43  1  0
 43 44  1  0
 44 45  1  0
 45 46  1  0
 46 47  1  1
 46 48  1  0
 48 49  1  0
 48  1  1  0
 29 14  1  0
 46 32  1  0
 26 17  1  0
 43 33  1  0
 26 20  1  0
 42 36  1  0
  1 50  1  6
  2 51  1  0
  2 52  1  0
  3 53  1  0
  3 54  1  0
  4 55  1  0
  4 56  1  0
  5 57  1  0
  5 58  1  0
  6 59  1  0
  6 60  1  0
  7 61  1  0
  7 62  1  0
  8 63  1  0
  8 64  1  0
  9 65  1  0
  9 66  1  0
 13 67  1  0
 13 68  1  0
 14 69  1  1
 16 70  1  1
 18 71  1  0
 22 72  1  0
 22 73  1  0
 24 74  1  0
 27 75  1  1
 28 76  1  0
 29 77  1  6
 30 78  1  0
 31 79  1  0
 31 80  1  0
 32 81  1  6
 33 82  1  1
 34 83  1  0
 34 84  1  0
 35 85  1  0
 35 86  1  0
 37 87  1  0
 39 88  1  0
 40 89  1  0
 41 90  1  0
 43 91  1  6
 44 92  1  0
 44 93  1  0
 45 94  1  0
 45 95  1  0
 47 96  1  0
 47 97  1  0
 47 98  1  0
 48 99  1  6
 49100  1  0
M  END
$$$$
