
     RDKit          3D

 27 29  0  0  0  0  0  0  0  0999 V2000
    4.4686   -1.5179    0.5763 O   0  0  0  0  0  0  0  0  0  0  0  0
    3.6655   -0.5817    0.6769 C   0  0  0  0  0  0  0  0  0  0  0  0
    3.8743    0.8813    0.8708 C   0  0  0  0  0  0  0  0  0  0  0  0
    2.8043    1.4374   -0.0234 C   0  0  0  0  0  0  0  0  0  0  0  0
    1.6606    0.4846    0.2139 C   0  0  0  0  0  0  0  0  0  0  0  0
    0.3095    0.6306    0.0851 C   0  0  0  0  0  0  0  0  0  0  0  0
   -0.5482   -0.3928    0.3550 C   0  0  0  0  0  0  0  0  0  0  0  0
   -2.0114   -0.2372    0.2150 C   0  0  0  0  0  0  0  0  0  0  0  0
   -2.5457    0.6000   -0.7414 C   0  0  0  0  0  0  0  0  0  0  0  0
   -3.9211    0.7571   -0.8835 C   0  0  0  0  0  0  0  0  0  0  0  0
   -4.7428    0.0524   -0.0415 C   0  0  0  0  0  0  0  0  0  0  0  0
   -4.1998   -0.7645    0.8909 N   0  0  0  0  0  0  0  0  0  0  0  0
   -2.8708   -0.9211    1.0341 C   0  0  0  0  0  0  0  0  0  0  0  0
   -0.0248   -1.6067    0.7693 C   0  0  0  0  0  0  0  0  0  0  0  0
    1.3387   -1.7579    0.9006 C   0  0  0  0  0  0  0  0  0  0  0  0
    2.1892   -0.7105    0.6230 C   0  0  0  0  0  0  0  0  0  0  0  0
    4.8668    1.2261    0.5519 H   0  0  0  0  0  0  0  0  0  0  0  0
    3.6792    1.1085    1.9492 H   0  0  0  0  0  0  0  0  0  0  0  0
    2.4653    2.4395    0.2355 H   0  0  0  0  0  0  0  0  0  0  0  0
    3.1594    1.3226   -1.0687 H   0  0  0  0  0  0  0  0  0  0  0  0
   -0.1242    1.5804   -0.2405 H   0  0  0  0  0  0  0  0  0  0  0  0
   -1.9105    1.1569   -1.4056 H   0  0  0  0  0  0  0  0  0  0  0  0
   -4.3594    1.4075   -1.6261 H   0  0  0  0  0  0  0  0  0  0  0  0
   -5.8179    0.1428   -0.1142 H   0  0  0  0  0  0  0  0  0  0  0  0
   -2.4995   -1.5780    1.7854 H   0  0  0  0  0  0  0  0  0  0  0  0
   -0.6870   -2.4503    0.9945 H   0  0  0  0  0  0  0  0  0  0  0  0
    1.7816   -2.7092    1.2258 H   0  0  0  0  0  0  0  0  0  0  0  0
  1  2  2  0
  2  3  1  0
  3  4  1  0
  4  5  1  0
  5  6  2  0
  6  7  1  0
  7  8  1  0
  8  9  2  0
  9 10  1  0
 10 11  2  0
 11 12  1  0
 12 13  2  0
  7 14  2  0
 14 15  1  0
 15 16  2  0
 16  2  1  0
 16  5  1  0
 13  8  1  0
  3 17  1  0
  3 18  1  0
  4 19  1  0
  4 20  1  0
  6 21  1  0
  9 22  1  0
 10 23  1  0
 11 24  1  0
 13 25  1  0
 14 26  1  0
 15 27  1  0
M  END
$$$$
