
     RDKit          3D

 45 48  0  0  0  0  0  0  0  0999 V2000
   -4.5373    3.0937   -1.0067 N   0  0  0  0  0  0  0  0  0  0  0  0
   -3.3507    2.3062   -0.8841 C   0  0  0  0  0  0  0  0  0  0  0  0
   -2.9739    1.6501   -1.8700 O   0  0  0  0  0  0  0  0  0  0  0  0
   -2.6202    2.2872    0.3670 C   0  0  0  0  0  0  0  0  0  0  0  0
   -2.9684    2.9888    1.5239 C   0  0  0  0  0  0  0  0  0  0  0  0
   -2.0385    2.6996    2.4473 N   0  0  0  0  0  0  0  0  0  0  0  0
   -1.1533    1.8567    1.8884 C   0  0  0  0  0  0  0  0  0  0  0  0
   -0.0302    1.2816    2.4344 C   0  0  0  0  0  0  0  0  0  0  0  0
    0.7378    0.4368    1.6652 C   0  0  0  0  0  0  0  0  0  0  0  0
    0.4230    0.1403    0.3533 C   0  0  0  0  0  0  0  0  0  0  0  0
    1.2065   -0.7464   -0.4980 C   0  0  0  0  0  0  0  0  0  0  0  0
    0.7213   -2.0213   -0.8237 C   0  0  0  0  0  0  0  0  0  0  0  0
   -0.5273   -2.6457   -0.4103 C   0  0  0  0  0  0  0  0  0  0  0  0
   -1.4720   -3.0419   -1.3143 C   0  0  0  0  0  0  0  0  0  0  0  0
   -2.6713   -3.6403   -0.9241 C   0  0  0  0  0  0  0  0  0  0  0  0
   -2.8984   -3.8322    0.4192 C   0  0  0  0  0  0  0  0  0  0  0  0
   -4.0389   -4.4056    0.8588 F   0  0  0  0  0  0  0  0  0  0  0  0
   -1.9342   -3.4273    1.3331 C   0  0  0  0  0  0  0  0  0  0  0  0
   -0.7590   -2.8405    0.9416 C   0  0  0  0  0  0  0  0  0  0  0  0
    1.6664   -2.5556   -1.6123 N   0  0  0  0  0  0  0  0  0  0  0  0
    2.6738   -1.7038   -1.7827 C   0  0  0  0  0  0  0  0  0  0  0  0
    2.3955   -0.5760   -1.0931 N   0  0  0  0  0  0  0  0  0  0  0  0
    3.1837    0.6227   -0.9771 C   0  0  0  0  0  0  0  0  0  0  0  0
    4.1620    0.6308    0.1465 C   0  0  0  0  0  0  0  0  0  0  0  0
    4.9419    1.9455    0.1645 C   0  0  0  0  0  0  0  0  0  0  0  0
    5.6039    2.0423   -1.0428 F   0  0  0  0  0  0  0  0  0  0  0  0
   -0.7348    0.7649   -0.1291 C   0  0  0  0  0  0  0  0  0  0  0  0
   -1.4860    1.5865    0.6115 N   0  0  0  0  0  0  0  0  0  0  0  0
   -4.9818    3.4932   -0.1451 H   0  0  0  0  0  0  0  0  0  0  0  0
   -4.9992    3.3024   -1.9047 H   0  0  0  0  0  0  0  0  0  0  0  0
   -3.8248    3.6446    1.6609 H   0  0  0  0  0  0  0  0  0  0  0  0
    0.2906    1.4592    3.4564 H   0  0  0  0  0  0  0  0  0  0  0  0
    1.6071   -0.0052    2.1122 H   0  0  0  0  0  0  0  0  0  0  0  0
   -1.3276   -2.9060   -2.3894 H   0  0  0  0  0  0  0  0  0  0  0  0
   -3.4331   -3.9622   -1.6158 H   0  0  0  0  0  0  0  0  0  0  0  0
   -2.0883   -3.5676    2.4061 H   0  0  0  0  0  0  0  0  0  0  0  0
   -0.0502   -2.5481    1.7026 H   0  0  0  0  0  0  0  0  0  0  0  0
    3.5861   -1.8106   -2.3511 H   0  0  0  0  0  0  0  0  0  0  0  0
    3.7668    0.7526   -1.9221 H   0  0  0  0  0  0  0  0  0  0  0  0
    2.5097    1.5154   -0.8217 H   0  0  0  0  0  0  0  0  0  0  0  0
    3.6966    0.5673    1.1500 H   0  0  0  0  0  0  0  0  0  0  0  0
    4.8836   -0.2249    0.1036 H   0  0  0  0  0  0  0  0  0  0  0  0
    4.2601    2.8121    0.2158 H   0  0  0  0  0  0  0  0  0  0  0  0
    5.6169    2.0061    1.0266 H   0  0  0  0  0  0  0  0  0  0  0  0
   -1.0341    0.5750   -1.1428 H   0  0  0  0  0  0  0  0  0  0  0  0
  1  2  1  0
  2  3  2  0
  2  4  1  0
  4  5  2  0
  5  6  1  0
  6  7  2  0
  7  8  1  0
  8  9  2  0
  9 10  1  0
 10 11  1  0
 11 12  2  0
 12 13  1  0
 13 14  2  0
 14 15  1  0
 15 16  2  0
 16 17  1  0
 16 18  1  0
 18 19  2  0
 12 20  1  0
 20 21  2  0
 21 22  1  0
 22 23  1  0
 23 24  1  0
 24 25  1  0
 25 26  1  0
 10 27  2  0
 27 28  1  0
 28  4  1  0
 28  7  1  0
 22 11  1  0
 19 13  1  0
  1 29  1  0
  1 30  1  0
  5 31  1  0
  8 32  1  0
  9 33  1  0
 14 34  1  0
 15 35  1  0
 18 36  1  0
 19 37  1  0
 21 38  1  0
 23 39  1  0
 23 40  1  0
 24 41  1  0
 24 42  1  0
 25 43  1  0
 25 44  1  0
 27 45  1  0
M  END
$$$$
