
     RDKit          3D

 59 61  0  0  0  0  0  0  0  0999 V2000
   -4.7755    1.0860   -0.3672 C   0  0  0  0  0  0  0  0  0  0  0  0
   -6.0216    0.3706   -0.7832 C   0  0  0  0  0  0  0  0  0  0  0  0
   -7.2006    1.1214   -0.1840 C   0  0  0  0  0  0  0  0  0  0  0  0
   -6.0428   -1.0863   -0.3811 C   0  0  1  0  0  0  0  0  0  0  0  0
   -5.9452   -1.1885    1.0316 N   0  0  0  0  0  0  0  0  0  0  0  0
   -4.5699   -1.9990    1.6185 S   0  0  0  0  0  6  0  0  0  0  0  0
   -4.6687   -2.0056    3.1389 O   0  0  0  0  0  0  0  0  0  0  0  0
   -4.5994   -3.4698    1.2252 O   0  0  0  0  0  0  0  0  0  0  0  0
   -3.0694   -1.2642    1.2073 C   0  0  0  0  0  0  0  0  0  0  0  0
   -2.4243   -1.6179    0.0447 C   0  0  0  0  0  0  0  0  0  0  0  0
   -1.2195   -1.0614   -0.3333 C   0  0  0  0  0  0  0  0  0  0  0  0
   -0.6369   -0.1183    0.4771 C   0  0  0  0  0  0  0  0  0  0  0  0
    0.6319    0.5001    0.1281 C   0  0  0  0  0  0  0  0  0  0  0  0
    0.9842    1.7802    0.4693 C   0  0  0  0  0  0  0  0  0  0  0  0
    2.1825    2.3433    0.1318 C   0  0  0  0  0  0  0  0  0  0  0  0
    3.1256    1.5775   -0.6116 C   0  0  0  0  0  0  0  0  0  0  0  0
    4.3027    2.1225   -0.9479 O   0  0  0  0  0  0  0  0  0  0  0  0
    5.4426    1.7946   -1.5981 C   0  0  0  0  0  0  0  0  0  0  0  0
    6.2618    0.6859   -1.0515 C   0  0  0  0  0  0  0  0  0  0  0  0
    6.2283   -0.6086   -1.4974 C   0  0  0  0  0  0  0  0  0  0  0  0
    6.9867   -1.6263   -0.9720 C   0  0  0  0  0  0  0  0  0  0  0  0
    7.8404   -1.3427    0.0698 C   0  0  0  0  0  0  0  0  0  0  0  0
    7.9191   -0.0517    0.5643 C   0  0  0  0  0  0  0  0  0  0  0  0
    8.8260    0.2645    1.6755 C   0  0  0  0  0  0  0  0  0  0  0  0
    9.5212   -0.6447    2.1644 O   0  0  0  0  0  0  0  0  0  0  0  0
    8.9242    1.5445    2.1883 O   0  0  0  0  0  0  0  0  0  0  0  0
    7.1445    0.9350    0.0114 C   0  0  0  0  0  0  0  0  0  0  0  0
    2.7645    0.2979   -0.9491 C   0  0  0  0  0  0  0  0  0  0  0  0
    1.5459   -0.2309   -0.5883 C   0  0  0  0  0  0  0  0  0  0  0  0
   -1.2496    0.2525    1.6327 C   0  0  0  0  0  0  0  0  0  0  0  0
   -2.4660   -0.3177    2.0019 C   0  0  0  0  0  0  0  0  0  0  0  0
   -7.2821   -1.6740   -0.9362 C   0  0  0  0  0  0  0  0  0  0  0  0
   -7.4382   -1.6197   -2.1821 O   0  0  0  0  0  0  0  0  0  0  0  0
   -8.2767   -2.2757   -0.1885 O   0  0  0  0  0  0  0  0  0  0  0  0
   -4.6831    1.0966    0.7319 H   0  0  0  0  0  0  0  0  0  0  0  0
   -4.9005    2.1524   -0.6759 H   0  0  0  0  0  0  0  0  0  0  0  0
   -3.8575    0.7239   -0.8846 H   0  0  0  0  0  0  0  0  0  0  0  0
   -6.1189    0.4938   -1.8886 H   0  0  0  0  0  0  0  0  0  0  0  0
   -8.0915    0.4723   -0.2447 H   0  0  0  0  0  0  0  0  0  0  0  0
   -7.3648    2.0326   -0.8094 H   0  0  0  0  0  0  0  0  0  0  0  0
   -6.9617    1.4721    0.8225 H   0  0  0  0  0  0  0  0  0  0  0  0
   -5.1727   -1.5670   -0.8971 H   0  0  0  0  0  0  0  0  0  0  0  0
   -6.0349   -0.2444    1.4605 H   0  0  0  0  0  0  0  0  0  0  0  0
   -2.8427   -2.3606   -0.6336 H   0  0  0  0  0  0  0  0  0  0  0  0
   -0.7103   -1.3324   -1.2388 H   0  0  0  0  0  0  0  0  0  0  0  0
    0.2783    2.3837    1.0377 H   0  0  0  0  0  0  0  0  0  0  0  0
    2.4847    3.3529    0.3895 H   0  0  0  0  0  0  0  0  0  0  0  0
    6.0890    2.7187   -1.7244 H   0  0  0  0  0  0  0  0  0  0  0  0
    5.2025    1.4897   -2.6564 H   0  0  0  0  0  0  0  0  0  0  0  0
    5.5692   -0.8577   -2.3257 H   0  0  0  0  0  0  0  0  0  0  0  0
    6.9011   -2.6155   -1.3791 H   0  0  0  0  0  0  0  0  0  0  0  0
    8.4610   -2.0871    0.5277 H   0  0  0  0  0  0  0  0  0  0  0  0
    9.7007    1.7767    2.8233 H   0  0  0  0  0  0  0  0  0  0  0  0
    7.1922    1.9633    0.3885 H   0  0  0  0  0  0  0  0  0  0  0  0
    3.4332   -0.3109   -1.5137 H   0  0  0  0  0  0  0  0  0  0  0  0
    1.3038   -1.2451   -0.8759 H   0  0  0  0  0  0  0  0  0  0  0  0
   -0.8180    1.0014    2.3071 H   0  0  0  0  0  0  0  0  0  0  0  0
   -2.9137    0.0117    2.9325 H   0  0  0  0  0  0  0  0  0  0  0  0
   -8.8911   -2.9947   -0.5336 H   0  0  0  0  0  0  0  0  0  0  0  0
  1  2  1  0
  2  3  1  0
  2  4  1  0
  4  5  1  0
  5  6  1  0
  6  7  2  0
  6  8  2  0
  6  9  1  0
  9 10  2  0
 10 11  1  0
 11 12  2  0
 12 13  1  0
 13 14  2  0
 14 15  1  0
 15 16  2  0
 16 17  1  0
 17 18  1  0
 18 19  1  0
 19 20  2  0
 20 21  1  0
 21 22  2  0
 22 23  1  0
 23 24  1  0
 24 25  2  0
 24 26  1  0
 23 27  2  0
 16 28  1  0
 28 29  2  0
 12 30  1  0
 30 31  2  0
  4 32  1  0
 32 33  2  0
 32 34  1  0
 31  9  1  0
 29 13  1  0
 27 19  1  0
  1 35  1  0
  1 36  1  0
  1 37  1  0
  2 38  1  0
  3 39  1  0
  3 40  1  0
  3 41  1  0
  4 42  1  6
  5 43  1  0
 10 44  1  0
 11 45  1  0
 14 46  1  0
 15 47  1  0
 18 48  1  0
 18 49  1  0
 20 50  1  0
 21 51  1  0
 22 52  1  0
 26 53  1  0
 27 54  1  0
 28 55  1  0
 29 56  1  0
 30 57  1  0
 31 58  1  0
 34 59  1  0
M  END
$$$$
