
     RDKit          3D

 45 48  0  0  0  0  0  0  0  0999 V2000
   -3.1879    3.8032    0.7748 C   0  0  0  0  0  0  0  0  0  0  0  0
   -3.3156    2.9532   -0.4380 C   0  0  0  0  0  0  0  0  0  0  0  0
   -4.3598    3.0650   -1.1356 O   0  0  0  0  0  0  0  0  0  0  0  0
   -2.3119    2.0317   -0.8299 N   0  0  0  0  0  0  0  0  0  0  0  0
   -2.4662    1.2293   -2.0039 C   0  0  0  0  0  0  0  0  0  0  0  0
   -2.3254   -0.2534   -1.6924 C   0  0  0  0  0  0  0  0  0  0  0  0
   -1.1182   -0.4749   -0.8558 C   0  0  0  0  0  0  0  0  0  0  0  0
   -0.5705    0.5292   -0.0883 C   0  0  0  0  0  0  0  0  0  0  0  0
    0.5490    0.0332    0.5871 C   0  0  0  0  0  0  0  0  0  0  0  0
    1.4146    0.7259    1.4751 N   0  0  0  0  0  0  0  0  0  0  0  0
    2.7943    0.8956    1.1978 C   0  0  0  0  0  0  0  0  0  0  0  0
    3.6362    1.5902    2.0385 C   0  0  0  0  0  0  0  0  0  0  0  0
    4.9816    1.7509    1.7852 C   0  0  0  0  0  0  0  0  0  0  0  0
    5.5441    1.2083    0.6533 C   0  0  0  0  0  0  0  0  0  0  0  0
    7.4061    1.3961    0.2506 Br  0  0  0  0  0  0  0  0  0  0  0  0
    4.7121    0.5120   -0.1947 C   0  0  0  0  0  0  0  0  0  0  0  0
    3.3703    0.3481    0.0518 C   0  0  0  0  0  0  0  0  0  0  0  0
    0.6332   -1.2621    0.1967 N   0  0  0  0  0  0  0  0  0  0  0  0
   -0.3387   -1.5531   -0.6427 N   0  0  0  0  0  0  0  0  0  0  0  0
   -0.5411   -2.8697   -1.2552 C   0  0  0  0  0  0  0  0  0  0  0  0
   -1.4089   -3.7082   -0.3717 C   0  0  0  0  0  0  0  0  0  0  0  0
   -0.8602   -3.9717    1.0367 C   0  0  0  0  0  0  0  0  0  0  0  0
   -1.0013   -5.0824    0.0224 C   0  0  0  0  0  0  0  0  0  0  0  0
   -1.1253    1.9174   -0.0229 C   0  0  0  0  0  0  0  0  0  0  0  0
   -3.4050    3.1861    1.6679 H   0  0  0  0  0  0  0  0  0  0  0  0
   -3.8623    4.6782    0.6822 H   0  0  0  0  0  0  0  0  0  0  0  0
   -2.1402    4.1672    0.8339 H   0  0  0  0  0  0  0  0  0  0  0  0
   -1.7083    1.5098   -2.7578 H   0  0  0  0  0  0  0  0  0  0  0  0
   -3.4563    1.4085   -2.4681 H   0  0  0  0  0  0  0  0  0  0  0  0
   -3.2455   -0.6375   -1.2013 H   0  0  0  0  0  0  0  0  0  0  0  0
   -2.2277   -0.7683   -2.6713 H   0  0  0  0  0  0  0  0  0  0  0  0
    1.0360    1.1252    2.3538 H   0  0  0  0  0  0  0  0  0  0  0  0
    3.2052    2.0218    2.9316 H   0  0  0  0  0  0  0  0  0  0  0  0
    5.6398    2.2989    2.4504 H   0  0  0  0  0  0  0  0  0  0  0  0
    5.1904    0.0889   -1.0918 H   0  0  0  0  0  0  0  0  0  0  0  0
    2.7484   -0.1974   -0.6239 H   0  0  0  0  0  0  0  0  0  0  0  0
   -0.9727   -2.7814   -2.2625 H   0  0  0  0  0  0  0  0  0  0  0  0
    0.4801   -3.3206   -1.3799 H   0  0  0  0  0  0  0  0  0  0  0  0
   -2.4924   -3.5186   -0.4332 H   0  0  0  0  0  0  0  0  0  0  0  0
   -1.5428   -3.9220    1.8893 H   0  0  0  0  0  0  0  0  0  0  0  0
    0.1762   -3.6177    1.2192 H   0  0  0  0  0  0  0  0  0  0  0  0
   -1.7914   -5.8420    0.1707 H   0  0  0  0  0  0  0  0  0  0  0  0
   -0.0457   -5.5164   -0.3632 H   0  0  0  0  0  0  0  0  0  0  0  0
   -0.3583    2.5852   -0.4942 H   0  0  0  0  0  0  0  0  0  0  0  0
   -1.3380    2.2381    1.0091 H   0  0  0  0  0  0  0  0  0  0  0  0
  1  2  1  0
  2  3  2  0
  2  4  1  0
  4  5  1  0
  5  6  1  0
  6  7  1  0
  7  8  2  0
  8  9  1  0
  9 10  1  0
 10 11  1  0
 11 12  2  0
 12 13  1  0
 13 14  2  0
 14 15  1  0
 14 16  1  0
 16 17  2  0
  9 18  2  0
 18 19  1  0
 19 20  1  0
 20 21  1  0
 21 22  1  0
 22 23  1  0
  8 24  1  0
 24  4  1  0
 19  7  1  0
 23 21  1  0
 17 11  1  0
  1 25  1  0
  1 26  1  0
  1 27  1  0
  5 28  1  0
  5 29  1  0
  6 30  1  0
  6 31  1  0
 10 32  1  0
 12 33  1  0
 13 34  1  0
 16 35  1  0
 17 36  1  0
 20 37  1  0
 20 38  1  0
 21 39  1  0
 22 40  1  0
 22 41  1  0
 23 42  1  0
 23 43  1  0
 24 44  1  0
 24 45  1  0
M  END
$$$$
