
     RDKit          3D

 40 41  0  0  0  0  0  0  0  0999 V2000
    3.3659    1.7087   -1.5724 C   0  0  0  0  0  0  0  0  0  0  0  0
    2.7853    0.3315   -1.4539 C   0  0  0  0  0  0  0  0  0  0  0  0
    1.8434    0.1741   -0.3766 N   0  0  0  0  0  0  0  0  0  0  0  0
    2.4118   -0.1922    0.8874 C   0  0  0  0  0  0  0  0  0  0  0  0
    2.5731   -1.6479    1.1684 C   0  0  0  0  0  0  0  0  0  0  0  0
    0.4857    0.4550   -0.6766 C   0  0  0  0  0  0  0  0  0  0  0  0
    0.4835    0.9002   -1.8473 O   0  0  0  0  0  0  0  0  0  0  0  0
   -0.8333    0.3845   -0.0124 C   0  0  1  0  0  0  0  0  0  0  0  0
   -0.8634    1.3446    1.1769 C   0  0  0  0  0  0  0  0  0  0  0  0
   -1.8152    1.4516    0.0268 C   0  0  1  0  0  0  0  0  0  0  0  0
   -1.8233    2.6716   -0.8529 C   0  0  0  0  0  0  0  0  0  0  0  0
   -2.9521    3.4804   -0.4558 N   0  0  0  0  0  0  0  0  0  0  0  0
   -1.2809   -1.0141    0.3399 C   0  0  0  0  0  0  0  0  0  0  0  0
   -1.6783   -1.6651    1.4829 C   0  0  0  0  0  0  0  0  0  0  0  0
   -2.2034   -2.9569    1.4403 C   0  0  0  0  0  0  0  0  0  0  0  0
   -2.3437   -3.6511    0.2511 C   0  0  0  0  0  0  0  0  0  0  0  0
   -1.9520   -3.0088   -0.8622 C   0  0  0  0  0  0  0  0  0  0  0  0
   -1.4171   -1.7005   -0.8831 C   0  0  0  0  0  0  0  0  0  0  0  0
    4.3436    1.6082   -2.1384 H   0  0  0  0  0  0  0  0  0  0  0  0
    2.7234    2.3092   -2.2736 H   0  0  0  0  0  0  0  0  0  0  0  0
    3.5649    2.2365   -0.6399 H   0  0  0  0  0  0  0  0  0  0  0  0
    2.3104    0.1114   -2.4418 H   0  0  0  0  0  0  0  0  0  0  0  0
    3.6435   -0.3951   -1.3222 H   0  0  0  0  0  0  0  0  0  0  0  0
    1.6512    0.2403    1.6704 H   0  0  0  0  0  0  0  0  0  0  0  0
    3.3412    0.3820    1.1313 H   0  0  0  0  0  0  0  0  0  0  0  0
    2.2332   -1.8252    2.2331 H   0  0  0  0  0  0  0  0  0  0  0  0
    1.9238   -2.2951    0.5353 H   0  0  0  0  0  0  0  0  0  0  0  0
    3.6458   -1.9386    1.1761 H   0  0  0  0  0  0  0  0  0  0  0  0
   -0.1053    2.1569    1.1896 H   0  0  0  0  0  0  0  0  0  0  0  0
   -1.1703    1.0015    2.1647 H   0  0  0  0  0  0  0  0  0  0  0  0
   -2.8701    1.0848    0.2545 H   0  0  0  0  0  0  0  0  0  0  0  0
   -0.8835    3.2709   -0.7346 H   0  0  0  0  0  0  0  0  0  0  0  0
   -1.9026    2.3969   -1.9276 H   0  0  0  0  0  0  0  0  0  0  0  0
   -3.5346    3.7885   -1.2539 H   0  0  0  0  0  0  0  0  0  0  0  0
   -3.6252    2.9114    0.1389 H   0  0  0  0  0  0  0  0  0  0  0  0
   -1.5134   -1.0310    2.3114 H   0  0  0  0  0  0  0  0  0  0  0  0
   -2.4868   -3.3432    2.4176 H   0  0  0  0  0  0  0  0  0  0  0  0
   -2.7506   -4.6397    0.3312 H   0  0  0  0  0  0  0  0  0  0  0  0
   -2.1060   -3.6441   -1.7352 H   0  0  0  0  0  0  0  0  0  0  0  0
   -1.2185   -1.4517   -1.9306 H   0  0  0  0  0  0  0  0  0  0  0  0
  1  2  1  0
  2  3  1  0
  3  4  1  0
  4  5  1  0
  3  6  1  0
  6  7  2  0
  8  6  1  6
  8  9  1  0
  9 10  1  0
 10 11  1  0
 11 12  1  0
  8 13  1  0
 13 14  2  0
 14 15  1  0
 15 16  2  0
 16 17  1  0
 17 18  2  0
 10  8  1  0
 18 13  1  0
  1 19  1  0
  1 20  1  0
  1 21  1  0
  2 22  1  0
  2 23  1  0
  4 24  1  0
  4 25  1  0
  5 26  1  0
  5 27  1  0
  5 28  1  0
  9 29  1  0
  9 30  1  0
 10 31  1  1
 11 32  1  0
 11 33  1  0
 12 34  1  0
 12 35  1  0
 14 36  1  0
 15 37  1  0
 16 38  1  0
 17 39  1  0
 18 40  1  0
M  END
$$$$
