
     RDKit          3D

 66 69  0  0  0  0  0  0  0  0999 V2000
    0.1101   -3.3834   -1.8079 C   0  0  0  0  0  0  0  0  0  0  0  0
    0.2527   -2.6321   -0.5156 C   0  0  1  0  0  0  0  0  0  0  0  0
    1.5394   -1.9128   -0.3975 C   0  0  0  0  0  0  0  0  0  0  0  0
    1.7822   -1.1043    0.6935 C   0  0  0  0  0  0  0  0  0  0  0  0
    2.9820   -0.4114    0.8386 C   0  0  0  0  0  0  0  0  0  0  0  0
    3.9638   -0.5238   -0.1218 C   0  0  0  0  0  0  0  0  0  0  0  0
    5.2065    0.2156    0.0636 C   0  0  0  0  0  0  0  0  0  0  0  0
    6.2597    0.1856   -0.8223 C   0  0  0  0  0  0  0  0  0  0  0  0
    7.4367    0.8960   -0.6302 C   0  0  0  0  0  0  0  0  0  0  0  0
    7.5864    1.6792    0.4950 C   0  0  0  0  0  0  0  0  0  0  0  0
    8.8010    2.4435    0.7430 C   0  0  0  0  0  0  0  0  0  0  0  0
    9.8714    2.3973   -0.1794 N   0  0  0  0  0  0  0  0  0  0  0  0
    8.8993    3.1437    1.7752 O   0  0  0  0  0  0  0  0  0  0  0  0
    6.5161    1.6986    1.3775 C   0  0  0  0  0  0  0  0  0  0  0  0
    5.3918    0.9968    1.1572 N   0  0  0  0  0  0  0  0  0  0  0  0
    3.7243   -1.3261   -1.2054 C   0  0  0  0  0  0  0  0  0  0  0  0
    2.5238   -2.0218   -1.3546 C   0  0  0  0  0  0  0  0  0  0  0  0
   -0.8916   -1.8154   -0.2117 N   0  0  0  0  0  0  0  0  0  0  0  0
   -1.7792   -2.0551    0.9409 C   0  0  0  0  0  0  0  0  0  0  0  0
   -2.1361   -0.7254    1.5116 C   0  0  0  0  0  0  0  0  0  0  0  0
   -3.0584    0.0464    0.5378 C   0  0  2  0  0  0  0  0  0  0  0  0
   -3.1314    1.4186    1.1295 C   0  0  0  0  0  0  0  0  0  0  0  0
   -3.9395    2.4421    0.4468 C   0  0  0  0  0  0  0  0  0  0  0  0
   -3.5118    2.7633   -0.9622 C   0  0  0  0  0  0  0  0  0  0  0  0
   -3.6882    3.7630    1.2226 C   0  0  0  0  0  0  0  0  0  0  0  0
   -5.3189    2.2563    0.5705 O   0  0  0  0  0  0  0  0  0  0  0  0
   -4.3645   -0.6601    0.4763 C   0  0  0  0  0  0  0  0  0  0  0  0
   -5.3012   -0.4122   -0.5028 C   0  0  0  0  0  0  0  0  0  0  0  0
   -6.5203   -1.0372   -0.5660 C   0  0  0  0  0  0  0  0  0  0  0  0
   -6.8654   -1.9611    0.3698 C   0  0  0  0  0  0  0  0  0  0  0  0
   -5.9649   -2.2453    1.3688 C   0  0  0  0  0  0  0  0  0  0  0  0
   -4.7426   -1.6111    1.4231 C   0  0  0  0  0  0  0  0  0  0  0  0
   -2.4554   -0.0027   -0.7285 O   0  0  0  0  0  0  0  0  0  0  0  0
   -1.2669   -0.6960   -1.0058 C   0  0  0  0  0  0  0  0  0  0  0  0
   -0.5457   -0.3232   -1.9509 O   0  0  0  0  0  0  0  0  0  0  0  0
    0.3562   -2.8127   -2.6973 H   0  0  0  0  0  0  0  0  0  0  0  0
    0.6999   -4.3235   -1.8259 H   0  0  0  0  0  0  0  0  0  0  0  0
   -0.9608   -3.7064   -1.8775 H   0  0  0  0  0  0  0  0  0  0  0  0
    0.2815   -3.4279    0.2896 H   0  0  0  0  0  0  0  0  0  0  0  0
    1.0343   -0.9895    1.4721 H   0  0  0  0  0  0  0  0  0  0  0  0
    3.1679    0.2278    1.7059 H   0  0  0  0  0  0  0  0  0  0  0  0
    6.1704   -0.4225   -1.7175 H   0  0  0  0  0  0  0  0  0  0  0  0
    8.2543    0.8595   -1.3388 H   0  0  0  0  0  0  0  0  0  0  0  0
    9.7533    2.7301   -1.1826 H   0  0  0  0  0  0  0  0  0  0  0  0
   10.8291    2.0461    0.0410 H   0  0  0  0  0  0  0  0  0  0  0  0
    6.6366    2.3184    2.2663 H   0  0  0  0  0  0  0  0  0  0  0  0
    4.4577   -1.4515   -1.9887 H   0  0  0  0  0  0  0  0  0  0  0  0
    2.3286   -2.6522   -2.2004 H   0  0  0  0  0  0  0  0  0  0  0  0
   -1.3149   -2.6953    1.6890 H   0  0  0  0  0  0  0  0  0  0  0  0
   -2.6647   -2.5749    0.4704 H   0  0  0  0  0  0  0  0  0  0  0  0
   -2.4871   -0.7049    2.5344 H   0  0  0  0  0  0  0  0  0  0  0  0
   -1.1918   -0.0974    1.5047 H   0  0  0  0  0  0  0  0  0  0  0  0
   -3.4157    1.3534    2.2207 H   0  0  0  0  0  0  0  0  0  0  0  0
   -2.0664    1.7926    1.1757 H   0  0  0  0  0  0  0  0  0  0  0  0
   -2.5826    3.4030   -0.8767 H   0  0  0  0  0  0  0  0  0  0  0  0
   -3.3657    1.9180   -1.6239 H   0  0  0  0  0  0  0  0  0  0  0  0
   -4.2799    3.4884   -1.3486 H   0  0  0  0  0  0  0  0  0  0  0  0
   -3.9608    3.6218    2.2691 H   0  0  0  0  0  0  0  0  0  0  0  0
   -4.3970    4.5172    0.7974 H   0  0  0  0  0  0  0  0  0  0  0  0
   -2.6749    4.1248    1.0379 H   0  0  0  0  0  0  0  0  0  0  0  0
   -5.5569    1.7679    1.3868 H   0  0  0  0  0  0  0  0  0  0  0  0
   -5.0545    0.3123   -1.2761 H   0  0  0  0  0  0  0  0  0  0  0  0
   -7.2013   -0.7947   -1.3565 H   0  0  0  0  0  0  0  0  0  0  0  0
   -7.8429   -2.4605    0.3167 H   0  0  0  0  0  0  0  0  0  0  0  0
   -6.2445   -2.9775    2.1055 H   0  0  0  0  0  0  0  0  0  0  0  0
   -4.0723   -1.8755    2.2416 H   0  0  0  0  0  0  0  0  0  0  0  0
  1  2  1  0
  2  3  1  0
  3  4  2  0
  4  5  1  0
  5  6  2  0
  6  7  1  0
  7  8  2  0
  8  9  1  0
  9 10  2  0
 10 11  1  0
 11 12  1  0
 11 13  2  0
 10 14  1  0
 14 15  2  0
  6 16  1  0
 16 17  2  0
  2 18  1  0
 18 19  1  0
 19 20  1  0
 20 21  1  0
 21 22  1  1
 22 23  1  0
 23 24  1  0
 23 25  1  0
 23 26  1  0
 21 27  1  0
 27 28  2  0
 28 29  1  0
 29 30  2  0
 30 31  1  0
 31 32  2  0
 21 33  1  0
 33 34  1  0
 34 35  2  0
 17  3  1  0
 34 18  1  0
 15  7  1  0
 32 27  1  0
  1 36  1  0
  1 37  1  0
  1 38  1  0
  2 39  1  1
  4 40  1  0
  5 41  1  0
  8 42  1  0
  9 43  1  0
 12 44  1  0
 12 45  1  0
 14 46  1  0
 16 47  1  0
 17 48  1  0
 19 49  1  0
 19 50  1  0
 20 51  1  0
 20 52  1  0
 22 53  1  0
 22 54  1  0
 24 55  1  0
 24 56  1  0
 24 57  1  0
 25 58  1  0
 25 59  1  0
 25 60  1  0
 26 61  1  0
 28 62  1  0
 29 63  1  0
 30 64  1  0
 31 65  1  0
 32 66  1  0
M  END
$$$$
