
     RDKit          3D

 70 72  0  0  0  0  0  0  0  0999 V2000
   -0.8871   -2.2020   -1.0598 C   0  0  0  0  0  0  0  0  0  0  0  0
   -1.7960   -1.8466    0.0917 C   0  0  0  0  0  0  0  0  0  0  0  0
   -1.4540   -2.8444    1.2055 C   0  0  0  0  0  0  0  0  0  0  0  0
   -1.5282   -0.4254    0.6094 C   0  0  0  0  0  0  0  0  0  0  0  0
   -1.7059    0.5867   -0.3264 N   0  0  0  0  0  0  0  0  0  0  0  0
   -0.6561    1.0749   -1.1101 C   0  0  0  0  0  0  0  0  0  0  0  0
    0.1142    2.2464   -0.6133 C   0  0  1  0  0  0  0  0  0  0  0  0
   -0.7862    3.2901   -0.4293 O   0  0  0  0  0  0  0  0  0  0  0  0
    0.9617    1.9552    0.5575 C   0  0  2  0  0  0  0  0  0  0  0  0
    1.8246    3.1564    0.9598 C   0  0  0  0  0  0  0  0  0  0  0  0
    2.7350    3.5911   -0.1008 C   0  0  0  0  0  0  0  0  0  0  0  0
    4.0235    3.0639   -0.2123 C   0  0  0  0  0  0  0  0  0  0  0  0
    4.9023    3.4511   -1.1954 C   0  0  0  0  0  0  0  0  0  0  0  0
    4.4874    4.4054   -2.1123 C   0  0  0  0  0  0  0  0  0  0  0  0
    3.2117    4.9197   -1.9922 C   0  0  0  0  0  0  0  0  0  0  0  0
    2.3212    4.5398   -1.0112 C   0  0  0  0  0  0  0  0  0  0  0  0
    1.9039    0.8846    0.3254 N   0  0  0  0  0  0  0  0  0  0  0  0
    2.2682   -0.0986    1.2749 C   0  0  0  0  0  0  0  0  0  0  0  0
    1.7533   -0.0564    2.4106 O   0  0  0  0  0  0  0  0  0  0  0  0
    3.1868   -1.1163    0.9813 O   0  0  0  0  0  0  0  0  0  0  0  0
    3.4877   -2.0476    1.9830 C   0  0  1  0  0  0  0  0  0  0  0  0
    3.2296   -3.4740    1.5389 C   0  0  0  0  0  0  0  0  0  0  0  0
    4.4753   -4.1860    1.9780 C   0  0  0  0  0  0  0  0  0  0  0  0
    5.0938   -3.3453    2.9026 O   0  0  0  0  0  0  0  0  0  0  0  0
    4.9571   -2.0789    2.3311 C   0  0  0  0  0  0  0  0  0  0  0  0
   -3.2017    1.3359   -0.4793 S   0  0  0  0  0  6  0  0  0  0  0  0
   -3.0876    2.3876   -1.5731 O   0  0  0  0  0  0  0  0  0  0  0  0
   -3.6845    2.0075    0.7743 O   0  0  0  0  0  0  0  0  0  0  0  0
   -4.4216    0.1775   -0.9430 C   0  0  0  0  0  0  0  0  0  0  0  0
   -4.6363   -0.2096   -2.2447 C   0  0  0  0  0  0  0  0  0  0  0  0
   -5.6295   -1.1219   -2.5659 C   0  0  0  0  0  0  0  0  0  0  0  0
   -6.4466   -1.6846   -1.6140 C   0  0  0  0  0  0  0  0  0  0  0  0
   -7.4535   -2.6148   -1.9782 N   0  0  0  0  0  0  0  0  0  0  0  0
   -6.2422   -1.3036   -0.2947 C   0  0  0  0  0  0  0  0  0  0  0  0
   -5.2556   -0.3975    0.0244 C   0  0  0  0  0  0  0  0  0  0  0  0
   -1.1777   -1.7206   -2.0111 H   0  0  0  0  0  0  0  0  0  0  0  0
   -1.0204   -3.3149   -1.2005 H   0  0  0  0  0  0  0  0  0  0  0  0
    0.1461   -2.0442   -0.7436 H   0  0  0  0  0  0  0  0  0  0  0  0
   -2.8631   -1.9574   -0.1677 H   0  0  0  0  0  0  0  0  0  0  0  0
   -2.3694   -3.0027    1.8124 H   0  0  0  0  0  0  0  0  0  0  0  0
   -1.0992   -3.7850    0.7447 H   0  0  0  0  0  0  0  0  0  0  0  0
   -0.6386   -2.3656    1.7915 H   0  0  0  0  0  0  0  0  0  0  0  0
   -2.2970   -0.2737    1.4333 H   0  0  0  0  0  0  0  0  0  0  0  0
   -0.5767   -0.4857    1.1281 H   0  0  0  0  0  0  0  0  0  0  0  0
   -1.0991    1.3899   -2.1038 H   0  0  0  0  0  0  0  0  0  0  0  0
    0.0297    0.2388   -1.3974 H   0  0  0  0  0  0  0  0  0  0  0  0
    0.8175    2.6335   -1.4224 H   0  0  0  0  0  0  0  0  0  0  0  0
   -1.0170    3.4643    0.4970 H   0  0  0  0  0  0  0  0  0  0  0  0
    0.3857    1.7262    1.4740 H   0  0  0  0  0  0  0  0  0  0  0  0
    2.4247    2.8082    1.8270 H   0  0  0  0  0  0  0  0  0  0  0  0
    1.1988    3.9864    1.3324 H   0  0  0  0  0  0  0  0  0  0  0  0
    4.3681    2.3186    0.4922 H   0  0  0  0  0  0  0  0  0  0  0  0
    5.8985    3.0467   -1.2859 H   0  0  0  0  0  0  0  0  0  0  0  0
    5.1656    4.7197   -2.8898 H   0  0  0  0  0  0  0  0  0  0  0  0
    2.8777    5.6710   -2.7110 H   0  0  0  0  0  0  0  0  0  0  0  0
    1.3257    4.9873   -0.9734 H   0  0  0  0  0  0  0  0  0  0  0  0
    2.3662    0.8144   -0.6181 H   0  0  0  0  0  0  0  0  0  0  0  0
    2.9249   -1.8206    2.8965 H   0  0  0  0  0  0  0  0  0  0  0  0
    2.3121   -3.8439    2.0419 H   0  0  0  0  0  0  0  0  0  0  0  0
    3.0643   -3.4917    0.4442 H   0  0  0  0  0  0  0  0  0  0  0  0
    5.1822   -4.3318    1.1409 H   0  0  0  0  0  0  0  0  0  0  0  0
    4.2041   -5.1284    2.4796 H   0  0  0  0  0  0  0  0  0  0  0  0
    5.5735   -2.0114    1.4234 H   0  0  0  0  0  0  0  0  0  0  0  0
    5.2499   -1.2854    3.0482 H   0  0  0  0  0  0  0  0  0  0  0  0
   -4.0132    0.2103   -3.0213 H   0  0  0  0  0  0  0  0  0  0  0  0
   -5.7672   -1.4034   -3.6068 H   0  0  0  0  0  0  0  0  0  0  0  0
   -7.8345   -3.2952   -1.2916 H   0  0  0  0  0  0  0  0  0  0  0  0
   -7.8181   -2.6216   -2.9381 H   0  0  0  0  0  0  0  0  0  0  0  0
   -6.8904   -1.7513    0.4465 H   0  0  0  0  0  0  0  0  0  0  0  0
   -5.0984   -0.1011    1.0592 H   0  0  0  0  0  0  0  0  0  0  0  0
  1  2  1  0
  2  3  1  0
  2  4  1  0
  4  5  1  0
  5  6  1  0
  6  7  1  0
  7  8  1  0
  7  9  1  0
  9 10  1  0
 10 11  1  0
 11 12  2  0
 12 13  1  0
 13 14  2  0
 14 15  1  0
 15 16  2  0
  9 17  1  0
 17 18  1  0
 18 19  2  0
 18 20  1  0
 20 21  1  0
 21 22  1  0
 22 23  1  0
 23 24  1  0
 24 25  1  0
  5 26  1  0
 26 27  2  0
 26 28  2  0
 26 29  1  0
 29 30  2  0
 30 31  1  0
 31 32  2  0
 32 33  1  0
 32 34  1  0
 34 35  2  0
 16 11  1  0
 25 21  1  0
 35 29  1  0
  1 36  1  0
  1 37  1  0
  1 38  1  0
  2 39  1  0
  3 40  1  0
  3 41  1  0
  3 42  1  0
  4 43  1  0
  4 44  1  0
  6 45  1  0
  6 46  1  0
  7 47  1  6
  8 48  1  0
  9 49  1  1
 10 50  1  0
 10 51  1  0
 12 52  1  0
 13 53  1  0
 14 54  1  0
 15 55  1  0
 16 56  1  0
 17 57  1  0
 21 58  1  1
 22 59  1  0
 22 60  1  0
 23 61  1  0
 23 62  1  0
 25 63  1  0
 25 64  1  0
 30 65  1  0
 31 66  1  0
 33 67  1  0
 33 68  1  0
 34 69  1  0
 35 70  1  0
M  END
$$$$
