
     RDKit          3D

 54 56  0  0  0  0  0  0  0  0999 V2000
    7.3337   -0.6898    1.7887 C   0  0  0  0  0  0  0  0  0  0  0  0
    7.4024   -0.9811    0.2995 C   0  0  0  0  0  0  0  0  0  0  0  0
    6.7480    0.0596   -0.4713 N   0  0  0  0  0  0  0  0  0  0  0  0
    6.8752   -0.3247   -1.8745 C   0  0  0  0  0  0  0  0  0  0  0  0
    5.3578    0.0792   -0.1143 C   0  0  0  0  0  0  0  0  0  0  0  0
    4.5876    1.1360   -0.8710 C   0  0  0  0  0  0  0  0  0  0  0  0
    3.1792    1.0787   -0.4392 C   0  0  0  0  0  0  0  0  0  0  0  0
    2.2450    0.2839   -1.0591 C   0  0  0  0  0  0  0  0  0  0  0  0
    0.9209    0.2658   -0.6110 C   0  0  0  0  0  0  0  0  0  0  0  0
    0.4955    1.0226    0.4457 C   0  0  0  0  0  0  0  0  0  0  0  0
   -0.7826    1.0572    0.9405 O   0  0  0  0  0  0  0  0  0  0  0  0
   -1.8265    0.3041    0.4085 C   0  0  0  0  0  0  0  0  0  0  0  0
   -2.6054   -0.4286    1.4925 C   0  0  0  0  0  0  0  0  0  0  0  0
   -4.0122   -0.4134    1.0085 C   0  0  0  0  0  0  0  0  0  0  0  0
   -5.1059   -1.1810    1.3073 C   0  0  0  0  0  0  0  0  0  0  0  0
   -6.3372   -0.9754    0.7162 C   0  0  0  0  0  0  0  0  0  0  0  0
   -7.4431   -1.7554    1.0216 O   0  0  0  0  0  0  0  0  0  0  0  0
   -7.3674   -2.8072    1.9587 C   0  0  0  0  0  0  0  0  0  0  0  0
   -6.4710    0.0466   -0.2150 C   0  0  0  0  0  0  0  0  0  0  0  0
   -7.7023    0.2648   -0.8172 O   0  0  0  0  0  0  0  0  0  0  0  0
   -7.8206    1.3104   -1.7642 C   0  0  0  0  0  0  0  0  0  0  0  0
   -5.3665    0.8158   -0.5116 C   0  0  0  0  0  0  0  0  0  0  0  0
   -4.1346    0.6017    0.0872 C   0  0  0  0  0  0  0  0  0  0  0  0
   -2.8479    1.2958   -0.0833 C   0  0  0  0  0  0  0  0  0  0  0  0
   -2.6500    2.4524   -0.5362 O   0  0  0  0  0  0  0  0  0  0  0  0
    1.4766    1.8212    1.0535 C   0  0  0  0  0  0  0  0  0  0  0  0
    2.7755    1.8477    0.6244 C   0  0  0  0  0  0  0  0  0  0  0  0
    8.2580   -1.0303    2.2745 H   0  0  0  0  0  0  0  0  0  0  0  0
    7.2110    0.3963    1.9888 H   0  0  0  0  0  0  0  0  0  0  0  0
    6.4739   -1.2266    2.2100 H   0  0  0  0  0  0  0  0  0  0  0  0
    6.8819   -1.9290    0.1039 H   0  0  0  0  0  0  0  0  0  0  0  0
    8.4552   -1.1225   -0.0280 H   0  0  0  0  0  0  0  0  0  0  0  0
    6.5652    0.5011   -2.5418 H   0  0  0  0  0  0  0  0  0  0  0  0
    7.9570   -0.5292   -2.1192 H   0  0  0  0  0  0  0  0  0  0  0  0
    6.3474   -1.2741   -2.0936 H   0  0  0  0  0  0  0  0  0  0  0  0
    5.2561    0.3054    0.9576 H   0  0  0  0  0  0  0  0  0  0  0  0
    4.9127   -0.9161   -0.3436 H   0  0  0  0  0  0  0  0  0  0  0  0
    5.0150    2.1321   -0.5986 H   0  0  0  0  0  0  0  0  0  0  0  0
    4.6413    1.0347   -1.9540 H   0  0  0  0  0  0  0  0  0  0  0  0
    2.5628   -0.3202   -1.8948 H   0  0  0  0  0  0  0  0  0  0  0  0
    0.2281   -0.3729   -1.1296 H   0  0  0  0  0  0  0  0  0  0  0  0
   -1.5974   -0.3383   -0.4393 H   0  0  0  0  0  0  0  0  0  0  0  0
   -2.2491   -1.4703    1.5501 H   0  0  0  0  0  0  0  0  0  0  0  0
   -2.4836    0.0892    2.4595 H   0  0  0  0  0  0  0  0  0  0  0  0
   -5.0075   -1.9794    2.0327 H   0  0  0  0  0  0  0  0  0  0  0  0
   -7.3841   -2.4741    3.0030 H   0  0  0  0  0  0  0  0  0  0  0  0
   -6.4342   -3.4162    1.8126 H   0  0  0  0  0  0  0  0  0  0  0  0
   -8.2176   -3.5247    1.8250 H   0  0  0  0  0  0  0  0  0  0  0  0
   -8.7815    1.2219   -2.3345 H   0  0  0  0  0  0  0  0  0  0  0  0
   -7.0239    1.2201   -2.5575 H   0  0  0  0  0  0  0  0  0  0  0  0
   -7.6846    2.3127   -1.3279 H   0  0  0  0  0  0  0  0  0  0  0  0
   -5.4595    1.6134   -1.2345 H   0  0  0  0  0  0  0  0  0  0  0  0
    1.1594    2.4289    1.8933 H   0  0  0  0  0  0  0  0  0  0  0  0
    3.4738    2.4815    1.1350 H   0  0  0  0  0  0  0  0  0  0  0  0
  1  2  1  0
  2  3  1  0
  3  4  1  0
  3  5  1  0
  5  6  1  0
  6  7  1  0
  7  8  2  0
  8  9  1  0
  9 10  2  0
 10 11  1  0
 11 12  1  0
 12 13  1  0
 13 14  1  0
 14 15  2  0
 15 16  1  0
 16 17  1  0
 17 18  1  0
 16 19  2  0
 19 20  1  0
 20 21  1  0
 19 22  1  0
 22 23  2  0
 23 24  1  0
 24 25  2  0
 10 26  1  0
 26 27  2  0
 27  7  1  0
 24 12  1  0
 23 14  1  0
  1 28  1  0
  1 29  1  0
  1 30  1  0
  2 31  1  0
  2 32  1  0
  4 33  1  0
  4 34  1  0
  4 35  1  0
  5 36  1  0
  5 37  1  0
  6 38  1  0
  6 39  1  0
  8 40  1  0
  9 41  1  0
 12 42  1  0
 13 43  1  0
 13 44  1  0
 15 45  1  0
 18 46  1  0
 18 47  1  0
 18 48  1  0
 21 49  1  0
 21 50  1  0
 21 51  1  0
 22 52  1  0
 26 53  1  0
 27 54  1  0
M  END
$$$$
