
     RDKit          3D

 49 50  0  0  0  0  0  0  0  0999 V2000
    6.9463    0.3054   -0.9842 C   0  0  0  0  0  0  0  0  0  0  0  0
    6.8724    1.0110    0.2688 N   0  0  0  0  0  0  0  0  0  0  0  0
    8.0427    1.7034    0.7504 C   0  0  0  0  0  0  0  0  0  0  0  0
    5.6857    1.0414    1.0284 C   0  0  0  0  0  0  0  0  0  0  0  0
    5.5949    1.6427    2.1173 O   0  0  0  0  0  0  0  0  0  0  0  0
    4.5131    0.3379    0.5185 C   0  0  0  0  0  0  0  0  0  0  0  0
    3.7985    0.7786   -0.5757 C   0  0  0  0  0  0  0  0  0  0  0  0
    2.7087    0.1076   -1.0777 C   0  0  0  0  0  0  0  0  0  0  0  0
    2.2785   -1.0583   -0.4945 C   0  0  0  0  0  0  0  0  0  0  0  0
    0.9463   -1.9932   -1.0941 S   0  0  0  0  0  6  0  0  0  0  0  0
    1.1017   -3.4206   -0.6544 O   0  0  0  0  0  0  0  0  0  0  0  0
    1.0257   -1.9824   -2.6013 O   0  0  0  0  0  0  0  0  0  0  0  0
   -0.5356   -1.3160   -0.5259 C   0  0  0  0  0  0  0  0  0  0  0  0
   -1.1183   -1.6238    0.6759 C   0  0  0  0  0  0  0  0  0  0  0  0
   -2.3204   -1.0586    1.0488 C   0  0  0  0  0  0  0  0  0  0  0  0
   -2.9958   -0.1616    0.2420 C   0  0  0  0  0  0  0  0  0  0  0  0
   -4.2440    0.4194    0.5885 N   0  0  0  0  0  0  0  0  0  0  0  0
   -5.4286   -0.3048    0.1894 C   0  0  0  0  0  0  0  0  0  0  0  0
   -5.2483   -1.3873   -0.4346 O   0  0  0  0  0  0  0  0  0  0  0  0
   -6.7966    0.1273    0.4569 C   0  0  1  0  0  0  0  0  0  0  0  0
   -7.0276    1.4833   -0.1498 C   0  0  0  0  0  0  0  0  0  0  0  0
   -7.6857   -0.7841   -0.1188 O   0  0  0  0  0  0  0  0  0  0  0  0
   -7.0996    0.2422    1.9384 C   0  0  0  0  0  0  0  0  0  0  0  0
   -8.4346    0.6642    2.0145 F   0  0  0  0  0  0  0  0  0  0  0  0
   -6.3386    1.2289    2.5151 F   0  0  0  0  0  0  0  0  0  0  0  0
   -7.0096   -0.9605    2.5699 F   0  0  0  0  0  0  0  0  0  0  0  0
   -2.4072    0.1461   -0.9625 C   0  0  0  0  0  0  0  0  0  0  0  0
   -3.2286    1.2835   -2.0225 Cl  0  0  0  0  0  0  0  0  0  0  0  0
   -1.1920   -0.4209   -1.3474 C   0  0  0  0  0  0  0  0  0  0  0  0
    2.9643   -1.5331    0.6039 C   0  0  0  0  0  0  0  0  0  0  0  0
    4.0546   -0.8402    1.0876 C   0  0  0  0  0  0  0  0  0  0  0  0
    7.3706   -0.7147   -0.8728 H   0  0  0  0  0  0  0  0  0  0  0  0
    5.9743    0.2164   -1.4994 H   0  0  0  0  0  0  0  0  0  0  0  0
    7.6351    0.8140   -1.7201 H   0  0  0  0  0  0  0  0  0  0  0  0
    7.9070    2.0284    1.8135 H   0  0  0  0  0  0  0  0  0  0  0  0
    8.8913    0.9905    0.6606 H   0  0  0  0  0  0  0  0  0  0  0  0
    8.2603    2.5738    0.1143 H   0  0  0  0  0  0  0  0  0  0  0  0
    4.1465    1.7018   -1.0285 H   0  0  0  0  0  0  0  0  0  0  0  0
    2.1548    0.4718   -1.9394 H   0  0  0  0  0  0  0  0  0  0  0  0
   -0.6062   -2.3312    1.3351 H   0  0  0  0  0  0  0  0  0  0  0  0
   -2.7945   -1.2890    1.9948 H   0  0  0  0  0  0  0  0  0  0  0  0
   -4.3624    1.3136    1.1038 H   0  0  0  0  0  0  0  0  0  0  0  0
   -8.0661    1.5697   -0.5477 H   0  0  0  0  0  0  0  0  0  0  0  0
   -6.8170    2.2778    0.6106 H   0  0  0  0  0  0  0  0  0  0  0  0
   -6.3577    1.6840   -1.0085 H   0  0  0  0  0  0  0  0  0  0  0  0
   -7.2274   -1.1634   -0.9233 H   0  0  0  0  0  0  0  0  0  0  0  0
   -0.7719   -0.1478   -2.3104 H   0  0  0  0  0  0  0  0  0  0  0  0
    2.6486   -2.4603    1.0940 H   0  0  0  0  0  0  0  0  0  0  0  0
    4.5922   -1.2131    1.9456 H   0  0  0  0  0  0  0  0  0  0  0  0
  1  2  1  0
  2  3  1  0
  2  4  1  0
  4  5  2  0
  4  6  1  0
  6  7  2  0
  7  8  1  0
  8  9  2  0
  9 10  1  0
 10 11  2  0
 10 12  2  0
 10 13  1  0
 13 14  2  0
 14 15  1  0
 15 16  2  0
 16 17  1  0
 17 18  1  0
 18 19  2  0
 18 20  1  0
 20 21  1  0
 20 22  1  6
 20 23  1  0
 23 24  1  0
 23 25  1  0
 23 26  1  0
 16 27  1  0
 27 28  1  0
 27 29  2  0
  9 30  1  0
 30 31  2  0
 31  6  1  0
 29 13  1  0
  1 32  1  0
  1 33  1  0
  1 34  1  0
  3 35  1  0
  3 36  1  0
  3 37  1  0
  7 38  1  0
  8 39  1  0
 14 40  1  0
 15 41  1  0
 17 42  1  0
 21 43  1  0
 21 44  1  0
 21 45  1  0
 22 46  1  0
 29 47  1  0
 30 48  1  0
 31 49  1  0
M  END
$$$$
