
     RDKit          3D

 30 31  0  0  0  0  0  0  0  0999 V2000
    1.0804   -0.4751   -2.8631 O   0  0  0  0  0  0  0  0  0  0  0  0
    1.1342   -0.0707   -1.6763 C   0  0  0  0  0  0  0  0  0  0  0  0
   -0.0851    0.4074   -1.0239 C   0  0  0  0  0  0  0  0  0  0  0  0
   -1.1492   -0.9457   -0.5074 S   0  0  0  0  0  6  0  0  0  0  0  0
   -0.4064   -1.9114    0.3459 O   0  0  0  0  0  0  0  0  0  0  0  0
   -1.6408   -1.5817   -1.7756 O   0  0  0  0  0  0  0  0  0  0  0  0
   -2.4939   -0.2041    0.2971 C   0  0  0  0  0  0  0  0  0  0  0  0
   -3.5813    0.2571   -0.3846 C   0  0  0  0  0  0  0  0  0  0  0  0
   -4.6621    0.8588    0.2675 C   0  0  0  0  0  0  0  0  0  0  0  0
   -4.6230    0.9875    1.6318 C   0  0  0  0  0  0  0  0  0  0  0  0
   -3.5441    0.5323    2.3379 C   0  0  0  0  0  0  0  0  0  0  0  0
   -2.4714   -0.0681    1.6671 C   0  0  0  0  0  0  0  0  0  0  0  0
    2.4371   -0.0923   -0.9823 C   0  0  0  0  0  0  0  0  0  0  0  0
    3.5673   -0.5720   -1.6031 C   0  0  0  0  0  0  0  0  0  0  0  0
    4.8003   -0.5913   -1.0004 C   0  0  0  0  0  0  0  0  0  0  0  0
    4.8948   -0.1049    0.2863 C   0  0  0  0  0  0  0  0  0  0  0  0
    6.0759   -0.0916    0.9463 F   0  0  0  0  0  0  0  0  0  0  0  0
    3.7585    0.3834    0.9267 C   0  0  0  0  0  0  0  0  0  0  0  0
    2.5237    0.3978    0.3124 C   0  0  0  0  0  0  0  0  0  0  0  0
    0.0313    1.1168   -0.2116 H   0  0  0  0  0  0  0  0  0  0  0  0
   -0.7159    0.9587   -1.7966 H   0  0  0  0  0  0  0  0  0  0  0  0
   -3.6124    0.1563   -1.4658 H   0  0  0  0  0  0  0  0  0  0  0  0
   -5.5250    1.2319   -0.2521 H   0  0  0  0  0  0  0  0  0  0  0  0
   -5.4213    1.4429    2.2075 H   0  0  0  0  0  0  0  0  0  0  0  0
   -3.4443    0.6012    3.4190 H   0  0  0  0  0  0  0  0  0  0  0  0
   -1.6228   -0.4303    2.2006 H   0  0  0  0  0  0  0  0  0  0  0  0
    3.4998   -0.9595   -2.6126 H   0  0  0  0  0  0  0  0  0  0  0  0
    5.6971   -0.9595   -1.4754 H   0  0  0  0  0  0  0  0  0  0  0  0
    3.8184    0.7676    1.9226 H   0  0  0  0  0  0  0  0  0  0  0  0
    1.6802    0.7864    0.8617 H   0  0  0  0  0  0  0  0  0  0  0  0
  1  2  2  0
  2  3  1  0
  3  4  1  0
  4  5  2  0
  4  6  2  0
  4  7  1  0
  7  8  2  0
  8  9  1  0
  9 10  2  0
 10 11  1  0
 11 12  2  0
  2 13  1  0
 13 14  2  0
 14 15  1  0
 15 16  2  0
 16 17  1  0
 16 18  1  0
 18 19  2  0
 12  7  1  0
 19 13  1  0
  3 20  1  0
  3 21  1  0
  8 22  1  0
  9 23  1  0
 10 24  1  0
 11 25  1  0
 12 26  1  0
 14 27  1  0
 15 28  1  0
 18 29  1  0
 19 30  1  0
M  END
$$$$
