
     RDKit          3D

 48 50  0  0  0  0  0  0  0  0999 V2000
    4.3857   -1.7417   -1.7936 C   0  0  0  0  0  0  0  0  0  0  0  0
    4.2459   -1.4167   -0.3434 C   0  0  0  0  0  0  0  0  0  0  0  0
    5.0646   -1.9596    0.6188 C   0  0  0  0  0  0  0  0  0  0  0  0
    4.8872   -1.6215    1.9331 C   0  0  0  0  0  0  0  0  0  0  0  0
    3.8832   -0.7349    2.2787 C   0  0  0  0  0  0  0  0  0  0  0  0
    3.0853   -0.2116    1.2998 C   0  0  0  0  0  0  0  0  0  0  0  0
    2.0100    0.6876    1.5981 N   0  0  0  0  0  0  0  0  0  0  0  0
    1.2611    1.3012    0.5735 C   0  0  0  0  0  0  0  0  0  0  0  0
   -0.0952    0.9450    0.4751 C   0  0  0  0  0  0  0  0  0  0  0  0
   -0.9000    1.4765   -0.4920 C   0  0  0  0  0  0  0  0  0  0  0  0
   -2.2557    1.1105   -0.6031 N   0  0  0  0  0  0  0  0  0  0  0  0
   -2.9328    0.1431    0.2028 C   0  0  2  0  0  0  0  0  0  0  0  0
   -2.5137   -1.2588   -0.1023 C   0  0  0  0  0  0  0  0  0  0  0  0
   -3.6834   -2.2209    0.0630 C   0  0  0  0  0  0  0  0  0  0  0  0
   -4.7749   -1.9168   -0.9331 C   0  0  0  0  0  0  0  0  0  0  0  0
   -4.7866   -0.4176   -1.2693 C   0  0  0  0  0  0  0  0  0  0  0  0
   -4.4387    0.2759    0.0203 C   0  0  2  0  0  0  0  0  0  0  0  0
   -4.8382    1.6399    0.0900 N   0  0  0  0  0  0  0  0  0  0  0  0
   -0.3287    2.3560   -1.3409 N   0  0  0  0  0  0  0  0  0  0  0  0
    0.9393    2.6947   -1.2533 N   0  0  0  0  0  0  0  0  0  0  0  0
    1.7896    2.1963   -0.3080 C   0  0  0  0  0  0  0  0  0  0  0  0
    3.1570    2.6711   -0.2371 C   0  0  0  0  0  0  0  0  0  0  0  0
    3.7363    3.5120   -1.2049 N   0  0  0  0  0  0  0  0  0  0  0  0
    3.8982    2.3322    0.7322 O   0  0  0  0  0  0  0  0  0  0  0  0
    3.2848   -0.5615    0.0316 N   0  0  0  0  0  0  0  0  0  0  0  0
    5.0304   -0.9750   -2.3000 H   0  0  0  0  0  0  0  0  0  0  0  0
    3.3678   -1.6329   -2.2559 H   0  0  0  0  0  0  0  0  0  0  0  0
    4.7840   -2.7596   -1.9027 H   0  0  0  0  0  0  0  0  0  0  0  0
    5.8414   -2.6535    0.2941 H   0  0  0  0  0  0  0  0  0  0  0  0
    5.5466   -2.0625    2.6848 H   0  0  0  0  0  0  0  0  0  0  0  0
    3.7585   -0.4812    3.3135 H   0  0  0  0  0  0  0  0  0  0  0  0
    1.8017    0.8716    2.5927 H   0  0  0  0  0  0  0  0  0  0  0  0
   -0.4891    0.2502    1.1906 H   0  0  0  0  0  0  0  0  0  0  0  0
   -2.8372    1.5855   -1.3481 H   0  0  0  0  0  0  0  0  0  0  0  0
   -2.7624    0.4102    1.2765 H   0  0  0  0  0  0  0  0  0  0  0  0
   -1.7103   -1.5888    0.5433 H   0  0  0  0  0  0  0  0  0  0  0  0
   -2.1586   -1.3809   -1.1604 H   0  0  0  0  0  0  0  0  0  0  0  0
   -4.0398   -2.1616    1.1221 H   0  0  0  0  0  0  0  0  0  0  0  0
   -3.2985   -3.2416   -0.0874 H   0  0  0  0  0  0  0  0  0  0  0  0
   -4.6276   -2.4870   -1.8476 H   0  0  0  0  0  0  0  0  0  0  0  0
   -5.7642   -2.1335   -0.4547 H   0  0  0  0  0  0  0  0  0  0  0  0
   -5.7671   -0.1393   -1.6888 H   0  0  0  0  0  0  0  0  0  0  0  0
   -4.0306   -0.2256   -2.0670 H   0  0  0  0  0  0  0  0  0  0  0  0
   -4.9443   -0.2848    0.8441 H   0  0  0  0  0  0  0  0  0  0  0  0
   -5.6110    1.8487    0.7616 H   0  0  0  0  0  0  0  0  0  0  0  0
   -4.0634    2.3259    0.0992 H   0  0  0  0  0  0  0  0  0  0  0  0
    3.4950    3.3839   -2.2017 H   0  0  0  0  0  0  0  0  0  0  0  0
    4.3982    4.2515   -0.9212 H   0  0  0  0  0  0  0  0  0  0  0  0
  1  2  1  0
  2  3  2  0
  3  4  1  0
  4  5  2  0
  5  6  1  0
  6  7  1  0
  7  8  1  0
  8  9  2  0
  9 10  1  0
 10 11  1  0
 11 12  1  0
 12 13  1  0
 13 14  1  0
 14 15  1  0
 15 16  1  0
 16 17  1  0
 17 18  1  0
 10 19  2  0
 19 20  1  0
 20 21  2  0
 21 22  1  0
 22 23  1  0
 22 24  2  0
  6 25  2  0
 25  2  1  0
 21  8  1  0
 17 12  1  0
  1 26  1  0
  1 27  1  0
  1 28  1  0
  3 29  1  0
  4 30  1  0
  5 31  1  0
  7 32  1  0
  9 33  1  0
 11 34  1  0
 12 35  1  1
 13 36  1  0
 13 37  1  0
 14 38  1  0
 14 39  1  0
 15 40  1  0
 15 41  1  0
 16 42  1  0
 16 43  1  0
 17 44  1  1
 18 45  1  0
 18 46  1  0
 23 47  1  0
 23 48  1  0
M  END
$$$$
