
     RDKit          3D

 57 60  0  0  0  0  0  0  0  0999 V2000
   -4.9945    2.5371    0.9378 C   0  0  0  0  0  0  0  0  0  0  0  0
   -4.9648    2.3847   -0.4874 N   0  0  0  0  0  0  0  0  0  0  0  0
   -5.9524    3.1411   -1.2702 C   0  0  0  0  0  0  0  0  0  0  0  0
   -4.0602    1.5644   -1.1365 C   0  0  0  0  0  0  0  0  0  0  0  0
   -4.1912    1.5419   -2.4360 O   0  0  0  0  0  0  0  0  0  0  0  0
   -2.9858    0.7191   -0.6336 C   0  0  2  0  0  0  0  0  0  0  0  0
   -2.2478   -0.1045   -1.6173 C   0  0  0  0  0  0  0  0  0  0  0  0
   -3.0337   -0.8025   -0.6176 C   0  0  1  0  0  0  0  0  0  0  0  0
   -2.7469   -1.5529    0.5477 C   0  0  1  0  0  0  0  0  0  0  0  0
   -3.6729   -2.8204    0.4976 C   0  0  0  0  0  0  0  0  0  0  0  0
   -1.4654   -2.1105    0.9499 C   0  0  0  0  0  0  0  0  0  0  0  0
   -0.2087   -1.9068    0.4700 C   0  0  0  0  0  0  0  0  0  0  0  0
    0.9197   -2.5149    0.9707 C   0  0  0  0  0  0  0  0  0  0  0  0
    2.2272   -2.2296    0.4108 C   0  0  0  0  0  0  0  0  0  0  0  0
    2.5903   -1.0054    0.0645 C   0  0  0  0  0  0  0  0  0  0  0  0
    1.6729   -0.0084    0.2592 F   0  0  0  0  0  0  0  0  0  0  0  0
    3.8849   -0.6912   -0.4920 C   0  0  0  0  0  0  0  0  0  0  0  0
    4.1798    0.6086   -0.8321 C   0  0  0  0  0  0  0  0  0  0  0  0
    5.3919    0.9326   -1.3553 N   0  0  0  0  0  0  0  0  0  0  0  0
    6.3075   -0.0009   -1.5455 C   0  0  0  0  0  0  0  0  0  0  0  0
    7.5307    0.3092   -2.0748 O   0  0  0  0  0  0  0  0  0  0  0  0
    7.9667    1.5497   -2.4479 C   0  0  0  0  0  0  0  0  0  0  0  0
    8.0737    2.5294   -1.3396 C   0  0  0  0  0  0  0  0  0  0  0  0
    6.9032    2.7734   -0.7087 F   0  0  0  0  0  0  0  0  0  0  0  0
    8.6249    3.7347   -1.8033 F   0  0  0  0  0  0  0  0  0  0  0  0
    9.0001    2.0066   -0.4287 F   0  0  0  0  0  0  0  0  0  0  0  0
    6.0296   -1.3385   -1.2055 C   0  0  0  0  0  0  0  0  0  0  0  0
    4.8220   -1.6102   -0.6929 N   0  0  0  0  0  0  0  0  0  0  0  0
    0.7906   -3.4048    2.0416 C   0  0  0  0  0  0  0  0  0  0  0  0
   -0.4352   -3.6135    2.5214 N   0  0  0  0  0  0  0  0  0  0  0  0
   -1.5368   -3.0096    2.0218 C   0  0  0  0  0  0  0  0  0  0  0  0
   -2.6939   -3.3413    2.6486 F   0  0  0  0  0  0  0  0  0  0  0  0
   -3.1759   -0.9025    1.7748 N   0  0  0  0  0  0  0  0  0  0  0  0
   -3.0290    0.2890    2.1227 C   0  0  0  0  0  0  0  0  0  0  0  0
   -3.4709    0.8267    3.3250 N   0  0  0  0  0  0  0  0  0  0  0  0
   -2.2290    1.3314    0.9024 S   0  0  0  0  0  0  0  0  0  0  0  0
   -4.0731    2.9008    1.4031 H   0  0  0  0  0  0  0  0  0  0  0  0
   -5.4327    1.6290    1.4207 H   0  0  0  0  0  0  0  0  0  0  0  0
   -5.7581    3.3457    1.2047 H   0  0  0  0  0  0  0  0  0  0  0  0
   -5.8230    2.9730   -2.3535 H   0  0  0  0  0  0  0  0  0  0  0  0
   -5.8260    4.2355   -1.1235 H   0  0  0  0  0  0  0  0  0  0  0  0
   -6.9759    2.7948   -0.9979 H   0  0  0  0  0  0  0  0  0  0  0  0
   -1.1903    0.0055   -1.7845 H   0  0  0  0  0  0  0  0  0  0  0  0
   -2.6904   -0.0490   -2.6737 H   0  0  0  0  0  0  0  0  0  0  0  0
   -4.0834   -1.0727   -1.0384 H   0  0  0  0  0  0  0  0  0  0  0  0
   -4.4203   -2.8198    1.2773 H   0  0  0  0  0  0  0  0  0  0  0  0
   -3.1144   -3.7433    0.4575 H   0  0  0  0  0  0  0  0  0  0  0  0
   -4.2626   -2.8008   -0.4688 H   0  0  0  0  0  0  0  0  0  0  0  0
   -0.0885   -1.2535   -0.3317 H   0  0  0  0  0  0  0  0  0  0  0  0
    2.9787   -2.9952    0.2446 H   0  0  0  0  0  0  0  0  0  0  0  0
    3.4913    1.4338   -0.7098 H   0  0  0  0  0  0  0  0  0  0  0  0
    7.3167    1.9841   -3.2597 H   0  0  0  0  0  0  0  0  0  0  0  0
    8.9943    1.4582   -2.8982 H   0  0  0  0  0  0  0  0  0  0  0  0
    6.7925   -2.0690   -1.3722 H   0  0  0  0  0  0  0  0  0  0  0  0
    1.6762   -3.8829    2.4349 H   0  0  0  0  0  0  0  0  0  0  0  0
   -2.8369    1.2385    4.0656 H   0  0  0  0  0  0  0  0  0  0  0  0
   -4.4947    0.8760    3.6173 H   0  0  0  0  0  0  0  0  0  0  0  0
  1  2  1  0
  2  3  1  0
  2  4  1  0
  4  5  2  0
  6  4  1  6
  6  7  1  0
  7  8  1  0
  8  9  1  0
  9 10  1  6
  9 11  1  0
 11 12  2  0
 12 13  1  0
 13 14  1  0
 14 15  2  0
 15 16  1  0
 15 17  1  0
 17 18  2  0
 18 19  1  0
 19 20  2  0
 20 21  1  0
 21 22  1  0
 22 23  1  0
 23 24  1  0
 23 25  1  0
 23 26  1  0
 20 27  1  0
 27 28  2  0
 13 29  2  0
 29 30  1  0
 30 31  2  0
 31 32  1  0
  9 33  1  0
 33 34  2  0
 34 35  1  0
 34 36  1  0
  8  6  1  0
 31 11  1  0
 36  6  1  0
 28 17  1  0
  1 37  1  0
  1 38  1  0
  1 39  1  0
  3 40  1  0
  3 41  1  0
  3 42  1  0
  7 43  1  0
  7 44  1  0
  8 45  1  6
 10 46  1  0
 10 47  1  0
 10 48  1  0
 12 49  1  0
 14 50  1  0
 18 51  1  0
 22 52  1  0
 22 53  1  0
 27 54  1  0
 29 55  1  0
 35 56  1  0
 35 57  1  0
M  END
$$$$
