
     RDKit          3D

 53 57  0  0  0  0  0  0  0  0999 V2000
   -0.0920    0.6057    2.3271 C   0  0  0  0  0  0  0  0  0  0  0  0
   -0.7638    0.4707    1.0979 O   0  0  0  0  0  0  0  0  0  0  0  0
   -0.0562    0.1919   -0.0532 C   0  0  0  0  0  0  0  0  0  0  0  0
    1.3394    0.0536    0.0689 C   0  0  0  0  0  0  0  0  0  0  0  0
    2.1187   -0.2209   -1.0085 C   0  0  0  0  0  0  0  0  0  0  0  0
    3.4883   -0.3682   -0.9512 C   0  0  0  0  0  0  0  0  0  0  0  0
    4.1696   -0.2095    0.2795 N   0  0  0  0  0  0  0  0  0  0  0  0
    5.5520   -0.4592    0.3739 C   0  0  0  0  0  0  0  0  0  0  0  0
    6.2774    0.2357    1.3381 C   0  0  0  0  0  0  0  0  0  0  0  0
    7.6279    0.0604    1.5350 C   0  0  0  0  0  0  0  0  0  0  0  0
    8.2977   -0.8513    0.7355 C   0  0  0  0  0  0  0  0  0  0  0  0
   10.0214   -1.0823    0.9795 Cl  0  0  0  0  0  0  0  0  0  0  0  0
    7.6174   -1.5559   -0.2254 C   0  0  0  0  0  0  0  0  0  0  0  0
    8.4926   -2.6956   -1.2138 Cl  0  0  0  0  0  0  0  0  0  0  0  0
    6.2411   -1.3513   -0.3975 C   0  0  0  0  0  0  0  0  0  0  0  0
    4.1876   -0.6452   -2.0909 N   0  0  0  0  0  0  0  0  0  0  0  0
    3.5955   -0.7793   -3.2615 C   0  0  0  0  0  0  0  0  0  0  0  0
    2.2730   -0.6380   -3.3227 N   0  0  0  0  0  0  0  0  0  0  0  0
    1.4951   -0.3637   -2.2508 C   0  0  0  0  0  0  0  0  0  0  0  0
    0.1494   -0.2253   -2.3394 C   0  0  0  0  0  0  0  0  0  0  0  0
   -0.6955    0.0575   -1.2575 C   0  0  0  0  0  0  0  0  0  0  0  0
   -2.0375    0.1792   -1.4366 O   0  0  0  0  0  0  0  0  0  0  0  0
   -3.0925    0.4468   -0.6205 C   0  0  1  0  0  0  0  0  0  0  0  0
   -3.9123    1.6096   -1.1531 C   0  0  0  0  0  0  0  0  0  0  0  0
   -5.1563    1.1533   -1.4878 O   0  0  0  0  0  0  0  0  0  0  0  0
   -5.3955   -0.0136   -0.7887 C   0  0  2  0  0  0  0  0  0  0  0  0
   -5.6730    0.2220    0.6736 C   0  0  1  0  0  0  0  0  0  0  0  0
   -7.0288    0.0887    0.9745 O   0  0  0  0  0  0  0  0  0  0  0  0
   -7.4740    1.2859    1.5227 C   0  0  0  0  0  0  0  0  0  0  0  0
   -4.8292   -0.7923    1.3595 C   0  0  0  0  0  0  0  0  0  0  0  0
   -4.0821   -1.4769    0.4317 O   0  0  0  0  0  0  0  0  0  0  0  0
   -4.0725   -0.7342   -0.7385 C   0  0  2  0  0  0  0  0  0  0  0  0
    0.4576   -0.3549    2.4961 H   0  0  0  0  0  0  0  0  0  0  0  0
   -0.7597    0.8191    3.1671 H   0  0  0  0  0  0  0  0  0  0  0  0
    0.6942    1.3968    2.2954 H   0  0  0  0  0  0  0  0  0  0  0  0
    1.7967    0.1667    1.0410 H   0  0  0  0  0  0  0  0  0  0  0  0
    3.6760    0.1011    1.1665 H   0  0  0  0  0  0  0  0  0  0  0  0
    5.7936    0.9605    1.9883 H   0  0  0  0  0  0  0  0  0  0  0  0
    8.1587    0.6230    2.2989 H   0  0  0  0  0  0  0  0  0  0  0  0
    5.7787   -1.9536   -1.1643 H   0  0  0  0  0  0  0  0  0  0  0  0
    4.2129   -1.0012   -4.1374 H   0  0  0  0  0  0  0  0  0  0  0  0
   -0.3339   -0.3355   -3.3012 H   0  0  0  0  0  0  0  0  0  0  0  0
   -2.8956    0.6570    0.4441 H   0  0  0  0  0  0  0  0  0  0  0  0
   -4.0157    2.4246   -0.4089 H   0  0  0  0  0  0  0  0  0  0  0  0
   -3.4189    1.9986   -2.0853 H   0  0  0  0  0  0  0  0  0  0  0  0
   -6.1827   -0.6166   -1.2820 H   0  0  0  0  0  0  0  0  0  0  0  0
   -5.2973    1.2406    0.9436 H   0  0  0  0  0  0  0  0  0  0  0  0
   -7.3357    2.1190    0.8076 H   0  0  0  0  0  0  0  0  0  0  0  0
   -8.5498    1.1344    1.7896 H   0  0  0  0  0  0  0  0  0  0  0  0
   -6.8964    1.5250    2.4479 H   0  0  0  0  0  0  0  0  0  0  0  0
   -5.4442   -1.4941    1.9959 H   0  0  0  0  0  0  0  0  0  0  0  0
   -4.1283   -0.3013    2.0864 H   0  0  0  0  0  0  0  0  0  0  0  0
   -3.8935   -1.3076   -1.6485 H   0  0  0  0  0  0  0  0  0  0  0  0
  1  2  1  0
  2  3  1  0
  3  4  2  0
  4  5  1  0
  5  6  2  0
  6  7  1  0
  7  8  1  0
  8  9  2  0
  9 10  1  0
 10 11  2  0
 11 12  1  0
 11 13  1  0
 13 14  1  0
 13 15  2  0
  6 16  1  0
 16 17  2  0
 17 18  1  0
 18 19  2  0
 19 20  1  0
 20 21  2  0
 21 22  1  0
 22 23  1  0
 23 24  1  0
 24 25  1  0
 25 26  1  0
 26 27  1  0
 27 28  1  0
 28 29  1  0
 27 30  1  0
 30 31  1  0
 31 32  1  0
 21  3  1  0
 32 23  1  0
 19  5  1  0
 32 26  1  0
 15  8  1  0
  1 33  1  0
  1 34  1  0
  1 35  1  0
  4 36  1  0
  7 37  1  0
  9 38  1  0
 10 39  1  0
 15 40  1  0
 17 41  1  0
 20 42  1  0
 23 43  1  1
 24 44  1  0
 24 45  1  0
 26 46  1  6
 27 47  1  1
 29 48  1  0
 29 49  1  0
 29 50  1  0
 30 51  1  0
 30 52  1  0
 32 53  1  6
M  END
$$$$
