
     RDKit          3D

 76 81  0  0  0  0  0  0  0  0999 V2000
   -3.5164   -6.6823   -3.7583 C   0  0  0  0  0  0  0  0  0  0  0  0
   -2.9636   -5.8657   -2.7739 O   0  0  0  0  0  0  0  0  0  0  0  0
   -2.4525   -4.6167   -3.1491 C   0  0  0  0  0  0  0  0  0  0  0  0
   -1.8933   -3.7642   -2.2195 C   0  0  0  0  0  0  0  0  0  0  0  0
   -1.3962   -2.5421   -2.6028 C   0  0  0  0  0  0  0  0  0  0  0  0
   -0.8127   -1.6201   -1.7009 N   0  0  0  0  0  0  0  0  0  0  0  0
    0.5489   -1.5006   -1.2976 C   0  0  0  0  0  0  0  0  0  0  0  0
    1.3937   -2.4272   -1.4946 O   0  0  0  0  0  0  0  0  0  0  0  0
    0.8012   -0.2602   -0.6785 N   0  0  0  0  0  0  0  0  0  0  0  0
    2.0370    0.2404   -0.1379 C   0  0  0  0  0  0  0  0  0  0  0  0
    2.3600    0.0072    1.1803 C   0  0  0  0  0  0  0  0  0  0  0  0
    3.5510    0.5035    1.6626 C   0  0  0  0  0  0  0  0  0  0  0  0
    4.4268    1.2245    0.8685 C   0  0  0  0  0  0  0  0  0  0  0  0
    5.6462    1.7079    1.4824 C   0  0  0  0  0  0  0  0  0  0  0  0
    5.6296    2.3833    2.7084 C   0  0  0  0  0  0  0  0  0  0  0  0
    6.8077    2.8372    3.2593 C   0  0  0  0  0  0  0  0  0  0  0  0
    8.0316    2.6571    2.6527 C   0  0  0  0  0  0  0  0  0  0  0  0
    9.2627    3.1488    3.2579 C   0  0  0  0  0  0  0  0  0  0  0  0
    9.1800    3.7470    4.3570 O   0  0  0  0  0  0  0  0  0  0  0  0
   10.5154    2.9954    2.6933 O   0  0  0  0  0  0  0  0  0  0  0  0
    8.0380    1.9909    1.4461 C   0  0  0  0  0  0  0  0  0  0  0  0
    6.8540    1.5212    0.8683 C   0  0  0  0  0  0  0  0  0  0  0  0
    6.9499    0.8093   -0.4220 C   0  0  0  0  0  0  0  0  0  0  0  0
    4.0567    1.4291   -0.4393 C   0  0  0  0  0  0  0  0  0  0  0  0
    2.8753    0.9505   -0.9624 C   0  0  0  0  0  0  0  0  0  0  0  0
   -0.4469    0.4359   -0.6881 C   0  0  0  0  0  0  0  0  0  0  0  0
   -0.5482    1.6700   -0.4832 O   0  0  0  0  0  0  0  0  0  0  0  0
   -1.5227   -0.5582   -0.9745 C   0  0  0  0  0  0  0  0  0  0  0  0
   -2.5625    0.0116   -1.8806 C   0  0  0  0  0  0  0  0  0  0  0  0
   -3.7569    0.5107   -1.0681 C   0  0  0  0  0  0  0  0  0  0  0  0
   -4.3682   -0.4981   -0.3179 N   0  0  0  0  0  0  0  0  0  0  0  0
   -5.5671   -0.2869    0.3763 C   0  0  0  0  0  0  0  0  0  0  0  0
   -5.4213    0.7431    1.4356 C   0  0  0  0  0  0  0  0  0  0  0  0
   -5.1375    0.3215    2.7106 N   0  0  0  0  0  0  0  0  0  0  0  0
   -4.9451    1.1020    3.7500 C   0  0  0  0  0  0  0  0  0  0  0  0
   -5.0321    2.4670    3.5624 C   0  0  0  0  0  0  0  0  0  0  0  0
   -5.3113    2.9681    2.3260 C   0  0  0  0  0  0  0  0  0  0  0  0
   -5.5098    2.0972    1.2465 C   0  0  0  0  0  0  0  0  0  0  0  0
   -5.8533    2.6591   -0.0794 C   0  0  0  0  0  0  0  0  0  0  0  0
   -3.5229   -1.5310    0.2126 C   0  0  0  0  0  0  0  0  0  0  0  0
   -2.1135   -1.0239    0.3139 C   0  0  0  0  0  0  0  0  0  0  0  0
   -1.4746   -2.2137   -3.9003 N   0  0  0  0  0  0  0  0  0  0  0  0
   -2.0183   -3.0454   -4.7957 C   0  0  0  0  0  0  0  0  0  0  0  0
   -2.4983   -4.2252   -4.4265 N   0  0  0  0  0  0  0  0  0  0  0  0
   -3.1442   -7.7197   -3.6012 H   0  0  0  0  0  0  0  0  0  0  0  0
   -4.6408   -6.6865   -3.7323 H   0  0  0  0  0  0  0  0  0  0  0  0
   -3.2268   -6.3587   -4.7808 H   0  0  0  0  0  0  0  0  0  0  0  0
   -1.8522   -4.0785   -1.1697 H   0  0  0  0  0  0  0  0  0  0  0  0
    1.6684   -0.5612    1.8053 H   0  0  0  0  0  0  0  0  0  0  0  0
    3.8100    0.3226    2.6985 H   0  0  0  0  0  0  0  0  0  0  0  0
    4.6663    2.5190    3.1749 H   0  0  0  0  0  0  0  0  0  0  0  0
    6.8010    3.3602    4.2070 H   0  0  0  0  0  0  0  0  0  0  0  0
   11.3842    3.1847    3.1720 H   0  0  0  0  0  0  0  0  0  0  0  0
    8.9958    1.8473    0.9662 H   0  0  0  0  0  0  0  0  0  0  0  0
    7.9414    0.2603   -0.4522 H   0  0  0  0  0  0  0  0  0  0  0  0
    6.1192    0.1056   -0.6157 H   0  0  0  0  0  0  0  0  0  0  0  0
    7.0741    1.5815   -1.2296 H   0  0  0  0  0  0  0  0  0  0  0  0
    4.7337    1.9967   -1.0690 H   0  0  0  0  0  0  0  0  0  0  0  0
    2.6033    1.1283   -2.0132 H   0  0  0  0  0  0  0  0  0  0  0  0
   -2.9554   -0.7186   -2.6003 H   0  0  0  0  0  0  0  0  0  0  0  0
   -2.1258    0.9209   -2.3663 H   0  0  0  0  0  0  0  0  0  0  0  0
   -4.4480    0.9583   -1.8250 H   0  0  0  0  0  0  0  0  0  0  0  0
   -3.3667    1.3239   -0.4276 H   0  0  0  0  0  0  0  0  0  0  0  0
   -5.9121   -1.2284    0.9079 H   0  0  0  0  0  0  0  0  0  0  0  0
   -6.4397   -0.0523   -0.2938 H   0  0  0  0  0  0  0  0  0  0  0  0
   -4.7256    0.6447    4.7144 H   0  0  0  0  0  0  0  0  0  0  0  0
   -4.8711    3.1147    4.4291 H   0  0  0  0  0  0  0  0  0  0  0  0
   -5.3857    4.0414    2.1511 H   0  0  0  0  0  0  0  0  0  0  0  0
   -6.3490    1.9190   -0.7321 H   0  0  0  0  0  0  0  0  0  0  0  0
   -6.5691    3.5146    0.1142 H   0  0  0  0  0  0  0  0  0  0  0  0
   -4.9523    3.1063   -0.5644 H   0  0  0  0  0  0  0  0  0  0  0  0
   -3.6305   -2.4960   -0.2896 H   0  0  0  0  0  0  0  0  0  0  0  0
   -3.8657   -1.6820    1.2804 H   0  0  0  0  0  0  0  0  0  0  0  0
   -2.1146   -0.2033    1.0825 H   0  0  0  0  0  0  0  0  0  0  0  0
   -1.4941   -1.8319    0.7758 H   0  0  0  0  0  0  0  0  0  0  0  0
   -2.0484   -2.7112   -5.8359 H   0  0  0  0  0  0  0  0  0  0  0  0
  1  2  1  0
  2  3  1  0
  3  4  2  0
  4  5  1  0
  5  6  1  0
  6  7  1  0
  7  8  2  0
  7  9  1  0
  9 10  1  0
 10 11  2  0
 11 12  1  0
 12 13  2  0
 13 14  1  0
 14 15  2  0
 15 16  1  0
 16 17  2  0
 17 18  1  0
 18 19  2  0
 18 20  1  0
 17 21  1  0
 21 22  2  0
 22 23  1  0
 13 24  1  0
 24 25  2  0
  9 26  1  0
 26 27  2  0
 26 28  1  0
 28 29  1  0
 29 30  1  0
 30 31  1  0
 31 32  1  0
 32 33  1  0
 33 34  2  0
 34 35  1  0
 35 36  2  0
 36 37  1  0
 37 38  2  0
 38 39  1  0
 31 40  1  0
 40 41  1  0
  5 42  2  0
 42 43  1  0
 43 44  2  0
 44  3  1  0
 28  6  1  0
 38 33  1  0
 25 10  1  0
 41 28  1  0
 22 14  1  0
  1 45  1  0
  1 46  1  0
  1 47  1  0
  4 48  1  0
 11 49  1  0
 12 50  1  0
 15 51  1  0
 16 52  1  0
 20 53  1  0
 21 54  1  0
 23 55  1  0
 23 56  1  0
 23 57  1  0
 24 58  1  0
 25 59  1  0
 29 60  1  0
 29 61  1  0
 30 62  1  0
 30 63  1  0
 32 64  1  0
 32 65  1  0
 35 66  1  0
 36 67  1  0
 37 68  1  0
 39 69  1  0
 39 70  1  0
 39 71  1  0
 40 72  1  0
 40 73  1  0
 41 74  1  0
 41 75  1  0
 43 76  1  0
M  END
$$$$
