
     RDKit          3D

 36 38  0  0  0  0  0  0  0  0999 V2000
   -5.4464    1.6777    0.6719 C   0  0  0  0  0  0  0  0  0  0  0  0
   -4.6790    0.6127    0.1896 O   0  0  0  0  0  0  0  0  0  0  0  0
   -3.3120    0.5591    0.1833 C   0  0  0  0  0  0  0  0  0  0  0  0
   -2.6044    1.6249    0.6854 C   0  0  0  0  0  0  0  0  0  0  0  0
   -1.2031    1.6366    0.7101 C   0  0  0  0  0  0  0  0  0  0  0  0
   -0.5454    2.6910    1.2033 N   0  0  0  0  0  0  0  0  0  0  0  0
    0.7915    2.6925    1.2192 C   0  0  0  0  0  0  0  0  0  0  0  0
    1.4496    1.6415    0.7423 N   0  0  0  0  0  0  0  0  0  0  0  0
    0.8472    0.5485    0.2321 C   0  0  0  0  0  0  0  0  0  0  0  0
    1.5563   -0.5468   -0.2708 N   0  0  0  0  0  0  0  0  0  0  0  0
    2.9750   -0.6052   -0.2113 C   0  0  0  0  0  0  0  0  0  0  0  0
    3.6520   -1.2910   -1.2161 C   0  0  0  0  0  0  0  0  0  0  0  0
    5.0011   -1.3870   -1.1903 C   0  0  0  0  0  0  0  0  0  0  0  0
    5.7111   -0.8068   -0.1700 C   0  0  0  0  0  0  0  0  0  0  0  0
    5.0493   -0.1345    0.8155 C   0  0  0  0  0  0  0  0  0  0  0  0
    3.6863   -0.0331    0.7975 C   0  0  0  0  0  0  0  0  0  0  0  0
   -0.5490    0.5231    0.2046 C   0  0  0  0  0  0  0  0  0  0  0  0
   -1.2835   -0.5291   -0.2916 C   0  0  0  0  0  0  0  0  0  0  0  0
   -2.6796   -0.5523   -0.3216 C   0  0  0  0  0  0  0  0  0  0  0  0
   -3.3786   -1.6361   -0.8317 O   0  0  0  0  0  0  0  0  0  0  0  0
   -2.8121   -2.7969   -1.3524 C   0  0  0  0  0  0  0  0  0  0  0  0
   -6.4958    1.2891    0.8100 H   0  0  0  0  0  0  0  0  0  0  0  0
   -5.5213    2.5248   -0.0401 H   0  0  0  0  0  0  0  0  0  0  0  0
   -5.1173    2.0223    1.6708 H   0  0  0  0  0  0  0  0  0  0  0  0
   -3.0868    2.5162    1.0904 H   0  0  0  0  0  0  0  0  0  0  0  0
    1.3691    3.5360    1.6147 H   0  0  0  0  0  0  0  0  0  0  0  0
    1.0838   -1.3477   -0.7016 H   0  0  0  0  0  0  0  0  0  0  0  0
    3.0862   -1.7390   -2.0057 H   0  0  0  0  0  0  0  0  0  0  0  0
    5.5824   -1.9131   -1.9534 H   0  0  0  0  0  0  0  0  0  0  0  0
    6.7947   -0.8811   -0.1456 H   0  0  0  0  0  0  0  0  0  0  0  0
    5.5958    0.3286    1.6279 H   0  0  0  0  0  0  0  0  0  0  0  0
    3.1969    0.4932    1.5973 H   0  0  0  0  0  0  0  0  0  0  0  0
   -0.7919   -1.3941   -0.6850 H   0  0  0  0  0  0  0  0  0  0  0  0
   -3.5300   -3.6431   -1.4066 H   0  0  0  0  0  0  0  0  0  0  0  0
   -1.8685   -3.0976   -0.8477 H   0  0  0  0  0  0  0  0  0  0  0  0
   -2.5237   -2.5833   -2.4242 H   0  0  0  0  0  0  0  0  0  0  0  0
  1  2  1  0
  2  3  1  0
  3  4  2  0
  4  5  1  0
  5  6  2  0
  6  7  1  0
  7  8  2  0
  8  9  1  0
  9 10  1  0
 10 11  1  0
 11 12  2  0
 12 13  1  0
 13 14  2  0
 14 15  1  0
 15 16  2  0
  9 17  2  0
 17 18  1  0
 18 19  2  0
 19 20  1  0
 20 21  1  0
 19  3  1  0
 17  5  1  0
 16 11  1  0
  1 22  1  0
  1 23  1  0
  1 24  1  0
  4 25  1  0
  7 26  1  0
 10 27  1  0
 12 28  1  0
 13 29  1  0
 14 30  1  0
 15 31  1  0
 16 32  1  0
 18 33  1  0
 21 34  1  0
 21 35  1  0
 21 36  1  0
M  END
$$$$
