
     RDKit          3D

 37 40  0  0  0  0  0  0  0  0999 V2000
   -2.8730   -0.7650    1.6623 C   0  0  0  0  0  0  0  0  0  0  0  0
   -3.3210    0.2434    0.6623 C   0  0  0  0  0  0  0  0  0  0  0  0
   -4.6778    0.5989    0.6378 C   0  0  0  0  0  0  0  0  0  0  0  0
   -5.1348    1.5482   -0.2173 C   0  0  0  0  0  0  0  0  0  0  0  0
   -4.2846    2.1897   -1.0840 C   0  0  0  0  0  0  0  0  0  0  0  0
   -2.9639    1.8306   -1.0483 C   0  0  0  0  0  0  0  0  0  0  0  0
   -2.4512    0.8611   -0.1884 C   0  0  0  0  0  0  0  0  0  0  0  0
   -1.0288    0.5948   -0.2294 N   0  0  0  0  0  0  0  0  0  0  0  0
   -0.5261   -0.6377   -0.7050 C   0  0  0  0  0  0  0  0  0  0  0  0
   -1.3650   -1.5504   -1.2842 N   0  0  0  0  0  0  0  0  0  0  0  0
   -0.9107   -2.7070   -1.7689 C   0  0  0  0  0  0  0  0  0  0  0  0
    0.4139   -2.9952   -1.6904 N   0  0  0  0  0  0  0  0  0  0  0  0
    1.2635   -2.1227   -1.1272 C   0  0  0  0  0  0  0  0  0  0  0  0
    2.6190   -2.4208   -1.0383 C   0  0  0  0  0  0  0  0  0  0  0  0
    3.5375   -1.5754   -0.4669 C   0  0  0  0  0  0  0  0  0  0  0  0
    3.0862   -0.3826    0.0378 C   0  0  0  0  0  0  0  0  0  0  0  0
    4.0068    0.5707    0.6569 C   0  0  0  0  0  0  0  0  0  0  0  0
    5.4010    0.5227    0.7358 C   0  0  0  0  0  0  0  0  0  0  0  0
    5.9199    1.5569    1.3555 N   0  0  0  0  0  0  0  0  0  0  0  0
    5.4594    2.4507    1.8220 C   0  0  0  0  0  0  0  0  0  0  0  0
    3.5948    2.1015    1.4841 S   0  0  0  0  0  0  0  0  0  0  0  0
    1.7252   -0.0337   -0.0282 C   0  0  0  0  0  0  0  0  0  0  0  0
    0.8340   -0.9032   -0.6070 C   0  0  0  0  0  0  0  0  0  0  0  0
   -3.7475   -1.4177    1.8944 H   0  0  0  0  0  0  0  0  0  0  0  0
   -2.5864   -0.1602    2.5669 H   0  0  0  0  0  0  0  0  0  0  0  0
   -2.0291   -1.3398    1.2843 H   0  0  0  0  0  0  0  0  0  0  0  0
   -5.3462    0.0881    1.3257 H   0  0  0  0  0  0  0  0  0  0  0  0
   -6.1938    1.8338   -0.2461 H   0  0  0  0  0  0  0  0  0  0  0  0
   -4.6058    2.9371   -1.7665 H   0  0  0  0  0  0  0  0  0  0  0  0
   -2.2571    2.3176   -1.7233 H   0  0  0  0  0  0  0  0  0  0  0  0
   -0.3982    1.3395    0.1002 H   0  0  0  0  0  0  0  0  0  0  0  0
   -1.5581   -3.4531   -2.2316 H   0  0  0  0  0  0  0  0  0  0  0  0
    2.9160   -3.3889   -1.4581 H   0  0  0  0  0  0  0  0  0  0  0  0
    4.5669   -1.8083   -0.4021 H   0  0  0  0  0  0  0  0  0  0  0  0
    5.9533   -0.2998    0.3098 H   0  0  0  0  0  0  0  0  0  0  0  0
    5.5676    3.4776    2.4082 H   0  0  0  0  0  0  0  0  0  0  0  0
    1.3942    0.8984    0.3671 H   0  0  0  0  0  0  0  0  0  0  0  0
  1  2  1  0
  2  3  2  0
  3  4  1  0
  4  5  2  0
  5  6  1  0
  6  7  2  0
  7  8  1  0
  8  9  1  0
  9 10  2  0
 10 11  1  0
 11 12  2  0
 12 13  1  0
 13 14  2  0
 14 15  1  0
 15 16  2  0
 16 17  1  0
 17 18  2  0
 18 19  1  0
 19 20  2  0
 20 21  1  0
 16 22  1  0
 22 23  2  0
  7  2  1  0
 23  9  1  0
 23 13  1  0
 21 17  1  0
  1 24  1  0
  1 25  1  0
  1 26  1  0
  3 27  1  0
  4 28  1  0
  5 29  1  0
  6 30  1  0
  8 31  1  0
 11 32  1  0
 14 33  1  0
 15 34  1  0
 18 35  1  0
 20 36  1  0
 22 37  1  0
M  END
$$$$
