
     RDKit          3D

 71 76  0  0  0  0  0  0  0  0999 V2000
   -7.5020   -2.1207   -0.6606 N   0  0  0  0  0  0  0  0  0  0  0  0
   -6.1952   -1.7889   -0.2781 C   0  0  0  0  0  0  0  0  0  0  0  0
   -5.1697   -2.4494   -0.9200 C   0  0  0  0  0  0  0  0  0  0  0  0
   -3.9300   -2.1274   -0.5258 C   0  0  0  0  0  0  0  0  0  0  0  0
   -3.6046   -1.2151    0.4507 C   0  0  0  0  0  0  0  0  0  0  0  0
   -2.3251   -0.7900    0.7640 N   0  0  0  0  0  0  0  0  0  0  0  0
   -1.0803   -0.8421    0.1139 C   0  0  0  0  0  0  0  0  0  0  0  0
   -0.3888   -1.7982   -0.5563 C   0  0  0  0  0  0  0  0  0  0  0  0
    0.7904   -1.5392   -1.2009 C   0  0  0  0  0  0  0  0  0  0  0  0
    1.2792   -0.2257   -1.1435 C   0  0  0  0  0  0  0  0  0  0  0  0
    2.4935    0.0569   -1.6947 N   0  0  0  0  0  0  0  0  0  0  0  0
    3.7105    0.3343   -2.2521 C   0  0  0  0  0  0  0  0  0  0  0  0
    3.6852    0.2470   -3.6146 N   0  0  0  0  0  0  0  0  0  0  0  0
    4.8262    0.5469   -4.2805 C   0  0  0  0  0  0  0  0  0  0  0  0
    5.1659    0.5902   -6.0335 Cl  0  0  0  0  0  0  0  0  0  0  0  0
    5.9324    0.9102   -3.6289 N   0  0  0  0  0  0  0  0  0  0  0  0
    6.0234    1.0115   -2.3127 C   0  0  0  0  0  0  0  0  0  0  0  0
    6.8279    1.3283   -1.1560 N   0  0  0  0  0  0  0  0  0  0  0  0
    7.5577    0.2084   -0.6355 C   0  0  0  0  0  0  0  0  0  0  0  0
    7.6326   -1.0063   -1.2817 C   0  0  0  0  0  0  0  0  0  0  0  0
    8.3406   -2.0713   -0.8174 C   0  0  0  0  0  0  0  0  0  0  0  0
    9.0247   -1.9161    0.3828 C   0  0  0  0  0  0  0  0  0  0  0  0
    8.9597   -0.6995    1.0496 C   0  0  0  0  0  0  0  0  0  0  0  0
    8.2372    0.3411    0.5455 C   0  0  0  0  0  0  0  0  0  0  0  0
    8.0949    1.8979    1.3730 S   0  0  0  0  0  0  0  0  0  0  0  0
    6.4651    2.0800    1.7163 O   0  0  0  0  0  0  0  0  0  0  0  0
    8.6434    3.0124    0.5502 O   0  0  0  0  0  0  0  0  0  0  0  0
    8.8756    1.7712    2.6463 O   0  0  0  0  0  0  0  0  0  0  0  0
    4.9089    0.7166   -1.6953 N   0  0  0  0  0  0  0  0  0  0  0  0
    0.5727    0.7941   -0.4459 C   0  0  0  0  0  0  0  0  0  0  0  0
   -0.6333    0.4862    0.1974 C   0  0  0  0  0  0  0  0  0  0  0  0
    1.2736    2.4049   -0.4691 S   0  0  0  0  0  0  0  0  0  0  0  0
    0.1500    3.4542    0.2562 O   0  0  0  0  0  0  0  0  0  0  0  0
    1.5078    2.9193   -1.8657 O   0  0  0  0  0  0  0  0  0  0  0  0
    2.5322    2.4900    0.3690 O   0  0  0  0  0  0  0  0  0  0  0  0
   -4.7024   -0.5966    1.0450 C   0  0  0  0  0  0  0  0  0  0  0  0
   -6.0130   -0.8380    0.7274 C   0  0  0  0  0  0  0  0  0  0  0  0
   -7.1551   -0.1953    1.2872 C   0  0  0  0  0  0  0  0  0  0  0  0
   -8.3507   -0.4982    0.9275 O   0  0  0  0  0  0  0  0  0  0  0  0
   -6.9435    0.8266    2.2840 C   0  0  0  0  0  0  0  0  0  0  0  0
   -8.0416    1.4935    2.8591 C   0  0  0  0  0  0  0  0  0  0  0  0
   -7.8333    2.4743    3.8083 C   0  0  0  0  0  0  0  0  0  0  0  0
   -6.5696    2.8061    4.2051 C   0  0  0  0  0  0  0  0  0  0  0  0
   -5.5079    2.1449    3.6395 C   0  0  0  0  0  0  0  0  0  0  0  0
   -5.6575    1.1591    2.6849 C   0  0  0  0  0  0  0  0  0  0  0  0
   -4.5505    0.4414    2.0567 C   0  0  0  0  0  0  0  0  0  0  0  0
   -3.4622    0.8474    2.5091 O   0  0  0  0  0  0  0  0  0  0  0  0
   -5.3564   -3.6041   -2.2369 S   0  0  0  0  0  0  0  0  0  0  0  0
   -5.8416   -2.7407   -3.6021 O   0  0  0  0  0  0  0  0  0  0  0  0
   -4.1075   -4.3305   -2.5402 O   0  0  0  0  0  0  0  0  0  0  0  0
   -6.4986   -4.5608   -1.9255 O   0  0  0  0  0  0  0  0  0  0  0  0
   -8.3199   -2.1564   -1.2641 H   0  0  0  0  0  0  0  0  0  0  0  0
   -7.9967   -2.6587    0.1160 H   0  0  0  0  0  0  0  0  0  0  0  0
   -3.1089   -2.6266   -1.0277 H   0  0  0  0  0  0  0  0  0  0  0  0
   -2.2427   -0.4046    1.7198 H   0  0  0  0  0  0  0  0  0  0  0  0
   -0.9047   -2.7303   -0.4524 H   0  0  0  0  0  0  0  0  0  0  0  0
    1.2576   -2.3511   -1.6980 H   0  0  0  0  0  0  0  0  0  0  0  0
    2.8011    0.7087   -0.9536 H   0  0  0  0  0  0  0  0  0  0  0  0
    6.8538    2.2749   -0.7277 H   0  0  0  0  0  0  0  0  0  0  0  0
    7.0727   -1.0965   -2.2358 H   0  0  0  0  0  0  0  0  0  0  0  0
    8.3262   -2.9917   -1.4323 H   0  0  0  0  0  0  0  0  0  0  0  0
    9.5887   -2.7799    0.7352 H   0  0  0  0  0  0  0  0  0  0  0  0
    9.4775   -0.5906    1.9581 H   0  0  0  0  0  0  0  0  0  0  0  0
    6.2803    1.7508    2.6314 H   0  0  0  0  0  0  0  0  0  0  0  0
   -1.0224    1.3770    0.6587 H   0  0  0  0  0  0  0  0  0  0  0  0
   -0.4469    3.7746   -0.4745 H   0  0  0  0  0  0  0  0  0  0  0  0
   -9.0692    1.2539    2.5710 H   0  0  0  0  0  0  0  0  0  0  0  0
   -8.6608    3.0170    4.2978 H   0  0  0  0  0  0  0  0  0  0  0  0
   -6.3614    3.5519    4.9412 H   0  0  0  0  0  0  0  0  0  0  0  0
   -4.5070    2.4258    3.9633 H   0  0  0  0  0  0  0  0  0  0  0  0
   -5.1078   -2.2652   -4.0017 H   0  0  0  0  0  0  0  0  0  0  0  0
  1  2  1  0
  2  3  2  0
  3  4  1  0
  4  5  2  0
  5  6  1  0
  6  7  1  0
  7  8  2  0
  8  9  1  0
  9 10  2  0
 10 11  1  0
 11 12  1  0
 12 13  2  0
 13 14  1  0
 14 15  1  0
 14 16  2  0
 16 17  1  0
 17 18  1  0
 18 19  1  0
 19 20  2  0
 20 21  1  0
 21 22  2  0
 22 23  1  0
 23 24  2  0
 24 25  1  0
 25 26  1  0
 25 27  2  0
 25 28  2  0
 17 29  2  0
 10 30  1  0
 30 31  2  0
 30 32  1  0
 32 33  1  0
 32 34  2  0
 32 35  2  0
  5 36  1  0
 36 37  2  0
 37 38  1  0
 38 39  2  0
 38 40  1  0
 40 41  2  0
 41 42  1  0
 42 43  2  0
 43 44  1  0
 44 45  2  0
 45 46  1  0
 46 47  2  0
  3 48  1  0
 48 49  1  0
 48 50  2  0
 48 51  2  0
 37  2  1  0
 45 40  1  0
 31  7  1  0
 46 36  1  0
 29 12  1  0
 24 19  1  0
  1 52  1  0
  1 53  1  0
  4 54  1  0
  6 55  1  0
  8 56  1  0
  9 57  1  0
 11 58  1  0
 18 59  1  0
 20 60  1  0
 21 61  1  0
 22 62  1  0
 23 63  1  0
 26 64  1  0
 31 65  1  0
 33 66  1  0
 41 67  1  0
 42 68  1  0
 43 69  1  0
 44 70  1  0
 49 71  1  0
M  END
$$$$
