
     RDKit          3D

 42 45  0  0  0  0  0  0  0  0999 V2000
    4.5822    1.4593   -0.2085 C   0  0  0  0  0  0  0  0  0  0  0  0
    3.7233    0.3904    0.0379 N   0  0  0  0  0  0  0  0  0  0  0  0
    3.4228   -0.5162   -0.9878 C   0  0  0  0  0  0  0  0  0  0  0  0
    1.9028   -0.5443   -1.1239 C   0  0  0  0  0  0  0  0  0  0  0  0
    1.2464   -0.2539    0.1151 N   0  0  0  0  0  0  0  0  0  0  0  0
    1.8450   -0.0167    1.3935 C   0  0  0  0  0  0  0  0  0  0  0  0
    3.3655    0.0093    1.3320 C   0  0  0  0  0  0  0  0  0  0  0  0
   -0.1754   -0.1931    0.0737 C   0  0  0  0  0  0  0  0  0  0  0  0
   -0.5474    1.0252   -0.0681 N   0  0  0  0  0  0  0  0  0  0  0  0
   -1.8401    1.6209   -0.1646 C   0  0  0  0  0  0  0  0  0  0  0  0
   -1.8180    3.0076   -0.2416 C   0  0  0  0  0  0  0  0  0  0  0  0
   -2.9889    3.7280   -0.3391 C   0  0  0  0  0  0  0  0  0  0  0  0
   -2.7943    5.4632   -0.4274 Cl  0  0  0  0  0  0  0  0  0  0  0  0
   -4.1764    3.0385   -0.3581 C   0  0  0  0  0  0  0  0  0  0  0  0
   -4.2138    1.6719   -0.2830 C   0  0  0  0  0  0  0  0  0  0  0  0
   -3.0476    0.9398   -0.1850 C   0  0  0  0  0  0  0  0  0  0  0  0
   -3.3311   -0.4607   -0.1199 N   0  0  0  0  0  0  0  0  0  0  0  0
   -2.3754   -1.4811    0.0962 C   0  0  0  0  0  0  0  0  0  0  0  0
   -2.9729   -2.7177    0.2291 C   0  0  0  0  0  0  0  0  0  0  0  0
   -2.1682   -3.8379    0.4484 C   0  0  0  0  0  0  0  0  0  0  0  0
   -0.7953   -3.6974    0.5293 C   0  0  0  0  0  0  0  0  0  0  0  0
   -0.1699   -2.4627    0.3987 C   0  0  0  0  0  0  0  0  0  0  0  0
   -0.9972   -1.3776    0.1827 C   0  0  0  0  0  0  0  0  0  0  0  0
    4.7079    2.0517    0.7148 H   0  0  0  0  0  0  0  0  0  0  0  0
    5.5628    1.2229   -0.6971 H   0  0  0  0  0  0  0  0  0  0  0  0
    4.0727    2.1649   -0.9286 H   0  0  0  0  0  0  0  0  0  0  0  0
    3.9176   -0.3586   -1.9384 H   0  0  0  0  0  0  0  0  0  0  0  0
    3.6908   -1.5697   -0.6801 H   0  0  0  0  0  0  0  0  0  0  0  0
    1.6798    0.3204   -1.8138 H   0  0  0  0  0  0  0  0  0  0  0  0
    1.5574   -1.4341   -1.6572 H   0  0  0  0  0  0  0  0  0  0  0  0
    1.4909   -0.6725    2.2074 H   0  0  0  0  0  0  0  0  0  0  0  0
    1.5460    1.0209    1.7066 H   0  0  0  0  0  0  0  0  0  0  0  0
    3.8317    0.6251    2.1020 H   0  0  0  0  0  0  0  0  0  0  0  0
    3.6846   -1.0547    1.5184 H   0  0  0  0  0  0  0  0  0  0  0  0
   -0.8316    3.4195   -0.2168 H   0  0  0  0  0  0  0  0  0  0  0  0
   -5.0637    3.6549   -0.4360 H   0  0  0  0  0  0  0  0  0  0  0  0
   -5.1773    1.1818   -0.3023 H   0  0  0  0  0  0  0  0  0  0  0  0
   -4.3267   -0.7791   -0.2403 H   0  0  0  0  0  0  0  0  0  0  0  0
   -4.0467   -2.8215    0.1651 H   0  0  0  0  0  0  0  0  0  0  0  0
   -2.6342   -4.8128    0.5536 H   0  0  0  0  0  0  0  0  0  0  0  0
   -0.2322   -4.5976    0.6994 H   0  0  0  0  0  0  0  0  0  0  0  0
    0.8942   -2.3562    0.4617 H   0  0  0  0  0  0  0  0  0  0  0  0
  1  2  1  0
  2  3  1  0
  3  4  1  0
  4  5  1  0
  5  6  1  0
  6  7  1  0
  5  8  1  0
  8  9  2  0
  9 10  1  0
 10 11  2  0
 11 12  1  0
 12 13  1  0
 12 14  2  0
 14 15  1  0
 15 16  2  0
 16 17  1  0
 17 18  1  0
 18 19  2  0
 19 20  1  0
 20 21  2  0
 21 22  1  0
 22 23  2  0
  7  2  1  0
 23  8  1  0
 16 10  1  0
 23 18  1  0
  1 24  1  0
  1 25  1  0
  1 26  1  0
  3 27  1  0
  3 28  1  0
  4 29  1  0
  4 30  1  0
  6 31  1  0
  6 32  1  0
  7 33  1  0
  7 34  1  0
 11 35  1  0
 14 36  1  0
 15 37  1  0
 17 38  1  0
 19 39  1  0
 20 40  1  0
 21 41  1  0
 22 42  1  0
M  END
$$$$
