
     RDKit          3D

 53 56  0  0  0  0  0  0  0  0999 V2000
    8.7224   -0.0970    0.6261 C   0  0  0  0  0  0  0  0  0  0  0  0
    7.6197   -0.8864    1.0512 O   0  0  0  0  0  0  0  0  0  0  0  0
    6.3173   -0.4179    0.9826 C   0  0  0  0  0  0  0  0  0  0  0  0
    5.2227   -1.1454    1.3846 C   0  0  0  0  0  0  0  0  0  0  0  0
    3.9791   -0.6444    1.2965 N   0  0  0  0  0  0  0  0  0  0  0  0
    3.6906    0.5808    0.8217 C   0  0  0  0  0  0  0  0  0  0  0  0
    2.4251    1.0775    0.7492 C   0  0  0  0  0  0  0  0  0  0  0  0
    1.3072    0.2866    1.1702 N   0  0  0  0  0  0  0  0  0  0  0  0
    0.4866   -0.2945    0.1360 C   0  0  0  0  0  0  0  0  0  0  0  0
    1.0906   -0.6343   -1.0630 C   0  0  0  0  0  0  0  0  0  0  0  0
    0.2888   -1.1330   -2.0579 C   0  0  0  0  0  0  0  0  0  0  0  0
   -1.0946   -1.2911   -1.8650 C   0  0  0  0  0  0  0  0  0  0  0  0
   -1.7556   -1.7979   -2.9257 F   0  0  0  0  0  0  0  0  0  0  0  0
   -1.6845   -0.9514   -0.6738 C   0  0  0  0  0  0  0  0  0  0  0  0
   -3.1561   -1.0829   -0.5050 C   0  0  2  0  0  0  0  0  0  0  0  0
   -3.5391   -2.4990   -0.8114 C   0  0  0  0  0  0  0  0  0  0  0  0
   -3.7365   -0.1063   -1.5379 C   0  0  0  0  0  0  0  0  0  0  0  0
   -5.4645   -0.0209   -1.2530 S   0  0  0  0  0  6  0  0  0  0  0  0
   -5.9511    1.2909   -1.8386 O   0  0  0  0  0  0  0  0  0  0  0  0
   -6.1433   -1.1168   -2.0197 O   0  0  0  0  0  0  0  0  0  0  0  0
   -5.7836   -0.1129    0.4820 C   0  0  1  0  0  0  0  0  0  0  0  0
   -6.5340    1.1464    0.8813 C   0  0  0  0  0  0  0  0  0  0  0  0
   -6.6562   -1.1624    0.6934 F   0  0  0  0  0  0  0  0  0  0  0  0
   -4.5528   -0.2565    1.2709 C   0  0  0  0  0  0  0  0  0  0  0  0
   -4.6983    0.1288    2.6655 N   0  0  0  0  0  0  0  0  0  0  0  0
   -3.4657   -0.6695    0.8114 N   0  0  0  0  0  0  0  0  0  0  0  0
   -0.8684   -0.4477    0.3349 C   0  0  0  0  0  0  0  0  0  0  0  0
    2.2229    2.3287    0.2653 N   0  0  0  0  0  0  0  0  0  0  0  0
    3.2625    3.0922   -0.1460 C   0  0  0  0  0  0  0  0  0  0  0  0
    4.5451    2.6130   -0.0815 C   0  0  0  0  0  0  0  0  0  0  0  0
    4.7826    1.3531    0.4028 C   0  0  0  0  0  0  0  0  0  0  0  0
    6.0688    0.8399    0.4910 C   0  0  0  0  0  0  0  0  0  0  0  0
    8.5737    0.9286    1.0733 H   0  0  0  0  0  0  0  0  0  0  0  0
    8.7276    0.0592   -0.4878 H   0  0  0  0  0  0  0  0  0  0  0  0
    9.6845   -0.5151    0.9752 H   0  0  0  0  0  0  0  0  0  0  0  0
    5.4147   -2.1361    1.7723 H   0  0  0  0  0  0  0  0  0  0  0  0
    1.1422    0.1698    2.1746 H   0  0  0  0  0  0  0  0  0  0  0  0
    2.1574   -0.4902   -1.1659 H   0  0  0  0  0  0  0  0  0  0  0  0
    0.7595   -1.3985   -2.9928 H   0  0  0  0  0  0  0  0  0  0  0  0
   -3.9352   -2.6499   -1.8379 H   0  0  0  0  0  0  0  0  0  0  0  0
   -2.7172   -3.1985   -0.5666 H   0  0  0  0  0  0  0  0  0  0  0  0
   -4.3672   -2.7571   -0.1086 H   0  0  0  0  0  0  0  0  0  0  0  0
   -3.4631   -0.3833   -2.5551 H   0  0  0  0  0  0  0  0  0  0  0  0
   -3.2321    0.8822   -1.3248 H   0  0  0  0  0  0  0  0  0  0  0  0
   -5.8167    1.9577    1.1434 H   0  0  0  0  0  0  0  0  0  0  0  0
   -7.2710    0.9760    1.6944 H   0  0  0  0  0  0  0  0  0  0  0  0
   -7.0859    1.4915   -0.0129 H   0  0  0  0  0  0  0  0  0  0  0  0
   -4.0947   -0.3059    3.3950 H   0  0  0  0  0  0  0  0  0  0  0  0
   -5.3934    0.8307    2.9826 H   0  0  0  0  0  0  0  0  0  0  0  0
   -1.3425   -0.1882    1.2619 H   0  0  0  0  0  0  0  0  0  0  0  0
    3.0310    4.0768   -0.5198 H   0  0  0  0  0  0  0  0  0  0  0  0
    5.3969    3.2132   -0.4120 H   0  0  0  0  0  0  0  0  0  0  0  0
    6.8838    1.4675    0.1547 H   0  0  0  0  0  0  0  0  0  0  0  0
  1  2  1  0
  2  3  1  0
  3  4  2  0
  4  5  1  0
  5  6  2  0
  6  7  1  0
  7  8  1  0
  8  9  1  0
  9 10  2  0
 10 11  1  0
 11 12  2  0
 12 13  1  0
 12 14  1  0
 14 15  1  0
 15 16  1  6
 15 17  1  0
 17 18  1  0
 18 19  2  0
 18 20  2  0
 18 21  1  0
 21 22  1  0
 21 23  1  6
 21 24  1  0
 24 25  1  0
 24 26  2  0
 14 27  2  0
  7 28  2  0
 28 29  1  0
 29 30  2  0
 30 31  1  0
 31 32  2  0
 32  3  1  0
 31  6  1  0
 27  9  1  0
 26 15  1  0
  1 33  1  0
  1 34  1  0
  1 35  1  0
  4 36  1  0
  8 37  1  0
 10 38  1  0
 11 39  1  0
 16 40  1  0
 16 41  1  0
 16 42  1  0
 17 43  1  0
 17 44  1  0
 22 45  1  0
 22 46  1  0
 22 47  1  0
 25 48  1  0
 25 49  1  0
 27 50  1  0
 29 51  1  0
 30 52  1  0
 32 53  1  0
M  END
$$$$
