
     RDKit          3D

 21 20  0  0  0  0  0  0  0  0999 V2000
   -1.2534    0.1416   -0.5576 C   0  0  2  0  0  0  0  0  0  0  0  0
   -1.6809   -0.8114    0.5093 C   0  0  0  0  0  0  0  0  0  0  0  0
   -0.0987   -0.2609   -1.3892 C   0  0  0  0  0  0  0  0  0  0  0  0
    1.1964   -0.5017   -0.7140 C   0  0  2  0  0  0  0  0  0  0  0  0
    1.1540   -1.5523    0.2721 N   0  0  0  0  0  0  0  0  0  0  0  0
    1.8350    0.7298   -0.1852 C   0  0  0  0  0  0  0  0  0  0  0  0
    2.3352    0.8562    1.1105 O   0  0  0  0  0  0  0  0  0  0  0  0
    2.0199    1.8284   -0.8123 O   0  0  0  0  0  0  0  0  0  0  0  0
   -1.1088    1.4939    0.0458 C   0  0  0  0  0  0  0  0  0  0  0  0
   -1.1572    2.6325   -0.7800 O   0  0  0  0  0  1  0  0  0  0  0  0
   -0.9355    1.9128    1.2399 O   0  0  0  0  0  0  0  0  0  0  0  0
   -2.1223    0.2504   -1.2738 H   0  0  0  0  0  0  0  0  0  0  0  0
   -2.8119   -0.8015    0.5453 H   0  0  0  0  0  0  0  0  0  0  0  0
   -1.3996   -0.4229    1.5304 H   0  0  0  0  0  0  0  0  0  0  0  0
   -1.3950   -1.8626    0.3546 H   0  0  0  0  0  0  0  0  0  0  0  0
   -0.0078    0.4973   -2.2093 H   0  0  0  0  0  0  0  0  0  0  0  0
   -0.3839   -1.2034   -1.9193 H   0  0  0  0  0  0  0  0  0  0  0  0
    1.8999   -0.8930   -1.5077 H   0  0  0  0  0  0  0  0  0  0  0  0
    0.7860   -1.3070    1.1857 H   0  0  0  0  0  0  0  0  0  0  0  0
    0.8648   -2.4256   -0.1716 H   0  0  0  0  0  0  0  0  0  0  0  0
    2.2638    1.6991    1.6668 H   0  0  0  0  0  0  0  0  0  0  0  0
  1  2  1  0
  1  3  1  0
  3  4  1  0
  4  5  1  0
  4  6  1  0
  6  7  1  0
  6  8  2  0
  1  9  1  0
  9 10  1  0
  9 11  2  0
  1 12  1  6
  2 13  1  0
  2 14  1  0
  2 15  1  0
  3 16  1  0
  3 17  1  0
  4 18  1  6
  5 19  1  0
  5 20  1  0
  7 21  1  0
M  CHG  1  10  -1
M  END
$$$$
