
     RDKit          3D

 24 23  0  0  0  0  0  0  0  0999 V2000
   -1.8675   -1.7660    0.3347 N   0  0  0  0  0  0  0  0  0  0  0  0
   -2.1553   -0.3566    0.4747 C   0  0  1  0  0  0  0  0  0  0  0  0
   -1.1956    0.4095   -0.3723 C   0  0  0  0  0  0  0  0  0  0  0  0
    0.2473    0.2285   -0.0405 C   0  0  0  0  0  0  0  0  0  0  0  0
    0.9379    1.0436   -0.9677 O   0  0  0  0  0  0  0  0  0  0  0  0
    2.2466    0.9160   -0.7109 N   0  0  0  0  0  0  0  0  0  0  0  0
    3.2476   -0.1092   -0.7784 C   0  0  0  0  0  0  0  0  0  0  0  0
    4.4314    0.3897   -0.1668 N   0  0  0  0  0  0  0  0  0  0  0  0
    2.6619   -1.1114   -1.3863 N   0  0  0  0  0  0  0  0  0  0  0  0
   -3.5231   -0.0512   -0.0555 C   0  0  0  0  0  0  0  0  0  0  0  0
   -3.8286    1.2829    0.0630 O   0  0  0  0  0  0  0  0  0  0  0  0
   -4.3769   -0.8137   -0.5647 O   0  0  0  0  0  0  0  0  0  0  0  0
   -2.5311   -2.3590    0.8749 H   0  0  0  0  0  0  0  0  0  0  0  0
   -0.8779   -1.9245    0.6191 H   0  0  0  0  0  0  0  0  0  0  0  0
   -2.1569   -0.0273    1.5309 H   0  0  0  0  0  0  0  0  0  0  0  0
   -1.3554    0.0915   -1.4348 H   0  0  0  0  0  0  0  0  0  0  0  0
   -1.4263    1.4877   -0.2362 H   0  0  0  0  0  0  0  0  0  0  0  0
    0.4470    0.5842    1.0031 H   0  0  0  0  0  0  0  0  0  0  0  0
    0.6401   -0.7876   -0.1325 H   0  0  0  0  0  0  0  0  0  0  0  0
    2.1920    1.9380   -0.4322 H   0  0  0  0  0  0  0  0  0  0  0  0
    4.8165    0.1050    0.7702 H   0  0  0  0  0  0  0  0  0  0  0  0
    4.9594    1.1115   -0.7183 H   0  0  0  0  0  0  0  0  0  0  0  0
    3.1905   -1.9930   -1.5595 H   0  0  0  0  0  0  0  0  0  0  0  0
   -4.7233    1.7113   -0.1830 H   0  0  0  0  0  0  0  0  0  0  0  0
  1  2  1  0
  2  3  1  0
  3  4  1  0
  4  5  1  0
  5  6  1  0
  6  7  1  0
  7  8  1  0
  7  9  2  3
  2 10  1  0
 10 11  1  0
 10 12  2  0
  1 13  1  0
  1 14  1  0
  2 15  1  1
  3 16  1  0
  3 17  1  0
  4 18  1  0
  4 19  1  0
  6 20  1  0
  8 21  1  0
  8 22  1  0
  9 23  1  0
 11 24  1  0
M  END
$$$$
