
     RDKit          3D

 71 76  0  0  0  0  0  0  0  0999 V2000
    9.0434   -2.0958    0.1343 C   0  0  0  0  0  0  0  0  0  0  0  0
    7.6347   -1.7433    0.2632 N   0  0  0  0  0  0  0  0  0  0  0  0
    7.1430   -1.5739    1.6317 C   0  0  0  0  0  0  0  0  0  0  0  0
    6.7883   -1.5743   -0.8605 C   0  0  0  0  0  0  0  0  0  0  0  0
    7.2473   -1.7299   -2.0117 O   0  0  0  0  0  0  0  0  0  0  0  0
    5.3944   -1.2208   -0.6161 C   0  0  0  0  0  0  0  0  0  0  0  0
    4.4048   -2.1480   -0.2505 C   0  0  0  0  0  0  0  0  0  0  0  0
    3.2514   -1.4132   -0.1156 C   0  0  0  0  0  0  0  0  0  0  0  0
    1.9349   -1.7461    0.2290 C   0  0  0  0  0  0  0  0  0  0  0  0
    0.9750   -0.8231    0.2935 N   0  0  0  0  0  0  0  0  0  0  0  0
    1.2307    0.4503    0.0329 C   0  0  0  0  0  0  0  0  0  0  0  0
    0.2369    1.4405    0.1027 N   0  0  0  0  0  0  0  0  0  0  0  0
   -1.0788    1.2493    0.4713 C   0  0  0  0  0  0  0  0  0  0  0  0
   -1.6519    0.0849    0.8351 C   0  0  0  0  0  0  0  0  0  0  0  0
   -3.0039   -0.0049    1.1991 C   0  0  0  0  0  0  0  0  0  0  0  0
   -3.7749    1.1184    1.1883 C   0  0  0  0  0  0  0  0  0  0  0  0
   -5.1729    1.0288    1.5679 C   0  0  0  0  0  0  0  0  0  0  0  0
   -5.6099    1.7211    2.5314 O   0  0  0  0  0  0  0  0  0  0  0  0
   -6.0478    0.1638    0.8569 N   0  0  0  0  0  0  0  0  0  0  0  0
   -5.6937   -0.6810   -0.2600 C   0  0  0  0  0  0  0  0  0  0  0  0
   -6.9079   -0.6924   -1.1445 C   0  0  0  0  0  0  0  0  0  0  0  0
   -7.5696    0.6321   -1.3543 C   0  0  0  0  0  0  0  0  0  0  0  0
   -8.0296   -0.3085   -0.2555 C   0  0  0  0  0  0  0  0  0  0  0  0
   -9.3140   -0.9180   -0.3011 N   0  0  0  0  0  0  0  0  0  0  0  0
   -9.3644   -2.3241   -0.0885 C   0  0  0  0  0  0  0  0  0  0  0  0
  -10.2583   -0.3762   -1.2129 C   0  0  0  0  0  0  0  0  0  0  0  0
   -7.4398   -0.0224    1.1288 C   0  0  0  0  0  0  0  0  0  0  0  0
   -3.1860    2.3139    0.8142 C   0  0  0  0  0  0  0  0  0  0  0  0
   -1.8888    2.3585    0.4727 N   0  0  0  0  0  0  0  0  0  0  0  0
    2.5244    0.7913   -0.3084 N   0  0  0  0  0  0  0  0  0  0  0  0
    3.5152   -0.0953   -0.3853 C   0  0  0  0  0  0  0  0  0  0  0  0
    4.8468   -0.0199   -0.6890 N   0  0  0  0  0  0  0  0  0  0  0  0
    5.4397    1.2306   -1.0156 C   0  0  0  0  0  0  0  0  0  0  0  0
    5.5234    2.1841    0.1485 C   0  0  0  0  0  0  0  0  0  0  0  0
    6.7567    3.0239   -0.1036 C   0  0  0  0  0  0  0  0  0  0  0  0
    7.1408    2.7262   -1.5620 C   0  0  0  0  0  0  0  0  0  0  0  0
    6.8119    1.2188   -1.5673 C   0  0  0  0  0  0  0  0  0  0  0  0
    9.4062   -1.8361   -0.8955 H   0  0  0  0  0  0  0  0  0  0  0  0
    9.5949   -1.5379    0.9232 H   0  0  0  0  0  0  0  0  0  0  0  0
    9.2363   -3.1663    0.2924 H   0  0  0  0  0  0  0  0  0  0  0  0
    6.2451   -0.9195    1.5956 H   0  0  0  0  0  0  0  0  0  0  0  0
    7.9577   -1.1342    2.2440 H   0  0  0  0  0  0  0  0  0  0  0  0
    6.9115   -2.5625    2.0963 H   0  0  0  0  0  0  0  0  0  0  0  0
    4.4847   -3.1950   -0.1010 H   0  0  0  0  0  0  0  0  0  0  0  0
    1.7762   -2.8004    0.4334 H   0  0  0  0  0  0  0  0  0  0  0  0
    0.5631    2.4464   -0.1646 H   0  0  0  0  0  0  0  0  0  0  0  0
   -1.0930   -0.8353    0.8637 H   0  0  0  0  0  0  0  0  0  0  0  0
   -3.4247   -0.9443    1.4819 H   0  0  0  0  0  0  0  0  0  0  0  0
   -4.8396   -0.2647   -0.8358 H   0  0  0  0  0  0  0  0  0  0  0  0
   -5.4041   -1.6959    0.0904 H   0  0  0  0  0  0  0  0  0  0  0  0
   -6.9978   -1.4386   -1.9393 H   0  0  0  0  0  0  0  0  0  0  0  0
   -7.1033    1.5698   -1.0014 H   0  0  0  0  0  0  0  0  0  0  0  0
   -8.2539    0.7875   -2.1997 H   0  0  0  0  0  0  0  0  0  0  0  0
   -8.3416   -2.7594   -0.0489 H   0  0  0  0  0  0  0  0  0  0  0  0
   -9.8259   -2.5254    0.9025 H   0  0  0  0  0  0  0  0  0  0  0  0
   -9.9731   -2.8449   -0.8686 H   0  0  0  0  0  0  0  0  0  0  0  0
  -10.0884    0.6941   -1.3499 H   0  0  0  0  0  0  0  0  0  0  0  0
  -10.3234   -0.8918   -2.1926 H   0  0  0  0  0  0  0  0  0  0  0  0
  -11.2782   -0.4622   -0.7362 H   0  0  0  0  0  0  0  0  0  0  0  0
   -7.9372    0.9103    1.4806 H   0  0  0  0  0  0  0  0  0  0  0  0
   -7.6559   -0.8757    1.8107 H   0  0  0  0  0  0  0  0  0  0  0  0
   -3.7454    3.2363    0.7858 H   0  0  0  0  0  0  0  0  0  0  0  0
    4.7903    1.7357   -1.7934 H   0  0  0  0  0  0  0  0  0  0  0  0
    5.5429    1.6703    1.1278 H   0  0  0  0  0  0  0  0  0  0  0  0
    4.6618    2.8852    0.1335 H   0  0  0  0  0  0  0  0  0  0  0  0
    7.5693    2.5596    0.5198 H   0  0  0  0  0  0  0  0  0  0  0  0
    6.6249    4.0867    0.0849 H   0  0  0  0  0  0  0  0  0  0  0  0
    8.1969    2.9175   -1.7573 H   0  0  0  0  0  0  0  0  0  0  0  0
    6.4324    3.2906   -2.1811 H   0  0  0  0  0  0  0  0  0  0  0  0
    7.5870    0.7734   -0.9326 H   0  0  0  0  0  0  0  0  0  0  0  0
    6.8531    0.9011   -2.6300 H   0  0  0  0  0  0  0  0  0  0  0  0
  1  2  1  0
  2  3  1  0
  2  4  1  0
  4  5  2  0
  4  6  1  0
  6  7  2  0
  7  8  1  0
  8  9  2  0
  9 10  1  0
 10 11  2  0
 11 12  1  0
 12 13  1  0
 13 14  2  0
 14 15  1  0
 15 16  2  0
 16 17  1  0
 17 18  2  0
 17 19  1  0
 19 20  1  0
 20 21  1  0
 21 22  1  0
 22 23  1  0
 23 24  1  0
 24 25  1  0
 24 26  1  0
 23 27  1  0
 16 28  1  0
 28 29  2  0
 11 30  1  0
 30 31  2  0
 31 32  1  0
 32 33  1  0
 33 34  1  0
 34 35  1  0
 35 36  1  0
 36 37  1  0
 32  6  1  0
 37 33  1  0
 31  8  1  0
 29 13  1  0
 27 19  1  0
 23 21  1  0
  1 38  1  0
  1 39  1  0
  1 40  1  0
  3 41  1  0
  3 42  1  0
  3 43  1  0
  7 44  1  0
  9 45  1  0
 12 46  1  0
 14 47  1  0
 15 48  1  0
 20 49  1  0
 20 50  1  0
 21 51  1  0
 22 52  1  0
 22 53  1  0
 25 54  1  0
 25 55  1  0
 25 56  1  0
 26 57  1  0
 26 58  1  0
 26 59  1  0
 27 60  1  0
 27 61  1  0
 28 62  1  0
 33 63  1  0
 34 64  1  0
 34 65  1  0
 35 66  1  0
 35 67  1  0
 36 68  1  0
 36 69  1  0
 37 70  1  0
 37 71  1  0
M  END
$$$$
