
     RDKit          3D

 34 34  0  0  0  0  0  0  0  0999 V2000
    3.6644    0.8440   -0.1058 C   0  0  0  0  0  0  0  0  0  0  0  0
    2.1772    0.9426    0.2516 C   0  0  0  0  0  0  0  0  0  0  0  0
    1.5577   -0.4022    0.3880 C   0  0  0  0  0  0  0  0  0  0  0  0
    0.0952   -0.4212    0.7377 C   0  0  0  0  0  0  0  0  0  0  0  0
   -0.0952    0.2964    2.0437 C   0  0  0  0  0  0  0  0  0  0  0  0
   -0.8676   -0.1784   -0.3379 C   0  0  0  0  0  0  0  0  0  0  0  0
   -0.8658    1.0825   -1.1026 C   0  0  0  0  0  0  0  0  0  0  0  0
   -1.0697    2.3641   -0.3959 C   0  0  0  0  0  0  0  0  0  0  0  0
   -0.5484   -1.2154   -1.4002 C   0  0  0  0  0  0  0  0  0  0  0  0
    0.1718   -0.9971   -2.4354 O   0  0  0  0  0  0  0  0  0  0  0  0
   -1.0457   -2.5404   -1.3102 N   0  0  0  0  0  0  0  0  0  0  0  0
   -2.1942   -2.7940   -0.4961 C   0  0  0  0  0  0  0  0  0  0  0  0
   -2.6644   -3.9744   -0.3954 O   0  0  0  0  0  0  0  0  0  0  0  0
   -2.8545   -1.7537    0.2282 N   0  0  0  0  0  0  0  0  0  0  0  0
   -2.2848   -0.4477    0.0793 C   0  0  0  0  0  0  0  0  0  0  0  0
   -3.0381    0.5542    0.3192 O   0  0  0  0  0  0  0  0  0  0  0  0
    4.2208    0.3767    0.7065 H   0  0  0  0  0  0  0  0  0  0  0  0
    3.9817    1.9064   -0.3137 H   0  0  0  0  0  0  0  0  0  0  0  0
    3.7387    0.3128   -1.0660 H   0  0  0  0  0  0  0  0  0  0  0  0
    2.1860    1.4716    1.2501 H   0  0  0  0  0  0  0  0  0  0  0  0
    1.7443    1.6389   -0.4464 H   0  0  0  0  0  0  0  0  0  0  0  0
    2.1219   -0.9026    1.2356 H   0  0  0  0  0  0  0  0  0  0  0  0
    1.7911   -1.0739   -0.4775 H   0  0  0  0  0  0  0  0  0  0  0  0
   -0.0795   -1.5280    1.0340 H   0  0  0  0  0  0  0  0  0  0  0  0
    0.3330    1.2963    2.0680 H   0  0  0  0  0  0  0  0  0  0  0  0
    0.5001   -0.2815    2.8137 H   0  0  0  0  0  0  0  0  0  0  0  0
   -1.1345    0.2220    2.4347 H   0  0  0  0  0  0  0  0  0  0  0  0
   -0.0479    1.1618   -1.8608 H   0  0  0  0  0  0  0  0  0  0  0  0
   -1.7791    0.9766   -1.7919 H   0  0  0  0  0  0  0  0  0  0  0  0
   -1.9046    2.9859   -0.8404 H   0  0  0  0  0  0  0  0  0  0  0  0
   -0.1902    3.0347   -0.4970 H   0  0  0  0  0  0  0  0  0  0  0  0
   -1.3214    2.3220    0.6762 H   0  0  0  0  0  0  0  0  0  0  0  0
   -0.6054   -3.3385   -1.8157 H   0  0  0  0  0  0  0  0  0  0  0  0
   -3.6929   -1.9402    0.8222 H   0  0  0  0  0  0  0  0  0  0  0  0
  1  2  1  0
  2  3  1  0
  3  4  1  0
  4  5  1  0
  4  6  1  0
  6  7  1  0
  7  8  1  0
  6  9  1  0
  9 10  2  0
  9 11  1  0
 11 12  1  0
 12 13  2  0
 12 14  1  0
 14 15  1  0
 15 16  2  0
 15  6  1  0
  1 17  1  0
  1 18  1  0
  1 19  1  0
  2 20  1  0
  2 21  1  0
  3 22  1  0
  3 23  1  0
  4 24  1  0
  5 25  1  0
  5 26  1  0
  5 27  1  0
  7 28  1  0
  7 29  1  0
  8 30  1  0
  8 31  1  0
  8 32  1  0
 11 33  1  0
 14 34  1  0
M  END
$$$$
