
     RDKit          3D

 48 51  0  0  0  0  0  0  0  0999 V2000
   -1.1334    3.0874    0.5165 C   0  0  0  0  0  0  0  0  0  0  0  0
   -0.9140    3.3960   -0.9486 C   0  0  0  0  0  0  0  0  0  0  0  0
   -0.0637    4.6677   -0.9818 C   0  0  0  0  0  0  0  0  0  0  0  0
   -0.2472    2.2812   -1.6927 C   0  0  0  0  0  0  0  0  0  0  0  0
   -1.0116    1.0597   -1.6586 N   0  0  0  0  0  0  0  0  0  0  0  0
   -1.9724    0.7478   -2.5799 C   0  0  0  0  0  0  0  0  0  0  0  0
   -2.5163   -0.4469   -2.2928 N   0  0  0  0  0  0  0  0  0  0  0  0
   -1.9274   -0.9320   -1.1912 C   0  0  0  0  0  0  0  0  0  0  0  0
   -2.2872   -2.2095   -0.6143 C   0  0  0  0  0  0  0  0  0  0  0  0
   -2.9634   -2.4063    0.5603 C   0  0  0  0  0  0  0  0  0  0  0  0
   -3.2236   -3.6808    0.9776 C   0  0  0  0  0  0  0  0  0  0  0  0
   -2.8208   -4.7688    0.2423 C   0  0  0  0  0  0  0  0  0  0  0  0
   -3.0933   -6.0476    0.6806 F   0  0  0  0  0  0  0  0  0  0  0  0
   -2.1397   -4.5942   -0.9421 C   0  0  0  0  0  0  0  0  0  0  0  0
   -1.8782   -3.3205   -1.3614 C   0  0  0  0  0  0  0  0  0  0  0  0
   -1.0001    0.0136   -0.8140 C   0  0  0  0  0  0  0  0  0  0  0  0
   -0.1119   -0.0895    0.3298 C   0  0  0  0  0  0  0  0  0  0  0  0
   -0.5857   -0.0651    1.6188 C   0  0  0  0  0  0  0  0  0  0  0  0
    0.2962   -0.1723    2.6629 C   0  0  0  0  0  0  0  0  0  0  0  0
    1.6405   -0.3019    2.3859 C   0  0  0  0  0  0  0  0  0  0  0  0
    2.6911   -0.4220    3.2271 N   0  0  0  0  0  0  0  0  0  0  0  0
    3.7883   -0.5179    2.4625 C   0  0  0  0  0  0  0  0  0  0  0  0
    3.4436   -0.4595    1.1299 C   0  0  0  0  0  0  0  0  0  0  0  0
    4.3666   -0.5315    0.0060 C   0  0  0  0  0  0  0  0  0  0  0  0
    5.7665   -0.6755    0.2075 N   0  0  0  0  0  0  0  0  0  0  0  0
    3.9694   -0.4700   -1.1841 O   0  0  0  0  0  0  0  0  0  0  0  0
    2.1062   -0.3255    1.1136 N   0  0  0  0  0  0  0  0  0  0  0  0
    1.2394   -0.2204    0.0891 C   0  0  0  0  0  0  0  0  0  0  0  0
   -1.4214    4.0248    1.0367 H   0  0  0  0  0  0  0  0  0  0  0  0
   -1.9092    2.3266    0.6629 H   0  0  0  0  0  0  0  0  0  0  0  0
   -0.1945    2.7311    0.9847 H   0  0  0  0  0  0  0  0  0  0  0  0
   -1.8847    3.7036   -1.4387 H   0  0  0  0  0  0  0  0  0  0  0  0
   -0.7081    5.5624   -0.8415 H   0  0  0  0  0  0  0  0  0  0  0  0
    0.4199    4.8038   -1.9779 H   0  0  0  0  0  0  0  0  0  0  0  0
    0.7480    4.6212   -0.2378 H   0  0  0  0  0  0  0  0  0  0  0  0
    0.7659    2.1532   -1.2272 H   0  0  0  0  0  0  0  0  0  0  0  0
   -0.0534    2.6363   -2.7205 H   0  0  0  0  0  0  0  0  0  0  0  0
   -2.2879    1.3366   -3.4316 H   0  0  0  0  0  0  0  0  0  0  0  0
   -3.2704   -1.5413    1.1115 H   0  0  0  0  0  0  0  0  0  0  0  0
   -3.7574   -3.8599    1.9047 H   0  0  0  0  0  0  0  0  0  0  0  0
   -1.8443   -5.4827   -1.4845 H   0  0  0  0  0  0  0  0  0  0  0  0
   -1.3386   -3.2150   -2.3007 H   0  0  0  0  0  0  0  0  0  0  0  0
   -1.6633    0.0446    1.8133 H   0  0  0  0  0  0  0  0  0  0  0  0
   -0.0911   -0.1516    3.6746 H   0  0  0  0  0  0  0  0  0  0  0  0
    4.7870   -0.6252    2.8728 H   0  0  0  0  0  0  0  0  0  0  0  0
    6.2857   -1.5721    0.0903 H   0  0  0  0  0  0  0  0  0  0  0  0
    6.3485    0.1511    0.4930 H   0  0  0  0  0  0  0  0  0  0  0  0
    1.6513   -0.2433   -0.9328 H   0  0  0  0  0  0  0  0  0  0  0  0
  1  2  1  0
  2  3  1  0
  2  4  1  0
  4  5  1  0
  5  6  1  0
  6  7  2  0
  7  8  1  0
  8  9  1  0
  9 10  2  0
 10 11  1  0
 11 12  2  0
 12 13  1  0
 12 14  1  0
 14 15  2  0
  8 16  2  0
 16 17  1  0
 17 18  1  0
 18 19  2  0
 19 20  1  0
 20 21  2  0
 21 22  1  0
 22 23  2  0
 23 24  1  0
 24 25  1  0
 24 26  2  0
 23 27  1  0
 27 28  1  0
 16  5  1  0
 28 17  2  0
 15  9  1  0
 27 20  1  0
  1 29  1  0
  1 30  1  0
  1 31  1  0
  2 32  1  0
  3 33  1  0
  3 34  1  0
  3 35  1  0
  4 36  1  0
  4 37  1  0
  6 38  1  0
 10 39  1  0
 11 40  1  0
 14 41  1  0
 15 42  1  0
 18 43  1  0
 19 44  1  0
 22 45  1  0
 25 46  1  0
 25 47  1  0
 28 48  1  0
M  END
$$$$
