
     RDKit          3D

 52 56  0  0  0  0  0  0  0  0999 V2000
    6.6323    2.0357   -0.3262 C   0  0  0  0  0  0  0  0  0  0  0  0
    5.3049    1.7180   -0.7536 N   0  0  0  0  0  0  0  0  0  0  0  0
    4.3484    1.6664    0.3072 C   0  0  0  0  0  0  0  0  0  0  0  0
    3.0637    0.9981   -0.0697 C   0  0  0  0  0  0  0  0  0  0  0  0
    3.3662   -0.3125   -0.6020 N   0  0  0  0  0  0  0  0  0  0  0  0
    2.3605   -1.2978   -0.8208 C   0  0  0  0  0  0  0  0  0  0  0  0
    1.0238   -1.0355   -0.5267 C   0  0  0  0  0  0  0  0  0  0  0  0
    0.0387   -1.9639   -0.7276 C   0  0  0  0  0  0  0  0  0  0  0  0
   -1.3666   -1.7425   -0.4389 C   0  0  0  0  0  0  0  0  0  0  0  0
   -1.7878   -0.5408    0.0700 C   0  0  0  0  0  0  0  0  0  0  0  0
   -3.1303   -0.2860    0.3615 C   0  0  0  0  0  0  0  0  0  0  0  0
   -4.0226   -1.3211    0.1073 C   0  0  0  0  0  0  0  0  0  0  0  0
   -3.5912   -2.5058   -0.3967 C   0  0  0  0  0  0  0  0  0  0  0  0
   -2.2903   -2.6892   -0.6557 N   0  0  0  0  0  0  0  0  0  0  0  0
   -5.3710   -1.1249    0.3790 C   0  0  0  0  0  0  0  0  0  0  0  0
   -6.4383   -1.9176    0.2407 N   0  0  0  0  0  0  0  0  0  0  0  0
   -7.5065   -1.2529    0.6457 N   0  0  0  0  0  0  0  0  0  0  0  0
   -7.1722   -0.0230    1.0547 C   0  0  0  0  0  0  0  0  0  0  0  0
   -5.7928    0.0817    0.8907 C   0  0  0  0  0  0  0  0  0  0  0  0
   -4.9008    1.0937    1.1362 C   0  0  0  0  0  0  0  0  0  0  0  0
   -5.2752    2.2002    1.6035 O   0  0  0  0  0  0  0  0  0  0  0  0
   -3.5796    0.8676    0.8573 N   0  0  0  0  0  0  0  0  0  0  0  0
   -2.6903    1.9578    1.1328 C   0  0  0  0  0  0  0  0  0  0  0  0
   -2.5300    2.8907   -0.0470 C   0  0  0  0  0  0  0  0  0  0  0  0
   -2.0339    2.2770   -1.1583 F   0  0  0  0  0  0  0  0  0  0  0  0
   -3.7358    3.5463   -0.3114 F   0  0  0  0  0  0  0  0  0  0  0  0
   -1.6337    3.9168    0.2688 F   0  0  0  0  0  0  0  0  0  0  0  0
    0.3777   -3.2233   -1.2464 C   0  0  0  0  0  0  0  0  0  0  0  0
    1.6995   -3.4482   -1.5243 C   0  0  0  0  0  0  0  0  0  0  0  0
    2.6415   -2.5143   -1.3150 N   0  0  0  0  0  0  0  0  0  0  0  0
    4.7497   -0.6024   -0.9137 C   0  0  0  0  0  0  0  0  0  0  0  0
    5.2864    0.6101   -1.6572 C   0  0  0  0  0  0  0  0  0  0  0  0
    7.3047    1.2050   -0.6284 H   0  0  0  0  0  0  0  0  0  0  0  0
    6.9655    2.9632   -0.8370 H   0  0  0  0  0  0  0  0  0  0  0  0
    6.7068    2.1035    0.7783 H   0  0  0  0  0  0  0  0  0  0  0  0
    4.1809    2.6876    0.7050 H   0  0  0  0  0  0  0  0  0  0  0  0
    4.8119    1.0948    1.1534 H   0  0  0  0  0  0  0  0  0  0  0  0
    2.4517    0.9106    0.8679 H   0  0  0  0  0  0  0  0  0  0  0  0
    2.5144    1.6369   -0.7894 H   0  0  0  0  0  0  0  0  0  0  0  0
    0.7959   -0.0549   -0.1281 H   0  0  0  0  0  0  0  0  0  0  0  0
   -1.1020    0.2440    0.2629 H   0  0  0  0  0  0  0  0  0  0  0  0
   -4.2934   -3.2966   -0.5879 H   0  0  0  0  0  0  0  0  0  0  0  0
   -6.3650   -2.8958   -0.1346 H   0  0  0  0  0  0  0  0  0  0  0  0
   -7.8436    0.7306    1.4341 H   0  0  0  0  0  0  0  0  0  0  0  0
   -1.6929    1.6289    1.4533 H   0  0  0  0  0  0  0  0  0  0  0  0
   -3.1328    2.6021    1.9670 H   0  0  0  0  0  0  0  0  0  0  0  0
   -0.4076   -3.9714   -1.4097 H   0  0  0  0  0  0  0  0  0  0  0  0
    1.9581   -4.4283   -1.9275 H   0  0  0  0  0  0  0  0  0  0  0  0
    4.8441   -1.4883   -1.5996 H   0  0  0  0  0  0  0  0  0  0  0  0
    5.3511   -0.8278   -0.0063 H   0  0  0  0  0  0  0  0  0  0  0  0
    6.3114    0.3360   -2.0037 H   0  0  0  0  0  0  0  0  0  0  0  0
    4.5964    0.7609   -2.5288 H   0  0  0  0  0  0  0  0  0  0  0  0
  1  2  1  0
  2  3  1  0
  3  4  1  0
  4  5  1  0
  5  6  1  0
  6  7  2  0
  7  8  1  0
  8  9  1  0
  9 10  2  0
 10 11  1  0
 11 12  2  0
 12 13  1  0
 13 14  2  0
 12 15  1  0
 15 16  1  0
 16 17  1  0
 17 18  2  0
 18 19  1  0
 19 20  1  0
 20 21  2  0
 20 22  1  0
 22 23  1  0
 23 24  1  0
 24 25  1  0
 24 26  1  0
 24 27  1  0
  8 28  2  0
 28 29  1  0
 29 30  2  0
  5 31  1  0
 31 32  1  0
 32  2  1  0
 30  6  1  0
 14  9  1  0
 19 15  2  0
 22 11  1  0
  1 33  1  0
  1 34  1  0
  1 35  1  0
  3 36  1  0
  3 37  1  0
  4 38  1  0
  4 39  1  0
  7 40  1  0
 10 41  1  0
 13 42  1  0
 16 43  1  0
 18 44  1  0
 23 45  1  0
 23 46  1  0
 28 47  1  0
 29 48  1  0
 31 49  1  0
 31 50  1  0
 32 51  1  0
 32 52  1  0
M  END
$$$$
