
     RDKit          3D

 31 33  0  0  0  0  0  0  0  0999 V2000
   -1.6253   -2.8653    1.2189 O   0  0  0  0  0  0  0  0  0  0  0  0
   -1.2417   -1.7607    0.7815 C   0  0  0  0  0  0  0  0  0  0  0  0
    0.1153   -1.4365    0.6426 C   0  0  0  0  0  0  0  0  0  0  0  0
    0.9925   -2.4251    1.0238 O   0  0  0  0  0  0  0  0  0  0  0  0
    0.5359   -0.2436    0.1702 C   0  0  0  0  0  0  0  0  0  0  0  0
    1.9220    0.1150    0.0175 C   0  0  0  0  0  0  0  0  0  0  0  0
    3.0155   -0.6475    0.3080 C   0  0  0  0  0  0  0  0  0  0  0  0
    4.3366   -0.2181    0.1280 C   0  0  0  0  0  0  0  0  0  0  0  0
    4.5631    1.0440   -0.3700 C   0  0  0  0  0  0  0  0  0  0  0  0
    5.8258    1.5461   -0.5780 O   0  0  0  0  0  0  0  0  0  0  0  0
    3.4828    1.8376   -0.6727 C   0  0  0  0  0  0  0  0  0  0  0  0
    2.2089    1.3986   -0.4894 C   0  0  0  0  0  0  0  0  0  0  0  0
   -0.4088    0.6405   -0.1693 O   0  0  0  0  0  0  0  0  0  0  0  0
   -1.6861    0.4002   -0.0640 C   0  0  0  0  0  0  0  0  0  0  0  0
   -2.5970    1.3932   -0.4466 C   0  0  0  0  0  0  0  0  0  0  0  0
   -3.9414    1.1754   -0.3497 C   0  0  0  0  0  0  0  0  0  0  0  0
   -4.8783    2.1423   -0.7218 O   0  0  0  0  0  0  0  0  0  0  0  0
   -4.4191   -0.0308    0.1285 C   0  0  0  0  0  0  0  0  0  0  0  0
   -3.5155   -0.9883    0.4972 C   0  0  0  0  0  0  0  0  0  0  0  0
   -3.9493   -2.2176    0.9840 O   0  0  0  0  0  0  0  0  0  0  0  0
   -2.1493   -0.8035    0.4130 C   0  0  0  0  0  0  0  0  0  0  0  0
    0.8156   -3.3699    0.6748 H   0  0  0  0  0  0  0  0  0  0  0  0
    2.9041   -1.6172    0.6901 H   0  0  0  0  0  0  0  0  0  0  0  0
    5.1628   -0.8714    0.3778 H   0  0  0  0  0  0  0  0  0  0  0  0
    6.6242    1.2795   -0.0498 H   0  0  0  0  0  0  0  0  0  0  0  0
    3.6381    2.8503   -1.0721 H   0  0  0  0  0  0  0  0  0  0  0  0
    1.3890    2.0736   -0.7478 H   0  0  0  0  0  0  0  0  0  0  0  0
   -2.2060    2.3261   -0.8166 H   0  0  0  0  0  0  0  0  0  0  0  0
   -5.5373    1.8609   -1.4561 H   0  0  0  0  0  0  0  0  0  0  0  0
   -5.4808   -0.1958    0.2023 H   0  0  0  0  0  0  0  0  0  0  0  0
   -3.8965   -2.3921    1.9882 H   0  0  0  0  0  0  0  0  0  0  0  0
  1  2  2  0
  2  3  1  0
  3  4  1  0
  3  5  2  0
  5  6  1  0
  6  7  2  0
  7  8  1  0
  8  9  2  0
  9 10  1  0
  9 11  1  0
 11 12  2  0
  5 13  1  0
 13 14  1  0
 14 15  2  0
 15 16  1  0
 16 17  1  0
 16 18  2  0
 18 19  1  0
 19 20  1  0
 19 21  2  0
 21  2  1  0
 12  6  1  0
 21 14  1  0
  4 22  1  0
  7 23  1  0
  8 24  1  0
 10 25  1  0
 11 26  1  0
 12 27  1  0
 15 28  1  0
 17 29  1  0
 18 30  1  0
 20 31  1  0
M  END
$$$$
