
     RDKit          3D

 43 44  0  0  0  0  0  0  0  0999 V2000
   -0.7009   -0.9399    0.4003 C   0  0  1  0  0  0  0  0  0  0  0  0
    0.2617   -0.0866   -0.2198 N   0  0  0  0  0  0  0  0  0  0  0  0
    1.4282    0.5453    0.3443 C   0  0  0  0  0  0  0  0  0  0  0  0
    1.7132    0.3733    1.5497 O   0  0  0  0  0  0  0  0  0  0  0  0
    2.1062    1.2960   -0.5820 O   0  0  0  0  0  0  0  0  0  0  0  0
    3.2802    2.0040   -0.2573 C   0  0  0  0  0  0  0  0  0  0  0  0
    4.3667    1.1457    0.2145 C   0  0  0  0  0  0  0  0  0  0  0  0
    5.1263    0.6181   -0.8311 C   0  0  0  0  0  0  0  0  0  0  0  0
    6.2155   -0.2169   -0.6022 C   0  0  0  0  0  0  0  0  0  0  0  0
    6.5894   -0.5577    0.6702 C   0  0  0  0  0  0  0  0  0  0  0  0
    5.8392   -0.0363    1.6993 C   0  0  0  0  0  0  0  0  0  0  0  0
    4.7697    0.7840    1.4738 C   0  0  0  0  0  0  0  0  0  0  0  0
   -2.0822   -0.4149    0.3794 C   0  0  0  0  0  0  0  0  0  0  0  0
   -2.9364   -0.4270    1.4571 C   0  0  0  0  0  0  0  0  0  0  0  0
   -4.2249    0.0632    1.4358 C   0  0  0  0  0  0  0  0  0  0  0  0
   -4.7007    0.6111    0.2399 C   0  0  0  0  0  0  0  0  0  0  0  0
   -3.8949    0.6546   -0.8805 C   0  0  0  0  0  0  0  0  0  0  0  0
   -2.5972    0.1398   -0.7910 C   0  0  0  0  0  0  0  0  0  0  0  0
   -6.0533    1.1632    0.0961 C   0  0  0  0  0  0  0  0  0  0  0  0
   -6.7125    1.7435    1.1945 N   0  0  0  0  0  0  0  0  0  0  0  0
   -6.7568    1.1817   -0.9875 N   0  0  0  0  0  0  0  0  0  0  0  0
   -0.6609   -2.6020   -0.3222 P   0  0  0  0  0  0  0  0  0  0  0  0
   -0.9898   -2.5757   -1.9757 O   0  0  0  0  0  0  0  0  0  0  0  0
    0.8727   -3.2597   -0.0324 O   0  0  0  0  0  0  0  0  0  0  0  0
   -1.7020   -3.4696    0.3357 O   0  0  0  0  0  0  0  0  0  0  0  0
   -0.4243   -1.0775    1.4741 H   0  0  0  0  0  0  0  0  0  0  0  0
   -0.0554   -0.0015   -1.2133 H   0  0  0  0  0  0  0  0  0  0  0  0
    3.0413    2.7060    0.5929 H   0  0  0  0  0  0  0  0  0  0  0  0
    3.5906    2.6201   -1.1090 H   0  0  0  0  0  0  0  0  0  0  0  0
    4.9485    0.8007   -1.8881 H   0  0  0  0  0  0  0  0  0  0  0  0
    6.8123   -0.6321   -1.4060 H   0  0  0  0  0  0  0  0  0  0  0  0
    7.4280   -1.2008    0.8462 H   0  0  0  0  0  0  0  0  0  0  0  0
    6.1086   -0.2860    2.7096 H   0  0  0  0  0  0  0  0  0  0  0  0
    4.1797    1.2062    2.2579 H   0  0  0  0  0  0  0  0  0  0  0  0
   -2.5723   -0.8556    2.4026 H   0  0  0  0  0  0  0  0  0  0  0  0
   -4.8850    0.0466    2.2921 H   0  0  0  0  0  0  0  0  0  0  0  0
   -4.2594    1.0775   -1.8069 H   0  0  0  0  0  0  0  0  0  0  0  0
   -2.0237    0.2080   -1.7091 H   0  0  0  0  0  0  0  0  0  0  0  0
   -7.0467    0.9152    1.7193 H   0  0  0  0  0  0  0  0  0  0  0  0
   -6.8683    2.7212    1.4780 H   0  0  0  0  0  0  0  0  0  0  0  0
   -6.4499    0.8028   -1.9071 H   0  0  0  0  0  0  0  0  0  0  0  0
   -1.1340   -3.5237   -2.2367 H   0  0  0  0  0  0  0  0  0  0  0  0
    1.0537   -3.2643    0.9361 H   0  0  0  0  0  0  0  0  0  0  0  0
  1  2  1  0
  2  3  1  0
  3  4  2  0
  3  5  1  0
  5  6  1  0
  6  7  1  0
  7  8  2  0
  8  9  1  0
  9 10  2  0
 10 11  1  0
 11 12  2  0
  1 13  1  0
 13 14  2  0
 14 15  1  0
 15 16  2  0
 16 17  1  0
 17 18  2  0
 16 19  1  0
 19 20  1  0
 19 21  2  3
  1 22  1  0
 22 23  1  0
 22 24  1  0
 22 25  2  0
 12  7  1  0
 18 13  1  0
  1 26  1  1
  2 27  1  0
  6 28  1  0
  6 29  1  0
  8 30  1  0
  9 31  1  0
 10 32  1  0
 11 33  1  0
 12 34  1  0
 14 35  1  0
 15 36  1  0
 17 37  1  0
 18 38  1  0
 20 39  1  0
 20 40  1  0
 21 41  1  0
 23 42  1  0
 24 43  1  0
M  END
$$$$
