
     RDKit          3D

 74 79  0  0  0  0  0  0  0  0999 V2000
   -4.2077    6.1613   -3.4296 C   0  0  0  0  0  0  0  0  0  0  0  0
   -3.5936    5.0505   -2.7570 N   0  0  0  0  0  0  0  0  0  0  0  0
   -4.2359    4.6909   -1.5186 C   0  0  1  0  0  0  0  0  0  0  0  0
   -5.6479    4.2073   -1.7686 C   0  0  0  0  0  0  0  0  0  0  0  0
   -3.5203    3.5981   -0.8343 C   0  0  0  0  0  0  0  0  0  0  0  0
   -2.4444    3.1716   -1.3770 O   0  0  0  0  0  0  0  0  0  0  0  0
   -3.9402    2.9849    0.3758 N   0  0  0  0  0  0  0  0  0  0  0  0
   -3.1485    1.9057    0.9402 C   0  0  0  0  0  0  0  0  0  0  0  0
   -3.5908    1.1833    2.0068 C   0  0  0  0  0  0  0  0  0  0  0  0
   -2.7998    0.1499    2.4867 C   0  0  0  0  0  0  0  0  0  0  0  0
   -1.5874   -0.1560    1.9112 C   0  0  0  0  0  0  0  0  0  0  0  0
   -0.8344   -1.3064    2.3736 C   0  0  0  0  0  0  0  0  0  0  0  0
   -0.6259   -2.4428    1.5609 C   0  0  0  0  0  0  0  0  0  0  0  0
   -1.1200   -2.5465    0.1942 C   0  0  0  0  0  0  0  0  0  0  0  0
   -0.2978   -2.8641   -0.8548 C   0  0  0  0  0  0  0  0  0  0  0  0
   -0.8107   -2.9248   -2.1241 N   0  0  0  0  0  0  0  0  0  0  0  0
   -2.0905   -2.6885   -2.4067 C   0  0  0  0  0  0  0  0  0  0  0  0
   -2.6789   -2.7342   -3.7812 C   0  0  0  0  0  0  0  0  0  0  0  0
   -2.9217   -2.3722   -1.3787 N   0  0  0  0  0  0  0  0  0  0  0  0
   -2.4556   -2.3033   -0.1245 C   0  0  0  0  0  0  0  0  0  0  0  0
    0.0689   -3.2729    2.3346 N   0  0  0  0  0  0  0  0  0  0  0  0
    0.3073   -2.7582    3.5474 C   0  0  0  0  0  0  0  0  0  0  0  0
    0.9664   -3.2350    4.6835 C   0  0  0  0  0  0  0  0  0  0  0  0
    1.0736   -2.5088    5.8404 C   0  0  0  0  0  0  0  0  0  0  0  0
    1.7815   -3.0493    7.0535 C   0  0  0  0  0  0  0  0  0  0  0  0
    0.4926   -1.2630    5.8368 C   0  0  0  0  0  0  0  0  0  0  0  0
   -0.1536   -0.8186    4.6973 C   0  0  0  0  0  0  0  0  0  0  0  0
   -0.2575   -1.5317    3.5654 N   0  0  0  0  0  0  0  0  0  0  0  0
   -1.1697    0.5948    0.8442 C   0  0  0  0  0  0  0  0  0  0  0  0
    0.0633    0.3368    0.1970 C   0  0  0  0  0  0  0  0  0  0  0  0
    1.2306    0.0904   -0.3941 C   0  0  0  0  0  0  0  0  0  0  0  0
    2.4057   -0.1488   -0.9641 C   0  0  0  0  0  0  0  0  0  0  0  0
    2.5402   -0.5742   -2.2844 C   0  0  0  0  0  0  0  0  0  0  0  0
    3.7562   -0.8282   -2.8629 C   0  0  0  0  0  0  0  0  0  0  0  0
    4.9463   -0.6718   -2.1450 C   0  0  0  0  0  0  0  0  0  0  0  0
    4.8448   -0.2572   -0.8522 C   0  0  0  0  0  0  0  0  0  0  0  0
    5.9926   -0.0818   -0.0977 C   0  0  0  0  0  0  0  0  0  0  0  0
    7.2119   -0.3287   -0.6713 C   0  0  0  0  0  0  0  0  0  0  0  0
    7.2702   -0.7438   -1.9753 C   0  0  0  0  0  0  0  0  0  0  0  0
    8.4075   -0.9656   -2.4747 O   0  0  0  0  0  0  0  0  0  0  0  0
    6.1301   -0.9124   -2.7038 N   0  0  0  0  0  0  0  0  0  0  0  0
    6.2421   -1.3609   -4.0616 C   0  0  0  0  0  0  0  0  0  0  0  0
    3.6363   -0.0017   -0.2711 C   0  0  0  0  0  0  0  0  0  0  0  0
   -1.9605    1.6179    0.3696 N   0  0  0  0  0  0  0  0  0  0  0  0
   -3.9542    7.1002   -2.8517 H   0  0  0  0  0  0  0  0  0  0  0  0
   -3.6905    6.2714   -4.4286 H   0  0  0  0  0  0  0  0  0  0  0  0
   -5.2758    6.0817   -3.6198 H   0  0  0  0  0  0  0  0  0  0  0  0
   -3.6238    4.1986   -3.3948 H   0  0  0  0  0  0  0  0  0  0  0  0
   -4.3397    5.5943   -0.8661 H   0  0  0  0  0  0  0  0  0  0  0  0
   -6.2602    4.9426   -2.3163 H   0  0  0  0  0  0  0  0  0  0  0  0
   -6.1302    3.8735   -0.8243 H   0  0  0  0  0  0  0  0  0  0  0  0
   -5.5860    3.2930   -2.4251 H   0  0  0  0  0  0  0  0  0  0  0  0
   -4.8040    3.3246    0.8283 H   0  0  0  0  0  0  0  0  0  0  0  0
   -4.5275    1.4105    2.4671 H   0  0  0  0  0  0  0  0  0  0  0  0
   -3.1262   -0.4357    3.3297 H   0  0  0  0  0  0  0  0  0  0  0  0
    0.7524   -3.0645   -0.6763 H   0  0  0  0  0  0  0  0  0  0  0  0
   -3.1754   -3.7201   -3.9786 H   0  0  0  0  0  0  0  0  0  0  0  0
   -1.9230   -2.5771   -4.5395 H   0  0  0  0  0  0  0  0  0  0  0  0
   -3.4674   -1.9488   -3.8950 H   0  0  0  0  0  0  0  0  0  0  0  0
   -3.1310   -2.0561    0.6770 H   0  0  0  0  0  0  0  0  0  0  0  0
    1.4206   -4.2205    4.6743 H   0  0  0  0  0  0  0  0  0  0  0  0
    2.1732   -2.2194    7.6301 H   0  0  0  0  0  0  0  0  0  0  0  0
    2.5006   -3.8317    6.7588 H   0  0  0  0  0  0  0  0  0  0  0  0
    1.0423   -3.5965    7.7157 H   0  0  0  0  0  0  0  0  0  0  0  0
    0.5732   -0.6825    6.7519 H   0  0  0  0  0  0  0  0  0  0  0  0
   -0.6119    0.1629    4.6981 H   0  0  0  0  0  0  0  0  0  0  0  0
    1.6275   -0.7019   -2.8617 H   0  0  0  0  0  0  0  0  0  0  0  0
    3.8106   -1.1614   -3.9002 H   0  0  0  0  0  0  0  0  0  0  0  0
    5.9478    0.2424    0.9248 H   0  0  0  0  0  0  0  0  0  0  0  0
    8.1330   -0.1935   -0.0861 H   0  0  0  0  0  0  0  0  0  0  0  0
    5.7066   -2.3610   -4.1246 H   0  0  0  0  0  0  0  0  0  0  0  0
    7.2994   -1.4883   -4.3842 H   0  0  0  0  0  0  0  0  0  0  0  0
    5.7440   -0.6532   -4.7576 H   0  0  0  0  0  0  0  0  0  0  0  0
    3.6210    0.3245    0.7690 H   0  0  0  0  0  0  0  0  0  0  0  0
  1  2  1  0
  2  3  1  0
  3  4  1  0
  3  5  1  0
  5  6  2  0
  5  7  1  0
  7  8  1  0
  8  9  2  0
  9 10  1  0
 10 11  2  0
 11 12  1  0
 12 13  2  0
 13 14  1  0
 14 15  2  0
 15 16  1  0
 16 17  2  0
 17 18  1  0
 17 19  1  0
 19 20  2  0
 13 21  1  0
 21 22  2  0
 22 23  1  0
 23 24  2  0
 24 25  1  0
 24 26  1  0
 26 27  2  0
 27 28  1  0
 11 29  1  0
 29 30  1  0
 30 31  3  0
 31 32  1  0
 32 33  2  0
 33 34  1  0
 34 35  2  0
 35 36  1  0
 36 37  1  0
 37 38  2  0
 38 39  1  0
 39 40  2  0
 39 41  1  0
 41 42  1  0
 36 43  2  0
 29 44  2  0
 44  8  1  0
 28 12  1  0
 43 32  1  0
 20 14  1  0
 28 22  1  0
 41 35  1  0
  1 45  1  0
  1 46  1  0
  1 47  1  0
  2 48  1  0
  3 49  1  1
  4 50  1  0
  4 51  1  0
  4 52  1  0
  7 53  1  0
  9 54  1  0
 10 55  1  0
 15 56  1  0
 18 57  1  0
 18 58  1  0
 18 59  1  0
 20 60  1  0
 23 61  1  0
 25 62  1  0
 25 63  1  0
 25 64  1  0
 26 65  1  0
 27 66  1  0
 33 67  1  0
 34 68  1  0
 37 69  1  0
 38 70  1  0
 42 71  1  0
 42 72  1  0
 42 73  1  0
 43 74  1  0
M  END
$$$$
