
     RDKit          3D

 72 77  0  0  0  0  0  0  0  0999 V2000
    0.7202   -3.1249    0.1087 C   0  0  0  0  0  0  0  0  0  0  0  0
   -0.6637   -2.7058    0.1748 N   0  0  0  0  0  0  0  0  0  0  0  0
   -1.7549   -3.5300    0.1147 C   0  0  0  0  0  0  0  0  0  0  0  0
   -1.8007   -4.8689    0.0169 N   0  0  0  0  0  0  0  0  0  0  0  0
   -2.9937   -5.4491   -0.0263 C   0  0  0  0  0  0  0  0  0  0  0  0
   -4.1724   -4.7471    0.0238 C   0  0  0  0  0  0  0  0  0  0  0  0
   -4.1514   -3.3497    0.1259 C   0  0  0  0  0  0  0  0  0  0  0  0
   -5.3989   -2.6169    0.1802 C   0  0  0  0  0  0  0  0  0  0  0  0
   -6.6065   -3.3593    0.1315 N   0  0  0  0  0  0  0  0  0  0  0  0
   -5.4553   -1.3887    0.2664 O   0  0  0  0  0  0  0  0  0  0  0  0
   -2.8986   -2.7854    0.1681 C   0  0  0  0  0  0  0  0  0  0  0  0
   -2.4815   -1.4759    0.2633 C   0  0  0  0  0  0  0  0  0  0  0  0
   -3.1513   -0.3049    0.3330 N   0  0  0  0  0  0  0  0  0  0  0  0
   -2.5114    0.8720    0.4061 C   0  0  0  0  0  0  0  0  0  0  0  0
   -3.2904    2.1291    0.4836 C   0  0  0  0  0  0  0  0  0  0  0  0
   -3.5844    2.7154   -0.7878 N   0  0  0  0  0  0  0  0  0  0  0  0
   -4.3294    1.8881   -1.6837 C   0  0  0  0  0  0  0  0  0  0  0  0
   -5.8181    1.9424   -1.4940 C   0  0  0  0  0  0  0  0  0  0  0  0
   -6.1899    2.3481   -0.2296 O   0  0  0  0  0  0  0  0  0  0  0  0
   -5.7079    3.6153    0.0904 C   0  0  0  0  0  0  0  0  0  0  0  0
   -4.3752    3.9192   -0.5571 C   0  0  0  0  0  0  0  0  0  0  0  0
   -1.1763    0.9043    0.4120 N   0  0  0  0  0  0  0  0  0  0  0  0
   -0.4153   -0.2293    0.3457 C   0  0  0  0  0  0  0  0  0  0  0  0
    0.9940   -0.1138    0.4291 N   0  0  0  0  0  0  0  0  0  0  0  0
    1.5657   -0.1622    1.7484 C   0  0  0  0  0  0  0  0  0  0  0  0
    3.0326   -0.0992    1.8578 C   0  0  0  0  0  0  0  0  0  0  0  0
    3.7850    0.1850    0.6742 N   0  0  0  0  0  0  0  0  0  0  0  0
    3.9672    1.5785    0.4841 C   0  0  0  0  0  0  0  0  0  0  0  0
    4.8710    1.9648   -0.6355 C   0  0  0  0  0  0  0  0  0  0  0  0
    6.2664    1.4915   -0.4975 C   0  0  0  0  0  0  0  0  0  0  0  0
    7.1750    2.2874    0.2073 C   0  0  0  0  0  0  0  0  0  0  0  0
    8.4934    1.9425    0.3874 C   0  0  0  0  0  0  0  0  0  0  0  0
    8.9808    0.7683   -0.1339 C   0  0  0  0  0  0  0  0  0  0  0  0
   10.2801    0.3995    0.0271 F   0  0  0  0  0  0  0  0  0  0  0  0
    8.1123   -0.0371   -0.8327 C   0  0  0  0  0  0  0  0  0  0  0  0
    8.5993   -1.1913   -1.3420 F   0  0  0  0  0  0  0  0  0  0  0  0
    6.7759    0.3272   -1.0072 C   0  0  0  0  0  0  0  0  0  0  0  0
    3.1858   -0.4867   -0.4617 C   0  0  0  0  0  0  0  0  0  0  0  0
    1.8303    0.0634   -0.7145 C   0  0  0  0  0  0  0  0  0  0  0  0
   -1.0733   -1.4276    0.2690 C   0  0  0  0  0  0  0  0  0  0  0  0
    1.2109   -2.7361   -0.8229 H   0  0  0  0  0  0  0  0  0  0  0  0
    0.7128   -4.2479   -0.0949 H   0  0  0  0  0  0  0  0  0  0  0  0
    1.2915   -3.0273    1.0191 H   0  0  0  0  0  0  0  0  0  0  0  0
   -3.0180   -6.5287   -0.1057 H   0  0  0  0  0  0  0  0  0  0  0  0
   -5.1338   -5.2513   -0.0135 H   0  0  0  0  0  0  0  0  0  0  0  0
   -6.9188   -3.8660    0.9722 H   0  0  0  0  0  0  0  0  0  0  0  0
   -7.1649   -3.3926   -0.7319 H   0  0  0  0  0  0  0  0  0  0  0  0
   -2.7442    2.9048    1.0771 H   0  0  0  0  0  0  0  0  0  0  0  0
   -4.2527    1.9902    1.0274 H   0  0  0  0  0  0  0  0  0  0  0  0
   -3.9247    0.8502   -1.6901 H   0  0  0  0  0  0  0  0  0  0  0  0
   -4.1220    2.2780   -2.7241 H   0  0  0  0  0  0  0  0  0  0  0  0
   -6.2037    0.9049   -1.6281 H   0  0  0  0  0  0  0  0  0  0  0  0
   -6.3159    2.6167   -2.2462 H   0  0  0  0  0  0  0  0  0  0  0  0
   -5.5688    3.6712    1.1989 H   0  0  0  0  0  0  0  0  0  0  0  0
   -6.4651    4.3881   -0.1964 H   0  0  0  0  0  0  0  0  0  0  0  0
   -3.7637    4.5335    0.1618 H   0  0  0  0  0  0  0  0  0  0  0  0
   -4.5553    4.5069   -1.4554 H   0  0  0  0  0  0  0  0  0  0  0  0
    1.0561    0.6520    2.3593 H   0  0  0  0  0  0  0  0  0  0  0  0
    1.2111   -1.0953    2.2510 H   0  0  0  0  0  0  0  0  0  0  0  0
    3.4633   -1.0101    2.3677 H   0  0  0  0  0  0  0  0  0  0  0  0
    3.2885    0.7316    2.5826 H   0  0  0  0  0  0  0  0  0  0  0  0
    3.0397    2.1832    0.4119 H   0  0  0  0  0  0  0  0  0  0  0  0
    4.4611    1.9652    1.4274 H   0  0  0  0  0  0  0  0  0  0  0  0
    4.9154    3.0944   -0.6376 H   0  0  0  0  0  0  0  0  0  0  0  0
    4.4514    1.7192   -1.6399 H   0  0  0  0  0  0  0  0  0  0  0  0
    6.8208    3.2234    0.6322 H   0  0  0  0  0  0  0  0  0  0  0  0
    9.1868    2.5781    0.9408 H   0  0  0  0  0  0  0  0  0  0  0  0
    6.1470   -0.3268   -1.5589 H   0  0  0  0  0  0  0  0  0  0  0  0
    3.1111   -1.5503   -0.1646 H   0  0  0  0  0  0  0  0  0  0  0  0
    3.8438   -0.4768   -1.3498 H   0  0  0  0  0  0  0  0  0  0  0  0
    1.3749   -0.3404   -1.6514 H   0  0  0  0  0  0  0  0  0  0  0  0
    1.9311    1.1696   -0.9515 H   0  0  0  0  0  0  0  0  0  0  0  0
  1  2  1  0
  2  3  1  0
  3  4  2  0
  4  5  1  0
  5  6  2  0
  6  7  1  0
  7  8  1  0
  8  9  1  0
  8 10  2  0
  7 11  2  0
 11 12  1  0
 12 13  2  0
 13 14  1  0
 14 15  1  0
 15 16  1  0
 16 17  1  0
 17 18  1  0
 18 19  1  0
 19 20  1  0
 20 21  1  0
 14 22  2  0
 22 23  1  0
 23 24  1  0
 24 25  1  0
 25 26  1  0
 26 27  1  0
 27 28  1  0
 28 29  1  0
 29 30  1  0
 30 31  2  0
 31 32  1  0
 32 33  2  0
 33 34  1  0
 33 35  1  0
 35 36  1  0
 35 37  2  0
 27 38  1  0
 38 39  1  0
 23 40  2  0
 40  2  1  0
 11  3  1  0
 40 12  1  0
 21 16  1  0
 39 24  1  0
 37 30  1  0
  1 41  1  0
  1 42  1  0
  1 43  1  0
  5 44  1  0
  6 45  1  0
  9 46  1  0
  9 47  1  0
 15 48  1  0
 15 49  1  0
 17 50  1  0
 17 51  1  0
 18 52  1  0
 18 53  1  0
 20 54  1  0
 20 55  1  0
 21 56  1  0
 21 57  1  0
 25 58  1  0
 25 59  1  0
 26 60  1  0
 26 61  1  0
 28 62  1  0
 28 63  1  0
 29 64  1  0
 29 65  1  0
 31 66  1  0
 32 67  1  0
 37 68  1  0
 38 69  1  0
 38 70  1  0
 39 71  1  0
 39 72  1  0
M  END
$$$$
