
     RDKit          3D

 31 32  0  0  0  0  0  0  0  0999 V2000
    5.2969    0.6595   -0.6363 C   0  0  0  0  0  0  0  0  0  0  0  0
    4.0019    1.1408   -0.9294 O   0  0  0  0  0  0  0  0  0  0  0  0
    2.8447    0.4864   -0.5022 C   0  0  0  0  0  0  0  0  0  0  0  0
    2.2263   -0.4787   -1.2575 C   0  0  0  0  0  0  0  0  0  0  0  0
    3.0577   -0.9853   -3.1262 I   0  0  0  0  0  0  0  0  0  0  0  0
    1.0699   -1.1406   -0.8439 C   0  0  0  0  0  0  0  0  0  0  0  0
    0.5489   -0.7937    0.3726 C   0  0  0  0  0  0  0  0  0  0  0  0
   -0.6826   -1.4507    0.8579 C   0  0  0  0  0  0  0  0  0  0  0  0
   -1.8729   -0.6127    0.6950 C   0  0  0  0  0  0  0  0  0  0  0  0
   -2.3885    0.0466    1.8059 C   0  0  0  0  0  0  0  0  0  0  0  0
   -3.4752    0.8179    1.6477 N   0  0  0  0  0  0  0  0  0  0  0  0
   -4.0801    0.9759    0.4632 C   0  0  0  0  0  0  0  0  0  0  0  0
   -5.2419    1.8027    0.3030 N   0  0  0  0  0  0  0  0  0  0  0  0
   -3.5821    0.3395   -0.6074 N   0  0  0  0  0  0  0  0  0  0  0  0
   -2.4770   -0.4639   -0.5232 C   0  0  0  0  0  0  0  0  0  0  0  0
   -2.0005   -1.1171   -1.6920 N   0  0  0  0  0  0  0  0  0  0  0  0
    1.1430    0.1775    1.1693 C   0  0  0  0  0  0  0  0  0  0  0  0
    2.2839    0.8033    0.7181 C   0  0  0  0  0  0  0  0  0  0  0  0
    3.2514    2.2958    1.8705 I   0  0  0  0  0  0  0  0  0  0  0  0
    5.9413    1.5616   -0.4514 H   0  0  0  0  0  0  0  0  0  0  0  0
    5.2939    0.0415    0.3043 H   0  0  0  0  0  0  0  0  0  0  0  0
    5.7689    0.1265   -1.4821 H   0  0  0  0  0  0  0  0  0  0  0  0
    0.6147   -1.9071   -1.4700 H   0  0  0  0  0  0  0  0  0  0  0  0
   -0.8709   -2.3795    0.2403 H   0  0  0  0  0  0  0  0  0  0  0  0
   -0.5148   -1.7646    1.9137 H   0  0  0  0  0  0  0  0  0  0  0  0
   -1.8845   -0.0953    2.7531 H   0  0  0  0  0  0  0  0  0  0  0  0
   -5.9920    1.7318    1.0270 H   0  0  0  0  0  0  0  0  0  0  0  0
   -5.3699    2.4598   -0.4890 H   0  0  0  0  0  0  0  0  0  0  0  0
   -1.9771   -2.1570   -1.7564 H   0  0  0  0  0  0  0  0  0  0  0  0
   -1.6638   -0.5757   -2.5115 H   0  0  0  0  0  0  0  0  0  0  0  0
    0.7304    0.4546    2.1371 H   0  0  0  0  0  0  0  0  0  0  0  0
  1  2  1  0
  2  3  1  0
  3  4  2  0
  4  5  1  0
  4  6  1  0
  6  7  2  0
  7  8  1  0
  8  9  1  0
  9 10  2  0
 10 11  1  0
 11 12  2  0
 12 13  1  0
 12 14  1  0
 14 15  2  0
 15 16  1  0
  7 17  1  0
 17 18  2  0
 18 19  1  0
 18  3  1  0
 15  9  1  0
  1 20  1  0
  1 21  1  0
  1 22  1  0
  6 23  1  0
  8 24  1  0
  8 25  1  0
 10 26  1  0
 13 27  1  0
 13 28  1  0
 16 29  1  0
 16 30  1  0
 17 31  1  0
M  END
$$$$
