
     RDKit          3D

 49 54  0  0  0  0  0  0  0  0999 V2000
   -7.1286   -1.5982    1.6435 C   0  0  0  0  0  0  0  0  0  0  0  0
   -6.1735   -1.5875    0.5785 N   0  0  0  0  0  0  0  0  0  0  0  0
   -6.3090   -2.4536   -0.5410 C   0  0  0  0  0  0  0  0  0  0  0  0
   -7.3623   -3.1107   -0.6712 O   0  0  0  0  0  0  0  0  0  0  0  0
   -5.2465   -2.6066   -1.5609 C   0  0  0  0  0  0  0  0  0  0  0  0
   -4.2927   -1.5567   -1.5052 O   0  0  0  0  0  0  0  0  0  0  0  0
   -4.1413   -0.7103   -0.4325 C   0  0  0  0  0  0  0  0  0  0  0  0
   -5.0499   -0.6974    0.6150 C   0  0  0  0  0  0  0  0  0  0  0  0
   -4.8927    0.1550    1.6899 C   0  0  0  0  0  0  0  0  0  0  0  0
   -3.8198    0.9924    1.7063 N   0  0  0  0  0  0  0  0  0  0  0  0
   -2.9301    0.9908    0.6969 C   0  0  0  0  0  0  0  0  0  0  0  0
   -1.8535    1.8659    0.7637 C   0  0  0  0  0  0  0  0  0  0  0  0
   -0.9124    1.9057   -0.2436 C   0  0  0  0  0  0  0  0  0  0  0  0
   -1.0365    1.0657   -1.3377 C   0  0  0  0  0  0  0  0  0  0  0  0
    0.1968    1.1277   -2.6441 S   0  0  0  0  0  0  0  0  0  0  0  0
    1.4273    2.3550   -2.2389 C   0  0  0  0  0  0  0  0  0  0  0  0
    1.4423    3.6655   -2.5396 N   0  0  0  0  0  0  0  0  0  0  0  0
    2.5447    4.2254   -2.0486 N   0  0  0  0  0  0  0  0  0  0  0  0
    3.2601    3.2583   -1.4161 C   0  0  0  0  0  0  0  0  0  0  0  0
    4.4657    3.3157   -0.7482 C   0  0  0  0  0  0  0  0  0  0  0  0
    5.1369    4.4782   -0.6431 F   0  0  0  0  0  0  0  0  0  0  0  0
    4.9504    2.1486   -0.1989 C   0  0  0  0  0  0  0  0  0  0  0  0
    4.2056    0.9800   -0.3443 C   0  0  0  0  0  0  0  0  0  0  0  0
    4.7587   -0.2432    0.2567 C   0  0  0  0  0  0  0  0  0  0  0  0
    4.0922   -1.3274    0.7847 C   0  0  0  0  0  0  0  0  0  0  0  0
    5.0224   -2.2081    1.2196 N   0  0  0  0  0  0  0  0  0  0  0  0
    6.2405   -1.7500    1.0002 N   0  0  0  0  0  0  0  0  0  0  0  0
    7.4810   -2.4419    1.3440 C   0  0  0  0  0  0  0  0  0  0  0  0
    6.1051   -0.5363    0.4055 C   0  0  0  0  0  0  0  0  0  0  0  0
    3.0113    0.9771   -1.0186 C   0  0  0  0  0  0  0  0  0  0  0  0
    2.5395    2.1174   -1.5542 N   0  0  0  0  0  0  0  0  0  0  0  0
   -2.1023    0.2176   -1.3771 C   0  0  0  0  0  0  0  0  0  0  0  0
   -3.0593    0.1502   -0.3922 C   0  0  0  0  0  0  0  0  0  0  0  0
   -6.7178   -2.1577    2.5160 H   0  0  0  0  0  0  0  0  0  0  0  0
   -8.0480   -2.1488    1.3205 H   0  0  0  0  0  0  0  0  0  0  0  0
   -7.4534   -0.5916    1.9747 H   0  0  0  0  0  0  0  0  0  0  0  0
   -5.7013   -2.5438   -2.5832 H   0  0  0  0  0  0  0  0  0  0  0  0
   -4.7859   -3.6052   -1.4187 H   0  0  0  0  0  0  0  0  0  0  0  0
   -5.6187    0.1383    2.4872 H   0  0  0  0  0  0  0  0  0  0  0  0
   -1.7012    2.5474    1.5931 H   0  0  0  0  0  0  0  0  0  0  0  0
   -0.0712    2.6019   -0.1729 H   0  0  0  0  0  0  0  0  0  0  0  0
    5.9060    2.1227    0.3475 H   0  0  0  0  0  0  0  0  0  0  0  0
    3.0208   -1.4458    0.8388 H   0  0  0  0  0  0  0  0  0  0  0  0
    7.7335   -2.2037    2.4159 H   0  0  0  0  0  0  0  0  0  0  0  0
    8.3070   -1.9997    0.7507 H   0  0  0  0  0  0  0  0  0  0  0  0
    7.3932   -3.5394    1.1794 H   0  0  0  0  0  0  0  0  0  0  0  0
    6.9297    0.0673    0.1136 H   0  0  0  0  0  0  0  0  0  0  0  0
    2.4573    0.0470   -1.1127 H   0  0  0  0  0  0  0  0  0  0  0  0
   -2.2201   -0.4532   -2.2294 H   0  0  0  0  0  0  0  0  0  0  0  0
  1  2  1  0
  2  3  1  0
  3  4  2  0
  3  5  1  0
  5  6  1  0
  6  7  1  0
  7  8  2  0
  8  9  1  0
  9 10  2  0
 10 11  1  0
 11 12  2  0
 12 13  1  0
 13 14  2  0
 14 15  1  0
 15 16  1  0
 16 17  2  0
 17 18  1  0
 18 19  2  0
 19 20  1  0
 20 21  1  0
 20 22  2  0
 22 23  1  0
 23 24  1  0
 24 25  1  0
 25 26  2  0
 26 27  1  0
 27 28  1  0
 27 29  1  0
 23 30  2  0
 30 31  1  0
 14 32  1  0
 32 33  2  0
  8  2  1  0
 33 11  1  0
 33  7  1  0
 31 16  1  0
 31 19  1  0
 29 24  2  0
  1 34  1  0
  1 35  1  0
  1 36  1  0
  5 37  1  0
  5 38  1  0
  9 39  1  0
 12 40  1  0
 13 41  1  0
 22 42  1  0
 25 43  1  0
 28 44  1  0
 28 45  1  0
 28 46  1  0
 29 47  1  0
 30 48  1  0
 32 49  1  0
M  END
$$$$
