
     RDKit          3D

 60 63  0  0  0  0  0  0  0  0999 V2000
    1.7501    3.1937    1.0180 O   0  0  0  0  0  0  0  0  0  0  0  0
    2.3005    3.0603   -0.2431 C   0  0  1  0  0  0  0  0  0  0  0  0
    1.2209    2.7676   -1.2541 C   0  0  0  0  0  0  0  0  0  0  0  0
    0.5081    1.5440   -0.9608 N   0  0  0  0  0  0  0  0  0  0  0  0
   -0.8542    1.5701   -0.5577 C   0  0  0  0  0  0  0  0  0  0  0  0
   -1.3877    2.7263   -0.0382 C   0  0  0  0  0  0  0  0  0  0  0  0
   -2.7167    2.6971    0.3372 C   0  0  0  0  0  0  0  0  0  0  0  0
   -3.4914    1.5395    0.1959 C   0  0  0  0  0  0  0  0  0  0  0  0
   -2.9494    0.3864   -0.3251 C   0  0  0  0  0  0  0  0  0  0  0  0
   -3.7774   -0.8052   -0.4600 C   0  0  0  0  0  0  0  0  0  0  0  0
   -3.6995   -1.5297   -1.6329 C   0  0  0  0  0  0  0  0  0  0  0  0
   -4.4761   -2.6606   -1.7783 C   0  0  0  0  0  0  0  0  0  0  0  0
   -5.3186   -3.0560   -0.7569 C   0  0  0  0  0  0  0  0  0  0  0  0
   -5.4209   -2.3583    0.4241 C   0  0  0  0  0  0  0  0  0  0  0  0
   -6.2790   -2.7887    1.4249 O   0  0  0  0  0  0  0  0  0  0  0  0
   -7.6152   -2.4169    1.5744 C   0  0  0  0  0  0  0  0  0  0  0  0
   -8.4080   -2.7512    0.4894 F   0  0  0  0  0  0  0  0  0  0  0  0
   -7.7669   -1.0841    1.9058 F   0  0  0  0  0  0  0  0  0  0  0  0
   -8.1237   -3.1423    2.6595 F   0  0  0  0  0  0  0  0  0  0  0  0
   -4.6398   -1.2297    0.5572 C   0  0  0  0  0  0  0  0  0  0  0  0
   -1.6230    0.4238   -0.6972 C   0  0  0  0  0  0  0  0  0  0  0  0
   -1.0481   -0.7164   -1.2240 O   0  0  0  0  0  0  0  0  0  0  0  0
    0.2922   -0.8128   -1.6215 C   0  0  0  0  0  0  0  0  0  0  0  0
    1.1792    0.2649   -1.0793 C   0  0  2  0  0  0  0  0  0  0  0  0
    1.8705   -0.1453    0.1683 C   0  0  0  0  0  0  0  0  0  0  0  0
    1.3013    0.0047    1.4145 C   0  0  0  0  0  0  0  0  0  0  0  0
    1.9502   -0.3879    2.5761 C   0  0  0  0  0  0  0  0  0  0  0  0
    3.2044   -0.9501    2.5289 C   0  0  0  0  0  0  0  0  0  0  0  0
    3.8015   -1.1125    1.2819 C   0  0  0  0  0  0  0  0  0  0  0  0
    5.0653   -1.6828    1.2739 O   0  0  0  0  0  0  0  0  0  0  0  0
    5.7203   -1.8772    0.0364 C   0  0  0  0  0  0  0  0  0  0  0  0
    5.9105   -0.6988   -0.6281 F   0  0  0  0  0  0  0  0  0  0  0  0
    4.9981   -2.7196   -0.7953 F   0  0  0  0  0  0  0  0  0  0  0  0
    7.0641   -2.5673    0.2442 C   0  0  0  0  0  0  0  0  0  0  0  0
    6.8647   -3.8023    0.8468 F   0  0  0  0  0  0  0  0  0  0  0  0
    7.6764   -2.7987   -0.9664 F   0  0  0  0  0  0  0  0  0  0  0  0
    3.1458   -0.7179    0.1352 C   0  0  0  0  0  0  0  0  0  0  0  0
    3.1087    4.2817   -0.6230 C   0  0  0  0  0  0  0  0  0  0  0  0
    2.3816    5.4309   -0.6414 F   0  0  0  0  0  0  0  0  0  0  0  0
    3.6471    4.1326   -1.9058 F   0  0  0  0  0  0  0  0  0  0  0  0
    4.1925    4.3547    0.2233 F   0  0  0  0  0  0  0  0  0  0  0  0
    1.8012    4.1433    1.2906 H   0  0  0  0  0  0  0  0  0  0  0  0
    3.0277    2.2173   -0.1844 H   0  0  0  0  0  0  0  0  0  0  0  0
    0.5683    3.6375   -1.4192 H   0  0  0  0  0  0  0  0  0  0  0  0
    1.7701    2.6440   -2.2375 H   0  0  0  0  0  0  0  0  0  0  0  0
   -0.7929    3.6354    0.0774 H   0  0  0  0  0  0  0  0  0  0  0  0
   -3.1270    3.6138    0.7455 H   0  0  0  0  0  0  0  0  0  0  0  0
   -4.5305    1.5615    0.5029 H   0  0  0  0  0  0  0  0  0  0  0  0
   -3.0283   -1.1804   -2.3983 H   0  0  0  0  0  0  0  0  0  0  0  0
   -4.4123   -3.2341   -2.7108 H   0  0  0  0  0  0  0  0  0  0  0  0
   -5.9396   -3.9431   -0.8489 H   0  0  0  0  0  0  0  0  0  0  0  0
   -4.6798   -0.6501    1.4535 H   0  0  0  0  0  0  0  0  0  0  0  0
    0.2879   -0.7779   -2.7468 H   0  0  0  0  0  0  0  0  0  0  0  0
    0.7020   -1.7903   -1.3063 H   0  0  0  0  0  0  0  0  0  0  0  0
    1.9935    0.4161   -1.8424 H   0  0  0  0  0  0  0  0  0  0  0  0
    0.3000    0.4527    1.4705 H   0  0  0  0  0  0  0  0  0  0  0  0
    1.4800   -0.2579    3.5393 H   0  0  0  0  0  0  0  0  0  0  0  0
    3.7202   -1.2585    3.4166 H   0  0  0  0  0  0  0  0  0  0  0  0
    7.6902   -1.9513    0.9014 H   0  0  0  0  0  0  0  0  0  0  0  0
    3.6109   -0.8442   -0.8297 H   0  0  0  0  0  0  0  0  0  0  0  0
  1  2  1  0
  2  3  1  0
  3  4  1  0
  4  5  1  0
  5  6  2  0
  6  7  1  0
  7  8  2  0
  8  9  1  0
  9 10  1  0
 10 11  2  0
 11 12  1  0
 12 13  2  0
 13 14  1  0
 14 15  1  0
 15 16  1  0
 16 17  1  0
 16 18  1  0
 16 19  1  0
 14 20  2  0
  9 21  2  0
 21 22  1  0
 22 23  1  0
 23 24  1  0
 24 25  1  0
 25 26  2  0
 26 27  1  0
 27 28  2  0
 28 29  1  0
 29 30  1  0
 30 31  1  0
 31 32  1  0
 31 33  1  0
 31 34  1  0
 34 35  1  0
 34 36  1  0
 29 37  2  0
  2 38  1  0
 38 39  1  0
 38 40  1  0
 38 41  1  0
 24  4  1  0
 37 25  1  0
 21  5  1  0
 20 10  1  0
  1 42  1  0
  2 43  1  1
  3 44  1  0
  3 45  1  0
  6 46  1  0
  7 47  1  0
  8 48  1  0
 11 49  1  0
 12 50  1  0
 13 51  1  0
 20 52  1  0
 23 53  1  0
 23 54  1  0
 24 55  1  6
 26 56  1  0
 27 57  1  0
 28 58  1  0
 34 59  1  0
 37 60  1  0
M  END
$$$$
