
     RDKit          3D

 61 68  0  0  0  0  0  0  0  0999 V2000
    3.3487   -2.2781   -0.6451 C   0  0  0  0  0  0  0  0  0  0  0  0
    3.8611   -1.5794    0.4886 N   0  0  0  0  0  0  0  0  0  0  0  0
    2.9264   -0.8150    1.2391 C   0  0  2  0  0  0  0  0  0  0  0  0
    1.7684   -1.6283    1.7035 C   0  0  0  0  0  0  0  0  0  0  0  0
    0.6294   -0.8093    2.2170 C   0  0  1  0  0  0  0  0  0  0  0  0
    0.8136    0.5265    2.2412 O   0  0  0  0  0  0  0  0  0  0  0  0
    1.3860    1.1666    1.1625 C   0  0  1  0  0  0  0  0  0  0  0  0
    1.8904    2.4874    1.7926 C   0  0  0  0  0  0  0  0  0  0  0  0
    2.5170    0.4547    0.5178 C   0  0  2  0  0  0  0  0  0  0  0  0
    2.3783    0.2355   -0.8494 O   0  0  0  0  0  0  0  0  0  0  0  0
    3.4030    0.7912   -1.6093 C   0  0  0  0  0  0  0  0  0  0  0  0
    0.3576    1.4319    0.1647 N   0  0  0  0  0  0  0  0  0  0  0  0
    0.3129    2.4531   -0.7202 C   0  0  0  0  0  0  0  0  0  0  0  0
    1.1939    3.4859   -0.9552 C   0  0  0  0  0  0  0  0  0  0  0  0
    0.8894    4.4015   -1.9471 C   0  0  0  0  0  0  0  0  0  0  0  0
   -0.2620    4.3045   -2.6984 C   0  0  0  0  0  0  0  0  0  0  0  0
   -1.1508    3.2760   -2.4749 C   0  0  0  0  0  0  0  0  0  0  0  0
   -0.8315    2.3689   -1.4788 C   0  0  0  0  0  0  0  0  0  0  0  0
   -1.5198    1.2737   -1.0688 C   0  0  0  0  0  0  0  0  0  0  0  0
   -2.7226    0.6961   -1.4797 C   0  0  0  0  0  0  0  0  0  0  0  0
   -3.1672   -0.4556   -0.8648 C   0  0  0  0  0  0  0  0  0  0  0  0
   -2.3926   -1.0211    0.1658 C   0  0  0  0  0  0  0  0  0  0  0  0
   -2.5610   -2.1259    0.9342 C   0  0  0  0  0  0  0  0  0  0  0  0
   -3.5087   -3.1115    1.0373 C   0  0  0  0  0  0  0  0  0  0  0  0
   -3.3455   -4.1194    1.9690 C   0  0  0  0  0  0  0  0  0  0  0  0
   -2.2458   -4.1703    2.8125 C   0  0  0  0  0  0  0  0  0  0  0  0
   -1.2919   -3.1850    2.7142 C   0  0  0  0  0  0  0  0  0  0  0  0
   -1.4465   -2.1714    1.7842 C   0  0  0  0  0  0  0  0  0  0  0  0
   -0.6459   -1.1433    1.5397 N   0  0  0  0  0  0  0  0  0  0  0  0
   -1.2189   -0.4434    0.5565 C   0  0  0  0  0  0  0  0  0  0  0  0
   -0.7876    0.7073   -0.0663 C   0  0  0  0  0  0  0  0  0  0  0  0
   -4.4255   -0.8066   -1.4986 C   0  0  0  0  0  0  0  0  0  0  0  0
   -5.1609   -1.7818   -1.2404 O   0  0  0  0  0  0  0  0  0  0  0  0
   -4.7021    0.1816   -2.5074 N   0  0  0  0  0  0  0  0  0  0  0  0
   -3.6496    1.1519   -2.5353 C   0  0  0  0  0  0  0  0  0  0  0  0
    3.9889   -2.0320   -1.5287 H   0  0  0  0  0  0  0  0  0  0  0  0
    2.3044   -2.0778   -0.9106 H   0  0  0  0  0  0  0  0  0  0  0  0
    3.4935   -3.3978   -0.5341 H   0  0  0  0  0  0  0  0  0  0  0  0
    4.3207   -2.2685    1.1249 H   0  0  0  0  0  0  0  0  0  0  0  0
    3.4568   -0.4589    2.1775 H   0  0  0  0  0  0  0  0  0  0  0  0
    1.3520   -2.2921    0.8935 H   0  0  0  0  0  0  0  0  0  0  0  0
    2.1649   -2.3584    2.4663 H   0  0  0  0  0  0  0  0  0  0  0  0
    0.4541   -1.1370    3.2800 H   0  0  0  0  0  0  0  0  0  0  0  0
    2.9416    2.6915    1.5245 H   0  0  0  0  0  0  0  0  0  0  0  0
    1.1811    3.3046    1.6809 H   0  0  0  0  0  0  0  0  0  0  0  0
    1.9644    2.3562    2.9313 H   0  0  0  0  0  0  0  0  0  0  0  0
    3.4502    1.1018    0.5911 H   0  0  0  0  0  0  0  0  0  0  0  0
    3.4543    1.8636   -1.4625 H   0  0  0  0  0  0  0  0  0  0  0  0
    3.2228    0.5046   -2.6822 H   0  0  0  0  0  0  0  0  0  0  0  0
    4.3968    0.3232   -1.3409 H   0  0  0  0  0  0  0  0  0  0  0  0
    2.0988    3.5500   -0.3907 H   0  0  0  0  0  0  0  0  0  0  0  0
    1.5908    5.2127   -2.1234 H   0  0  0  0  0  0  0  0  0  0  0  0
   -0.4763    5.0289   -3.4638 H   0  0  0  0  0  0  0  0  0  0  0  0
   -2.0755    3.1792   -3.0627 H   0  0  0  0  0  0  0  0  0  0  0  0
   -4.3899   -3.1755    0.4456 H   0  0  0  0  0  0  0  0  0  0  0  0
   -4.1090   -4.8967    2.0385 H   0  0  0  0  0  0  0  0  0  0  0  0
   -2.1473   -4.9714    3.5303 H   0  0  0  0  0  0  0  0  0  0  0  0
   -0.4175   -3.2047    3.3683 H   0  0  0  0  0  0  0  0  0  0  0  0
   -5.5616    0.1467   -3.1037 H   0  0  0  0  0  0  0  0  0  0  0  0
   -4.1042    2.1432   -2.3034 H   0  0  0  0  0  0  0  0  0  0  0  0
   -3.1943    1.1156   -3.5467 H   0  0  0  0  0  0  0  0  0  0  0  0
  1  2  1  0
  2  3  1  0
  3  4  1  0
  4  5  1  0
  5  6  1  0
  6  7  1  0
  7  8  1  1
  7  9  1  0
  9 10  1  0
 10 11  1  0
  7 12  1  0
 12 13  1  0
 13 14  2  0
 14 15  1  0
 15 16  2  0
 16 17  1  0
 17 18  2  0
 18 19  1  0
 19 20  2  0
 20 21  1  0
 21 22  2  0
 22 23  1  0
 23 24  2  0
 24 25  1  0
 25 26  2  0
 26 27  1  0
 27 28  2  0
 28 29  1  0
 29 30  1  0
 30 31  2  0
 21 32  1  0
 32 33  2  0
 32 34  1  0
 34 35  1  0
  9  3  1  0
 31 12  1  0
 29  5  1  0
 18 13  1  0
 31 19  1  0
 35 20  1  0
 30 22  1  0
 28 23  1  0
  1 36  1  0
  1 37  1  0
  1 38  1  0
  2 39  1  0
  3 40  1  1
  4 41  1  0
  4 42  1  0
  5 43  1  1
  8 44  1  0
  8 45  1  0
  8 46  1  0
  9 47  1  6
 11 48  1  0
 11 49  1  0
 11 50  1  0
 14 51  1  0
 15 52  1  0
 16 53  1  0
 17 54  1  0
 24 55  1  0
 25 56  1  0
 26 57  1  0
 27 58  1  0
 34 59  1  0
 35 60  1  0
 35 61  1  0
M  END
$$$$
