
     RDKit          3D

 53 56  0  0  0  0  0  0  0  0999 V2000
    5.1079    0.1510   -1.3339 C   0  0  0  0  0  0  0  0  0  0  0  0
    4.1596   -0.9725   -1.2817 C   0  0  0  0  0  0  0  0  0  0  0  0
    4.3333   -1.8807   -2.1218 O   0  0  0  0  0  0  0  0  0  0  0  0
    3.0504   -1.1447   -0.3677 C   0  0  1  0  0  0  0  0  0  0  0  0
    3.3765   -1.1462    1.1040 C   0  0  0  0  0  0  0  0  0  0  0  0
    2.1056   -0.6651    1.8207 C   0  0  0  0  0  0  0  0  0  0  0  0
    1.1248   -0.6958    0.7238 C   0  0  1  0  0  0  0  0  0  0  0  0
   -0.1082    0.0829    0.8435 C   0  0  2  0  0  0  0  0  0  0  0  0
   -0.8457   -0.1208    2.1504 C   0  0  0  0  0  0  0  0  0  0  0  0
   -1.9270    0.9683    2.1475 C   0  0  0  0  0  0  0  0  0  0  0  0
   -2.8323    0.5854    1.0326 C   0  0  0  0  0  0  0  0  0  0  0  0
   -4.1341    0.6178    1.2798 C   0  0  0  0  0  0  0  0  0  0  0  0
   -5.1314    0.2675    0.2800 C   0  0  0  0  0  0  0  0  0  0  0  0
   -6.3094    0.6686    0.3520 O   0  0  0  0  0  0  0  0  0  0  0  0
   -4.7064   -0.5838   -0.8324 C   0  0  0  0  0  0  0  0  0  0  0  0
   -3.2501   -0.9504   -0.7774 C   0  0  0  0  0  0  0  0  0  0  0  0
   -2.3736    0.1856   -0.2947 C   0  0  1  0  0  0  0  0  0  0  0  0
   -2.6375    1.3819   -1.2199 C   0  0  0  0  0  0  0  0  0  0  0  0
   -0.9572   -0.2684   -0.3703 C   0  0  1  0  0  0  0  0  0  0  0  0
   -0.2293    0.3434   -1.5760 C   0  0  0  0  0  0  0  0  0  0  0  0
    1.1809   -0.0961   -1.6771 C   0  0  0  0  0  0  0  0  0  0  0  0
    1.9653   -0.0897   -0.4190 C   0  0  2  0  0  0  0  0  0  0  0  0
    2.5571    1.2151   -0.0315 C   0  0  0  0  0  0  0  0  0  0  0  0
    5.6702    0.3115   -0.3892 H   0  0  0  0  0  0  0  0  0  0  0  0
    5.9230   -0.1147   -2.0717 H   0  0  0  0  0  0  0  0  0  0  0  0
    4.6889    1.0916   -1.7469 H   0  0  0  0  0  0  0  0  0  0  0  0
    2.5099   -2.1157   -0.6120 H   0  0  0  0  0  0  0  0  0  0  0  0
    4.1905   -0.4978    1.4035 H   0  0  0  0  0  0  0  0  0  0  0  0
    3.5415   -2.2156    1.3909 H   0  0  0  0  0  0  0  0  0  0  0  0
    1.8853   -1.3609    2.6599 H   0  0  0  0  0  0  0  0  0  0  0  0
    2.2594    0.3571    2.1978 H   0  0  0  0  0  0  0  0  0  0  0  0
    0.8882   -1.7308    0.4055 H   0  0  0  0  0  0  0  0  0  0  0  0
    0.0388    1.2002    0.7626 H   0  0  0  0  0  0  0  0  0  0  0  0
   -1.3393   -1.0994    2.1173 H   0  0  0  0  0  0  0  0  0  0  0  0
   -0.1269    0.0078    2.9565 H   0  0  0  0  0  0  0  0  0  0  0  0
   -2.3991    0.9344    3.1218 H   0  0  0  0  0  0  0  0  0  0  0  0
   -1.4617    1.9333    1.8776 H   0  0  0  0  0  0  0  0  0  0  0  0
   -4.4897    0.9200    2.2760 H   0  0  0  0  0  0  0  0  0  0  0  0
   -4.9269   -0.1361   -1.8267 H   0  0  0  0  0  0  0  0  0  0  0  0
   -5.2885   -1.5285   -0.7803 H   0  0  0  0  0  0  0  0  0  0  0  0
   -2.9046   -1.1939   -1.8094 H   0  0  0  0  0  0  0  0  0  0  0  0
   -3.0657   -1.8607   -0.1617 H   0  0  0  0  0  0  0  0  0  0  0  0
   -2.1737    2.2669   -0.7425 H   0  0  0  0  0  0  0  0  0  0  0  0
   -3.7264    1.5809   -1.2526 H   0  0  0  0  0  0  0  0  0  0  0  0
   -2.3088    1.1999   -2.2417 H   0  0  0  0  0  0  0  0  0  0  0  0
   -0.8765   -1.3653   -0.5262 H   0  0  0  0  0  0  0  0  0  0  0  0
   -0.7597   -0.1053   -2.4688 H   0  0  0  0  0  0  0  0  0  0  0  0
   -0.3835    1.4265   -1.6073 H   0  0  0  0  0  0  0  0  0  0  0  0
    1.2541   -1.1226   -2.1430 H   0  0  0  0  0  0  0  0  0  0  0  0
    1.6941    0.5728   -2.4070 H   0  0  0  0  0  0  0  0  0  0  0  0
    1.9857    1.7648    0.7448 H   0  0  0  0  0  0  0  0  0  0  0  0
    3.5852    1.1462    0.3724 H   0  0  0  0  0  0  0  0  0  0  0  0
    2.5968    1.8803   -0.9247 H   0  0  0  0  0  0  0  0  0  0  0  0
  1  2  1  0
  2  3  2  0
  2  4  1  0
  4  5  1  0
  5  6  1  0
  6  7  1  0
  7  8  1  0
  8  9  1  0
  9 10  1  0
 10 11  1  0
 11 12  2  0
 12 13  1  0
 13 14  2  0
 13 15  1  0
 15 16  1  0
 16 17  1  0
 17 18  1  6
 17 19  1  0
 19 20  1  0
 20 21  1  0
 21 22  1  0
 22 23  1  1
 22  4  1  0
 22  7  1  0
 19  8  1  0
 17 11  1  0
  1 24  1  0
  1 25  1  0
  1 26  1  0
  4 27  1  6
  5 28  1  0
  5 29  1  0
  6 30  1  0
  6 31  1  0
  7 32  1  6
  8 33  1  6
  9 34  1  0
  9 35  1  0
 10 36  1  0
 10 37  1  0
 12 38  1  0
 15 39  1  0
 15 40  1  0
 16 41  1  0
 16 42  1  0
 18 43  1  0
 18 44  1  0
 18 45  1  0
 19 46  1  6
 20 47  1  0
 20 48  1  0
 21 49  1  0
 21 50  1  0
 23 51  1  0
 23 52  1  0
 23 53  1  0
M  END
$$$$
