
     RDKit          3D

 67 71  0  0  0  0  0  0  0  0999 V2000
    8.9555    1.6369    3.2755 C   0  0  0  0  0  0  0  0  0  0  0  0
    8.1108    1.4239    2.1847 O   0  0  0  0  0  0  0  0  0  0  0  0
    7.4259    0.2431    1.9277 C   0  0  0  0  0  0  0  0  0  0  0  0
    7.4137   -0.9059    2.6251 N   0  0  0  0  0  0  0  0  0  0  0  0
    6.6388   -1.7982    2.0583 N   0  0  0  0  0  0  0  0  0  0  0  0
    6.3731   -3.1485    2.5151 C   0  0  0  0  0  0  0  0  0  0  0  0
    6.1176   -1.2189    0.9427 C   0  0  0  0  0  0  0  0  0  0  0  0
    6.5998    0.0696    0.8394 C   0  0  0  0  0  0  0  0  0  0  0  0
    6.2911    1.0194   -0.1952 N   0  0  0  0  0  0  0  0  0  0  0  0
    5.4191    0.6634   -1.2476 C   0  0  0  0  0  0  0  0  0  0  0  0
    5.9276    0.1319   -2.3668 N   0  0  0  0  0  0  0  0  0  0  0  0
    5.1880   -0.2314   -3.4065 C   0  0  0  0  0  0  0  0  0  0  0  0
    3.8074   -0.0592   -3.3510 C   0  0  0  0  0  0  0  0  0  0  0  0
    3.2504    0.4768   -2.2289 C   0  0  0  0  0  0  0  0  0  0  0  0
    1.8325    0.7553   -2.0706 C   0  0  0  0  0  0  0  0  0  0  0  0
    1.3482    1.7031   -1.1705 C   0  0  0  0  0  0  0  0  0  0  0  0
    0.0289    1.7192   -1.2105 N   0  0  0  0  0  0  0  0  0  0  0  0
   -0.3975    0.8045   -2.1149 C   0  0  0  0  0  0  0  0  0  0  0  0
   -1.6500    0.4472   -2.4943 C   0  0  0  0  0  0  0  0  0  0  0  0
   -2.7721    1.1089   -1.9031 N   0  0  0  0  0  0  0  0  0  0  0  0
   -3.3531    0.5602   -0.7140 C   0  0  0  0  0  0  0  0  0  0  0  0
   -2.8421   -0.4786   -0.2542 O   0  0  0  0  0  0  0  0  0  0  0  0
   -4.5126    1.2218   -0.0798 C   0  0  1  0  0  0  0  0  0  0  0  0
   -5.6014    1.4849   -1.0981 C   0  0  0  0  0  0  0  0  0  0  0  0
   -4.9845    0.4001    1.0129 N   0  0  0  0  0  0  0  0  0  0  0  0
   -6.0027    1.0386    1.7886 C   0  0  0  0  0  0  0  0  0  0  0  0
   -7.3463    0.4224    1.7804 C   0  0  0  0  0  0  0  0  0  0  0  0
   -7.2254   -0.9897    2.0514 N   0  0  0  0  0  0  0  0  0  0  0  0
   -6.6603   -1.3236    3.3137 C   0  0  0  0  0  0  0  0  0  0  0  0
   -6.5103   -1.5655    0.9517 C   0  0  0  0  0  0  0  0  0  0  0  0
   -5.1954   -0.9574    0.6595 C   0  0  0  0  0  0  0  0  0  0  0  0
   -1.8290   -0.5465   -3.4404 C   0  0  0  0  0  0  0  0  0  0  0  0
   -0.7310   -1.1513   -3.9752 C   0  0  0  0  0  0  0  0  0  0  0  0
    0.5494   -0.7854   -3.5876 C   0  0  0  0  0  0  0  0  0  0  0  0
    0.7279    0.2021   -2.6507 C   0  0  0  0  0  0  0  0  0  0  0  0
    4.1025    0.8266   -1.1947 N   0  0  0  0  0  0  0  0  0  0  0  0
   10.0110    1.8760    2.9833 H   0  0  0  0  0  0  0  0  0  0  0  0
    8.6124    2.4925    3.8989 H   0  0  0  0  0  0  0  0  0  0  0  0
    9.0395    0.7515    3.9549 H   0  0  0  0  0  0  0  0  0  0  0  0
    7.1473   -3.5218    3.1826 H   0  0  0  0  0  0  0  0  0  0  0  0
    6.2536   -3.7885    1.5927 H   0  0  0  0  0  0  0  0  0  0  0  0
    5.3471   -3.1310    2.9730 H   0  0  0  0  0  0  0  0  0  0  0  0
    5.4464   -1.6940    0.2668 H   0  0  0  0  0  0  0  0  0  0  0  0
    6.6965    1.9730   -0.1911 H   0  0  0  0  0  0  0  0  0  0  0  0
    5.6029   -0.6525   -4.2902 H   0  0  0  0  0  0  0  0  0  0  0  0
    3.2256   -0.3306   -4.2225 H   0  0  0  0  0  0  0  0  0  0  0  0
    1.9659    2.3165   -0.5495 H   0  0  0  0  0  0  0  0  0  0  0  0
   -0.6036    2.3239   -0.6512 H   0  0  0  0  0  0  0  0  0  0  0  0
   -3.1479    1.9752   -2.3436 H   0  0  0  0  0  0  0  0  0  0  0  0
   -4.2350    2.2085    0.3472 H   0  0  0  0  0  0  0  0  0  0  0  0
   -5.9880    0.5105   -1.4786 H   0  0  0  0  0  0  0  0  0  0  0  0
   -5.1357    2.0900   -1.9022 H   0  0  0  0  0  0  0  0  0  0  0  0
   -6.4189    2.0287   -0.6185 H   0  0  0  0  0  0  0  0  0  0  0  0
   -5.6398    1.1485    2.8190 H   0  0  0  0  0  0  0  0  0  0  0  0
   -6.1054    2.0832    1.3862 H   0  0  0  0  0  0  0  0  0  0  0  0
   -7.9277    0.8533    2.6350 H   0  0  0  0  0  0  0  0  0  0  0  0
   -7.8932    0.5305    0.8206 H   0  0  0  0  0  0  0  0  0  0  0  0
   -5.9398   -2.1580    3.1536 H   0  0  0  0  0  0  0  0  0  0  0  0
   -6.1241   -0.5328    3.8422 H   0  0  0  0  0  0  0  0  0  0  0  0
   -7.4322   -1.7239    4.0080 H   0  0  0  0  0  0  0  0  0  0  0  0
   -7.1923   -1.5015    0.0670 H   0  0  0  0  0  0  0  0  0  0  0  0
   -6.3589   -2.6571    1.1398 H   0  0  0  0  0  0  0  0  0  0  0  0
   -4.3733   -1.6069    1.0758 H   0  0  0  0  0  0  0  0  0  0  0  0
   -5.0607   -1.0187   -0.4642 H   0  0  0  0  0  0  0  0  0  0  0  0
   -2.8282   -0.8069   -3.7200 H   0  0  0  0  0  0  0  0  0  0  0  0
   -0.8211   -1.9339   -4.7177 H   0  0  0  0  0  0  0  0  0  0  0  0
    1.3827   -1.3039   -4.0122 H   0  0  0  0  0  0  0  0  0  0  0  0
  1  2  1  0
  2  3  1  0
  3  4  2  0
  4  5  1  0
  5  6  1  0
  5  7  1  0
  7  8  2  0
  8  9  1  0
  9 10  1  0
 10 11  2  0
 11 12  1  0
 12 13  2  0
 13 14  1  0
 14 15  1  0
 15 16  2  0
 16 17  1  0
 17 18  1  0
 18 19  2  0
 19 20  1  0
 20 21  1  0
 21 22  2  0
 21 23  1  0
 23 24  1  0
 23 25  1  0
 25 26  1  0
 26 27  1  0
 27 28  1  0
 28 29  1  0
 28 30  1  0
 30 31  1  0
 19 32  1  0
 32 33  2  0
 33 34  1  0
 34 35  2  0
 14 36  2  0
  8  3  1  0
 36 10  1  0
 35 15  1  0
 35 18  1  0
 31 25  1  0
  1 37  1  0
  1 38  1  0
  1 39  1  0
  6 40  1  0
  6 41  1  0
  6 42  1  0
  7 43  1  0
  9 44  1  0
 12 45  1  0
 13 46  1  0
 16 47  1  0
 17 48  1  0
 20 49  1  0
 23 50  1  1
 24 51  1  0
 24 52  1  0
 24 53  1  0
 26 54  1  0
 26 55  1  0
 27 56  1  0
 27 57  1  0
 29 58  1  0
 29 59  1  0
 29 60  1  0
 30 61  1  0
 30 62  1  0
 31 63  1  0
 31 64  1  0
 32 65  1  0
 33 66  1  0
 34 67  1  0
M  END
$$$$
