
     RDKit          3D

 28 27  0  0  0  0  0  0  0  0999 V2000
    0.7799    0.2093   -1.8127 C   0  0  0  0  0  0  0  0  0  0  0  0
    0.9381    0.0945   -0.2999 C   0  0  0  0  0  0  0  0  0  0  0  0
   -0.2571    0.6167    0.4455 C   0  0  0  0  0  0  0  0  0  0  0  0
   -1.5013   -0.0043    0.1761 N   0  0  0  0  0  4  0  0  0  0  0  0
   -1.4614   -1.1551   -0.6975 C   0  0  0  0  0  0  0  0  0  0  0  0
   -2.1269   -0.3860    1.4352 C   0  0  0  0  0  0  0  0  0  0  0  0
   -2.3900    0.9579   -0.4521 C   0  0  0  0  0  0  0  0  0  0  0  0
    2.1207    0.8176    0.0959 O   0  0  0  0  0  0  0  0  0  0  0  0
    3.1859    0.1699    0.7416 C   0  0  0  0  0  0  0  0  0  0  0  0
    4.2469    1.0693    1.0409 N   0  0  0  0  0  0  0  0  0  0  0  0
    3.2891   -1.0495    1.0616 O   0  0  0  0  0  0  0  0  0  0  0  0
    1.7282    0.6638   -2.2287 H   0  0  0  0  0  0  0  0  0  0  0  0
   -0.0128    0.8940   -2.1215 H   0  0  0  0  0  0  0  0  0  0  0  0
    0.7133   -0.8138   -2.2287 H   0  0  0  0  0  0  0  0  0  0  0  0
    1.1177   -0.9484    0.0168 H   0  0  0  0  0  0  0  0  0  0  0  0
   -0.3165    1.7244    0.2725 H   0  0  0  0  0  0  0  0  0  0  0  0
   -0.0101    0.5044    1.5397 H   0  0  0  0  0  0  0  0  0  0  0  0
   -1.6272   -0.8351   -1.7429 H   0  0  0  0  0  0  0  0  0  0  0  0
   -2.3834   -1.7518   -0.4226 H   0  0  0  0  0  0  0  0  0  0  0  0
   -0.6301   -1.8375   -0.5370 H   0  0  0  0  0  0  0  0  0  0  0  0
   -1.4571   -0.8838    2.1349 H   0  0  0  0  0  0  0  0  0  0  0  0
   -3.0146   -1.0131    1.2439 H   0  0  0  0  0  0  0  0  0  0  0  0
   -2.5032    0.5811    1.8710 H   0  0  0  0  0  0  0  0  0  0  0  0
   -2.1252    1.9996   -0.1791 H   0  0  0  0  0  0  0  0  0  0  0  0
   -3.4244    0.6986   -0.1350 H   0  0  0  0  0  0  0  0  0  0  0  0
   -2.3223    0.8155   -1.5369 H   0  0  0  0  0  0  0  0  0  0  0  0
    4.1843    2.0584    1.3284 H   0  0  0  0  0  0  0  0  0  0  0  0
    5.2595    0.7808    0.9907 H   0  0  0  0  0  0  0  0  0  0  0  0
  1  2  1  0
  2  3  1  0
  3  4  1  0
  4  5  1  0
  4  6  1  0
  4  7  1  0
  2  8  1  0
  8  9  1  0
  9 10  1  0
  9 11  2  0
  1 12  1  0
  1 13  1  0
  1 14  1  0
  2 15  1  0
  3 16  1  0
  3 17  1  0
  5 18  1  0
  5 19  1  0
  5 20  1  0
  6 21  1  0
  6 22  1  0
  6 23  1  0
  7 24  1  0
  7 25  1  0
  7 26  1  0
 10 27  1  0
 10 28  1  0
M  CHG  1   4   1
M  END
$$$$
