
     RDKit          3D

 51 53  0  0  0  0  0  0  0  0999 V2000
   -6.2243   -1.8042   -1.7013 C   0  0  0  0  0  0  0  0  0  0  0  0
   -6.1343   -0.3974   -1.3030 N   0  0  0  0  0  0  0  0  0  0  0  0
   -6.8293    0.6049   -1.8429 C   0  0  0  0  0  0  0  0  0  0  0  0
   -6.4682    1.7299   -1.2108 N   0  0  0  0  0  0  0  0  0  0  0  0
   -5.5499    1.4466   -0.2752 C   0  0  0  0  0  0  0  0  0  0  0  0
   -5.3530    0.0953   -0.3503 C   0  0  0  0  0  0  0  0  0  0  0  0
   -4.4286   -0.6482    0.4955 C   0  0  0  0  0  0  0  0  0  0  0  0
   -4.8851   -1.5537    1.2363 O   0  0  0  0  0  0  0  0  0  0  0  0
   -3.0387   -0.3848    0.5095 N   0  0  0  0  0  0  0  0  0  0  0  0
   -2.5231    0.6613   -0.3468 C   0  0  0  0  0  0  0  0  0  0  0  0
   -1.0363    0.4081   -0.4691 C   0  0  0  0  0  0  0  0  0  0  0  0
   -0.3214    0.6268    0.8443 C   0  0  0  0  0  0  0  0  0  0  0  0
    1.0992    0.2399    0.6651 C   0  0  0  0  0  0  0  0  0  0  0  0
    1.4828   -1.1005    0.7178 C   0  0  0  0  0  0  0  0  0  0  0  0
    2.7983   -1.4741    0.5341 C   0  0  0  0  0  0  0  0  0  0  0  0
    3.7828   -0.5497    0.2926 C   0  0  0  0  0  0  0  0  0  0  0  0
    5.1419   -0.9730    0.1115 C   0  0  0  0  0  0  0  0  0  0  0  0
    5.4030   -2.2115    0.2162 O   0  0  0  0  0  0  0  0  0  0  0  0
    6.1802   -0.0673   -0.1750 N   0  0  0  0  0  0  0  0  0  0  0  0
    7.5356   -0.4159   -0.3624 C   0  0  0  0  0  0  0  0  0  0  0  0
    7.9411   -1.5946   -0.2851 N   0  0  0  0  0  0  0  0  0  0  0  0
    8.4694    0.6687   -0.6546 N   0  0  0  0  0  0  0  0  0  0  0  0
    3.4172    0.7611    0.2399 C   0  0  0  0  0  0  0  0  0  0  0  0
    2.0748    1.1742    0.4250 C   0  0  0  0  0  0  0  0  0  0  0  0
    1.7360    2.6164    0.3808 C   0  0  0  0  0  0  0  0  0  0  0  0
    1.2071    3.0776    1.5883 F   0  0  0  0  0  0  0  0  0  0  0  0
    0.9729    2.9885   -0.6822 F   0  0  0  0  0  0  0  0  0  0  0  0
    2.9368    3.3332    0.2497 F   0  0  0  0  0  0  0  0  0  0  0  0
   -1.0078   -0.2029    1.8965 C   0  0  0  0  0  0  0  0  0  0  0  0
   -2.0862   -1.0999    1.3288 C   0  0  0  0  0  0  0  0  0  0  0  0
   -5.2446   -2.2361   -1.9361 H   0  0  0  0  0  0  0  0  0  0  0  0
   -6.6570   -2.3836   -0.8347 H   0  0  0  0  0  0  0  0  0  0  0  0
   -6.8737   -1.8949   -2.5882 H   0  0  0  0  0  0  0  0  0  0  0  0
   -7.5603    0.5043   -2.6569 H   0  0  0  0  0  0  0  0  0  0  0  0
   -5.0599    2.1488    0.4068 H   0  0  0  0  0  0  0  0  0  0  0  0
   -2.9613    0.5173   -1.3528 H   0  0  0  0  0  0  0  0  0  0  0  0
   -2.7373    1.6641    0.0730 H   0  0  0  0  0  0  0  0  0  0  0  0
   -0.9418   -0.6922   -0.7088 H   0  0  0  0  0  0  0  0  0  0  0  0
   -0.5784    0.9184   -1.3298 H   0  0  0  0  0  0  0  0  0  0  0  0
   -0.4744    1.6719    1.1196 H   0  0  0  0  0  0  0  0  0  0  0  0
    0.7403   -1.8562    0.9057 H   0  0  0  0  0  0  0  0  0  0  0  0
    3.0818   -2.5188    0.5771 H   0  0  0  0  0  0  0  0  0  0  0  0
    5.9661    0.9678   -0.2666 H   0  0  0  0  0  0  0  0  0  0  0  0
    7.4593   -2.4355   -0.0986 H   0  0  0  0  0  0  0  0  0  0  0  0
    9.0836    0.6017   -1.4702 H   0  0  0  0  0  0  0  0  0  0  0  0
    8.4435    1.4604    0.0100 H   0  0  0  0  0  0  0  0  0  0  0  0
    4.1345    1.5655    0.0531 H   0  0  0  0  0  0  0  0  0  0  0  0
   -0.2691   -0.8505    2.4113 H   0  0  0  0  0  0  0  0  0  0  0  0
   -1.5103    0.4261    2.6839 H   0  0  0  0  0  0  0  0  0  0  0  0
   -1.6518   -1.9720    0.7729 H   0  0  0  0  0  0  0  0  0  0  0  0
   -2.6822   -1.5609    2.1563 H   0  0  0  0  0  0  0  0  0  0  0  0
  1  2  1  0
  2  3  1  0
  3  4  2  0
  4  5  1  0
  5  6  2  0
  6  7  1  0
  7  8  2  0
  7  9  1  0
  9 10  1  0
 10 11  1  0
 11 12  1  0
 12 13  1  0
 13 14  2  0
 14 15  1  0
 15 16  2  0
 16 17  1  0
 17 18  2  0
 17 19  1  0
 19 20  1  0
 20 21  2  3
 20 22  1  0
 16 23  1  0
 23 24  2  0
 24 25  1  0
 25 26  1  0
 25 27  1  0
 25 28  1  0
 12 29  1  0
 29 30  1  0
  6  2  1  0
 30  9  1  0
 24 13  1  0
  1 31  1  0
  1 32  1  0
  1 33  1  0
  3 34  1  0
  5 35  1  0
 10 36  1  0
 10 37  1  0
 11 38  1  0
 11 39  1  0
 12 40  1  0
 14 41  1  0
 15 42  1  0
 19 43  1  0
 21 44  1  0
 22 45  1  0
 22 46  1  0
 23 47  1  0
 29 48  1  0
 29 49  1  0
 30 50  1  0
 30 51  1  0
M  END
$$$$
