
     RDKit          3D

 56 58  0  0  0  0  0  0  0  0999 V2000
    6.8112    2.9007    2.4400 C   0  0  0  0  0  0  0  0  0  0  0  0
    6.4539    3.5548    1.1695 C   0  0  0  0  0  0  0  0  0  0  0  0
    6.1792    4.0786    0.1253 C   0  0  0  0  0  0  0  0  0  0  0  0
    5.8470    4.7196   -1.1672 C   0  0  0  0  0  0  0  0  0  0  0  0
    5.3706    3.8234   -2.1214 O   0  0  0  0  0  0  0  0  0  0  0  0
    4.2135    3.0869   -1.9102 C   0  0  0  0  0  0  0  0  0  0  0  0
    3.4770    3.1995   -0.7677 C   0  0  0  0  0  0  0  0  0  0  0  0
    2.3785    2.4644   -0.6315 N   0  0  0  0  0  0  0  0  0  0  0  0
    1.9206    1.5795   -1.5794 C   0  0  0  0  0  0  0  0  0  0  0  0
    0.7063    0.8214   -1.2597 C   0  0  0  0  0  0  0  0  0  0  0  0
    0.5491    0.6381    0.0086 O   0  0  0  0  0  0  0  0  0  0  0  0
   -0.2333    0.3209   -2.1604 N   0  0  0  0  0  0  0  0  0  0  0  0
   -1.3759   -0.4120   -1.8112 C   0  0  0  0  0  0  0  0  0  0  0  0
   -2.1789   -0.8775   -2.8675 C   0  0  0  0  0  0  0  0  0  0  0  0
   -3.3045   -1.5917   -2.6524 C   0  0  0  0  0  0  0  0  0  0  0  0
   -4.0511   -2.0209   -3.7007 F   0  0  0  0  0  0  0  0  0  0  0  0
   -3.6922   -1.8819   -1.3656 C   0  0  0  0  0  0  0  0  0  0  0  0
   -4.8319   -2.6039   -1.2136 F   0  0  0  0  0  0  0  0  0  0  0  0
   -2.9426   -1.4509   -0.2783 C   0  0  0  0  0  0  0  0  0  0  0  0
   -3.4764   -1.8228    1.0536 C   0  0  2  0  0  0  0  0  0  0  0  0
   -4.9138   -1.2663    1.0614 C   0  0  0  0  0  0  0  0  0  0  0  0
   -2.7050   -1.3004    2.2148 C   0  0  0  0  0  0  0  0  0  0  0  0
   -2.7382   -2.1486    3.4482 C   0  0  1  0  0  0  0  0  0  0  0  0
   -4.0515   -2.2513    4.1391 C   0  0  0  0  0  0  0  0  0  0  0  0
   -3.9571   -3.0633    5.2858 F   0  0  0  0  0  0  0  0  0  0  0  0
   -4.5955   -1.0679    4.5443 F   0  0  0  0  0  0  0  0  0  0  0  0
   -5.0132   -2.9108    3.3613 F   0  0  0  0  0  0  0  0  0  0  0  0
   -2.3492   -3.4721    3.0463 O   0  0  0  0  0  0  0  0  0  0  0  0
   -3.0432   -4.0144    1.9802 C   0  0  0  0  0  0  0  0  0  0  0  0
   -3.1843   -5.4524    1.8990 N   0  0  0  0  0  0  0  0  0  0  0  0
   -3.5408   -3.2572    1.0977 N   0  0  0  0  0  0  0  0  0  0  0  0
   -1.8068   -0.7283   -0.5383 C   0  0  0  0  0  0  0  0  0  0  0  0
    2.6381    1.4580   -2.7072 C   0  0  0  0  0  0  0  0  0  0  0  0
    2.2894    0.5028   -3.7764 C   0  0  0  0  0  0  0  0  0  0  0  0
    3.7926    2.2168   -2.8768 C   0  0  0  0  0  0  0  0  0  0  0  0
    7.9235    2.8336    2.5186 H   0  0  0  0  0  0  0  0  0  0  0  0
    6.4075    1.8811    2.4088 H   0  0  0  0  0  0  0  0  0  0  0  0
    6.3683    3.5073    3.2449 H   0  0  0  0  0  0  0  0  0  0  0  0
    5.0332    5.4532   -0.9158 H   0  0  0  0  0  0  0  0  0  0  0  0
    6.7492    5.2443   -1.5145 H   0  0  0  0  0  0  0  0  0  0  0  0
    3.7480    3.8639    0.0317 H   0  0  0  0  0  0  0  0  0  0  0  0
   -0.0950    0.5388   -3.1668 H   0  0  0  0  0  0  0  0  0  0  0  0
   -1.8951   -0.6620   -3.9018 H   0  0  0  0  0  0  0  0  0  0  0  0
   -5.1191   -0.6516    1.9385 H   0  0  0  0  0  0  0  0  0  0  0  0
   -5.0825   -0.5791    0.1817 H   0  0  0  0  0  0  0  0  0  0  0  0
   -5.6083   -2.1057    0.8846 H   0  0  0  0  0  0  0  0  0  0  0  0
   -1.6050   -1.1886    1.9725 H   0  0  0  0  0  0  0  0  0  0  0  0
   -3.0133   -0.2602    2.5217 H   0  0  0  0  0  0  0  0  0  0  0  0
   -1.9741   -1.7795    4.1518 H   0  0  0  0  0  0  0  0  0  0  0  0
   -2.9694   -6.0101    2.7338 H   0  0  0  0  0  0  0  0  0  0  0  0
   -3.4919   -5.9194    1.0319 H   0  0  0  0  0  0  0  0  0  0  0  0
   -1.2319   -0.3859    0.2892 H   0  0  0  0  0  0  0  0  0  0  0  0
    1.6416    0.9479   -4.5282 H   0  0  0  0  0  0  0  0  0  0  0  0
    1.9158   -0.4290   -3.3144 H   0  0  0  0  0  0  0  0  0  0  0  0
    3.2933    0.2168   -4.2635 H   0  0  0  0  0  0  0  0  0  0  0  0
    4.3637    2.1115   -3.7946 H   0  0  0  0  0  0  0  0  0  0  0  0
  1  2  1  0
  2  3  3  0
  3  4  1  0
  4  5  1  0
  5  6  1  0
  6  7  2  0
  7  8  1  0
  8  9  2  0
  9 10  1  0
 10 11  2  0
 10 12  1  0
 12 13  1  0
 13 14  2  0
 14 15  1  0
 15 16  1  0
 15 17  2  0
 17 18  1  0
 17 19  1  0
 19 20  1  0
 20 21  1  1
 20 22  1  0
 22 23  1  0
 23 24  1  0
 24 25  1  0
 24 26  1  0
 24 27  1  0
 23 28  1  0
 28 29  1  0
 29 30  1  0
 29 31  2  0
 19 32  2  0
  9 33  1  0
 33 34  1  0
 33 35  2  0
 35  6  1  0
 32 13  1  0
 31 20  1  0
  1 36  1  0
  1 37  1  0
  1 38  1  0
  4 39  1  0
  4 40  1  0
  7 41  1  0
 12 42  1  0
 14 43  1  0
 21 44  1  0
 21 45  1  0
 21 46  1  0
 22 47  1  0
 22 48  1  0
 23 49  1  1
 30 50  1  0
 30 51  1  0
 32 52  1  0
 34 53  1  0
 34 54  1  0
 34 55  1  0
 35 56  1  0
M  END
$$$$
