
     RDKit          3D

 51 55  0  0  0  0  0  0  0  0999 V2000
   -2.8503    1.2232    1.9002 O   0  0  0  0  0  0  0  0  0  0  0  0
   -2.4101    0.1869    1.3289 C   0  0  0  0  0  0  0  0  0  0  0  0
   -3.3055   -0.7087    0.6193 C   0  0  0  0  0  0  0  0  0  0  0  0
   -3.8444   -1.8264    1.2680 C   0  0  0  0  0  0  0  0  0  0  0  0
   -4.6731   -2.6976    0.6181 C   0  0  0  0  0  0  0  0  0  0  0  0
   -5.3207   -4.0809    1.4761 Cl  0  0  0  0  0  0  0  0  0  0  0  0
   -4.9800   -2.4605   -0.7108 C   0  0  0  0  0  0  0  0  0  0  0  0
   -4.4739   -1.3849   -1.3694 C   0  0  0  0  0  0  0  0  0  0  0  0
   -3.6258   -0.4967   -0.6960 C   0  0  0  0  0  0  0  0  0  0  0  0
   -3.1029    0.6465   -1.3578 N   0  0  0  0  0  0  0  0  0  0  0  0
   -2.9559    1.8769   -0.8993 N   0  0  0  0  0  0  0  0  0  0  0  0
   -2.4402    2.6750   -1.8311 C   0  0  0  0  0  0  0  0  0  0  0  0
   -2.2488    1.8919   -2.9551 C   0  0  0  0  0  0  0  0  0  0  0  0
   -2.6706    0.6564   -2.6133 N   0  0  0  0  0  0  0  0  0  0  0  0
   -0.9910   -0.0649    1.4165 N   0  0  0  0  0  0  0  0  0  0  0  0
   -0.4867   -1.2314    0.7761 C   0  0  0  0  0  0  0  0  0  0  0  0
    0.9003   -1.6384    1.1198 C   0  0  0  0  0  0  0  0  0  0  0  0
    1.5704   -0.8855    2.0358 O   0  0  0  0  0  0  0  0  0  0  0  0
    0.8363   -0.1189    2.8904 C   0  0  0  0  0  0  0  0  0  0  0  0
   -0.1111    0.8072    2.1409 C   0  0  1  0  0  0  0  0  0  0  0  0
    0.5996    1.8156    1.3257 C   0  0  0  0  0  0  0  0  0  0  0  0
    1.4941    1.3224    0.2782 C   0  0  0  0  0  0  0  0  0  0  0  0
    1.0443    1.0892   -1.0029 C   0  0  0  0  0  0  0  0  0  0  0  0
    1.8688    0.6318   -2.0060 C   0  0  0  0  0  0  0  0  0  0  0  0
    3.1899    0.3994   -1.7167 C   0  0  0  0  0  0  0  0  0  0  0  0
    3.7131    0.6151   -0.4363 C   0  0  0  0  0  0  0  0  0  0  0  0
    5.1246    0.3587   -0.1581 C   0  0  0  0  0  0  0  0  0  0  0  0
    5.8225   -0.6889   -0.5695 N   0  0  0  0  0  0  0  0  0  0  0  0
    7.1064   -0.5870   -0.1166 C   0  0  0  0  0  0  0  0  0  0  0  0
    7.1494    0.5351    0.5655 O   0  0  0  0  0  0  0  0  0  0  0  0
    5.9680    1.1219    0.5545 N   0  0  0  0  0  0  0  0  0  0  0  0
    2.8446    1.0710    0.5217 C   0  0  0  0  0  0  0  0  0  0  0  0
   -3.5831   -1.9798    2.3054 H   0  0  0  0  0  0  0  0  0  0  0  0
   -5.6457   -3.1846   -1.1870 H   0  0  0  0  0  0  0  0  0  0  0  0
   -4.7126   -1.2007   -2.4026 H   0  0  0  0  0  0  0  0  0  0  0  0
   -2.2343    3.7188   -1.6804 H   0  0  0  0  0  0  0  0  0  0  0  0
   -1.8454    2.2577   -3.8703 H   0  0  0  0  0  0  0  0  0  0  0  0
   -0.6565   -1.1132   -0.3355 H   0  0  0  0  0  0  0  0  0  0  0  0
   -1.1340   -2.1423    1.0075 H   0  0  0  0  0  0  0  0  0  0  0  0
    1.4954   -1.5694    0.1571 H   0  0  0  0  0  0  0  0  0  0  0  0
    0.9932   -2.7405    1.3669 H   0  0  0  0  0  0  0  0  0  0  0  0
    0.2305   -0.6707    3.6152 H   0  0  0  0  0  0  0  0  0  0  0  0
    1.5233    0.5344    3.4549 H   0  0  0  0  0  0  0  0  0  0  0  0
   -0.7196    1.3264    2.9158 H   0  0  0  0  0  0  0  0  0  0  0  0
   -0.1674    2.4840    0.8429 H   0  0  0  0  0  0  0  0  0  0  0  0
    1.2023    2.4963    1.9898 H   0  0  0  0  0  0  0  0  0  0  0  0
    0.0051    1.2594   -1.2701 H   0  0  0  0  0  0  0  0  0  0  0  0
    1.4750    0.4617   -2.9991 H   0  0  0  0  0  0  0  0  0  0  0  0
    3.8951    0.0379   -2.4620 H   0  0  0  0  0  0  0  0  0  0  0  0
    7.9168   -1.2768   -0.2804 H   0  0  0  0  0  0  0  0  0  0  0  0
    3.2204    1.2480    1.5213 H   0  0  0  0  0  0  0  0  0  0  0  0
  1  2  2  0
  2  3  1  0
  3  4  2  0
  4  5  1  0
  5  6  1  0
  5  7  2  0
  7  8  1  0
  8  9  2  0
  9 10  1  0
 10 11  1  0
 11 12  2  0
 12 13  1  0
 13 14  2  0
  2 15  1  0
 15 16  1  0
 16 17  1  0
 17 18  1  0
 18 19  1  0
 19 20  1  0
 20 21  1  0
 21 22  1  0
 22 23  2  0
 23 24  1  0
 24 25  2  0
 25 26  1  0
 26 27  1  0
 27 28  1  0
 28 29  2  0
 29 30  1  0
 30 31  1  0
 26 32  2  0
  9  3  1  0
 14 10  1  0
 20 15  1  0
 32 22  1  0
 31 27  2  0
  4 33  1  0
  7 34  1  0
  8 35  1  0
 12 36  1  0
 13 37  1  0
 16 38  1  0
 16 39  1  0
 17 40  1  0
 17 41  1  0
 19 42  1  0
 19 43  1  0
 20 44  1  1
 21 45  1  0
 21 46  1  0
 23 47  1  0
 24 48  1  0
 25 49  1  0
 29 50  1  0
 32 51  1  0
M  END
$$$$
