
     RDKit          3D

 43 46  0  0  0  0  0  0  0  0999 V2000
    7.3496    0.4915    0.9644 C   0  0  0  0  0  0  0  0  0  0  0  0
    6.6259    0.5899   -0.6812 S   0  0  0  0  0  4  0  0  0  0  0  0
    7.2206   -0.5429   -1.5399 O   0  0  0  0  0  0  0  0  0  0  0  0
    4.8941    0.2357   -0.5342 C   0  0  0  0  0  0  0  0  0  0  0  0
    4.1330    1.3763   -0.2896 C   0  0  0  0  0  0  0  0  0  0  0  0
    2.7513    1.2366   -0.1512 C   0  0  0  0  0  0  0  0  0  0  0  0
    2.1932   -0.0132   -0.2605 C   0  0  0  0  0  0  0  0  0  0  0  0
    2.9419   -1.1350   -0.5013 C   0  0  0  0  0  0  0  0  0  0  0  0
    4.3071   -1.0115   -0.6400 C   0  0  0  0  0  0  0  0  0  0  0  0
    0.7559   -0.1406   -0.1082 C   0  0  0  0  0  0  0  0  0  0  0  0
    0.0257   -1.2823   -0.1856 N   0  0  0  0  0  0  0  0  0  0  0  0
   -1.2598   -1.0251    0.0063 C   0  0  0  0  0  0  0  0  0  0  0  0
   -1.3800    0.3344    0.2176 C   0  0  0  0  0  0  0  0  0  0  0  0
   -0.1157    0.8446    0.1393 N   0  0  0  0  0  0  0  0  0  0  0  0
   -2.5405    1.1838    0.4811 C   0  0  0  0  0  0  0  0  0  0  0  0
   -2.8905    2.2115   -0.4011 C   0  0  0  0  0  0  0  0  0  0  0  0
   -3.9703    3.0381   -0.2004 C   0  0  0  0  0  0  0  0  0  0  0  0
   -4.4385    4.5649   -1.5706 I   0  0  0  0  0  0  0  0  0  0  0  0
   -4.7375    2.8217    0.9446 C   0  0  0  0  0  0  0  0  0  0  0  0
   -4.4443    1.8144    1.8662 C   0  0  0  0  0  0  0  0  0  0  0  0
   -3.3492    1.0213    1.6060 C   0  0  0  0  0  0  0  0  0  0  0  0
   -2.4102   -1.9198    0.0172 C   0  0  0  0  0  0  0  0  0  0  0  0
   -3.4486   -1.7931   -0.8816 C   0  0  0  0  0  0  0  0  0  0  0  0
   -4.4811   -2.7025   -0.7700 C   0  0  0  0  0  0  0  0  0  0  0  0
   -4.5336   -3.6851    0.1452 N   0  0  0  0  0  0  0  0  0  0  0  0
   -3.5294   -3.8491    1.0550 C   0  0  0  0  0  0  0  0  0  0  0  0
   -2.4997   -2.9471    0.9484 C   0  0  0  0  0  0  0  0  0  0  0  0
    7.0171   -0.4514    1.4384 H   0  0  0  0  0  0  0  0  0  0  0  0
    6.9680    1.3694    1.5315 H   0  0  0  0  0  0  0  0  0  0  0  0
    8.4425    0.4867    0.8622 H   0  0  0  0  0  0  0  0  0  0  0  0
    4.5221    2.3825   -0.1946 H   0  0  0  0  0  0  0  0  0  0  0  0
    2.1478    2.1302    0.0410 H   0  0  0  0  0  0  0  0  0  0  0  0
    2.5147   -2.1341   -0.5911 H   0  0  0  0  0  0  0  0  0  0  0  0
    4.9939   -1.8270   -0.8312 H   0  0  0  0  0  0  0  0  0  0  0  0
    0.1390    1.8604    0.2559 H   0  0  0  0  0  0  0  0  0  0  0  0
   -2.2912    2.3889   -1.3061 H   0  0  0  0  0  0  0  0  0  0  0  0
   -5.5807    3.4522    1.1202 H   0  0  0  0  0  0  0  0  0  0  0  0
   -5.0612    1.6725    2.7472 H   0  0  0  0  0  0  0  0  0  0  0  0
   -3.0918    0.2190    2.3130 H   0  0  0  0  0  0  0  0  0  0  0  0
   -3.4035   -1.0115   -1.6070 H   0  0  0  0  0  0  0  0  0  0  0  0
   -5.2774   -2.5625   -1.5008 H   0  0  0  0  0  0  0  0  0  0  0  0
   -3.5195   -4.6240    1.8146 H   0  0  0  0  0  0  0  0  0  0  0  0
   -1.6891   -3.0688    1.6720 H   0  0  0  0  0  0  0  0  0  0  0  0
  2  1  1  1
  2  3  2  0
  2  4  1  0
  4  5  2  0
  5  6  1  0
  6  7  2  0
  7  8  1  0
  8  9  2  0
  7 10  1  0
 10 11  2  0
 11 12  1  0
 12 13  2  0
 13 14  1  0
 13 15  1  0
 15 16  2  0
 16 17  1  0
 17 18  1  0
 17 19  2  0
 19 20  1  0
 20 21  2  0
 12 22  1  0
 22 23  2  0
 23 24  1  0
 24 25  2  0
 25 26  1  0
 26 27  2  0
  9  4  1  0
 14 10  1  0
 21 15  1  0
 27 22  1  0
  1 28  1  0
  1 29  1  0
  1 30  1  0
  5 31  1  0
  6 32  1  0
  8 33  1  0
  9 34  1  0
 14 35  1  0
 16 36  1  0
 19 37  1  0
 20 38  1  0
 21 39  1  0
 23 40  1  0
 24 41  1  0
 26 42  1  0
 27 43  1  0
M  END
$$$$
