
     RDKit          3D

 46 50  0  0  0  0  0  0  0  0999 V2000
   -3.5730   -1.9925    1.1367 C   0  0  0  0  0  0  0  0  0  0  0  0
   -2.3141   -1.7417    0.3110 C   0  0  0  0  0  0  0  0  0  0  0  0
   -2.5856   -1.9758   -1.1447 C   0  0  0  0  0  0  0  0  0  0  0  0
   -3.0430   -3.4351   -1.3978 C   0  0  0  0  0  0  0  0  0  0  0  0
   -3.8753   -2.2336   -1.7623 C   0  0  0  0  0  0  0  0  0  0  0  0
   -1.8981   -0.3815    0.5718 N   0  0  0  0  0  0  0  0  0  0  0  0
   -2.7571    0.6343    0.8943 C   0  0  0  0  0  0  0  0  0  0  0  0
   -2.0951    1.7691    1.1024 N   0  0  0  0  0  0  0  0  0  0  0  0
   -0.7828    1.5393    0.9234 C   0  0  0  0  0  0  0  0  0  0  0  0
    0.3080    2.5063    1.0322 C   0  0  0  0  0  0  0  0  0  0  0  0
    1.3696    2.4275    1.8946 C   0  0  0  0  0  0  0  0  0  0  0  0
    2.3513    3.4045    1.9407 C   0  0  0  0  0  0  0  0  0  0  0  0
    2.2716    4.4791    1.1112 C   0  0  0  0  0  0  0  0  0  0  0  0
    3.2671    5.4281    1.2016 F   0  0  0  0  0  0  0  0  0  0  0  0
    1.2284    4.5991    0.2323 C   0  0  0  0  0  0  0  0  0  0  0  0
    0.2404    3.6035    0.1949 C   0  0  0  0  0  0  0  0  0  0  0  0
   -0.6796    0.1792    0.5902 C   0  0  0  0  0  0  0  0  0  0  0  0
    0.5911   -0.4570    0.3122 C   0  0  0  0  0  0  0  0  0  0  0  0
    0.9599   -1.6462    0.8794 C   0  0  0  0  0  0  0  0  0  0  0  0
    2.1837   -2.2144    0.5514 C   0  0  0  0  0  0  0  0  0  0  0  0
    3.0196   -1.5612   -0.3458 C   0  0  0  0  0  0  0  0  0  0  0  0
    4.2401   -1.9117   -0.8032 N   0  0  0  0  0  0  0  0  0  0  0  0
    4.6426   -0.9513   -1.6430 C   0  0  0  0  0  0  0  0  0  0  0  0
    3.6944   -0.0053   -1.7187 C   0  0  0  0  0  0  0  0  0  0  0  0
    3.7939    1.2930   -2.4030 C   0  0  0  0  0  0  0  0  0  0  0  0
    3.8845    2.3365   -2.9334 N   0  0  0  0  0  0  0  0  0  0  0  0
    2.6571   -0.3747   -0.9078 N   0  0  0  0  0  0  0  0  0  0  0  0
    1.4672    0.1586   -0.5816 C   0  0  0  0  0  0  0  0  0  0  0  0
   -3.5851   -1.3188    2.0294 H   0  0  0  0  0  0  0  0  0  0  0  0
   -4.4998   -1.9807    0.5798 H   0  0  0  0  0  0  0  0  0  0  0  0
   -3.4551   -3.0116    1.5953 H   0  0  0  0  0  0  0  0  0  0  0  0
   -1.5868   -2.4892    0.7061 H   0  0  0  0  0  0  0  0  0  0  0  0
   -1.7534   -1.6380   -1.8364 H   0  0  0  0  0  0  0  0  0  0  0  0
   -2.4873   -4.0075   -2.1448 H   0  0  0  0  0  0  0  0  0  0  0  0
   -3.4148   -4.0175   -0.5247 H   0  0  0  0  0  0  0  0  0  0  0  0
   -3.9300   -2.1147   -2.8942 H   0  0  0  0  0  0  0  0  0  0  0  0
   -4.8669   -2.1748   -1.3328 H   0  0  0  0  0  0  0  0  0  0  0  0
   -3.8397    0.4700    0.9570 H   0  0  0  0  0  0  0  0  0  0  0  0
    1.4179    1.5700    2.5450 H   0  0  0  0  0  0  0  0  0  0  0  0
    3.1666    3.3042    2.6287 H   0  0  0  0  0  0  0  0  0  0  0  0
    1.1869    5.4530   -0.3990 H   0  0  0  0  0  0  0  0  0  0  0  0
   -0.5949    3.7004   -0.5113 H   0  0  0  0  0  0  0  0  0  0  0  0
    0.3621   -2.1938    1.6175 H   0  0  0  0  0  0  0  0  0  0  0  0
    2.4555   -3.1548    1.0035 H   0  0  0  0  0  0  0  0  0  0  0  0
    5.5977   -0.9769   -2.1717 H   0  0  0  0  0  0  0  0  0  0  0  0
    1.2601    1.1045   -1.0863 H   0  0  0  0  0  0  0  0  0  0  0  0
  1  2  1  0
  2  3  1  0
  3  4  1  0
  4  5  1  0
  2  6  1  0
  6  7  1  0
  7  8  2  0
  8  9  1  0
  9 10  1  0
 10 11  2  0
 11 12  1  0
 12 13  2  0
 13 14  1  0
 13 15  1  0
 15 16  2  0
  9 17  2  0
 17 18  1  0
 18 19  1  0
 19 20  2  0
 20 21  1  0
 21 22  2  0
 22 23  1  0
 23 24  2  0
 24 25  1  0
 25 26  3  0
 24 27  1  0
 27 28  1  0
  5  3  1  0
 17  6  1  0
 28 18  2  0
 16 10  1  0
 27 21  1  0
  1 29  1  0
  1 30  1  0
  1 31  1  0
  2 32  1  0
  3 33  1  0
  4 34  1  0
  4 35  1  0
  5 36  1  0
  5 37  1  0
  7 38  1  0
 11 39  1  0
 12 40  1  0
 15 41  1  0
 16 42  1  0
 19 43  1  0
 20 44  1  0
 23 45  1  0
 28 46  1  0
M  END
$$$$
