
     RDKit          3D

 62 67  0  0  0  0  0  0  0  0999 V2000
    7.5906    0.0405   -1.0975 C   0  0  0  0  0  0  0  0  0  0  0  0
    7.4808   -1.3076   -0.6073 N   0  0  0  0  0  0  0  0  0  0  0  0
    8.6228   -1.5826    0.2418 C   0  0  0  0  0  0  0  0  0  0  0  0
    6.2631   -1.6127    0.0664 C   0  0  0  0  0  0  0  0  0  0  0  0
    5.0362   -1.6555   -0.7858 C   0  0  1  0  0  0  0  0  0  0  0  0
    3.8102   -1.9976    0.0812 C   0  0  0  0  0  0  0  0  0  0  0  0
    3.6533   -0.5278    0.3137 C   0  0  2  0  0  0  0  0  0  0  0  0
    2.2700    0.0128    0.2558 C   0  0  0  0  0  0  0  0  0  0  0  0
    1.2508   -0.3251   -0.5155 N   0  0  0  0  0  0  0  0  0  0  0  0
    0.1703    0.4281   -0.2352 C   0  0  0  0  0  0  0  0  0  0  0  0
   -1.1398    0.3837   -0.8608 C   0  0  0  0  0  0  0  0  0  0  0  0
   -1.2531    0.4688   -2.2545 C   0  0  0  0  0  0  0  0  0  0  0  0
   -2.4782    0.3951   -2.8759 C   0  0  0  0  0  0  0  0  0  0  0  0
   -3.6329    0.2366   -2.1632 C   0  0  0  0  0  0  0  0  0  0  0  0
   -4.8802    0.1627   -2.7956 C   0  0  0  0  0  0  0  0  0  0  0  0
   -5.9758    0.0036   -1.9854 C   0  0  0  0  0  0  0  0  0  0  0  0
   -5.9244   -0.0861   -0.6154 C   0  0  0  0  0  0  0  0  0  0  0  0
   -7.0972   -0.2514    0.2441 C   0  0  0  0  0  0  0  0  0  0  0  0
   -8.3556   -0.3331   -0.2980 C   0  0  0  0  0  0  0  0  0  0  0  0
   -9.4790   -0.4894    0.5246 C   0  0  0  0  0  0  0  0  0  0  0  0
   -9.3380   -0.5633    1.8844 C   0  0  0  0  0  0  0  0  0  0  0  0
   -8.0739   -0.4826    2.4459 C   0  0  0  0  0  0  0  0  0  0  0  0
   -6.9808   -0.3284    1.6157 C   0  0  0  0  0  0  0  0  0  0  0  0
   -4.6829   -0.0070   -0.0659 N   0  0  0  0  0  0  0  0  0  0  0  0
   -3.5652    0.1483   -0.7939 C   0  0  0  0  0  0  0  0  0  0  0  0
   -2.3145    0.2235   -0.1683 C   0  0  0  0  0  0  0  0  0  0  0  0
    0.5489    1.2852    0.7709 C   0  0  0  0  0  0  0  0  0  0  0  0
   -0.0851    2.2951    1.4758 C   0  0  0  0  0  0  0  0  0  0  0  0
   -1.4240    2.6403    1.1971 N   0  0  0  0  0  0  0  0  0  0  0  0
    0.5382    3.0033    2.4286 N   0  0  0  0  0  0  0  0  0  0  0  0
    1.8110    2.7342    2.7129 C   0  0  0  0  0  0  0  0  0  0  0  0
    2.4472    1.7311    2.0133 C   0  0  0  0  0  0  0  0  0  0  0  0
    1.8400    1.0005    1.0452 N   0  0  0  0  0  0  0  0  0  0  0  0
    4.3631   -0.3282   -1.0352 C   0  0  0  0  0  0  0  0  0  0  0  0
    7.1262    0.2087   -2.0889 H   0  0  0  0  0  0  0  0  0  0  0  0
    7.2275    0.7873   -0.3368 H   0  0  0  0  0  0  0  0  0  0  0  0
    8.6717    0.3391   -1.2366 H   0  0  0  0  0  0  0  0  0  0  0  0
    8.5258   -2.5924    0.7216 H   0  0  0  0  0  0  0  0  0  0  0  0
    8.7293   -0.8623    1.0747 H   0  0  0  0  0  0  0  0  0  0  0  0
    9.5729   -1.5340   -0.3549 H   0  0  0  0  0  0  0  0  0  0  0  0
    6.3899   -2.6502    0.5010 H   0  0  0  0  0  0  0  0  0  0  0  0
    6.0999   -0.9702    0.9690 H   0  0  0  0  0  0  0  0  0  0  0  0
    5.0911   -2.3159   -1.6709 H   0  0  0  0  0  0  0  0  0  0  0  0
    2.9803   -2.4514   -0.4992 H   0  0  0  0  0  0  0  0  0  0  0  0
    4.0598   -2.6258    0.9567 H   0  0  0  0  0  0  0  0  0  0  0  0
    4.2609   -0.1410    1.1539 H   0  0  0  0  0  0  0  0  0  0  0  0
   -0.3428    0.5924   -2.8196 H   0  0  0  0  0  0  0  0  0  0  0  0
   -2.5698    0.4611   -3.9605 H   0  0  0  0  0  0  0  0  0  0  0  0
   -4.9246    0.2315   -3.8647 H   0  0  0  0  0  0  0  0  0  0  0  0
   -6.9506   -0.0536   -2.4800 H   0  0  0  0  0  0  0  0  0  0  0  0
   -8.5626   -0.2864   -1.3466 H   0  0  0  0  0  0  0  0  0  0  0  0
  -10.4590   -0.5518    0.0881 H   0  0  0  0  0  0  0  0  0  0  0  0
  -10.1822   -0.6855    2.5646 H   0  0  0  0  0  0  0  0  0  0  0  0
   -7.9874   -0.5433    3.5204 H   0  0  0  0  0  0  0  0  0  0  0  0
   -5.9832   -0.2635    2.0339 H   0  0  0  0  0  0  0  0  0  0  0  0
   -2.3099    0.1237    0.9299 H   0  0  0  0  0  0  0  0  0  0  0  0
   -2.1476    2.4447    1.9188 H   0  0  0  0  0  0  0  0  0  0  0  0
   -1.7221    3.0834    0.3006 H   0  0  0  0  0  0  0  0  0  0  0  0
    2.3566    3.2788    3.4736 H   0  0  0  0  0  0  0  0  0  0  0  0
    3.4652    1.5107    2.2335 H   0  0  0  0  0  0  0  0  0  0  0  0
    4.9833    0.5630   -1.0857 H   0  0  0  0  0  0  0  0  0  0  0  0
    3.5857   -0.4119   -1.8315 H   0  0  0  0  0  0  0  0  0  0  0  0
  1  2  1  0
  2  3  1  0
  2  4  1  0
  4  5  1  0
  5  6  1  0
  6  7  1  0
  7  8  1  0
  8  9  2  0
  9 10  1  0
 10 11  1  0
 11 12  2  0
 12 13  1  0
 13 14  2  0
 14 15  1  0
 15 16  2  0
 16 17  1  0
 17 18  1  0
 18 19  2  0
 19 20  1  0
 20 21  2  0
 21 22  1  0
 22 23  2  0
 17 24  2  0
 24 25  1  0
 25 26  2  0
 10 27  2  0
 27 28  1  0
 28 29  1  0
 28 30  2  0
 30 31  1  0
 31 32  2  0
 32 33  1  0
  7 34  1  0
 34  5  1  0
 33  8  1  0
 26 11  1  0
 33 27  1  0
 25 14  1  0
 23 18  1  0
  1 35  1  0
  1 36  1  0
  1 37  1  0
  3 38  1  0
  3 39  1  0
  3 40  1  0
  4 41  1  0
  4 42  1  0
  5 43  1  6
  6 44  1  0
  6 45  1  0
  7 46  1  1
 12 47  1  0
 13 48  1  0
 15 49  1  0
 16 50  1  0
 19 51  1  0
 20 52  1  0
 21 53  1  0
 22 54  1  0
 23 55  1  0
 26 56  1  0
 29 57  1  0
 29 58  1  0
 31 59  1  0
 32 60  1  0
 34 61  1  0
 34 62  1  0
M  END
$$$$
