
     RDKit          3D

 38 40  0  0  0  0  0  0  0  0999 V2000
    6.2762   -0.1241   -0.3841 C   0  0  0  0  0  0  0  0  0  0  0  0
    5.0043   -0.2903   -1.0575 N   0  0  0  0  0  0  0  0  0  0  0  0
    5.0326   -0.6468   -2.4600 C   0  0  0  0  0  0  0  0  0  0  0  0
    3.7659   -0.1136   -0.3806 C   0  0  0  0  0  0  0  0  0  0  0  0
    3.7100    0.2267    0.9542 C   0  0  0  0  0  0  0  0  0  0  0  0
    2.4978    0.3961    1.6042 C   0  0  0  0  0  0  0  0  0  0  0  0
    1.2829    0.2277    0.9284 C   0  0  0  0  0  0  0  0  0  0  0  0
    0.1842    0.4133    1.6431 N   0  0  0  0  0  0  0  0  0  0  0  0
   -1.0720    0.3159    1.2454 C   0  0  0  0  0  0  0  0  0  0  0  0
   -2.1099    0.5508    2.1544 C   0  0  0  0  0  0  0  0  0  0  0  0
   -3.4303    0.4532    1.7553 C   0  0  0  0  0  0  0  0  0  0  0  0
   -3.8133    0.1278    0.4734 C   0  0  0  0  0  0  0  0  0  0  0  0
   -5.0437    0.0490    0.1488 N   0  0  0  0  0  4  0  0  0  0  0  0
   -5.4395   -0.2948   -1.2050 C   0  0  0  0  0  0  0  0  0  0  0  0
   -6.0665    0.3092    1.1573 C   0  0  0  0  0  0  0  0  0  0  0  0
   -2.8192   -0.1135   -0.4612 C   0  0  0  0  0  0  0  0  0  0  0  0
   -1.4878   -0.0286   -0.1113 C   0  0  0  0  0  0  0  0  0  0  0  0
   -0.1701   -0.3038   -1.1750 S   0  0  0  0  0  0  0  0  0  0  0  0
    1.3519   -0.1090   -0.3919 C   0  0  0  0  0  0  0  0  0  0  0  0
    2.5680   -0.2782   -1.0413 C   0  0  0  0  0  0  0  0  0  0  0  0
    7.0831    0.0837   -1.1240 H   0  0  0  0  0  0  0  0  0  0  0  0
    6.2833    0.7372    0.3160 H   0  0  0  0  0  0  0  0  0  0  0  0
    6.5188   -1.0249    0.2386 H   0  0  0  0  0  0  0  0  0  0  0  0
    4.2572   -0.0375   -3.0115 H   0  0  0  0  0  0  0  0  0  0  0  0
    4.8383   -1.7302   -2.5943 H   0  0  0  0  0  0  0  0  0  0  0  0
    5.9977   -0.3273   -2.9034 H   0  0  0  0  0  0  0  0  0  0  0  0
    4.6578    0.3606    1.4913 H   0  0  0  0  0  0  0  0  0  0  0  0
    2.5084    0.6646    2.6579 H   0  0  0  0  0  0  0  0  0  0  0  0
   -1.8744    0.8107    3.1774 H   0  0  0  0  0  0  0  0  0  0  0  0
   -4.2541    0.6353    2.4597 H   0  0  0  0  0  0  0  0  0  0  0  0
   -5.0280    0.4272   -1.9501 H   0  0  0  0  0  0  0  0  0  0  0  0
   -6.5514   -0.2099   -1.3008 H   0  0  0  0  0  0  0  0  0  0  0  0
   -5.1263   -1.3449   -1.4512 H   0  0  0  0  0  0  0  0  0  0  0  0
   -7.0701    0.1954    0.6976 H   0  0  0  0  0  0  0  0  0  0  0  0
   -5.9265    1.3425    1.4872 H   0  0  0  0  0  0  0  0  0  0  0  0
   -6.0184   -0.4304    1.9827 H   0  0  0  0  0  0  0  0  0  0  0  0
   -3.0312   -0.3743   -1.4872 H   0  0  0  0  0  0  0  0  0  0  0  0
    2.5142   -0.5447   -2.0866 H   0  0  0  0  0  0  0  0  0  0  0  0
  1  2  1  0
  2  3  1  0
  2  4  1  0
  4  5  2  0
  5  6  1  0
  6  7  2  0
  7  8  1  0
  8  9  2  0
  9 10  1  0
 10 11  2  0
 11 12  1  0
 12 13  2  3
 13 14  1  0
 13 15  1  0
 12 16  1  0
 16 17  2  0
 17 18  1  0
 18 19  1  0
 19 20  2  0
 20  4  1  0
 19  7  1  0
 17  9  1  0
  1 21  1  0
  1 22  1  0
  1 23  1  0
  3 24  1  0
  3 25  1  0
  3 26  1  0
  5 27  1  0
  6 28  1  0
 10 29  1  0
 11 30  1  0
 14 31  1  0
 14 32  1  0
 14 33  1  0
 15 34  1  0
 15 35  1  0
 15 36  1  0
 16 37  1  0
 20 38  1  0
M  CHG  1  13   1
M  END
$$$$
