
     RDKit          3D

 49 51  0  0  0  0  0  0  0  0999 V2000
   -5.8093    2.4677    0.8227 C   0  0  0  0  0  0  0  0  0  0  0  0
   -5.6428    1.1974    0.2427 O   0  0  0  0  0  0  0  0  0  0  0  0
   -4.3695    0.7180   -0.0151 C   0  0  0  0  0  0  0  0  0  0  0  0
   -3.2134    1.4647    0.2811 C   0  0  0  0  0  0  0  0  0  0  0  0
   -1.9669    0.9751    0.0197 C   0  0  0  0  0  0  0  0  0  0  0  0
   -0.7223    1.7238    0.3118 C   0  0  0  0  0  0  0  0  0  0  0  0
   -0.7502    2.9769    0.8694 C   0  0  0  0  0  0  0  0  0  0  0  0
    0.3827    3.6563    1.1386 N   0  0  0  0  0  0  0  0  0  0  0  0
    1.5495    3.0706    0.8449 C   0  0  0  0  0  0  0  0  0  0  0  0
    2.8363    3.4859    0.9908 N   0  0  0  0  0  0  0  0  0  0  0  0
    3.6734    2.5376    0.5455 C   0  0  0  0  0  0  0  0  0  0  0  0
    2.9570    1.4555    0.0858 C   0  0  0  0  0  0  0  0  0  0  0  0
    3.4356    0.2028   -0.4795 C   0  0  0  0  0  0  0  0  0  0  0  0
    2.8074   -0.2956   -1.4326 O   0  0  0  0  0  0  0  0  0  0  0  0
    4.5875   -0.4640    0.0190 N   0  0  0  0  0  0  0  0  0  0  0  0
    5.1053   -1.7023   -0.4998 C   0  0  0  0  0  0  0  0  0  0  0  0
    6.5636   -1.4819   -0.8626 C   0  0  0  0  0  0  0  0  0  0  0  0
    5.0785   -2.7228    0.6372 C   0  0  0  0  0  0  0  0  0  0  0  0
    1.6108    1.8056    0.2796 C   0  0  0  0  0  0  0  0  0  0  0  0
    0.4737    1.1505    0.0211 N   0  0  0  0  0  0  0  0  0  0  0  0
   -1.8790   -0.2870   -0.5480 C   0  0  0  0  0  0  0  0  0  0  0  0
   -3.0109   -1.0246   -0.8404 C   0  0  0  0  0  0  0  0  0  0  0  0
   -2.9592   -2.2883   -1.4104 O   0  0  0  0  0  0  0  0  0  0  0  0
   -1.8160   -2.9966   -1.7672 C   0  0  0  0  0  0  0  0  0  0  0  0
   -4.2794   -0.5363   -0.5802 C   0  0  0  0  0  0  0  0  0  0  0  0
   -5.4119   -1.2921   -0.8795 O   0  0  0  0  0  0  0  0  0  0  0  0
   -6.0279   -2.1943    0.0024 C   0  0  0  0  0  0  0  0  0  0  0  0
   -5.6439    3.2379    0.0095 H   0  0  0  0  0  0  0  0  0  0  0  0
   -6.8814    2.6127    1.1406 H   0  0  0  0  0  0  0  0  0  0  0  0
   -5.1141    2.6928    1.6485 H   0  0  0  0  0  0  0  0  0  0  0  0
   -3.3374    2.4426    0.7258 H   0  0  0  0  0  0  0  0  0  0  0  0
   -1.7257    3.4499    1.1093 H   0  0  0  0  0  0  0  0  0  0  0  0
    3.0724    4.4139    1.3941 H   0  0  0  0  0  0  0  0  0  0  0  0
    4.7710    2.5701    0.5246 H   0  0  0  0  0  0  0  0  0  0  0  0
    5.1136   -0.0387    0.8227 H   0  0  0  0  0  0  0  0  0  0  0  0
    4.5007   -2.0909   -1.3435 H   0  0  0  0  0  0  0  0  0  0  0  0
    6.8673   -0.4296   -0.7077 H   0  0  0  0  0  0  0  0  0  0  0  0
    6.7714   -1.7189   -1.9222 H   0  0  0  0  0  0  0  0  0  0  0  0
    7.2441   -2.1346   -0.2482 H   0  0  0  0  0  0  0  0  0  0  0  0
    5.0169   -2.1768    1.5958 H   0  0  0  0  0  0  0  0  0  0  0  0
    6.0057   -3.3564    0.6065 H   0  0  0  0  0  0  0  0  0  0  0  0
    4.1652   -3.3319    0.5394 H   0  0  0  0  0  0  0  0  0  0  0  0
   -0.9040   -0.6639   -0.7484 H   0  0  0  0  0  0  0  0  0  0  0  0
   -0.8706   -2.4305   -1.7168 H   0  0  0  0  0  0  0  0  0  0  0  0
   -1.6994   -3.8466   -1.0302 H   0  0  0  0  0  0  0  0  0  0  0  0
   -1.8638   -3.4182   -2.7968 H   0  0  0  0  0  0  0  0  0  0  0  0
   -6.8704   -1.7416    0.5826 H   0  0  0  0  0  0  0  0  0  0  0  0
   -6.5049   -3.0511   -0.5552 H   0  0  0  0  0  0  0  0  0  0  0  0
   -5.3154   -2.5929    0.7676 H   0  0  0  0  0  0  0  0  0  0  0  0
  1  2  1  0
  2  3  1  0
  3  4  2  0
  4  5  1  0
  5  6  1  0
  6  7  2  0
  7  8  1  0
  8  9  2  0
  9 10  1  0
 10 11  1  0
 11 12  2  0
 12 13  1  0
 13 14  2  0
 13 15  1  0
 15 16  1  0
 16 17  1  0
 16 18  1  0
 12 19  1  0
 19 20  2  0
  5 21  2  0
 21 22  1  0
 22 23  1  0
 23 24  1  0
 22 25  2  0
 25 26  1  0
 26 27  1  0
 25  3  1  0
 20  6  1  0
 19  9  1  0
  1 28  1  0
  1 29  1  0
  1 30  1  0
  4 31  1  0
  7 32  1  0
 10 33  1  0
 11 34  1  0
 15 35  1  0
 16 36  1  0
 17 37  1  0
 17 38  1  0
 17 39  1  0
 18 40  1  0
 18 41  1  0
 18 42  1  0
 21 43  1  0
 24 44  1  0
 24 45  1  0
 24 46  1  0
 27 47  1  0
 27 48  1  0
 27 49  1  0
M  END
$$$$
