
     RDKit          3D

 38 40  0  0  0  0  0  0  0  0999 V2000
   -3.3156   -3.4587   -2.2332 O   0  0  0  0  0  0  0  0  0  0  0  0
   -3.1277   -3.6997   -1.0329 C   0  0  0  0  0  0  0  0  0  0  0  0
   -3.8698   -4.6879   -0.4131 O   0  0  0  0  0  0  0  0  0  0  0  0
   -2.0970   -2.9035   -0.3012 C   0  0  0  0  0  0  0  0  0  0  0  0
   -1.4412   -1.9011   -1.2139 C   0  0  0  0  0  0  0  0  0  0  0  0
   -0.4394   -1.1137   -0.5332 N   0  0  0  0  0  0  0  0  0  0  0  0
    0.8687   -1.3350   -0.3759 C   0  0  0  0  0  0  0  0  0  0  0  0
    1.4597   -0.3250    0.3437 C   0  0  0  0  0  0  0  0  0  0  0  0
    2.8899   -0.2068    0.7210 C   0  0  0  0  0  0  0  0  0  0  0  0
    3.6306    0.7244   -0.0732 N   0  0  0  0  0  0  0  0  0  0  0  0
    3.8404    2.0363    0.1145 C   0  0  0  0  0  0  0  0  0  0  0  0
    4.6300    2.5019   -0.9400 C   0  0  0  0  0  0  0  0  0  0  0  0
    4.8828    1.4761   -1.7402 N   0  0  0  0  0  0  0  0  0  0  0  0
    4.2783    0.3904   -1.2198 C   0  0  0  0  0  0  0  0  0  0  0  0
    0.4573    0.5700    0.6470 C   0  0  0  0  0  0  0  0  0  0  0  0
    0.4017    1.7630    1.3336 C   0  0  0  0  0  0  0  0  0  0  0  0
   -0.7744    2.4623    1.4861 C   0  0  0  0  0  0  0  0  0  0  0  0
   -1.9413    1.9618    0.9380 C   0  0  0  0  0  0  0  0  0  0  0  0
   -3.2231    2.6818    1.0797 C   0  0  0  0  0  0  0  0  0  0  0  0
   -3.0813    3.7363    1.9626 F   0  0  0  0  0  0  0  0  0  0  0  0
   -4.2260    1.8746    1.5904 F   0  0  0  0  0  0  0  0  0  0  0  0
   -3.6322    3.2378   -0.1346 F   0  0  0  0  0  0  0  0  0  0  0  0
   -1.8654    0.7716    0.2576 C   0  0  0  0  0  0  0  0  0  0  0  0
   -0.7163    0.0511    0.0868 C   0  0  0  0  0  0  0  0  0  0  0  0
   -4.7211   -5.0876   -0.7979 H   0  0  0  0  0  0  0  0  0  0  0  0
   -1.3284   -3.6284    0.0308 H   0  0  0  0  0  0  0  0  0  0  0  0
   -2.5661   -2.4681    0.5745 H   0  0  0  0  0  0  0  0  0  0  0  0
   -0.9920   -2.4179   -2.0855 H   0  0  0  0  0  0  0  0  0  0  0  0
   -2.2618   -1.2615   -1.6241 H   0  0  0  0  0  0  0  0  0  0  0  0
    1.3837   -2.1914   -0.7634 H   0  0  0  0  0  0  0  0  0  0  0  0
    3.3896   -1.2194    0.7226 H   0  0  0  0  0  0  0  0  0  0  0  0
    2.9939    0.1301    1.7935 H   0  0  0  0  0  0  0  0  0  0  0  0
    3.4770    2.6321    0.9205 H   0  0  0  0  0  0  0  0  0  0  0  0
    4.9816    3.5193   -1.0899 H   0  0  0  0  0  0  0  0  0  0  0  0
    4.3231   -0.5936   -1.6774 H   0  0  0  0  0  0  0  0  0  0  0  0
    1.2938    2.1813    1.7751 H   0  0  0  0  0  0  0  0  0  0  0  0
   -0.7831    3.4081    2.0377 H   0  0  0  0  0  0  0  0  0  0  0  0
   -2.7792    0.3889   -0.1662 H   0  0  0  0  0  0  0  0  0  0  0  0
  1  2  2  0
  2  3  1  0
  2  4  1  0
  4  5  1  0
  5  6  1  0
  6  7  1  0
  7  8  2  0
  8  9  1  0
  9 10  1  0
 10 11  1  0
 11 12  2  0
 12 13  1  0
 13 14  2  0
  8 15  1  0
 15 16  2  0
 16 17  1  0
 17 18  2  0
 18 19  1  0
 19 20  1  0
 19 21  1  0
 19 22  1  0
 18 23  1  0
 23 24  2  0
 24  6  1  0
 14 10  1  0
 24 15  1  0
  3 25  1  0
  4 26  1  0
  4 27  1  0
  5 28  1  0
  5 29  1  0
  7 30  1  0
  9 31  1  0
  9 32  1  0
 11 33  1  0
 12 34  1  0
 14 35  1  0
 16 36  1  0
 17 37  1  0
 23 38  1  0
M  END
$$$$
