
     RDKit          3D

 54 56  0  0  0  0  0  0  0  0999 V2000
    0.6448   -0.0735   -0.3819 C   0  0  1  0  0  0  0  0  0  0  0  0
   -0.1092    0.3721    0.8535 C   0  0  0  0  0  0  0  0  0  0  0  0
   -0.8322   -0.7618    1.3977 N   0  0  0  0  0  0  0  0  0  0  0  0
    0.1515   -1.6623    1.9691 C   0  0  0  0  0  0  0  0  0  0  0  0
    1.2987   -1.8572    1.0154 C   0  0  0  0  0  0  0  0  0  0  0  0
    1.0050   -1.4577   -0.3411 N   0  0  0  0  0  0  0  0  0  0  0  0
    2.4597   -1.6731   -1.2491 S   0  0  0  0  0  0  0  0  0  0  0  0
    2.8625   -3.1160   -1.1480 O   0  0  0  0  0  0  0  0  0  0  0  0
    2.2660   -1.3430   -2.7077 O   0  0  0  0  0  0  0  0  0  0  0  0
    3.7687   -0.6932   -0.6781 C   0  0  0  0  0  0  0  0  0  0  0  0
    4.0512    0.5847   -1.1202 C   0  0  0  0  0  0  0  0  0  0  0  0
    5.1263    1.3060   -0.6070 C   0  0  0  0  0  0  0  0  0  0  0  0
    5.9185    0.7171    0.3651 C   0  0  0  0  0  0  0  0  0  0  0  0
    6.9987    1.3941    0.9060 O   0  0  0  0  0  0  0  0  0  0  0  0
    7.2718    2.6949    0.4442 C   0  0  0  0  0  0  0  0  0  0  0  0
    5.6825   -0.5547    0.8427 C   0  0  0  0  0  0  0  0  0  0  0  0
    4.6019   -1.2240    0.2972 C   0  0  0  0  0  0  0  0  0  0  0  0
   -2.1916   -1.1694    1.4949 C   0  0  0  0  0  0  0  0  0  0  0  0
   -2.6529   -2.2352    2.0258 O   0  0  0  0  0  0  0  0  0  0  0  0
   -3.2567   -0.4312    1.0032 O   0  0  0  0  0  0  0  0  0  0  0  0
   -4.6084   -0.8967    1.1322 C   0  0  0  0  0  0  0  0  0  0  0  0
   -5.5625    0.0467    0.5403 C   0  0  0  0  0  0  0  0  0  0  0  0
   -6.1673    1.0865    1.2055 C   0  0  0  0  0  0  0  0  0  0  0  0
   -7.0625    1.9724    0.6524 C   0  0  0  0  0  0  0  0  0  0  0  0
   -7.3899    1.8139   -0.6860 C   0  0  0  0  0  0  0  0  0  0  0  0
   -6.7986    0.7714   -1.3973 C   0  0  0  0  0  0  0  0  0  0  0  0
   -5.9035   -0.0994   -0.8085 C   0  0  0  0  0  0  0  0  0  0  0  0
   -0.2623    0.2147   -1.5477 C   0  0  0  0  0  0  0  0  0  0  0  0
   -0.5360    1.4622   -1.5148 O   0  0  0  0  0  0  0  0  0  0  0  0
   -0.7974   -0.6188   -2.5682 N   0  0  0  0  0  0  0  0  0  0  0  0
   -1.5703    0.1571   -3.3858 O   0  0  0  0  0  0  0  0  0  0  0  0
    1.5401    0.5617   -0.4431 H   0  0  0  0  0  0  0  0  0  0  0  0
   -0.9025    1.1270    0.5864 H   0  0  0  0  0  0  0  0  0  0  0  0
    0.5196    0.8394    1.6114 H   0  0  0  0  0  0  0  0  0  0  0  0
   -0.2745   -2.6242    2.3028 H   0  0  0  0  0  0  0  0  0  0  0  0
    0.5852   -1.0942    2.8436 H   0  0  0  0  0  0  0  0  0  0  0  0
    2.2261   -1.3252    1.3115 H   0  0  0  0  0  0  0  0  0  0  0  0
    1.5834   -2.9492    0.9737 H   0  0  0  0  0  0  0  0  0  0  0  0
    3.4116    1.0081   -1.8774 H   0  0  0  0  0  0  0  0  0  0  0  0
    5.3183    2.2982   -0.9729 H   0  0  0  0  0  0  0  0  0  0  0  0
    6.4826    3.3784    0.7594 H   0  0  0  0  0  0  0  0  0  0  0  0
    8.2557    3.0163    0.8482 H   0  0  0  0  0  0  0  0  0  0  0  0
    7.3474    2.6683   -0.6636 H   0  0  0  0  0  0  0  0  0  0  0  0
    6.2924   -1.0058    1.5896 H   0  0  0  0  0  0  0  0  0  0  0  0
    4.4157   -2.2226    0.6714 H   0  0  0  0  0  0  0  0  0  0  0  0
   -4.8132   -1.1891    2.1720 H   0  0  0  0  0  0  0  0  0  0  0  0
   -4.6224   -1.8507    0.5329 H   0  0  0  0  0  0  0  0  0  0  0  0
   -5.9004    1.2025    2.2653 H   0  0  0  0  0  0  0  0  0  0  0  0
   -7.5081    2.7790    1.2377 H   0  0  0  0  0  0  0  0  0  0  0  0
   -8.0866    2.4734   -1.1873 H   0  0  0  0  0  0  0  0  0  0  0  0
   -6.9958    0.5770   -2.4362 H   0  0  0  0  0  0  0  0  0  0  0  0
   -5.4364   -0.9205   -1.3649 H   0  0  0  0  0  0  0  0  0  0  0  0
   -0.4566   -1.6003   -2.4197 H   0  0  0  0  0  0  0  0  0  0  0  0
   -1.3878   -0.0362   -4.3448 H   0  0  0  0  0  0  0  0  0  0  0  0
  1  2  1  0
  2  3  1  0
  3  4  1  0
  4  5  1  0
  5  6  1  0
  6  7  1  0
  7  8  2  0
  7  9  2  0
  7 10  1  0
 10 11  2  0
 11 12  1  0
 12 13  2  0
 13 14  1  0
 14 15  1  0
 13 16  1  0
 16 17  2  0
  3 18  1  0
 18 19  2  0
 18 20  1  0
 20 21  1  0
 21 22  1  0
 22 23  2  0
 23 24  1  0
 24 25  2  0
 25 26  1  0
 26 27  2  0
  1 28  1  0
 28 29  2  0
 28 30  1  0
 30 31  1  0
  6  1  1  0
 17 10  1  0
 27 22  1  0
  1 32  1  6
  2 33  1  0
  2 34  1  0
  4 35  1  0
  4 36  1  0
  5 37  1  0
  5 38  1  0
 11 39  1  0
 12 40  1  0
 15 41  1  0
 15 42  1  0
 15 43  1  0
 16 44  1  0
 17 45  1  0
 21 46  1  0
 21 47  1  0
 23 48  1  0
 24 49  1  0
 25 50  1  0
 26 51  1  0
 27 52  1  0
 30 53  1  0
 31 54  1  0
M  END
$$$$
