
     RDKit          3D

 38 41  0  0  0  0  0  0  0  0999 V2000
    4.2693    3.0232    0.5300 O   0  0  0  0  0  0  0  0  0  0  0  0
    3.7681    1.8835    0.2919 C   0  0  0  0  0  0  0  0  0  0  0  0
    2.4427    1.7810   -0.0337 N   0  0  0  0  0  0  0  0  0  0  0  0
    1.9048    0.5813   -0.2868 C   0  0  0  0  0  0  0  0  0  0  0  0
    0.4968    0.4688   -0.6331 C   0  0  0  0  0  0  0  0  0  0  0  0
   -0.3429    1.5251   -0.7224 C   0  0  0  0  0  0  0  0  0  0  0  0
   -1.6792    1.3628   -1.0568 C   0  0  0  0  0  0  0  0  0  0  0  0
   -2.1810    0.1094   -1.3068 C   0  0  0  0  0  0  0  0  0  0  0  0
   -3.5415   -0.0694   -1.6487 O   0  0  0  0  0  0  0  0  0  0  0  0
   -4.4366   -0.2734   -0.6196 C   0  0  0  0  0  0  0  0  0  0  0  0
   -4.0783   -0.3120    0.7125 C   0  0  0  0  0  0  0  0  0  0  0  0
   -4.9868   -0.5163    1.7172 C   0  0  0  0  0  0  0  0  0  0  0  0
   -6.3142   -0.6923    1.4068 C   0  0  0  0  0  0  0  0  0  0  0  0
   -7.5405   -0.9590    2.6310 Cl  0  0  0  0  0  0  0  0  0  0  0  0
   -6.7110   -0.6596    0.0774 C   0  0  0  0  0  0  0  0  0  0  0  0
   -5.7674   -0.4509   -0.9156 C   0  0  0  0  0  0  0  0  0  0  0  0
   -6.2655   -0.4083   -2.6075 Cl  0  0  0  0  0  0  0  0  0  0  0  0
   -1.3494   -0.9682   -1.2216 C   0  0  0  0  0  0  0  0  0  0  0  0
   -0.0243   -0.7974   -0.8890 C   0  0  0  0  0  0  0  0  0  0  0  0
    2.6751   -0.5458   -0.2216 N   0  0  0  0  0  0  0  0  0  0  0  0
    3.9749   -0.5066    0.0913 C   0  0  0  0  0  0  0  0  0  0  0  0
    4.7304   -1.6629    0.1499 C   0  0  0  0  0  0  0  0  0  0  0  0
    6.0746   -1.6266    0.4730 C   0  0  0  0  0  0  0  0  0  0  0  0
    6.6130   -0.3689    0.7323 C   0  0  0  0  0  0  0  0  0  0  0  0
    5.8540    0.7843    0.6725 C   0  0  0  0  0  0  0  0  0  0  0  0
    4.5247    0.7352    0.3516 C   0  0  0  0  0  0  0  0  0  0  0  0
    1.8827    2.6462   -0.0763 H   0  0  0  0  0  0  0  0  0  0  0  0
   -0.0048    2.5422   -0.5359 H   0  0  0  0  0  0  0  0  0  0  0  0
   -2.3517    2.2324   -1.1258 H   0  0  0  0  0  0  0  0  0  0  0  0
   -3.0269   -0.1717    0.9448 H   0  0  0  0  0  0  0  0  0  0  0  0
   -4.6979   -0.5445    2.7485 H   0  0  0  0  0  0  0  0  0  0  0  0
   -7.7516   -0.7982   -0.1560 H   0  0  0  0  0  0  0  0  0  0  0  0
   -1.7368   -1.9739   -1.4186 H   0  0  0  0  0  0  0  0  0  0  0  0
    0.6367   -1.6583   -0.8218 H   0  0  0  0  0  0  0  0  0  0  0  0
    4.3042   -2.6358   -0.0529 H   0  0  0  0  0  0  0  0  0  0  0  0
    6.6775   -2.5229    0.5226 H   0  0  0  0  0  0  0  0  0  0  0  0
    7.6613   -0.2904    0.9895 H   0  0  0  0  0  0  0  0  0  0  0  0
    6.2972    1.7379    0.8774 H   0  0  0  0  0  0  0  0  0  0  0  0
  1  2  2  0
  2  3  1  0
  3  4  1  0
  4  5  1  0
  5  6  2  0
  6  7  1  0
  7  8  2  0
  8  9  1  0
  9 10  1  0
 10 11  2  0
 11 12  1  0
 12 13  2  0
 13 14  1  0
 13 15  1  0
 15 16  2  0
 16 17  1  0
  8 18  1  0
 18 19  2  0
  4 20  2  0
 20 21  1  0
 21 22  2  0
 22 23  1  0
 23 24  2  0
 24 25  1  0
 25 26  2  0
 26  2  1  0
 19  5  1  0
 26 21  1  0
 16 10  1  0
  3 27  1  0
  6 28  1  0
  7 29  1  0
 11 30  1  0
 12 31  1  0
 15 32  1  0
 18 33  1  0
 19 34  1  0
 22 35  1  0
 23 36  1  0
 24 37  1  0
 25 38  1  0
M  END
$$$$
