
     RDKit          3D

 58 63  0  0  0  0  0  0  0  0999 V2000
    1.1701    4.9555   -2.0207 C   0  0  0  0  0  0  0  0  0  0  0  0
    0.8156    3.6979   -2.5090 O   0  0  0  0  0  0  0  0  0  0  0  0
    0.5845    2.5841   -1.7441 C   0  0  0  0  0  0  0  0  0  0  0  0
    0.6847    2.6067   -0.3767 C   0  0  0  0  0  0  0  0  0  0  0  0
    0.4479    1.4831    0.3424 C   0  0  0  0  0  0  0  0  0  0  0  0
    0.0927    0.2427   -0.2229 C   0  0  0  0  0  0  0  0  0  0  0  0
   -0.1402   -0.9261    0.5833 C   0  0  0  0  0  0  0  0  0  0  0  0
    0.8133   -1.8452    0.9506 C   0  0  0  0  0  0  0  0  0  0  0  0
    2.1566   -1.9957    0.7342 C   0  0  0  0  0  0  0  0  0  0  0  0
    2.8352   -1.0814   -0.0102 C   0  0  0  0  0  0  0  0  0  0  0  0
    4.1983   -1.2796   -0.2005 C   0  0  0  0  0  0  0  0  0  0  0  0
    4.9558   -0.3689   -0.9610 O   0  0  0  0  0  0  0  0  0  0  0  0
    4.2900    0.7605   -1.5303 C   0  0  0  0  0  0  0  0  0  0  0  0
    4.8862   -2.3475    0.3242 C   0  0  0  0  0  0  0  0  0  0  0  0
    6.2407   -2.5522    0.1400 O   0  0  0  0  0  0  0  0  0  0  0  0
    4.1878   -3.2638    1.0745 C   0  0  0  0  0  0  0  0  0  0  0  0
    2.8412   -3.0922    1.2780 C   0  0  0  0  0  0  0  0  0  0  0  0
    2.1919   -3.9628    1.9877 O   0  0  0  0  0  0  0  0  0  0  0  0
    0.9129   -3.8872    2.2373 C   0  0  0  0  0  0  0  0  0  0  0  0
    0.3277   -4.7329    2.9161 O   0  0  0  0  0  0  0  0  0  0  0  0
    0.2193   -2.8223    1.7158 C   0  0  0  0  0  0  0  0  0  0  0  0
   -1.0935   -2.5113    1.8224 N   0  0  0  0  0  0  0  0  0  0  0  0
   -2.1084   -3.1204    2.4498 C   0  0  0  0  0  0  0  0  0  0  0  0
   -3.3795   -2.6430    2.4400 C   0  0  0  0  0  0  0  0  0  0  0  0
   -3.6380   -1.4873    1.7589 C   0  0  0  0  0  0  0  0  0  0  0  0
   -4.9201   -0.9647    1.7230 C   0  0  0  0  0  0  0  0  0  0  0  0
   -5.2030    0.1932    1.0464 C   0  0  0  0  0  0  0  0  0  0  0  0
   -6.5046    0.6968    1.0271 O   0  0  0  0  0  0  0  0  0  0  0  0
   -4.1629    0.8466    0.3849 C   0  0  0  0  0  0  0  0  0  0  0  0
   -4.4252    2.0078   -0.2986 O   0  0  0  0  0  0  0  0  0  0  0  0
   -3.4445    2.7310   -0.9911 C   0  0  0  0  0  0  0  0  0  0  0  0
   -2.8791    0.3425    0.4086 C   0  0  0  0  0  0  0  0  0  0  0  0
   -2.6243   -0.8145    1.0910 C   0  0  0  0  0  0  0  0  0  0  0  0
   -1.3286   -1.3517    1.1334 C   0  0  0  0  0  0  0  0  0  0  0  0
    0.0030    0.2665   -1.6085 C   0  0  0  0  0  0  0  0  0  0  0  0
    0.2387    1.3882   -2.3364 C   0  0  0  0  0  0  0  0  0  0  0  0
    0.1271    1.3279   -3.7298 O   0  0  0  0  0  0  0  0  0  0  0  0
    1.8263    4.8495   -1.1201 H   0  0  0  0  0  0  0  0  0  0  0  0
    1.6829    5.5945   -2.7460 H   0  0  0  0  0  0  0  0  0  0  0  0
    0.2392    5.4715   -1.6725 H   0  0  0  0  0  0  0  0  0  0  0  0
    0.9562    3.5261    0.1631 H   0  0  0  0  0  0  0  0  0  0  0  0
    0.5315    1.5197    1.4175 H   0  0  0  0  0  0  0  0  0  0  0  0
    2.4393   -0.2252   -0.4665 H   0  0  0  0  0  0  0  0  0  0  0  0
    3.4952    0.4027   -2.2017 H   0  0  0  0  0  0  0  0  0  0  0  0
    3.8187    1.3760   -0.7099 H   0  0  0  0  0  0  0  0  0  0  0  0
    5.0397    1.4064   -2.0114 H   0  0  0  0  0  0  0  0  0  0  0  0
    6.9133   -1.9153    0.5799 H   0  0  0  0  0  0  0  0  0  0  0  0
    4.7098   -4.1248    1.5051 H   0  0  0  0  0  0  0  0  0  0  0  0
   -1.8694   -4.0513    2.9911 H   0  0  0  0  0  0  0  0  0  0  0  0
   -4.1621   -3.1644    2.9569 H   0  0  0  0  0  0  0  0  0  0  0  0
   -5.6931   -1.5180    2.2581 H   0  0  0  0  0  0  0  0  0  0  0  0
   -7.0232    0.6751    0.1369 H   0  0  0  0  0  0  0  0  0  0  0  0
   -2.9638    2.0758   -1.7485 H   0  0  0  0  0  0  0  0  0  0  0  0
   -3.9402    3.5879   -1.4860 H   0  0  0  0  0  0  0  0  0  0  0  0
   -2.7258    3.1260   -0.2424 H   0  0  0  0  0  0  0  0  0  0  0  0
   -2.1542    0.8827   -0.1067 H   0  0  0  0  0  0  0  0  0  0  0  0
   -0.2711   -0.6835   -2.0713 H   0  0  0  0  0  0  0  0  0  0  0  0
   -0.2185    2.1082   -4.2672 H   0  0  0  0  0  0  0  0  0  0  0  0
  1  2  1  0
  2  3  1  0
  3  4  2  0
  4  5  1  0
  5  6  2  0
  6  7  1  0
  7  8  1  0
  8  9  1  0
  9 10  2  0
 10 11  1  0
 11 12  1  0
 12 13  1  0
 11 14  2  0
 14 15  1  0
 14 16  1  0
 16 17  2  0
 17 18  1  0
 18 19  1  0
 19 20  2  0
 19 21  1  0
 21 22  1  0
 22 23  1  0
 23 24  2  0
 24 25  1  0
 25 26  2  0
 26 27  1  0
 27 28  1  0
 27 29  2  0
 29 30  1  0
 30 31  1  0
 29 32  1  0
 32 33  2  0
 33 34  1  0
  6 35  1  0
 35 36  2  0
 36 37  1  0
 36  3  1  0
 34  7  2  0
 21  8  2  0
 34 22  1  0
 17  9  1  0
 33 25  1  0
  1 38  1  0
  1 39  1  0
  1 40  1  0
  4 41  1  0
  5 42  1  0
 10 43  1  0
 13 44  1  0
 13 45  1  0
 13 46  1  0
 15 47  1  0
 16 48  1  0
 23 49  1  0
 24 50  1  0
 26 51  1  0
 28 52  1  0
 31 53  1  0
 31 54  1  0
 31 55  1  0
 32 56  1  0
 35 57  1  0
 37 58  1  0
M  END
$$$$
