
     RDKit          3D

 61 64  0  0  0  0  0  0  0  0999 V2000
   -2.3420    1.1249   -0.5724 C   0  0  2  0  0  0  0  0  0  0  0  0
   -2.7367    2.1822   -1.5598 C   0  0  0  0  0  0  0  0  0  0  0  0
   -3.7030    1.8438   -2.5388 N   0  0  0  0  0  0  0  0  0  0  0  0
   -3.2698    1.2536   -3.7513 C   0  0  0  0  0  0  0  0  0  0  0  0
   -2.5302   -0.0661   -3.4717 C   0  0  0  0  0  0  0  0  0  0  0  0
   -1.3361    0.3253   -2.6702 C   0  0  0  0  0  0  0  0  0  0  0  0
   -1.4741    0.0887   -1.1803 C   0  0  1  0  0  0  0  0  0  0  0  0
   -0.1807    0.0411   -0.5899 O   0  0  0  0  0  0  0  0  0  0  0  0
    0.4681   -0.9817    0.0274 C   0  0  0  0  0  0  0  0  0  0  0  0
   -0.0869   -2.0616    0.1431 O   0  0  0  0  0  0  0  0  0  0  0  0
    1.7606   -0.4537    0.4040 C   0  0  0  0  0  0  0  0  0  0  0  0
    2.6642   -1.3713    0.9840 C   0  0  0  0  0  0  0  0  0  0  0  0
    3.9369   -1.0389    1.3790 C   0  0  0  0  0  0  0  0  0  0  0  0
    4.4971    0.2106    1.2649 C   0  0  0  0  0  0  0  0  0  0  0  0
    3.5729    1.1254    0.6832 C   0  0  0  0  0  0  0  0  0  0  0  0
    2.3166    0.7790    0.2983 C   0  0  0  0  0  0  0  0  0  0  0  0
    5.8380    0.7351    1.4789 C   0  0  0  0  0  0  0  0  0  0  0  0
    5.6744    1.9155    1.9584 O   0  0  0  0  0  0  0  0  0  0  0  0
    6.8460   -0.1851    1.0986 C   0  0  0  0  0  0  0  0  0  0  0  0
    7.8899    0.8980    1.3189 C   0  0  0  0  0  0  0  0  0  0  0  0
    9.3240    0.9162    1.1794 C   0  0  0  0  0  0  0  0  0  0  0  0
    9.9131   -0.2691    0.7628 C   0  0  0  0  0  0  0  0  0  0  0  0
    9.1138   -1.3466    0.5186 C   0  0  0  0  0  0  0  0  0  0  0  0
    7.8140   -1.0677    0.7338 C   0  0  0  0  0  0  0  0  0  0  0  0
    6.7664   -2.0284    0.5425 O   0  0  0  0  0  0  0  0  0  0  0  0
   -3.3670    0.6778    0.3151 N   0  0  0  0  0  0  0  0  0  0  0  0
   -4.0124    0.3294    1.5126 C   0  0  0  0  0  0  0  0  0  0  0  0
   -3.1495    0.4886    2.4237 O   0  0  0  0  0  0  0  0  0  0  0  0
   -5.4076   -0.1108    1.5273 C   0  0  0  0  0  0  0  0  0  0  0  0
   -6.2922    0.4930    0.6182 C   0  0  0  0  0  0  0  0  0  0  0  0
   -7.5791    0.0652    0.6140 C   0  0  0  0  0  0  0  0  0  0  0  0
   -8.0549   -0.9326    1.4582 C   0  0  0  0  0  0  0  0  0  0  0  0
   -9.4040   -1.1574    1.2302 O   0  0  0  0  0  0  0  0  0  0  0  0
   -7.2067   -1.5352    2.3536 C   0  0  0  0  0  0  0  0  0  0  0  0
   -5.9023   -1.0831    2.3400 C   0  0  0  0  0  0  0  0  0  0  0  0
   -1.6280    1.7137    0.1415 H   0  0  0  0  0  0  0  0  0  0  0  0
   -3.2442    2.9761   -0.9096 H   0  0  0  0  0  0  0  0  0  0  0  0
   -1.8702    2.7391   -1.9557 H   0  0  0  0  0  0  0  0  0  0  0  0
   -4.5298    1.3261   -2.1894 H   0  0  0  0  0  0  0  0  0  0  0  0
   -2.5948    1.9300   -4.3559 H   0  0  0  0  0  0  0  0  0  0  0  0
   -4.1710    0.9528   -4.3310 H   0  0  0  0  0  0  0  0  0  0  0  0
   -2.1974   -0.4911   -4.4467 H   0  0  0  0  0  0  0  0  0  0  0  0
   -3.1540   -0.7390   -2.8914 H   0  0  0  0  0  0  0  0  0  0  0  0
   -0.9414    1.3283   -2.9203 H   0  0  0  0  0  0  0  0  0  0  0  0
   -0.4681   -0.3571   -2.9674 H   0  0  0  0  0  0  0  0  0  0  0  0
   -1.9216   -0.9089   -1.0287 H   0  0  0  0  0  0  0  0  0  0  0  0
    2.3653   -2.4091    1.1489 H   0  0  0  0  0  0  0  0  0  0  0  0
    4.5693   -1.7726    1.8399 H   0  0  0  0  0  0  0  0  0  0  0  0
    3.8047    2.1800    0.5005 H   0  0  0  0  0  0  0  0  0  0  0  0
    1.6112    1.5012   -0.1454 H   0  0  0  0  0  0  0  0  0  0  0  0
    7.9166    2.0022    1.6313 H   0  0  0  0  0  0  0  0  0  0  0  0
   10.1678    1.6094    1.3099 H   0  0  0  0  0  0  0  0  0  0  0  0
   10.9268   -0.5607    0.5718 H   0  0  0  0  0  0  0  0  0  0  0  0
    9.2145   -2.3674    0.1995 H   0  0  0  0  0  0  0  0  0  0  0  0
    6.6963   -2.7435    1.2773 H   0  0  0  0  0  0  0  0  0  0  0  0
   -4.0326    0.4834   -0.5007 H   0  0  0  0  0  0  0  0  0  0  0  0
   -5.8839    1.2861   -0.0301 H   0  0  0  0  0  0  0  0  0  0  0  0
   -8.1815    0.6018   -0.1388 H   0  0  0  0  0  0  0  0  0  0  0  0
  -10.0210   -0.3462    1.3850 H   0  0  0  0  0  0  0  0  0  0  0  0
   -7.6115   -2.3007    2.9612 H   0  0  0  0  0  0  0  0  0  0  0  0
   -5.1823   -1.5178    3.0099 H   0  0  0  0  0  0  0  0  0  0  0  0
  1  2  1  0
  2  3  1  0
  3  4  1  0
  4  5  1  0
  5  6  1  0
  6  7  1  0
  7  8  1  0
  8  9  1  0
  9 10  2  0
  9 11  1  0
 11 12  2  0
 12 13  1  0
 13 14  2  0
 14 15  1  0
 15 16  2  0
 14 17  1  0
 17 18  2  0
 17 19  1  0
 19 20  2  0
 20 21  1  0
 21 22  2  0
 22 23  1  0
 23 24  2  0
 24 25  1  0
  1 26  1  0
 26 27  1  0
 27 28  2  0
 27 29  1  0
 29 30  2  0
 30 31  1  0
 31 32  2  0
 32 33  1  0
 32 34  1  0
 34 35  2  0
  7  1  1  0
 16 11  1  0
 24 19  1  0
 35 29  1  0
  1 36  1  1
  2 37  1  0
  2 38  1  0
  3 39  1  0
  4 40  1  0
  4 41  1  0
  5 42  1  0
  5 43  1  0
  6 44  1  0
  6 45  1  0
  7 46  1  6
 12 47  1  0
 13 48  1  0
 15 49  1  0
 16 50  1  0
 20 51  1  0
 21 52  1  0
 22 53  1  0
 23 54  1  0
 25 55  1  0
 26 56  1  0
 30 57  1  0
 31 58  1  0
 33 59  1  0
 34 60  1  0
 35 61  1  0
M  END
$$$$
