
     RDKit          3D

 56 59  0  0  0  0  0  0  0  0999 V2000
    4.2276    0.1781   -0.4390 C   0  0  0  0  0  0  0  0  0  0  0  0
    3.0766   -0.5444    0.1635 C   0  0  0  0  0  0  0  0  0  0  0  0
    3.3027   -2.0688    0.1036 C   0  0  0  0  0  0  0  0  0  0  0  0
    2.8616   -0.2433    1.5026 O   0  0  0  0  0  0  0  0  0  0  0  0
    3.7108   -0.4160    2.5673 C   0  0  0  0  0  0  0  0  0  0  0  0
    3.7138   -1.6378    3.2578 C   0  0  0  0  0  0  0  0  0  0  0  0
    4.5408   -1.8418    4.3172 C   0  0  0  0  0  0  0  0  0  0  0  0
    5.3894   -0.8428    4.7249 C   0  0  0  0  0  0  0  0  0  0  0  0
    6.2079   -1.0501    5.7768 F   0  0  0  0  0  0  0  0  0  0  0  0
    5.4087    0.3648    4.0683 C   0  0  0  0  0  0  0  0  0  0  0  0
    4.5622    0.5701    2.9861 C   0  0  0  0  0  0  0  0  0  0  0  0
    4.6049    2.1441    2.1886 Cl  0  0  0  0  0  0  0  0  0  0  0  0
    1.8098   -0.3402   -0.6028 C   0  0  0  0  0  0  0  0  0  0  0  0
    1.7901   -0.5437   -1.8185 O   0  0  0  0  0  0  0  0  0  0  0  0
    0.5998    0.0832   -0.0003 N   0  0  0  0  0  0  0  0  0  0  0  0
   -0.5918    0.2720   -0.7354 C   0  0  1  0  0  0  0  0  0  0  0  0
   -1.6714   -0.7543   -0.4692 C   0  0  0  0  0  0  0  0  0  0  0  0
   -2.5057   -0.4686    0.7308 C   0  0  0  0  0  0  0  0  0  0  0  0
   -3.0727    0.9252    0.6915 C   0  0  0  0  0  0  0  0  0  0  0  0
   -2.0509    1.9874    0.4184 C   0  0  0  0  0  0  0  0  0  0  0  0
   -1.1781    1.6487   -0.7525 C   0  0  0  0  0  0  0  0  0  0  0  0
   -2.1257    1.6883   -1.9460 C   0  0  0  0  0  0  0  0  0  0  0  0
   -3.2206    0.6594   -1.7542 C   0  0  2  0  0  0  0  0  0  0  0  0
   -4.3441    0.7418   -3.1219 S   0  0  0  0  0  6  0  0  0  0  0  0
   -5.6550   -0.4559   -2.9451 C   0  0  0  0  0  0  0  0  0  0  0  0
   -5.0272    2.0983   -3.1714 O   0  0  0  0  0  0  0  0  0  0  0  0
   -3.6431    0.5720   -4.4382 O   0  0  0  0  0  0  0  0  0  0  0  0
   -4.0318    0.9487   -0.4953 C   0  0  0  0  0  0  0  0  0  0  0  0
   -2.6083   -0.7193   -1.6666 C   0  0  0  0  0  0  0  0  0  0  0  0
    5.1177    0.0090    0.1958 H   0  0  0  0  0  0  0  0  0  0  0  0
    3.9630    1.2444   -0.5559 H   0  0  0  0  0  0  0  0  0  0  0  0
    4.3960   -0.2877   -1.4511 H   0  0  0  0  0  0  0  0  0  0  0  0
    2.4420   -2.5855    0.5757 H   0  0  0  0  0  0  0  0  0  0  0  0
    3.3008   -2.3039   -0.9880 H   0  0  0  0  0  0  0  0  0  0  0  0
    4.2323   -2.3667    0.5890 H   0  0  0  0  0  0  0  0  0  0  0  0
    3.0183   -2.3955    2.8911 H   0  0  0  0  0  0  0  0  0  0  0  0
    4.4981   -2.8041    4.8101 H   0  0  0  0  0  0  0  0  0  0  0  0
    6.0768    1.1482    4.3916 H   0  0  0  0  0  0  0  0  0  0  0  0
    0.6798    0.2448    1.0564 H   0  0  0  0  0  0  0  0  0  0  0  0
   -0.3197    0.0728   -1.8002 H   0  0  0  0  0  0  0  0  0  0  0  0
   -1.2127   -1.7641   -0.3904 H   0  0  0  0  0  0  0  0  0  0  0  0
   -2.0174   -0.7163    1.6936 H   0  0  0  0  0  0  0  0  0  0  0  0
   -3.3857   -1.1532    0.6781 H   0  0  0  0  0  0  0  0  0  0  0  0
   -3.6040    1.1050    1.6257 H   0  0  0  0  0  0  0  0  0  0  0  0
   -2.6556    2.8933    0.0990 H   0  0  0  0  0  0  0  0  0  0  0  0
   -1.5239    2.3502    1.3015 H   0  0  0  0  0  0  0  0  0  0  0  0
   -0.4186    2.4209   -0.9086 H   0  0  0  0  0  0  0  0  0  0  0  0
   -1.6208    1.4828   -2.8997 H   0  0  0  0  0  0  0  0  0  0  0  0
   -2.6257    2.6997   -1.9589 H   0  0  0  0  0  0  0  0  0  0  0  0
   -5.2727   -1.4826   -2.9986 H   0  0  0  0  0  0  0  0  0  0  0  0
   -6.3748   -0.2588   -3.7635 H   0  0  0  0  0  0  0  0  0  0  0  0
   -6.1723   -0.2818   -1.9959 H   0  0  0  0  0  0  0  0  0  0  0  0
   -4.4630    1.9650   -0.5850 H   0  0  0  0  0  0  0  0  0  0  0  0
   -4.7826    0.1569   -0.4214 H   0  0  0  0  0  0  0  0  0  0  0  0
   -1.9903   -0.8411   -2.5933 H   0  0  0  0  0  0  0  0  0  0  0  0
   -3.3653   -1.5066   -1.5942 H   0  0  0  0  0  0  0  0  0  0  0  0
  1  2  1  0
  2  3  1  0
  2  4  1  0
  4  5  1  0
  5  6  2  0
  6  7  1  0
  7  8  2  0
  8  9  1  0
  8 10  1  0
 10 11  2  0
 11 12  1  0
  2 13  1  0
 13 14  2  0
 13 15  1  0
 15 16  1  0
 16 17  1  0
 17 18  1  0
 18 19  1  0
 19 20  1  0
 20 21  1  0
 21 22  1  0
 22 23  1  0
 23 24  1  6
 24 25  1  0
 24 26  2  0
 24 27  2  0
 23 28  1  0
 23 29  1  0
 11  5  1  0
 21 16  1  0
 29 17  1  0
 28 19  1  0
  1 30  1  0
  1 31  1  0
  1 32  1  0
  3 33  1  0
  3 34  1  0
  3 35  1  0
  6 36  1  0
  7 37  1  0
 10 38  1  0
 15 39  1  0
 16 40  1  6
 17 41  1  0
 18 42  1  0
 18 43  1  0
 19 44  1  0
 20 45  1  0
 20 46  1  0
 21 47  1  0
 22 48  1  0
 22 49  1  0
 25 50  1  0
 25 51  1  0
 25 52  1  0
 28 53  1  0
 28 54  1  0
 29 55  1  0
 29 56  1  0
M  END
$$$$
