
     RDKit          3D

 37 36  0  0  0  0  0  0  0  0999 V2000
    3.2335    1.8820   -0.0297 N   0  0  0  0  0  0  0  0  0  0  0  0
    3.8583    0.7894    0.6823 C   0  0  1  0  0  0  0  0  0  0  0  0
    2.9351    0.0053    1.5376 C   0  0  0  0  0  0  0  0  0  0  0  0
    1.7919   -0.6652    0.8621 C   0  0  0  0  0  0  0  0  0  0  0  0
    0.8690    0.2707    0.1701 C   0  0  0  0  0  0  0  0  0  0  0  0
    0.6186    1.4671   -0.1147 O   0  0  0  0  0  0  0  0  0  0  0  0
   -0.1776   -0.5005   -0.4257 N   0  0  0  0  0  0  0  0  0  0  0  0
   -1.2844    0.0703   -1.1986 C   0  0  1  0  0  0  0  0  0  0  0  0
   -1.3321   -0.5395   -2.5820 C   0  0  0  0  0  0  0  0  0  0  0  0
   -2.7111    0.2034   -3.4907 S   0  0  0  0  0  0  0  0  0  0  0  0
   -2.5057   -0.2413   -0.4022 C   0  0  0  0  0  0  0  0  0  0  0  0
   -1.8747   -0.8592    0.5212 O   0  0  0  0  0  0  0  0  0  0  0  0
   -3.8991   -0.0233   -0.4763 N   0  0  0  0  0  0  0  0  0  0  0  0
   -4.4978   -0.6294    0.6888 C   0  0  0  0  0  0  0  0  0  0  0  0
   -3.9218    0.0153    1.8949 C   0  0  0  0  0  0  0  0  0  0  0  0
   -4.4491   -0.5144    3.0768 O   0  0  0  0  0  0  0  0  0  0  0  0
   -3.0727    0.9232    2.0679 O   0  0  0  0  0  0  0  0  0  0  0  0
    4.5055   -0.0516   -0.3867 C   0  0  0  0  0  0  0  0  0  0  0  0
    5.2299   -1.2222   -0.1570 O   0  0  0  0  0  0  0  0  0  0  0  0
    4.4008    0.3076   -1.6018 O   0  0  0  0  0  0  0  0  0  0  0  0
    3.4396    2.8115    0.3498 H   0  0  0  0  0  0  0  0  0  0  0  0
    3.2215    1.7783   -1.0524 H   0  0  0  0  0  0  0  0  0  0  0  0
    4.6342    1.2493    1.3326 H   0  0  0  0  0  0  0  0  0  0  0  0
    3.4945   -0.6890    2.2002 H   0  0  0  0  0  0  0  0  0  0  0  0
    2.4760    0.7456    2.2606 H   0  0  0  0  0  0  0  0  0  0  0  0
    2.1009   -1.4977    0.1918 H   0  0  0  0  0  0  0  0  0  0  0  0
    1.1860   -1.1541    1.6561 H   0  0  0  0  0  0  0  0  0  0  0  0
   -0.3525   -1.5390   -0.4329 H   0  0  0  0  0  0  0  0  0  0  0  0
   -1.2249    1.1680   -1.2864 H   0  0  0  0  0  0  0  0  0  0  0  0
   -0.3655   -0.2782   -3.0651 H   0  0  0  0  0  0  0  0  0  0  0  0
   -1.4912   -1.6185   -2.5697 H   0  0  0  0  0  0  0  0  0  0  0  0
   -2.6821    1.6050   -3.4215 H   0  0  0  0  0  0  0  0  0  0  0  0
   -4.0419    0.5113   -1.3588 H   0  0  0  0  0  0  0  0  0  0  0  0
   -5.5928   -0.4330    0.6251 H   0  0  0  0  0  0  0  0  0  0  0  0
   -4.2930   -1.7290    0.7040 H   0  0  0  0  0  0  0  0  0  0  0  0
   -4.2154   -0.1302    3.9902 H   0  0  0  0  0  0  0  0  0  0  0  0
    5.9902   -1.4881   -0.7599 H   0  0  0  0  0  0  0  0  0  0  0  0
  1  2  1  0
  2  3  1  0
  3  4  1  0
  4  5  1  0
  5  6  2  0
  5  7  1  0
  7  8  1  0
  8  9  1  0
  9 10  1  0
  8 11  1  0
 11 12  2  0
 11 13  1  0
 13 14  1  0
 14 15  1  0
 15 16  1  0
 15 17  2  0
  2 18  1  0
 18 19  1  0
 18 20  2  0
  1 21  1  0
  1 22  1  0
  2 23  1  1
  3 24  1  0
  3 25  1  0
  4 26  1  0
  4 27  1  0
  7 28  1  0
  8 29  1  6
  9 30  1  0
  9 31  1  0
 10 32  1  0
 13 33  1  0
 14 34  1  0
 14 35  1  0
 16 36  1  0
 19 37  1  0
M  END
$$$$
