
     RDKit          3D

 49 52  0  0  0  0  0  0  0  0999 V2000
   -2.5152    2.1246   -0.2264 C   0  0  0  0  0  0  0  0  0  0  0  0
   -1.9162    0.7719   -0.4352 C   0  0  0  0  0  0  0  0  0  0  0  0
   -0.6639    0.8505   -1.2104 C   0  0  0  0  0  0  0  0  0  0  0  0
    0.5732    0.4784   -0.6555 C   0  0  0  0  0  0  0  0  0  0  0  0
    1.7485    0.5273   -1.3424 C   0  0  0  0  0  0  0  0  0  0  0  0
    3.0211    0.1831   -0.8338 N   0  0  0  0  0  0  0  0  0  0  0  0
    3.3441   -0.1858    0.4694 C   0  0  0  0  0  0  0  0  0  0  0  0
    2.4391   -0.2310    1.3373 O   0  0  0  0  0  0  0  0  0  0  0  0
    4.7177   -0.5283    0.8776 C   0  0  0  0  0  0  0  0  0  0  0  0
    4.9460   -0.8529    2.1935 C   0  0  0  0  0  0  0  0  0  0  0  0
    6.2120   -1.1790    2.6519 C   0  0  0  0  0  0  0  0  0  0  0  0
    7.2611   -1.1789    1.7761 C   0  0  0  0  0  0  0  0  0  0  0  0
    8.5881   -1.5106    2.2467 C   0  0  0  0  0  0  0  0  0  0  0  0
    9.6663   -1.7621    2.6354 N   0  0  0  0  0  0  0  0  0  0  0  0
    7.0108   -0.8490    0.4526 C   0  0  0  0  0  0  0  0  0  0  0  0
    5.7558   -0.5348    0.0412 N   0  0  0  0  0  0  0  0  0  0  0  0
    1.6311    0.9833   -2.6650 C   0  0  0  0  0  0  0  0  0  0  0  0
    0.4425    1.3532   -3.2343 C   0  0  0  0  0  0  0  0  0  0  0  0
   -0.7308    1.2940   -2.5154 C   0  0  0  0  0  0  0  0  0  0  0  0
   -1.8738    1.6854   -3.1286 F   0  0  0  0  0  0  0  0  0  0  0  0
   -1.5301    0.2846    0.9075 N   0  0  0  0  0  0  0  0  0  0  0  0
   -2.5355   -0.0271    1.6551 C   0  0  0  0  0  0  0  0  0  0  0  0
   -2.3789   -0.5216    2.9962 N   0  0  0  0  0  0  0  0  0  0  0  0
   -3.8467    0.1031    1.1887 O   0  0  0  0  0  0  0  0  0  0  0  0
   -4.1653   -0.1708   -0.1661 C   0  0  0  0  0  0  0  0  0  0  0  0
   -5.0281   -1.4235   -0.2121 C   0  0  0  0  0  0  0  0  0  0  0  0
   -5.9483   -0.7356   -1.1693 C   0  0  0  0  0  0  0  0  0  0  0  0
   -5.2933    0.5862   -0.7668 C   0  0  0  0  0  0  0  0  0  0  0  0
   -2.8861   -0.2721   -0.9279 C   0  0  0  0  0  0  0  0  0  0  0  0
   -2.3215   -1.5094   -0.5774 F   0  0  0  0  0  0  0  0  0  0  0  0
   -3.0961   -0.3157   -2.2575 F   0  0  0  0  0  0  0  0  0  0  0  0
   -3.1962    2.4593   -1.0158 H   0  0  0  0  0  0  0  0  0  0  0  0
   -2.9522    2.2273    0.7921 H   0  0  0  0  0  0  0  0  0  0  0  0
   -1.6599    2.8632   -0.2377 H   0  0  0  0  0  0  0  0  0  0  0  0
    0.5611    0.1321    0.3818 H   0  0  0  0  0  0  0  0  0  0  0  0
    3.8589    0.1970   -1.5107 H   0  0  0  0  0  0  0  0  0  0  0  0
    4.1336   -0.8581    2.9047 H   0  0  0  0  0  0  0  0  0  0  0  0
    6.4025   -1.4333    3.6792 H   0  0  0  0  0  0  0  0  0  0  0  0
    7.8051   -0.8411   -0.2504 H   0  0  0  0  0  0  0  0  0  0  0  0
    2.5515    1.0337   -3.2386 H   0  0  0  0  0  0  0  0  0  0  0  0
    0.3845    1.7057   -4.2765 H   0  0  0  0  0  0  0  0  0  0  0  0
   -1.7961   -1.3694    3.1632 H   0  0  0  0  0  0  0  0  0  0  0  0
   -2.8222   -0.0733    3.8175 H   0  0  0  0  0  0  0  0  0  0  0  0
   -5.5601   -1.6355    0.7449 H   0  0  0  0  0  0  0  0  0  0  0  0
   -4.4813   -2.2834   -0.6265 H   0  0  0  0  0  0  0  0  0  0  0  0
   -5.7444   -1.0254   -2.2270 H   0  0  0  0  0  0  0  0  0  0  0  0
   -7.0357   -0.7927   -0.9408 H   0  0  0  0  0  0  0  0  0  0  0  0
   -5.1125    1.1795   -1.6646 H   0  0  0  0  0  0  0  0  0  0  0  0
   -5.9642    1.0774   -0.0169 H   0  0  0  0  0  0  0  0  0  0  0  0
  1  2  1  0
  2  3  1  0
  3  4  2  0
  4  5  1  0
  5  6  1  0
  6  7  1  0
  7  8  2  0
  7  9  1  0
  9 10  2  0
 10 11  1  0
 11 12  2  0
 12 13  1  0
 13 14  3  0
 12 15  1  0
 15 16  2  0
  5 17  2  0
 17 18  1  0
 18 19  2  0
 19 20  1  0
  2 21  1  0
 21 22  2  0
 22 23  1  0
 22 24  1  0
 24 25  1  0
 25 26  1  0
 26 27  1  0
 27 28  1  0
 25 29  1  0
 29 30  1  0
 29 31  1  0
 29  2  1  0
 19  3  1  0
 28 25  1  0
 16  9  1  0
  1 32  1  0
  1 33  1  0
  1 34  1  0
  4 35  1  0
  6 36  1  0
 10 37  1  0
 11 38  1  0
 15 39  1  0
 17 40  1  0
 18 41  1  0
 23 42  1  0
 23 43  1  0
 26 44  1  0
 26 45  1  0
 27 46  1  0
 27 47  1  0
 28 48  1  0
 28 49  1  0
M  END
$$$$
