
     RDKit          3D

 38 40  0  0  0  0  0  0  0  0999 V2000
   -6.2821   -0.2592   -0.9904 C   0  0  0  0  0  0  0  0  0  0  0  0
   -5.2081   -1.5039   -0.2062 S   0  0  0  0  0  0  0  0  0  0  0  0
   -3.5472   -0.8857   -0.1399 C   0  0  0  0  0  0  0  0  0  0  0  0
   -3.2280    0.3565   -0.6335 C   0  0  0  0  0  0  0  0  0  0  0  0
   -1.9312    0.8206   -0.5733 C   0  0  0  0  0  0  0  0  0  0  0  0
   -0.9038    0.0650   -0.0193 C   0  0  0  0  0  0  0  0  0  0  0  0
   -1.2530   -1.1862    0.4721 C   0  0  0  0  0  0  0  0  0  0  0  0
   -2.5480   -1.6575    0.4156 C   0  0  0  0  0  0  0  0  0  0  0  0
   -2.9033   -2.9893    0.9420 C   0  0  0  0  0  0  0  0  0  0  0  0
   -3.8580   -2.8960    1.9634 F   0  0  0  0  0  0  0  0  0  0  0  0
   -1.8022   -3.5985    1.4889 F   0  0  0  0  0  0  0  0  0  0  0  0
   -3.4237   -3.7618   -0.0642 F   0  0  0  0  0  0  0  0  0  0  0  0
    0.3105    0.7853   -0.0903 N   0  0  0  0  0  0  0  0  0  0  0  0
    1.6271    0.1958   -0.0373 C   0  0  0  0  0  0  0  0  0  0  0  0
    1.7432   -1.0406    0.0798 O   0  0  0  0  0  0  0  0  0  0  0  0
    2.7824    1.0108   -0.1171 N   0  0  0  0  0  0  0  0  0  0  0  0
    4.1246    0.5884   -0.0800 C   0  0  0  0  0  0  0  0  0  0  0  0
    4.5776   -0.6917    0.0403 C   0  0  0  0  0  0  0  0  0  0  0  0
    5.9557   -0.9794    0.0645 C   0  0  0  0  0  0  0  0  0  0  0  0
    6.8855    0.0266   -0.0328 C   0  0  0  0  0  0  0  0  0  0  0  0
    6.4215    1.2806   -0.1507 N   0  0  0  0  0  0  0  0  0  0  0  0
    5.1095    1.5716   -0.1754 C   0  0  0  0  0  0  0  0  0  0  0  0
   -0.0537    2.1763   -0.2214 C   0  0  0  0  0  0  0  0  0  0  0  0
   -1.3332    2.0891   -1.0227 C   0  0  0  0  0  0  0  0  0  0  0  0
   -7.3385   -0.5182   -0.8664 H   0  0  0  0  0  0  0  0  0  0  0  0
   -6.0235    0.7388   -0.5849 H   0  0  0  0  0  0  0  0  0  0  0  0
   -6.0727   -0.2689   -2.0820 H   0  0  0  0  0  0  0  0  0  0  0  0
   -4.0454    0.9377   -1.0652 H   0  0  0  0  0  0  0  0  0  0  0  0
   -0.4612   -1.7856    0.9067 H   0  0  0  0  0  0  0  0  0  0  0  0
    2.5457    2.0564   -0.2157 H   0  0  0  0  0  0  0  0  0  0  0  0
    3.8730   -1.4906    0.1176 H   0  0  0  0  0  0  0  0  0  0  0  0
    6.2622   -1.9984    0.1605 H   0  0  0  0  0  0  0  0  0  0  0  0
    7.9517   -0.2027   -0.0135 H   0  0  0  0  0  0  0  0  0  0  0  0
    4.7939    2.6119   -0.2733 H   0  0  0  0  0  0  0  0  0  0  0  0
   -0.3355    2.6184    0.7657 H   0  0  0  0  0  0  0  0  0  0  0  0
    0.7069    2.7834   -0.7409 H   0  0  0  0  0  0  0  0  0  0  0  0
   -1.1164    2.0491   -2.1209 H   0  0  0  0  0  0  0  0  0  0  0  0
   -2.0023    2.9520   -0.8185 H   0  0  0  0  0  0  0  0  0  0  0  0
  1  2  1  0
  2  3  1  0
  3  4  2  0
  4  5  1  0
  5  6  2  0
  6  7  1  0
  7  8  2  0
  8  9  1  0
  9 10  1  0
  9 11  1  0
  9 12  1  0
  6 13  1  0
 13 14  1  0
 14 15  2  0
 14 16  1  0
 16 17  1  0
 17 18  2  0
 18 19  1  0
 19 20  2  0
 20 21  1  0
 21 22  2  0
 13 23  1  0
 23 24  1  0
  8  3  1  0
 22 17  1  0
 24  5  1  0
  1 25  1  0
  1 26  1  0
  1 27  1  0
  4 28  1  0
  7 29  1  0
 16 30  1  0
 18 31  1  0
 19 32  1  0
 20 33  1  0
 22 34  1  0
 23 35  1  0
 23 36  1  0
 24 37  1  0
 24 38  1  0
M  END
$$$$
