
     RDKit          3D

 76 80  0  0  0  0  0  0  0  0999 V2000
   -4.6104   -5.2174   -0.3210 C   0  0  0  0  0  0  0  0  0  0  0  0
   -4.7411   -3.7255   -0.1807 C   0  0  0  0  0  0  0  0  0  0  0  0
   -5.6691   -3.1530    0.6449 C   0  0  0  0  0  0  0  0  0  0  0  0
   -5.7494   -1.7782    0.7375 C   0  0  0  0  0  0  0  0  0  0  0  0
   -4.9000   -0.9777    0.0032 C   0  0  0  0  0  0  0  0  0  0  0  0
   -4.9705    0.4518    0.0906 N   0  0  0  0  0  0  0  0  0  0  0  0
   -5.8715    1.2468   -0.4696 N   0  0  0  0  0  0  0  0  0  0  0  0
   -5.6115    2.5267   -0.1690 C   0  0  0  0  0  0  0  0  0  0  0  0
   -6.4245    3.6738   -0.6360 C   0  0  0  0  0  0  0  0  0  0  0  0
   -7.5659    3.2262   -1.4864 C   0  0  0  0  0  0  0  0  0  0  0  0
   -5.5886    4.6608   -1.4120 C   0  0  0  0  0  0  0  0  0  0  0  0
   -7.0082    4.4411    0.5525 C   0  0  0  0  0  0  0  0  0  0  0  0
   -4.4841    2.4938    0.6206 C   0  0  0  0  0  0  0  0  0  0  0  0
   -4.0665    1.1855    0.7939 C   0  0  0  0  0  0  0  0  0  0  0  0
   -2.9520    0.6879    1.5281 N   0  0  0  0  0  0  0  0  0  0  0  0
   -1.6715    0.4841    0.9865 C   0  0  0  0  0  0  0  0  0  0  0  0
   -1.4909    0.7550   -0.2317 O   0  0  0  0  0  0  0  0  0  0  0  0
   -0.5699   -0.0103    1.7372 N   0  0  0  0  0  0  0  0  0  0  0  0
    0.7203   -0.2145    1.1765 C   0  0  0  0  0  0  0  0  0  0  0  0
    1.6562    0.7971    1.1795 C   0  0  0  0  0  0  0  0  0  0  0  0
    2.9199    0.6178    0.6390 C   0  0  0  0  0  0  0  0  0  0  0  0
    3.2767   -0.5884    0.0790 C   0  0  0  0  0  0  0  0  0  0  0  0
    4.5306   -0.7662   -0.4572 O   0  0  0  0  0  0  0  0  0  0  0  0
    5.4493    0.3069   -0.4278 C   0  0  0  0  0  0  0  0  0  0  0  0
    6.7175   -0.1852   -1.0806 C   0  0  0  0  0  0  0  0  0  0  0  0
    7.7601    0.7940   -1.1358 N   0  0  0  0  0  0  0  0  0  0  0  0
    8.2672    1.0966    0.1679 C   0  0  0  0  0  0  0  0  0  0  0  0
    8.9026   -0.0960    0.8206 C   0  0  0  0  0  0  0  0  0  0  0  0
    9.7841   -0.7063   -0.0372 O   0  0  0  0  0  0  0  0  0  0  0  0
   10.0492    0.0017   -1.1827 C   0  0  0  0  0  0  0  0  0  0  0  0
    8.8123    0.2895   -2.0130 C   0  0  0  0  0  0  0  0  0  0  0  0
    2.3374   -1.6027    0.0763 C   0  0  0  0  0  0  0  0  0  0  0  0
    2.6867   -2.8079   -0.4814 C   0  0  0  0  0  0  0  0  0  0  0  0
    1.7436   -3.8148   -0.4810 C   0  0  0  0  0  0  0  0  0  0  0  0
    0.4830   -3.6453    0.0550 C   0  0  0  0  0  0  0  0  0  0  0  0
    0.1401   -2.4389    0.6105 C   0  0  0  0  0  0  0  0  0  0  0  0
    1.0919   -1.4153    0.6127 C   0  0  0  0  0  0  0  0  0  0  0  0
   -3.9519   -1.5685   -0.8403 C   0  0  0  0  0  0  0  0  0  0  0  0
   -3.8835   -2.9420   -0.9225 C   0  0  0  0  0  0  0  0  0  0  0  0
   -4.2780   -5.4212   -1.3547 H   0  0  0  0  0  0  0  0  0  0  0  0
   -5.6445   -5.6622   -0.2518 H   0  0  0  0  0  0  0  0  0  0  0  0
   -3.9777   -5.6584    0.4551 H   0  0  0  0  0  0  0  0  0  0  0  0
   -6.3397   -3.7620    1.2247 H   0  0  0  0  0  0  0  0  0  0  0  0
   -6.4753   -1.3064    1.3823 H   0  0  0  0  0  0  0  0  0  0  0  0
   -8.3964    3.9595   -1.3714 H   0  0  0  0  0  0  0  0  0  0  0  0
   -7.9625    2.2427   -1.1691 H   0  0  0  0  0  0  0  0  0  0  0  0
   -7.2893    3.2328   -2.5604 H   0  0  0  0  0  0  0  0  0  0  0  0
   -4.5194    4.6366   -1.1248 H   0  0  0  0  0  0  0  0  0  0  0  0
   -5.6826    4.4629   -2.4968 H   0  0  0  0  0  0  0  0  0  0  0  0
   -5.9875    5.6884   -1.2544 H   0  0  0  0  0  0  0  0  0  0  0  0
   -7.7486    5.1570    0.1358 H   0  0  0  0  0  0  0  0  0  0  0  0
   -6.1631    4.9680    1.0456 H   0  0  0  0  0  0  0  0  0  0  0  0
   -7.5201    3.7445    1.2418 H   0  0  0  0  0  0  0  0  0  0  0  0
   -4.0094    3.3575    1.0346 H   0  0  0  0  0  0  0  0  0  0  0  0
   -3.1111    0.4615    2.5528 H   0  0  0  0  0  0  0  0  0  0  0  0
   -0.6995   -0.2373    2.7449 H   0  0  0  0  0  0  0  0  0  0  0  0
    1.3671    1.7492    1.6245 H   0  0  0  0  0  0  0  0  0  0  0  0
    3.6343    1.4229    0.6525 H   0  0  0  0  0  0  0  0  0  0  0  0
    4.9898    1.1541   -0.9668 H   0  0  0  0  0  0  0  0  0  0  0  0
    5.6733    0.5584    0.6357 H   0  0  0  0  0  0  0  0  0  0  0  0
    7.0260   -1.0976   -0.5048 H   0  0  0  0  0  0  0  0  0  0  0  0
    6.4846   -0.5126   -2.1236 H   0  0  0  0  0  0  0  0  0  0  0  0
    9.0310    1.8940    0.0507 H   0  0  0  0  0  0  0  0  0  0  0  0
    7.4699    1.4798    0.8318 H   0  0  0  0  0  0  0  0  0  0  0  0
    9.4803    0.2791    1.6984 H   0  0  0  0  0  0  0  0  0  0  0  0
    8.1309   -0.8146    1.1834 H   0  0  0  0  0  0  0  0  0  0  0  0
   10.7324   -0.6181   -1.8031 H   0  0  0  0  0  0  0  0  0  0  0  0
   10.5369    0.9451   -0.9272 H   0  0  0  0  0  0  0  0  0  0  0  0
    8.4713   -0.6070   -2.5429 H   0  0  0  0  0  0  0  0  0  0  0  0
    9.0334    1.0729   -2.7449 H   0  0  0  0  0  0  0  0  0  0  0  0
    3.6821   -2.9620   -0.9120 H   0  0  0  0  0  0  0  0  0  0  0  0
    2.0251   -4.7736   -0.9258 H   0  0  0  0  0  0  0  0  0  0  0  0
   -0.2461   -4.4693    0.0396 H   0  0  0  0  0  0  0  0  0  0  0  0
   -0.8217   -2.2607    1.0362 H   0  0  0  0  0  0  0  0  0  0  0  0
   -3.2831   -0.9621   -1.4188 H   0  0  0  0  0  0  0  0  0  0  0  0
   -3.1603   -3.4251   -1.5659 H   0  0  0  0  0  0  0  0  0  0  0  0
  1  2  1  0
  2  3  2  0
  3  4  1  0
  4  5  2  0
  5  6  1  0
  6  7  1  0
  7  8  2  0
  8  9  1  0
  9 10  1  0
  9 11  1  0
  9 12  1  0
  8 13  1  0
 13 14  2  0
 14 15  1  0
 15 16  1  0
 16 17  2  0
 16 18  1  0
 18 19  1  0
 19 20  2  0
 20 21  1  0
 21 22  2  0
 22 23  1  0
 23 24  1  0
 24 25  1  0
 25 26  1  0
 26 27  1  0
 27 28  1  0
 28 29  1  0
 29 30  1  0
 30 31  1  0
 22 32  1  0
 32 33  2  0
 33 34  1  0
 34 35  2  0
 35 36  1  0
 36 37  2  0
  5 38  1  0
 38 39  2  0
 39  2  1  0
 14  6  1  0
 37 19  1  0
 31 26  1  0
 37 32  1  0
  1 40  1  0
  1 41  1  0
  1 42  1  0
  3 43  1  0
  4 44  1  0
 10 45  1  0
 10 46  1  0
 10 47  1  0
 11 48  1  0
 11 49  1  0
 11 50  1  0
 12 51  1  0
 12 52  1  0
 12 53  1  0
 13 54  1  0
 15 55  1  0
 18 56  1  0
 20 57  1  0
 21 58  1  0
 24 59  1  0
 24 60  1  0
 25 61  1  0
 25 62  1  0
 27 63  1  0
 27 64  1  0
 28 65  1  0
 28 66  1  0
 30 67  1  0
 30 68  1  0
 31 69  1  0
 31 70  1  0
 33 71  1  0
 34 72  1  0
 35 73  1  0
 36 74  1  0
 38 75  1  0
 39 76  1  0
M  END
$$$$
