
     RDKit          3D

 54 58  0  0  0  0  0  0  0  0999 V2000
   -6.4999    2.2108    0.4089 C   0  0  0  0  0  0  0  0  0  0  0  0
   -5.9577    1.0594   -0.8289 S   0  0  0  0  0  6  0  0  0  0  0  0
   -6.6991   -0.2524   -0.6901 O   0  0  0  0  0  0  0  0  0  0  0  0
   -6.2113    1.5867   -2.2158 O   0  0  0  0  0  0  0  0  0  0  0  0
   -4.2754    0.6901   -0.6484 N   0  0  0  0  0  0  0  0  0  0  0  0
   -4.0748    0.0938    0.6042 C   0  0  0  0  0  0  0  0  0  0  0  0
   -2.8803   -0.7615    0.8034 C   0  0  0  0  0  0  0  0  0  0  0  0
   -2.9717   -1.5083    1.9690 C   0  0  0  0  0  0  0  0  0  0  0  0
   -1.9688   -2.4032    2.3065 C   0  0  0  0  0  0  0  0  0  0  0  0
   -2.0656   -3.3482    3.7679 Cl  0  0  0  0  0  0  0  0  0  0  0  0
   -0.8475   -2.5751    1.4837 C   0  0  0  0  0  0  0  0  0  0  0  0
   -0.7249   -1.8490    0.3162 C   0  0  0  0  0  0  0  0  0  0  0  0
   -1.7428   -0.9801    0.0392 C   0  0  0  0  0  0  0  0  0  0  0  0
   -1.5012   -0.2544   -1.1625 N   0  0  0  0  0  0  0  0  0  0  0  0
   -2.4346    0.1608   -2.0774 C   0  0  0  0  0  0  0  0  0  0  0  0
   -1.8037    0.7577   -3.0609 N   0  0  0  0  0  0  0  0  0  0  0  0
   -0.4919    0.7247   -2.7705 N   0  0  0  0  0  0  0  0  0  0  0  0
   -0.2937    0.0895   -1.5705 C   0  0  0  0  0  0  0  0  0  0  0  0
    0.9819   -0.0246   -0.9320 C   0  0  0  0  0  0  0  0  0  0  0  0
    2.0362   -0.6522   -1.8601 C   0  0  0  0  0  0  0  0  0  0  0  0
    3.2199   -0.9490   -0.9641 C   0  0  0  0  0  0  0  0  0  0  0  0
    3.6700    0.3197   -0.4597 N   0  0  0  0  0  0  0  0  0  0  0  0
    4.8465    0.3773    0.3223 C   0  0  0  0  0  0  0  0  0  0  0  0
    5.5232   -0.7965    0.5737 C   0  0  0  0  0  0  0  0  0  0  0  0
    6.6765   -0.8629    1.3201 C   0  0  0  0  0  0  0  0  0  0  0  0
    7.1720    0.3068    1.8376 C   0  0  0  0  0  0  0  0  0  0  0  0
    6.4616    1.4693    1.5623 C   0  0  0  0  0  0  0  0  0  0  0  0
    5.3412    1.5117    0.8336 N   0  0  0  0  0  0  0  0  0  0  0  0
    2.9653    1.5123   -0.7281 C   0  0  0  0  0  0  0  0  0  0  0  0
    1.5150    1.4591   -0.8987 C   0  0  0  0  0  0  0  0  0  0  0  0
   -3.8880   -0.0197   -1.8479 C   0  0  0  0  0  0  0  0  0  0  0  0
   -5.6694    2.4015    1.1336 H   0  0  0  0  0  0  0  0  0  0  0  0
   -6.7567    3.1862   -0.0519 H   0  0  0  0  0  0  0  0  0  0  0  0
   -7.3488    1.7623    0.9453 H   0  0  0  0  0  0  0  0  0  0  0  0
   -4.0083    0.9255    1.3615 H   0  0  0  0  0  0  0  0  0  0  0  0
   -5.0050   -0.4677    0.8785 H   0  0  0  0  0  0  0  0  0  0  0  0
   -3.8404   -1.3753    2.6038 H   0  0  0  0  0  0  0  0  0  0  0  0
   -0.0853   -3.2749    1.7677 H   0  0  0  0  0  0  0  0  0  0  0  0
    0.0708   -2.0135   -0.3544 H   0  0  0  0  0  0  0  0  0  0  0  0
    1.1171   -0.2394    0.1094 H   0  0  0  0  0  0  0  0  0  0  0  0
    1.6458   -1.5541   -2.3563 H   0  0  0  0  0  0  0  0  0  0  0  0
    2.3387    0.0456   -2.6589 H   0  0  0  0  0  0  0  0  0  0  0  0
    3.9703   -1.4630   -1.5954 H   0  0  0  0  0  0  0  0  0  0  0  0
    2.9227   -1.5607   -0.0881 H   0  0  0  0  0  0  0  0  0  0  0  0
    5.1699   -1.7583    0.1836 H   0  0  0  0  0  0  0  0  0  0  0  0
    7.1953   -1.7861    1.5089 H   0  0  0  0  0  0  0  0  0  0  0  0
    8.0825    0.3334    2.4398 H   0  0  0  0  0  0  0  0  0  0  0  0
    6.8862    2.3709    1.9892 H   0  0  0  0  0  0  0  0  0  0  0  0
    3.1929    2.2526    0.0961 H   0  0  0  0  0  0  0  0  0  0  0  0
    3.4576    1.9886   -1.6255 H   0  0  0  0  0  0  0  0  0  0  0  0
    0.9700    2.0091   -0.1049 H   0  0  0  0  0  0  0  0  0  0  0  0
    1.2303    1.9361   -1.8572 H   0  0  0  0  0  0  0  0  0  0  0  0
   -4.1208   -1.1060   -1.6411 H   0  0  0  0  0  0  0  0  0  0  0  0
   -4.4918    0.2942   -2.7116 H   0  0  0  0  0  0  0  0  0  0  0  0
  1  2  1  0
  2  3  2  0
  2  4  2  0
  2  5  1  0
  5  6  1  0
  6  7  1  0
  7  8  2  0
  8  9  1  0
  9 10  1  0
  9 11  2  0
 11 12  1  0
 12 13  2  0
 13 14  1  0
 14 15  1  0
 15 16  2  0
 16 17  1  0
 17 18  2  0
 18 19  1  0
 19 20  1  0
 20 21  1  0
 21 22  1  0
 22 23  1  0
 23 24  2  0
 24 25  1  0
 25 26  2  0
 26 27  1  0
 27 28  2  0
 22 29  1  0
 29 30  1  0
 15 31  1  0
 31  5  1  0
 13  7  1  0
 18 14  1  0
 30 19  1  0
 28 23  1  0
  1 32  1  0
  1 33  1  0
  1 34  1  0
  6 35  1  0
  6 36  1  0
  8 37  1  0
 11 38  1  0
 12 39  1  0
 19 40  1  0
 20 41  1  0
 20 42  1  0
 21 43  1  0
 21 44  1  0
 24 45  1  0
 25 46  1  0
 26 47  1  0
 27 48  1  0
 29 49  1  0
 29 50  1  0
 30 51  1  0
 30 52  1  0
 31 53  1  0
 31 54  1  0
M  END
$$$$
