
     RDKit          3D

 56 59  0  0  0  0  0  0  0  0999 V2000
   -3.0304    0.9661   -3.4334 C   0  0  0  0  0  0  0  0  0  0  0  0
   -3.5991   -0.3235   -2.9324 C   0  0  0  0  0  0  0  0  0  0  0  0
   -3.6875   -0.2552   -1.4876 N   0  0  0  0  0  0  0  0  0  0  0  0
   -2.4291   -0.0546   -0.8555 C   0  0  0  0  0  0  0  0  0  0  0  0
   -1.4145    0.0729   -1.7522 N   0  0  0  0  0  0  0  0  0  0  0  0
   -0.1785    0.2667   -1.2652 C   0  0  0  0  0  0  0  0  0  0  0  0
    0.0979    0.3401    0.0807 C   0  0  0  0  0  0  0  0  0  0  0  0
    1.4996    0.5588    0.5950 C   0  0  0  0  0  0  0  0  0  0  0  0
    2.1409   -0.7903    0.7885 C   0  0  0  0  0  0  0  0  0  0  0  0
    3.4341   -0.7964    1.2561 O   0  0  0  0  0  0  0  0  0  0  0  0
    4.5791   -0.3138    0.7119 C   0  0  0  0  0  0  0  0  0  0  0  0
    4.7352    0.3102   -0.5007 C   0  0  0  0  0  0  0  0  0  0  0  0
    5.9816    0.7654   -0.9546 C   0  0  0  0  0  0  0  0  0  0  0  0
    7.0907    0.5961   -0.1892 C   0  0  0  0  0  0  0  0  0  0  0  0
    8.4215    1.0462   -0.6012 C   0  0  0  0  0  0  0  0  0  0  0  0
    8.5819    1.6196   -1.7077 O   0  0  0  0  0  0  0  0  0  0  0  0
    9.5192    0.8546    0.2051 O   0  0  0  0  0  0  0  0  0  0  0  0
    6.9560   -0.0289    1.0318 C   0  0  0  0  0  0  0  0  0  0  0  0
    5.7492   -0.4710    1.4749 C   0  0  0  0  0  0  0  0  0  0  0  0
    5.6881   -1.1373    2.8080 C   0  0  0  0  0  0  0  0  0  0  0  0
   -0.9216    0.2118    0.9739 C   0  0  0  0  0  0  0  0  0  0  0  0
   -2.2072    0.0110    0.4972 C   0  0  0  0  0  0  0  0  0  0  0  0
   -3.1611   -0.1024    1.6147 C   0  0  0  0  0  0  0  0  0  0  0  0
   -2.6483   -0.2361    2.7565 O   0  0  0  0  0  0  0  0  0  0  0  0
   -4.5813   -0.0804    1.5715 N   0  0  0  0  0  0  0  0  0  0  0  0
   -5.2790    0.2157    2.8297 C   0  0  0  0  0  0  0  0  0  0  0  0
   -5.3765   -0.3176    0.4308 C   0  0  0  0  0  0  0  0  0  0  0  0
   -6.6902   -0.4846    0.7573 C   0  0  0  0  0  0  0  0  0  0  0  0
   -7.6040   -0.7254   -0.2407 C   0  0  0  0  0  0  0  0  0  0  0  0
   -7.1749   -0.7952   -1.5693 C   0  0  0  0  0  0  0  0  0  0  0  0
   -5.8755   -0.6293   -1.8847 N   0  0  0  0  0  0  0  0  0  0  0  0
   -4.9708   -0.3919   -0.9073 C   0  0  0  0  0  0  0  0  0  0  0  0
   -2.8769    1.7272   -2.6394 H   0  0  0  0  0  0  0  0  0  0  0  0
   -2.0266    0.8269   -3.9245 H   0  0  0  0  0  0  0  0  0  0  0  0
   -3.7669    1.3769   -4.1787 H   0  0  0  0  0  0  0  0  0  0  0  0
   -2.8623   -1.1423   -3.1777 H   0  0  0  0  0  0  0  0  0  0  0  0
   -4.5544   -0.6068   -3.4098 H   0  0  0  0  0  0  0  0  0  0  0  0
    0.6902    0.3783   -1.9301 H   0  0  0  0  0  0  0  0  0  0  0  0
    2.0136    1.2278   -0.0782 H   0  0  0  0  0  0  0  0  0  0  0  0
    1.4107    1.0048    1.6324 H   0  0  0  0  0  0  0  0  0  0  0  0
    1.4742   -1.4842    1.3522 H   0  0  0  0  0  0  0  0  0  0  0  0
    2.1684   -1.2439   -0.2552 H   0  0  0  0  0  0  0  0  0  0  0  0
    3.8813    0.4512   -1.1465 H   0  0  0  0  0  0  0  0  0  0  0  0
    6.0578    1.2574   -1.9271 H   0  0  0  0  0  0  0  0  0  0  0  0
   10.3296    1.4672    0.1997 H   0  0  0  0  0  0  0  0  0  0  0  0
    7.8566   -0.1616    1.6429 H   0  0  0  0  0  0  0  0  0  0  0  0
    6.6352   -1.7373    2.9045 H   0  0  0  0  0  0  0  0  0  0  0  0
    5.6450   -0.3884    3.6226 H   0  0  0  0  0  0  0  0  0  0  0  0
    4.7988   -1.8119    2.8846 H   0  0  0  0  0  0  0  0  0  0  0  0
   -0.7396    0.2646    2.0446 H   0  0  0  0  0  0  0  0  0  0  0  0
   -5.9916    1.0550    2.7124 H   0  0  0  0  0  0  0  0  0  0  0  0
   -4.4941    0.6016    3.5403 H   0  0  0  0  0  0  0  0  0  0  0  0
   -5.6941   -0.6777    3.2978 H   0  0  0  0  0  0  0  0  0  0  0  0
   -7.0113   -0.4315    1.7607 H   0  0  0  0  0  0  0  0  0  0  0  0
   -8.6682   -0.8683   -0.0503 H   0  0  0  0  0  0  0  0  0  0  0  0
   -7.9211   -0.9863   -2.3291 H   0  0  0  0  0  0  0  0  0  0  0  0
  1  2  1  0
  2  3  1  0
  3  4  1  0
  4  5  2  0
  5  6  1  0
  6  7  2  0
  7  8  1  0
  8  9  1  0
  9 10  1  0
 10 11  1  0
 11 12  2  0
 12 13  1  0
 13 14  2  0
 14 15  1  0
 15 16  2  0
 15 17  1  0
 14 18  1  0
 18 19  2  0
 19 20  1  0
  7 21  1  0
 21 22  2  0
 22 23  1  0
 23 24  2  0
 23 25  1  0
 25 26  1  0
 25 27  1  0
 27 28  2  0
 28 29  1  0
 29 30  2  0
 30 31  1  0
 31 32  2  0
 32  3  1  0
 22  4  1  0
 32 27  1  0
 19 11  1  0
  1 33  1  0
  1 34  1  0
  1 35  1  0
  2 36  1  0
  2 37  1  0
  6 38  1  0
  8 39  1  0
  8 40  1  0
  9 41  1  0
  9 42  1  0
 12 43  1  0
 13 44  1  0
 17 45  1  0
 18 46  1  0
 20 47  1  0
 20 48  1  0
 20 49  1  0
 21 50  1  0
 26 51  1  0
 26 52  1  0
 26 53  1  0
 28 54  1  0
 29 55  1  0
 30 56  1  0
M  END
$$$$
