
     RDKit          3D

 51 52  0  0  0  0  0  0  0  0999 V2000
    1.2979   -0.0268   -0.3255 C   0  0  1  0  0  0  0  0  0  0  0  0
    1.1283   -0.7849   -1.4601 O   0  0  0  0  0  0  0  0  0  0  0  0
    2.2978    1.0730   -0.6065 C   0  0  0  0  0  0  0  0  0  0  0  0
    3.5642    0.3902   -0.9945 C   0  0  0  0  0  0  0  0  0  0  0  0
    3.8332   -0.1244   -2.1041 O   0  0  0  0  0  0  0  0  0  0  0  0
    4.6232    0.2630   -0.0851 N   0  0  0  0  0  0  0  0  0  0  0  0
    4.9936   -0.3385   -1.3224 N   0  0  0  0  0  0  0  0  0  0  0  0
    5.7326    0.1316    0.8728 C   0  0  0  0  0  0  0  0  0  0  0  0
    5.6257   -1.1284    1.6250 C   0  0  0  0  0  0  0  0  0  0  0  0
    4.6186   -2.0659    1.4539 O   0  0  0  0  0  0  0  0  0  0  0  0
    6.3973   -1.5689    2.5246 O   0  0  0  0  0  0  0  0  0  0  0  0
    0.0392    0.4525    0.2783 C   0  0  0  0  0  0  0  0  0  0  0  0
    0.4345    1.1849    1.2527 O   0  0  0  0  0  0  0  0  0  0  0  0
   -1.3473    0.2368   -0.0376 N   0  0  0  0  0  0  0  0  0  0  0  0
   -1.9344   -0.5916   -1.0983 C   0  0  0  0  0  0  0  0  0  0  0  0
   -2.2532   -1.9630   -0.6477 C   0  0  0  0  0  0  0  0  0  0  0  0
   -3.5372   -2.1727   -0.1287 C   0  0  0  0  0  0  0  0  0  0  0  0
   -3.9419   -3.4097    0.3233 C   0  0  0  0  0  0  0  0  0  0  0  0
   -3.0980   -4.4997    0.2849 C   0  0  0  0  0  0  0  0  0  0  0  0
   -1.8252   -4.3278   -0.2208 C   0  0  0  0  0  0  0  0  0  0  0  0
   -1.4593   -3.0879   -0.6596 C   0  0  0  0  0  0  0  0  0  0  0  0
   -2.2733    0.9452    0.8124 C   0  0  0  0  0  0  0  0  0  0  0  0
   -2.6639    2.2776    0.3237 C   0  0  0  0  0  0  0  0  0  0  0  0
   -1.9961    3.4732    0.6226 C   0  0  0  0  0  0  0  0  0  0  0  0
   -2.5022    4.6595    0.0748 C   0  0  0  0  0  0  0  0  0  0  0  0
   -3.6148    4.7172   -0.7385 C   0  0  0  0  0  0  0  0  0  0  0  0
   -4.2472    3.5231   -1.0123 C   0  0  0  0  0  0  0  0  0  0  0  0
   -3.7742    2.3332   -0.4874 C   0  0  0  0  0  0  0  0  0  0  0  0
    1.8082   -0.6759    0.4436 H   0  0  0  0  0  0  0  0  0  0  0  0
    1.5808   -1.6537   -1.3395 H   0  0  0  0  0  0  0  0  0  0  0  0
    2.5199    1.6822    0.2929 H   0  0  0  0  0  0  0  0  0  0  0  0
    1.9645    1.7645   -1.3949 H   0  0  0  0  0  0  0  0  0  0  0  0
    5.2658   -1.3496   -1.1247 H   0  0  0  0  0  0  0  0  0  0  0  0
    5.8791    0.0834   -1.7047 H   0  0  0  0  0  0  0  0  0  0  0  0
    5.6426    0.9577    1.6421 H   0  0  0  0  0  0  0  0  0  0  0  0
    6.6907    0.2849    0.3600 H   0  0  0  0  0  0  0  0  0  0  0  0
    4.1546   -2.5614    2.1935 H   0  0  0  0  0  0  0  0  0  0  0  0
   -1.1643   -0.5828   -1.9036 H   0  0  0  0  0  0  0  0  0  0  0  0
   -2.8298   -0.1440   -1.5187 H   0  0  0  0  0  0  0  0  0  0  0  0
   -4.3261   -1.4416   -0.0250 H   0  0  0  0  0  0  0  0  0  0  0  0
   -4.9146   -3.6396    0.7340 H   0  0  0  0  0  0  0  0  0  0  0  0
   -3.3132   -5.5119    0.6126 H   0  0  0  0  0  0  0  0  0  0  0  0
   -1.0916   -5.1350   -0.2885 H   0  0  0  0  0  0  0  0  0  0  0  0
   -0.4667   -2.9428   -1.0587 H   0  0  0  0  0  0  0  0  0  0  0  0
   -3.1968    0.3711    1.0248 H   0  0  0  0  0  0  0  0  0  0  0  0
   -1.8337    1.1146    1.8431 H   0  0  0  0  0  0  0  0  0  0  0  0
   -1.1345    3.4230    1.2540 H   0  0  0  0  0  0  0  0  0  0  0  0
   -1.9140    5.5396    0.3646 H   0  0  0  0  0  0  0  0  0  0  0  0
   -3.9063    5.6988   -1.1004 H   0  0  0  0  0  0  0  0  0  0  0  0
   -5.1223    3.6355   -1.6616 H   0  0  0  0  0  0  0  0  0  0  0  0
   -4.4103    1.5122   -0.8196 H   0  0  0  0  0  0  0  0  0  0  0  0
  1  2  1  0
  1  3  1  0
  3  4  1  0
  4  5  2  0
  4  6  1  0
  6  7  1  0
  6  8  1  0
  8  9  1  0
  9 10  1  0
  9 11  2  0
  1 12  1  0
 12 13  2  0
 12 14  1  0
 14 15  1  0
 15 16  1  0
 16 17  2  0
 17 18  1  0
 18 19  2  0
 19 20  1  0
 20 21  2  0
 14 22  1  0
 22 23  1  0
 23 24  2  0
 24 25  1  0
 25 26  2  0
 26 27  1  0
 27 28  2  0
 21 16  1  0
 28 23  1  0
  1 29  1  1
  2 30  1  0
  3 31  1  0
  3 32  1  0
  7 33  1  0
  7 34  1  0
  8 35  1  0
  8 36  1  0
 10 37  1  0
 15 38  1  0
 15 39  1  0
 17 40  1  0
 18 41  1  0
 19 42  1  0
 20 43  1  0
 21 44  1  0
 22 45  1  0
 22 46  1  0
 24 47  1  0
 25 48  1  0
 26 49  1  0
 27 50  1  0
 28 51  1  0
M  END
$$$$
