
     RDKit          3D

212212  0  0  0  0  0  0  0  0999 V2000
   -0.3476    9.5645    0.7431 C   0  0  0  0  0  0  0  0  0  0  0  0
   -1.1057    8.5332   -0.0477 C   0  0  0  0  0  0  0  0  0  0  0  0
   -1.2911    7.3150    0.4012 C   0  0  0  0  0  0  0  0  0  0  0  0
   -2.0072    6.2342   -0.2743 C   0  0  0  0  0  0  0  0  0  0  0  0
   -2.5514    6.5540   -1.6444 C   0  0  1  0  0  0  0  0  0  0  0  0
   -1.4270    6.8671   -2.5714 C   0  0  0  0  0  0  0  0  0  0  0  0
   -3.6277    5.6722   -2.1129 C   0  0  1  0  0  0  0  0  0  0  0  0
   -4.0276    6.1682   -3.4006 O   0  0  0  0  0  0  0  0  0  0  0  0
   -3.4382    4.2389   -2.3084 C   0  0  1  0  0  0  0  0  0  0  0  0
   -2.5455    3.4264   -1.5169 C   0  0  0  0  0  0  0  0  0  0  0  0
   -3.0839    2.8518   -0.4652 O   0  0  0  0  0  0  0  0  0  0  0  0
   -1.2155    3.0036   -1.4829 N   0  0  0  0  0  0  0  0  0  0  0  0
   -0.6433    2.1405   -0.4136 C   0  0  1  0  0  0  0  0  0  0  0  0
   -0.6849    0.6752   -0.8930 C   0  0  0  0  0  0  0  0  0  0  0  0
    0.1188    0.5063   -2.1457 C   0  0  0  0  0  0  0  0  0  0  0  0
    0.7897    2.4649   -0.2048 C   0  0  0  0  0  0  0  0  0  0  0  0
    1.1608    3.3063   -1.1458 O   0  0  0  0  0  0  0  0  0  0  0  0
    1.9206    2.3061    0.5225 N   0  0  0  0  0  0  0  0  0  0  0  0
    2.1236    1.6658    1.7675 C   0  0  0  0  0  0  0  0  0  0  0  0
    3.2212    2.9390    0.0642 C   0  0  1  0  0  0  0  0  0  0  0  0
    3.4882    4.3703    1.2040 S   0  0  0  0  0  0  0  0  0  0  0  0
    4.9142    5.3460    0.8004 C   0  0  0  0  0  0  0  0  0  0  0  0
    4.8286    6.6197    1.6566 C   0  0  0  0  0  0  0  0  0  0  0  0
    4.8620    6.2551    3.0564 N   0  0  0  0  0  0  0  0  0  0  0  0
    4.6639    7.4417    3.8923 C   0  0  0  0  0  0  0  0  0  0  0  0
    6.1375    5.6320    3.4089 C   0  0  0  0  0  0  0  0  0  0  0  0
    4.2623    1.9287    0.0995 C   0  0  0  0  0  0  0  0  0  0  0  0
    3.8030    0.7404    0.4029 O   0  0  0  0  0  0  0  0  0  0  0  0
    5.6183    1.6644   -0.0704 N   0  0  0  0  0  0  0  0  0  0  0  0
    6.6098    2.4818   -0.6689 C   0  0  0  0  0  0  0  0  0  0  0  0
    6.1866    0.3417    0.3093 C   0  0  1  0  0  0  0  0  0  0  0  0
    6.1353    0.0091    1.7301 C   0  0  0  0  0  0  0  0  0  0  0  0
    6.9088    0.9785    2.6119 C   0  0  0  0  0  0  0  0  0  0  0  0
    6.8527    0.6195    4.0685 C   0  0  0  0  0  0  0  0  0  0  0  0
    8.3783    1.0506    2.2083 C   0  0  0  0  0  0  0  0  0  0  0  0
    6.3697    2.2511    2.4156 O   0  0  0  0  0  0  0  0  0  0  0  0
    5.8823   -0.7661   -0.5935 C   0  0  0  0  0  0  0  0  0  0  0  0
    5.0569   -0.4766   -1.5330 O   0  0  0  0  0  0  0  0  0  0  0  0
    6.2555   -2.0876   -0.7158 N   0  0  0  0  0  0  0  0  0  0  0  0
    5.7967   -2.8861   -1.9021 C   0  0  1  0  0  0  0  0  0  0  0  0
    7.0926   -2.8795   -2.7588 C   0  0  0  0  0  0  0  0  0  0  0  0
    7.4871   -1.4870   -3.1061 C   0  0  0  0  0  0  0  0  0  0  0  0
    8.1904   -3.5605   -1.9509 C   0  0  0  0  0  0  0  0  0  0  0  0
    5.5418   -4.2774   -1.5069 C   0  0  0  0  0  0  0  0  0  0  0  0
    5.5607   -4.4016   -0.1803 O   0  0  0  0  0  0  0  0  0  0  0  0
    5.2813   -5.5804   -1.8782 N   0  0  0  0  0  0  0  0  0  0  0  0
    5.1297   -6.0847   -3.1917 C   0  0  0  0  0  0  0  0  0  0  0  0
    5.1053   -6.7017   -0.8871 C   0  0  1  0  0  0  0  0  0  0  0  0
    6.2824   -7.0255   -0.0804 C   0  0  0  0  0  0  0  0  0  0  0  0
    6.0597   -8.1646    0.8884 C   0  0  0  0  0  0  0  0  0  0  0  0
    7.3638   -8.3507    1.6618 C   0  0  0  0  0  0  0  0  0  0  0  0
    5.7371   -9.4723    0.2494 C   0  0  0  0  0  0  0  0  0  0  0  0
    3.7951   -6.6517   -0.1903 C   0  0  0  0  0  0  0  0  0  0  0  0
    3.3445   -7.8535    0.1680 O   0  0  0  0  0  0  0  0  0  0  0  0
    2.8487   -5.7436    0.2402 N   0  0  0  0  0  0  0  0  0  0  0  0
    1.5476   -6.1917    0.8061 C   0  0  1  0  0  0  0  0  0  0  0  0
    1.6655   -5.8408    2.2825 C   0  0  0  0  0  0  0  0  0  0  0  0
    0.3589   -5.6277    0.1853 C   0  0  0  0  0  0  0  0  0  0  0  0
   -0.7100   -6.3576    0.5073 O   0  0  0  0  0  0  0  0  0  0  0  0
   -0.0706   -4.6017   -0.6092 N   0  0  0  0  0  0  0  0  0  0  0  0
   -1.4731   -4.5917   -1.1136 C   0  0  2  0  0  0  0  0  0  0  0  0
   -1.5996   -3.8645   -2.3831 C   0  0  0  0  0  0  0  0  0  0  0  0
   -2.4456   -4.1422   -0.1024 C   0  0  0  0  0  0  0  0  0  0  0  0
   -1.7903   -3.9367    1.0371 O   0  0  0  0  0  0  0  0  0  0  0  0
   -3.7070   -3.8287    0.2492 N   0  0  0  0  0  0  0  0  0  0  0  0
   -3.9472   -3.4071    1.6774 C   0  0  0  0  0  0  0  0  0  0  0  0
   -4.9647   -3.7685   -0.4371 C   0  0  1  0  0  0  0  0  0  0  0  0
   -5.7195   -4.9864    0.0753 C   0  0  0  0  0  0  0  0  0  0  0  0
   -6.9733   -5.4428   -0.3984 C   0  0  0  0  0  0  0  0  0  0  0  0
   -7.2405   -6.7750    0.4588 C   0  0  0  0  0  0  0  0  0  0  0  0
   -8.2914   -4.7692   -0.2618 C   0  0  0  0  0  0  0  0  0  0  0  0
   -5.6578   -2.4889   -0.1592 C   0  0  0  0  0  0  0  0  0  0  0  0
   -6.8700   -2.6549    0.1244 O   0  0  0  0  0  0  0  0  0  0  0  0
   -5.4892   -1.1135   -0.0923 N   0  0  0  0  0  0  0  0  0  0  0  0
   -4.4314   -0.2834   -0.4519 C   0  0  0  0  0  0  0  0  0  0  0  0
   -6.6363   -0.2768    0.4155 C   0  0  1  0  0  0  0  0  0  0  0  0
   -6.1380    0.0038    1.8752 C   0  0  0  0  0  0  0  0  0  0  0  0
   -7.1596    0.7787    2.6302 C   0  0  0  0  0  0  0  0  0  0  0  0
   -8.4951    0.0560    2.7239 C   0  0  0  0  0  0  0  0  0  0  0  0
   -6.7243    0.9800    4.0796 C   0  0  0  0  0  0  0  0  0  0  0  0
   -6.8590    0.9477   -0.2843 C   0  0  0  0  0  0  0  0  0  0  0  0
   -6.2211    1.9436    0.3273 O   0  0  0  0  0  0  0  0  0  0  0  0
   -7.4277    1.6729   -1.3241 N   0  0  0  0  0  0  0  0  0  0  0  0
   -8.2423    1.1467   -2.3596 C   0  0  0  0  0  0  0  0  0  0  0  0
   -7.2198    3.1463   -1.4559 C   0  0  1  0  0  0  0  0  0  0  0  0
   -7.8589    3.9288   -0.3399 C   0  0  0  0  0  0  0  0  0  0  0  0
   -7.5742    5.4191   -0.6082 C   0  0  0  0  0  0  0  0  0  0  0  0
   -9.3865    3.8060   -0.4092 C   0  0  0  0  0  0  0  0  0  0  0  0
   -5.8105    3.5388   -1.7182 C   0  0  0  0  0  0  0  0  0  0  0  0
   -5.2418    4.1086   -0.6676 O   0  0  0  0  0  0  0  0  0  0  0  0
   -4.7742    3.5703   -2.6369 N   0  0  0  0  0  0  0  0  0  0  0  0
   -4.7128    2.9895   -3.9357 C   0  0  0  0  0  0  0  0  0  0  0  0
    0.5741    9.1548    1.1857 H   0  0  0  0  0  0  0  0  0  0  0  0
   -1.0095    9.8804    1.6014 H   0  0  0  0  0  0  0  0  0  0  0  0
   -0.1726   10.4704    0.1479 H   0  0  0  0  0  0  0  0  0  0  0  0
   -1.4956    8.8509   -1.0035 H   0  0  0  0  0  0  0  0  0  0  0  0
   -0.8384    7.1337    1.4074 H   0  0  0  0  0  0  0  0  0  0  0  0
   -1.2838    5.3687   -0.2973 H   0  0  0  0  0  0  0  0  0  0  0  0
   -2.8936    5.9161    0.3415 H   0  0  0  0  0  0  0  0  0  0  0  0
   -3.0187    7.6078   -1.4622 H   0  0  0  0  0  0  0  0  0  0  0  0
   -0.4860    6.9260   -1.9862 H   0  0  0  0  0  0  0  0  0  0  0  0
   -1.2283    6.0252   -3.2928 H   0  0  0  0  0  0  0  0  0  0  0  0
   -1.5074    7.8340   -3.1162 H   0  0  0  0  0  0  0  0  0  0  0  0
   -4.5200    5.9345   -1.4133 H   0  0  0  0  0  0  0  0  0  0  0  0
   -4.2533    7.1264   -3.2830 H   0  0  0  0  0  0  0  0  0  0  0  0
   -2.9909    4.1576   -3.3738 H   0  0  0  0  0  0  0  0  0  0  0  0
   -0.4777    3.2206   -2.1384 H   0  0  0  0  0  0  0  0  0  0  0  0
   -1.3209    2.1803    0.4210 H   0  0  0  0  0  0  0  0  0  0  0  0
   -1.6822    0.2632   -0.9250 H   0  0  0  0  0  0  0  0  0  0  0  0
   -0.1377    0.1337   -0.0766 H   0  0  0  0  0  0  0  0  0  0  0  0
    0.5252    1.4829   -2.5075 H   0  0  0  0  0  0  0  0  0  0  0  0
   -0.4072   -0.0666   -2.9388 H   0  0  0  0  0  0  0  0  0  0  0  0
    1.0564   -0.1060   -1.9642 H   0  0  0  0  0  0  0  0  0  0  0  0
    2.0562    0.5587    1.7604 H   0  0  0  0  0  0  0  0  0  0  0  0
    1.5090    2.0790    2.6269 H   0  0  0  0  0  0  0  0  0  0  0  0
    3.1670    1.8460    2.1952 H   0  0  0  0  0  0  0  0  0  0  0  0
    3.0790    3.4825   -0.8830 H   0  0  0  0  0  0  0  0  0  0  0  0
    5.8166    4.7818    1.1763 H   0  0  0  0  0  0  0  0  0  0  0  0
    4.9778    5.5758   -0.2673 H   0  0  0  0  0  0  0  0  0  0  0  0
    5.6216    7.3248    1.4084 H   0  0  0  0  0  0  0  0  0  0  0  0
    3.7893    7.0212    1.4643 H   0  0  0  0  0  0  0  0  0  0  0  0
    3.5836    7.7294    3.8034 H   0  0  0  0  0  0  0  0  0  0  0  0
    5.3023    8.2327    3.4779 H   0  0  0  0  0  0  0  0  0  0  0  0
    4.8449    7.1873    4.9412 H   0  0  0  0  0  0  0  0  0  0  0  0
    6.8402    5.7591    2.5844 H   0  0  0  0  0  0  0  0  0  0  0  0
    5.9945    4.5821    3.7164 H   0  0  0  0  0  0  0  0  0  0  0  0
    6.5306    6.1428    4.3228 H   0  0  0  0  0  0  0  0  0  0  0  0
    7.0336    3.2684   -0.0149 H   0  0  0  0  0  0  0  0  0  0  0  0
    6.4223    2.8261   -1.7182 H   0  0  0  0  0  0  0  0  0  0  0  0
    7.5833    1.8710   -0.8548 H   0  0  0  0  0  0  0  0  0  0  0  0
    7.3359    0.5818    0.1551 H   0  0  0  0  0  0  0  0  0  0  0  0
    6.5572   -1.0099    1.9334 H   0  0  0  0  0  0  0  0  0  0  0  0
    5.1084   -0.0194    2.1623 H   0  0  0  0  0  0  0  0  0  0  0  0
    7.8561    0.8246    4.5467 H   0  0  0  0  0  0  0  0  0  0  0  0
    6.6627   -0.4462    4.2085 H   0  0  0  0  0  0  0  0  0  0  0  0
    6.1555    1.2792    4.6269 H   0  0  0  0  0  0  0  0  0  0  0  0
    8.7619    0.0791    1.8375 H   0  0  0  0  0  0  0  0  0  0  0  0
    9.0012    1.2740    3.1173 H   0  0  0  0  0  0  0  0  0  0  0  0
    8.5903    1.8820    1.5071 H   0  0  0  0  0  0  0  0  0  0  0  0
    7.0669    2.9437    2.3887 H   0  0  0  0  0  0  0  0  0  0  0  0
    6.8253   -2.7231   -0.1428 H   0  0  0  0  0  0  0  0  0  0  0  0
    5.0690   -2.3762   -2.4916 H   0  0  0  0  0  0  0  0  0  0  0  0
    6.8710   -3.4758   -3.6651 H   0  0  0  0  0  0  0  0  0  0  0  0
    7.7624   -0.9275   -2.1866 H   0  0  0  0  0  0  0  0  0  0  0  0
    8.4075   -1.5608   -3.7398 H   0  0  0  0  0  0  0  0  0  0  0  0
    6.7242   -0.9386   -3.6648 H   0  0  0  0  0  0  0  0  0  0  0  0
    7.7446   -4.3357   -1.2938 H   0  0  0  0  0  0  0  0  0  0  0  0
    8.8977   -4.0865   -2.6428 H   0  0  0  0  0  0  0  0  0  0  0  0
    8.7693   -2.8368   -1.3669 H   0  0  0  0  0  0  0  0  0  0  0  0
    6.0663   -6.1001   -3.8172 H   0  0  0  0  0  0  0  0  0  0  0  0
    4.8744   -7.1997   -3.1996 H   0  0  0  0  0  0  0  0  0  0  0  0
    4.2345   -5.7051   -3.7677 H   0  0  0  0  0  0  0  0  0  0  0  0
    4.9690   -7.6490   -1.5349 H   0  0  0  0  0  0  0  0  0  0  0  0
    6.6141   -6.1665    0.5262 H   0  0  0  0  0  0  0  0  0  0  0  0
    7.1658   -7.2646   -0.7402 H   0  0  0  0  0  0  0  0  0  0  0  0
    5.2824   -7.8959    1.6097 H   0  0  0  0  0  0  0  0  0  0  0  0
    7.9893   -9.1385    1.2146 H   0  0  0  0  0  0  0  0  0  0  0  0
    7.9343   -7.4083    1.6294 H   0  0  0  0  0  0  0  0  0  0  0  0
    7.1595   -8.5958    2.7190 H   0  0  0  0  0  0  0  0  0  0  0  0
    4.9544   -9.9865    0.8880 H   0  0  0  0  0  0  0  0  0  0  0  0
    6.6162  -10.1704    0.3423 H   0  0  0  0  0  0  0  0  0  0  0  0
    5.3415   -9.4459   -0.7623 H   0  0  0  0  0  0  0  0  0  0  0  0
    2.9093   -4.7442    0.2555 H   0  0  0  0  0  0  0  0  0  0  0  0
    1.4600   -7.2975    0.7869 H   0  0  0  0  0  0  0  0  0  0  0  0
    1.7577   -4.7548    2.3797 H   0  0  0  0  0  0  0  0  0  0  0  0
    2.6328   -6.2789    2.6257 H   0  0  0  0  0  0  0  0  0  0  0  0
    0.8305   -6.3168    2.8048 H   0  0  0  0  0  0  0  0  0  0  0  0
    0.4127   -3.7836   -0.9248 H   0  0  0  0  0  0  0  0  0  0  0  0
   -1.7573   -5.6872   -1.2828 H   0  0  0  0  0  0  0  0  0  0  0  0
   -0.6416   -3.5651   -2.8601 H   0  0  0  0  0  0  0  0  0  0  0  0
   -2.1200   -2.8945   -2.1587 H   0  0  0  0  0  0  0  0  0  0  0  0
   -2.2894   -4.3509   -3.1298 H   0  0  0  0  0  0  0  0  0  0  0  0
   -3.2965   -2.4833    1.7582 H   0  0  0  0  0  0  0  0  0  0  0  0
   -4.9738   -3.2349    1.9134 H   0  0  0  0  0  0  0  0  0  0  0  0
   -3.5329   -4.1214    2.3783 H   0  0  0  0  0  0  0  0  0  0  0  0
   -4.9824   -3.9227   -1.5266 H   0  0  0  0  0  0  0  0  0  0  0  0
   -4.9600   -5.8339   -0.1516 H   0  0  0  0  0  0  0  0  0  0  0  0
   -5.7711   -4.9271    1.2199 H   0  0  0  0  0  0  0  0  0  0  0  0
   -6.9242   -5.9623   -1.4336 H   0  0  0  0  0  0  0  0  0  0  0  0
   -8.1143   -7.2332    0.0051 H   0  0  0  0  0  0  0  0  0  0  0  0
   -7.3328   -6.4285    1.4916 H   0  0  0  0  0  0  0  0  0  0  0  0
   -6.3255   -7.3534    0.2739 H   0  0  0  0  0  0  0  0  0  0  0  0
   -9.1186   -5.5889   -0.4287 H   0  0  0  0  0  0  0  0  0  0  0  0
   -8.5734   -4.0716   -1.0821 H   0  0  0  0  0  0  0  0  0  0  0  0
   -8.5650   -4.4434    0.7553 H   0  0  0  0  0  0  0  0  0  0  0  0
   -3.8847   -0.4926   -1.4140 H   0  0  0  0  0  0  0  0  0  0  0  0
   -3.6590   -0.1440    0.3804 H   0  0  0  0  0  0  0  0  0  0  0  0
   -4.7285    0.7996   -0.6373 H   0  0  0  0  0  0  0  0  0  0  0  0
   -7.5316   -0.8315    0.6449 H   0  0  0  0  0  0  0  0  0  0  0  0
   -5.2187    0.6327    1.8267 H   0  0  0  0  0  0  0  0  0  0  0  0
   -5.9812   -0.9701    2.3639 H   0  0  0  0  0  0  0  0  0  0  0  0
   -7.3664    1.7598    2.1898 H   0  0  0  0  0  0  0  0  0  0  0  0
   -9.0857    0.1724    1.7627 H   0  0  0  0  0  0  0  0  0  0  0  0
   -9.0849    0.5958    3.4918 H   0  0  0  0  0  0  0  0  0  0  0  0
   -8.4046   -0.9845    3.0478 H   0  0  0  0  0  0  0  0  0  0  0  0
   -5.8234    1.5857    4.1642 H   0  0  0  0  0  0  0  0  0  0  0  0
   -6.6280   -0.0295    4.5349 H   0  0  0  0  0  0  0  0  0  0  0  0
   -7.5930    1.4773    4.5860 H   0  0  0  0  0  0  0  0  0  0  0  0
   -8.5673    1.9859   -3.0847 H   0  0  0  0  0  0  0  0  0  0  0  0
   -7.7188    0.4765   -3.0984 H   0  0  0  0  0  0  0  0  0  0  0  0
   -9.2452    0.7623   -2.0633 H   0  0  0  0  0  0  0  0  0  0  0  0
   -7.8657    3.5004   -2.3291 H   0  0  0  0  0  0  0  0  0  0  0  0
   -7.4835    3.7611    0.6587 H   0  0  0  0  0  0  0  0  0  0  0  0
   -8.4759    6.0334   -0.4295 H   0  0  0  0  0  0  0  0  0  0  0  0
   -6.7665    5.8091    0.0388 H   0  0  0  0  0  0  0  0  0  0  0  0
   -7.2050    5.5508   -1.6678 H   0  0  0  0  0  0  0  0  0  0  0  0
   -9.8629    4.1973    0.4992 H   0  0  0  0  0  0  0  0  0  0  0  0
   -9.6832    2.7420   -0.6509 H   0  0  0  0  0  0  0  0  0  0  0  0
   -9.8016    4.4048   -1.2531 H   0  0  0  0  0  0  0  0  0  0  0  0
   -4.6278    1.8680   -3.9502 H   0  0  0  0  0  0  0  0  0  0  0  0
   -5.4772    3.3567   -4.6815 H   0  0  0  0  0  0  0  0  0  0  0  0
   -3.7841    3.2938   -4.4974 H   0  0  0  0  0  0  0  0  0  0  0  0
  1  2  1  0
  2  3  2  0
  3  4  1  0
  4  5  1  0
  5  6  1  0
  5  7  1  0
  7  8  1  0
  7  9  1  0
  9 10  1  0
 10 11  2  0
 10 12  1  0
 12 13  1  0
 13 14  1  0
 14 15  1  0
 13 16  1  0
 16 17  2  0
 16 18  1  0
 18 19  1  0
 18 20  1  0
 20 21  1  0
 21 22  1  0
 22 23  1  0
 23 24  1  0
 24 25  1  0
 24 26  1  0
 20 27  1  0
 27 28  2  0
 27 29  1  0
 29 30  1  0
 29 31  1  0
 31 32  1  0
 32 33  1  0
 33 34  1  0
 33 35  1  0
 33 36  1  0
 31 37  1  0
 37 38  2  0
 37 39  1  0
 39 40  1  0
 40 41  1  0
 41 42  1  0
 41 43  1  0
 40 44  1  0
 44 45  2  0
 44 46  1  0
 46 47  1  0
 46 48  1  0
 48 49  1  0
 49 50  1  0
 50 51  1  0
 50 52  1  0
 48 53  1  0
 53 54  2  0
 53 55  1  0
 55 56  1  0
 56 57  1  0
 56 58  1  0
 58 59  2  0
 58 60  1  0
 60 61  1  0
 61 62  1  0
 61 63  1  0
 63 64  2  0
 63 65  1  0
 65 66  1  0
 65 67  1  0
 67 68  1  0
 68 69  1  0
 69 70  1  0
 69 71  1  0
 67 72  1  0
 72 73  2  0
 72 74  1  0
 74 75  1  0
 74 76  1  0
 76 77  1  0
 77 78  1  0
 78 79  1  0
 78 80  1  0
 76 81  1  0
 81 82  2  0
 81 83  1  0
 83 84  1  0
 83 85  1  0
 85 86  1  0
 86 87  1  0
 86 88  1  0
 85 89  1  0
 89 90  2  0
 89 91  1  0
 91 92  1  0
 91  9  1  0
  1 93  1  0
  1 94  1  0
  1 95  1  0
  2 96  1  0
  3 97  1  0
  4 98  1  0
  4 99  1  0
  5100  1  1
  6101  1  0
  6102  1  0
  6103  1  0
  7104  1  1
  8105  1  0
  9106  1  6
 12107  1  0
 13108  1  1
 14109  1  0
 14110  1  0
 15111  1  0
 15112  1  0
 15113  1  0
 19114  1  0
 19115  1  0
 19116  1  0
 20117  1  6
 22118  1  0
 22119  1  0
 23120  1  0
 23121  1  0
 25122  1  0
 25123  1  0
 25124  1  0
 26125  1  0
 26126  1  0
 26127  1  0
 30128  1  0
 30129  1  0
 30130  1  0
 31131  1  6
 32132  1  0
 32133  1  0
 34134  1  0
 34135  1  0
 34136  1  0
 35137  1  0
 35138  1  0
 35139  1  0
 36140  1  0
 39141  1  0
 40142  1  6
 41143  1  0
 42144  1  0
 42145  1  0
 42146  1  0
 43147  1  0
 43148  1  0
 43149  1  0
 47150  1  0
 47151  1  0
 47152  1  0
 48153  1  6
 49154  1  0
 49155  1  0
 50156  1  0
 51157  1  0
 51158  1  0
 51159  1  0
 52160  1  0
 52161  1  0
 52162  1  0
 55163  1  0
 56164  1  1
 57165  1  0
 57166  1  0
 57167  1  0
 60168  1  0
 61169  1  6
 62170  1  0
 62171  1  0
 62172  1  0
 66173  1  0
 66174  1  0
 66175  1  0
 67176  1  6
 68177  1  0
 68178  1  0
 69179  1  0
 70180  1  0
 70181  1  0
 70182  1  0
 71183  1  0
 71184  1  0
 71185  1  0
 75186  1  0
 75187  1  0
 75188  1  0
 76189  1  1
 77190  1  0
 77191  1  0
 78192  1  0
 79193  1  0
 79194  1  0
 79195  1  0
 80196  1  0
 80197  1  0
 80198  1  0
 84199  1  0
 84200  1  0
 84201  1  0
 85202  1  6
 86203  1  0
 87204  1  0
 87205  1  0
 87206  1  0
 88207  1  0
 88208  1  0
 88209  1  0
 92210  1  0
 92211  1  0
 92212  1  0
M  END
$$$$
