
     RDKit          3D

 28 27  0  0  0  0  0  0  0  0999 V2000
   -2.5289    0.6024   -0.9438 N   0  0  0  0  0  0  0  0  0  0  0  0
   -1.6898   -0.4132   -0.3247 C   0  0  1  0  0  0  0  0  0  0  0  0
   -0.7015    0.2724    0.5646 C   0  0  0  0  0  0  0  0  0  0  0  0
    0.1371    1.2104   -0.2635 C   0  0  0  0  0  0  0  0  0  0  0  0
    0.8982    0.4990   -1.3450 C   0  0  0  0  0  0  0  0  0  0  0  0
    1.8052   -0.5045   -0.8260 N   0  0  0  0  0  0  0  0  0  0  0  0
    2.8632   -0.1879    0.0598 C   0  0  0  0  0  0  0  0  0  0  0  0
    3.7957   -1.0957    0.6170 N   0  0  0  0  0  0  0  0  0  0  0  0
    3.0950    1.0133    0.4672 N   0  0  0  0  0  4  0  0  0  0  0  0
   -2.5512   -1.2718    0.5372 C   0  0  0  0  0  0  0  0  0  0  0  0
   -3.9543   -1.0367    0.6548 N   0  0  0  0  0  0  0  0  0  0  0  0
   -2.3086   -2.2769    1.2762 O   0  0  0  0  0  0  0  0  0  0  0  0
   -2.4923    1.4690   -0.3709 H   0  0  0  0  0  0  0  0  0  0  0  0
   -3.4973    0.2103   -1.0080 H   0  0  0  0  0  0  0  0  0  0  0  0
   -1.2166   -1.0317   -1.0961 H   0  0  0  0  0  0  0  0  0  0  0  0
   -1.2648    0.8820    1.2968 H   0  0  0  0  0  0  0  0  0  0  0  0
   -0.0626   -0.4932    1.0418 H   0  0  0  0  0  0  0  0  0  0  0  0
   -0.5450    1.9419   -0.7512 H   0  0  0  0  0  0  0  0  0  0  0  0
    0.8298    1.7184    0.4243 H   0  0  0  0  0  0  0  0  0  0  0  0
    0.1987    0.0434   -2.0708 H   0  0  0  0  0  0  0  0  0  0  0  0
    1.4580    1.2708   -1.9424 H   0  0  0  0  0  0  0  0  0  0  0  0
    1.8052   -1.5404   -1.0214 H   0  0  0  0  0  0  0  0  0  0  0  0
    3.8234   -1.6116    1.5291 H   0  0  0  0  0  0  0  0  0  0  0  0
    4.7033   -1.5261    0.3294 H   0  0  0  0  0  0  0  0  0  0  0  0
    3.6856    1.6418    1.0469 H   0  0  0  0  0  0  0  0  0  0  0  0
    3.2064    2.0234    0.7446 H   0  0  0  0  0  0  0  0  0  0  0  0
   -4.8665   -0.8814    0.1602 H   0  0  0  0  0  0  0  0  0  0  0  0
   -4.6255   -0.9274    1.4328 H   0  0  0  0  0  0  0  0  0  0  0  0
  1  2  1  0
  2  3  1  0
  3  4  1  0
  4  5  1  0
  5  6  1  0
  6  7  1  0
  7  8  1  0
  7  9  2  0
  2 10  1  0
 10 11  1  0
 10 12  2  0
  1 13  1  0
  1 14  1  0
  2 15  1  6
  3 16  1  0
  3 17  1  0
  4 18  1  0
  4 19  1  0
  5 20  1  0
  5 21  1  0
  6 22  1  0
  8 23  1  0
  8 24  1  0
  9 25  1  0
  9 26  1  0
 11 27  1  0
 11 28  1  0
M  CHG  1   9   1
M  END
$$$$
