
     RDKit          3D

 29 30  0  0  0  0  0  0  0  0999 V2000
    6.0099    1.0561   -0.0810 O   0  0  0  0  0  0  0  0  0  0  0  0
    4.6362    0.8476   -0.0526 C   0  0  0  0  0  0  0  0  0  0  0  0
    3.8418    1.9859    0.0829 C   0  0  0  0  0  0  0  0  0  0  0  0
    2.4741    1.8445    0.1174 C   0  0  0  0  0  0  0  0  0  0  0  0
    1.8717    0.6060    0.0215 C   0  0  0  0  0  0  0  0  0  0  0  0
    0.4084    0.4985    0.0626 C   0  0  0  0  0  0  0  0  0  0  0  0
   -0.2580   -0.6262   -0.0203 C   0  0  0  0  0  0  0  0  0  0  0  0
   -1.6942   -0.6516    0.0276 C   0  0  0  0  0  0  0  0  0  0  0  0
   -2.3601   -1.8656   -0.0637 C   0  0  0  0  0  0  0  0  0  0  0  0
   -3.7322   -1.9750   -0.0260 C   0  0  0  0  0  0  0  0  0  0  0  0
   -4.3734   -3.2017   -0.1194 O   0  0  0  0  0  0  0  0  0  0  0  0
   -4.4753   -0.8122    0.1100 C   0  0  0  0  0  0  0  0  0  0  0  0
   -3.8520    0.4148    0.2040 C   0  0  0  0  0  0  0  0  0  0  0  0
   -4.6464    1.5376    0.3380 O   0  0  0  0  0  0  0  0  0  0  0  0
   -2.4519    0.4756    0.1607 C   0  0  0  0  0  0  0  0  0  0  0  0
    2.6536   -0.5188   -0.1123 C   0  0  0  0  0  0  0  0  0  0  0  0
    4.0457   -0.3842   -0.1484 C   0  0  0  0  0  0  0  0  0  0  0  0
    6.4456    1.5704   -0.8441 H   0  0  0  0  0  0  0  0  0  0  0  0
    4.3084    2.9680    0.1594 H   0  0  0  0  0  0  0  0  0  0  0  0
    1.8669    2.7226    0.2217 H   0  0  0  0  0  0  0  0  0  0  0  0
   -0.1132    1.4392    0.1698 H   0  0  0  0  0  0  0  0  0  0  0  0
    0.3083   -1.5594   -0.1284 H   0  0  0  0  0  0  0  0  0  0  0  0
   -1.7523   -2.7609   -0.1696 H   0  0  0  0  0  0  0  0  0  0  0  0
   -4.3292   -3.8554    0.6767 H   0  0  0  0  0  0  0  0  0  0  0  0
   -5.5640   -0.9059    0.1393 H   0  0  0  0  0  0  0  0  0  0  0  0
   -4.1976    2.4379    0.2751 H   0  0  0  0  0  0  0  0  0  0  0  0
   -2.0473    1.4714    0.2406 H   0  0  0  0  0  0  0  0  0  0  0  0
    2.2835   -1.5072   -0.1928 H   0  0  0  0  0  0  0  0  0  0  0  0
    4.6930   -1.2523   -0.2531 H   0  0  0  0  0  0  0  0  0  0  0  0
  1  2  1  0
  2  3  2  0
  3  4  1  0
  4  5  2  0
  5  6  1  0
  6  7  2  0
  7  8  1  0
  8  9  2  0
  9 10  1  0
 10 11  1  0
 10 12  2  0
 12 13  1  0
 13 14  1  0
 13 15  2  0
  5 16  1  0
 16 17  2  0
 17  2  1  0
 15  8  1  0
  1 18  1  0
  3 19  1  0
  4 20  1  0
  6 21  1  0
  7 22  1  0
  9 23  1  0
 11 24  1  0
 12 25  1  0
 14 26  1  0
 15 27  1  0
 16 28  1  0
 17 29  1  0
M  END
$$$$
