
     RDKit          3D

 74 78  0  0  0  0  0  0  0  0999 V2000
    3.5341   -1.4099    0.9470 C   0  0  1  0  0  0  0  0  0  0  0  0
    2.2046   -0.9815    0.3598 C   0  0  0  0  0  0  0  0  0  0  0  0
    1.9393   -1.5278   -0.8713 O   0  0  0  0  0  0  0  0  0  0  0  0
    0.4599   -1.0590   -1.5297 P   0  0  0  0  0  0  0  0  0  0  0  0
   -0.8432   -1.6417   -0.6629 O   0  0  0  0  0  0  0  0  0  0  0  0
    0.3917   -1.6983   -2.9181 O   0  0  0  0  0  0  0  0  0  0  0  0
    0.3289    0.5924   -1.7538 O   0  0  0  0  0  0  0  0  0  0  0  0
   -1.1429    1.2369   -1.2582 P   0  0  0  0  0  0  0  0  0  0  0  0
   -1.6647    2.3014   -2.4900 O   0  0  0  0  0  0  0  0  0  0  0  0
   -1.0224    1.9815    0.0511 O   0  0  0  0  0  0  0  0  0  0  0  0
   -2.2315   -0.0511   -1.1624 O   0  0  0  0  0  0  0  0  0  0  0  0
   -3.1528    0.1135   -0.1458 C   0  0  0  0  0  0  0  0  0  0  0  0
   -4.0897   -1.0515   -0.1059 C   0  0  1  0  0  0  0  0  0  0  0  0
   -5.0520   -0.9772    0.8830 O   0  0  0  0  0  0  0  0  0  0  0  0
   -6.1746   -1.6427    0.4505 C   0  0  1  0  0  0  0  0  0  0  0  0
   -7.2379   -0.6660    0.2675 N   0  0  0  0  0  0  0  0  0  0  0  0
   -8.3504   -0.9365   -0.4401 C   0  0  0  0  0  0  0  0  0  0  0  0
   -9.1878    0.1226   -0.4684 N   0  0  0  0  0  0  0  0  0  0  0  0
   -8.5915    1.0973    0.2421 C   0  0  0  0  0  0  0  0  0  0  0  0
   -8.8661    2.4003    0.6144 C   0  0  0  0  0  0  0  0  0  0  0  0
  -10.0997    2.9631    0.1745 N   0  0  0  0  0  0  0  0  0  0  0  0
   -8.0053    3.1151    1.3638 N   0  0  0  0  0  0  0  0  0  0  0  0
   -6.8457    2.6109    1.7874 C   0  0  0  0  0  0  0  0  0  0  0  0
   -6.5480    1.3316    1.4370 N   0  0  0  0  0  0  0  0  0  0  0  0
   -7.3908    0.6016    0.6913 C   0  0  0  0  0  0  0  0  0  0  0  0
   -5.8713   -2.2777   -0.8904 C   0  0  2  0  0  0  0  0  0  0  0  0
   -5.3128   -3.5290   -0.6905 O   0  0  0  0  0  0  0  0  0  0  0  0
   -4.7985   -1.3305   -1.4015 C   0  0  2  0  0  0  0  0  0  0  0  0
   -3.9759   -1.9425   -2.3393 O   0  0  0  0  0  0  0  0  0  0  0  0
    4.6875   -1.0112    0.0534 C   0  0  0  0  0  0  0  0  0  0  0  0
    5.7574   -0.6580    1.0586 C   0  0  1  0  0  0  0  0  0  0  0  0
    6.9176   -0.0426    0.4986 N   0  0  0  0  0  4  0  0  0  0  0  0
    7.9767   -0.0681    1.3314 C   0  0  0  0  0  0  0  0  0  0  0  0
    9.2094    0.4645    1.0136 C   0  0  0  0  0  0  0  0  0  0  0  0
    9.3769    1.0620   -0.2318 C   0  0  0  0  0  0  0  0  0  0  0  0
    8.2612    1.0589   -1.0406 C   0  0  0  0  0  0  0  0  0  0  0  0
    7.0514    0.5232   -0.6988 C   0  0  0  0  0  0  0  0  0  0  0  0
    8.3615    1.6674   -2.3603 C   0  0  0  0  0  0  0  0  0  0  0  0
    7.3080    1.7233   -3.2583 O   0  0  0  0  0  0  0  0  0  0  0  0
    9.3987    2.2265   -2.8824 N   0  0  0  0  0  0  0  0  0  0  0  0
    4.9708    0.2416    1.9936 C   0  0  2  0  0  0  0  0  0  0  0  0
    5.6484    0.5494    3.1492 O   0  0  0  0  0  0  0  0  0  0  0  0
    3.7274   -0.6104    2.2357 C   0  0  2  0  0  0  0  0  0  0  0  0
    4.0732   -1.4826    3.2763 O   0  0  0  0  0  0  0  0  0  0  0  0
    3.5726   -2.5005    1.1240 H   0  0  0  0  0  0  0  0  0  0  0  0
    2.2462    0.1252    0.2100 H   0  0  0  0  0  0  0  0  0  0  0  0
    1.3701   -1.1671    1.0566 H   0  0  0  0  0  0  0  0  0  0  0  0
   -0.5631   -2.4441   -0.1527 H   0  0  0  0  0  0  0  0  0  0  0  0
   -0.9621    2.9537   -2.7186 H   0  0  0  0  0  0  0  0  0  0  0  0
   -2.7289    0.2329    0.8561 H   0  0  0  0  0  0  0  0  0  0  0  0
   -3.6940    1.0727   -0.3835 H   0  0  0  0  0  0  0  0  0  0  0  0
   -3.4634   -1.9537    0.1121 H   0  0  0  0  0  0  0  0  0  0  0  0
   -6.5471   -2.3891    1.1854 H   0  0  0  0  0  0  0  0  0  0  0  0
   -8.6928   -1.8186   -0.9769 H   0  0  0  0  0  0  0  0  0  0  0  0
  -10.8661    3.1381    0.8727 H   0  0  0  0  0  0  0  0  0  0  0  0
  -10.6077    3.3143   -0.6714 H   0  0  0  0  0  0  0  0  0  0  0  0
   -6.2753    3.2993    2.3697 H   0  0  0  0  0  0  0  0  0  0  0  0
   -6.7548   -2.2987   -1.5554 H   0  0  0  0  0  0  0  0  0  0  0  0
   -5.9846   -4.2436   -0.6021 H   0  0  0  0  0  0  0  0  0  0  0  0
   -5.2875   -0.4250   -1.7672 H   0  0  0  0  0  0  0  0  0  0  0  0
   -4.3397   -1.7165   -3.2323 H   0  0  0  0  0  0  0  0  0  0  0  0
    4.4293   -0.0522   -0.4847 H   0  0  0  0  0  0  0  0  0  0  0  0
    4.9945   -1.7895   -0.6577 H   0  0  0  0  0  0  0  0  0  0  0  0
    6.0034   -1.5658    1.6714 H   0  0  0  0  0  0  0  0  0  0  0  0
    7.9787   -0.5086    2.3410 H   0  0  0  0  0  0  0  0  0  0  0  0
   10.0696    0.4549    1.6643 H   0  0  0  0  0  0  0  0  0  0  0  0
   10.3396    1.4813   -0.4879 H   0  0  0  0  0  0  0  0  0  0  0  0
    6.1929    0.5219   -1.3241 H   0  0  0  0  0  0  0  0  0  0  0  0
    7.1472    2.5080   -3.9059 H   0  0  0  0  0  0  0  0  0  0  0  0
   10.2980    2.2852   -2.3595 H   0  0  0  0  0  0  0  0  0  0  0  0
    4.6926    1.1619    1.4021 H   0  0  0  0  0  0  0  0  0  0  0  0
    5.2015    1.3274    3.5655 H   0  0  0  0  0  0  0  0  0  0  0  0
    2.8532    0.0039    2.4758 H   0  0  0  0  0  0  0  0  0  0  0  0
    4.2484   -2.3968    2.9355 H   0  0  0  0  0  0  0  0  0  0  0  0
  1  2  1  0
  2  3  1  0
  3  4  1  0
  4  5  1  0
  4  6  2  0
  4  7  1  0
  7  8  1  0
  8  9  1  0
  8 10  2  0
  8 11  1  0
 11 12  1  0
 12 13  1  0
 13 14  1  0
 14 15  1  0
 15 16  1  0
 16 17  1  0
 17 18  2  0
 18 19  1  0
 19 20  2  0
 20 21  1  0
 20 22  1  0
 22 23  2  0
 23 24  1  0
 24 25  2  0
 15 26  1  0
 26 27  1  0
 26 28  1  0
 28 29  1  0
  1 30  1  0
 30 31  1  0
 31 32  1  0
 32 33  2  0
 33 34  1  0
 34 35  2  0
 35 36  1  0
 36 37  2  0
 36 38  1  0
 38 39  1  0
 38 40  2  3
 31 41  1  0
 41 42  1  0
 41 43  1  0
 43 44  1  0
 43  1  1  0
 28 13  1  0
 37 32  1  0
 25 16  1  0
 25 19  1  0
  1 45  1  1
  2 46  1  0
  2 47  1  0
  5 48  1  0
  9 49  1  0
 12 50  1  0
 12 51  1  0
 13 52  1  1
 15 53  1  1
 17 54  1  0
 21 55  1  0
 21 56  1  0
 23 57  1  0
 26 58  1  6
 27 59  1  0
 28 60  1  6
 29 61  1  0
 30 62  1  0
 30 63  1  0
 31 64  1  1
 33 65  1  0
 34 66  1  0
 35 67  1  0
 37 68  1  0
 39 69  1  0
 40 70  1  0
 41 71  1  6
 42 72  1  0
 43 73  1  1
 44 74  1  0
M  CHG  1  32   1
M  END
$$$$
