
     RDKit          3D

126125  0  0  0  0  0  0  0  0999 V2000
    9.6858    6.0481    0.4511 C   0  0  0  0  0  0  0  0  0  0  0  0
   10.7856    5.1178    0.8354 C   0  0  0  0  0  0  0  0  0  0  0  0
   10.3873    4.0618    1.8386 C   0  0  0  0  0  0  0  0  0  0  0  0
    9.2656    3.1635    1.3279 C   0  0  0  0  0  0  0  0  0  0  0  0
    9.6513    2.4589    0.0731 C   0  0  0  0  0  0  0  0  0  0  0  0
    8.5311    1.5867   -0.4135 C   0  0  0  0  0  0  0  0  0  0  0  0
    8.1945    0.5398    0.5952 C   0  0  0  0  0  0  0  0  0  0  0  0
    7.0741   -0.3715    0.0952 C   0  0  0  0  0  0  0  0  0  0  0  0
    6.8669   -1.3695    1.1968 C   0  0  0  0  0  0  0  0  0  0  0  0
    7.0611   -2.6329    0.8480 C   0  0  0  0  0  0  0  0  0  0  0  0
    7.4160   -3.5607   -0.2357 C   0  0  0  0  0  0  0  0  0  0  0  0
    6.4860   -4.6488   -0.5405 C   0  0  0  0  0  0  0  0  0  0  0  0
    5.1173   -4.3919   -0.9677 C   0  0  0  0  0  0  0  0  0  0  0  0
    4.7585   -3.7080   -2.2095 C   0  0  0  0  0  0  0  0  0  0  0  0
    5.0345   -2.2719   -2.4356 C   0  0  0  0  0  0  0  0  0  0  0  0
    4.2847   -1.4280   -1.4110 C   0  0  0  0  0  0  0  0  0  0  0  0
    2.7761   -1.6576   -1.4947 C   0  0  0  0  0  0  0  0  0  0  0  0
    2.1463   -0.7548   -0.4712 C   0  0  0  0  0  0  0  0  0  0  0  0
    1.5551    0.2575   -0.9037 O   0  0  0  0  0  0  0  0  0  0  0  0
    2.2905   -1.1475    0.8302 O   0  0  0  0  0  0  0  0  0  0  0  0
    1.7770   -0.5044    1.9686 C   0  0  0  0  0  0  0  0  0  0  0  0
    0.2874   -0.5959    1.9793 C   0  0  2  0  0  0  0  0  0  0  0  0
   -0.0360   -2.0959    1.9228 C   0  0  0  0  0  0  0  0  0  0  0  0
   -1.3642   -2.3522    1.8946 O   0  0  0  0  0  0  0  0  0  0  0  0
   -1.8679   -3.9008    2.1555 P   0  0  2  0  0  5  0  0  0  0  0  0
   -3.5683   -4.0110    2.1706 O   0  0  0  0  0  0  0  0  0  0  0  0
   -1.2843   -4.5264    3.4097 O   0  0  0  0  0  0  0  0  0  0  0  0
   -1.3211   -4.8759    0.8850 O   0  0  0  0  0  0  0  0  0  0  0  0
   -2.3667   -5.2539    0.0461 C   0  0  0  0  0  0  0  0  0  0  0  0
   -1.8567   -6.2500   -0.9587 C   0  0  2  0  0  0  0  0  0  0  0  0
   -1.3657   -7.3675   -0.2858 O   0  0  0  0  0  0  0  0  0  0  0  0
   -0.7310   -5.6258   -1.7658 C   0  0  0  0  0  0  0  0  0  0  0  0
   -0.2273   -6.5330   -2.6989 O   0  0  0  0  0  0  0  0  0  0  0  0
   -0.2437    0.0218    0.8404 O   0  0  0  0  0  0  0  0  0  0  0  0
   -1.2904    0.9024    0.8638 C   0  0  0  0  0  0  0  0  0  0  0  0
   -1.8315    1.1875    1.9716 O   0  0  0  0  0  0  0  0  0  0  0  0
   -1.8865    1.5854   -0.3412 C   0  0  0  0  0  0  0  0  0  0  0  0
   -3.2359    2.1812    0.0317 C   0  0  0  0  0  0  0  0  0  0  0  0
   -3.8387    2.8615   -1.1645 C   0  0  0  0  0  0  0  0  0  0  0  0
   -4.0041    1.9969   -2.3499 C   0  0  0  0  0  0  0  0  0  0  0  0
   -4.7497    0.7447   -2.2786 C   0  0  0  0  0  0  0  0  0  0  0  0
   -6.1645    0.6673   -1.9065 C   0  0  0  0  0  0  0  0  0  0  0  0
   -6.5194    1.1079   -0.5213 C   0  0  0  0  0  0  0  0  0  0  0  0
   -7.9938    0.9178   -0.2804 C   0  0  0  0  0  0  0  0  0  0  0  0
   -8.9841    1.7375    0.0271 C   0  0  0  0  0  0  0  0  0  0  0  0
   -8.8871    3.1933    0.2324 C   0  0  0  0  0  0  0  0  0  0  0  0
   -9.3322    3.5738    1.6421 C   0  0  0  0  0  0  0  0  0  0  0  0
  -10.7639    3.1385    1.8818 C   0  0  0  0  0  0  0  0  0  0  0  0
  -11.7467    3.7512    0.9319 C   0  0  0  0  0  0  0  0  0  0  0  0
  -13.1136    3.2118    1.3011 C   0  0  0  0  0  0  0  0  0  0  0  0
  -14.1827    3.7726    0.3977 C   0  0  0  0  0  0  0  0  0  0  0  0
    8.6658    5.6529    0.5471 H   0  0  0  0  0  0  0  0  0  0  0  0
    9.8415    6.3427   -0.6284 H   0  0  0  0  0  0  0  0  0  0  0  0
    9.8205    7.0251    1.0007 H   0  0  0  0  0  0  0  0  0  0  0  0
   11.2381    4.6748   -0.0769 H   0  0  0  0  0  0  0  0  0  0  0  0
   11.6066    5.6946    1.3104 H   0  0  0  0  0  0  0  0  0  0  0  0
   11.2380    3.4644    2.1824 H   0  0  0  0  0  0  0  0  0  0  0  0
    9.9785    4.6130    2.7176 H   0  0  0  0  0  0  0  0  0  0  0  0
    9.1511    2.3902    2.1386 H   0  0  0  0  0  0  0  0  0  0  0  0
    8.3163    3.6836    1.2216 H   0  0  0  0  0  0  0  0  0  0  0  0
    9.8286    3.2184   -0.7329 H   0  0  0  0  0  0  0  0  0  0  0  0
   10.5464    1.8107    0.2090 H   0  0  0  0  0  0  0  0  0  0  0  0
    8.7338    1.1636   -1.4256 H   0  0  0  0  0  0  0  0  0  0  0  0
    7.5931    2.1995   -0.5721 H   0  0  0  0  0  0  0  0  0  0  0  0
    7.8280    1.0660    1.5249 H   0  0  0  0  0  0  0  0  0  0  0  0
    9.1089   -0.0157    0.8713 H   0  0  0  0  0  0  0  0  0  0  0  0
    6.1541    0.2377    0.0536 H   0  0  0  0  0  0  0  0  0  0  0  0
    7.3176   -0.8181   -0.8662 H   0  0  0  0  0  0  0  0  0  0  0  0
    6.5830   -1.0702    2.1899 H   0  0  0  0  0  0  0  0  0  0  0  0
    6.8929   -3.3205    1.7008 H   0  0  0  0  0  0  0  0  0  0  0  0
    8.4142   -4.0538    0.0468 H   0  0  0  0  0  0  0  0  0  0  0  0
    7.5979   -2.9399   -1.1435 H   0  0  0  0  0  0  0  0  0  0  0  0
    7.0157   -5.2975   -1.3391 H   0  0  0  0  0  0  0  0  0  0  0  0
    6.4141   -5.3780    0.3610 H   0  0  0  0  0  0  0  0  0  0  0  0
    4.6171   -3.8530   -0.0636 H   0  0  0  0  0  0  0  0  0  0  0  0
    4.5387   -5.3983   -0.9653 H   0  0  0  0  0  0  0  0  0  0  0  0
    5.1704   -4.2886   -3.1209 H   0  0  0  0  0  0  0  0  0  0  0  0
    3.6352   -3.8384   -2.4058 H   0  0  0  0  0  0  0  0  0  0  0  0
    6.0639   -1.9720   -2.4772 H   0  0  0  0  0  0  0  0  0  0  0  0
    4.6069   -2.0334   -3.4661 H   0  0  0  0  0  0  0  0  0  0  0  0
    4.5006   -0.3554   -1.5606 H   0  0  0  0  0  0  0  0  0  0  0  0
    4.5694   -1.7280   -0.3991 H   0  0  0  0  0  0  0  0  0  0  0  0
    2.3815   -1.4893   -2.4952 H   0  0  0  0  0  0  0  0  0  0  0  0
    2.5897   -2.7041   -1.1622 H   0  0  0  0  0  0  0  0  0  0  0  0
    2.0985    0.5727    1.9559 H   0  0  0  0  0  0  0  0  0  0  0  0
    2.2532   -1.0156    2.8317 H   0  0  0  0  0  0  0  0  0  0  0  0
   -0.2242   -0.1456    2.8502 H   0  0  0  0  0  0  0  0  0  0  0  0
    0.4420   -2.6409    2.7593 H   0  0  0  0  0  0  0  0  0  0  0  0
    0.4284   -2.4744    0.9878 H   0  0  0  0  0  0  0  0  0  0  0  0
   -3.9305   -3.6461    3.0335 H   0  0  0  0  0  0  0  0  0  0  0  0
   -2.7123   -4.3215   -0.4693 H   0  0  0  0  0  0  0  0  0  0  0  0
   -3.1777   -5.6933    0.6519 H   0  0  0  0  0  0  0  0  0  0  0  0
   -2.6800   -6.5691   -1.6017 H   0  0  0  0  0  0  0  0  0  0  0  0
   -1.7793   -7.4588    0.6172 H   0  0  0  0  0  0  0  0  0  0  0  0
    0.0927   -5.2998   -1.1096 H   0  0  0  0  0  0  0  0  0  0  0  0
   -1.1001   -4.7568   -2.3476 H   0  0  0  0  0  0  0  0  0  0  0  0
   -0.3650   -7.4718   -2.4077 H   0  0  0  0  0  0  0  0  0  0  0  0
   -1.9761    0.8998   -1.2053 H   0  0  0  0  0  0  0  0  0  0  0  0
   -1.2422    2.4280   -0.6651 H   0  0  0  0  0  0  0  0  0  0  0  0
   -3.1144    2.9724    0.8123 H   0  0  0  0  0  0  0  0  0  0  0  0
   -3.8262    1.3852    0.4748 H   0  0  0  0  0  0  0  0  0  0  0  0
   -4.6826    3.5312   -0.9617 H   0  0  0  0  0  0  0  0  0  0  0  0
   -3.0218    3.6266   -1.4837 H   0  0  0  0  0  0  0  0  0  0  0  0
   -4.5510    2.6522   -3.1203 H   0  0  0  0  0  0  0  0  0  0  0  0
   -2.9903    1.8597   -2.8526 H   0  0  0  0  0  0  0  0  0  0  0  0
   -4.2155   -0.0320   -1.6178 H   0  0  0  0  0  0  0  0  0  0  0  0
   -4.6578    0.2331   -3.2969 H   0  0  0  0  0  0  0  0  0  0  0  0
   -6.8174    1.1816   -2.6735 H   0  0  0  0  0  0  0  0  0  0  0  0
   -6.5472   -0.4079   -1.9801 H   0  0  0  0  0  0  0  0  0  0  0  0
   -6.2314    2.1116   -0.2357 H   0  0  0  0  0  0  0  0  0  0  0  0
   -5.9974    0.4065    0.1945 H   0  0  0  0  0  0  0  0  0  0  0  0
   -8.2321   -0.1540   -0.4048 H   0  0  0  0  0  0  0  0  0  0  0  0
   -9.9710    1.3080    0.1425 H   0  0  0  0  0  0  0  0  0  0  0  0
   -9.5153    3.7240   -0.5120 H   0  0  0  0  0  0  0  0  0  0  0  0
   -7.8483    3.5875    0.1328 H   0  0  0  0  0  0  0  0  0  0  0  0
   -9.3145    4.6787    1.7504 H   0  0  0  0  0  0  0  0  0  0  0  0
   -8.6967    3.0969    2.3952 H   0  0  0  0  0  0  0  0  0  0  0  0
  -10.8442    2.0467    1.9369 H   0  0  0  0  0  0  0  0  0  0  0  0
  -11.0248    3.5147    2.9071 H   0  0  0  0  0  0  0  0  0  0  0  0
  -11.7948    4.8606    1.0759 H   0  0  0  0  0  0  0  0  0  0  0  0
  -11.5124    3.5804   -0.1207 H   0  0  0  0  0  0  0  0  0  0  0  0
  -13.1376    2.1114    1.2013 H   0  0  0  0  0  0  0  0  0  0  0  0
  -13.3596    3.4681    2.3442 H   0  0  0  0  0  0  0  0  0  0  0  0
  -15.1670    3.3950    0.7687 H   0  0  0  0  0  0  0  0  0  0  0  0
  -14.2213    4.8639    0.3946 H   0  0  0  0  0  0  0  0  0  0  0  0
  -14.0682    3.3566   -0.6349 H   0  0  0  0  0  0  0  0  0  0  0  0
  1  2  1  0
  2  3  1  0
  3  4  1  0
  4  5  1  0
  5  6  1  0
  6  7  1  0
  7  8  1  0
  8  9  1  0
  9 10  2  0
 10 11  1  0
 11 12  1  0
 12 13  1  0
 13 14  1  0
 14 15  1  0
 15 16  1  0
 16 17  1  0
 17 18  1  0
 18 19  2  0
 18 20  1  0
 20 21  1  0
 21 22  1  0
 22 23  1  0
 23 24  1  0
 25 24  1  6
 25 26  1  0
 25 27  2  0
 25 28  1  0
 28 29  1  0
 29 30  1  0
 30 31  1  0
 30 32  1  0
 32 33  1  0
 22 34  1  0
 34 35  1  0
 35 36  2  0
 35 37  1  0
 37 38  1  0
 38 39  1  0
 39 40  1  0
 40 41  1  0
 41 42  1  0
 42 43  1  0
 43 44  1  0
 44 45  2  0
 45 46  1  0
 46 47  1  0
 47 48  1  0
 48 49  1  0
 49 50  1  0
 50 51  1  0
  1 52  1  0
  1 53  1  0
  1 54  1  0
  2 55  1  0
  2 56  1  0
  3 57  1  0
  3 58  1  0
  4 59  1  0
  4 60  1  0
  5 61  1  0
  5 62  1  0
  6 63  1  0
  6 64  1  0
  7 65  1  0
  7 66  1  0
  8 67  1  0
  8 68  1  0
  9 69  1  0
 10 70  1  0
 11 71  1  0
 11 72  1  0
 12 73  1  0
 12 74  1  0
 13 75  1  0
 13 76  1  0
 14 77  1  0
 14 78  1  0
 15 79  1  0
 15 80  1  0
 16 81  1  0
 16 82  1  0
 17 83  1  0
 17 84  1  0
 21 85  1  0
 21 86  1  0
 22 87  1  1
 23 88  1  0
 23 89  1  0
 26 90  1  0
 29 91  1  0
 29 92  1  0
 30 93  1  6
 31 94  1  0
 32 95  1  0
 32 96  1  0
 33 97  1  0
 37 98  1  0
 37 99  1  0
 38100  1  0
 38101  1  0
 39102  1  0
 39103  1  0
 40104  1  0
 40105  1  0
 41106  1  0
 41107  1  0
 42108  1  0
 42109  1  0
 43110  1  0
 43111  1  0
 44112  1  0
 45113  1  0
 46114  1  0
 46115  1  0
 47116  1  0
 47117  1  0
 48118  1  0
 48119  1  0
 49120  1  0
 49121  1  0
 50122  1  0
 50123  1  0
 51124  1  0
 51125  1  0
 51126  1  0
M  END
$$$$
