
     RDKit          3D

 64 67  0  0  0  0  0  0  0  0999 V2000
   -8.1098   -1.5246   -0.6638 C   0  0  0  0  0  0  0  0  0  0  0  0
   -6.7244   -1.3904   -0.6769 O   0  0  0  0  0  0  0  0  0  0  0  0
   -6.0621   -0.1874   -0.4422 C   0  0  0  0  0  0  0  0  0  0  0  0
   -6.7473    0.9636   -0.1776 C   0  0  0  0  0  0  0  0  0  0  0  0
   -6.1026    2.1707    0.0585 C   0  0  0  0  0  0  0  0  0  0  0  0
   -4.7267    2.1735    0.0172 C   0  0  0  0  0  0  0  0  0  0  0  0
   -3.9742    1.0170   -0.2507 C   0  0  0  0  0  0  0  0  0  0  0  0
   -2.5176    1.1634   -0.2709 C   0  0  0  0  0  0  0  0  0  0  0  0
   -1.9039    0.7462    1.0022 C   0  0  0  0  0  0  0  0  0  0  0  0
   -0.4056    0.9250    1.0685 C   0  0  0  0  0  0  0  0  0  0  0  0
    0.3337    0.1986    0.0778 N   0  0  0  0  0  0  0  0  0  0  0  0
    0.1933   -1.2260    0.1202 C   0  0  1  0  0  0  0  0  0  0  0  0
    0.9500   -1.8279   -1.0608 C   0  0  0  0  0  0  0  0  0  0  0  0
    2.3912   -1.4287   -0.9253 C   0  0  0  0  0  0  0  0  0  0  0  0
    3.2559   -2.2392   -0.2217 C   0  0  0  0  0  0  0  0  0  0  0  0
    4.5787   -1.8905   -0.0871 C   0  0  0  0  0  0  0  0  0  0  0  0
    5.0451   -0.7381   -0.6504 C   0  0  0  0  0  0  0  0  0  0  0  0
    4.1896    0.0794   -1.3562 C   0  0  0  0  0  0  0  0  0  0  0  0
    2.8530   -0.2562   -1.5019 C   0  0  0  0  0  0  0  0  0  0  0  0
    4.8893    1.1127   -1.7889 O   0  0  0  0  0  0  0  0  0  0  0  0
    6.1468    1.0091   -1.4029 C   0  0  0  0  0  0  0  0  0  0  0  0
    7.2716    1.8014   -1.5827 C   0  0  0  0  0  0  0  0  0  0  0  0
    8.4966    1.4251   -1.0433 C   0  0  0  0  0  0  0  0  0  0  0  0
    8.6405    0.2642   -0.3173 C   0  0  0  0  0  0  0  0  0  0  0  0
    7.5287   -0.5192   -0.1395 C   0  0  0  0  0  0  0  0  0  0  0  0
    6.3099   -0.1556   -0.6699 C   0  0  0  0  0  0  0  0  0  0  0  0
    0.6492   -1.8757    1.3513 C   0  0  0  0  0  0  0  0  0  0  0  0
    0.5048   -3.1393    1.5023 O   0  0  0  0  0  0  0  0  0  0  0  0
    1.2507   -1.2430    2.4240 O   0  0  0  0  0  0  0  0  0  0  0  0
    0.0656    2.6736    1.1044 P   0  0  0  0  0  5  0  0  0  0  0  0
   -0.2697    3.4014   -0.1466 O   0  0  0  0  0  0  0  0  0  0  0  0
    1.7692    2.7105    1.2691 O   0  0  0  0  0  0  0  0  0  0  0  0
   -0.5732    3.4139    2.4609 O   0  0  0  0  0  0  0  0  0  0  0  0
   -4.6586   -0.1322   -0.4732 C   0  0  0  0  0  0  0  0  0  0  0  0
   -4.0358   -1.3239   -0.7506 O   0  0  0  0  0  0  0  0  0  0  0  0
   -3.6984   -2.3406    0.1357 C   0  0  0  0  0  0  0  0  0  0  0  0
   -8.3947   -2.5188   -1.0114 H   0  0  0  0  0  0  0  0  0  0  0  0
   -8.5141   -1.2520    0.3193 H   0  0  0  0  0  0  0  0  0  0  0  0
   -8.5139   -0.7493   -1.3772 H   0  0  0  0  0  0  0  0  0  0  0  0
   -7.8467    0.8918   -0.1590 H   0  0  0  0  0  0  0  0  0  0  0  0
   -6.6647    3.0711    0.2663 H   0  0  0  0  0  0  0  0  0  0  0  0
   -4.1852    3.0731    0.1916 H   0  0  0  0  0  0  0  0  0  0  0  0
   -2.1566    0.4950   -1.1178 H   0  0  0  0  0  0  0  0  0  0  0  0
   -2.1992    2.1751   -0.6193 H   0  0  0  0  0  0  0  0  0  0  0  0
   -2.3028    1.3238    1.8870 H   0  0  0  0  0  0  0  0  0  0  0  0
   -2.0966   -0.3001    1.2342 H   0  0  0  0  0  0  0  0  0  0  0  0
   -0.1161    0.5329    2.0630 H   0  0  0  0  0  0  0  0  0  0  0  0
    0.1090    0.5488   -0.9030 H   0  0  0  0  0  0  0  0  0  0  0  0
   -0.8672   -1.4545   -0.0521 H   0  0  0  0  0  0  0  0  0  0  0  0
    0.5400   -1.4697   -2.0132 H   0  0  0  0  0  0  0  0  0  0  0  0
    0.9039   -2.9430   -1.0422 H   0  0  0  0  0  0  0  0  0  0  0  0
    2.9212   -3.1606    0.2350 H   0  0  0  0  0  0  0  0  0  0  0  0
    5.2909   -2.4996    0.4580 H   0  0  0  0  0  0  0  0  0  0  0  0
    2.1833    0.3910   -2.0616 H   0  0  0  0  0  0  0  0  0  0  0  0
    7.1794    2.7236   -2.1539 H   0  0  0  0  0  0  0  0  0  0  0  0
    9.3591    2.0822   -1.2100 H   0  0  0  0  0  0  0  0  0  0  0  0
    9.6233    0.0103    0.0869 H   0  0  0  0  0  0  0  0  0  0  0  0
    7.6234   -1.4327    0.4263 H   0  0  0  0  0  0  0  0  0  0  0  0
    1.5402   -1.7014    3.2772 H   0  0  0  0  0  0  0  0  0  0  0  0
    2.2001    2.9463    0.4125 H   0  0  0  0  0  0  0  0  0  0  0  0
   -1.5484    3.5119    2.4479 H   0  0  0  0  0  0  0  0  0  0  0  0
   -2.7541   -2.8568   -0.1504 H   0  0  0  0  0  0  0  0  0  0  0  0
   -4.4688   -3.1848    0.0897 H   0  0  0  0  0  0  0  0  0  0  0  0
   -3.6483   -2.0649    1.1971 H   0  0  0  0  0  0  0  0  0  0  0  0
  1  2  1  0
  2  3  1  0
  3  4  2  0
  4  5  1  0
  5  6  2  0
  6  7  1  0
  7  8  1  0
  8  9  1  0
  9 10  1  0
 10 11  1  0
 11 12  1  0
 12 13  1  0
 13 14  1  0
 14 15  2  0
 15 16  1  0
 16 17  2  0
 17 18  1  0
 18 19  2  0
 18 20  1  0
 20 21  1  0
 21 22  2  0
 22 23  1  0
 23 24  2  0
 24 25  1  0
 25 26  2  0
 12 27  1  0
 27 28  2  0
 27 29  1  0
 10 30  1  0
 30 31  2  0
 30 32  1  0
 30 33  1  0
  7 34  2  0
 34 35  1  0
 35 36  1  0
 34  3  1  0
 19 14  1  0
 26 21  1  0
 26 17  1  0
  1 37  1  0
  1 38  1  0
  1 39  1  0
  4 40  1  0
  5 41  1  0
  6 42  1  0
  8 43  1  0
  8 44  1  0
  9 45  1  0
  9 46  1  0
 10 47  1  0
 11 48  1  0
 12 49  1  6
 13 50  1  0
 13 51  1  0
 15 52  1  0
 16 53  1  0
 19 54  1  0
 22 55  1  0
 23 56  1  0
 24 57  1  0
 25 58  1  0
 29 59  1  0
 32 60  1  0
 33 61  1  0
 36 62  1  0
 36 63  1  0
 36 64  1  0
M  END
$$$$
