
     RDKit          3D

 75 82  0  0  0  0  0  0  0  0999 V2000
   -9.3399    6.2444    0.4641 Cl  0  0  0  0  0  0  0  0  0  0  0  0
   -9.6972    4.8610   -0.5641 C   0  0  0  0  0  0  0  0  0  0  0  0
   -8.8852    3.6956   -0.1288 C   0  0  0  0  0  0  0  0  0  0  0  0
   -9.2819    2.7903    0.7891 N   0  0  0  0  0  0  0  0  0  0  0  0
   -8.3148    1.8790    0.9417 N   0  0  0  0  0  0  0  0  0  0  0  0
   -7.2939    2.1878    0.1290 C   0  0  0  0  0  0  0  0  0  0  0  0
   -6.0883    1.5473   -0.0611 C   0  0  0  0  0  0  0  0  0  0  0  0
   -5.7366    0.3995    0.6190 C   0  0  0  0  0  0  0  0  0  0  0  0
   -4.5269   -0.2328    0.4191 C   0  0  0  0  0  0  0  0  0  0  0  0
   -4.1230   -1.4400    1.1163 C   0  0  0  0  0  0  0  0  0  0  0  0
   -3.8717   -2.6342    0.4781 C   0  0  0  0  0  0  0  0  0  0  0  0
   -3.4868   -3.7702    1.1618 C   0  0  0  0  0  0  0  0  0  0  0  0
   -3.3439   -3.7268    2.5311 C   0  0  0  0  0  0  0  0  0  0  0  0
   -3.5915   -2.5408    3.1818 C   0  0  0  0  0  0  0  0  0  0  0  0
   -3.9795   -1.3995    2.4835 C   0  0  0  0  0  0  0  0  0  0  0  0
   -3.6656    0.3439   -0.5095 C   0  0  0  0  0  0  0  0  0  0  0  0
   -2.3780   -0.3391   -0.7182 C   0  0  0  0  0  0  0  0  0  0  0  0
   -1.4706   -0.4503    0.3181 C   0  0  0  0  0  0  0  0  0  0  0  0
   -0.2684   -1.0921    0.1343 C   0  0  0  0  0  0  0  0  0  0  0  0
    0.0760   -1.6413   -1.0688 C   0  0  0  0  0  0  0  0  0  0  0  0
    1.3696   -2.3360   -1.2607 C   0  0  0  0  0  0  0  0  0  0  0  0
    2.3432   -1.4136   -1.7265 N   0  0  0  0  0  0  0  0  0  0  0  0
    3.6420   -2.0175   -1.9534 C   0  0  0  0  0  0  0  0  0  0  0  0
    4.3423   -2.3611   -0.6723 C   0  0  0  0  0  0  0  0  0  0  0  0
    4.0392   -1.4733    0.4794 C   0  0  0  0  0  0  0  0  0  0  0  0
    5.3706   -1.0694    1.0652 C   0  0  0  0  0  0  0  0  0  0  0  0
    5.8956   -1.2890    2.2575 N   0  0  0  0  0  0  0  0  0  0  0  0
    7.1094   -0.7156    2.2614 N   0  0  0  0  0  0  0  0  0  0  0  0
    7.3584   -0.1368    1.0878 C   0  0  0  0  0  0  0  0  0  0  0  0
    8.5451    0.5967    0.6456 C   0  0  0  0  0  0  0  0  0  0  0  0
    8.5984    1.1189   -0.6292 C   0  0  0  0  0  0  0  0  0  0  0  0
    9.6887    1.8192   -1.1070 C   0  0  0  0  0  0  0  0  0  0  0  0
   10.7554    1.9907   -0.2564 C   0  0  0  0  0  0  0  0  0  0  0  0
   10.6617    1.4529    1.0098 C   0  0  0  0  0  0  0  0  0  0  0  0
    9.5889    0.7738    1.4539 N   0  0  0  0  0  0  0  0  0  0  0  0
    6.2545   -0.3646    0.3368 N   0  0  0  0  0  0  0  0  0  0  0  0
    3.2771   -0.2375    0.2167 C   0  0  0  0  0  0  0  0  0  0  0  0
    2.4661   -0.1824   -1.0326 C   0  0  0  0  0  0  0  0  0  0  0  0
   -0.8301   -1.5322   -2.1110 C   0  0  0  0  0  0  0  0  0  0  0  0
   -2.0324   -0.8899   -1.9256 C   0  0  0  0  0  0  0  0  0  0  0  0
   -4.0053    1.4640   -1.1750 N   0  0  0  0  0  0  0  0  0  0  0  0
   -5.1959    2.0750   -0.9697 C   0  0  0  0  0  0  0  0  0  0  0  0
   -5.5718    3.2222   -1.6367 C   0  0  0  0  0  0  0  0  0  0  0  0
   -6.8105    3.8238   -1.3981 C   0  0  0  0  0  0  0  0  0  0  0  0
   -7.6586    3.3023   -0.5194 N   0  0  0  0  0  0  0  0  0  0  0  0
   -9.5458    5.0776   -1.6519 H   0  0  0  0  0  0  0  0  0  0  0  0
  -10.7674    4.6148   -0.4392 H   0  0  0  0  0  0  0  0  0  0  0  0
   -6.4245   -0.0270    1.3344 H   0  0  0  0  0  0  0  0  0  0  0  0
   -3.9762   -2.6953   -0.5965 H   0  0  0  0  0  0  0  0  0  0  0  0
   -3.2876   -4.7136    0.6668 H   0  0  0  0  0  0  0  0  0  0  0  0
   -3.0377   -4.6223    3.0930 H   0  0  0  0  0  0  0  0  0  0  0  0
   -3.4776   -2.5040    4.2741 H   0  0  0  0  0  0  0  0  0  0  0  0
   -4.1677   -0.4857    3.0082 H   0  0  0  0  0  0  0  0  0  0  0  0
   -1.7424   -0.0154    1.2686 H   0  0  0  0  0  0  0  0  0  0  0  0
    0.4308   -1.1719    0.9520 H   0  0  0  0  0  0  0  0  0  0  0  0
    1.6586   -2.8445   -0.3186 H   0  0  0  0  0  0  0  0  0  0  0  0
    1.1914   -3.0852   -2.0845 H   0  0  0  0  0  0  0  0  0  0  0  0
    4.2362   -1.2955   -2.5538 H   0  0  0  0  0  0  0  0  0  0  0  0
    3.4798   -2.9112   -2.5910 H   0  0  0  0  0  0  0  0  0  0  0  0
    5.4247   -2.4496   -0.8985 H   0  0  0  0  0  0  0  0  0  0  0  0
    4.0228   -3.4148   -0.4173 H   0  0  0  0  0  0  0  0  0  0  0  0
    3.5542   -2.0646    1.3128 H   0  0  0  0  0  0  0  0  0  0  0  0
    7.7716    1.0063   -1.3400 H   0  0  0  0  0  0  0  0  0  0  0  0
    9.7085    2.2226   -2.1175 H   0  0  0  0  0  0  0  0  0  0  0  0
   11.6290    2.5399   -0.6082 H   0  0  0  0  0  0  0  0  0  0  0  0
   11.5133    1.6010    1.6602 H   0  0  0  0  0  0  0  0  0  0  0  0
    6.1518   -0.0288   -0.6412 H   0  0  0  0  0  0  0  0  0  0  0  0
    3.9330    0.6817    0.2758 H   0  0  0  0  0  0  0  0  0  0  0  0
    2.5581   -0.0759    1.0743 H   0  0  0  0  0  0  0  0  0  0  0  0
    1.4655    0.2680   -0.8949 H   0  0  0  0  0  0  0  0  0  0  0  0
    2.9821    0.5304   -1.7478 H   0  0  0  0  0  0  0  0  0  0  0  0
   -0.5465   -1.9705   -3.0574 H   0  0  0  0  0  0  0  0  0  0  0  0
   -2.7352   -0.8168   -2.7698 H   0  0  0  0  0  0  0  0  0  0  0  0
   -4.8718    3.6266   -2.3417 H   0  0  0  0  0  0  0  0  0  0  0  0
   -7.0649    4.7214   -1.9427 H   0  0  0  0  0  0  0  0  0  0  0  0
  1  2  1  0
  2  3  1  0
  3  4  2  0
  4  5  1  0
  5  6  2  0
  6  7  1  0
  7  8  2  0
  8  9  1  0
  9 10  1  0
 10 11  2  0
 11 12  1  0
 12 13  2  0
 13 14  1  0
 14 15  2  0
  9 16  2  0
 16 17  1  0
 17 18  2  0
 18 19  1  0
 19 20  2  0
 20 21  1  0
 21 22  1  0
 22 23  1  0
 23 24  1  0
 24 25  1  0
 25 26  1  0
 26 27  2  0
 27 28  1  0
 28 29  2  0
 29 30  1  0
 30 31  2  0
 31 32  1  0
 32 33  2  0
 33 34  1  0
 34 35  2  0
 29 36  1  0
 25 37  1  0
 37 38  1  0
 20 39  1  0
 39 40  2  0
 16 41  1  0
 41 42  2  0
 42 43  1  0
 43 44  2  0
 44 45  1  0
 45  3  1  0
 45  6  1  0
 42  7  1  0
 15 10  1  0
 40 17  1  0
 38 22  1  0
 36 26  1  0
 35 30  1  0
  2 46  1  0
  2 47  1  0
  8 48  1  0
 11 49  1  0
 12 50  1  0
 13 51  1  0
 14 52  1  0
 15 53  1  0
 18 54  1  0
 19 55  1  0
 21 56  1  0
 21 57  1  0
 23 58  1  0
 23 59  1  0
 24 60  1  0
 24 61  1  0
 25 62  1  0
 31 63  1  0
 32 64  1  0
 33 65  1  0
 34 66  1  0
 36 67  1  0
 37 68  1  0
 37 69  1  0
 38 70  1  0
 38 71  1  0
 39 72  1  0
 40 73  1  0
 43 74  1  0
 44 75  1  0
M  END
$$$$
