
     RDKit          3D

 25 27  0  0  0  0  0  0  0  0999 V2000
    0.2516   -1.3775   -1.7186 O   0  0  0  0  0  0  0  0  0  0  0  0
    0.5765   -0.4705   -0.7700 C   0  0  0  0  0  0  0  0  0  0  0  0
    1.8706   -0.1366   -0.6238 C   0  0  0  0  0  0  0  0  0  0  0  0
    2.9870   -0.6248   -1.3578 C   0  0  0  0  0  0  0  0  0  0  0  0
    4.2327   -0.2011   -1.1038 C   0  0  0  0  0  0  0  0  0  0  0  0
    4.5593    0.7148   -0.1455 C   0  0  0  0  0  0  0  0  0  0  0  0
    3.5010    1.2355    0.6143 C   0  0  0  0  0  0  0  0  0  0  0  0
    2.2363    0.7740    0.3217 C   0  0  0  0  0  0  0  0  0  0  0  0
    0.5131    1.2626    1.1610 Se  0  0  0  0  0  2  0  0  0  0  0  0
   -0.4419   -0.0405   -0.1176 N   0  0  0  0  0  0  0  0  0  0  0  0
   -1.7671   -0.1168    0.0270 C   0  0  0  0  0  0  0  0  0  0  0  0
   -2.5961    0.9229   -0.3440 C   0  0  0  0  0  0  0  0  0  0  0  0
   -3.9621    0.8763   -0.2089 C   0  0  0  0  0  0  0  0  0  0  0  0
   -4.5324   -0.2743    0.3272 C   0  0  0  0  0  0  0  0  0  0  0  0
   -3.7487   -1.3277    0.7078 C   0  0  0  0  0  0  0  0  0  0  0  0
   -2.3854   -1.2470    0.5585 C   0  0  0  0  0  0  0  0  0  0  0  0
    2.7802   -1.3457   -2.1206 H   0  0  0  0  0  0  0  0  0  0  0  0
    5.0996   -0.5809   -1.6744 H   0  0  0  0  0  0  0  0  0  0  0  0
    5.5421    1.0691    0.0770 H   0  0  0  0  0  0  0  0  0  0  0  0
    3.6500    1.9643    1.3959 H   0  0  0  0  0  0  0  0  0  0  0  0
   -2.1696    1.8321   -0.7656 H   0  0  0  0  0  0  0  0  0  0  0  0
   -4.5953    1.7006   -0.5051 H   0  0  0  0  0  0  0  0  0  0  0  0
   -5.6077   -0.2936    0.4261 H   0  0  0  0  0  0  0  0  0  0  0  0
   -4.2057   -2.2143    1.1224 H   0  0  0  0  0  0  0  0  0  0  0  0
   -1.7878   -2.1008    0.8702 H   0  0  0  0  0  0  0  0  0  0  0  0
  1  2  2  0
  2  3  1  0
  3  4  2  0
  4  5  1  0
  5  6  2  0
  6  7  1  0
  7  8  2  0
  8  9  1  0
  9 10  1  0
 10 11  1  0
 11 12  2  0
 12 13  1  0
 13 14  2  0
 14 15  1  0
 15 16  2  0
 10  2  1  0
 16 11  1  0
  8  3  1  0
  4 17  1  0
  5 18  1  0
  6 19  1  0
  7 20  1  0
 12 21  1  0
 13 22  1  0
 14 23  1  0
 15 24  1  0
 16 25  1  0
M  END
$$$$
