
     RDKit          3D

 59 62  0  0  0  0  0  0  0  0999 V2000
    1.0655   -0.8293    2.0809 N   0  0  0  0  0  0  0  0  0  0  0  0
    1.1387   -0.3277    0.7163 C   0  0  0  0  0  0  0  0  0  0  0  0
   -0.2418   -0.3960    0.1617 C   0  0  0  0  0  0  0  0  0  0  0  0
   -0.4139   -0.0028   -1.0311 O   0  0  0  0  0  0  0  0  0  0  0  0
   -1.3487   -0.8662    0.8793 N   0  0  0  0  0  0  0  0  0  0  0  0
   -2.7080   -0.9244    0.3091 C   0  0  0  0  0  0  0  0  0  0  0  0
   -3.1117   -2.3579    0.3488 C   0  0  0  0  0  0  0  0  0  0  0  0
   -4.4346   -2.7176   -0.1953 C   0  0  0  0  0  0  0  0  0  0  0  0
   -4.6606   -2.4246   -1.9180 S   0  0  0  0  0  6  0  0  0  0  0  0
   -4.4606   -0.7839   -2.3763 N   0  0  0  0  0  0  0  0  0  0  0  0
   -3.7339   -3.3011   -2.7310 O   0  0  0  0  0  0  0  0  0  0  0  0
   -6.0704   -2.8103   -2.3509 O   0  0  0  0  0  0  0  0  0  0  0  0
   -3.6078   -0.0601    1.1249 C   0  0  0  0  0  0  0  0  0  0  0  0
   -4.3885    0.9204    0.5929 C   0  0  0  0  0  0  0  0  0  0  0  0
   -5.2002    1.6545    1.4551 C   0  0  0  0  0  0  0  0  0  0  0  0
   -5.2268    1.4128    2.8051 C   0  0  0  0  0  0  0  0  0  0  0  0
   -6.2429    2.3258    3.9108 Cl  0  0  0  0  0  0  0  0  0  0  0  0
   -4.4366    0.4240    3.3294 C   0  0  0  0  0  0  0  0  0  0  0  0
   -3.6381   -0.2979    2.4778 C   0  0  0  0  0  0  0  0  0  0  0  0
    2.1003   -1.1863   -0.0337 C   0  0  0  0  0  0  0  0  0  0  0  0
    2.8382   -0.5378   -1.1425 C   0  0  0  0  0  0  0  0  0  0  0  0
    2.9465    0.8857   -1.0736 N   0  0  0  0  0  0  0  0  0  0  0  0
    4.1285    1.4985   -1.5622 C   0  0  0  0  0  0  0  0  0  0  0  0
    4.1298    2.3353   -2.6102 N   0  0  0  0  0  0  0  0  0  0  0  0
    5.2857    2.8851   -3.0399 C   0  0  0  0  0  0  0  0  0  0  0  0
    6.4741    2.6332   -2.4580 N   0  0  0  0  0  0  0  0  0  0  0  0
    6.5201    1.8120   -1.4186 C   0  0  0  0  0  0  0  0  0  0  0  0
    7.5270    1.3791   -0.6462 N   0  0  0  0  0  0  0  0  0  0  0  0
    7.0527    0.5457    0.2948 C   0  0  0  0  0  0  0  0  0  0  0  0
    5.6922    0.4463    0.1120 C   0  0  0  0  0  0  0  0  0  0  0  0
    5.3549    1.2361   -0.9583 C   0  0  0  0  0  0  0  0  0  0  0  0
    1.8948    1.7186   -0.5241 C   0  0  0  0  0  0  0  0  0  0  0  0
    1.5205    1.1165    0.8067 C   0  0  0  0  0  0  0  0  0  0  0  0
    0.4344   -0.2768    2.6840 H   0  0  0  0  0  0  0  0  0  0  0  0
    0.8831   -1.8518    2.0753 H   0  0  0  0  0  0  0  0  0  0  0  0
   -1.2051   -1.1897    1.8608 H   0  0  0  0  0  0  0  0  0  0  0  0
   -2.6964   -0.5575   -0.7100 H   0  0  0  0  0  0  0  0  0  0  0  0
   -2.3356   -2.9111   -0.2633 H   0  0  0  0  0  0  0  0  0  0  0  0
   -3.0151   -2.8178    1.3557 H   0  0  0  0  0  0  0  0  0  0  0  0
   -5.2882   -2.2993    0.3881 H   0  0  0  0  0  0  0  0  0  0  0  0
   -4.5545   -3.8345   -0.0573 H   0  0  0  0  0  0  0  0  0  0  0  0
   -5.3813   -0.2913   -2.3998 H   0  0  0  0  0  0  0  0  0  0  0  0
   -4.0569   -0.7748   -3.3435 H   0  0  0  0  0  0  0  0  0  0  0  0
   -4.3924    1.1571   -0.4836 H   0  0  0  0  0  0  0  0  0  0  0  0
   -5.8286    2.4361    1.0615 H   0  0  0  0  0  0  0  0  0  0  0  0
   -4.4535    0.2287    4.3954 H   0  0  0  0  0  0  0  0  0  0  0  0
   -3.0355   -1.0673    2.9539 H   0  0  0  0  0  0  0  0  0  0  0  0
    2.8310   -1.6967    0.6307 H   0  0  0  0  0  0  0  0  0  0  0  0
    1.4950   -2.0344   -0.4772 H   0  0  0  0  0  0  0  0  0  0  0  0
    2.3393   -0.7609   -2.1346 H   0  0  0  0  0  0  0  0  0  0  0  0
    3.8571   -0.9551   -1.2566 H   0  0  0  0  0  0  0  0  0  0  0  0
    5.2065    3.5595   -3.9027 H   0  0  0  0  0  0  0  0  0  0  0  0
    8.5554    1.6155   -0.7110 H   0  0  0  0  0  0  0  0  0  0  0  0
    7.5977    0.0214    1.0777 H   0  0  0  0  0  0  0  0  0  0  0  0
    4.9734   -0.1350    0.6834 H   0  0  0  0  0  0  0  0  0  0  0  0
    1.0297    1.8322   -1.1825 H   0  0  0  0  0  0  0  0  0  0  0  0
    2.3358    2.7107   -0.3058 H   0  0  0  0  0  0  0  0  0  0  0  0
    2.3267    1.2816    1.5512 H   0  0  0  0  0  0  0  0  0  0  0  0
    0.6333    1.6768    1.1748 H   0  0  0  0  0  0  0  0  0  0  0  0
  1  2  1  0
  2  3  1  0
  3  4  2  0
  3  5  1  0
  5  6  1  0
  6  7  1  0
  7  8  1  0
  8  9  1  0
  9 10  1  0
  9 11  2  0
  9 12  2  0
  6 13  1  0
 13 14  2  0
 14 15  1  0
 15 16  2  0
 16 17  1  0
 16 18  1  0
 18 19  2  0
  2 20  1  0
 20 21  1  0
 21 22  1  0
 22 23  1  0
 23 24  2  0
 24 25  1  0
 25 26  2  0
 26 27  1  0
 27 28  1  0
 28 29  1  0
 29 30  2  0
 30 31  1  0
 22 32  1  0
 32 33  1  0
 33  2  1  0
 19 13  1  0
 31 23  1  0
 31 27  2  0
  1 34  1  0
  1 35  1  0
  5 36  1  0
  6 37  1  0
  7 38  1  0
  7 39  1  0
  8 40  1  0
  8 41  1  0
 10 42  1  0
 10 43  1  0
 14 44  1  0
 15 45  1  0
 18 46  1  0
 19 47  1  0
 20 48  1  0
 20 49  1  0
 21 50  1  0
 21 51  1  0
 25 52  1  0
 28 53  1  0
 29 54  1  0
 30 55  1  0
 32 56  1  0
 32 57  1  0
 33 58  1  0
 33 59  1  0
M  END
$$$$
