
     RDKit          3D

 55 57  0  0  0  0  0  0  0  0999 V2000
   -2.4644    0.3827   -2.0901 C   0  0  0  0  0  0  0  0  0  0  0  0
   -1.6631    0.8017   -0.9420 N   0  0  0  0  0  0  0  0  0  0  0  0
   -2.2456    1.6981   -0.0085 C   0  0  0  0  0  0  0  0  0  0  0  0
   -3.5147    1.0880    0.5036 C   0  0  0  0  0  0  0  0  0  0  0  0
   -3.5377    0.2897    1.6172 C   0  0  0  0  0  0  0  0  0  0  0  0
   -4.7262   -0.2417    2.0223 N   0  0  0  0  0  0  0  0  0  0  0  0
   -5.8830   -0.0064    1.3611 C   0  0  0  0  0  0  0  0  0  0  0  0
   -7.0592   -0.5138    1.7293 N   0  0  0  0  0  0  0  0  0  0  0  0
   -8.2248   -0.2962    1.0838 C   0  0  0  0  0  0  0  0  0  0  0  0
   -9.4441   -0.8620    1.5161 N   0  0  0  0  0  0  0  0  0  0  0  0
   -8.1570    0.5030   -0.0169 N   0  0  0  0  0  0  0  0  0  0  0  0
   -7.0084    1.0478   -0.4459 C   0  0  0  0  0  0  0  0  0  0  0  0
   -6.9894    1.8752   -1.5978 N   0  0  0  0  0  0  0  0  0  0  0  0
   -5.8390    0.7966    0.2469 C   0  0  0  0  0  0  0  0  0  0  0  0
   -4.6549    1.3317   -0.1647 N   0  0  0  0  0  0  0  0  0  0  0  0
   -0.3520    0.2887   -0.8301 C   0  0  0  0  0  0  0  0  0  0  0  0
    0.1520   -0.6092   -1.7820 C   0  0  0  0  0  0  0  0  0  0  0  0
    1.4218   -1.1265   -1.7236 C   0  0  0  0  0  0  0  0  0  0  0  0
    2.2801   -0.7758   -0.6977 C   0  0  0  0  0  0  0  0  0  0  0  0
    3.6407   -1.3261   -0.6592 C   0  0  0  0  0  0  0  0  0  0  0  0
    3.9987   -2.0864   -1.5642 O   0  0  0  0  0  0  0  0  0  0  0  0
    4.5834   -1.0414    0.3559 N   0  0  0  0  0  0  0  0  0  0  0  0
    5.8827   -1.5979    0.3382 C   0  0  1  0  0  0  0  0  0  0  0  0
    7.0233   -0.7071    0.0738 C   0  0  0  0  0  0  0  0  0  0  0  0
    7.3210    0.4262    0.9742 C   0  0  0  0  0  0  0  0  0  0  0  0
    6.3395    1.4657    1.1875 C   0  0  0  0  0  0  0  0  0  0  0  0
    5.6952    1.5321    2.2627 O   0  0  0  0  0  0  0  0  0  0  0  0
    6.0165    2.4534    0.2750 O   0  0  0  0  0  0  0  0  0  0  0  0
    6.0928   -2.4903    1.5258 C   0  0  0  0  0  0  0  0  0  0  0  0
    7.1620   -3.1117    1.7336 O   0  0  0  0  0  0  0  0  0  0  0  0
    5.0755   -2.6516    2.4486 O   0  0  0  0  0  0  0  0  0  0  0  0
    1.8092    0.1002    0.2456 C   0  0  0  0  0  0  0  0  0  0  0  0
    0.5128    0.6240    0.1796 C   0  0  0  0  0  0  0  0  0  0  0  0
   -3.3958    0.9616   -2.1540 H   0  0  0  0  0  0  0  0  0  0  0  0
   -1.9145    0.5542   -3.0360 H   0  0  0  0  0  0  0  0  0  0  0  0
   -2.7226   -0.6872   -1.9752 H   0  0  0  0  0  0  0  0  0  0  0  0
   -2.4898    2.6416   -0.5811 H   0  0  0  0  0  0  0  0  0  0  0  0
   -1.6132    1.9774    0.8318 H   0  0  0  0  0  0  0  0  0  0  0  0
   -2.6218    0.0938    2.1556 H   0  0  0  0  0  0  0  0  0  0  0  0
  -10.3095   -0.6684    0.9938 H   0  0  0  0  0  0  0  0  0  0  0  0
   -9.4678   -1.4650    2.3509 H   0  0  0  0  0  0  0  0  0  0  0  0
   -7.8399    2.3099   -2.0143 H   0  0  0  0  0  0  0  0  0  0  0  0
   -6.0802    2.0877   -2.0921 H   0  0  0  0  0  0  0  0  0  0  0  0
   -0.5228   -0.8798   -2.5804 H   0  0  0  0  0  0  0  0  0  0  0  0
    1.7903   -1.8202   -2.4707 H   0  0  0  0  0  0  0  0  0  0  0  0
    4.2886   -0.4147    1.1251 H   0  0  0  0  0  0  0  0  0  0  0  0
    5.8855   -2.3521   -0.5168 H   0  0  0  0  0  0  0  0  0  0  0  0
    7.0119   -0.3948   -1.0200 H   0  0  0  0  0  0  0  0  0  0  0  0
    7.9724   -1.3404    0.0893 H   0  0  0  0  0  0  0  0  0  0  0  0
    8.2410    0.9291    0.5192 H   0  0  0  0  0  0  0  0  0  0  0  0
    7.7679    0.0773    1.9650 H   0  0  0  0  0  0  0  0  0  0  0  0
    5.0621    2.8148    0.2610 H   0  0  0  0  0  0  0  0  0  0  0  0
    5.0512   -3.4017    3.1278 H   0  0  0  0  0  0  0  0  0  0  0  0
    2.4401    0.4002    1.0602 H   0  0  0  0  0  0  0  0  0  0  0  0
    0.2231    1.3161    0.9722 H   0  0  0  0  0  0  0  0  0  0  0  0
  1  2  1  0
  2  3  1  0
  3  4  1  0
  4  5  2  0
  5  6  1  0
  6  7  2  0
  7  8  1  0
  8  9  2  0
  9 10  1  0
  9 11  1  0
 11 12  2  0
 12 13  1  0
 12 14  1  0
 14 15  2  0
  2 16  1  0
 16 17  2  0
 17 18  1  0
 18 19  2  0
 19 20  1  0
 20 21  2  0
 20 22  1  0
 22 23  1  0
 23 24  1  0
 24 25  1  0
 25 26  1  0
 26 27  2  0
 26 28  1  0
 23 29  1  0
 29 30  2  0
 29 31  1  0
 19 32  1  0
 32 33  2  0
 15  4  1  0
 33 16  1  0
 14  7  1  0
  1 34  1  0
  1 35  1  0
  1 36  1  0
  3 37  1  0
  3 38  1  0
  5 39  1  0
 10 40  1  0
 10 41  1  0
 13 42  1  0
 13 43  1  0
 17 44  1  0
 18 45  1  0
 22 46  1  0
 23 47  1  6
 24 48  1  0
 24 49  1  0
 25 50  1  0
 25 51  1  0
 28 52  1  0
 31 53  1  0
 32 54  1  0
 33 55  1  0
M  END
$$$$
