
     RDKit          3D

 41 42  0  0  0  0  0  0  0  0999 V2000
   -2.3328    2.0089    1.5416 C   0  0  0  0  0  0  0  0  0  0  0  0
   -2.5223    0.7702    0.7400 C   0  0  1  0  0  0  0  0  0  0  0  0
   -3.4044    0.9704   -0.4726 C   0  0  0  0  0  0  0  0  0  0  0  0
   -3.6858   -0.3016   -1.0402 N   0  0  0  0  0  0  0  0  0  0  0  0
   -2.7941   -1.3614   -0.7680 C   0  0  2  0  0  0  0  0  0  0  0  0
   -3.3108   -2.3194    0.2810 C   0  0  0  0  0  0  0  0  0  0  0  0
   -1.3635   -0.9588   -0.4414 C   0  0  0  0  0  0  0  0  0  0  0  0
   -1.2606    0.2795    0.2118 N   0  0  0  0  0  0  0  0  0  0  0  0
   -0.3744    1.2669   -0.2067 C   0  0  0  0  0  0  0  0  0  0  0  0
    1.0614    0.9994    0.0729 C   0  0  0  0  0  0  0  0  0  0  0  0
    1.6087   -0.2202   -0.5545 C   0  0  0  0  0  0  0  0  0  0  0  0
    3.0788   -0.2573   -0.2075 C   0  0  0  0  0  0  0  0  0  0  0  0
    3.9551    0.3442   -1.0594 C   0  0  0  0  0  0  0  0  0  0  0  0
    5.3013    0.2942   -0.7160 C   0  0  0  0  0  0  0  0  0  0  0  0
    5.7167   -0.3331    0.4273 C   0  0  0  0  0  0  0  0  0  0  0  0
    4.7885   -0.9275    1.2571 C   0  0  0  0  0  0  0  0  0  0  0  0
    3.4473   -0.8898    0.9359 C   0  0  0  0  0  0  0  0  0  0  0  0
   -1.3710    1.9943    2.1034 H   0  0  0  0  0  0  0  0  0  0  0  0
   -3.1320    2.0603    2.3333 H   0  0  0  0  0  0  0  0  0  0  0  0
   -2.4469    2.9493    0.9599 H   0  0  0  0  0  0  0  0  0  0  0  0
   -2.9576   -0.0455    1.3497 H   0  0  0  0  0  0  0  0  0  0  0  0
   -4.3089    1.5204   -0.1795 H   0  0  0  0  0  0  0  0  0  0  0  0
   -2.8661    1.6143   -1.2256 H   0  0  0  0  0  0  0  0  0  0  0  0
   -4.6519   -0.5952   -0.6998 H   0  0  0  0  0  0  0  0  0  0  0  0
   -2.7242   -1.9745   -1.7135 H   0  0  0  0  0  0  0  0  0  0  0  0
   -3.4366   -3.3570   -0.0955 H   0  0  0  0  0  0  0  0  0  0  0  0
   -2.5924   -2.4041    1.1485 H   0  0  0  0  0  0  0  0  0  0  0  0
   -4.2530   -1.9472    0.6841 H   0  0  0  0  0  0  0  0  0  0  0  0
   -0.7519   -1.0368   -1.3812 H   0  0  0  0  0  0  0  0  0  0  0  0
   -1.0024   -1.7641    0.2283 H   0  0  0  0  0  0  0  0  0  0  0  0
   -0.6570    2.3086    0.1806 H   0  0  0  0  0  0  0  0  0  0  0  0
   -0.5158    1.4457   -1.3353 H   0  0  0  0  0  0  0  0  0  0  0  0
    1.6473    1.9255   -0.2072 H   0  0  0  0  0  0  0  0  0  0  0  0
    1.2538    0.9329    1.1953 H   0  0  0  0  0  0  0  0  0  0  0  0
    1.5177   -0.2847   -1.6446 H   0  0  0  0  0  0  0  0  0  0  0  0
    1.1554   -1.1425   -0.1188 H   0  0  0  0  0  0  0  0  0  0  0  0
    3.6635    0.8400   -1.9561 H   0  0  0  0  0  0  0  0  0  0  0  0
    6.0176    0.7596   -1.3671 H   0  0  0  0  0  0  0  0  0  0  0  0
    6.7693   -0.3737    0.6942 H   0  0  0  0  0  0  0  0  0  0  0  0
    5.0448   -1.4424    2.1769 H   0  0  0  0  0  0  0  0  0  0  0  0
    2.6892   -1.3476    1.5655 H   0  0  0  0  0  0  0  0  0  0  0  0
  1  2  1  0
  2  3  1  0
  3  4  1  0
  4  5  1  0
  5  6  1  0
  5  7  1  0
  7  8  1  0
  8  9  1  0
  9 10  1  0
 10 11  1  0
 11 12  1  0
 12 13  2  0
 13 14  1  0
 14 15  2  0
 15 16  1  0
 16 17  2  0
  8  2  1  0
 17 12  1  0
  1 18  1  0
  1 19  1  0
  1 20  1  0
  2 21  1  1
  3 22  1  0
  3 23  1  0
  4 24  1  0
  5 25  1  6
  6 26  1  0
  6 27  1  0
  6 28  1  0
  7 29  1  0
  7 30  1  0
  9 31  1  0
  9 32  1  0
 10 33  1  0
 10 34  1  0
 11 35  1  0
 11 36  1  0
 13 37  1  0
 14 38  1  0
 15 39  1  0
 16 40  1  0
 17 41  1  0
M  END
$$$$
