
     RDKit          3D

 58 62  0  0  0  0  0  0  0  0999 V2000
   -1.4002   -1.4425   -1.1454 C   0  0  0  0  0  0  0  0  0  0  0  0
   -0.7895   -0.3674   -0.2780 C   0  0  2  0  0  0  0  0  0  0  0  0
    0.5735   -0.0935   -0.8403 C   0  0  0  0  0  0  0  0  0  0  0  0
    1.7076   -0.3229   -0.0966 C   0  0  0  0  0  0  0  0  0  0  0  0
    2.9825   -0.0451   -0.6111 C   0  0  0  0  0  0  0  0  0  0  0  0
    4.1675   -0.3051    0.1978 C   0  0  0  0  0  0  0  0  0  0  0  0
    5.1807    0.5235    0.2282 C   0  0  0  0  0  0  0  0  0  0  0  0
    5.0914    1.6534   -0.5306 F   0  0  0  0  0  0  0  0  0  0  0  0
    6.3995    0.3223    1.0214 C   0  0  0  0  0  0  0  0  0  0  0  0
    6.5833   -0.7881    1.8151 C   0  0  0  0  0  0  0  0  0  0  0  0
    7.7631   -0.8967    2.5368 C   0  0  0  0  0  0  0  0  0  0  0  0
    8.7479    0.0646    2.4840 C   0  0  0  0  0  0  0  0  0  0  0  0
    9.9677   -0.0718    3.2510 C   0  0  0  0  0  0  0  0  0  0  0  0
   10.9640   -0.1775    3.8539 N   0  0  0  0  0  0  0  0  0  0  0  0
    8.5118    1.1457    1.6795 C   0  0  0  0  0  0  0  0  0  0  0  0
    7.3724    1.2420    0.9879 N   0  0  0  0  0  0  0  0  0  0  0  0
    3.0880    0.4654   -1.8840 C   0  0  0  0  0  0  0  0  0  0  0  0
    1.9570    0.6879   -2.6107 C   0  0  0  0  0  0  0  0  0  0  0  0
    0.6845    0.4120   -2.1011 C   0  0  0  0  0  0  0  0  0  0  0  0
   -0.3986    0.6499   -2.9157 F   0  0  0  0  0  0  0  0  0  0  0  0
   -0.6154   -0.9305    1.0722 N   0  0  0  0  0  0  0  0  0  0  0  0
   -1.6434   -1.2177    1.7711 C   0  0  0  0  0  0  0  0  0  0  0  0
   -1.6102   -1.7612    3.0686 N   0  0  0  0  0  0  0  0  0  0  0  0
   -3.2307   -0.8609    1.0309 S   0  0  0  0  0  0  0  0  0  0  0  0
   -2.9874    0.7401    0.1550 C   0  0  1  0  0  0  0  0  0  0  0  0
   -4.1307    1.3678   -0.5071 C   0  0  0  0  0  0  0  0  0  0  0  0
   -4.2178    2.6430   -0.3620 O   0  0  0  0  0  0  0  0  0  0  0  0
   -5.0825    0.6688   -1.2530 N   0  0  0  0  0  0  0  0  0  0  0  0
   -6.2402    1.2786   -1.9288 C   0  0  0  0  0  0  0  0  0  0  0  0
   -7.3514    0.3775   -1.3745 C   0  0  0  0  0  0  0  0  0  0  0  0
   -6.6610   -0.9754   -1.1790 C   0  0  2  0  0  0  0  0  0  0  0  0
   -6.7051   -1.3345    0.1717 O   0  0  0  0  0  0  0  0  0  0  0  0
   -5.1913   -0.7205   -1.5473 C   0  0  0  0  0  0  0  0  0  0  0  0
   -2.0079    1.6281    0.9108 C   0  0  0  0  0  0  0  0  0  0  0  0
   -1.5942    0.8873   -0.2971 C   0  0  1  0  0  0  0  0  0  0  0  0
   -1.5176   -2.4112   -0.5902 H   0  0  0  0  0  0  0  0  0  0  0  0
   -2.3384   -1.0826   -1.6055 H   0  0  0  0  0  0  0  0  0  0  0  0
   -0.7408   -1.7074   -2.0244 H   0  0  0  0  0  0  0  0  0  0  0  0
    1.6478   -0.7279    0.9166 H   0  0  0  0  0  0  0  0  0  0  0  0
    4.1945   -1.2122    0.7845 H   0  0  0  0  0  0  0  0  0  0  0  0
    5.8201   -1.5739    1.8807 H   0  0  0  0  0  0  0  0  0  0  0  0
    7.9098   -1.7768    3.1660 H   0  0  0  0  0  0  0  0  0  0  0  0
    9.2829    1.9167    1.6265 H   0  0  0  0  0  0  0  0  0  0  0  0
    4.0928    0.6802   -2.2948 H   0  0  0  0  0  0  0  0  0  0  0  0
    2.0160    1.0897   -3.6160 H   0  0  0  0  0  0  0  0  0  0  0  0
   -1.7893   -2.7811    3.2801 H   0  0  0  0  0  0  0  0  0  0  0  0
   -1.3993   -1.1642    3.9134 H   0  0  0  0  0  0  0  0  0  0  0  0
   -6.1846    1.0721   -3.0167 H   0  0  0  0  0  0  0  0  0  0  0  0
   -6.3643    2.3243   -1.6539 H   0  0  0  0  0  0  0  0  0  0  0  0
   -7.6231    0.7944   -0.3666 H   0  0  0  0  0  0  0  0  0  0  0  0
   -8.2098    0.2975   -2.0609 H   0  0  0  0  0  0  0  0  0  0  0  0
   -7.0376   -1.7426   -1.8529 H   0  0  0  0  0  0  0  0  0  0  0  0
   -6.6817   -0.5152    0.7328 H   0  0  0  0  0  0  0  0  0  0  0  0
   -4.6188   -1.4141   -0.9437 H   0  0  0  0  0  0  0  0  0  0  0  0
   -5.0455   -0.8630   -2.6442 H   0  0  0  0  0  0  0  0  0  0  0  0
   -1.6824    1.3351    1.9268 H   0  0  0  0  0  0  0  0  0  0  0  0
   -2.2289    2.7061    0.8433 H   0  0  0  0  0  0  0  0  0  0  0  0
   -1.3869    1.5699   -1.1745 H   0  0  0  0  0  0  0  0  0  0  0  0
  2  1  1  6
  2  3  1  0
  3  4  2  0
  4  5  1  0
  5  6  1  0
  6  7  2  0
  7  8  1  0
  7  9  1  0
  9 10  2  0
 10 11  1  0
 11 12  2  0
 12 13  1  0
 13 14  3  0
 12 15  1  0
 15 16  2  0
  5 17  2  0
 17 18  1  0
 18 19  2  0
 19 20  1  0
  2 21  1  0
 21 22  2  0
 22 23  1  0
 22 24  1  0
 24 25  1  0
 25 26  1  6
 26 27  2  0
 26 28  1  0
 28 29  1  0
 29 30  1  0
 30 31  1  0
 31 32  1  0
 31 33  1  0
 25 34  1  0
 34 35  1  0
 35  2  1  0
 19  3  1  0
 35 25  1  0
 16  9  1  0
 33 28  1  0
  1 36  1  0
  1 37  1  0
  1 38  1  0
  4 39  1  0
  6 40  1  0
 10 41  1  0
 11 42  1  0
 15 43  1  0
 17 44  1  0
 18 45  1  0
 23 46  1  0
 23 47  1  0
 29 48  1  0
 29 49  1  0
 30 50  1  0
 30 51  1  0
 31 52  1  6
 32 53  1  0
 33 54  1  0
 33 55  1  0
 34 56  1  0
 34 57  1  0
 35 58  1  6
M  END
$$$$
