
     RDKit          3D

 53 56  0  0  0  0  0  0  0  0999 V2000
   -1.2029    2.8784   -1.2514 C   0  0  0  0  0  0  0  0  0  0  0  0
   -1.7787    2.0187   -0.1767 C   0  0  2  0  0  0  0  0  0  0  0  0
   -0.9349    2.0675    0.9776 N   0  0  0  0  0  0  0  0  0  0  0  0
   -1.3111    2.5994    2.3007 C   0  0  0  0  0  0  0  0  0  0  0  0
   -0.5427    1.7280    3.2758 C   0  0  0  0  0  0  0  0  0  0  0  0
    0.6327    1.1587    2.5517 C   0  0  2  0  0  0  0  0  0  0  0  0
    1.9108    1.4539    3.1132 N   0  0  0  0  0  0  0  0  0  0  0  0
    2.8444    0.0419    3.4401 S   0  0  0  0  0  0  0  0  0  0  0  0
    4.1787    0.4420    3.9572 O   0  0  0  0  0  0  0  0  0  0  0  0
    2.1219   -0.9263    4.3113 O   0  0  0  0  0  0  0  0  0  0  0  0
    3.0926   -0.7460    1.8802 C   0  0  0  0  0  0  0  0  0  0  0  0
    2.3147   -1.6984    1.2476 C   0  0  0  0  0  0  0  0  0  0  0  0
    2.9219   -1.9996    0.0477 C   0  0  0  0  0  0  0  0  0  0  0  0
    4.0749   -1.2416   -0.0741 C   0  0  0  0  0  0  0  0  0  0  0  0
    4.1198   -0.5142    1.0523 N   0  0  0  0  0  0  0  0  0  0  0  0
    4.8505   -1.3755   -1.1999 C   0  0  0  0  0  0  0  0  0  0  0  0
    4.4737   -2.2668   -2.2031 C   0  0  0  0  0  0  0  0  0  0  0  0
    3.3308   -3.0265   -2.0957 C   0  0  0  0  0  0  0  0  0  0  0  0
    2.9163   -4.1277   -3.3953 Cl  0  0  0  0  0  0  0  0  0  0  0  0
    2.5642   -2.8797   -0.9599 C   0  0  0  0  0  0  0  0  0  0  0  0
    0.4329    1.6360    1.1587 C   0  0  0  0  0  0  0  0  0  0  0  0
    1.2687    1.7001    0.1889 O   0  0  0  0  0  0  0  0  0  0  0  0
   -2.0233    0.6310   -0.5922 C   0  0  0  0  0  0  0  0  0  0  0  0
   -1.3026    0.2490    0.3689 O   0  0  0  0  0  0  0  0  0  0  0  0
   -2.6897   -0.1491   -1.5481 N   0  0  0  0  0  0  0  0  0  0  0  0
   -3.4634    0.5327   -2.5647 C   0  0  0  0  0  0  0  0  0  0  0  0
   -4.4690   -0.3947   -3.1552 C   0  0  0  0  0  0  0  0  0  0  0  0
   -4.1333   -1.7248   -3.1578 O   0  0  0  0  0  0  0  0  0  0  0  0
   -3.7842   -2.2131   -1.9104 C   0  0  0  0  0  0  0  0  0  0  0  0
   -2.5101   -1.5809   -1.3881 C   0  0  0  0  0  0  0  0  0  0  0  0
   -1.9910    3.4597   -1.7761 H   0  0  0  0  0  0  0  0  0  0  0  0
   -0.6055    2.2609   -1.9761 H   0  0  0  0  0  0  0  0  0  0  0  0
   -0.5084    3.6081   -0.7886 H   0  0  0  0  0  0  0  0  0  0  0  0
   -2.7857    2.4581    0.0804 H   0  0  0  0  0  0  0  0  0  0  0  0
   -2.3854    2.6291    2.4619 H   0  0  0  0  0  0  0  0  0  0  0  0
   -0.8163    3.5934    2.3361 H   0  0  0  0  0  0  0  0  0  0  0  0
   -1.2499    0.9028    3.5775 H   0  0  0  0  0  0  0  0  0  0  0  0
   -0.2171    2.3208    4.1638 H   0  0  0  0  0  0  0  0  0  0  0  0
    0.5734    0.0324    2.4784 H   0  0  0  0  0  0  0  0  0  0  0  0
    2.4483    2.0364    2.4338 H   0  0  0  0  0  0  0  0  0  0  0  0
    1.4035   -2.0819    1.6918 H   0  0  0  0  0  0  0  0  0  0  0  0
    4.8852    0.1642    1.2547 H   0  0  0  0  0  0  0  0  0  0  0  0
    5.7223   -0.7408   -1.1921 H   0  0  0  0  0  0  0  0  0  0  0  0
    5.1455   -2.2973   -3.0389 H   0  0  0  0  0  0  0  0  0  0  0  0
    1.6533   -3.4746   -0.8570 H   0  0  0  0  0  0  0  0  0  0  0  0
   -4.0451    1.3337   -2.0278 H   0  0  0  0  0  0  0  0  0  0  0  0
   -2.8250    1.0414   -3.3121 H   0  0  0  0  0  0  0  0  0  0  0  0
   -5.5164   -0.2262   -2.7716 H   0  0  0  0  0  0  0  0  0  0  0  0
   -4.5565   -0.1062   -4.2442 H   0  0  0  0  0  0  0  0  0  0  0  0
   -3.5879   -3.2976   -2.0128 H   0  0  0  0  0  0  0  0  0  0  0  0
   -4.6192   -2.1105   -1.1784 H   0  0  0  0  0  0  0  0  0  0  0  0
   -2.3520   -1.8579   -0.3301 H   0  0  0  0  0  0  0  0  0  0  0  0
   -1.6741   -1.9204   -2.0403 H   0  0  0  0  0  0  0  0  0  0  0  0
  1  2  1  0
  2  3  1  0
  3  4  1  0
  4  5  1  0
  5  6  1  0
  6  7  1  0
  7  8  1  0
  8  9  2  0
  8 10  2  0
  8 11  1  0
 11 12  2  0
 12 13  1  0
 13 14  2  0
 14 15  1  0
 14 16  1  0
 16 17  2  0
 17 18  1  0
 18 19  1  0
 18 20  2  0
  6 21  1  0
 21 22  2  0
  2 23  1  0
 23 24  2  0
 23 25  1  0
 25 26  1  0
 26 27  1  0
 27 28  1  0
 28 29  1  0
 29 30  1  0
 21  3  1  0
 30 25  1  0
 15 11  1  0
 20 13  1  0
  1 31  1  0
  1 32  1  0
  1 33  1  0
  2 34  1  1
  4 35  1  0
  4 36  1  0
  5 37  1  0
  5 38  1  0
  6 39  1  6
  7 40  1  0
 12 41  1  0
 15 42  1  0
 16 43  1  0
 17 44  1  0
 20 45  1  0
 26 46  1  0
 26 47  1  0
 27 48  1  0
 27 49  1  0
 29 50  1  0
 29 51  1  0
 30 52  1  0
 30 53  1  0
M  END
$$$$
