
     RDKit          3D

 46 48  0  0  0  0  0  0  0  0999 V2000
   -6.9827   -2.5467   -0.8984 N   0  0  0  0  0  0  0  0  0  0  0  0
   -6.3852   -1.2591   -0.7890 C   0  0  0  0  0  0  0  0  0  0  0  0
   -7.2457   -0.2067   -0.8300 N   0  0  0  0  0  0  0  0  0  0  0  0
   -6.7482    1.0608   -0.7311 C   0  0  0  0  0  0  0  0  0  0  0  0
   -5.4199    1.2183   -0.5965 N   0  0  0  0  0  0  0  0  0  0  0  0
   -4.5756    0.1722   -0.5568 C   0  0  0  0  0  0  0  0  0  0  0  0
   -5.0187   -1.1130   -0.6511 C   0  0  0  0  0  0  0  0  0  0  0  0
   -3.9995   -1.9650   -0.5868 N   0  0  0  0  0  0  0  0  0  0  0  0
   -2.8711   -1.2077   -0.4474 C   0  0  0  0  0  0  0  0  0  0  0  0
   -3.2304    0.0898   -0.4301 N   0  0  0  0  0  0  0  0  0  0  0  0
   -2.3564    1.2479   -0.2992 C   0  0  1  0  0  0  0  0  0  0  0  0
   -2.1933    1.6045    1.1726 C   0  0  0  0  0  0  0  0  0  0  0  0
   -0.6890    1.4971    1.3360 C   0  0  2  0  0  0  0  0  0  0  0  0
   -0.2056    2.3748    2.2915 O   0  0  0  0  0  0  0  0  0  0  0  0
   -0.2749    1.8889   -0.0682 C   0  0  1  0  0  0  0  0  0  0  0  0
    1.1882    1.6403   -0.3098 C   0  0  0  0  0  0  0  0  0  0  0  0
    1.4405    0.3394    0.1318 O   0  0  0  0  0  0  0  0  0  0  0  0
    3.0321   -0.1228   -0.0575 P   0  0  0  0  0  0  0  0  0  0  0  0
    3.9784    0.2871    1.3070 O   0  0  0  0  0  0  0  0  0  0  0  0
    3.7068    0.4793   -1.2475 O   0  0  0  0  0  0  0  0  0  0  0  0
    3.0673   -1.8300   -0.1150 O   0  0  0  0  0  0  0  0  0  0  0  0
    4.6919   -2.2620   -0.2470 P   0  0  0  0  0  0  0  0  0  0  0  0
    4.9358   -3.9071    0.0259 O   0  0  0  0  0  0  0  0  0  0  0  0
    5.0888   -1.9792   -1.6942 O   0  0  0  0  0  0  0  0  0  0  0  0
    5.5548   -1.2864    0.8129 O   0  0  0  0  0  0  0  0  0  0  0  0
    6.8700   -0.5296    0.0631 P   0  0  0  0  0  0  0  0  0  0  0  0
    7.1815   -1.2280   -1.4321 O   0  0  0  0  0  0  0  0  0  0  0  0
    6.6518    1.1430   -0.0395 O   0  0  0  0  0  0  0  0  0  0  0  0
    8.0851   -0.7738    0.9503 O   0  0  0  0  0  0  0  0  0  0  0  0
   -1.0826    0.9701   -0.7772 O   0  0  0  0  0  0  0  0  0  0  0  0
   -7.5190   -3.2995   -0.4131 H   0  0  0  0  0  0  0  0  0  0  0  0
   -7.0223   -3.1971   -1.7246 H   0  0  0  0  0  0  0  0  0  0  0  0
   -7.4865    1.8510   -0.7708 H   0  0  0  0  0  0  0  0  0  0  0  0
   -1.8466   -1.5966   -0.3639 H   0  0  0  0  0  0  0  0  0  0  0  0
   -2.7478    2.1106   -0.8515 H   0  0  0  0  0  0  0  0  0  0  0  0
   -2.7263    0.8497    1.7845 H   0  0  0  0  0  0  0  0  0  0  0  0
   -2.4944    2.6393    1.3758 H   0  0  0  0  0  0  0  0  0  0  0  0
   -0.3723    0.4565    1.4910 H   0  0  0  0  0  0  0  0  0  0  0  0
    0.4091    1.8350    2.8657 H   0  0  0  0  0  0  0  0  0  0  0  0
   -0.6195    2.9009   -0.3218 H   0  0  0  0  0  0  0  0  0  0  0  0
    1.7360    2.3362    0.3590 H   0  0  0  0  0  0  0  0  0  0  0  0
    1.4975    1.7941   -1.3430 H   0  0  0  0  0  0  0  0  0  0  0  0
    3.4041    0.6443    2.0242 H   0  0  0  0  0  0  0  0  0  0  0  0
    5.5849   -4.0686    0.7606 H   0  0  0  0  0  0  0  0  0  0  0  0
    7.4103   -0.5228   -2.0782 H   0  0  0  0  0  0  0  0  0  0  0  0
    6.5988    1.4707   -0.9584 H   0  0  0  0  0  0  0  0  0  0  0  0
  1  2  1  0
  2  3  2  0
  3  4  1  0
  4  5  2  0
  5  6  1  0
  6  7  2  0
  7  8  1  0
  8  9  2  0
  9 10  1  0
 10 11  1  0
 11 12  1  0
 12 13  1  0
 13 14  1  0
 13 15  1  0
 15 16  1  0
 16 17  1  0
 17 18  1  0
 18 19  1  0
 18 20  2  0
 18 21  1  0
 21 22  1  0
 22 23  1  0
 22 24  2  0
 22 25  1  0
 25 26  1  0
 26 27  1  0
 26 28  1  0
 26 29  2  0
 15 30  1  0
  7  2  1  0
 30 11  1  0
 10  6  1  0
  1 31  1  0
  1 32  1  0
  4 33  1  0
  9 34  1  0
 11 35  1  6
 12 36  1  0
 12 37  1  0
 13 38  1  1
 14 39  1  0
 15 40  1  6
 16 41  1  0
 16 42  1  0
 19 43  1  0
 23 44  1  0
 27 45  1  0
 28 46  1  0
M  END
$$$$
