
     RDKit          3D

 52 55  0  0  0  0  0  0  0  0999 V2000
   -6.6318    2.6725   -1.4933 C   0  0  0  0  0  0  0  0  0  0  0  0
   -6.0881    1.5131   -0.7295 C   0  0  0  0  0  0  0  0  0  0  0  0
   -4.7791    1.3267   -0.3453 C   0  0  0  0  0  0  0  0  0  0  0  0
   -4.7613    0.1125    0.3367 C   0  0  0  0  0  0  0  0  0  0  0  0
   -3.6118   -0.5361    0.9450 C   0  0  0  0  0  0  0  0  0  0  0  0
   -3.7425   -1.6380    1.5321 O   0  0  0  0  0  0  0  0  0  0  0  0
   -2.3066    0.0308    0.9082 N   0  0  0  0  0  0  0  0  0  0  0  0
   -1.1936   -0.6501    1.5267 C   0  0  0  0  0  0  0  0  0  0  0  0
   -0.6326    0.1804    2.6428 C   0  0  0  0  0  0  0  0  0  0  0  0
    0.8575    0.2360    2.6900 C   0  0  0  0  0  0  0  0  0  0  0  0
    1.3585    0.6831    1.3223 C   0  0  0  0  0  0  0  0  0  0  0  0
    1.0531   -0.4318    0.3890 C   0  0  0  0  0  0  0  0  0  0  0  0
   -0.1759   -1.0426    0.5192 C   0  0  0  0  0  0  0  0  0  0  0  0
   -0.2070   -2.0206   -0.4420 C   0  0  0  0  0  0  0  0  0  0  0  0
    0.9660   -1.9642   -1.0940 N   0  0  0  0  0  0  0  0  0  0  0  0
    1.7299   -1.0220   -0.6112 N   0  0  0  0  0  0  0  0  0  0  0  0
    3.0375   -0.6527   -1.0309 C   0  0  0  0  0  0  0  0  0  0  0  0
    3.2272   -0.3148   -2.3724 C   0  0  0  0  0  0  0  0  0  0  0  0
    4.4745    0.0530   -2.8434 C   0  0  0  0  0  0  0  0  0  0  0  0
    5.5415    0.0815   -1.9580 C   0  0  0  0  0  0  0  0  0  0  0  0
    6.8609    0.4724   -2.4656 C   0  0  0  0  0  0  0  0  0  0  0  0
    5.3869   -0.2425   -0.6457 C   0  0  0  0  0  0  0  0  0  0  0  0
    6.5318   -0.2038    0.2680 C   0  0  0  0  0  0  0  0  0  0  0  0
    4.1250   -0.6090   -0.1945 C   0  0  0  0  0  0  0  0  0  0  0  0
   -6.0059   -0.3947    0.3536 N   0  0  0  0  0  0  0  0  0  0  0  0
   -6.3951   -1.6560    0.9747 C   0  0  0  0  0  0  0  0  0  0  0  0
   -6.7756    0.4570   -0.2868 N   0  0  0  0  0  0  0  0  0  0  0  0
   -5.9126    3.5099   -1.4623 H   0  0  0  0  0  0  0  0  0  0  0  0
   -7.6203    2.9836   -1.0529 H   0  0  0  0  0  0  0  0  0  0  0  0
   -6.8562    2.3614   -2.5291 H   0  0  0  0  0  0  0  0  0  0  0  0
   -3.9246    1.9615   -0.5170 H   0  0  0  0  0  0  0  0  0  0  0  0
   -2.2017    0.9501    0.4174 H   0  0  0  0  0  0  0  0  0  0  0  0
   -1.5649   -1.5917    1.9730 H   0  0  0  0  0  0  0  0  0  0  0  0
   -1.0160    1.2311    2.5620 H   0  0  0  0  0  0  0  0  0  0  0  0
   -0.9763   -0.1935    3.6518 H   0  0  0  0  0  0  0  0  0  0  0  0
    1.2814   -0.7596    2.9043 H   0  0  0  0  0  0  0  0  0  0  0  0
    1.1605    1.0204    3.4017 H   0  0  0  0  0  0  0  0  0  0  0  0
    2.4268    0.8874    1.4270 H   0  0  0  0  0  0  0  0  0  0  0  0
    0.8577    1.6217    1.0107 H   0  0  0  0  0  0  0  0  0  0  0  0
   -1.0149   -2.7331   -0.6680 H   0  0  0  0  0  0  0  0  0  0  0  0
    2.3950   -0.3338   -3.0778 H   0  0  0  0  0  0  0  0  0  0  0  0
    4.5936    0.3120   -3.8972 H   0  0  0  0  0  0  0  0  0  0  0  0
    6.9292    0.1090   -3.5313 H   0  0  0  0  0  0  0  0  0  0  0  0
    6.9103    1.5760   -2.5078 H   0  0  0  0  0  0  0  0  0  0  0  0
    7.7083    0.0121   -1.9322 H   0  0  0  0  0  0  0  0  0  0  0  0
    6.2402   -0.5604    1.2920 H   0  0  0  0  0  0  0  0  0  0  0  0
    7.3024   -0.9392   -0.0754 H   0  0  0  0  0  0  0  0  0  0  0  0
    6.9582    0.8073    0.4044 H   0  0  0  0  0  0  0  0  0  0  0  0
    4.0101   -0.8615    0.8337 H   0  0  0  0  0  0  0  0  0  0  0  0
   -5.9213   -2.5241    0.4867 H   0  0  0  0  0  0  0  0  0  0  0  0
   -7.4975   -1.7140    0.9386 H   0  0  0  0  0  0  0  0  0  0  0  0
   -6.1107   -1.5727    2.0522 H   0  0  0  0  0  0  0  0  0  0  0  0
  1  2  1  0
  2  3  1  0
  3  4  2  0
  4  5  1  0
  5  6  2  0
  5  7  1  0
  7  8  1  0
  8  9  1  0
  9 10  1  0
 10 11  1  0
 11 12  1  0
 12 13  2  0
 13 14  1  0
 14 15  2  0
 15 16  1  0
 16 17  1  0
 17 18  2  0
 18 19  1  0
 19 20  2  0
 20 21  1  0
 20 22  1  0
 22 23  1  0
 22 24  2  0
  4 25  1  0
 25 26  1  0
 25 27  1  0
 27  2  2  0
 13  8  1  0
 24 17  1  0
 16 12  1  0
  1 28  1  0
  1 29  1  0
  1 30  1  0
  3 31  1  0
  7 32  1  0
  8 33  1  0
  9 34  1  0
  9 35  1  0
 10 36  1  0
 10 37  1  0
 11 38  1  0
 11 39  1  0
 14 40  1  0
 18 41  1  0
 19 42  1  0
 21 43  1  0
 21 44  1  0
 21 45  1  0
 23 46  1  0
 23 47  1  0
 23 48  1  0
 24 49  1  0
 26 50  1  0
 26 51  1  0
 26 52  1  0
M  END
$$$$
