
     RDKit          3D

 49 53  0  0  0  0  0  0  0  0999 V2000
    5.8925    1.7691   -1.6331 O   0  0  0  0  0  0  0  0  0  0  0  0
    4.8057    1.4043   -1.1194 C   0  0  0  0  0  0  0  0  0  0  0  0
    3.8107    2.3379   -0.8670 O   0  0  0  0  0  0  0  0  0  0  0  0
    4.6259   -0.0327   -0.7977 C   0  0  0  0  0  0  0  0  0  0  0  0
    3.3385   -0.2985   -0.2176 N   0  0  0  0  0  0  0  0  0  0  0  0
    2.2456   -0.6113   -0.9259 C   0  0  0  0  0  0  0  0  0  0  0  0
    1.2108   -0.7918   -0.0012 C   0  0  0  0  0  0  0  0  0  0  0  0
    1.6996   -0.5831    1.2655 C   0  0  0  0  0  0  0  0  0  0  0  0
    1.1302   -0.6285    2.5191 C   0  0  0  0  0  0  0  0  0  0  0  0
    1.8709   -0.3685    3.6623 C   0  0  0  0  0  0  0  0  0  0  0  0
    1.2963   -0.4161    4.9018 F   0  0  0  0  0  0  0  0  0  0  0  0
    3.2015   -0.0624    3.4948 C   0  0  0  0  0  0  0  0  0  0  0  0
    3.7749   -0.0170    2.2279 C   0  0  0  0  0  0  0  0  0  0  0  0
    3.0322   -0.2767    1.0950 C   0  0  0  0  0  0  0  0  0  0  0  0
   -0.1051   -1.1474   -0.5608 C   0  0  0  0  0  0  0  0  0  0  0  0
   -0.3936   -0.3855   -1.7559 N   0  0  0  0  0  0  0  0  0  0  0  0
   -1.7308   -0.0537   -2.0976 C   0  0  0  0  0  0  0  0  0  0  0  0
   -2.0185    0.6102   -3.1339 O   0  0  0  0  0  0  0  0  0  0  0  0
   -2.8672   -0.4590   -1.2713 C   0  0  0  0  0  0  0  0  0  0  0  0
   -3.5134   -1.6593   -1.4843 C   0  0  0  0  0  0  0  0  0  0  0  0
   -4.5896   -2.0447   -0.7026 C   0  0  0  0  0  0  0  0  0  0  0  0
   -5.0573   -1.2493    0.3152 C   0  0  0  0  0  0  0  0  0  0  0  0
   -4.4210   -0.0464    0.5398 C   0  0  0  0  0  0  0  0  0  0  0  0
   -4.8735    0.7702    1.5577 C   0  0  0  0  0  0  0  0  0  0  0  0
   -4.2683    1.9842    1.8204 C   0  0  0  0  0  0  0  0  0  0  0  0
   -3.1994    2.3413    1.0260 C   0  0  0  0  0  0  0  0  0  0  0  0
   -2.7286    1.5481    0.0067 C   0  0  0  0  0  0  0  0  0  0  0  0
   -3.3401    0.3320   -0.2515 C   0  0  0  0  0  0  0  0  0  0  0  0
    0.6738    0.0511   -2.6229 C   0  0  0  0  0  0  0  0  0  0  0  0
    1.8948   -0.7985   -2.3561 C   0  0  0  0  0  0  0  0  0  0  0  0
    4.1318    3.3182   -0.8501 H   0  0  0  0  0  0  0  0  0  0  0  0
    5.3971   -0.3464   -0.0627 H   0  0  0  0  0  0  0  0  0  0  0  0
    4.7357   -0.6250   -1.7284 H   0  0  0  0  0  0  0  0  0  0  0  0
    0.0720   -0.8751    2.6081 H   0  0  0  0  0  0  0  0  0  0  0  0
    3.8222    0.1482    4.3517 H   0  0  0  0  0  0  0  0  0  0  0  0
    4.8269    0.2237    2.0770 H   0  0  0  0  0  0  0  0  0  0  0  0
   -0.0489   -2.2451   -0.8217 H   0  0  0  0  0  0  0  0  0  0  0  0
   -0.8619   -0.9595    0.2228 H   0  0  0  0  0  0  0  0  0  0  0  0
   -3.2083   -2.3432   -2.2645 H   0  0  0  0  0  0  0  0  0  0  0  0
   -5.0938   -2.9956   -0.8790 H   0  0  0  0  0  0  0  0  0  0  0  0
   -5.9132   -1.5518    0.9397 H   0  0  0  0  0  0  0  0  0  0  0  0
   -5.7139    0.5012    2.1905 H   0  0  0  0  0  0  0  0  0  0  0  0
   -4.6189    2.6427    2.6273 H   0  0  0  0  0  0  0  0  0  0  0  0
   -2.7206    3.2924    1.2272 H   0  0  0  0  0  0  0  0  0  0  0  0
   -1.8764    1.8440   -0.6189 H   0  0  0  0  0  0  0  0  0  0  0  0
    0.3841    0.0581   -3.6987 H   0  0  0  0  0  0  0  0  0  0  0  0
    0.9711    1.1058   -2.3830 H   0  0  0  0  0  0  0  0  0  0  0  0
    2.7371   -0.5472   -3.0180 H   0  0  0  0  0  0  0  0  0  0  0  0
    1.5799   -1.8632   -2.5528 H   0  0  0  0  0  0  0  0  0  0  0  0
  1  2  2  0
  2  3  1  0
  2  4  1  0
  4  5  1  0
  5  6  1  0
  6  7  2  0
  7  8  1  0
  8  9  2  0
  9 10  1  0
 10 11  1  0
 10 12  2  0
 12 13  1  0
 13 14  2  0
  7 15  1  0
 15 16  1  0
 16 17  1  0
 17 18  2  0
 17 19  1  0
 19 20  2  0
 20 21  1  0
 21 22  2  0
 22 23  1  0
 23 24  2  0
 24 25  1  0
 25 26  2  0
 26 27  1  0
 27 28  2  0
 16 29  1  0
 29 30  1  0
 14  5  1  0
 28 19  1  0
 30  6  1  0
 14  8  1  0
 28 23  1  0
  3 31  1  0
  4 32  1  0
  4 33  1  0
  9 34  1  0
 12 35  1  0
 13 36  1  0
 15 37  1  0
 15 38  1  0
 20 39  1  0
 21 40  1  0
 22 41  1  0
 24 42  1  0
 25 43  1  0
 26 44  1  0
 27 45  1  0
 29 46  1  0
 29 47  1  0
 30 48  1  0
 30 49  1  0
M  END
$$$$
