
     RDKit          3D

 65 69  0  0  0  0  0  0  0  0999 V2000
   -3.5142    0.3981    1.2683 C   0  0  0  0  0  0  0  0  0  0  0  0
   -3.6559    0.6801   -0.1627 C   0  0  0  0  0  0  0  0  0  0  0  0
   -3.2592   -0.1984   -1.1316 C   0  0  0  0  0  0  0  0  0  0  0  0
   -2.6609   -1.4647   -0.9480 N   0  0  0  0  0  0  0  0  0  0  0  0
   -3.2201   -2.4754   -0.1629 C   0  0  0  0  0  0  0  0  0  0  0  0
   -4.4222   -3.0257   -0.6505 C   0  0  0  0  0  0  0  0  0  0  0  0
   -5.0460   -2.5468   -1.8467 C   0  0  0  0  0  0  0  0  0  0  0  0
   -5.5634   -2.1645   -2.8266 N   0  0  0  0  0  0  0  0  0  0  0  0
   -4.9684   -4.0654    0.0703 C   0  0  0  0  0  0  0  0  0  0  0  0
   -4.4026   -4.5466    1.1822 N   0  0  0  0  0  0  0  0  0  0  0  0
   -3.2679   -4.0135    1.6253 C   0  0  0  0  0  0  0  0  0  0  0  0
   -2.6176   -2.9510    0.9767 C   0  0  0  0  0  0  0  0  0  0  0  0
   -1.3937   -2.4397    1.5487 C   0  0  0  0  0  0  0  0  0  0  0  0
   -0.6628   -1.4209    1.2037 C   0  0  0  0  0  0  0  0  0  0  0  0
    0.5798   -1.0062    1.8795 C   0  0  0  0  0  0  0  0  0  0  0  0
    1.1053   -1.6367    2.9582 C   0  0  0  0  0  0  0  0  0  0  0  0
    2.2945   -1.1651    3.5278 C   0  0  0  0  0  0  0  0  0  0  0  0
    2.9580   -0.0698    3.0251 C   0  0  0  0  0  0  0  0  0  0  0  0
    2.4269    0.5702    1.9323 C   0  0  0  0  0  0  0  0  0  0  0  0
    3.2413    1.9802    1.2590 S   0  0  0  0  0  6  0  0  0  0  0  0
    2.2420    2.9064    0.6350 O   0  0  0  0  0  0  0  0  0  0  0  0
    3.9572    2.7248    2.3370 O   0  0  0  0  0  0  0  0  0  0  0  0
    4.3978    1.4395    0.0956 N   0  0  0  0  0  0  0  0  0  0  0  0
    3.8216    0.7360   -1.0069 C   0  0  0  0  0  0  0  0  0  0  0  0
    4.9041   -0.1917   -1.5640 C   0  0  0  0  0  0  0  0  0  0  0  0
    6.1997    0.4180   -1.5176 N   0  0  0  0  0  0  0  0  0  0  0  0
    6.2589    1.6331   -2.2728 C   0  0  0  0  0  0  0  0  0  0  0  0
    6.6342    0.5904   -0.1357 C   0  0  0  0  0  0  0  0  0  0  0  0
    5.4215    0.6322    0.7766 C   0  0  0  0  0  0  0  0  0  0  0  0
    1.2633    0.1056    1.3777 C   0  0  0  0  0  0  0  0  0  0  0  0
   -3.4823    0.2175   -2.4548 C   0  0  0  0  0  0  0  0  0  0  0  0
   -4.0480    1.4001   -2.8148 C   0  0  0  0  0  0  0  0  0  0  0  0
   -4.4390    2.2703   -1.8170 C   0  0  0  0  0  0  0  0  0  0  0  0
   -5.0140    3.4931   -1.8550 N   0  0  0  0  0  0  0  0  0  0  0  0
   -5.2005    3.9441   -0.6056 C   0  0  0  0  0  0  0  0  0  0  0  0
   -4.7218    2.9617    0.2453 C   0  0  0  0  0  0  0  0  0  0  0  0
   -4.2455    1.9153   -0.4995 C   0  0  0  0  0  0  0  0  0  0  0  0
   -2.5318    0.6294    1.6965 H   0  0  0  0  0  0  0  0  0  0  0  0
   -4.2082    1.1151    1.8209 H   0  0  0  0  0  0  0  0  0  0  0  0
   -3.9365   -0.5877    1.5248 H   0  0  0  0  0  0  0  0  0  0  0  0
   -1.7550   -1.6117   -1.4945 H   0  0  0  0  0  0  0  0  0  0  0  0
   -5.9067   -4.4818   -0.3261 H   0  0  0  0  0  0  0  0  0  0  0  0
   -2.7804   -4.3894    2.5379 H   0  0  0  0  0  0  0  0  0  0  0  0
   -0.9870   -2.9901    2.4221 H   0  0  0  0  0  0  0  0  0  0  0  0
   -0.9785   -0.8067    0.3851 H   0  0  0  0  0  0  0  0  0  0  0  0
    0.6115   -2.5023    3.3836 H   0  0  0  0  0  0  0  0  0  0  0  0
    2.6590   -1.7264    4.3973 H   0  0  0  0  0  0  0  0  0  0  0  0
    3.8798    0.2644    3.4954 H   0  0  0  0  0  0  0  0  0  0  0  0
    2.9654    0.0885   -0.7112 H   0  0  0  0  0  0  0  0  0  0  0  0
    3.5255    1.4379   -1.8243 H   0  0  0  0  0  0  0  0  0  0  0  0
    4.6897   -0.4495   -2.6224 H   0  0  0  0  0  0  0  0  0  0  0  0
    4.9596   -1.1490   -1.0028 H   0  0  0  0  0  0  0  0  0  0  0  0
    6.4448    1.3466   -3.3434 H   0  0  0  0  0  0  0  0  0  0  0  0
    7.1113    2.2803   -1.9218 H   0  0  0  0  0  0  0  0  0  0  0  0
    5.3571    2.2581   -2.1765 H   0  0  0  0  0  0  0  0  0  0  0  0
    7.2292   -0.3305    0.1068 H   0  0  0  0  0  0  0  0  0  0  0  0
    7.2106    1.5214   -0.0413 H   0  0  0  0  0  0  0  0  0  0  0  0
    5.6203    1.1307    1.7337 H   0  0  0  0  0  0  0  0  0  0  0  0
    5.0164   -0.3979    0.8904 H   0  0  0  0  0  0  0  0  0  0  0  0
    0.8862    0.6497    0.5149 H   0  0  0  0  0  0  0  0  0  0  0  0
   -3.1614   -0.4916   -3.2373 H   0  0  0  0  0  0  0  0  0  0  0  0
   -4.1926    1.6574   -3.8761 H   0  0  0  0  0  0  0  0  0  0  0  0
   -5.2740    4.0104   -2.7182 H   0  0  0  0  0  0  0  0  0  0  0  0
   -5.6264    4.8683   -0.2440 H   0  0  0  0  0  0  0  0  0  0  0  0
   -4.7279    3.0215    1.3292 H   0  0  0  0  0  0  0  0  0  0  0  0
  1  2  1  0
  2  3  2  0
  3  4  1  0
  4  5  1  0
  5  6  2  0
  6  7  1  0
  7  8  3  0
  6  9  1  0
  9 10  2  0
 10 11  1  0
 11 12  2  0
 12 13  1  0
 13 14  2  0
 14 15  1  0
 15 16  2  0
 16 17  1  0
 17 18  2  0
 18 19  1  0
 19 20  1  0
 20 21  2  0
 20 22  2  0
 20 23  1  0
 23 24  1  0
 24 25  1  0
 25 26  1  0
 26 27  1  0
 26 28  1  0
 28 29  1  0
 19 30  2  0
  3 31  1  0
 31 32  2  0
 32 33  1  0
 33 34  1  0
 34 35  1  0
 35 36  2  0
 36 37  1  0
 37  2  1  0
 12  5  1  0
 30 15  1  0
 37 33  2  0
 29 23  1  0
  1 38  1  0
  1 39  1  0
  1 40  1  0
  4 41  1  0
  9 42  1  0
 11 43  1  0
 13 44  1  0
 14 45  1  0
 16 46  1  0
 17 47  1  0
 18 48  1  0
 24 49  1  0
 24 50  1  0
 25 51  1  0
 25 52  1  0
 27 53  1  0
 27 54  1  0
 27 55  1  0
 28 56  1  0
 28 57  1  0
 29 58  1  0
 29 59  1  0
 30 60  1  0
 31 61  1  0
 32 62  1  0
 34 63  1  0
 35 64  1  0
 36 65  1  0
M  END
$$$$
