
     RDKit          3D

 36 37  0  0  0  0  0  0  0  0999 V2000
    3.1182   -2.0367   -0.0358 C   0  0  0  0  0  0  0  0  0  0  0  0
    2.9653   -0.6566    0.3638 N   0  0  0  0  0  0  0  0  0  0  0  0
    4.2811   -0.0471    0.2892 C   0  0  0  0  0  0  0  0  0  0  0  0
    2.0417    0.0493   -0.5492 C   0  0  0  0  0  0  0  0  0  0  0  0
    0.7055   -0.4871   -0.3576 C   0  0  0  0  0  0  0  0  0  0  0  0
   -0.4327    0.0871   -0.0474 C   0  0  0  0  0  0  0  0  0  0  0  0
   -1.5839   -0.7963    0.0742 C   0  0  0  0  0  0  0  0  0  0  0  0
   -1.5144   -2.1707    0.1107 C   0  0  0  0  0  0  0  0  0  0  0  0
   -2.5724   -3.0401    0.1680 C   0  0  0  0  0  0  0  0  0  0  0  0
   -3.8522   -2.5274    0.1938 C   0  0  0  0  0  0  0  0  0  0  0  0
   -5.3563   -3.6893    0.2753 Br  0  0  0  0  0  0  0  0  0  0  0  0
   -4.0069   -1.1552    0.1597 C   0  0  0  0  0  0  0  0  0  0  0  0
   -2.8821   -0.3624    0.1016 C   0  0  0  0  0  0  0  0  0  0  0  0
   -0.5237    1.5142    0.0305 C   0  0  0  0  0  0  0  0  0  0  0  0
   -1.3702    2.2489    0.8288 C   0  0  0  0  0  0  0  0  0  0  0  0
   -1.5703    3.6083    0.8380 C   0  0  0  0  0  0  0  0  0  0  0  0
   -0.8422    4.3603   -0.0562 C   0  0  0  0  0  0  0  0  0  0  0  0
    0.0196    3.7106   -0.8830 N   0  0  0  0  0  0  0  0  0  0  0  0
    0.1512    2.3736   -0.8242 C   0  0  0  0  0  0  0  0  0  0  0  0
    2.3157   -2.6864    0.3597 H   0  0  0  0  0  0  0  0  0  0  0  0
    3.1861   -2.1742   -1.1394 H   0  0  0  0  0  0  0  0  0  0  0  0
    4.0843   -2.3957    0.3810 H   0  0  0  0  0  0  0  0  0  0  0  0
    4.1771    0.9702    0.7289 H   0  0  0  0  0  0  0  0  0  0  0  0
    4.9736   -0.6227    0.9143 H   0  0  0  0  0  0  0  0  0  0  0  0
    4.6391   -0.0137   -0.7515 H   0  0  0  0  0  0  0  0  0  0  0  0
    2.1772    1.1289   -0.2471 H   0  0  0  0  0  0  0  0  0  0  0  0
    2.4038   -0.1214   -1.5652 H   0  0  0  0  0  0  0  0  0  0  0  0
    0.8377   -1.5387   -0.5454 H   0  0  0  0  0  0  0  0  0  0  0  0
   -0.5633   -2.6792    0.1037 H   0  0  0  0  0  0  0  0  0  0  0  0
   -2.4738   -4.1153    0.1951 H   0  0  0  0  0  0  0  0  0  0  0  0
   -5.0205   -0.7961    0.1814 H   0  0  0  0  0  0  0  0  0  0  0  0
   -3.1419    0.6769    0.0492 H   0  0  0  0  0  0  0  0  0  0  0  0
   -1.9623    1.7377    1.5984 H   0  0  0  0  0  0  0  0  0  0  0  0
   -2.2604    4.1061    1.5015 H   0  0  0  0  0  0  0  0  0  0  0  0
   -0.9964    5.4295   -0.0521 H   0  0  0  0  0  0  0  0  0  0  0  0
    0.8487    2.1107   -1.6059 H   0  0  0  0  0  0  0  0  0  0  0  0
  1  2  1  0
  2  3  1  0
  2  4  1  0
  4  5  1  0
  5  6  2  0
  6  7  1  0
  7  8  2  0
  8  9  1  0
  9 10  2  0
 10 11  1  0
 10 12  1  0
 12 13  2  0
  6 14  1  0
 14 15  2  0
 15 16  1  0
 16 17  2  0
 17 18  1  0
 18 19  2  0
 13  7  1  0
 19 14  1  0
  1 20  1  0
  1 21  1  0
  1 22  1  0
  3 23  1  0
  3 24  1  0
  3 25  1  0
  4 26  1  0
  4 27  1  0
  5 28  1  0
  8 29  1  0
  9 30  1  0
 12 31  1  0
 13 32  1  0
 15 33  1  0
 16 34  1  0
 17 35  1  0
 19 36  1  0
M  END
$$$$
