
     RDKit          3D

 38 39  0  0  0  0  0  0  0  0999 V2000
    3.6986    0.4031   -2.3238 C   0  0  0  0  0  0  0  0  0  0  0  0
    2.5856   -0.3687   -1.8096 N   0  0  0  0  0  0  0  0  0  0  0  0
    3.0723   -1.2000   -0.7292 C   0  0  0  0  0  0  0  0  0  0  0  0
    1.4751    0.4673   -1.4013 C   0  0  0  0  0  0  0  0  0  0  0  0
    0.4030   -0.5036   -0.8916 C   0  0  0  0  0  0  0  0  0  0  0  0
   -0.8304    0.1994   -0.4234 C   0  0  1  0  0  0  0  0  0  0  0  0
   -1.8099   -0.7883    0.0486 C   0  0  0  0  0  0  0  0  0  0  0  0
   -1.5391   -1.9623    0.6870 C   0  0  0  0  0  0  0  0  0  0  0  0
   -2.5146   -2.8460    1.1040 C   0  0  0  0  0  0  0  0  0  0  0  0
   -3.8401   -2.5672    0.8844 C   0  0  0  0  0  0  0  0  0  0  0  0
   -5.1920   -3.7808    1.4564 Br  0  0  0  0  0  0  0  0  0  0  0  0
   -4.1668   -1.3919    0.2423 C   0  0  0  0  0  0  0  0  0  0  0  0
   -3.1697   -0.5321   -0.1608 C   0  0  0  0  0  0  0  0  0  0  0  0
   -0.5201    1.2242    0.6120 C   0  0  0  0  0  0  0  0  0  0  0  0
    0.4813    1.0915    1.5270 C   0  0  0  0  0  0  0  0  0  0  0  0
    0.6711    2.1106    2.4370 C   0  0  0  0  0  0  0  0  0  0  0  0
   -0.1190    3.2195    2.4232 C   0  0  0  0  0  0  0  0  0  0  0  0
   -1.1315    3.3240    1.4770 C   0  0  0  0  0  0  0  0  0  0  0  0
   -1.2883    2.3280    0.6166 N   0  0  0  0  0  0  0  0  0  0  0  0
    4.5444   -0.3315   -2.4038 H   0  0  0  0  0  0  0  0  0  0  0  0
    3.5026    0.7502   -3.3542 H   0  0  0  0  0  0  0  0  0  0  0  0
    4.0559    1.1933   -1.6476 H   0  0  0  0  0  0  0  0  0  0  0  0
    2.9061   -0.7662    0.2733 H   0  0  0  0  0  0  0  0  0  0  0  0
    4.1419   -1.4368   -0.9007 H   0  0  0  0  0  0  0  0  0  0  0  0
    2.5297   -2.1635   -0.7631 H   0  0  0  0  0  0  0  0  0  0  0  0
    1.1403    1.0434   -2.2702 H   0  0  0  0  0  0  0  0  0  0  0  0
    1.7311    1.1788   -0.5954 H   0  0  0  0  0  0  0  0  0  0  0  0
    0.9008   -1.0624   -0.0682 H   0  0  0  0  0  0  0  0  0  0  0  0
    0.1208   -1.1812   -1.7227 H   0  0  0  0  0  0  0  0  0  0  0  0
   -1.2723    0.7079   -1.3284 H   0  0  0  0  0  0  0  0  0  0  0  0
   -0.5063   -2.2021    0.8701 H   0  0  0  0  0  0  0  0  0  0  0  0
   -2.2094   -3.7587    1.6054 H   0  0  0  0  0  0  0  0  0  0  0  0
   -5.2048   -1.1684    0.0677 H   0  0  0  0  0  0  0  0  0  0  0  0
   -3.4995    0.3676   -0.6566 H   0  0  0  0  0  0  0  0  0  0  0  0
    1.0937    0.2072    1.5203 H   0  0  0  0  0  0  0  0  0  0  0  0
    1.4579    2.0136    3.1612 H   0  0  0  0  0  0  0  0  0  0  0  0
    0.0676    3.9908    3.1552 H   0  0  0  0  0  0  0  0  0  0  0  0
   -1.7659    4.1910    1.4494 H   0  0  0  0  0  0  0  0  0  0  0  0
  1  2  1  0
  2  3  1  0
  2  4  1  0
  4  5  1  0
  5  6  1  0
  6  7  1  0
  7  8  2  0
  8  9  1  0
  9 10  2  0
 10 11  1  0
 10 12  1  0
 12 13  2  0
  6 14  1  0
 14 15  2  0
 15 16  1  0
 16 17  2  0
 17 18  1  0
 18 19  2  0
 13  7  1  0
 19 14  1  0
  1 20  1  0
  1 21  1  0
  1 22  1  0
  3 23  1  0
  3 24  1  0
  3 25  1  0
  4 26  1  0
  4 27  1  0
  5 28  1  0
  5 29  1  0
  6 30  1  6
  8 31  1  0
  9 32  1  0
 12 33  1  0
 13 34  1  0
 15 35  1  0
 16 36  1  0
 17 37  1  0
 18 38  1  0
M  END
$$$$
