
     RDKit          3D

 56 59  0  0  0  0  0  0  0  0999 V2000
   -4.8654    3.9179    1.6168 C   0  0  0  0  0  0  0  0  0  0  0  0
   -4.6922    3.2497    0.4304 O   0  0  0  0  0  0  0  0  0  0  0  0
   -4.2946    1.9254    0.6064 C   0  0  0  0  0  0  0  0  0  0  0  0
   -4.1191    1.2397   -0.7194 C   0  0  0  0  0  0  0  0  0  0  0  0
   -3.7083   -0.1257   -0.5050 N   0  0  0  0  0  0  0  0  0  0  0  0
   -2.3446   -0.5130   -0.4145 C   0  0  0  0  0  0  0  0  0  0  0  0
   -2.0510   -1.7205   -0.2303 O   0  0  0  0  0  0  0  0  0  0  0  0
   -1.2692    0.3969   -0.5213 N   0  0  0  0  0  0  0  0  0  0  0  0
    0.1017   -0.0300   -0.4249 C   0  0  0  0  0  0  0  0  0  0  0  0
    0.7153   -0.3905   -1.6048 C   0  0  0  0  0  0  0  0  0  0  0  0
    2.0353   -0.8131   -1.5980 C   0  0  0  0  0  0  0  0  0  0  0  0
    2.7365   -0.8735   -0.4114 C   0  0  0  0  0  0  0  0  0  0  0  0
    4.0965   -1.3887   -0.4899 C   0  0  0  0  0  0  0  0  0  0  0  0
    4.3246   -2.6252   -1.0338 N   0  0  0  0  0  0  0  0  0  0  0  0
    5.5300   -3.1766   -1.1539 C   0  0  0  0  0  0  0  0  0  0  0  0
    6.5756   -2.4636   -0.7100 N   0  0  0  0  0  0  0  0  0  0  0  0
    6.4262   -1.2438   -0.1669 C   0  0  0  0  0  0  0  0  0  0  0  0
    7.3320   -0.3563    0.3214 N   0  0  0  0  0  0  0  0  0  0  0  0
    6.7315    0.7559    0.7497 C   0  0  0  0  0  0  0  0  0  0  0  0
    7.3469    1.9775    1.3548 C   0  0  0  0  0  0  0  0  0  0  0  0
    5.3613    0.5607    0.5187 C   0  0  0  0  0  0  0  0  0  0  0  0
    4.3316    1.5632    0.8128 C   0  0  0  0  0  0  0  0  0  0  0  0
    5.1662   -0.6732   -0.0447 C   0  0  0  0  0  0  0  0  0  0  0  0
    2.0957   -0.5083    0.7450 C   0  0  0  0  0  0  0  0  0  0  0  0
    0.7858   -0.0885    0.7388 C   0  0  0  0  0  0  0  0  0  0  0  0
    0.1633    0.2704    1.8870 F   0  0  0  0  0  0  0  0  0  0  0  0
   -4.7337   -1.1006   -0.3850 C   0  0  0  0  0  0  0  0  0  0  0  0
   -5.2225   -1.7597   -1.4752 C   0  0  0  0  0  0  0  0  0  0  0  0
   -6.2323   -2.7218   -1.3653 C   0  0  0  0  0  0  0  0  0  0  0  0
   -6.7470   -3.0108   -0.1185 C   0  0  0  0  0  0  0  0  0  0  0  0
   -8.0091   -4.2187   -0.0133 Cl  0  0  0  0  0  0  0  0  0  0  0  0
   -6.2620   -2.3522    0.9916 C   0  0  0  0  0  0  0  0  0  0  0  0
   -5.2539   -1.3956    0.8587 C   0  0  0  0  0  0  0  0  0  0  0  0
   -5.6458    3.4530    2.2781 H   0  0  0  0  0  0  0  0  0  0  0  0
   -3.9409    3.9346    2.2259 H   0  0  0  0  0  0  0  0  0  0  0  0
   -5.2390    4.9313    1.3878 H   0  0  0  0  0  0  0  0  0  0  0  0
   -5.1448    1.4182    1.1205 H   0  0  0  0  0  0  0  0  0  0  0  0
   -3.3462    1.8563    1.1698 H   0  0  0  0  0  0  0  0  0  0  0  0
   -5.1049    1.2663   -1.2309 H   0  0  0  0  0  0  0  0  0  0  0  0
   -3.3752    1.7266   -1.3772 H   0  0  0  0  0  0  0  0  0  0  0  0
   -1.4931    1.4039   -0.6740 H   0  0  0  0  0  0  0  0  0  0  0  0
    0.1556   -0.3422   -2.5513 H   0  0  0  0  0  0  0  0  0  0  0  0
    2.4611   -1.0821   -2.5525 H   0  0  0  0  0  0  0  0  0  0  0  0
    5.6381   -4.1644   -1.5963 H   0  0  0  0  0  0  0  0  0  0  0  0
    8.3595   -0.5273    0.3545 H   0  0  0  0  0  0  0  0  0  0  0  0
    6.8907    2.9063    0.9390 H   0  0  0  0  0  0  0  0  0  0  0  0
    8.4235    1.9737    1.0824 H   0  0  0  0  0  0  0  0  0  0  0  0
    7.2967    1.9587    2.4653 H   0  0  0  0  0  0  0  0  0  0  0  0
    3.8604    1.4649    1.8049 H   0  0  0  0  0  0  0  0  0  0  0  0
    4.8558    2.5751    0.8590 H   0  0  0  0  0  0  0  0  0  0  0  0
    3.5997    1.7252   -0.0195 H   0  0  0  0  0  0  0  0  0  0  0  0
    2.6516   -0.5713    1.6939 H   0  0  0  0  0  0  0  0  0  0  0  0
   -4.8262   -1.5382   -2.4423 H   0  0  0  0  0  0  0  0  0  0  0  0
   -6.5971   -3.2268   -2.2576 H   0  0  0  0  0  0  0  0  0  0  0  0
   -6.6516   -2.5673    1.9571 H   0  0  0  0  0  0  0  0  0  0  0  0
   -4.8792   -0.8820    1.7466 H   0  0  0  0  0  0  0  0  0  0  0  0
  1  2  1  0
  2  3  1  0
  3  4  1  0
  4  5  1  0
  5  6  1  0
  6  7  2  0
  6  8  1  0
  8  9  1  0
  9 10  2  0
 10 11  1  0
 11 12  2  0
 12 13  1  0
 13 14  2  0
 14 15  1  0
 15 16  2  0
 16 17  1  0
 17 18  1  0
 18 19  1  0
 19 20  1  0
 19 21  2  0
 21 22  1  0
 21 23  1  0
 12 24  1  0
 24 25  2  0
 25 26  1  0
  5 27  1  0
 27 28  2  0
 28 29  1  0
 29 30  2  0
 30 31  1  0
 30 32  1  0
 32 33  2  0
 25  9  1  0
 33 27  1  0
 23 13  1  0
 23 17  2  0
  1 34  1  0
  1 35  1  0
  1 36  1  0
  3 37  1  0
  3 38  1  0
  4 39  1  0
  4 40  1  0
  8 41  1  0
 10 42  1  0
 11 43  1  0
 15 44  1  0
 18 45  1  0
 20 46  1  0
 20 47  1  0
 20 48  1  0
 22 49  1  0
 22 50  1  0
 22 51  1  0
 24 52  1  0
 28 53  1  0
 29 54  1  0
 32 55  1  0
 33 56  1  0
M  END
$$$$
