
     RDKit          3D

 30 32  0  0  0  0  0  0  0  0999 V2000
    5.6933   -0.5005   -0.0681 N   0  0  0  0  0  0  0  0  0  0  0  0
    4.2901   -0.2740   -0.0618 C   0  0  0  0  0  0  0  0  0  0  0  0
    3.9428    1.0050   -0.0816 N   0  0  0  0  0  0  0  0  0  0  0  0
    2.6242    1.3272   -0.0776 C   0  0  0  0  0  0  0  0  0  0  0  0
    2.1452    2.6723   -0.0975 N   0  0  0  0  0  0  0  0  0  0  0  0
    1.6966    0.2960   -0.0529 C   0  0  0  0  0  0  0  0  0  0  0  0
    0.3973    0.5766   -0.0484 N   0  0  0  0  0  0  0  0  0  0  0  0
   -0.5715   -0.3723   -0.0249 C   0  0  0  0  0  0  0  0  0  0  0  0
   -0.1800   -1.7147   -0.0043 C   0  0  0  0  0  0  0  0  0  0  0  0
   -1.1696   -2.7531    0.0209 N   0  0  0  0  0  0  0  0  0  0  0  0
    1.1472   -1.9856   -0.0093 N   0  0  0  0  0  0  0  0  0  0  0  0
    2.0811   -1.0373   -0.0325 C   0  0  0  0  0  0  0  0  0  0  0  0
    3.4019   -1.2723   -0.0380 N   0  0  0  0  0  0  0  0  0  0  0  0
   -1.9919   -0.0452   -0.0203 C   0  0  0  0  0  0  0  0  0  0  0  0
   -2.9742   -0.5839    0.7561 C   0  0  0  0  0  0  0  0  0  0  0  0
   -4.2893   -0.1601    0.6382 C   0  0  0  0  0  0  0  0  0  0  0  0
   -4.6458    0.8277   -0.2761 C   0  0  0  0  0  0  0  0  0  0  0  0
   -3.6360    1.3738   -1.0664 C   0  0  0  0  0  0  0  0  0  0  0  0
   -2.3303    0.9495   -0.9457 C   0  0  0  0  0  0  0  0  0  0  0  0
    6.0119   -1.2619   -0.6777 H   0  0  0  0  0  0  0  0  0  0  0  0
    6.4670   -0.0467    0.4242 H   0  0  0  0  0  0  0  0  0  0  0  0
    1.9002    3.4215   -0.7882 H   0  0  0  0  0  0  0  0  0  0  0  0
    2.0233    2.9228    0.9183 H   0  0  0  0  0  0  0  0  0  0  0  0
   -1.6537   -2.7064   -0.8928 H   0  0  0  0  0  0  0  0  0  0  0  0
   -1.3783   -3.4270    0.7855 H   0  0  0  0  0  0  0  0  0  0  0  0
   -2.6357   -1.3447    1.4452 H   0  0  0  0  0  0  0  0  0  0  0  0
   -5.0271   -0.6333    1.2906 H   0  0  0  0  0  0  0  0  0  0  0  0
   -5.6892    1.1364   -0.3418 H   0  0  0  0  0  0  0  0  0  0  0  0
   -3.9870    2.1376   -1.7555 H   0  0  0  0  0  0  0  0  0  0  0  0
   -1.6628    1.4725   -1.6318 H   0  0  0  0  0  0  0  0  0  0  0  0
  1  2  1  0
  2  3  2  0
  3  4  1  0
  4  5  1  0
  4  6  2  0
  6  7  1  0
  7  8  2  0
  8  9  1  0
  9 10  1  0
  9 11  2  0
 11 12  1  0
 12 13  2  0
  8 14  1  0
 14 15  2  0
 15 16  1  0
 16 17  2  0
 17 18  1  0
 18 19  2  0
 13  2  1  0
 19 14  1  0
 12  6  1  0
  1 20  1  0
  1 21  1  0
  5 22  1  0
  5 23  1  0
 10 24  1  0
 10 25  1  0
 15 26  1  0
 16 27  1  0
 17 28  1  0
 18 29  1  0
 19 30  1  0
M  END
$$$$
