
     RDKit          3D

 54 56  0  0  0  0  0  0  0  0999 V2000
   -4.9214    2.6759   -1.9985 C   0  0  0  0  0  0  0  0  0  0  0  0
   -5.7273    1.5711   -1.5782 N   0  0  0  0  0  0  0  0  0  0  0  0
   -5.1719    0.5382   -0.7486 C   0  0  0  0  0  0  0  0  0  0  0  0
   -5.9594   -0.5208   -0.3493 C   0  0  0  0  0  0  0  0  0  0  0  0
   -5.4466   -1.5208    0.4458 C   0  0  0  0  0  0  0  0  0  0  0  0
   -6.2957   -2.6837    0.8889 C   0  0  0  0  0  0  0  0  0  0  0  0
   -4.1280   -1.4157    0.8189 C   0  0  0  0  0  0  0  0  0  0  0  0
   -3.3184   -0.3584    0.4279 C   0  0  0  0  0  0  0  0  0  0  0  0
   -1.9546   -0.2696    0.8257 N   0  0  0  0  0  0  0  0  0  0  0  0
   -1.1920    0.8701    0.3830 C   0  0  0  0  0  0  0  0  0  0  0  0
    0.2717    0.6581    0.2509 C   0  0  0  0  0  0  0  0  0  0  0  0
    0.6471   -0.7854    0.3653 C   0  0  0  0  0  0  0  0  0  0  0  0
    2.1208   -0.9776    0.3652 C   0  0  0  0  0  0  0  0  0  0  0  0
    2.6801   -1.6645   -0.5257 O   0  0  0  0  0  0  0  0  0  0  0  0
    2.9596   -0.3958    1.3679 N   0  0  0  0  0  0  0  0  0  0  0  0
    4.3929   -0.5566    1.4030 C   0  0  0  0  0  0  0  0  0  0  0  0
    5.1076   -0.0904    0.2137 C   0  0  0  0  0  0  0  0  0  0  0  0
    5.5761   -1.0233   -0.7253 C   0  0  0  0  0  0  0  0  0  0  0  0
    6.2564   -0.6679   -1.8607 C   0  0  0  0  0  0  0  0  0  0  0  0
    6.4830    0.6823   -2.0741 C   0  0  0  0  0  0  0  0  0  0  0  0
    6.0338    1.6063   -1.1696 C   0  0  0  0  0  0  0  0  0  0  0  0
    5.3393    1.2254   -0.0132 C   0  0  0  0  0  0  0  0  0  0  0  0
    4.8842    2.2811    0.9137 C   0  0  0  0  0  0  0  0  0  0  0  0
    3.5239    2.3273    1.0697 F   0  0  0  0  0  0  0  0  0  0  0  0
    5.4814    2.1634    2.1609 F   0  0  0  0  0  0  0  0  0  0  0  0
    5.2649    3.5345    0.4379 F   0  0  0  0  0  0  0  0  0  0  0  0
    0.0964   -1.3006    1.6813 C   0  0  0  0  0  0  0  0  0  0  0  0
   -1.4123   -1.3175    1.6462 C   0  0  0  0  0  0  0  0  0  0  0  0
   -3.8931    0.5829   -0.3511 N   0  0  0  0  0  0  0  0  0  0  0  0
   -4.2161    2.9957   -1.1935 H   0  0  0  0  0  0  0  0  0  0  0  0
   -4.3735    2.4442   -2.9433 H   0  0  0  0  0  0  0  0  0  0  0  0
   -5.5476    3.5676   -2.2222 H   0  0  0  0  0  0  0  0  0  0  0  0
   -6.7070    1.5042   -1.8632 H   0  0  0  0  0  0  0  0  0  0  0  0
   -7.0029   -0.6017   -0.6463 H   0  0  0  0  0  0  0  0  0  0  0  0
   -6.2608   -3.4003    0.0334 H   0  0  0  0  0  0  0  0  0  0  0  0
   -5.7539   -3.1719    1.7398 H   0  0  0  0  0  0  0  0  0  0  0  0
   -7.3005   -2.3558    1.1532 H   0  0  0  0  0  0  0  0  0  0  0  0
   -3.7033   -2.1845    1.4415 H   0  0  0  0  0  0  0  0  0  0  0  0
   -1.3193    1.7100    1.1338 H   0  0  0  0  0  0  0  0  0  0  0  0
   -1.6171    1.2519   -0.5715 H   0  0  0  0  0  0  0  0  0  0  0  0
    0.8739    1.2408    0.9803 H   0  0  0  0  0  0  0  0  0  0  0  0
    0.5887    1.0052   -0.7621 H   0  0  0  0  0  0  0  0  0  0  0  0
    0.2135   -1.3398   -0.4656 H   0  0  0  0  0  0  0  0  0  0  0  0
    2.4190    0.1629    2.0982 H   0  0  0  0  0  0  0  0  0  0  0  0
    4.6728   -1.6348    1.5868 H   0  0  0  0  0  0  0  0  0  0  0  0
    4.7633   -0.0122    2.2961 H   0  0  0  0  0  0  0  0  0  0  0  0
    5.3871   -2.0871   -0.5349 H   0  0  0  0  0  0  0  0  0  0  0  0
    6.6069   -1.4196   -2.5711 H   0  0  0  0  0  0  0  0  0  0  0  0
    7.0185    0.9783   -2.9659 H   0  0  0  0  0  0  0  0  0  0  0  0
    6.2079    2.6515   -1.3321 H   0  0  0  0  0  0  0  0  0  0  0  0
    0.4331   -0.6141    2.4638 H   0  0  0  0  0  0  0  0  0  0  0  0
    0.4391   -2.3468    1.8042 H   0  0  0  0  0  0  0  0  0  0  0  0
   -1.8219   -1.2286    2.6539 H   0  0  0  0  0  0  0  0  0  0  0  0
   -1.6983   -2.2829    1.1338 H   0  0  0  0  0  0  0  0  0  0  0  0
  1  2  1  0
  2  3  1  0
  3  4  2  0
  4  5  1  0
  5  6  1  0
  5  7  2  0
  7  8  1  0
  8  9  1  0
  9 10  1  0
 10 11  1  0
 11 12  1  0
 12 13  1  0
 13 14  2  0
 13 15  1  0
 15 16  1  0
 16 17  1  0
 17 18  2  0
 18 19  1  0
 19 20  2  0
 20 21  1  0
 21 22  2  0
 22 23  1  0
 23 24  1  0
 23 25  1  0
 23 26  1  0
 12 27  1  0
 27 28  1  0
  8 29  2  0
 29  3  1  0
 28  9  1  0
 22 17  1  0
  1 30  1  0
  1 31  1  0
  1 32  1  0
  2 33  1  0
  4 34  1  0
  6 35  1  0
  6 36  1  0
  6 37  1  0
  7 38  1  0
 10 39  1  0
 10 40  1  0
 11 41  1  0
 11 42  1  0
 12 43  1  0
 15 44  1  0
 16 45  1  0
 16 46  1  0
 18 47  1  0
 19 48  1  0
 20 49  1  0
 21 50  1  0
 27 51  1  0
 27 52  1  0
 28 53  1  0
 28 54  1  0
M  END
$$$$
