
     RDKit          3D

 39 42  0  0  0  0  0  0  0  0999 V2000
    0.4198   -0.7965    0.7261 C   0  0  1  0  0  0  0  0  0  0  0  0
    1.5511   -1.3670   -0.0422 C   0  0  0  0  0  0  0  0  0  0  0  0
    2.6497   -0.5478   -0.3749 N   0  0  0  0  0  0  0  0  0  0  0  0
    3.8813   -1.3413   -0.4507 C   0  0  0  0  0  0  0  0  0  0  0  0
    2.8848    0.6665    0.2838 C   0  0  0  0  0  0  0  0  0  0  0  0
    1.8455    1.1121    1.2595 C   0  0  0  0  0  0  0  0  0  0  0  0
    0.5624    0.6458    0.7063 N   0  0  0  0  0  0  0  0  0  0  0  0
   -0.2689    1.6981    0.2687 C   0  0  0  0  0  0  0  0  0  0  0  0
   -1.6296    1.6372    0.1666 C   0  0  0  0  0  0  0  0  0  0  0  0
   -2.5694    0.5592    0.4529 C   0  0  0  0  0  0  0  0  0  0  0  0
   -2.1561   -0.7980    0.1485 C   0  0  0  0  0  0  0  0  0  0  0  0
   -3.2272   -1.5697   -0.3173 C   0  0  0  0  0  0  0  0  0  0  0  0
   -3.0100   -2.8900   -0.6548 C   0  0  0  0  0  0  0  0  0  0  0  0
   -1.7298   -3.4141   -0.5212 C   0  0  0  0  0  0  0  0  0  0  0  0
   -0.6699   -2.6348   -0.0557 C   0  0  0  0  0  0  0  0  0  0  0  0
   -0.8820   -1.2949    0.2886 C   0  0  0  0  0  0  0  0  0  0  0  0
   -2.2584    2.8032   -0.2919 C   0  0  0  0  0  0  0  0  0  0  0  0
   -1.4988    3.9330   -0.6124 C   0  0  0  0  0  0  0  0  0  0  0  0
   -0.1218    3.9075   -0.4790 C   0  0  0  0  0  0  0  0  0  0  0  0
    0.5002    2.7825   -0.0353 N   0  0  0  0  0  0  0  0  0  0  0  0
    0.5592   -1.0636    1.8147 H   0  0  0  0  0  0  0  0  0  0  0  0
    1.9543   -2.2489    0.4996 H   0  0  0  0  0  0  0  0  0  0  0  0
    1.1143   -1.6840   -1.0366 H   0  0  0  0  0  0  0  0  0  0  0  0
    4.7751   -0.6952   -0.4796 H   0  0  0  0  0  0  0  0  0  0  0  0
    3.7713   -2.0147   -1.3198 H   0  0  0  0  0  0  0  0  0  0  0  0
    3.8480   -1.9887    0.4716 H   0  0  0  0  0  0  0  0  0  0  0  0
    3.8609    0.6311    0.8124 H   0  0  0  0  0  0  0  0  0  0  0  0
    2.9721    1.4670   -0.4833 H   0  0  0  0  0  0  0  0  0  0  0  0
    2.0310    0.6452    2.2415 H   0  0  0  0  0  0  0  0  0  0  0  0
    1.7952    2.2179    1.3657 H   0  0  0  0  0  0  0  0  0  0  0  0
   -2.9214    0.6270    1.5150 H   0  0  0  0  0  0  0  0  0  0  0  0
   -3.4949    0.7807   -0.1437 H   0  0  0  0  0  0  0  0  0  0  0  0
   -4.2106   -1.0948   -0.3988 H   0  0  0  0  0  0  0  0  0  0  0  0
   -3.8580   -3.4603   -1.0116 H   0  0  0  0  0  0  0  0  0  0  0  0
   -1.6693   -4.4471   -0.8098 H   0  0  0  0  0  0  0  0  0  0  0  0
    0.2411   -3.2245   -0.0240 H   0  0  0  0  0  0  0  0  0  0  0  0
   -3.3349    2.8369   -0.4009 H   0  0  0  0  0  0  0  0  0  0  0  0
   -2.0569    4.7938   -0.9593 H   0  0  0  0  0  0  0  0  0  0  0  0
    0.3506    4.8312   -0.7545 H   0  0  0  0  0  0  0  0  0  0  0  0
  1  2  1  0
  2  3  1  0
  3  4  1  0
  3  5  1  0
  5  6  1  0
  6  7  1  0
  7  8  1  0
  8  9  2  0
  9 10  1  0
 10 11  1  0
 11 12  2  0
 12 13  1  0
 13 14  2  0
 14 15  1  0
 15 16  2  0
  9 17  1  0
 17 18  2  0
 18 19  1  0
 19 20  2  0
  7  1  1  0
 20  8  1  0
 16  1  1  0
 16 11  1  0
  1 21  1  1
  2 22  1  0
  2 23  1  0
  4 24  1  0
  4 25  1  0
  4 26  1  0
  5 27  1  0
  5 28  1  0
  6 29  1  0
  6 30  1  0
 10 31  1  0
 10 32  1  0
 12 33  1  0
 13 34  1  0
 14 35  1  0
 15 36  1  0
 17 37  1  0
 18 38  1  0
 19 39  1  0
M  END
$$$$
