
     RDKit          3D

 67 70  0  0  0  0  0  0  0  0999 V2000
   -2.5729   -3.6394    3.8317 C   0  0  0  0  0  0  0  0  0  0  0  0
   -2.5916   -2.2557    3.2252 C   0  0  0  0  0  0  0  0  0  0  0  0
   -2.2242   -2.3263    1.7427 C   0  0  0  0  0  0  0  0  0  0  0  0
   -2.2592   -0.9307    1.1917 C   0  0  0  0  0  0  0  0  0  0  0  0
   -3.3146   -0.5535    0.4091 C   0  0  0  0  0  0  0  0  0  0  0  0
   -3.3238    0.7254   -0.0856 C   0  0  0  0  0  0  0  0  0  0  0  0
   -4.3312    1.1869   -0.8711 O   0  0  0  0  0  0  0  0  0  0  0  0
   -5.4797    0.5445   -1.3086 C   0  0  0  0  0  0  0  0  0  0  0  0
   -6.7008    1.3492   -0.8327 C   0  0  0  0  0  0  0  0  0  0  0  0
   -6.5187    2.7540   -1.4185 C   0  0  0  0  0  0  0  0  0  0  0  0
   -6.9435    2.6345   -2.8702 C   0  0  0  0  0  0  0  0  0  0  0  0
   -6.7555    1.2156   -3.3766 C   0  0  0  0  0  0  0  0  0  0  0  0
   -5.5056    0.5854   -2.8214 C   0  0  0  0  0  0  0  0  0  0  0  0
   -2.2761    1.5982    0.2150 C   0  0  0  0  0  0  0  0  0  0  0  0
   -1.2217    1.1936    1.0082 C   0  0  0  0  0  0  0  0  0  0  0  0
   -1.1787   -0.0824    1.5209 C   0  0  0  0  0  0  0  0  0  0  0  0
   -0.1859   -0.5828    2.3185 O   0  0  0  0  0  0  0  0  0  0  0  0
    0.9611    0.0270    2.7452 C   0  0  0  0  0  0  0  0  0  0  0  0
    2.0063    0.3898    1.7465 C   0  0  0  0  0  0  0  0  0  0  0  0
    2.4603   -0.9122    1.0700 C   0  0  0  0  0  0  0  0  0  0  0  0
    3.4645   -0.6981    0.1538 O   0  0  0  0  0  0  0  0  0  0  0  0
    4.7416   -0.3094    0.4477 C   0  0  0  0  0  0  0  0  0  0  0  0
    5.2272   -0.1327    1.7111 C   0  0  0  0  0  0  0  0  0  0  0  0
    6.5467    0.2764    1.9724 C   0  0  0  0  0  0  0  0  0  0  0  0
    7.3767    0.5045    0.8890 C   0  0  0  0  0  0  0  0  0  0  0  0
    6.9351    0.3388   -0.4083 C   0  0  0  0  0  0  0  0  0  0  0  0
    7.8959    0.6005   -1.4796 C   0  0  0  0  0  0  0  0  0  0  0  0
    9.5792    1.0857   -1.2215 S   0  0  0  0  0  0  0  0  0  0  0  0
   10.0067    1.1891   -2.9672 C   0  0  0  0  0  0  0  0  0  0  0  0
   11.1425    1.5094   -3.4421 O   0  0  0  0  0  0  0  0  0  0  0  0
    8.8510    0.8519   -3.5549 N   0  0  0  0  0  0  0  0  0  0  0  0
    7.8125    0.5622   -2.8227 C   0  0  0  0  0  0  0  0  0  0  0  0
    6.5509    0.1946   -3.4173 O   0  0  0  0  0  0  0  0  0  0  0  0
    5.6502   -0.0575   -0.5956 C   0  0  0  0  0  0  0  0  0  0  0  0
   -3.6133   -3.9973    3.9479 H   0  0  0  0  0  0  0  0  0  0  0  0
   -1.9846   -4.3310    3.1837 H   0  0  0  0  0  0  0  0  0  0  0  0
   -2.0660   -3.6720    4.8211 H   0  0  0  0  0  0  0  0  0  0  0  0
   -1.8651   -1.6202    3.7735 H   0  0  0  0  0  0  0  0  0  0  0  0
   -3.6012   -1.8245    3.3402 H   0  0  0  0  0  0  0  0  0  0  0  0
   -2.9807   -2.9369    1.2367 H   0  0  0  0  0  0  0  0  0  0  0  0
   -1.1984   -2.7563    1.6964 H   0  0  0  0  0  0  0  0  0  0  0  0
   -4.1160   -1.2772    0.2014 H   0  0  0  0  0  0  0  0  0  0  0  0
   -5.5825   -0.5147   -0.9673 H   0  0  0  0  0  0  0  0  0  0  0  0
   -7.6459    0.8907   -1.1322 H   0  0  0  0  0  0  0  0  0  0  0  0
   -6.6934    1.4722    0.2602 H   0  0  0  0  0  0  0  0  0  0  0  0
   -5.4247    2.9660   -1.3672 H   0  0  0  0  0  0  0  0  0  0  0  0
   -7.0718    3.5155   -0.8716 H   0  0  0  0  0  0  0  0  0  0  0  0
   -8.0448    2.8391   -2.8933 H   0  0  0  0  0  0  0  0  0  0  0  0
   -6.4144    3.3659   -3.5121 H   0  0  0  0  0  0  0  0  0  0  0  0
   -6.6278    1.2670   -4.4776 H   0  0  0  0  0  0  0  0  0  0  0  0
   -7.6615    0.6361   -3.1784 H   0  0  0  0  0  0  0  0  0  0  0  0
   -5.4575   -0.4497   -3.2358 H   0  0  0  0  0  0  0  0  0  0  0  0
   -4.6088    1.1061   -3.2316 H   0  0  0  0  0  0  0  0  0  0  0  0
   -2.2670    2.6157   -0.1691 H   0  0  0  0  0  0  0  0  0  0  0  0
   -0.4200    1.9094    1.2575 H   0  0  0  0  0  0  0  0  0  0  0  0
    1.5070   -0.5930    3.5355 H   0  0  0  0  0  0  0  0  0  0  0  0
    0.6574    0.9840    3.2684 H   0  0  0  0  0  0  0  0  0  0  0  0
    1.5723    1.0277    0.9345 H   0  0  0  0  0  0  0  0  0  0  0  0
    2.8587    0.8647    2.2138 H   0  0  0  0  0  0  0  0  0  0  0  0
    2.8538   -1.5948    1.8754 H   0  0  0  0  0  0  0  0  0  0  0  0
    1.5702   -1.4200    0.6038 H   0  0  0  0  0  0  0  0  0  0  0  0
    4.5993   -0.3487    2.5875 H   0  0  0  0  0  0  0  0  0  0  0  0
    6.8649    0.3985    3.0012 H   0  0  0  0  0  0  0  0  0  0  0  0
    8.3836    0.8168    1.0987 H   0  0  0  0  0  0  0  0  0  0  0  0
    8.8340    0.8359   -4.6414 H   0  0  0  0  0  0  0  0  0  0  0  0
    6.5394   -0.3151   -4.2808 H   0  0  0  0  0  0  0  0  0  0  0  0
    5.2804   -0.1937   -1.5833 H   0  0  0  0  0  0  0  0  0  0  0  0
  1  2  1  0
  2  3  1  0
  3  4  1  0
  4  5  2  0
  5  6  1  0
  6  7  1  0
  7  8  1  0
  8  9  1  0
  9 10  1  0
 10 11  1  0
 11 12  1  0
 12 13  1  0
  6 14  2  0
 14 15  1  0
 15 16  2  0
 16 17  1  0
 17 18  1  0
 18 19  1  0
 19 20  1  0
 20 21  1  0
 21 22  1  0
 22 23  2  0
 23 24  1  0
 24 25  2  0
 25 26  1  0
 26 27  1  0
 27 28  1  0
 28 29  1  0
 29 30  2  0
 29 31  1  0
 31 32  1  0
 32 33  1  0
 26 34  2  0
 16  4  1  0
 34 22  1  0
 13  8  1  0
 32 27  2  0
  1 35  1  0
  1 36  1  0
  1 37  1  0
  2 38  1  0
  2 39  1  0
  3 40  1  0
  3 41  1  0
  5 42  1  0
  8 43  1  0
  9 44  1  0
  9 45  1  0
 10 46  1  0
 10 47  1  0
 11 48  1  0
 11 49  1  0
 12 50  1  0
 12 51  1  0
 13 52  1  0
 13 53  1  0
 14 54  1  0
 15 55  1  0
 18 56  1  0
 18 57  1  0
 19 58  1  0
 19 59  1  0
 20 60  1  0
 20 61  1  0
 23 62  1  0
 24 63  1  0
 25 64  1  0
 31 65  1  0
 33 66  1  0
 34 67  1  0
M  END
$$$$
