
     RDKit          3D

 56 58  0  0  0  0  0  0  0  0999 V2000
    3.3218   -3.1671    1.4377 C   0  0  0  0  0  0  0  0  0  0  0  0
    2.1940   -2.7270    0.9108 C   0  0  0  0  0  0  0  0  0  0  0  0
    1.0195   -3.5629    1.1869 C   0  0  0  0  0  0  0  0  0  0  0  0
    2.1551   -1.4681    0.2423 C   0  0  0  0  0  0  0  0  0  0  0  0
    3.2047   -0.5657    0.5946 C   0  0  0  0  0  0  0  0  0  0  0  0
    3.3245    0.6109   -0.0022 N   0  0  0  0  0  0  0  0  0  0  0  0
    2.4540    1.0172   -0.9780 C   0  0  0  0  0  0  0  0  0  0  0  0
    2.7079    2.3357   -1.5442 C   0  0  0  0  0  0  0  0  0  0  0  0
    3.8020    3.0701   -1.0541 C   0  0  0  0  0  0  0  0  0  0  0  0
    4.1135    4.3182   -1.5300 C   0  0  0  0  0  0  0  0  0  0  0  0
    5.4675    5.2393   -0.9309 Cl  0  0  0  0  0  0  0  0  0  0  0  0
    3.3301    4.8633   -2.5152 C   0  0  0  0  0  0  0  0  0  0  0  0
    2.2692    4.1854   -3.0105 C   0  0  0  0  0  0  0  0  0  0  0  0
    1.9512    2.9115   -2.5249 C   0  0  0  0  0  0  0  0  0  0  0  0
    0.8840    2.2688   -3.0466 F   0  0  0  0  0  0  0  0  0  0  0  0
    1.4565    0.1695   -1.3186 C   0  0  0  0  0  0  0  0  0  0  0  0
    1.2802   -1.1149   -0.7075 C   0  0  0  0  0  0  0  0  0  0  0  0
    0.2435   -1.8401   -1.2400 N   0  0  0  0  0  0  0  0  0  0  0  0
   -0.9190   -2.5093   -0.9275 C   0  0  0  0  0  0  0  0  0  0  0  0
   -1.0187   -3.8228   -1.3946 C   0  0  0  0  0  0  0  0  0  0  0  0
   -2.1131   -4.5835   -1.1615 C   0  0  0  0  0  0  0  0  0  0  0  0
   -3.1341   -4.0771   -0.4669 N   0  0  0  0  0  0  0  0  0  0  0  0
   -3.0658   -2.8186   -0.0056 C   0  0  0  0  0  0  0  0  0  0  0  0
   -1.9594   -1.9841   -0.2148 C   0  0  0  0  0  0  0  0  0  0  0  0
   -1.9617   -0.6409    0.3680 C   0  0  0  0  0  0  0  0  0  0  0  0
   -0.9540    0.1095    0.3582 O   0  0  0  0  0  0  0  0  0  0  0  0
   -3.0983   -0.0531    0.9984 N   0  0  0  0  0  0  0  0  0  0  0  0
   -3.0306    1.2962    1.5635 C   0  0  0  0  0  0  0  0  0  0  0  0
   -4.3892    1.6278    2.1354 C   0  0  0  0  0  0  0  0  0  0  0  0
   -2.6862    2.3352    0.5349 C   0  0  0  0  0  0  0  0  0  0  0  0
   -2.0207    1.3766    2.6904 C   0  0  0  0  0  0  0  0  0  0  0  0
   -2.3183    0.5217    3.7291 O   0  0  0  0  0  0  0  0  0  0  0  0
    3.3864   -4.0839    2.0389 H   0  0  0  0  0  0  0  0  0  0  0  0
    4.2368   -2.6621    1.2839 H   0  0  0  0  0  0  0  0  0  0  0  0
    0.8586   -4.3637    0.4711 H   0  0  0  0  0  0  0  0  0  0  0  0
    1.2747   -4.1102    2.1883 H   0  0  0  0  0  0  0  0  0  0  0  0
    0.1213   -2.9912    1.5160 H   0  0  0  0  0  0  0  0  0  0  0  0
    3.8931   -0.8560    1.3821 H   0  0  0  0  0  0  0  0  0  0  0  0
    4.4441    2.6567   -0.2665 H   0  0  0  0  0  0  0  0  0  0  0  0
    3.5347    5.8533   -2.9285 H   0  0  0  0  0  0  0  0  0  0  0  0
    1.6294    4.5923   -3.7924 H   0  0  0  0  0  0  0  0  0  0  0  0
    0.7527    0.4445   -2.0748 H   0  0  0  0  0  0  0  0  0  0  0  0
    0.3798   -1.9301   -2.3885 H   0  0  0  0  0  0  0  0  0  0  0  0
   -0.1839   -4.2611   -1.9722 H   0  0  0  0  0  0  0  0  0  0  0  0
   -2.1799   -5.6252   -1.5377 H   0  0  0  0  0  0  0  0  0  0  0  0
   -3.8815   -2.3971    0.5609 H   0  0  0  0  0  0  0  0  0  0  0  0
   -3.9819   -0.5893    1.0509 H   0  0  0  0  0  0  0  0  0  0  0  0
   -4.4587    1.2971    3.1929 H   0  0  0  0  0  0  0  0  0  0  0  0
   -4.6459    2.7013    2.0163 H   0  0  0  0  0  0  0  0  0  0  0  0
   -5.1414    1.0561    1.5529 H   0  0  0  0  0  0  0  0  0  0  0  0
   -1.6324    2.3457    0.2443 H   0  0  0  0  0  0  0  0  0  0  0  0
   -3.0000    3.3256    0.9680 H   0  0  0  0  0  0  0  0  0  0  0  0
   -3.3670    2.2013   -0.3513 H   0  0  0  0  0  0  0  0  0  0  0  0
   -0.9711    1.2938    2.3517 H   0  0  0  0  0  0  0  0  0  0  0  0
   -2.0961    2.4165    3.1216 H   0  0  0  0  0  0  0  0  0  0  0  0
   -1.4822    0.3639    4.2408 H   0  0  0  0  0  0  0  0  0  0  0  0
  1  2  2  3
  2  3  1  0
  2  4  1  0
  4  5  2  0
  5  6  1  0
  6  7  2  0
  7  8  1  0
  8  9  2  0
  9 10  1  0
 10 11  1  0
 10 12  2  0
 12 13  1  0
 13 14  2  0
 14 15  1  0
  7 16  1  0
 16 17  2  0
 17 18  1  0
 18 19  1  0
 19 20  2  0
 20 21  1  0
 21 22  2  0
 22 23  1  0
 23 24  2  0
 24 25  1  0
 25 26  2  0
 25 27  1  0
 27 28  1  0
 28 29  1  0
 28 30  1  0
 28 31  1  0
 31 32  1  0
 17  4  1  0
 24 19  1  0
 14  8  1  0
  1 33  1  0
  1 34  1  0
  3 35  1  0
  3 36  1  0
  3 37  1  0
  5 38  1  0
  9 39  1  0
 12 40  1  0
 13 41  1  0
 16 42  1  0
 18 43  1  0
 20 44  1  0
 21 45  1  0
 23 46  1  0
 27 47  1  0
 29 48  1  0
 29 49  1  0
 29 50  1  0
 30 51  1  0
 30 52  1  0
 30 53  1  0
 31 54  1  0
 31 55  1  0
 32 56  1  0
M  END
$$$$
