
     RDKit          3D

 42 45  0  0  0  0  0  0  0  0999 V2000
   -5.5793   -1.4718   -1.8515 O   0  0  0  0  0  0  0  0  0  0  0  0
   -5.8231   -0.8586   -0.7912 C   0  0  0  0  0  0  0  0  0  0  0  0
   -7.0171   -1.0949   -0.1415 O   0  0  0  0  0  0  0  0  0  0  0  0
   -4.8331    0.0819   -0.2860 C   0  0  0  0  0  0  0  0  0  0  0  0
   -5.0790    0.7825    0.8985 C   0  0  0  0  0  0  0  0  0  0  0  0
   -4.1581    1.6778    1.3972 C   0  0  0  0  0  0  0  0  0  0  0  0
   -2.9801    1.8630    0.6888 C   0  0  0  0  0  0  0  0  0  0  0  0
   -2.7032    1.2016   -0.4663 C   0  0  0  0  0  0  0  0  0  0  0  0
   -1.2458    1.4026   -1.3821 S   0  0  0  0  0  6  0  0  0  0  0  0
   -0.7489    2.8154   -1.2066 O   0  0  0  0  0  0  0  0  0  0  0  0
   -1.5705    1.2213   -2.8374 O   0  0  0  0  0  0  0  0  0  0  0  0
    0.0038    0.3398   -0.9315 N   0  0  0  0  0  0  0  0  0  0  0  0
   -0.2912   -1.0430   -1.1020 C   0  0  0  0  0  0  0  0  0  0  0  0
    0.5006   -1.9510   -0.1798 C   0  0  0  0  0  0  0  0  0  0  0  0
    1.8810   -1.4350    0.0502 C   0  0  0  0  0  0  0  0  0  0  0  0
    2.9988   -2.2216    0.0341 C   0  0  0  0  0  0  0  0  0  0  0  0
    4.2214   -1.6137    0.2631 C   0  0  0  0  0  0  0  0  0  0  0  0
    4.3135   -0.2548    0.5009 C   0  0  0  0  0  0  0  0  0  0  0  0
    5.6212    0.3401    0.7365 C   0  0  0  0  0  0  0  0  0  0  0  0
    6.8019   -0.2928    0.7528 N   0  0  0  0  0  0  0  0  0  0  0  0
    7.7647    0.5879    1.0007 N   0  0  0  0  0  0  0  0  0  0  0  0
    7.1852    1.7540    1.1364 N   0  0  0  0  0  0  0  0  0  0  0  0
    5.8849    1.6361    0.9816 N   0  0  0  0  0  0  0  0  0  0  0  0
    3.1806    0.5285    0.5148 C   0  0  0  0  0  0  0  0  0  0  0  0
    1.9799   -0.0659    0.2904 C   0  0  0  0  0  0  0  0  0  0  0  0
    0.6740    0.6795    0.2800 C   0  0  0  0  0  0  0  0  0  0  0  0
   -3.6529    0.3045   -0.9437 C   0  0  0  0  0  0  0  0  0  0  0  0
   -7.8549   -1.3740   -0.6451 H   0  0  0  0  0  0  0  0  0  0  0  0
   -6.0147    0.5879    1.3947 H   0  0  0  0  0  0  0  0  0  0  0  0
   -4.3515    2.2150    2.3096 H   0  0  0  0  0  0  0  0  0  0  0  0
   -2.2614    2.5629    1.0796 H   0  0  0  0  0  0  0  0  0  0  0  0
   -1.3531   -1.3043   -1.0006 H   0  0  0  0  0  0  0  0  0  0  0  0
    0.0207   -1.3382   -2.1464 H   0  0  0  0  0  0  0  0  0  0  0  0
    0.5176   -2.9661   -0.6164 H   0  0  0  0  0  0  0  0  0  0  0  0
   -0.0561   -2.0320    0.7849 H   0  0  0  0  0  0  0  0  0  0  0  0
    2.9048   -3.2672   -0.1513 H   0  0  0  0  0  0  0  0  0  0  0  0
    5.1023   -2.2445    0.2486 H   0  0  0  0  0  0  0  0  0  0  0  0
    5.2055    2.4340    1.0451 H   0  0  0  0  0  0  0  0  0  0  0  0
    3.2239    1.6077    0.7006 H   0  0  0  0  0  0  0  0  0  0  0  0
    0.1251    0.4233    1.1956 H   0  0  0  0  0  0  0  0  0  0  0  0
    0.9218    1.7502    0.2601 H   0  0  0  0  0  0  0  0  0  0  0  0
   -3.4590   -0.2390   -1.8652 H   0  0  0  0  0  0  0  0  0  0  0  0
  1  2  2  0
  2  3  1  0
  2  4  1  0
  4  5  2  0
  5  6  1  0
  6  7  2  0
  7  8  1  0
  8  9  1  0
  9 10  2  0
  9 11  2  0
  9 12  1  0
 12 13  1  0
 13 14  1  0
 14 15  1  0
 15 16  2  0
 16 17  1  0
 17 18  2  0
 18 19  1  0
 19 20  2  0
 20 21  1  0
 21 22  2  0
 22 23  1  0
 18 24  1  0
 24 25  2  0
 25 26  1  0
  8 27  2  0
 27  4  1  0
 26 12  1  0
 25 15  1  0
 23 19  1  0
  3 28  1  0
  5 29  1  0
  6 30  1  0
  7 31  1  0
 13 32  1  0
 13 33  1  0
 14 34  1  0
 14 35  1  0
 16 36  1  0
 17 37  1  0
 23 38  1  0
 24 39  1  0
 26 40  1  0
 26 41  1  0
 27 42  1  0
M  END
$$$$
