
     RDKit          3D

 57 59  0  0  0  0  0  0  0  0999 V2000
    3.6150    2.8261    0.3524 C   0  0  0  0  0  0  0  0  0  0  0  0
    3.0341    1.6316   -0.3515 C   0  0  2  0  0  0  0  0  0  0  0  0
    2.1743    0.8517    0.5215 N   0  0  0  0  0  0  0  0  0  0  0  0
    0.7937    0.6372    0.2848 C   0  0  0  0  0  0  0  0  0  0  0  0
    0.3099    1.1634   -0.7459 O   0  0  0  0  0  0  0  0  0  0  0  0
   -0.0771   -0.1474    1.1586 C   0  0  1  0  0  0  0  0  0  0  0  0
   -0.0722    0.3905    2.5978 C   0  0  0  0  0  0  0  0  0  0  0  0
   -0.6656   -0.6813    3.4420 C   0  0  0  0  0  0  0  0  0  0  0  0
   -1.3791   -1.7565    2.6897 C   0  0  0  0  0  0  0  0  0  0  0  0
   -2.0762   -1.3237    1.4421 C   0  0  0  0  0  0  0  0  0  0  0  0
   -1.4287   -0.2304    0.7798 N   0  0  0  0  0  0  0  0  0  0  0  0
   -2.1776    0.9558    0.6277 C   0  0  0  0  0  0  0  0  0  0  0  0
   -3.3322    0.8838   -0.3168 C   0  0  0  0  0  0  0  0  0  0  0  0
   -4.3143   -0.0686    0.0223 O   0  0  0  0  0  0  0  0  0  0  0  0
   -5.4143   -0.1874   -0.8161 C   0  0  0  0  0  0  0  0  0  0  0  0
   -6.4309   -1.1039   -0.5556 C   0  0  0  0  0  0  0  0  0  0  0  0
   -7.5191   -1.2159   -1.3925 C   0  0  0  0  0  0  0  0  0  0  0  0
   -7.6518   -0.4321   -2.5181 C   0  0  0  0  0  0  0  0  0  0  0  0
   -6.6491    0.4750   -2.7797 C   0  0  0  0  0  0  0  0  0  0  0  0
   -5.5615    0.5905   -1.9478 C   0  0  0  0  0  0  0  0  0  0  0  0
    4.1394    0.7496   -0.7804 C   0  0  0  0  0  0  0  0  0  0  0  0
    5.4215    1.2384   -0.7739 C   0  0  0  0  0  0  0  0  0  0  0  0
    6.4991    0.4451   -1.1685 C   0  0  0  0  0  0  0  0  0  0  0  0
    6.2949   -0.8438   -1.5718 C   0  0  0  0  0  0  0  0  0  0  0  0
    7.3922   -1.7127   -1.9918 C   0  0  0  0  0  0  0  0  0  0  0  0
    8.5646   -1.2630   -1.9801 O   0  0  0  0  0  0  0  0  0  0  0  0
    7.1772   -3.0179   -2.4031 O   0  0  0  0  0  0  0  0  0  0  0  0
    4.9980   -1.3276   -1.5750 C   0  0  0  0  0  0  0  0  0  0  0  0
    3.9295   -0.5588   -1.1897 C   0  0  0  0  0  0  0  0  0  0  0  0
    4.0540    3.4881   -0.4491 H   0  0  0  0  0  0  0  0  0  0  0  0
    2.8063    3.4377    0.8066 H   0  0  0  0  0  0  0  0  0  0  0  0
    4.3727    2.5926    1.0999 H   0  0  0  0  0  0  0  0  0  0  0  0
    2.4947    2.0152   -1.2341 H   0  0  0  0  0  0  0  0  0  0  0  0
    2.5849    0.4187    1.3760 H   0  0  0  0  0  0  0  0  0  0  0  0
    0.3162   -1.2003    1.2432 H   0  0  0  0  0  0  0  0  0  0  0  0
    0.9285    0.6488    2.9400 H   0  0  0  0  0  0  0  0  0  0  0  0
   -0.7508    1.2934    2.5496 H   0  0  0  0  0  0  0  0  0  0  0  0
    0.1003   -1.0732    4.1250 H   0  0  0  0  0  0  0  0  0  0  0  0
   -1.4337   -0.1874    4.1076 H   0  0  0  0  0  0  0  0  0  0  0  0
   -2.0912   -2.3240    3.3581 H   0  0  0  0  0  0  0  0  0  0  0  0
   -0.6260   -2.5376    2.4107 H   0  0  0  0  0  0  0  0  0  0  0  0
   -3.1280   -1.0895    1.7282 H   0  0  0  0  0  0  0  0  0  0  0  0
   -2.1280   -2.2353    0.7695 H   0  0  0  0  0  0  0  0  0  0  0  0
   -2.6350    1.1768    1.6422 H   0  0  0  0  0  0  0  0  0  0  0  0
   -1.5985    1.8558    0.3954 H   0  0  0  0  0  0  0  0  0  0  0  0
   -3.0395    0.6752   -1.3661 H   0  0  0  0  0  0  0  0  0  0  0  0
   -3.8598    1.8719   -0.3394 H   0  0  0  0  0  0  0  0  0  0  0  0
   -6.3553   -1.7309    0.3174 H   0  0  0  0  0  0  0  0  0  0  0  0
   -8.3188   -1.9339   -1.1924 H   0  0  0  0  0  0  0  0  0  0  0  0
   -8.5199   -0.5316   -3.1742 H   0  0  0  0  0  0  0  0  0  0  0  0
   -6.7853    1.0802   -3.6786 H   0  0  0  0  0  0  0  0  0  0  0  0
   -4.8028    1.3227   -2.2063 H   0  0  0  0  0  0  0  0  0  0  0  0
    5.6687    2.2451   -0.4694 H   0  0  0  0  0  0  0  0  0  0  0  0
    7.4993    0.8530   -1.1545 H   0  0  0  0  0  0  0  0  0  0  0  0
    7.8754   -3.7465   -2.2486 H   0  0  0  0  0  0  0  0  0  0  0  0
    4.8354   -2.3637   -1.8998 H   0  0  0  0  0  0  0  0  0  0  0  0
    2.9423   -0.9892   -1.2122 H   0  0  0  0  0  0  0  0  0  0  0  0
  1  2  1  0
  2  3  1  0
  3  4  1  0
  4  5  2  0
  4  6  1  0
  6  7  1  0
  7  8  1  0
  8  9  1  0
  9 10  1  0
 10 11  1  0
 11 12  1  0
 12 13  1  0
 13 14  1  0
 14 15  1  0
 15 16  2  0
 16 17  1  0
 17 18  2  0
 18 19  1  0
 19 20  2  0
  2 21  1  0
 21 22  2  0
 22 23  1  0
 23 24  2  0
 24 25  1  0
 25 26  2  0
 25 27  1  0
 24 28  1  0
 28 29  2  0
 11  6  1  0
 20 15  1  0
 29 21  1  0
  1 30  1  0
  1 31  1  0
  1 32  1  0
  2 33  1  6
  3 34  1  0
  6 35  1  1
  7 36  1  0
  7 37  1  0
  8 38  1  0
  8 39  1  0
  9 40  1  0
  9 41  1  0
 10 42  1  0
 10 43  1  0
 12 44  1  0
 12 45  1  0
 13 46  1  0
 13 47  1  0
 16 48  1  0
 17 49  1  0
 18 50  1  0
 19 51  1  0
 20 52  1  0
 22 53  1  0
 23 54  1  0
 27 55  1  0
 28 56  1  0
 29 57  1  0
M  END
$$$$
