
     RDKit          3D

 21 20  0  0  0  0  0  0  0  0999 V2000
   -0.7976   -1.6360    0.5692 C   0  0  0  0  0  0  0  0  0  0  0  0
   -0.0709   -0.6000   -0.2183 C   0  0  0  0  0  0  0  0  0  0  0  0
   -0.1027   -0.9539   -1.5605 O   0  0  0  0  0  0  0  0  0  0  0  0
   -0.5081    0.8092    0.0187 C   0  0  0  0  0  0  0  0  0  0  0  0
   -1.9128    1.0817   -0.2882 C   0  0  0  0  0  0  0  0  0  0  0  0
   -2.3483    2.3862   -0.0775 O   0  0  0  0  0  0  0  0  0  0  0  0
   -2.7200    0.1916   -0.7269 O   0  0  0  0  0  0  0  0  0  0  0  0
    1.3902   -0.6864    0.2321 C   0  0  0  0  0  0  0  0  0  0  0  0
    2.2473    0.2797   -0.4569 C   0  0  0  0  0  0  0  0  0  0  0  0
    2.3335    1.2981   -1.3898 O   0  0  0  0  0  0  0  0  0  0  0  0
    3.4849    0.2921   -0.1557 O   0  0  0  0  0  0  0  0  0  0  0  0
   -0.1415   -2.5436    0.5416 H   0  0  0  0  0  0  0  0  0  0  0  0
   -0.8175   -1.3503    1.6366 H   0  0  0  0  0  0  0  0  0  0  0  0
   -1.7618   -1.9566    0.1484 H   0  0  0  0  0  0  0  0  0  0  0  0
   -0.2690   -1.9238   -1.6978 H   0  0  0  0  0  0  0  0  0  0  0  0
    0.1046    1.4430   -0.6764 H   0  0  0  0  0  0  0  0  0  0  0  0
   -0.2997    1.1282    1.0566 H   0  0  0  0  0  0  0  0  0  0  0  0
   -3.3412    2.6345   -0.1294 H   0  0  0  0  0  0  0  0  0  0  0  0
    1.3838   -0.4759    1.3370 H   0  0  0  0  0  0  0  0  0  0  0  0
    1.7647   -1.7093    0.0565 H   0  0  0  0  0  0  0  0  0  0  0  0
    2.3822    2.2913   -1.1573 H   0  0  0  0  0  0  0  0  0  0  0  0
  1  2  1  0
  2  3  1  0
  2  4  1  0
  4  5  1  0
  5  6  1  0
  5  7  2  0
  2  8  1  0
  8  9  1  0
  9 10  1  0
  9 11  2  0
  1 12  1  0
  1 13  1  0
  1 14  1  0
  3 15  1  0
  4 16  1  0
  4 17  1  0
  6 18  1  0
  8 19  1  0
  8 20  1  0
 10 21  1  0
M  END
$$$$
