
     RDKit          3D

 53 55  0  0  0  0  0  0  0  0999 V2000
    8.4797    1.8478    0.6321 C   0  0  0  0  0  0  0  0  0  0  0  0
    7.7278    1.2404    1.6970 N   0  0  0  0  0  0  0  0  0  0  0  0
    6.4128    0.7479    1.4414 C   0  0  0  0  0  0  0  0  0  0  0  0
    5.6770    0.1739    2.4083 N   0  0  0  0  0  0  0  0  0  0  0  0
    4.4571   -0.2822    2.1685 C   0  0  0  0  0  0  0  0  0  0  0  0
    3.8498   -0.2041    0.9146 C   0  0  0  0  0  0  0  0  0  0  0  0
    2.5240   -0.7224    0.7379 C   0  0  0  0  0  0  0  0  0  0  0  0
    1.9488   -1.2423    1.7581 O   0  0  0  0  0  0  0  0  0  0  0  0
    1.7463   -0.7380   -0.4378 N   0  0  0  0  0  0  0  0  0  0  0  0
    0.4236   -1.2944   -0.4679 C   0  0  0  0  0  0  0  0  0  0  0  0
   -0.6817   -0.5180   -0.1999 C   0  0  0  0  0  0  0  0  0  0  0  0
   -1.9647   -1.0647   -0.2308 C   0  0  0  0  0  0  0  0  0  0  0  0
   -3.1235   -0.2370    0.0535 C   0  0  0  0  0  0  0  0  0  0  0  0
   -2.9207    0.9954    0.3291 O   0  0  0  0  0  0  0  0  0  0  0  0
   -4.4617   -0.6667    0.0546 N   0  0  0  0  0  0  0  0  0  0  0  0
   -5.5662    0.1504    0.3322 C   0  0  0  0  0  0  0  0  0  0  0  0
   -6.0172    0.2776    1.6180 C   0  0  0  0  0  0  0  0  0  0  0  0
   -7.1015    1.0678    1.9582 C   0  0  0  0  0  0  0  0  0  0  0  0
   -7.7197    1.7355    0.9192 C   0  0  0  0  0  0  0  0  0  0  0  0
   -7.2980    1.6348   -0.3867 C   0  0  0  0  0  0  0  0  0  0  0  0
   -8.0099    2.3822   -1.4616 C   0  0  0  0  0  0  0  0  0  0  0  0
   -9.0386    3.0925   -0.9149 F   0  0  0  0  0  0  0  0  0  0  0  0
   -8.4952    1.4961   -2.4034 F   0  0  0  0  0  0  0  0  0  0  0  0
   -7.0978    3.2421   -2.0626 F   0  0  0  0  0  0  0  0  0  0  0  0
   -6.2023    0.8260   -0.6723 C   0  0  0  0  0  0  0  0  0  0  0  0
   -5.8143    0.7518   -1.9786 F   0  0  0  0  0  0  0  0  0  0  0  0
   -2.0610   -2.4016   -0.5392 C   0  0  0  0  0  0  0  0  0  0  0  0
   -0.9344   -3.1922   -0.8123 C   0  0  0  0  0  0  0  0  0  0  0  0
    0.3168   -2.6333   -0.7761 C   0  0  0  0  0  0  0  0  0  0  0  0
    1.5350   -3.4297   -1.0575 C   0  0  0  0  0  0  0  0  0  0  0  0
    4.6091    0.3828   -0.0627 C   0  0  0  0  0  0  0  0  0  0  0  0
    4.0994    0.5109   -1.3476 O   0  0  0  0  0  0  0  0  0  0  0  0
    4.8666    1.1106   -2.3597 C   0  0  0  0  0  0  0  0  0  0  0  0
    5.8398    0.8272    0.2376 N   0  0  0  0  0  0  0  0  0  0  0  0
    9.5529    1.9389    0.9411 H   0  0  0  0  0  0  0  0  0  0  0  0
    8.4082    1.2903   -0.3220 H   0  0  0  0  0  0  0  0  0  0  0  0
    8.0930    2.8779    0.4294 H   0  0  0  0  0  0  0  0  0  0  0  0
    8.1070    1.1452    2.6521 H   0  0  0  0  0  0  0  0  0  0  0  0
    3.8862   -0.7396    2.9632 H   0  0  0  0  0  0  0  0  0  0  0  0
    2.1086   -0.3477   -1.3140 H   0  0  0  0  0  0  0  0  0  0  0  0
   -0.5560    0.5414    0.0408 H   0  0  0  0  0  0  0  0  0  0  0  0
   -4.6391   -1.6891   -0.1733 H   0  0  0  0  0  0  0  0  0  0  0  0
   -5.5413   -0.2428    2.4539 H   0  0  0  0  0  0  0  0  0  0  0  0
   -7.4598    1.1696    2.9757 H   0  0  0  0  0  0  0  0  0  0  0  0
   -8.5712    2.3639    1.1414 H   0  0  0  0  0  0  0  0  0  0  0  0
   -3.0541   -2.8463   -0.5683 H   0  0  0  0  0  0  0  0  0  0  0  0
   -1.0786   -4.2389   -1.0485 H   0  0  0  0  0  0  0  0  0  0  0  0
    1.6015   -3.5407   -2.1783 H   0  0  0  0  0  0  0  0  0  0  0  0
    1.4293   -4.4660   -0.6712 H   0  0  0  0  0  0  0  0  0  0  0  0
    2.4461   -2.9359   -0.7276 H   0  0  0  0  0  0  0  0  0  0  0  0
    5.4550    1.9347   -1.9286 H   0  0  0  0  0  0  0  0  0  0  0  0
    5.5735    0.3690   -2.7757 H   0  0  0  0  0  0  0  0  0  0  0  0
    4.2334    1.5489   -3.1652 H   0  0  0  0  0  0  0  0  0  0  0  0
  1  2  1  0
  2  3  1  0
  3  4  2  0
  4  5  1  0
  5  6  2  0
  6  7  1  0
  7  8  2  0
  7  9  1  0
  9 10  1  0
 10 11  2  0
 11 12  1  0
 12 13  1  0
 13 14  2  0
 13 15  1  0
 15 16  1  0
 16 17  2  0
 17 18  1  0
 18 19  2  0
 19 20  1  0
 20 21  1  0
 21 22  1  0
 21 23  1  0
 21 24  1  0
 20 25  2  0
 25 26  1  0
 12 27  2  0
 27 28  1  0
 28 29  2  0
 29 30  1  0
  6 31  1  0
 31 32  1  0
 32 33  1  0
 31 34  2  0
 34  3  1  0
 29 10  1  0
 25 16  1  0
  1 35  1  0
  1 36  1  0
  1 37  1  0
  2 38  1  0
  5 39  1  0
  9 40  1  0
 11 41  1  0
 15 42  1  0
 17 43  1  0
 18 44  1  0
 19 45  1  0
 27 46  1  0
 28 47  1  0
 30 48  1  0
 30 49  1  0
 30 50  1  0
 33 51  1  0
 33 52  1  0
 33 53  1  0
M  END
$$$$
