
     RDKit          3D

 51 53  0  0  0  0  0  0  0  0999 V2000
    8.0783    2.0074   -1.3610 C   0  0  0  0  0  0  0  0  0  0  0  0
    6.8171    1.2460   -1.1419 C   0  0  0  0  0  0  0  0  0  0  0  0
    6.2040    1.2204    0.0915 C   0  0  0  0  0  0  0  0  0  0  0  0
    5.0705    0.5353    0.2858 N   0  0  0  0  0  0  0  0  0  0  0  0
    4.4991   -0.1440   -0.7086 C   0  0  0  0  0  0  0  0  0  0  0  0
    3.2735   -0.8820   -0.4892 C   0  0  0  0  0  0  0  0  0  0  0  0
    2.7552   -1.5105   -1.4314 O   0  0  0  0  0  0  0  0  0  0  0  0
    2.6718   -0.8863    0.7893 N   0  0  0  0  0  0  0  0  0  0  0  0
    1.4856   -1.6010    1.0002 C   0  0  0  0  0  0  0  0  0  0  0  0
    1.4597   -2.9213    1.3996 C   0  0  0  0  0  0  0  0  0  0  0  0
    0.2534   -3.5329    1.5792 C   0  0  0  0  0  0  0  0  0  0  0  0
   -0.9338   -2.8389    1.3637 C   0  0  0  0  0  0  0  0  0  0  0  0
   -2.0876   -3.4795    1.5532 F   0  0  0  0  0  0  0  0  0  0  0  0
   -0.9385   -1.5260    0.9664 C   0  0  0  0  0  0  0  0  0  0  0  0
   -2.1997   -0.8184    0.7455 C   0  0  2  0  0  0  0  0  0  0  0  0
   -2.9492   -0.8098    2.0887 C   0  0  0  0  0  0  0  0  0  0  0  0
   -3.0334   -1.4693   -0.3363 C   0  0  0  0  0  0  0  0  0  0  0  0
   -4.5974   -0.5789   -0.3389 S   0  0  0  0  0  6  0  0  0  0  0  0
   -5.2494   -0.8863   -1.6507 O   0  0  0  0  0  0  0  0  0  0  0  0
   -5.4902   -0.9956    0.7682 O   0  0  0  0  0  0  0  0  0  0  0  0
   -4.1455    1.1330   -0.2906 C   0  0  0  0  0  0  0  0  0  0  0  0
   -4.4965    1.7861   -1.6378 C   0  0  0  0  0  0  0  0  0  0  0  0
   -5.0292    1.8215    0.7243 C   0  0  0  0  0  0  0  0  0  0  0  0
   -2.7141    1.3417   -0.0973 C   0  0  0  0  0  0  0  0  0  0  0  0
   -2.2018    2.6462   -0.4532 N   0  0  0  0  0  0  0  0  0  0  0  0
   -1.8708    0.5156    0.3447 N   0  0  0  0  0  0  0  0  0  0  0  0
    0.2843   -0.9298    0.7915 C   0  0  0  0  0  0  0  0  0  0  0  0
    5.0857   -0.1355   -1.9408 C   0  0  0  0  0  0  0  0  0  0  0  0
    6.2348    0.5601   -2.1344 N   0  0  0  0  0  0  0  0  0  0  0  0
    8.5289    1.6265   -2.2952 H   0  0  0  0  0  0  0  0  0  0  0  0
    8.8161    1.8093   -0.5367 H   0  0  0  0  0  0  0  0  0  0  0  0
    7.8311    3.0889   -1.4140 H   0  0  0  0  0  0  0  0  0  0  0  0
    6.6859    1.7799    0.8861 H   0  0  0  0  0  0  0  0  0  0  0  0
    3.1160   -0.3596    1.5577 H   0  0  0  0  0  0  0  0  0  0  0  0
    2.4028   -3.4341    1.5591 H   0  0  0  0  0  0  0  0  0  0  0  0
    0.2252   -4.5777    1.8953 H   0  0  0  0  0  0  0  0  0  0  0  0
   -3.3076    0.1908    2.3557 H   0  0  0  0  0  0  0  0  0  0  0  0
   -2.2288   -1.0775    2.9200 H   0  0  0  0  0  0  0  0  0  0  0  0
   -3.6984   -1.6109    2.1170 H   0  0  0  0  0  0  0  0  0  0  0  0
   -3.2467   -2.5215   -0.1747 H   0  0  0  0  0  0  0  0  0  0  0  0
   -2.5568   -1.2301   -1.3005 H   0  0  0  0  0  0  0  0  0  0  0  0
   -3.9676    1.2841   -2.4728 H   0  0  0  0  0  0  0  0  0  0  0  0
   -4.2620    2.8679   -1.5597 H   0  0  0  0  0  0  0  0  0  0  0  0
   -5.6037    1.7027   -1.7141 H   0  0  0  0  0  0  0  0  0  0  0  0
   -5.9431    2.2657    0.2476 H   0  0  0  0  0  0  0  0  0  0  0  0
   -5.4234    1.0743    1.4517 H   0  0  0  0  0  0  0  0  0  0  0  0
   -4.4805    2.5707    1.3229 H   0  0  0  0  0  0  0  0  0  0  0  0
   -2.4281    3.4604    0.1498 H   0  0  0  0  0  0  0  0  0  0  0  0
   -1.6173    2.7989   -1.2876 H   0  0  0  0  0  0  0  0  0  0  0  0
    0.3081    0.1137    0.4758 H   0  0  0  0  0  0  0  0  0  0  0  0
    4.6136   -0.6893   -2.7380 H   0  0  0  0  0  0  0  0  0  0  0  0
  1  2  1  0
  2  3  2  0
  3  4  1  0
  4  5  2  0
  5  6  1  0
  6  7  2  0
  6  8  1  0
  8  9  1  0
  9 10  2  0
 10 11  1  0
 11 12  2  0
 12 13  1  0
 12 14  1  0
 14 15  1  0
 15 16  1  1
 15 17  1  0
 17 18  1  0
 18 19  2  0
 18 20  2  0
 18 21  1  0
 21 22  1  0
 21 23  1  0
 21 24  1  0
 24 25  1  0
 24 26  2  0
 14 27  2  0
  5 28  1  0
 28 29  2  0
 29  2  1  0
 27  9  1  0
 26 15  1  0
  1 30  1  0
  1 31  1  0
  1 32  1  0
  3 33  1  0
  8 34  1  0
 10 35  1  0
 11 36  1  0
 16 37  1  0
 16 38  1  0
 16 39  1  0
 17 40  1  0
 17 41  1  0
 22 42  1  0
 22 43  1  0
 22 44  1  0
 23 45  1  0
 23 46  1  0
 23 47  1  0
 25 48  1  0
 25 49  1  0
 27 50  1  0
 28 51  1  0
M  END
$$$$
