
     RDKit          3D

 61 63  0  0  0  0  0  0  0  0999 V2000
    0.9667    2.4119   -0.0449 C   0  0  0  0  0  0  0  0  0  0  0  0
    0.4128    1.0510   -0.0230 N   0  0  0  0  0  0  0  0  0  0  0  0
    1.1950   -0.0310   -0.1918 C   0  0  0  0  0  0  0  0  0  0  0  0
    0.6965   -1.3259   -0.1754 C   0  0  0  0  0  0  0  0  0  0  0  0
    1.7387   -2.1477   -0.3718 N   0  0  0  0  0  2  0  0  0  0  0  0
    2.8742   -1.4388   -0.5121 C   0  0  0  0  0  0  0  0  0  0  0  0
    4.5067   -2.0602   -0.7892 Cl  0  0  0  0  0  0  0  0  0  0  0  0
    2.5160   -0.1421   -0.3980 N   0  0  0  0  0  0  0  0  0  0  0  0
   -0.6607   -1.4875    0.0238 C   0  0  0  0  0  0  0  0  0  0  0  0
   -1.0883   -2.6834    0.0340 O   0  0  0  0  0  0  0  0  0  0  0  0
   -1.4360   -0.4003    0.1918 N   0  0  0  0  0  0  0  0  0  0  0  0
   -2.8761   -0.6090    0.4015 C   0  0  0  0  0  0  0  0  0  0  0  0
   -0.9018    0.8351    0.1672 C   0  0  0  0  0  0  0  0  0  0  0  0
   -1.6449    1.8590    0.3273 O   0  0  0  0  0  0  0  0  0  0  0  0
    3.3824   -0.1666    1.4437 C   0  0  0  0  0  0  0  0  0  0  0  0
    3.5240   -0.3767   -0.0058 N   0  0  0  0  0  4  0  0  0  0  0  0
    2.7564   -1.5509   -0.3096 C   0  0  0  0  0  0  0  0  0  0  0  0
    3.0785    0.8272   -0.6316 C   0  0  0  0  0  0  0  0  0  0  0  0
    1.6662    0.7334   -1.1648 C   0  0  0  0  0  0  0  0  0  0  0  0
    0.7811    0.4551   -0.1243 O   0  0  0  0  0  0  0  0  0  0  0  0
   -0.5322    0.3578   -0.5564 C   0  0  0  0  0  0  0  0  0  0  0  0
   -1.1490   -0.9688   -0.2930 C   0  0  0  0  0  0  0  0  0  0  0  0
   -0.9875   -1.5821    0.9317 C   0  0  0  0  0  0  0  0  0  0  0  0
   -1.5895   -2.8299    1.1257 C   0  0  0  0  0  0  0  0  0  0  0  0
   -2.3261   -3.4501    0.1420 C   0  0  0  0  0  0  0  0  0  0  0  0
   -2.4743   -2.8163   -1.0776 C   0  0  0  0  0  0  0  0  0  0  0  0
   -1.8851   -1.5807   -1.2866 C   0  0  0  0  0  0  0  0  0  0  0  0
   -1.4228    1.4046   -0.0197 C   0  0  0  0  0  0  0  0  0  0  0  0
   -2.3390    2.0971   -0.8170 C   0  0  0  0  0  0  0  0  0  0  0  0
   -3.1626    3.0754   -0.2851 C   0  0  0  0  0  0  0  0  0  0  0  0
   -3.0591    3.3568    1.0675 C   0  0  0  0  0  0  0  0  0  0  0  0
   -2.1481    2.6638    1.8448 C   0  0  0  0  0  0  0  0  0  0  0  0
   -1.3247    1.6877    1.3193 C   0  0  0  0  0  0  0  0  0  0  0  0
    1.8456    2.4926   -0.7019 H   0  0  0  0  0  0  0  0  0  0  0  0
    0.1719    3.1363   -0.3198 H   0  0  0  0  0  0  0  0  0  0  0  0
    1.2808    2.6135    1.0162 H   0  0  0  0  0  0  0  0  0  0  0  0
   -2.9895   -0.8423    1.4854 H   0  0  0  0  0  0  0  0  0  0  0  0
   -3.1533   -1.5053   -0.1896 H   0  0  0  0  0  0  0  0  0  0  0  0
   -3.4544    0.2742    0.0702 H   0  0  0  0  0  0  0  0  0  0  0  0
    3.9956   -0.9594    1.9161 H   0  0  0  0  0  0  0  0  0  0  0  0
    3.6596    0.8553    1.7464 H   0  0  0  0  0  0  0  0  0  0  0  0
    2.3033   -0.3787    1.6547 H   0  0  0  0  0  0  0  0  0  0  0  0
    4.5456   -0.5653   -0.1851 H   0  0  0  0  0  0  0  0  0  0  0  0
    2.5872   -1.6389   -1.4053 H   0  0  0  0  0  0  0  0  0  0  0  0
    1.8390   -1.6366    0.2795 H   0  0  0  0  0  0  0  0  0  0  0  0
    3.3932   -2.4350   -0.0338 H   0  0  0  0  0  0  0  0  0  0  0  0
    3.1121    1.7164    0.0480 H   0  0  0  0  0  0  0  0  0  0  0  0
    3.7653    1.0649   -1.4694 H   0  0  0  0  0  0  0  0  0  0  0  0
    1.5721    0.0484   -2.0262 H   0  0  0  0  0  0  0  0  0  0  0  0
    1.3784    1.7448   -1.5304 H   0  0  0  0  0  0  0  0  0  0  0  0
   -0.4914    0.5402   -1.6664 H   0  0  0  0  0  0  0  0  0  0  0  0
   -0.4214   -1.1442    1.7397 H   0  0  0  0  0  0  0  0  0  0  0  0
   -1.5159   -3.3861    2.0564 H   0  0  0  0  0  0  0  0  0  0  0  0
   -2.8027   -4.4132    0.2621 H   0  0  0  0  0  0  0  0  0  0  0  0
   -3.0567   -3.3009   -1.8631 H   0  0  0  0  0  0  0  0  0  0  0  0
   -1.9888   -1.0750   -2.2237 H   0  0  0  0  0  0  0  0  0  0  0  0
   -2.3267    1.7855   -1.8676 H   0  0  0  0  0  0  0  0  0  0  0  0
   -3.8399    3.5543   -0.9903 H   0  0  0  0  0  0  0  0  0  0  0  0
   -3.7220    4.1315    1.4508 H   0  0  0  0  0  0  0  0  0  0  0  0
   -2.1136    2.9298    2.9000 H   0  0  0  0  0  0  0  0  0  0  0  0
   -0.6610    1.2254    2.0352 H   0  0  0  0  0  0  0  0  0  0  0  0
  1  2  1  0
  2  3  1  0
  3  4  2  0
  4  5  1  0
  5  6  1  0
  6  7  1  0
  6  8  2  0
  4  9  1  0
  9 10  2  0
  9 11  1  0
 11 12  1  0
 11 13  1  0
 13 14  2  0
 15 16  1  0
 16 17  1  0
 16 18  1  0
 18 19  1  0
 19 20  1  0
 20 21  1  0
 21 22  1  0
 22 23  2  0
 23 24  1  0
 24 25  2  0
 25 26  1  0
 26 27  2  0
 21 28  1  0
 28 29  2  0
 29 30  1  0
 30 31  2  0
 31 32  1  0
 32 33  2  0
 13  2  1  0
 27 22  1  0
 33 28  1  0
  8  3  1  0
  1 34  1  0
  1 35  1  0
  1 36  1  0
 12 37  1  0
 12 38  1  0
 12 39  1  0
 15 40  1  0
 15 41  1  0
 15 42  1  0
 16 43  1  0
 17 44  1  0
 17 45  1  0
 17 46  1  0
 18 47  1  0
 18 48  1  0
 19 49  1  0
 19 50  1  0
 21 51  1  0
 23 52  1  0
 24 53  1  0
 25 54  1  0
 26 55  1  0
 27 56  1  0
 29 57  1  0
 30 58  1  0
 31 59  1  0
 32 60  1  0
 33 61  1  0
M  CHG  2   5  -1  16   1
M  END
$$$$
