
     RDKit          3D

 58 63  0  0  0  0  0  0  0  0999 V2000
   -4.1130    1.8075    3.6118 C   0  0  0  0  0  0  0  0  0  0  0  0
   -3.5753    1.4008    2.2887 C   0  0  0  0  0  0  0  0  0  0  0  0
   -2.2922    0.9404    2.0971 C   0  0  0  0  0  0  0  0  0  0  0  0
   -1.8241    0.5685    0.8422 C   0  0  0  0  0  0  0  0  0  0  0  0
   -0.4936    0.1000    0.6542 N   0  0  0  0  0  0  0  0  0  0  0  0
    0.5793    0.9735    0.3163 C   0  0  0  0  0  0  0  0  0  0  0  0
    0.4747    2.2018    0.1390 O   0  0  0  0  0  0  0  0  0  0  0  0
    1.7982    0.1810    0.2164 C   0  0  0  0  0  0  0  0  0  0  0  0
    3.1441    0.2390   -0.0512 C   0  0  0  0  0  0  0  0  0  0  0  0
    4.0259    1.3757   -0.3659 C   0  0  0  0  0  0  0  0  0  0  0  0
    5.0643    1.6434    0.7297 C   0  0  0  0  0  0  0  0  0  0  0  0
    4.9557    3.0539    0.3307 N   0  0  0  0  0  0  0  0  0  0  0  0
    5.7088    3.3083   -0.8825 C   0  0  0  0  0  0  0  0  0  0  0  0
    3.5331    2.7496    0.0427 C   0  0  0  0  0  0  0  0  0  0  0  0
    3.5931   -1.0833    0.0663 C   0  0  0  0  0  0  0  0  0  0  0  0
    2.5608   -1.8777    0.3883 N   0  0  0  0  0  0  0  0  0  0  0  0
    2.6869   -3.3299    0.5887 C   0  0  0  0  0  0  0  0  0  0  0  0
    1.4471   -1.1352    0.4880 C   0  0  0  0  0  0  0  0  0  0  0  0
   -0.0158   -1.2375    0.7807 C   0  0  0  0  0  0  0  0  0  0  0  0
   -0.6457   -2.2054   -0.1378 C   0  0  0  0  0  0  0  0  0  0  0  0
   -0.8301   -2.0073   -1.4854 C   0  0  0  0  0  0  0  0  0  0  0  0
   -1.4254   -2.9486   -2.2930 C   0  0  0  0  0  0  0  0  0  0  0  0
   -1.8673   -4.1436   -1.7795 C   0  0  0  0  0  0  0  0  0  0  0  0
   -2.6311   -5.3598   -2.7955 Cl  0  0  0  0  0  0  0  0  0  0  0  0
   -1.7000   -4.3776   -0.4357 C   0  0  0  0  0  0  0  0  0  0  0  0
   -1.1037   -3.4273    0.3568 C   0  0  0  0  0  0  0  0  0  0  0  0
   -2.6592    0.6599   -0.2446 C   0  0  0  0  0  0  0  0  0  0  0  0
   -3.9347    1.1161   -0.0621 N   0  0  0  0  0  0  0  0  0  0  0  0
   -4.9117    1.2837   -0.9793 C   0  0  0  0  0  0  0  0  0  0  0  0
   -4.8580    1.0129   -2.4489 C   0  0  0  0  0  0  0  0  0  0  0  0
   -5.9763    1.7545   -0.3034 N   0  0  0  0  0  0  0  0  0  0  0  0
   -5.6554    1.8690    0.9832 N   0  0  0  0  0  0  0  0  0  0  0  0
   -4.3732    1.4721    1.1579 C   0  0  0  0  0  0  0  0  0  0  0  0
   -3.9373    2.9156    3.7146 H   0  0  0  0  0  0  0  0  0  0  0  0
   -3.6426    1.2523    4.4302 H   0  0  0  0  0  0  0  0  0  0  0  0
   -5.2223    1.6329    3.5658 H   0  0  0  0  0  0  0  0  0  0  0  0
   -1.6489    0.8748    2.9614 H   0  0  0  0  0  0  0  0  0  0  0  0
    4.5233    1.3192   -1.3312 H   0  0  0  0  0  0  0  0  0  0  0  0
    6.0518    1.2179    0.5542 H   0  0  0  0  0  0  0  0  0  0  0  0
    4.7092    1.4384    1.7477 H   0  0  0  0  0  0  0  0  0  0  0  0
    5.0214    3.2629   -1.7433 H   0  0  0  0  0  0  0  0  0  0  0  0
    6.1718    4.3249   -0.8539 H   0  0  0  0  0  0  0  0  0  0  0  0
    6.4837    2.5275   -1.0151 H   0  0  0  0  0  0  0  0  0  0  0  0
    2.9290    2.7322    0.9686 H   0  0  0  0  0  0  0  0  0  0  0  0
    3.1660    3.3298   -0.8010 H   0  0  0  0  0  0  0  0  0  0  0  0
    4.6177   -1.3850   -0.0848 H   0  0  0  0  0  0  0  0  0  0  0  0
    2.5542   -3.7782   -0.4309 H   0  0  0  0  0  0  0  0  0  0  0  0
    1.8942   -3.6318    1.2723 H   0  0  0  0  0  0  0  0  0  0  0  0
    3.7113   -3.5893    0.9272 H   0  0  0  0  0  0  0  0  0  0  0  0
   -0.0990   -1.6202    1.8326 H   0  0  0  0  0  0  0  0  0  0  0  0
   -0.4835   -1.0632   -1.9032 H   0  0  0  0  0  0  0  0  0  0  0  0
   -1.5665   -2.7820   -3.3579 H   0  0  0  0  0  0  0  0  0  0  0  0
   -2.0518   -5.3210   -0.0448 H   0  0  0  0  0  0  0  0  0  0  0  0
   -0.9648   -3.6014    1.4275 H   0  0  0  0  0  0  0  0  0  0  0  0
   -2.3737    0.3963   -1.2485 H   0  0  0  0  0  0  0  0  0  0  0  0
   -5.4010    0.1063   -2.7274 H   0  0  0  0  0  0  0  0  0  0  0  0
   -5.3321    1.8614   -3.0231 H   0  0  0  0  0  0  0  0  0  0  0  0
   -3.7960    1.0015   -2.8007 H   0  0  0  0  0  0  0  0  0  0  0  0
  1  2  1  0
  2  3  2  0
  3  4  1  0
  4  5  1  0
  5  6  1  0
  6  7  2  0
  6  8  1  0
  8  9  1  0
  9 10  1  0
 10 11  1  0
 11 12  1  0
 12 13  1  0
 12 14  1  0
  9 15  2  0
 15 16  1  0
 16 17  1  0
 16 18  1  0
 18 19  1  0
 19 20  1  0
 20 21  2  0
 21 22  1  0
 22 23  2  0
 23 24  1  0
 23 25  1  0
 25 26  2  0
  4 27  2  0
 27 28  1  0
 28 29  1  0
 29 30  1  0
 29 31  2  0
 31 32  1  0
 32 33  2  0
 33  2  1  0
 19  5  1  0
 26 20  1  0
 33 28  1  0
 18  8  2  0
 14 10  1  0
  1 34  1  0
  1 35  1  0
  1 36  1  0
  3 37  1  0
 10 38  1  0
 11 39  1  0
 11 40  1  0
 13 41  1  0
 13 42  1  0
 13 43  1  0
 14 44  1  0
 14 45  1  0
 15 46  1  0
 17 47  1  0
 17 48  1  0
 17 49  1  0
 19 50  1  0
 21 51  1  0
 22 52  1  0
 25 53  1  0
 26 54  1  0
 27 55  1  0
 30 56  1  0
 30 57  1  0
 30 58  1  0
M  END
$$$$
