
     RDKit          3D

 42 45  0  0  0  0  0  0  0  0999 V2000
    3.7014   -2.0750    1.2957 C   0  0  0  0  0  0  0  0  0  0  0  0
    3.6454   -0.5926    1.6660 C   0  0  2  0  0  0  0  0  0  0  0  0
    2.3358   -0.2197    2.0932 N   0  0  0  0  0  0  0  0  0  0  0  0
    1.1634   -0.3637    1.2882 C   0  0  0  0  0  0  0  0  0  0  0  0
   -0.0522   -0.0029    1.7161 N   0  0  0  0  0  0  0  0  0  0  0  0
   -1.1755   -0.1265    0.9915 C   0  0  0  0  0  0  0  0  0  0  0  0
   -2.4159    0.2789    1.5254 N   0  0  0  0  0  0  0  0  0  0  0  0
   -3.6788    0.2438    0.9413 C   0  0  0  0  0  0  0  0  0  0  0  0
   -4.3169    1.2415    0.2059 C   0  0  0  0  0  0  0  0  0  0  0  0
   -5.5492    0.7981   -0.1658 N   0  0  0  0  0  0  0  0  0  0  0  0
   -6.4938    1.5739   -0.9453 C   0  0  0  0  0  0  0  0  0  0  0  0
   -5.6843   -0.4498    0.3242 C   0  0  0  0  0  0  0  0  0  0  0  0
   -4.5534   -0.7779    0.9904 N   0  0  0  0  0  0  0  0  0  0  0  0
   -1.0733   -0.6525   -0.2596 C   0  0  0  0  0  0  0  0  0  0  0  0
   -1.9519   -0.9337   -1.2721 C   0  0  0  0  0  0  0  0  0  0  0  0
   -1.2805   -1.4757   -2.3460 C   0  0  0  0  0  0  0  0  0  0  0  0
    0.0128   -1.5263   -1.9894 N   0  0  0  0  0  0  0  0  0  0  0  0
    0.1740   -1.0410   -0.7443 C   0  0  0  0  0  0  0  0  0  0  0  0
    1.2536   -0.8824    0.0496 N   0  0  0  0  0  0  0  0  0  0  0  0
    4.1908    0.2359    0.5875 C   0  0  0  0  0  0  0  0  0  0  0  0
    3.4972    0.6377   -0.4928 N   0  0  0  0  0  0  0  0  0  0  0  0
    4.0612    1.3963   -1.4520 C   0  0  0  0  0  0  0  0  0  0  0  0
    5.3881    1.7918   -1.3562 C   0  0  0  0  0  0  0  0  0  0  0  0
    5.9902    2.5518   -2.2956 F   0  0  0  0  0  0  0  0  0  0  0  0
    6.0922    1.3763   -0.2466 C   0  0  0  0  0  0  0  0  0  0  0  0
    5.4722    0.6309    0.6577 N   0  0  0  0  0  0  0  0  0  0  0  0
    2.6808   -2.5126    1.4311 H   0  0  0  0  0  0  0  0  0  0  0  0
    4.3747   -2.6577    1.9438 H   0  0  0  0  0  0  0  0  0  0  0  0
    4.0603   -2.2173    0.2465 H   0  0  0  0  0  0  0  0  0  0  0  0
    4.3355   -0.5026    2.5432 H   0  0  0  0  0  0  0  0  0  0  0  0
    2.2018    0.1831    3.0416 H   0  0  0  0  0  0  0  0  0  0  0  0
   -2.4152    0.6782    2.5294 H   0  0  0  0  0  0  0  0  0  0  0  0
   -3.8505    2.1911    0.0011 H   0  0  0  0  0  0  0  0  0  0  0  0
   -6.4688    2.6410   -0.6602 H   0  0  0  0  0  0  0  0  0  0  0  0
   -6.2161    1.4878   -2.0171 H   0  0  0  0  0  0  0  0  0  0  0  0
   -7.5024    1.1809   -0.7236 H   0  0  0  0  0  0  0  0  0  0  0  0
   -6.5837   -1.0443    0.1739 H   0  0  0  0  0  0  0  0  0  0  0  0
   -3.0022   -0.7758   -1.2731 H   0  0  0  0  0  0  0  0  0  0  0  0
   -1.7399   -1.7888   -3.2796 H   0  0  0  0  0  0  0  0  0  0  0  0
    0.7495   -1.8999   -2.6267 H   0  0  0  0  0  0  0  0  0  0  0  0
    3.4979    1.7247   -2.3329 H   0  0  0  0  0  0  0  0  0  0  0  0
    7.1258    1.6750   -0.1555 H   0  0  0  0  0  0  0  0  0  0  0  0
  1  2  1  0
  2  3  1  0
  3  4  1  0
  4  5  2  0
  5  6  1  0
  6  7  1  0
  7  8  1  0
  8  9  2  0
  9 10  1  0
 10 11  1  0
 10 12  1  0
 12 13  2  0
  6 14  2  0
 14 15  1  0
 15 16  2  0
 16 17  1  0
 17 18  1  0
 18 19  2  0
  2 20  1  0
 20 21  2  0
 21 22  1  0
 22 23  2  0
 23 24  1  0
 23 25  1  0
 25 26  2  0
 19  4  1  0
 26 20  1  0
 13  8  1  0
 18 14  1  0
  1 27  1  0
  1 28  1  0
  1 29  1  0
  2 30  1  1
  3 31  1  0
  7 32  1  0
  9 33  1  0
 11 34  1  0
 11 35  1  0
 11 36  1  0
 12 37  1  0
 15 38  1  0
 16 39  1  0
 17 40  1  0
 22 41  1  0
 25 42  1  0
M  END
$$$$
