
     RDKit          3D

 77 82  0  0  0  0  0  0  0  0999 V2000
   -7.5543    3.3749   -2.1008 C   0  0  0  0  0  0  0  0  0  0  0  0
   -6.7408    2.2266   -2.1619 N   0  0  0  0  0  0  0  0  0  0  0  0
   -6.8406    1.3599   -3.2595 C   0  0  0  0  0  0  0  0  0  0  0  0
   -5.5268    0.7266   -3.6788 C   0  0  0  0  0  0  0  0  0  0  0  0
   -4.7299    0.3525   -2.5524 N   0  0  0  0  0  0  0  0  0  0  0  0
   -4.1313   -0.9182   -2.4872 C   0  0  0  0  0  0  0  0  0  0  0  0
   -4.2851   -1.7532   -3.4399 O   0  0  0  0  0  0  0  0  0  0  0  0
   -3.3086   -1.3534   -1.3415 C   0  0  0  0  0  0  0  0  0  0  0  0
   -1.9583   -1.5848   -1.4376 C   0  0  0  0  0  0  0  0  0  0  0  0
   -1.2075   -1.9924   -0.3243 C   0  0  0  0  0  0  0  0  0  0  0  0
   -1.8067   -2.1715    0.8970 C   0  0  0  0  0  0  0  0  0  0  0  0
   -3.1780   -1.9425    1.0176 C   0  0  0  0  0  0  0  0  0  0  0  0
   -3.8853   -1.5420   -0.1008 C   0  0  0  0  0  0  0  0  0  0  0  0
   -3.5037   -2.1762    2.2943 N   0  0  0  0  0  0  0  0  0  0  0  0
   -2.4318   -2.5420    3.0127 C   0  0  0  0  0  0  0  0  0  0  0  0
   -2.2696   -2.8629    4.3347 C   0  0  0  0  0  0  0  0  0  0  0  0
   -3.3985   -2.9285    5.2876 C   0  0  0  0  0  0  0  0  0  0  0  0
   -4.7385   -2.8853    4.8051 N   0  0  0  0  0  0  0  0  0  0  0  0
   -3.2109   -3.0266    6.5187 O   0  0  0  0  0  0  0  0  0  0  0  0
   -0.9972   -3.1908    4.7952 C   0  0  0  0  0  0  0  0  0  0  0  0
    0.0728   -3.1949    3.9434 C   0  0  0  0  0  0  0  0  0  0  0  0
   -0.0615   -2.8748    2.5936 C   0  0  0  0  0  0  0  0  0  0  0  0
    1.0645   -2.8990    1.6941 C   0  0  0  0  0  0  0  0  0  0  0  0
    1.3223   -4.0897    1.0307 C   0  0  0  0  0  0  0  0  0  0  0  0
    2.3870   -4.2003    0.1549 C   0  0  0  0  0  0  0  0  0  0  0  0
    3.2136   -3.0805   -0.0572 C   0  0  0  0  0  0  0  0  0  0  0  0
    2.9908   -1.8918    0.5780 C   0  0  0  0  0  0  0  0  0  0  0  0
    3.7792   -0.7235    0.3877 N   0  0  0  0  0  0  0  0  0  0  0  0
    4.8273   -0.5381   -0.5162 C   0  0  0  0  0  0  0  0  0  0  0  0
    5.1526   -1.4721   -1.2784 O   0  0  0  0  0  0  0  0  0  0  0  0
    5.5971    0.7275   -0.6359 C   0  0  0  0  0  0  0  0  0  0  0  0
    5.4477    1.7896    0.2019 C   0  0  0  0  0  0  0  0  0  0  0  0
    6.2000    2.9400    0.0032 C   0  0  0  0  0  0  0  0  0  0  0  0
    7.1030    3.0689   -1.0070 C   0  0  0  0  0  0  0  0  0  0  0  0
    7.8736    4.2294   -1.2227 N   0  0  0  0  0  0  0  0  0  0  0  0
    7.8079    5.4067   -0.4129 C   0  0  0  0  0  0  0  0  0  0  0  0
    8.8081    4.2632   -2.3465 C   0  0  0  0  0  0  0  0  0  0  0  0
    7.2702    1.9770   -1.8840 C   0  0  0  0  0  0  0  0  0  0  0  0
    6.5076    0.8529   -1.6570 C   0  0  0  0  0  0  0  0  0  0  0  0
    1.9001   -1.8518    1.4468 C   0  0  0  0  0  0  0  0  0  0  0  0
    1.6524   -0.6977    2.0898 F   0  0  0  0  0  0  0  0  0  0  0  0
   -1.3155   -2.5489    2.1343 C   0  0  0  0  0  0  0  0  0  0  0  0
   -4.5648    1.3070   -1.5002 C   0  0  0  0  0  0  0  0  0  0  0  0
   -5.8895    1.9256   -1.0857 C   0  0  0  0  0  0  0  0  0  0  0  0
   -7.1480    4.2235   -2.6939 H   0  0  0  0  0  0  0  0  0  0  0  0
   -8.5922    3.1114   -2.4012 H   0  0  0  0  0  0  0  0  0  0  0  0
   -7.6387    3.7012   -1.0218 H   0  0  0  0  0  0  0  0  0  0  0  0
   -7.2736    1.9038   -4.1355 H   0  0  0  0  0  0  0  0  0  0  0  0
   -7.5874    0.5463   -3.0176 H   0  0  0  0  0  0  0  0  0  0  0  0
   -5.7740   -0.1578   -4.2967 H   0  0  0  0  0  0  0  0  0  0  0  0
   -4.9985    1.4840   -4.3081 H   0  0  0  0  0  0  0  0  0  0  0  0
   -1.4788   -1.4483   -2.3978 H   0  0  0  0  0  0  0  0  0  0  0  0
   -0.1725   -2.1602   -0.4391 H   0  0  0  0  0  0  0  0  0  0  0  0
   -4.9480   -1.3644   -0.0055 H   0  0  0  0  0  0  0  0  0  0  0  0
   -4.4765   -2.0768    2.6809 H   0  0  0  0  0  0  0  0  0  0  0  0
   -5.4080   -2.1198    4.9295 H   0  0  0  0  0  0  0  0  0  0  0  0
   -5.0780   -3.7436    4.2596 H   0  0  0  0  0  0  0  0  0  0  0  0
   -0.8486   -3.4439    5.8309 H   0  0  0  0  0  0  0  0  0  0  0  0
    1.0938   -3.4435    4.2439 H   0  0  0  0  0  0  0  0  0  0  0  0
    0.7165   -4.9553    1.1702 H   0  0  0  0  0  0  0  0  0  0  0  0
    2.6074   -5.1215   -0.3723 H   0  0  0  0  0  0  0  0  0  0  0  0
    4.0435   -3.1984   -0.7448 H   0  0  0  0  0  0  0  0  0  0  0  0
    3.5516    0.1149    1.0072 H   0  0  0  0  0  0  0  0  0  0  0  0
    4.7366    1.7163    1.0201 H   0  0  0  0  0  0  0  0  0  0  0  0
    6.0086    3.7289    0.7219 H   0  0  0  0  0  0  0  0  0  0  0  0
    7.3763    6.2173   -1.0729 H   0  0  0  0  0  0  0  0  0  0  0  0
    8.8197    5.7844   -0.1233 H   0  0  0  0  0  0  0  0  0  0  0  0
    7.2334    5.2702    0.4992 H   0  0  0  0  0  0  0  0  0  0  0  0
    8.2565    4.0061   -3.2773 H   0  0  0  0  0  0  0  0  0  0  0  0
    9.3124    5.2433   -2.4499 H   0  0  0  0  0  0  0  0  0  0  0  0
    9.5693    3.4465   -2.2028 H   0  0  0  0  0  0  0  0  0  0  0  0
    7.9806    2.0503   -2.6965 H   0  0  0  0  0  0  0  0  0  0  0  0
    6.6677    0.0276   -2.3598 H   0  0  0  0  0  0  0  0  0  0  0  0
   -3.8323    2.0988   -1.7861 H   0  0  0  0  0  0  0  0  0  0  0  0
   -4.1378    0.8135   -0.6169 H   0  0  0  0  0  0  0  0  0  0  0  0
   -5.6385    2.8668   -0.5449 H   0  0  0  0  0  0  0  0  0  0  0  0
   -6.3852    1.2830   -0.2998 H   0  0  0  0  0  0  0  0  0  0  0  0
  1  2  1  0
  2  3  1  0
  3  4  1  0
  4  5  1  0
  5  6  1  0
  6  7  2  0
  6  8  1  0
  8  9  2  0
  9 10  1  0
 10 11  2  0
 11 12  1  0
 12 13  2  0
 12 14  1  0
 14 15  1  0
 15 16  2  0
 16 17  1  0
 17 18  1  0
 17 19  2  0
 16 20  1  0
 20 21  2  0
 21 22  1  0
 22 23  1  0
 23 24  2  0
 24 25  1  0
 25 26  2  0
 26 27  1  0
 27 28  1  0
 28 29  1  0
 29 30  2  0
 29 31  1  0
 31 32  2  0
 32 33  1  0
 33 34  2  0
 34 35  1  0
 35 36  1  0
 35 37  1  0
 34 38  1  0
 38 39  2  0
 27 40  2  0
 40 41  1  0
 22 42  2  0
  5 43  1  0
 43 44  1  0
 44  2  1  0
 13  8  1  0
 42 15  1  0
 42 11  1  0
 40 23  1  0
 39 31  1  0
  1 45  1  0
  1 46  1  0
  1 47  1  0
  3 48  1  0
  3 49  1  0
  4 50  1  0
  4 51  1  0
  9 52  1  0
 10 53  1  0
 13 54  1  0
 14 55  1  0
 18 56  1  0
 18 57  1  0
 20 58  1  0
 21 59  1  0
 24 60  1  0
 25 61  1  0
 26 62  1  0
 28 63  1  0
 32 64  1  0
 33 65  1  0
 36 66  1  0
 36 67  1  0
 36 68  1  0
 37 69  1  0
 37 70  1  0
 37 71  1  0
 38 72  1  0
 39 73  1  0
 43 74  1  0
 43 75  1  0
 44 76  1  0
 44 77  1  0
M  END
$$$$
