
     RDKit          3D

 81 84  0  0  0  0  0  0  0  0999 V2000
   -0.8771    5.9932   -1.5962 C   0  0  0  0  0  0  0  0  0  0  0  0
   -1.5118    4.7111   -1.1500 C   0  0  0  0  0  0  0  0  0  0  0  0
   -1.0347    3.6087   -1.8975 O   0  0  0  0  0  0  0  0  0  0  0  0
   -1.5325    2.3644   -1.5903 C   0  0  0  0  0  0  0  0  0  0  0  0
   -2.4656    2.1425   -0.6033 C   0  0  0  0  0  0  0  0  0  0  0  0
   -2.9429    0.8862   -0.3198 C   0  0  0  0  0  0  0  0  0  0  0  0
   -2.4560   -0.1813   -1.0616 C   0  0  0  0  0  0  0  0  0  0  0  0
   -3.0053   -1.5106   -0.8146 C   0  0  0  0  0  0  0  0  0  0  0  0
   -2.5786   -2.2356    0.3994 C   0  0  1  0  0  0  0  0  0  0  0  0
   -3.2782   -3.5518    0.4224 N   0  0  0  0  0  0  0  0  0  0  0  0
   -4.2361   -3.8879    1.3874 C   0  0  0  0  0  0  0  0  0  0  0  0
   -4.4765   -2.9845    2.2611 O   0  0  0  0  0  0  0  0  0  0  0  0
   -4.9424   -5.1488    1.4509 C   0  0  0  0  0  0  0  0  0  0  0  0
   -5.8574   -5.3583    2.4580 C   0  0  0  0  0  0  0  0  0  0  0  0
   -6.5658   -6.5484    2.5661 C   0  0  0  0  0  0  0  0  0  0  0  0
   -6.3525   -7.5431    1.6491 C   0  0  0  0  0  0  0  0  0  0  0  0
   -5.4361   -7.3302    0.6425 C   0  0  0  0  0  0  0  0  0  0  0  0
   -4.7290   -6.1343    0.5400 C   0  0  0  0  0  0  0  0  0  0  0  0
   -1.1416   -2.4452    0.5437 C   0  0  0  0  0  0  0  0  0  0  0  0
   -0.6838   -3.6594    0.7017 O   0  0  0  0  0  0  0  0  0  0  0  0
   -0.1007   -1.5001    0.5512 N   0  0  0  0  0  0  0  0  0  0  0  0
    1.2638   -1.8217    0.7485 C   0  0  1  0  0  0  0  0  0  0  0  0
    2.1367   -2.1406   -0.3886 C   0  0  0  0  0  0  0  0  0  0  0  0
    2.3475   -1.1790   -1.4496 C   0  0  0  0  0  0  0  0  0  0  0  0
    3.3263   -0.1971   -1.3097 C   0  0  0  0  0  0  0  0  0  0  0  0
    3.5698    0.7037   -2.3395 C   0  0  0  0  0  0  0  0  0  0  0  0
    2.8353    0.6193   -3.5021 C   0  0  0  0  0  0  0  0  0  0  0  0
    1.8538   -0.3668   -3.6382 C   0  0  0  0  0  0  0  0  0  0  0  0
    1.6168   -1.2547   -2.6175 C   0  0  0  0  0  0  0  0  0  0  0  0
    1.9765   -0.8828    1.6533 C   0  0  0  0  0  0  0  0  0  0  0  0
    3.1707   -1.1423    1.9088 O   0  0  0  0  0  0  0  0  0  0  0  0
    1.3865    0.2580    2.2201 N   0  0  0  0  0  0  0  0  0  0  0  0
    2.1260    1.1443    3.0769 C   0  0  0  0  0  0  0  0  0  0  0  0
    3.0176    2.0488    2.3234 C   0  0  0  0  0  0  0  0  0  0  0  0
    4.3421    1.8155    2.0608 C   0  0  0  0  0  0  0  0  0  0  0  0
    5.1183    2.6964    1.3206 C   0  0  0  0  0  0  0  0  0  0  0  0
    4.5906    3.8576    0.8116 C   0  0  0  0  0  0  0  0  0  0  0  0
    5.4367    4.7840    0.0105 C   0  0  0  0  0  0  0  0  0  0  0  0
    6.0930    5.7568    0.8319 N   0  0  0  0  0  0  0  0  0  0  0  0
    3.2609    4.1113    1.0665 C   0  0  0  0  0  0  0  0  0  0  0  0
    2.4909    3.2393    1.7983 C   0  0  0  0  0  0  0  0  0  0  0  0
   -1.5222   -0.0086   -2.0594 C   0  0  0  0  0  0  0  0  0  0  0  0
   -1.0744    1.2689   -2.3078 C   0  0  0  0  0  0  0  0  0  0  0  0
   -1.5340    6.8673   -1.3523 H   0  0  0  0  0  0  0  0  0  0  0  0
    0.0846    6.1943   -1.0632 H   0  0  0  0  0  0  0  0  0  0  0  0
   -0.6379    5.9615   -2.6630 H   0  0  0  0  0  0  0  0  0  0  0  0
   -2.6189    4.7360   -1.2940 H   0  0  0  0  0  0  0  0  0  0  0  0
   -1.3386    4.4822   -0.0696 H   0  0  0  0  0  0  0  0  0  0  0  0
   -2.8567    2.9852   -0.0116 H   0  0  0  0  0  0  0  0  0  0  0  0
   -3.6887    0.7155    0.4724 H   0  0  0  0  0  0  0  0  0  0  0  0
   -2.8918   -2.1462   -1.7358 H   0  0  0  0  0  0  0  0  0  0  0  0
   -4.1369   -1.3593   -0.7690 H   0  0  0  0  0  0  0  0  0  0  0  0
   -3.0064   -1.6788    1.2849 H   0  0  0  0  0  0  0  0  0  0  0  0
   -3.0241   -4.2318   -0.3217 H   0  0  0  0  0  0  0  0  0  0  0  0
   -6.0532   -4.5992    3.1971 H   0  0  0  0  0  0  0  0  0  0  0  0
   -7.2867   -6.7198    3.3554 H   0  0  0  0  0  0  0  0  0  0  0  0
   -6.9067   -8.4772    1.7292 H   0  0  0  0  0  0  0  0  0  0  0  0
   -5.2575   -8.0997   -0.0851 H   0  0  0  0  0  0  0  0  0  0  0  0
   -4.0142   -5.9772   -0.2504 H   0  0  0  0  0  0  0  0  0  0  0  0
   -0.3664   -0.5045    0.4175 H   0  0  0  0  0  0  0  0  0  0  0  0
    1.2301   -2.8172    1.3445 H   0  0  0  0  0  0  0  0  0  0  0  0
    3.1692   -2.3153    0.0665 H   0  0  0  0  0  0  0  0  0  0  0  0
    1.9281   -3.1889   -0.7993 H   0  0  0  0  0  0  0  0  0  0  0  0
    3.9383   -0.0709   -0.4384 H   0  0  0  0  0  0  0  0  0  0  0  0
    4.3254    1.4838   -2.2660 H   0  0  0  0  0  0  0  0  0  0  0  0
    3.0453    1.3306   -4.2910 H   0  0  0  0  0  0  0  0  0  0  0  0
    1.2859   -0.4301   -4.5369 H   0  0  0  0  0  0  0  0  0  0  0  0
    0.8780   -2.0263   -2.6873 H   0  0  0  0  0  0  0  0  0  0  0  0
    0.3909    0.4877    2.0296 H   0  0  0  0  0  0  0  0  0  0  0  0
    1.4324    1.8086    3.6721 H   0  0  0  0  0  0  0  0  0  0  0  0
    2.7241    0.6184    3.8507 H   0  0  0  0  0  0  0  0  0  0  0  0
    4.8002    0.9107    2.4540 H   0  0  0  0  0  0  0  0  0  0  0  0
    6.1649    2.4788    1.1302 H   0  0  0  0  0  0  0  0  0  0  0  0
    4.8279    5.3078   -0.7490 H   0  0  0  0  0  0  0  0  0  0  0  0
    6.2090    4.2164   -0.5483 H   0  0  0  0  0  0  0  0  0  0  0  0
    7.0311    5.4115    1.1934 H   0  0  0  0  0  0  0  0  0  0  0  0
    6.2510    6.6682    0.3342 H   0  0  0  0  0  0  0  0  0  0  0  0
    2.8421    5.0238    0.6683 H   0  0  0  0  0  0  0  0  0  0  0  0
    1.4425    3.4578    1.9878 H   0  0  0  0  0  0  0  0  0  0  0  0
   -1.1999   -0.8842   -2.5989 H   0  0  0  0  0  0  0  0  0  0  0  0
   -0.3408    1.3836   -3.1048 H   0  0  0  0  0  0  0  0  0  0  0  0
  1  2  1  0
  2  3  1  0
  3  4  1  0
  4  5  2  0
  5  6  1  0
  6  7  2  0
  7  8  1  0
  8  9  1  0
  9 10  1  0
 10 11  1  0
 11 12  2  0
 11 13  1  0
 13 14  2  0
 14 15  1  0
 15 16  2  0
 16 17  1  0
 17 18  2  0
  9 19  1  0
 19 20  2  0
 19 21  1  0
 21 22  1  0
 22 23  1  0
 23 24  1  0
 24 25  2  0
 25 26  1  0
 26 27  2  0
 27 28  1  0
 28 29  2  0
 22 30  1  0
 30 31  2  0
 30 32  1  0
 32 33  1  0
 33 34  1  0
 34 35  2  0
 35 36  1  0
 36 37  2  0
 37 38  1  0
 38 39  1  0
 37 40  1  0
 40 41  2  0
  7 42  1  0
 42 43  2  0
 43  4  1  0
 18 13  1  0
 29 24  1  0
 41 34  1  0
  1 44  1  0
  1 45  1  0
  1 46  1  0
  2 47  1  0
  2 48  1  0
  5 49  1  0
  6 50  1  0
  8 51  1  0
  8 52  1  0
  9 53  1  1
 10 54  1  0
 14 55  1  0
 15 56  1  0
 16 57  1  0
 17 58  1  0
 18 59  1  0
 21 60  1  0
 22 61  1  1
 23 62  1  0
 23 63  1  0
 25 64  1  0
 26 65  1  0
 27 66  1  0
 28 67  1  0
 29 68  1  0
 32 69  1  0
 33 70  1  0
 33 71  1  0
 35 72  1  0
 36 73  1  0
 38 74  1  0
 38 75  1  0
 39 76  1  0
 39 77  1  0
 40 78  1  0
 41 79  1  0
 42 80  1  0
 43 81  1  0
M  END
$$$$
