
     RDKit          3D

 39 40  0  0  0  0  0  0  0  0999 V2000
   -2.4293    2.5055    2.3977 C   0  0  0  0  0  0  0  0  0  0  0  0
   -2.8619    1.3422    1.7014 O   0  0  0  0  0  0  0  0  0  0  0  0
   -2.1524    0.7848    0.6672 C   0  0  0  0  0  0  0  0  0  0  0  0
   -0.9413    1.3466    0.2379 C   0  0  0  0  0  0  0  0  0  0  0  0
   -0.2359    0.7832   -0.7980 C   0  0  0  0  0  0  0  0  0  0  0  0
    1.0263    1.3446   -1.2547 C   0  0  0  0  0  0  0  0  0  0  0  0
    2.2407    0.7171   -0.7348 C   0  0  0  0  0  0  0  0  0  0  0  0
    2.9452   -0.1524   -1.5656 C   0  0  0  0  0  0  0  0  0  0  0  0
    4.0618   -0.7434   -1.1042 N   0  0  0  0  0  0  0  0  0  0  0  0
    4.5524   -0.5462    0.1305 C   0  0  0  0  0  0  0  0  0  0  0  0
    5.7438   -1.1917    0.5890 N   0  0  0  0  0  0  0  0  0  0  0  0
    3.8784    0.2907    0.9366 N   0  0  0  0  0  0  0  0  0  0  0  0
    2.7416    0.9181    0.5246 C   0  0  0  0  0  0  0  0  0  0  0  0
    2.0385    1.8064    1.3858 N   0  0  0  0  0  0  0  0  0  0  0  0
   -0.7622   -0.3471   -1.3939 C   0  0  0  0  0  0  0  0  0  0  0  0
   -1.9468   -0.9319   -1.0055 C   0  0  0  0  0  0  0  0  0  0  0  0
   -2.4619   -2.0741   -1.6204 O   0  0  0  0  0  0  0  0  0  0  0  0
   -1.7083   -2.6270   -2.6843 C   0  0  0  0  0  0  0  0  0  0  0  0
   -2.6292   -0.3388    0.0395 C   0  0  0  0  0  0  0  0  0  0  0  0
   -3.8175   -0.8931    0.4581 O   0  0  0  0  0  0  0  0  0  0  0  0
   -3.8563   -1.8878    1.4725 C   0  0  0  0  0  0  0  0  0  0  0  0
   -3.1804    2.8388    3.1304 H   0  0  0  0  0  0  0  0  0  0  0  0
   -1.4692    2.3495    2.9229 H   0  0  0  0  0  0  0  0  0  0  0  0
   -2.3499    3.3053    1.6147 H   0  0  0  0  0  0  0  0  0  0  0  0
   -0.6142    2.2372    0.7650 H   0  0  0  0  0  0  0  0  0  0  0  0
    1.0818    2.4326   -0.9502 H   0  0  0  0  0  0  0  0  0  0  0  0
    1.0942    1.3921   -2.3820 H   0  0  0  0  0  0  0  0  0  0  0  0
    2.5637   -0.3241   -2.5670 H   0  0  0  0  0  0  0  0  0  0  0  0
    6.6718   -0.7182    0.6275 H   0  0  0  0  0  0  0  0  0  0  0  0
    5.7334   -2.1949    0.9145 H   0  0  0  0  0  0  0  0  0  0  0  0
    2.1689    2.8233    1.3997 H   0  0  0  0  0  0  0  0  0  0  0  0
    1.3444    1.3435    2.0392 H   0  0  0  0  0  0  0  0  0  0  0  0
   -0.2021   -0.7801   -2.2041 H   0  0  0  0  0  0  0  0  0  0  0  0
   -0.8047   -3.1044   -2.2567 H   0  0  0  0  0  0  0  0  0  0  0  0
   -1.4305   -1.8794   -3.4363 H   0  0  0  0  0  0  0  0  0  0  0  0
   -2.3647   -3.3713   -3.2020 H   0  0  0  0  0  0  0  0  0  0  0  0
   -3.1675   -1.6415    2.3199 H   0  0  0  0  0  0  0  0  0  0  0  0
   -4.9244   -1.9254    1.8225 H   0  0  0  0  0  0  0  0  0  0  0  0
   -3.5762   -2.8892    1.0627 H   0  0  0  0  0  0  0  0  0  0  0  0
  1  2  1  0
  2  3  1  0
  3  4  2  0
  4  5  1  0
  5  6  1  0
  6  7  1  0
  7  8  2  0
  8  9  1  0
  9 10  2  0
 10 11  1  0
 10 12  1  0
 12 13  2  0
 13 14  1  0
  5 15  2  0
 15 16  1  0
 16 17  1  0
 17 18  1  0
 16 19  2  0
 19 20  1  0
 20 21  1  0
 19  3  1  0
 13  7  1  0
  1 22  1  0
  1 23  1  0
  1 24  1  0
  4 25  1  0
  6 26  1  0
  6 27  1  0
  8 28  1  0
 11 29  1  0
 11 30  1  0
 14 31  1  0
 14 32  1  0
 15 33  1  0
 18 34  1  0
 18 35  1  0
 18 36  1  0
 21 37  1  0
 21 38  1  0
 21 39  1  0
M  END
$$$$
