
     RDKit          3D

 97 98  0  0  0  0  0  0  0  0999 V2000
   -1.1449    7.1888    0.8154 C   0  0  0  0  0  0  0  0  0  0  0  0
   -2.1995    7.6354   -0.1323 C   0  0  0  0  0  0  0  0  0  0  0  0
   -3.3076    6.7773   -0.2079 O   0  0  0  0  0  0  0  0  0  0  0  0
   -3.1407    5.4568   -0.6004 C   0  0  0  0  0  0  0  0  0  0  0  0
   -1.9551    5.1018   -0.8724 O   0  0  0  0  0  0  0  0  0  0  0  0
   -4.2522    4.5258   -0.6980 C   0  0  0  0  0  0  0  0  0  0  0  0
   -3.9737    3.2665   -1.0880 C   0  0  0  0  0  0  0  0  0  0  0  0
   -5.0928    2.3472   -1.1823 C   0  0  0  0  0  0  0  0  0  0  0  0
   -5.1580    1.1366   -0.3535 C   0  0  0  0  0  0  0  0  0  0  0  0
   -4.2100    0.0014   -0.4859 C   0  0  2  0  0  0  0  0  0  0  0  0
   -4.6883   -0.9712    0.5350 N   0  0  0  0  0  0  0  0  0  0  0  0
   -5.2124   -2.2071    0.0549 C   0  0  0  0  0  0  0  0  0  0  0  0
   -5.2569   -2.4273   -1.1714 O   0  0  0  0  0  0  0  0  0  0  0  0
   -5.6785   -3.1794    0.9098 O   0  0  0  0  0  0  0  0  0  0  0  0
   -6.2169   -4.4152    0.5653 C   0  0  0  0  0  0  0  0  0  0  0  0
   -5.2447   -5.2135   -0.1978 C   0  0  0  0  0  0  0  0  0  0  0  0
   -4.2854   -5.9257    0.4922 C   0  0  0  0  0  0  0  0  0  0  0  0
   -3.3740   -6.7074   -0.1779 C   0  0  0  0  0  0  0  0  0  0  0  0
   -3.3967   -6.7980   -1.5547 C   0  0  0  0  0  0  0  0  0  0  0  0
   -4.3377   -6.1009   -2.2464 C   0  0  0  0  0  0  0  0  0  0  0  0
   -5.2508   -5.3180   -1.5717 C   0  0  0  0  0  0  0  0  0  0  0  0
   -2.7871    0.2059   -0.2892 C   0  0  0  0  0  0  0  0  0  0  0  0
   -2.0808    0.7645   -1.1574 O   0  0  0  0  0  0  0  0  0  0  0  0
   -2.1215   -0.2304    0.9278 N   0  0  0  0  0  0  0  0  0  0  0  0
   -0.6709    0.0087    1.0633 C   0  0  2  0  0  0  0  0  0  0  0  0
   -0.0460   -1.3156    1.3220 C   0  0  0  0  0  0  0  0  0  0  0  0
   -0.8782   -2.2780    1.5527 O   0  0  0  0  0  0  0  0  0  0  0  0
    1.3332   -1.5861    1.3320 N   0  0  0  0  0  0  0  0  0  0  0  0
    1.9133   -2.8667    1.6331 C   0  0  0  0  0  0  0  0  0  0  0  0
    3.2980   -2.5239    2.1756 C   0  0  0  0  0  0  0  0  0  0  0  0
    3.3616   -1.0109    2.1911 C   0  0  0  0  0  0  0  0  0  0  0  0
    2.4029   -0.7036    1.0309 C   0  0  1  0  0  0  0  0  0  0  0  0
    3.1546   -1.0880   -0.2084 C   0  0  0  0  0  0  0  0  0  0  0  0
    2.7470   -2.0453   -0.9003 O   0  0  0  0  0  0  0  0  0  0  0  0
    4.3048   -0.3857   -0.5936 N   0  0  0  0  0  0  0  0  0  0  0  0
    5.0912   -0.7018   -1.7914 C   0  0  1  0  0  0  0  0  0  0  0  0
    5.1164    0.5146   -2.6596 C   0  0  0  0  0  0  0  0  0  0  0  0
    5.6822    1.7581   -2.0718 C   0  0  0  0  0  0  0  0  0  0  0  0
    7.1022    1.7327   -1.6361 C   0  0  0  0  0  0  0  0  0  0  0  0
    5.5832    2.8566   -3.1494 C   0  0  0  0  0  0  0  0  0  0  0  0
    6.4393   -1.1167   -1.3823 C   0  0  0  0  0  0  0  0  0  0  0  0
    7.3415   -1.4433   -2.2157 O   0  0  0  0  0  0  0  0  0  0  0  0
    6.8537   -1.1934   -0.0368 O   0  0  0  0  0  0  0  0  0  0  0  0
    8.1502   -1.5958    0.3362 C   0  0  0  0  0  0  0  0  0  0  0  0
   -0.4642    0.8670    2.3151 C   0  0  0  0  0  0  0  0  0  0  0  0
   -1.2485    2.1595    2.0588 C   0  0  0  0  0  0  0  0  0  0  0  0
   -0.9522    0.1750    3.5517 C   0  0  0  0  0  0  0  0  0  0  0  0
   -0.9382    8.0043    1.5359 H   0  0  0  0  0  0  0  0  0  0  0  0
   -0.1716    6.9619    0.3228 H   0  0  0  0  0  0  0  0  0  0  0  0
   -1.4809    6.3143    1.4452 H   0  0  0  0  0  0  0  0  0  0  0  0
   -1.7320    7.6343   -1.1618 H   0  0  0  0  0  0  0  0  0  0  0  0
   -2.4713    8.6803    0.0761 H   0  0  0  0  0  0  0  0  0  0  0  0
   -5.2515    4.8279   -0.4696 H   0  0  0  0  0  0  0  0  0  0  0  0
   -2.9717    3.0164   -1.3237 H   0  0  0  0  0  0  0  0  0  0  0  0
   -5.1348    2.0257   -2.2998 H   0  0  0  0  0  0  0  0  0  0  0  0
   -6.0584    2.9473   -1.1158 H   0  0  0  0  0  0  0  0  0  0  0  0
   -5.2187    1.4656    0.7453 H   0  0  0  0  0  0  0  0  0  0  0  0
   -6.2402    0.7347   -0.4761 H   0  0  0  0  0  0  0  0  0  0  0  0
   -4.3775   -0.4767   -1.4739 H   0  0  0  0  0  0  0  0  0  0  0  0
   -4.6691   -0.7996    1.5367 H   0  0  0  0  0  0  0  0  0  0  0  0
   -6.5624   -4.9884    1.4599 H   0  0  0  0  0  0  0  0  0  0  0  0
   -7.1339   -4.3100   -0.0667 H   0  0  0  0  0  0  0  0  0  0  0  0
   -4.2870   -5.8386    1.5773 H   0  0  0  0  0  0  0  0  0  0  0  0
   -2.6416   -7.2454    0.4244 H   0  0  0  0  0  0  0  0  0  0  0  0
   -2.6486   -7.4318   -2.0168 H   0  0  0  0  0  0  0  0  0  0  0  0
   -4.3656   -6.1655   -3.3385 H   0  0  0  0  0  0  0  0  0  0  0  0
   -5.9918   -4.7914   -2.1623 H   0  0  0  0  0  0  0  0  0  0  0  0
   -2.6916   -0.6930    1.6507 H   0  0  0  0  0  0  0  0  0  0  0  0
   -0.3044    0.5106    0.1730 H   0  0  0  0  0  0  0  0  0  0  0  0
    1.3252   -3.4236    2.4026 H   0  0  0  0  0  0  0  0  0  0  0  0
    2.0218   -3.5117    0.7257 H   0  0  0  0  0  0  0  0  0  0  0  0
    4.0854   -2.8791    1.4790 H   0  0  0  0  0  0  0  0  0  0  0  0
    3.4266   -2.9340    3.2002 H   0  0  0  0  0  0  0  0  0  0  0  0
    2.8670   -0.5793    3.0897 H   0  0  0  0  0  0  0  0  0  0  0  0
    4.3646   -0.6063    2.0173 H   0  0  0  0  0  0  0  0  0  0  0  0
    2.1567    0.3766    1.0072 H   0  0  0  0  0  0  0  0  0  0  0  0
    4.6754    0.4273   -0.0284 H   0  0  0  0  0  0  0  0  0  0  0  0
    4.5652   -1.5554   -2.3335 H   0  0  0  0  0  0  0  0  0  0  0  0
    4.0308    0.7342   -2.9070 H   0  0  0  0  0  0  0  0  0  0  0  0
    5.6691    0.3241   -3.6184 H   0  0  0  0  0  0  0  0  0  0  0  0
    5.0010    2.1501   -1.2485 H   0  0  0  0  0  0  0  0  0  0  0  0
    7.2862    1.3847   -0.6044 H   0  0  0  0  0  0  0  0  0  0  0  0
    7.7734    1.1969   -2.3327 H   0  0  0  0  0  0  0  0  0  0  0  0
    7.5160    2.7853   -1.6373 H   0  0  0  0  0  0  0  0  0  0  0  0
    6.4041    2.6489   -3.8615 H   0  0  0  0  0  0  0  0  0  0  0  0
    4.5805    2.7579   -3.5914 H   0  0  0  0  0  0  0  0  0  0  0  0
    5.7633    3.8222   -2.6649 H   0  0  0  0  0  0  0  0  0  0  0  0
    8.0971   -2.4586    1.0445 H   0  0  0  0  0  0  0  0  0  0  0  0
    8.6565   -1.9938   -0.5885 H   0  0  0  0  0  0  0  0  0  0  0  0
    8.7495   -0.8175    0.8173 H   0  0  0  0  0  0  0  0  0  0  0  0
    0.5758    1.1611    2.4820 H   0  0  0  0  0  0  0  0  0  0  0  0
   -2.2146    1.9009    1.6255 H   0  0  0  0  0  0  0  0  0  0  0  0
   -0.6478    2.8651    1.4496 H   0  0  0  0  0  0  0  0  0  0  0  0
   -1.4402    2.7045    3.0206 H   0  0  0  0  0  0  0  0  0  0  0  0
   -1.7998    0.7337    4.0397 H   0  0  0  0  0  0  0  0  0  0  0  0
   -0.1602    0.1529    4.3561 H   0  0  0  0  0  0  0  0  0  0  0  0
   -1.2349   -0.8811    3.3871 H   0  0  0  0  0  0  0  0  0  0  0  0
  1  2  1  0
  2  3  1  0
  3  4  1  0
  4  5  2  0
  4  6  1  0
  6  7  2  0
  7  8  1  0
  8  9  1  0
  9 10  1  0
 10 11  1  0
 11 12  1  0
 12 13  2  0
 12 14  1  0
 14 15  1  0
 15 16  1  0
 16 17  2  0
 17 18  1  0
 18 19  2  0
 19 20  1  0
 20 21  2  0
 10 22  1  0
 22 23  2  0
 22 24  1  0
 24 25  1  0
 25 26  1  0
 26 27  2  0
 26 28  1  0
 28 29  1  0
 29 30  1  0
 30 31  1  0
 31 32  1  0
 32 33  1  0
 33 34  2  0
 33 35  1  0
 35 36  1  0
 36 37  1  0
 37 38  1  0
 38 39  1  0
 38 40  1  0
 36 41  1  0
 41 42  2  0
 41 43  1  0
 43 44  1  0
 25 45  1  0
 45 46  1  0
 45 47  1  0
 21 16  1  0
 32 28  1  0
  1 48  1  0
  1 49  1  0
  1 50  1  0
  2 51  1  0
  2 52  1  0
  6 53  1  0
  7 54  1  0
  8 55  1  0
  8 56  1  0
  9 57  1  0
  9 58  1  0
 10 59  1  6
 11 60  1  0
 15 61  1  0
 15 62  1  0
 17 63  1  0
 18 64  1  0
 19 65  1  0
 20 66  1  0
 21 67  1  0
 24 68  1  0
 25 69  1  6
 29 70  1  0
 29 71  1  0
 30 72  1  0
 30 73  1  0
 31 74  1  0
 31 75  1  0
 32 76  1  6
 35 77  1  0
 36 78  1  6
 37 79  1  0
 37 80  1  0
 38 81  1  0
 39 82  1  0
 39 83  1  0
 39 84  1  0
 40 85  1  0
 40 86  1  0
 40 87  1  0
 44 88  1  0
 44 89  1  0
 44 90  1  0
 45 91  1  0
 46 92  1  0
 46 93  1  0
 46 94  1  0
 47 95  1  0
 47 96  1  0
 47 97  1  0
M  END
$$$$
