
     RDKit          3D

 36 37  0  0  0  0  0  0  0  0999 V2000
   -4.6805    1.1488    1.0998 C   0  0  0  0  0  0  0  0  0  0  0  0
   -3.5512    0.5522    0.3075 C   0  0  0  0  0  0  0  0  0  0  0  0
   -2.8433    1.6748   -0.4444 C   0  0  0  0  0  0  0  0  0  0  0  0
   -4.1150   -0.3954   -0.7053 C   0  0  0  0  0  0  0  0  0  0  0  0
   -2.5536   -0.0630    1.1703 N   0  0  0  0  0  0  0  0  0  0  0  0
   -1.3652   -0.7205    0.7958 C   0  0  0  0  0  0  0  0  0  0  0  0
   -1.0450   -1.9403    0.5096 N   0  0  0  0  0  0  0  0  0  0  0  0
    0.2113   -2.1970    0.1922 C   0  0  0  0  0  0  0  0  0  0  0  0
    0.4047   -3.5973   -0.0991 N   0  0  0  0  0  0  0  0  0  0  0  0
    1.2436   -1.1845    0.1490 C   0  0  0  0  0  0  0  0  0  0  0  0
    0.1687    0.2882    0.6434 S   0  0  0  0  0  0  0  0  0  0  0  0
    2.6187   -1.3716   -0.1860 C   0  0  0  0  0  0  0  0  0  0  0  0
    2.8820   -2.5325   -0.4657 O   0  0  0  0  0  0  0  0  0  0  0  0
    3.4781   -0.2172   -0.1529 C   0  0  0  0  0  0  0  0  0  0  0  0
    4.5618   -0.3174   -1.0057 C   0  0  0  0  0  0  0  0  0  0  0  0
    5.4907    0.6897   -1.1011 C   0  0  0  0  0  0  0  0  0  0  0  0
    5.3477    1.8241   -0.3367 C   0  0  0  0  0  0  0  0  0  0  0  0
    4.2792    1.9569    0.5240 C   0  0  0  0  0  0  0  0  0  0  0  0
    3.3690    0.9288    0.5937 C   0  0  0  0  0  0  0  0  0  0  0  0
   -4.3221    1.8103    1.9234 H   0  0  0  0  0  0  0  0  0  0  0  0
   -5.3239    1.7120    0.3899 H   0  0  0  0  0  0  0  0  0  0  0  0
   -5.3276    0.3188    1.5062 H   0  0  0  0  0  0  0  0  0  0  0  0
   -2.9898    2.6299    0.1250 H   0  0  0  0  0  0  0  0  0  0  0  0
   -3.3737    1.7962   -1.4241 H   0  0  0  0  0  0  0  0  0  0  0  0
   -1.7798    1.3987   -0.5703 H   0  0  0  0  0  0  0  0  0  0  0  0
   -4.1119   -1.4637   -0.3780 H   0  0  0  0  0  0  0  0  0  0  0  0
   -3.5927   -0.2963   -1.6918 H   0  0  0  0  0  0  0  0  0  0  0  0
   -5.1657   -0.1145   -0.9036 H   0  0  0  0  0  0  0  0  0  0  0  0
   -2.6869   -0.0435    2.2214 H   0  0  0  0  0  0  0  0  0  0  0  0
    0.1649   -3.8713   -1.0785 H   0  0  0  0  0  0  0  0  0  0  0  0
    0.7597   -4.3081    0.6072 H   0  0  0  0  0  0  0  0  0  0  0  0
    4.7657   -1.1779   -1.6553 H   0  0  0  0  0  0  0  0  0  0  0  0
    6.3499    0.6231   -1.7696 H   0  0  0  0  0  0  0  0  0  0  0  0
    6.0741    2.6443   -0.3925 H   0  0  0  0  0  0  0  0  0  0  0  0
    4.1414    2.8427    1.1395 H   0  0  0  0  0  0  0  0  0  0  0  0
    2.5168    0.9725    1.2492 H   0  0  0  0  0  0  0  0  0  0  0  0
  1  2  1  0
  2  3  1  0
  2  4  1  0
  2  5  1  0
  5  6  1  0
  6  7  2  0
  7  8  1  0
  8  9  1  0
  8 10  2  0
 10 11  1  0
 10 12  1  0
 12 13  2  0
 12 14  1  0
 14 15  2  0
 15 16  1  0
 16 17  2  0
 17 18  1  0
 18 19  2  0
 11  6  1  0
 19 14  1  0
  1 20  1  0
  1 21  1  0
  1 22  1  0
  3 23  1  0
  3 24  1  0
  3 25  1  0
  4 26  1  0
  4 27  1  0
  4 28  1  0
  5 29  1  0
  9 30  1  0
  9 31  1  0
 15 32  1  0
 16 33  1  0
 17 34  1  0
 18 35  1  0
 19 36  1  0
M  END
$$$$
