
     RDKit          3D

 27 27  0  0  0  0  0  0  0  0999 V2000
   -3.8775    1.1280    0.0200 N   0  0  0  0  0  0  0  0  0  0  0  0
   -3.0955    1.7867   -1.0294 C   0  0  0  0  0  0  0  0  0  0  0  0
   -1.6037    1.5827   -0.7704 C   0  0  0  0  0  0  0  0  0  0  0  0
   -1.3034    0.0777   -0.7733 C   0  0  0  0  0  0  0  0  0  0  0  0
    0.0387   -0.1583   -0.5415 N   0  0  0  0  0  0  0  0  0  0  0  0
    1.3836   -0.3948   -0.3092 C   0  0  0  0  0  0  0  0  0  0  0  0
    2.5749   -0.0891   -0.9134 C   0  0  0  0  0  0  0  0  0  0  0  0
    3.7363   -0.5257   -0.3318 C   0  0  0  0  0  0  0  0  0  0  0  0
    3.7516   -1.2483    0.8183 C   0  0  0  0  0  0  0  0  0  0  0  0
    2.6137   -1.5936    1.4799 C   0  0  0  0  0  0  0  0  0  0  0  0
    1.4341   -1.1413    0.8747 C   0  0  0  0  0  0  0  0  0  0  0  0
    0.3544   -1.5926    1.6936 N   0  0  0  0  0  4  0  0  0  0  0  0
   -0.9340   -1.9820    1.8777 O   0  0  0  0  0  1  0  0  0  0  0  0
    0.3262   -1.8142    2.8924 O   0  0  0  0  0  0  0  0  0  0  0  0
   -3.3869    1.2532    0.9251 H   0  0  0  0  0  0  0  0  0  0  0  0
   -3.9619    0.1287   -0.1980 H   0  0  0  0  0  0  0  0  0  0  0  0
   -3.4254    1.3836   -1.9866 H   0  0  0  0  0  0  0  0  0  0  0  0
   -3.3141    2.8667   -0.9380 H   0  0  0  0  0  0  0  0  0  0  0  0
   -1.3375    2.0731    0.1648 H   0  0  0  0  0  0  0  0  0  0  0  0
   -1.0922    1.9879   -1.6677 H   0  0  0  0  0  0  0  0  0  0  0  0
   -1.6810   -0.3031   -1.7543 H   0  0  0  0  0  0  0  0  0  0  0  0
   -2.0055   -0.4274   -0.0498 H   0  0  0  0  0  0  0  0  0  0  0  0
    0.2340    0.3874   -1.4484 H   0  0  0  0  0  0  0  0  0  0  0  0
    2.4439    0.4854   -1.8150 H   0  0  0  0  0  0  0  0  0  0  0  0
    4.5971   -0.2188   -0.9065 H   0  0  0  0  0  0  0  0  0  0  0  0
    4.7585   -1.4916    1.1087 H   0  0  0  0  0  0  0  0  0  0  0  0
    2.7717   -2.1603    2.3679 H   0  0  0  0  0  0  0  0  0  0  0  0
  1  2  1  0
  2  3  1  0
  3  4  1  0
  4  5  1  0
  5  6  1  0
  6  7  2  0
  7  8  1  0
  8  9  2  0
  9 10  1  0
 10 11  2  0
 11 12  1  0
 12 13  1  0
 12 14  2  0
 11  6  1  0
  1 15  1  0
  1 16  1  0
  2 17  1  0
  2 18  1  0
  3 19  1  0
  3 20  1  0
  4 21  1  0
  4 22  1  0
  5 23  1  0
  7 24  1  0
  8 25  1  0
  9 26  1  0
 10 27  1  0
M  CHG  2  12   1  13  -1
M  END
$$$$
