
     RDKit          3D

 37 39  0  0  0  0  0  0  0  0999 V2000
   -3.1989   -2.3477   -0.0780 C   0  0  0  0  0  0  0  0  0  0  0  0
   -1.7579   -2.4498   -0.3985 C   0  0  0  0  0  0  0  0  0  0  0  0
   -1.4182   -3.4575   -1.1090 O   0  0  0  0  0  0  0  0  0  0  0  0
   -0.7947   -1.5071    0.0399 N   0  0  0  0  0  0  0  0  0  0  0  0
    0.5663   -1.5639   -0.2372 N   0  0  0  0  0  0  0  0  0  0  0  0
    1.1811   -0.5567    0.2920 C   0  0  0  0  0  0  0  0  0  0  0  0
    2.6132   -0.2901    0.2071 C   0  0  0  0  0  0  0  0  0  0  0  0
    3.4656   -1.1465   -0.4864 C   0  0  0  0  0  0  0  0  0  0  0  0
    4.8201   -0.9162   -0.5805 C   0  0  0  0  0  0  0  0  0  0  0  0
    5.3398    0.2112    0.0416 C   0  0  0  0  0  0  0  0  0  0  0  0
    6.6951    0.4521   -0.0459 O   0  0  0  0  0  0  0  0  0  0  0  0
    4.5430    1.0902    0.7396 C   0  0  0  0  0  0  0  0  0  0  0  0
    3.1962    0.8084    0.7997 C   0  0  0  0  0  0  0  0  0  0  0  0
    0.2319    0.3244    1.0182 C   0  0  0  0  0  0  0  0  0  0  0  0
   -1.1023   -0.3508    0.8407 C   0  0  0  0  0  0  0  0  0  0  0  0
   -2.1285    0.5147    0.2483 C   0  0  0  0  0  0  0  0  0  0  0  0
   -2.3615    0.6322   -1.0999 C   0  0  0  0  0  0  0  0  0  0  0  0
   -3.3312    1.4518   -1.6344 C   0  0  0  0  0  0  0  0  0  0  0  0
   -4.1046    2.1902   -0.7606 C   0  0  0  0  0  0  0  0  0  0  0  0
   -3.9139    2.1109    0.6002 C   0  0  0  0  0  0  0  0  0  0  0  0
   -2.9297    1.2754    1.0872 C   0  0  0  0  0  0  0  0  0  0  0  0
   -2.7142    1.1994    2.8356 Cl  0  0  0  0  0  0  0  0  0  0  0  0
   -3.8068   -1.9764   -0.9061 H   0  0  0  0  0  0  0  0  0  0  0  0
   -3.5412   -3.3661    0.2030 H   0  0  0  0  0  0  0  0  0  0  0  0
   -3.3334   -1.7302    0.8565 H   0  0  0  0  0  0  0  0  0  0  0  0
    3.0240   -2.0034   -0.9510 H   0  0  0  0  0  0  0  0  0  0  0  0
    5.4607   -1.6034   -1.1293 H   0  0  0  0  0  0  0  0  0  0  0  0
    7.0170    1.4078   -0.0233 H   0  0  0  0  0  0  0  0  0  0  0  0
    5.0180    1.9447    1.1967 H   0  0  0  0  0  0  0  0  0  0  0  0
    2.5682    1.5015    1.3500 H   0  0  0  0  0  0  0  0  0  0  0  0
    0.5202    0.4060    2.0855 H   0  0  0  0  0  0  0  0  0  0  0  0
    0.2726    1.3234    0.5401 H   0  0  0  0  0  0  0  0  0  0  0  0
   -1.4164   -0.7237    1.8436 H   0  0  0  0  0  0  0  0  0  0  0  0
   -1.7522    0.0514   -1.7734 H   0  0  0  0  0  0  0  0  0  0  0  0
   -3.5069    1.5374   -2.6957 H   0  0  0  0  0  0  0  0  0  0  0  0
   -4.8933    2.8615   -1.1226 H   0  0  0  0  0  0  0  0  0  0  0  0
   -4.5273    2.6948    1.2672 H   0  0  0  0  0  0  0  0  0  0  0  0
  1  2  1  0
  2  3  2  0
  2  4  1  0
  4  5  1  0
  5  6  2  0
  6  7  1  0
  7  8  2  0
  8  9  1  0
  9 10  2  0
 10 11  1  0
 10 12  1  0
 12 13  2  0
  6 14  1  0
 14 15  1  0
 15 16  1  0
 16 17  2  0
 17 18  1  0
 18 19  2  0
 19 20  1  0
 20 21  2  0
 21 22  1  0
 15  4  1  0
 21 16  1  0
 13  7  1  0
  1 23  1  0
  1 24  1  0
  1 25  1  0
  8 26  1  0
  9 27  1  0
 11 28  1  0
 12 29  1  0
 13 30  1  0
 14 31  1  0
 14 32  1  0
 15 33  1  0
 17 34  1  0
 18 35  1  0
 19 36  1  0
 20 37  1  0
M  END
$$$$
