
     RDKit          3D

 69 71  0  0  0  0  0  0  0  0999 V2000
   -8.5050    0.3476   -0.5237 C   0  0  0  0  0  0  0  0  0  0  0  0
   -7.8499   -0.1299    0.6897 N   0  0  0  0  0  0  0  0  0  0  0  0
   -8.4486   -1.4063    1.1074 C   0  0  0  0  0  0  0  0  0  0  0  0
   -6.4345   -0.3311    0.3772 C   0  0  0  0  0  0  0  0  0  0  0  0
   -5.7456    0.9777    0.1070 C   0  0  0  0  0  0  0  0  0  0  0  0
   -4.3537    0.7715   -0.2019 N   0  0  0  0  0  0  0  0  0  0  0  0
   -3.3999    0.7960    0.9113 C   0  0  0  0  0  0  0  0  0  0  0  0
   -2.1307    1.5172    0.4874 C   0  0  0  0  0  0  0  0  0  0  0  0
   -1.2102    0.6263   -0.2286 N   0  0  0  0  0  0  0  0  0  0  0  0
    0.0811    0.6152    0.2584 C   0  0  0  0  0  0  0  0  0  0  0  0
    0.3122    1.4338    1.2288 O   0  0  0  0  0  0  0  0  0  0  0  0
    1.2470   -0.1940   -0.1672 C   0  0  0  0  0  0  0  0  0  0  0  0
    1.1603   -1.3907   -0.7815 C   0  0  0  0  0  0  0  0  0  0  0  0
    2.2631   -2.0959   -1.0740 C   0  0  0  0  0  0  0  0  0  0  0  0
    2.4614   -3.4091   -1.7331 C   0  0  0  0  0  0  0  0  0  0  0  0
    2.6107   -3.3202   -3.2178 C   0  0  0  0  0  0  0  0  0  0  0  0
    1.3167   -4.3198   -1.3555 C   0  0  0  0  0  0  0  0  0  0  0  0
    3.7220   -4.0086   -1.1112 C   0  0  0  0  0  0  0  0  0  0  0  0
    3.5588   -1.0402   -0.4560 S   0  0  0  0  0  0  0  0  0  0  0  0
    2.5169    0.2392    0.1316 C   0  0  0  0  0  0  0  0  0  0  0  0
    3.0245    1.4212    0.7509 N   0  0  0  0  0  0  0  0  0  0  0  0
    4.4325    1.5870    0.9617 C   0  0  0  0  0  0  0  0  0  0  0  0
    5.1936    0.6695    0.5939 O   0  0  0  0  0  0  0  0  0  0  0  0
    4.9562    2.7379    1.5612 N   0  0  0  0  0  0  0  0  0  0  0  0
    6.3457    2.9221    1.7827 C   0  0  0  0  0  0  0  0  0  0  0  0
    6.9373    2.5183    2.9556 C   0  0  0  0  0  0  0  0  0  0  0  0
    8.2883    2.6863    3.1885 C   0  0  0  0  0  0  0  0  0  0  0  0
    9.0465    3.2770    2.2050 C   0  0  0  0  0  0  0  0  0  0  0  0
    8.4570    3.6911    1.0102 C   0  0  0  0  0  0  0  0  0  0  0  0
    9.4565    4.4436   -0.2281 Cl  0  0  0  0  0  0  0  0  0  0  0  0
    7.1043    3.5189    0.7862 C   0  0  0  0  0  0  0  0  0  0  0  0
    6.4352    4.0574   -0.7293 Cl  0  0  0  0  0  0  0  0  0  0  0  0
   -1.5653   -0.1324   -1.3854 C   0  0  0  0  0  0  0  0  0  0  0  0
   -2.6358    0.6637   -2.1829 C   0  0  0  0  0  0  0  0  0  0  0  0
   -3.9510    0.5611   -1.5503 C   0  0  0  0  0  0  0  0  0  0  0  0
   -4.8979    0.2333   -2.3065 O   0  0  0  0  0  0  0  0  0  0  0  0
   -7.8975    0.1789   -1.4234 H   0  0  0  0  0  0  0  0  0  0  0  0
   -8.6096    1.4447   -0.4083 H   0  0  0  0  0  0  0  0  0  0  0  0
   -9.4981   -0.1123   -0.6848 H   0  0  0  0  0  0  0  0  0  0  0  0
   -9.3006   -1.1782    1.7716 H   0  0  0  0  0  0  0  0  0  0  0  0
   -7.6559   -2.0042    1.5906 H   0  0  0  0  0  0  0  0  0  0  0  0
   -8.7879   -1.9922    0.2038 H   0  0  0  0  0  0  0  0  0  0  0  0
   -6.3891   -0.9872   -0.5026 H   0  0  0  0  0  0  0  0  0  0  0  0
   -5.9763   -0.7923    1.2838 H   0  0  0  0  0  0  0  0  0  0  0  0
   -5.8711    1.6500    1.0043 H   0  0  0  0  0  0  0  0  0  0  0  0
   -6.2596    1.5150   -0.7179 H   0  0  0  0  0  0  0  0  0  0  0  0
   -3.1400   -0.2289    1.1818 H   0  0  0  0  0  0  0  0  0  0  0  0
   -3.8726    1.3883    1.7057 H   0  0  0  0  0  0  0  0  0  0  0  0
   -1.6637    1.8932    1.4209 H   0  0  0  0  0  0  0  0  0  0  0  0
   -2.4224    2.3283   -0.2002 H   0  0  0  0  0  0  0  0  0  0  0  0
    0.1760   -1.8619   -1.0409 H   0  0  0  0  0  0  0  0  0  0  0  0
    2.1175   -4.2014   -3.7020 H   0  0  0  0  0  0  0  0  0  0  0  0
    3.6840   -3.3737   -3.5229 H   0  0  0  0  0  0  0  0  0  0  0  0
    2.1769   -2.3994   -3.6616 H   0  0  0  0  0  0  0  0  0  0  0  0
    1.1130   -4.1350   -0.2607 H   0  0  0  0  0  0  0  0  0  0  0  0
    0.3971   -3.9928   -1.8888 H   0  0  0  0  0  0  0  0  0  0  0  0
    1.5525   -5.3883   -1.5431 H   0  0  0  0  0  0  0  0  0  0  0  0
    4.6274   -3.6686   -1.6482 H   0  0  0  0  0  0  0  0  0  0  0  0
    3.7836   -3.6692   -0.0566 H   0  0  0  0  0  0  0  0  0  0  0  0
    3.6343   -5.1199   -1.0601 H   0  0  0  0  0  0  0  0  0  0  0  0
    2.3807    2.1584    1.0405 H   0  0  0  0  0  0  0  0  0  0  0  0
    4.2863    3.5001    1.8594 H   0  0  0  0  0  0  0  0  0  0  0  0
    6.3227    2.0584    3.7146 H   0  0  0  0  0  0  0  0  0  0  0  0
    8.7494    2.3685    4.1094 H   0  0  0  0  0  0  0  0  0  0  0  0
   10.1124    3.4235    2.3625 H   0  0  0  0  0  0  0  0  0  0  0  0
   -1.9518   -1.1252   -1.1764 H   0  0  0  0  0  0  0  0  0  0  0  0
   -0.6970   -0.1143   -2.0969 H   0  0  0  0  0  0  0  0  0  0  0  0
   -2.6521    0.2107   -3.1849 H   0  0  0  0  0  0  0  0  0  0  0  0
   -2.2682    1.6923   -2.2429 H   0  0  0  0  0  0  0  0  0  0  0  0
  1  2  1  0
  2  3  1  0
  2  4  1  0
  4  5  1  0
  5  6  1  0
  6  7  1  0
  7  8  1  0
  8  9  1  0
  9 10  1  0
 10 11  2  0
 10 12  1  0
 12 13  1  0
 13 14  2  0
 14 15  1  0
 15 16  1  0
 15 17  1  0
 15 18  1  0
 14 19  1  0
 19 20  1  0
 20 21  1  0
 21 22  1  0
 22 23  2  0
 22 24  1  0
 24 25  1  0
 25 26  2  0
 26 27  1  0
 27 28  2  0
 28 29  1  0
 29 30  1  0
 29 31  2  0
 31 32  1  0
  9 33  1  0
 33 34  1  0
 34 35  1  0
 35 36  2  0
 35  6  1  0
 20 12  2  0
 31 25  1  0
  1 37  1  0
  1 38  1  0
  1 39  1  0
  3 40  1  0
  3 41  1  0
  3 42  1  0
  4 43  1  0
  4 44  1  0
  5 45  1  0
  5 46  1  0
  7 47  1  0
  7 48  1  0
  8 49  1  0
  8 50  1  0
 13 51  1  0
 16 52  1  0
 16 53  1  0
 16 54  1  0
 17 55  1  0
 17 56  1  0
 17 57  1  0
 18 58  1  0
 18 59  1  0
 18 60  1  0
 21 61  1  0
 24 62  1  0
 26 63  1  0
 27 64  1  0
 28 65  1  0
 33 66  1  0
 33 67  1  0
 34 68  1  0
 34 69  1  0
M  END
$$$$
