
     RDKit          3D

 43 47  0  0  0  0  0  0  0  0999 V2000
    5.4230    1.3556   -1.6282 C   0  0  0  0  0  0  0  0  0  0  0  0
    4.4183    0.2707   -1.2806 C   0  0  2  0  0  0  0  0  0  0  0  0
    3.4548    0.8324   -0.2871 C   0  0  0  0  0  0  0  0  0  0  0  0
    2.5621   -0.1089    0.2860 N   0  0  0  0  0  0  0  0  0  0  0  0
    2.0204   -1.3937   -0.1430 C   0  0  0  0  0  0  0  0  0  0  0  0
    2.9373   -2.3953   -0.5600 C   0  0  0  0  0  0  0  0  0  0  0  0
    2.0355   -3.7828   -0.7948 S   0  0  0  0  0  0  0  0  0  0  0  0
    0.4102   -3.0690   -0.3504 C   0  0  0  0  0  0  0  0  0  0  0  0
   -0.8297   -3.6514   -0.3146 C   0  0  0  0  0  0  0  0  0  0  0  0
   -1.9074   -2.8844    0.0533 C   0  0  0  0  0  0  0  0  0  0  0  0
   -1.6360   -1.5635    0.3570 C   0  0  0  0  0  0  0  0  0  0  0  0
   -2.7034   -0.7937    0.6742 N   0  0  0  0  0  0  0  0  0  0  0  0
   -2.6659    0.5058    0.9579 C   0  0  0  0  0  0  0  0  0  0  0  0
   -3.8779    1.2595    1.2926 C   0  0  0  0  0  0  0  0  0  0  0  0
   -3.9144    2.5927    1.5942 C   0  0  0  0  0  0  0  0  0  0  0  0
   -5.0815    3.2650    1.9044 C   0  0  0  0  0  0  0  0  0  0  0  0
   -6.2696    2.6076    1.9218 C   0  0  0  0  0  0  0  0  0  0  0  0
   -6.2686    1.2574    1.6213 C   0  0  0  0  0  0  0  0  0  0  0  0
   -5.1072    0.5883    1.3125 C   0  0  0  0  0  0  0  0  0  0  0  0
   -5.1444   -0.7441    1.0212 F   0  0  0  0  0  0  0  0  0  0  0  0
   -1.4341    1.1021    0.9203 C   0  0  0  0  0  0  0  0  0  0  0  0
   -0.2889    0.3577    0.5993 C   0  0  0  0  0  0  0  0  0  0  0  0
   -0.3926   -0.9655    0.3247 C   0  0  0  0  0  0  0  0  0  0  0  0
    0.7379   -1.7650   -0.0508 C   0  0  0  0  0  0  0  0  0  0  0  0
    4.4135   -2.2093   -0.7794 C   0  0  0  0  0  0  0  0  0  0  0  0
    5.0404   -3.2594   -0.8844 O   0  0  0  0  0  0  0  0  0  0  0  0
    5.0853   -0.9420   -0.8670 N   0  0  0  0  0  0  0  0  0  0  0  0
    5.7854    1.1559   -2.6441 H   0  0  0  0  0  0  0  0  0  0  0  0
    4.8668    2.3159   -1.6323 H   0  0  0  0  0  0  0  0  0  0  0  0
    6.2201    1.3810   -0.8580 H   0  0  0  0  0  0  0  0  0  0  0  0
    3.8300    0.1100   -2.2361 H   0  0  0  0  0  0  0  0  0  0  0  0
    2.8683    1.6876   -0.7217 H   0  0  0  0  0  0  0  0  0  0  0  0
    4.0730    1.2368    0.5774 H   0  0  0  0  0  0  0  0  0  0  0  0
    2.2043    0.1523    1.2879 H   0  0  0  0  0  0  0  0  0  0  0  0
   -0.9379   -4.7111   -0.5783 H   0  0  0  0  0  0  0  0  0  0  0  0
   -2.8872   -3.3025    0.0956 H   0  0  0  0  0  0  0  0  0  0  0  0
   -2.9857    3.1435    1.5888 H   0  0  0  0  0  0  0  0  0  0  0  0
   -5.0092    4.3106    2.1271 H   0  0  0  0  0  0  0  0  0  0  0  0
   -7.1683    3.1554    2.1674 H   0  0  0  0  0  0  0  0  0  0  0  0
   -7.2072    0.7254    1.6321 H   0  0  0  0  0  0  0  0  0  0  0  0
   -1.3375    2.1639    1.1411 H   0  0  0  0  0  0  0  0  0  0  0  0
    0.5913    0.9264    0.5465 H   0  0  0  0  0  0  0  0  0  0  0  0
    6.0765   -0.9180   -0.6273 H   0  0  0  0  0  0  0  0  0  0  0  0
  1  2  1  0
  2  3  1  0
  3  4  1  0
  4  5  1  0
  5  6  2  0
  6  7  1  0
  7  8  1  0
  8  9  2  0
  9 10  1  0
 10 11  2  0
 11 12  1  0
 12 13  2  0
 13 14  1  0
 14 15  2  0
 15 16  1  0
 16 17  2  0
 17 18  1  0
 18 19  2  0
 19 20  1  0
 13 21  1  0
 21 22  2  0
 22 23  1  0
 23 24  2  0
  6 25  1  0
 25 26  2  0
 25 27  1  0
 27  2  1  0
 24  5  1  0
 24  8  1  0
 23 11  1  0
 19 14  1  0
  1 28  1  0
  1 29  1  0
  1 30  1  0
  2 31  1  6
  3 32  1  0
  3 33  1  0
  4 34  1  0
  9 35  1  0
 10 36  1  0
 15 37  1  0
 16 38  1  0
 17 39  1  0
 18 40  1  0
 21 41  1  0
 22 42  1  0
 27 43  1  0
M  END
$$$$
