
     RDKit          3D

 49 52  0  0  0  0  0  0  0  0999 V2000
   -6.7274   -2.0249    1.8519 C   0  0  0  0  0  0  0  0  0  0  0  0
   -6.4739   -0.7099    1.2840 N   0  0  0  0  0  0  0  0  0  0  0  0
   -5.1767   -0.4083    0.7898 C   0  0  0  0  0  0  0  0  0  0  0  0
   -4.1767   -1.2853    0.8235 N   0  0  0  0  0  0  0  0  0  0  0  0
   -2.9321   -1.0133    0.3558 C   0  0  0  0  0  0  0  0  0  0  0  0
   -1.7791   -1.6695    0.2615 N   0  0  0  0  0  0  0  0  0  0  0  0
   -0.8054   -0.9340   -0.2998 C   0  0  0  0  0  0  0  0  0  0  0  0
    0.5795   -1.3067   -0.5735 C   0  0  0  0  0  0  0  0  0  0  0  0
    1.0234   -2.5632   -0.2489 C   0  0  0  0  0  0  0  0  0  0  0  0
    2.3155   -2.9852   -0.4832 C   0  0  0  0  0  0  0  0  0  0  0  0
    3.1855   -2.0894   -1.0706 C   0  0  0  0  0  0  0  0  0  0  0  0
    2.7450   -0.8357   -1.3946 C   0  0  0  0  0  0  0  0  0  0  0  0
    3.6523    0.1631   -2.0121 C   0  0  0  0  0  0  0  0  0  0  0  0
    4.2671    1.0509   -1.0778 N   0  0  0  0  0  0  0  0  0  0  0  0
    5.3892    0.6666   -0.3005 C   0  0  0  0  0  0  0  0  0  0  0  0
    5.8476   -0.4838   -0.4529 O   0  0  0  0  0  0  0  0  0  0  0  0
    5.9350    1.6750    0.6423 C   0  0  0  0  0  0  0  0  0  0  0  0
    7.0064    1.2971    1.3807 O   0  0  0  0  0  0  0  0  0  0  0  0
    6.7658    0.2482    2.2279 C   0  0  0  0  0  0  0  0  0  0  0  0
    1.4513   -0.4619   -1.1426 N   0  0  0  0  0  0  0  0  0  0  0  0
   -1.3833    0.3063   -0.5928 C   0  0  0  0  0  0  0  0  0  0  0  0
   -2.6944    0.2425   -0.1833 C   0  0  0  0  0  0  0  0  0  0  0  0
   -3.6874    1.1819   -0.2426 C   0  0  0  0  0  0  0  0  0  0  0  0
   -4.9462    0.8435    0.2540 C   0  0  0  0  0  0  0  0  0  0  0  0
   -5.7166    1.9290    0.0743 N   0  0  0  0  0  0  0  0  0  0  0  0
   -4.9577    2.8795   -0.5046 C   0  0  0  0  0  0  0  0  0  0  0  0
   -3.7153    2.4286   -0.7012 N   0  0  0  0  0  0  0  0  0  0  0  0
   -2.6200    3.1492   -1.2953 C   0  0  0  0  0  0  0  0  0  0  0  0
   -5.7739   -2.3442    2.3528 H   0  0  0  0  0  0  0  0  0  0  0  0
   -6.8652   -2.7196    0.9905 H   0  0  0  0  0  0  0  0  0  0  0  0
   -7.5651   -2.0224    2.5514 H   0  0  0  0  0  0  0  0  0  0  0  0
   -7.2419   -0.0355    1.2562 H   0  0  0  0  0  0  0  0  0  0  0  0
   -1.6620   -2.6648    0.5985 H   0  0  0  0  0  0  0  0  0  0  0  0
    0.3244   -3.2701    0.2185 H   0  0  0  0  0  0  0  0  0  0  0  0
    2.6662   -3.9932   -0.2214 H   0  0  0  0  0  0  0  0  0  0  0  0
    4.2081   -2.4407   -1.2609 H   0  0  0  0  0  0  0  0  0  0  0  0
    4.3906   -0.3883   -2.6373 H   0  0  0  0  0  0  0  0  0  0  0  0
    3.0111    0.7585   -2.7198 H   0  0  0  0  0  0  0  0  0  0  0  0
    3.8611    2.0214   -0.9726 H   0  0  0  0  0  0  0  0  0  0  0  0
    5.0779    1.9940    1.3095 H   0  0  0  0  0  0  0  0  0  0  0  0
    6.2285    2.5498   -0.0152 H   0  0  0  0  0  0  0  0  0  0  0  0
    6.4546   -0.6497    1.7050 H   0  0  0  0  0  0  0  0  0  0  0  0
    7.7489    0.0411    2.7466 H   0  0  0  0  0  0  0  0  0  0  0  0
    5.9902    0.5175    3.0070 H   0  0  0  0  0  0  0  0  0  0  0  0
   -0.8159    1.0937   -1.0529 H   0  0  0  0  0  0  0  0  0  0  0  0
   -5.3404    3.8594   -0.7585 H   0  0  0  0  0  0  0  0  0  0  0  0
   -3.0067    4.1345   -1.6966 H   0  0  0  0  0  0  0  0  0  0  0  0
   -1.8311    3.4290   -0.5731 H   0  0  0  0  0  0  0  0  0  0  0  0
   -2.2306    2.6354   -2.1972 H   0  0  0  0  0  0  0  0  0  0  0  0
  1  2  1  0
  2  3  1  0
  3  4  2  0
  4  5  1  0
  5  6  1  0
  6  7  1  0
  7  8  1  0
  8  9  2  0
  9 10  1  0
 10 11  2  0
 11 12  1  0
 12 13  1  0
 13 14  1  0
 14 15  1  0
 15 16  2  0
 15 17  1  0
 17 18  1  0
 18 19  1  0
 12 20  2  0
  7 21  2  0
 21 22  1  0
 22 23  1  0
 23 24  2  0
 24 25  1  0
 25 26  2  0
 26 27  1  0
 27 28  1  0
 24  3  1  0
 22  5  2  0
 27 23  1  0
 20  8  1  0
  1 29  1  0
  1 30  1  0
  1 31  1  0
  2 32  1  0
  6 33  1  0
  9 34  1  0
 10 35  1  0
 11 36  1  0
 13 37  1  0
 13 38  1  0
 14 39  1  0
 17 40  1  0
 17 41  1  0
 19 42  1  0
 19 43  1  0
 19 44  1  0
 21 45  1  0
 26 46  1  0
 28 47  1  0
 28 48  1  0
 28 49  1  0
M  END
$$$$
