
     RDKit          3D

 62 65  0  0  0  0  0  0  0  0999 V2000
   -0.7939   -1.8552   -2.2912 C   0  0  0  0  0  0  0  0  0  0  0  0
    0.3457   -1.4471   -1.4795 N   0  0  0  0  0  0  0  0  0  0  0  0
    1.6329   -1.5008   -1.7847 N   0  0  0  0  0  0  0  0  0  0  0  0
    2.3547   -1.0267   -0.7586 C   0  0  0  0  0  0  0  0  0  0  0  0
    3.8518   -0.8952   -0.6531 C   0  0  0  0  0  0  0  0  0  0  0  0
    4.1217    0.5825   -0.4485 C   0  0  0  0  0  0  0  0  0  0  0  0
    5.5816    0.8509   -0.2989 C   0  0  0  0  0  0  0  0  0  0  0  0
    6.1186   -0.0420    0.7005 N   0  0  0  0  0  0  0  0  0  0  0  0
    7.4948   -0.0179    0.9765 C   0  0  0  0  0  0  0  0  0  0  0  0
    7.9930   -0.7933    1.8513 O   0  0  0  0  0  0  0  0  0  0  0  0
    8.4043    0.9144    0.2532 C   0  0  0  0  0  0  0  0  0  0  0  0
    9.8242    0.7342    0.7406 C   0  0  0  0  0  0  0  0  0  0  0  0
   10.7089    1.5829    0.0946 O   0  0  0  0  0  0  0  0  0  0  0  0
    5.2669   -0.9597    1.4219 C   0  0  0  0  0  0  0  0  0  0  0  0
    4.3779   -1.7214    0.4832 C   0  0  0  0  0  0  0  0  0  0  0  0
    1.4600   -0.6792    0.1902 N   0  0  0  0  0  0  0  0  0  0  0  0
    0.2119   -0.9340   -0.2425 C   0  0  0  0  0  0  0  0  0  0  0  0
   -1.0268   -0.6962    0.4933 C   0  0  0  0  0  0  0  0  0  0  0  0
   -1.0289   -0.7772    1.8838 C   0  0  0  0  0  0  0  0  0  0  0  0
   -2.1954   -0.5496    2.5145 N   0  0  0  0  0  0  0  0  0  0  0  0
   -3.2994   -0.2580    1.8100 C   0  0  0  0  0  0  0  0  0  0  0  0
   -4.5538   -0.0110    2.4490 N   0  0  0  0  0  0  0  0  0  0  0  0
   -3.2758   -0.1828    0.4352 C   0  0  0  0  0  0  0  0  0  0  0  0
   -4.5159    0.1424   -0.3166 C   0  0  0  0  0  0  0  0  0  0  0  0
   -4.6281    0.2461   -1.6516 N   0  0  0  0  0  0  0  0  0  0  0  0
   -5.8977    0.5493   -1.9127 N   0  0  0  0  0  0  0  0  0  0  0  0
   -6.5759    0.6349   -0.7489 C   0  0  0  0  0  0  0  0  0  0  0  0
   -8.0272    0.9540   -0.5786 C   0  0  0  0  0  0  0  0  0  0  0  0
   -8.8442   -0.3193   -0.6005 C   0  0  0  0  0  0  0  0  0  0  0  0
   -8.4248    1.8720   -1.7122 C   0  0  0  0  0  0  0  0  0  0  0  0
   -8.2681    1.6211    0.7504 C   0  0  0  0  0  0  0  0  0  0  0  0
   -5.6941    0.3802    0.1855 O   0  0  0  0  0  0  0  0  0  0  0  0
   -2.1354   -0.4040   -0.2021 N   0  0  0  0  0  0  0  0  0  0  0  0
   -0.4712   -2.4575   -3.1471 H   0  0  0  0  0  0  0  0  0  0  0  0
   -1.4492   -2.4772   -1.6273 H   0  0  0  0  0  0  0  0  0  0  0  0
   -1.3587   -0.9514   -2.5896 H   0  0  0  0  0  0  0  0  0  0  0  0
    4.2753   -1.2674   -1.5951 H   0  0  0  0  0  0  0  0  0  0  0  0
    3.6162    0.8994    0.4853 H   0  0  0  0  0  0  0  0  0  0  0  0
    3.7287    1.1324   -1.3142 H   0  0  0  0  0  0  0  0  0  0  0  0
    5.6869    1.9293    0.0127 H   0  0  0  0  0  0  0  0  0  0  0  0
    6.1226    0.7134   -1.2751 H   0  0  0  0  0  0  0  0  0  0  0  0
    8.3975    0.7389   -0.8397 H   0  0  0  0  0  0  0  0  0  0  0  0
    8.0857    1.9611    0.4717 H   0  0  0  0  0  0  0  0  0  0  0  0
    9.9080    0.8656    1.8361 H   0  0  0  0  0  0  0  0  0  0  0  0
   10.1154   -0.3053    0.4980 H   0  0  0  0  0  0  0  0  0  0  0  0
   11.5835    1.1324    0.0202 H   0  0  0  0  0  0  0  0  0  0  0  0
    5.8757   -1.7020    1.9764 H   0  0  0  0  0  0  0  0  0  0  0  0
    4.6386   -0.3972    2.1640 H   0  0  0  0  0  0  0  0  0  0  0  0
    3.5297   -2.1557    1.0806 H   0  0  0  0  0  0  0  0  0  0  0  0
    4.9657   -2.5908    0.1089 H   0  0  0  0  0  0  0  0  0  0  0  0
   -0.1441   -1.0106    2.4429 H   0  0  0  0  0  0  0  0  0  0  0  0
   -5.0120    0.9208    2.3967 H   0  0  0  0  0  0  0  0  0  0  0  0
   -5.0503   -0.7639    2.9906 H   0  0  0  0  0  0  0  0  0  0  0  0
   -8.9856   -0.7214   -1.6125 H   0  0  0  0  0  0  0  0  0  0  0  0
   -9.8244   -0.0776   -0.1086 H   0  0  0  0  0  0  0  0  0  0  0  0
   -8.3576   -1.0554    0.0715 H   0  0  0  0  0  0  0  0  0  0  0  0
   -7.6764    2.6772   -1.7646 H   0  0  0  0  0  0  0  0  0  0  0  0
   -9.4280    2.3229   -1.5215 H   0  0  0  0  0  0  0  0  0  0  0  0
   -8.4064    1.3073   -2.6491 H   0  0  0  0  0  0  0  0  0  0  0  0
   -7.7892    1.0181    1.5547 H   0  0  0  0  0  0  0  0  0  0  0  0
   -9.3506    1.6833    0.9174 H   0  0  0  0  0  0  0  0  0  0  0  0
   -7.7891    2.6371    0.7978 H   0  0  0  0  0  0  0  0  0  0  0  0
  1  2  1  0
  2  3  1  0
  3  4  2  0
  4  5  1  0
  5  6  1  0
  6  7  1  0
  7  8  1  0
  8  9  1  0
  9 10  2  0
  9 11  1  0
 11 12  1  0
 12 13  1  0
  8 14  1  0
 14 15  1  0
  4 16  1  0
 16 17  2  0
 17 18  1  0
 18 19  2  0
 19 20  1  0
 20 21  2  0
 21 22  1  0
 21 23  1  0
 23 24  1  0
 24 25  2  0
 25 26  1  0
 26 27  2  0
 27 28  1  0
 28 29  1  0
 28 30  1  0
 28 31  1  0
 27 32  1  0
 23 33  2  0
 17  2  1  0
 33 18  1  0
 15  5  1  0
 32 24  1  0
  1 34  1  0
  1 35  1  0
  1 36  1  0
  5 37  1  0
  6 38  1  0
  6 39  1  0
  7 40  1  0
  7 41  1  0
 11 42  1  0
 11 43  1  0
 12 44  1  0
 12 45  1  0
 13 46  1  0
 14 47  1  0
 14 48  1  0
 15 49  1  0
 15 50  1  0
 19 51  1  0
 22 52  1  0
 22 53  1  0
 29 54  1  0
 29 55  1  0
 29 56  1  0
 30 57  1  0
 30 58  1  0
 30 59  1  0
 31 60  1  0
 31 61  1  0
 31 62  1  0
M  END
$$$$
