
     RDKit          3D

 30 29  0  0  0  0  0  0  0  0999 V2000
   -1.9693   -0.5075   -0.0318 C   0  0  2  0  0  0  0  0  0  0  0  0
   -1.1397   -1.6963    0.3175 C   0  0  0  0  0  0  0  0  0  0  0  0
   -1.4914    0.7741    0.5269 C   0  0  0  0  0  0  0  0  0  0  0  0
   -0.1738    1.2871    0.1099 C   0  0  0  0  0  0  0  0  0  0  0  0
    0.9880    0.4472    0.4356 C   0  0  0  0  0  0  0  0  0  0  0  0
    2.3089    1.1456    0.0016 C   0  0  0  0  0  0  0  0  0  0  0  0
    3.4127    0.1856    0.3898 C   0  0  0  0  0  0  0  0  0  0  0  0
    3.1867   -1.1139   -0.3477 C   0  0  0  0  0  0  0  0  0  0  0  0
   -3.3395   -0.7641    0.4342 N   0  0  0  0  0  0  0  0  0  0  0  0
   -4.3030   -0.0324    0.0260 C   0  0  0  0  0  0  0  0  0  0  0  0
   -4.1911    1.0494   -0.8681 O   0  0  0  0  0  0  0  0  0  0  0  0
   -2.0308   -0.4444   -1.1776 H   0  0  0  0  0  0  0  0  0  0  0  0
   -0.5151   -1.4691    1.1942 H   0  0  0  0  0  0  0  0  0  0  0  0
   -1.8440   -2.5586    0.5854 H   0  0  0  0  0  0  0  0  0  0  0  0
   -0.5609   -2.0120   -0.5707 H   0  0  0  0  0  0  0  0  0  0  0  0
   -2.2862    1.5993    0.3634 H   0  0  0  0  0  0  0  0  0  0  0  0
   -1.5533    0.7033    1.6741 H   0  0  0  0  0  0  0  0  0  0  0  0
   -0.1573    1.4974   -1.0228 H   0  0  0  0  0  0  0  0  0  0  0  0
   -0.0495    2.3405    0.5464 H   0  0  0  0  0  0  0  0  0  0  0  0
    1.0517    0.2500    1.5191 H   0  0  0  0  0  0  0  0  0  0  0  0
    0.9962   -0.4667   -0.1756 H   0  0  0  0  0  0  0  0  0  0  0  0
    2.4383    2.0992    0.5195 H   0  0  0  0  0  0  0  0  0  0  0  0
    2.3145    1.2377   -1.1021 H   0  0  0  0  0  0  0  0  0  0  0  0
    3.3807   -0.0275    1.4794 H   0  0  0  0  0  0  0  0  0  0  0  0
    4.4075    0.6159    0.1320 H   0  0  0  0  0  0  0  0  0  0  0  0
    4.1661   -1.6485   -0.5054 H   0  0  0  0  0  0  0  0  0  0  0  0
    2.7110   -0.8872   -1.3196 H   0  0  0  0  0  0  0  0  0  0  0  0
    2.5058   -1.7787    0.2263 H   0  0  0  0  0  0  0  0  0  0  0  0
   -4.7847   -0.7377    0.6861 H   0  0  0  0  0  0  0  0  0  0  0  0
   -3.4788    0.9122   -1.6001 H   0  0  0  0  0  0  0  0  0  0  0  0
  1  2  1  0
  1  3  1  0
  3  4  1  0
  4  5  1  0
  5  6  1  0
  6  7  1  0
  7  8  1  0
  1  9  1  0
  9 10  2  3
 10 11  1  0
  1 12  1  6
  2 13  1  0
  2 14  1  0
  2 15  1  0
  3 16  1  0
  3 17  1  0
  4 18  1  0
  4 19  1  0
  5 20  1  0
  5 21  1  0
  6 22  1  0
  6 23  1  0
  7 24  1  0
  7 25  1  0
  8 26  1  0
  8 27  1  0
  8 28  1  0
 10 29  1  0
 11 30  1  0
M  END
$$$$
