
     RDKit          3D

104110  0  0  0  0  0  0  0  0999 V2000
    7.5542    2.1624   -4.7161 C   0  0  0  0  0  0  0  0  0  0  0  0
    6.2338    1.9058   -4.2851 O   0  0  0  0  0  0  0  0  0  0  0  0
    6.0445    1.3259   -3.0410 C   0  0  0  0  0  0  0  0  0  0  0  0
    4.7645    1.0880   -2.6478 C   0  0  0  0  0  0  0  0  0  0  0  0
    4.5320    0.5042   -1.4005 C   0  0  0  0  0  0  0  0  0  0  0  0
    3.1816    0.2925   -1.0335 N   0  0  0  0  0  0  0  0  0  0  0  0
    2.7119   -0.5669   -0.0141 C   0  0  0  0  0  0  0  0  0  0  0  0
    3.5489   -1.3285    0.6803 N   0  0  0  0  0  0  0  0  0  0  0  0
    3.1269   -2.1704    1.6593 C   0  0  0  0  0  0  0  0  0  0  0  0
    1.7769   -2.2107    1.9152 C   0  0  0  0  0  0  0  0  0  0  0  0
    0.8673   -1.4203    1.2015 C   0  0  0  0  0  0  0  0  0  0  0  0
   -0.4650   -1.5280    1.5291 O   0  0  0  0  0  0  0  0  0  0  0  0
   -1.5267   -0.8827    0.9707 C   0  0  0  0  0  0  0  0  0  0  0  0
   -2.3170    0.0020    1.7160 C   0  0  0  0  0  0  0  0  0  0  0  0
   -3.3936    0.6652    1.1716 C   0  0  0  0  0  0  0  0  0  0  0  0
   -3.7264    0.4690   -0.1522 C   0  0  0  0  0  0  0  0  0  0  0  0
   -4.8391    1.1448   -0.7163 N   0  0  0  0  0  0  0  0  0  0  0  0
   -6.1127    0.4981   -0.7081 C   0  0  0  0  0  0  0  0  0  0  0  0
   -6.2385   -0.6591   -0.2162 O   0  0  0  0  0  0  0  0  0  0  0  0
   -7.2861    1.1204   -1.2472 N   0  0  0  0  0  0  0  0  0  0  0  0
   -8.5649    0.4674   -1.2570 C   0  0  0  0  0  0  0  0  0  0  0  0
   -9.0333   -0.2807   -2.3271 C   0  0  0  0  0  0  0  0  0  0  0  0
  -10.2749   -0.7415   -1.9506 C   0  0  0  0  0  0  0  0  0  0  0  0
  -11.2010   -1.6001   -2.7732 C   0  0  0  0  0  0  0  0  0  0  0  0
  -11.4304   -2.9331   -2.0903 C   0  0  0  0  0  0  0  0  0  0  0  0
  -12.5423   -0.9062   -2.8631 C   0  0  0  0  0  0  0  0  0  0  0  0
  -10.4915   -0.2681   -0.7154 N   0  0  0  0  0  0  0  0  0  0  0  0
   -9.4769    0.4595   -0.2820 N   0  0  0  0  0  0  0  0  0  0  0  0
   -9.3758    1.1047    0.9859 C   0  0  0  0  0  0  0  0  0  0  0  0
   -9.7107    2.4264    1.1847 C   0  0  0  0  0  0  0  0  0  0  0  0
   -9.6021    3.0269    2.4269 C   0  0  0  0  0  0  0  0  0  0  0  0
   -9.1512    2.3223    3.5233 C   0  0  0  0  0  0  0  0  0  0  0  0
   -9.0380    2.9829    4.8643 C   0  0  0  0  0  0  0  0  0  0  0  0
   -8.8118    0.9992    3.3420 C   0  0  0  0  0  0  0  0  0  0  0  0
   -8.3211    0.1910    4.4890 C   0  0  0  0  0  0  0  0  0  0  0  0
   -8.9224    0.4077    2.1024 C   0  0  0  0  0  0  0  0  0  0  0  0
   -2.9510   -0.4027   -0.8899 C   0  0  0  0  0  0  0  0  0  0  0  0
   -3.3129   -0.5925   -2.2069 C   0  0  0  0  0  0  0  0  0  0  0  0
   -2.5861   -1.4598   -2.9844 C   0  0  0  0  0  0  0  0  0  0  0  0
   -1.5105   -2.1274   -2.4456 C   0  0  0  0  0  0  0  0  0  0  0  0
   -1.1216   -1.9570   -1.1245 C   0  0  0  0  0  0  0  0  0  0  0  0
   -1.8561   -1.0839   -0.3534 C   0  0  0  0  0  0  0  0  0  0  0  0
    1.3897   -0.6301    0.2628 N   0  0  0  0  0  0  0  0  0  0  0  0
    5.6172    0.1952   -0.6207 C   0  0  0  0  0  0  0  0  0  0  0  0
    6.9408    0.4300   -1.0029 C   0  0  0  0  0  0  0  0  0  0  0  0
    8.0419    0.0835   -0.1150 C   0  0  0  0  0  0  0  0  0  0  0  0
    7.7809   -0.3758    1.0141 O   0  0  0  0  0  0  0  0  0  0  0  0
    9.4037    0.2357   -0.4520 N   0  0  0  0  0  0  0  0  0  0  0  0
   10.4683   -0.1301    0.4971 C   0  0  0  0  0  0  0  0  0  0  0  0
   11.7734    0.1413   -0.1603 C   0  0  0  0  0  0  0  0  0  0  0  0
   12.9288   -0.1380    0.6170 N   0  0  0  0  0  0  0  0  0  0  0  0
   13.1973   -1.5036    0.9142 C   0  0  0  0  0  0  0  0  0  0  0  0
   14.3593   -1.5250    1.9178 C   0  0  0  0  0  0  0  0  0  0  0  0
   14.0771   -0.8411    3.0741 O   0  0  0  0  0  0  0  0  0  0  0  0
   13.0443    0.0608    2.9971 C   0  0  0  0  0  0  0  0  0  0  0  0
   13.1755    0.7932    1.6757 C   0  0  0  0  0  0  0  0  0  0  0  0
    7.1210    1.0070   -2.2420 C   0  0  0  0  0  0  0  0  0  0  0  0
    7.5277    2.5049   -5.7860 H   0  0  0  0  0  0  0  0  0  0  0  0
    8.1276    1.2093   -4.6227 H   0  0  0  0  0  0  0  0  0  0  0  0
    8.0707    2.9097   -4.0895 H   0  0  0  0  0  0  0  0  0  0  0  0
    3.9183    1.3509   -3.3045 H   0  0  0  0  0  0  0  0  0  0  0  0
    2.4436    0.8491   -1.5871 H   0  0  0  0  0  0  0  0  0  0  0  0
    3.8464   -2.7763    2.2034 H   0  0  0  0  0  0  0  0  0  0  0  0
    1.4344   -2.8830    2.6978 H   0  0  0  0  0  0  0  0  0  0  0  0
   -2.0670    0.1603    2.7402 H   0  0  0  0  0  0  0  0  0  0  0  0
   -3.9966    1.3470    1.7575 H   0  0  0  0  0  0  0  0  0  0  0  0
   -4.7764    2.0971   -1.1406 H   0  0  0  0  0  0  0  0  0  0  0  0
   -7.2010    2.0755   -1.6546 H   0  0  0  0  0  0  0  0  0  0  0  0
   -8.5326   -0.4662   -3.2627 H   0  0  0  0  0  0  0  0  0  0  0  0
  -10.7664   -1.7250   -3.7680 H   0  0  0  0  0  0  0  0  0  0  0  0
  -11.4245   -2.7758   -1.0045 H   0  0  0  0  0  0  0  0  0  0  0  0
  -10.7177   -3.7088   -2.4406 H   0  0  0  0  0  0  0  0  0  0  0  0
  -12.4449   -3.2774   -2.3779 H   0  0  0  0  0  0  0  0  0  0  0  0
  -12.3498    0.2025   -2.7932 H   0  0  0  0  0  0  0  0  0  0  0  0
  -13.1421   -1.1280   -1.9329 H   0  0  0  0  0  0  0  0  0  0  0  0
  -13.0944   -1.1441   -3.7851 H   0  0  0  0  0  0  0  0  0  0  0  0
  -10.0669    2.9842    0.3187 H   0  0  0  0  0  0  0  0  0  0  0  0
   -9.8680    4.0675    2.5712 H   0  0  0  0  0  0  0  0  0  0  0  0
   -7.9958    3.0430    5.1969 H   0  0  0  0  0  0  0  0  0  0  0  0
   -9.6620    2.4316    5.6143 H   0  0  0  0  0  0  0  0  0  0  0  0
   -9.4569    4.0083    4.8365 H   0  0  0  0  0  0  0  0  0  0  0  0
   -9.1901   -0.3660    4.9236 H   0  0  0  0  0  0  0  0  0  0  0  0
   -7.7795    0.7959    5.2271 H   0  0  0  0  0  0  0  0  0  0  0  0
   -7.6210   -0.6004    4.1025 H   0  0  0  0  0  0  0  0  0  0  0  0
   -8.6614   -0.6398    1.9274 H   0  0  0  0  0  0  0  0  0  0  0  0
   -4.1768   -0.0428   -2.6058 H   0  0  0  0  0  0  0  0  0  0  0  0
   -2.8560   -1.6232   -4.0247 H   0  0  0  0  0  0  0  0  0  0  0  0
   -0.9121   -2.8211   -3.0286 H   0  0  0  0  0  0  0  0  0  0  0  0
   -0.2799   -2.5045   -0.7145 H   0  0  0  0  0  0  0  0  0  0  0  0
    5.4986   -0.2416    0.3410 H   0  0  0  0  0  0  0  0  0  0  0  0
    9.6390    0.6164   -1.3941 H   0  0  0  0  0  0  0  0  0  0  0  0
   10.3178   -1.1831    0.7927 H   0  0  0  0  0  0  0  0  0  0  0  0
   10.3834    0.5091    1.4053 H   0  0  0  0  0  0  0  0  0  0  0  0
   11.8073   -0.4453   -1.1110 H   0  0  0  0  0  0  0  0  0  0  0  0
   11.8009    1.2230   -0.4240 H   0  0  0  0  0  0  0  0  0  0  0  0
   13.5886   -1.9987    0.0125 H   0  0  0  0  0  0  0  0  0  0  0  0
   12.3372   -2.0768    1.3013 H   0  0  0  0  0  0  0  0  0  0  0  0
   15.2141   -1.0199    1.4249 H   0  0  0  0  0  0  0  0  0  0  0  0
   14.6695   -2.5647    2.1481 H   0  0  0  0  0  0  0  0  0  0  0  0
   12.0400   -0.4259    3.0219 H   0  0  0  0  0  0  0  0  0  0  0  0
   13.1177    0.7541    3.8638 H   0  0  0  0  0  0  0  0  0  0  0  0
   12.4529    1.6344    1.7038 H   0  0  0  0  0  0  0  0  0  0  0  0
   14.2150    1.1734    1.6118 H   0  0  0  0  0  0  0  0  0  0  0  0
    8.1197    1.2120   -2.5894 H   0  0  0  0  0  0  0  0  0  0  0  0
  1  2  1  0
  2  3  1  0
  3  4  2  0
  4  5  1  0
  5  6  1  0
  6  7  1  0
  7  8  2  0
  8  9  1  0
  9 10  2  0
 10 11  1  0
 11 12  1  0
 12 13  1  0
 13 14  2  0
 14 15  1  0
 15 16  2  0
 16 17  1  0
 17 18  1  0
 18 19  2  0
 18 20  1  0
 20 21  1  0
 21 22  2  0
 22 23  1  0
 23 24  1  0
 24 25  1  0
 24 26  1  0
 23 27  2  0
 27 28  1  0
 28 29  1  0
 29 30  2  0
 30 31  1  0
 31 32  2  0
 32 33  1  0
 32 34  1  0
 34 35  1  0
 34 36  2  0
 16 37  1  0
 37 38  2  0
 38 39  1  0
 39 40  2  0
 40 41  1  0
 41 42  2  0
 11 43  2  0
  5 44  2  0
 44 45  1  0
 45 46  1  0
 46 47  2  0
 46 48  1  0
 48 49  1  0
 49 50  1  0
 50 51  1  0
 51 52  1  0
 52 53  1  0
 53 54  1  0
 54 55  1  0
 55 56  1  0
 45 57  2  0
 57  3  1  0
 43  7  1  0
 56 51  1  0
 42 13  1  0
 28 21  1  0
 36 29  1  0
 42 37  1  0
  1 58  1  0
  1 59  1  0
  1 60  1  0
  4 61  1  0
  6 62  1  0
  9 63  1  0
 10 64  1  0
 14 65  1  0
 15 66  1  0
 17 67  1  0
 20 68  1  0
 22 69  1  0
 24 70  1  0
 25 71  1  0
 25 72  1  0
 25 73  1  0
 26 74  1  0
 26 75  1  0
 26 76  1  0
 30 77  1  0
 31 78  1  0
 33 79  1  0
 33 80  1  0
 33 81  1  0
 35 82  1  0
 35 83  1  0
 35 84  1  0
 36 85  1  0
 38 86  1  0
 39 87  1  0
 40 88  1  0
 41 89  1  0
 44 90  1  0
 48 91  1  0
 49 92  1  0
 49 93  1  0
 50 94  1  0
 50 95  1  0
 52 96  1  0
 52 97  1  0
 53 98  1  0
 53 99  1  0
 55100  1  0
 55101  1  0
 56102  1  0
 56103  1  0
 57104  1  0
M  END
$$$$
