
     RDKit          3D

 62 65  0  0  0  0  0  0  0  0999 V2000
    6.3003    3.4512    3.6693 C   0  0  0  0  0  0  0  0  0  0  0  0
    5.0082    3.8626    3.2510 O   0  0  0  0  0  0  0  0  0  0  0  0
    4.3553    3.1468    2.2548 C   0  0  0  0  0  0  0  0  0  0  0  0
    4.9801    2.0477    1.6928 C   0  0  0  0  0  0  0  0  0  0  0  0
    4.3423    1.3351    0.7121 C   0  0  0  0  0  0  0  0  0  0  0  0
    3.0803    1.6434    0.2270 C   0  0  0  0  0  0  0  0  0  0  0  0
    2.4228    0.8729   -0.8090 C   0  0  0  0  0  0  0  0  0  0  0  0
    1.5408    1.4259   -1.7128 C   0  0  0  0  0  0  0  0  0  0  0  0
    0.9427    0.6223   -2.6919 C   0  0  0  0  0  0  0  0  0  0  0  0
    1.1923   -0.7234   -2.8032 C   0  0  0  0  0  0  0  0  0  0  0  0
    0.4769   -1.7698   -4.0037 S   0  0  0  0  0  6  0  0  0  0  0  0
    0.1891   -0.9357   -5.2306 O   0  0  0  0  0  0  0  0  0  0  0  0
    1.5067   -2.8286   -4.4358 O   0  0  0  0  0  0  0  0  0  0  0  0
   -0.8539   -2.5809   -3.4106 N   0  0  0  0  0  0  0  0  0  0  0  0
   -1.9981   -1.8713   -2.9714 C   0  0  1  0  0  0  0  0  0  0  0  0
   -3.0645   -2.0725   -4.0161 C   0  0  0  0  0  0  0  0  0  0  0  0
   -2.8124   -2.7535   -5.0187 O   0  0  0  0  0  0  0  0  0  0  0  0
   -4.3036   -1.5032   -3.8502 O   0  0  0  0  0  0  0  0  0  0  0  0
   -2.5023   -2.2887   -1.6257 C   0  0  0  0  0  0  0  0  0  0  0  0
   -3.7577   -1.5596   -1.1980 C   0  0  0  0  0  0  0  0  0  0  0  0
   -3.7284   -1.3201    0.3064 C   0  0  0  0  0  0  0  0  0  0  0  0
   -2.7513   -0.1907    0.5142 C   0  0  0  0  0  0  0  0  0  0  0  0
   -2.6782    0.1879    1.9036 N   0  0  0  0  0  0  0  0  0  0  0  0
   -2.5541   -0.6039    2.9824 C   0  0  0  0  0  0  0  0  0  0  0  0
   -2.4822   -1.9862    2.9715 O   0  0  0  0  0  0  0  0  0  0  0  0
   -2.5129    0.2344    4.0833 C   0  0  0  0  0  0  0  0  0  0  0  0
   -2.6118    1.5105    3.6678 N   0  0  0  0  0  0  0  0  0  0  0  0
   -2.7119    1.4826    2.3487 C   0  0  0  0  0  0  0  0  0  0  0  0
   -2.8228    2.4951    1.5921 O   0  0  0  0  0  0  0  0  0  0  0  0
   -1.3981   -0.6609   -0.0348 C   0  0  0  0  0  0  0  0  0  0  0  0
   -1.4388   -2.0580   -0.5861 C   0  0  0  0  0  0  0  0  0  0  0  0
    2.0934   -1.2684   -1.8747 C   0  0  0  0  0  0  0  0  0  0  0  0
    2.6837   -0.4858   -0.9121 C   0  0  0  0  0  0  0  0  0  0  0  0
    2.4919    2.7598    0.8248 C   0  0  0  0  0  0  0  0  0  0  0  0
    3.1112    3.4948    1.8129 C   0  0  0  0  0  0  0  0  0  0  0  0
    6.5982    4.0289    4.5472 H   0  0  0  0  0  0  0  0  0  0  0  0
    6.1697    2.3787    3.9938 H   0  0  0  0  0  0  0  0  0  0  0  0
    6.9755    3.5075    2.8160 H   0  0  0  0  0  0  0  0  0  0  0  0
    5.9650    1.7793    2.0493 H   0  0  0  0  0  0  0  0  0  0  0  0
    4.8637    0.4756    0.2940 H   0  0  0  0  0  0  0  0  0  0  0  0
    1.3406    2.4835   -1.6311 H   0  0  0  0  0  0  0  0  0  0  0  0
    0.2554    1.0730   -3.3947 H   0  0  0  0  0  0  0  0  0  0  0  0
   -1.0341   -3.5319   -3.7892 H   0  0  0  0  0  0  0  0  0  0  0  0
   -1.7745   -0.7689   -3.0048 H   0  0  0  0  0  0  0  0  0  0  0  0
   -5.1330   -2.0153   -4.1079 H   0  0  0  0  0  0  0  0  0  0  0  0
   -2.6740   -3.3963   -1.6774 H   0  0  0  0  0  0  0  0  0  0  0  0
   -4.6103   -2.2848   -1.3407 H   0  0  0  0  0  0  0  0  0  0  0  0
   -3.9524   -0.6175   -1.6918 H   0  0  0  0  0  0  0  0  0  0  0  0
   -4.7623   -1.0379    0.6045 H   0  0  0  0  0  0  0  0  0  0  0  0
   -3.3820   -2.1935    0.8756 H   0  0  0  0  0  0  0  0  0  0  0  0
   -3.0798    0.7210   -0.0614 H   0  0  0  0  0  0  0  0  0  0  0  0
   -2.5379   -2.4876    3.8655 H   0  0  0  0  0  0  0  0  0  0  0  0
   -2.4176   -0.1120    5.1118 H   0  0  0  0  0  0  0  0  0  0  0  0
   -2.6084    2.3523    4.3113 H   0  0  0  0  0  0  0  0  0  0  0  0
   -0.7260   -0.7012    0.8770 H   0  0  0  0  0  0  0  0  0  0  0  0
   -1.0153    0.0831   -0.7446 H   0  0  0  0  0  0  0  0  0  0  0  0
   -0.4454   -2.2639   -1.0337 H   0  0  0  0  0  0  0  0  0  0  0  0
   -1.5786   -2.8113    0.2322 H   0  0  0  0  0  0  0  0  0  0  0  0
    2.3013   -2.3272   -1.9507 H   0  0  0  0  0  0  0  0  0  0  0  0
    3.3915   -0.8981   -0.1784 H   0  0  0  0  0  0  0  0  0  0  0  0
    1.5039    3.0944    0.5212 H   0  0  0  0  0  0  0  0  0  0  0  0
    2.6317    4.3582    2.2594 H   0  0  0  0  0  0  0  0  0  0  0  0
  1  2  1  0
  2  3  1  0
  3  4  2  0
  4  5  1  0
  5  6  2  0
  6  7  1  0
  7  8  2  0
  8  9  1  0
  9 10  2  0
 10 11  1  0
 11 12  2  0
 11 13  2  0
 11 14  1  0
 14 15  1  0
 15 16  1  0
 16 17  2  0
 16 18  1  0
 15 19  1  0
 19 20  1  0
 20 21  1  0
 21 22  1  0
 22 23  1  0
 23 24  1  0
 24 25  1  0
 24 26  2  0
 26 27  1  0
 27 28  1  0
 28 29  2  0
 22 30  1  0
 30 31  1  0
 10 32  1  0
 32 33  2  0
  6 34  1  0
 34 35  2  0
 35  3  1  0
 33  7  1  0
 31 19  1  0
 28 23  1  0
  1 36  1  0
  1 37  1  0
  1 38  1  0
  4 39  1  0
  5 40  1  0
  8 41  1  0
  9 42  1  0
 14 43  1  0
 15 44  1  1
 18 45  1  0
 19 46  1  0
 20 47  1  0
 20 48  1  0
 21 49  1  0
 21 50  1  0
 22 51  1  0
 25 52  1  0
 26 53  1  0
 27 54  1  0
 30 55  1  0
 30 56  1  0
 31 57  1  0
 31 58  1  0
 32 59  1  0
 33 60  1  0
 34 61  1  0
 35 62  1  0
M  END
$$$$
