
     RDKit          3D

 37 39  0  0  0  0  0  0  0  0999 V2000
   -0.0733   -4.0591   -0.1319 C   0  0  0  0  0  0  0  0  0  0  0  0
    0.4866   -2.7667    0.2999 C   0  0  0  0  0  0  0  0  0  0  0  0
    1.6480   -2.7398    0.7580 O   0  0  0  0  0  0  0  0  0  0  0  0
   -0.2972   -1.5531    0.1925 C   0  0  0  0  0  0  0  0  0  0  0  0
    0.1823   -0.3052    0.5643 C   0  0  0  0  0  0  0  0  0  0  0  0
    1.4866   -0.2143    1.0899 N   0  0  0  0  0  0  0  0  0  0  0  0
    2.5540    0.5716    0.6253 C   0  0  0  0  0  0  0  0  0  0  0  0
    3.1139    1.4991    1.4944 C   0  0  0  0  0  0  0  0  0  0  0  0
    4.1683    2.2851    1.0812 C   0  0  0  0  0  0  0  0  0  0  0  0
    4.6889    2.1711   -0.1938 C   0  0  0  0  0  0  0  0  0  0  0  0
    6.0332    3.1608   -0.7379 Cl  0  0  0  0  0  0  0  0  0  0  0  0
    4.1264    1.2450   -1.0548 C   0  0  0  0  0  0  0  0  0  0  0  0
    3.0567    0.4522   -0.6271 C   0  0  0  0  0  0  0  0  0  0  0  0
    2.3757   -0.6903   -1.7476 Cl  0  0  0  0  0  0  0  0  0  0  0  0
   -0.6009    0.7979    0.4345 N   0  0  0  0  0  0  0  0  0  0  0  0
   -1.8608    0.7409   -0.0528 C   0  0  0  0  0  0  0  0  0  0  0  0
   -2.6713    1.8490   -0.1924 C   0  0  0  0  0  0  0  0  0  0  0  0
   -2.1686    3.1367    0.1898 N   0  0  0  0  0  4  0  0  0  0  0  0
   -2.6358    4.1537   -0.3859 O   0  0  0  0  0  0  0  0  0  0  0  0
   -1.2217    3.3461    1.1343 O   0  0  0  0  0  1  0  0  0  0  0  0
   -3.9577    1.7284   -0.6988 C   0  0  0  0  0  0  0  0  0  0  0  0
   -4.4818    0.5234   -1.0804 C   0  0  0  0  0  0  0  0  0  0  0  0
   -6.0991    0.3247   -1.7217 Cl  0  0  0  0  0  0  0  0  0  0  0  0
   -3.6639   -0.5901   -0.9395 C   0  0  0  0  0  0  0  0  0  0  0  0
   -2.3942   -0.4728   -0.4398 C   0  0  0  0  0  0  0  0  0  0  0  0
   -1.5960   -1.5801   -0.3047 C   0  0  0  0  0  0  0  0  0  0  0  0
   -2.1445   -2.8002   -0.6971 O   0  0  0  0  0  0  0  0  0  0  0  0
   -0.9223   -4.3573    0.5156 H   0  0  0  0  0  0  0  0  0  0  0  0
   -0.3221   -4.0952   -1.2198 H   0  0  0  0  0  0  0  0  0  0  0  0
    0.6864   -4.8921   -0.0252 H   0  0  0  0  0  0  0  0  0  0  0  0
    1.6509   -0.8191    1.9578 H   0  0  0  0  0  0  0  0  0  0  0  0
    2.7575    1.6400    2.5037 H   0  0  0  0  0  0  0  0  0  0  0  0
    4.6298    3.0171    1.7259 H   0  0  0  0  0  0  0  0  0  0  0  0
    4.4921    1.1055   -2.0714 H   0  0  0  0  0  0  0  0  0  0  0  0
   -4.5773    2.6044   -0.8022 H   0  0  0  0  0  0  0  0  0  0  0  0
   -4.0333   -1.5575   -1.2265 H   0  0  0  0  0  0  0  0  0  0  0  0
   -2.4154   -2.8600   -1.6813 H   0  0  0  0  0  0  0  0  0  0  0  0
  1  2  1  0
  2  3  2  0
  2  4  1  0
  4  5  2  0
  5  6  1  0
  6  7  1  0
  7  8  2  0
  8  9  1  0
  9 10  2  0
 10 11  1  0
 10 12  1  0
 12 13  2  0
 13 14  1  0
  5 15  1  0
 15 16  2  0
 16 17  1  0
 17 18  1  0
 18 19  2  0
 18 20  1  0
 17 21  2  0
 21 22  1  0
 22 23  1  0
 22 24  2  0
 24 25  1  0
 25 26  2  0
 26 27  1  0
 26  4  1  0
 13  7  1  0
 25 16  1  0
  1 28  1  0
  1 29  1  0
  1 30  1  0
  6 31  1  0
  8 32  1  0
  9 33  1  0
 12 34  1  0
 21 35  1  0
 24 36  1  0
 27 37  1  0
M  CHG  2  18   1  20  -1
M  END
$$$$
