
     RDKit          3D

 61 65  0  0  0  0  0  0  0  0999 V2000
    8.3764    0.8266   -2.8533 C   0  0  0  0  0  0  0  0  0  0  0  0
    7.6776    1.2360   -1.7047 O   0  0  0  0  0  0  0  0  0  0  0  0
    6.8197    0.4397   -0.9640 C   0  0  0  0  0  0  0  0  0  0  0  0
    6.5910   -0.8758   -1.3355 C   0  0  0  0  0  0  0  0  0  0  0  0
    5.7211   -1.6448   -0.5642 C   0  0  0  0  0  0  0  0  0  0  0  0
    5.0950   -1.1323    0.5406 C   0  0  0  0  0  0  0  0  0  0  0  0
    4.1786   -1.9136    1.3811 C   0  0  0  0  0  0  0  0  0  0  0  0
    2.8172   -1.8794    0.8870 N   0  0  0  0  0  0  0  0  0  0  0  0
    2.2403   -2.7824    0.0748 C   0  0  0  0  0  0  0  0  0  0  0  0
    0.9301   -2.4142   -0.1526 C   0  0  0  0  0  0  0  0  0  0  0  0
    0.6954   -1.2519    0.5406 C   0  0  0  0  0  0  0  0  0  0  0  0
   -0.4376   -0.4381    0.6622 C   0  0  0  0  0  0  0  0  0  0  0  0
   -1.6217   -0.7783   -0.0069 N   0  0  0  0  0  0  0  0  0  0  0  0
   -2.7764    0.0341   -0.0232 C   0  0  0  0  0  0  0  0  0  0  0  0
   -3.9616   -0.3899    0.6058 C   0  0  0  0  0  0  0  0  0  0  0  0
   -5.0910    0.3900    0.5218 C   0  0  0  0  0  0  0  0  0  0  0  0
   -6.3184   -0.0903    1.1829 C   0  0  0  0  0  0  0  0  0  0  0  0
   -7.0529    0.7440    1.9401 N   0  0  0  0  0  0  0  0  0  0  0  0
   -8.1775    0.3350    2.5470 C   0  0  0  0  0  0  0  0  0  0  0  0
   -8.6175   -0.9557    2.4133 C   0  0  0  0  0  0  0  0  0  0  0  0
   -7.8943   -1.8624    1.6381 C   0  0  0  0  0  0  0  0  0  0  0  0
   -6.7421   -1.3891    1.0357 C   0  0  0  0  0  0  0  0  0  0  0  0
   -5.9913   -2.2242    0.2667 F   0  0  0  0  0  0  0  0  0  0  0  0
   -5.1163    1.5736   -0.1541 N   0  0  0  0  0  0  0  0  0  0  0  0
   -3.9936    1.9924   -0.7619 C   0  0  0  0  0  0  0  0  0  0  0  0
   -2.8183    1.2254   -0.7008 C   0  0  0  0  0  0  0  0  0  0  0  0
   -1.6307    1.7439   -1.4122 C   0  0  0  0  0  0  0  0  0  0  0  0
   -1.0962    2.9980   -0.8124 C   0  0  0  0  0  0  0  0  0  0  0  0
   -2.1063    2.0223   -2.8482 C   0  0  0  0  0  0  0  0  0  0  0  0
   -0.3472    0.6919    1.4394 C   0  0  0  0  0  0  0  0  0  0  0  0
    0.8589    0.9519    2.0497 C   0  0  0  0  0  0  0  0  0  0  0  0
    1.9502    0.1765    1.9370 N   0  0  0  0  0  0  0  0  0  0  0  0
    1.8839   -0.9463    1.1745 C   0  0  0  0  0  0  0  0  0  0  0  0
    5.3463    0.1813    0.8797 C   0  0  0  0  0  0  0  0  0  0  0  0
    6.1934    0.9856    0.1572 C   0  0  0  0  0  0  0  0  0  0  0  0
    8.9765   -0.0706   -2.6596 H   0  0  0  0  0  0  0  0  0  0  0  0
    8.9984    1.6755   -3.2173 H   0  0  0  0  0  0  0  0  0  0  0  0
    7.6109    0.6243   -3.6389 H   0  0  0  0  0  0  0  0  0  0  0  0
    7.1015   -1.2607   -2.2148 H   0  0  0  0  0  0  0  0  0  0  0  0
    5.5667   -2.6616   -0.8838 H   0  0  0  0  0  0  0  0  0  0  0  0
    4.4829   -3.0014    1.4252 H   0  0  0  0  0  0  0  0  0  0  0  0
    4.1901   -1.5913    2.4481 H   0  0  0  0  0  0  0  0  0  0  0  0
    2.7311   -3.6558   -0.3310 H   0  0  0  0  0  0  0  0  0  0  0  0
    0.1641   -2.8894   -0.7417 H   0  0  0  0  0  0  0  0  0  0  0  0
   -1.6391   -1.7081   -0.5278 H   0  0  0  0  0  0  0  0  0  0  0  0
   -3.9733   -1.3052    1.1386 H   0  0  0  0  0  0  0  0  0  0  0  0
   -8.7809    1.0119    3.1721 H   0  0  0  0  0  0  0  0  0  0  0  0
   -9.5260   -1.2757    2.9040 H   0  0  0  0  0  0  0  0  0  0  0  0
   -8.2223   -2.8881    1.5194 H   0  0  0  0  0  0  0  0  0  0  0  0
   -3.9496    2.9303   -1.3194 H   0  0  0  0  0  0  0  0  0  0  0  0
   -0.8179    0.9868   -1.4802 H   0  0  0  0  0  0  0  0  0  0  0  0
   -1.7496    3.3191    0.0235 H   0  0  0  0  0  0  0  0  0  0  0  0
   -0.0740    2.8503   -0.4211 H   0  0  0  0  0  0  0  0  0  0  0  0
   -0.9962    3.7923   -1.5867 H   0  0  0  0  0  0  0  0  0  0  0  0
   -1.2930    1.7610   -3.5585 H   0  0  0  0  0  0  0  0  0  0  0  0
   -3.0289    1.4780   -3.0893 H   0  0  0  0  0  0  0  0  0  0  0  0
   -2.3295    3.0928   -2.9851 H   0  0  0  0  0  0  0  0  0  0  0  0
   -1.2012    1.3700    1.5760 H   0  0  0  0  0  0  0  0  0  0  0  0
    0.9347    1.8550    2.6727 H   0  0  0  0  0  0  0  0  0  0  0  0
    4.8585    0.6237    1.7621 H   0  0  0  0  0  0  0  0  0  0  0  0
    6.3818    2.0047    0.4325 H   0  0  0  0  0  0  0  0  0  0  0  0
  1  2  1  0
  2  3  1  0
  3  4  2  0
  4  5  1  0
  5  6  2  0
  6  7  1  0
  7  8  1  0
  8  9  1  0
  9 10  2  0
 10 11  1  0
 11 12  2  0
 12 13  1  0
 13 14  1  0
 14 15  2  0
 15 16  1  0
 16 17  1  0
 17 18  2  0
 18 19  1  0
 19 20  2  0
 20 21  1  0
 21 22  2  0
 22 23  1  0
 16 24  2  0
 24 25  1  0
 25 26  2  0
 26 27  1  0
 27 28  1  0
 27 29  1  0
 12 30  1  0
 30 31  2  0
 31 32  1  0
 32 33  2  0
  6 34  1  0
 34 35  2  0
 35  3  1  0
 33  8  1  0
 33 11  1  0
 26 14  1  0
 22 17  1  0
  1 36  1  0
  1 37  1  0
  1 38  1  0
  4 39  1  0
  5 40  1  0
  7 41  1  0
  7 42  1  0
  9 43  1  0
 10 44  1  0
 13 45  1  0
 15 46  1  0
 19 47  1  0
 20 48  1  0
 21 49  1  0
 25 50  1  0
 27 51  1  0
 28 52  1  0
 28 53  1  0
 28 54  1  0
 29 55  1  0
 29 56  1  0
 29 57  1  0
 30 58  1  0
 31 59  1  0
 34 60  1  0
 35 61  1  0
M  END
$$$$
