
     RDKit          3D

 52 55  0  0  0  0  0  0  0  0999 V2000
    7.3046   -1.2014    2.5841 C   0  0  0  0  0  0  0  0  0  0  0  0
    6.5278   -0.6159    1.4682 C   0  0  0  0  0  0  0  0  0  0  0  0
    5.2377   -1.0109    1.2820 C   0  0  0  0  0  0  0  0  0  0  0  0
    4.4727   -0.4951    0.2570 C   0  0  0  0  0  0  0  0  0  0  0  0
    3.0710   -0.8966    0.0207 C   0  0  0  0  0  0  0  0  0  0  0  0
    2.1695    0.1027    0.4606 O   0  0  0  0  0  0  0  0  0  0  0  0
    0.8078   -0.1256    0.3072 C   0  0  0  0  0  0  0  0  0  0  0  0
    0.3287   -1.2923   -0.2581 C   0  0  0  0  0  0  0  0  0  0  0  0
   -1.0501   -1.4419   -0.3750 C   0  0  0  0  0  0  0  0  0  0  0  0
   -1.9237   -0.4758    0.0503 C   0  0  0  0  0  0  0  0  0  0  0  0
   -3.3416   -0.6608   -0.0846 C   0  0  0  0  0  0  0  0  0  0  0  0
   -3.7642   -1.7464   -0.6126 O   0  0  0  0  0  0  0  0  0  0  0  0
   -4.3448    0.2621    0.3188 N   0  0  0  0  0  0  0  0  0  0  0  0
   -5.7575   -0.0116    0.1420 C   0  0  0  0  0  0  0  0  0  0  0  0
   -6.1826   -1.2698    0.8915 C   0  0  0  0  0  0  0  0  0  0  0  0
   -6.1183   -0.1194   -1.2946 C   0  0  0  0  0  0  0  0  0  0  0  0
   -5.3026   -0.2272   -2.2201 O   0  0  0  0  0  0  0  0  0  0  0  0
   -7.5268   -0.0936   -1.5990 N   0  0  0  0  0  0  0  0  0  0  0  0
   -8.4388    0.5512   -0.7224 C   0  0  0  0  0  0  0  0  0  0  0  0
   -9.6860    0.6021   -0.9443 O   0  0  0  0  0  0  0  0  0  0  0  0
   -7.9298    1.1706    0.4627 N   0  0  0  0  0  0  0  0  0  0  0  0
   -6.5342    1.1134    0.7105 C   0  0  0  0  0  0  0  0  0  0  0  0
   -5.9691    1.9813    1.3867 O   0  0  0  0  0  0  0  0  0  0  0  0
   -1.4194    0.6720    0.6077 C   0  0  0  0  0  0  0  0  0  0  0  0
   -0.0467    0.8708    0.7475 C   0  0  0  0  0  0  0  0  0  0  0  0
    5.0699    0.4454   -0.5806 C   0  0  0  0  0  0  0  0  0  0  0  0
    4.3808    0.9998   -1.6136 C   0  0  0  0  0  0  0  0  0  0  0  0
    4.9557    1.9301   -2.4506 C   0  0  0  0  0  0  0  0  0  0  0  0
    6.2651    2.3078   -2.2332 C   0  0  0  0  0  0  0  0  0  0  0  0
    6.9641    1.7427   -1.1821 C   0  0  0  0  0  0  0  0  0  0  0  0
    6.3806    0.8019   -0.3368 C   0  0  0  0  0  0  0  0  0  0  0  0
    7.1010    0.2868    0.6642 N   0  0  0  0  0  0  0  0  0  0  0  0
    6.8925   -2.1960    2.8715 H   0  0  0  0  0  0  0  0  0  0  0  0
    7.2603   -0.5274    3.4404 H   0  0  0  0  0  0  0  0  0  0  0  0
    8.3637   -1.2860    2.2341 H   0  0  0  0  0  0  0  0  0  0  0  0
    4.7929   -1.7438    1.9453 H   0  0  0  0  0  0  0  0  0  0  0  0
    2.8783   -1.2088   -1.0246 H   0  0  0  0  0  0  0  0  0  0  0  0
    2.8792   -1.7953    0.6488 H   0  0  0  0  0  0  0  0  0  0  0  0
    1.0486   -2.0232   -0.5779 H   0  0  0  0  0  0  0  0  0  0  0  0
   -1.3901   -2.3724   -0.8247 H   0  0  0  0  0  0  0  0  0  0  0  0
   -4.0216    1.1544    0.7522 H   0  0  0  0  0  0  0  0  0  0  0  0
   -7.2207   -1.1857    1.2586 H   0  0  0  0  0  0  0  0  0  0  0  0
   -5.9939   -2.1824    0.2944 H   0  0  0  0  0  0  0  0  0  0  0  0
   -5.5113   -1.3287    1.7869 H   0  0  0  0  0  0  0  0  0  0  0  0
   -7.8836   -0.5510   -2.4691 H   0  0  0  0  0  0  0  0  0  0  0  0
   -8.5746    1.6528    1.1274 H   0  0  0  0  0  0  0  0  0  0  0  0
   -2.0409    1.4806    0.9673 H   0  0  0  0  0  0  0  0  0  0  0  0
    0.3217    1.7828    1.1894 H   0  0  0  0  0  0  0  0  0  0  0  0
    3.3592    0.7075   -1.7862 H   0  0  0  0  0  0  0  0  0  0  0  0
    4.4303    2.3854   -3.2782 H   0  0  0  0  0  0  0  0  0  0  0  0
    6.7297    3.0503   -2.8983 H   0  0  0  0  0  0  0  0  0  0  0  0
    7.9797    2.0305   -1.0075 H   0  0  0  0  0  0  0  0  0  0  0  0
  1  2  1  0
  2  3  2  0
  3  4  1  0
  4  5  1  0
  5  6  1  0
  6  7  1  0
  7  8  2  0
  8  9  1  0
  9 10  2  0
 10 11  1  0
 11 12  2  0
 11 13  1  0
 13 14  1  0
 14 15  1  0
 14 16  1  0
 16 17  2  0
 16 18  1  0
 18 19  1  0
 19 20  2  0
 19 21  1  0
 21 22  1  0
 22 23  2  0
 10 24  1  0
 24 25  2  0
  4 26  2  0
 26 27  1  0
 27 28  2  0
 28 29  1  0
 29 30  2  0
 30 31  1  0
 31 32  2  0
 32  2  1  0
 25  7  1  0
 31 26  1  0
 22 14  1  0
  1 33  1  0
  1 34  1  0
  1 35  1  0
  3 36  1  0
  5 37  1  0
  5 38  1  0
  8 39  1  0
  9 40  1  0
 13 41  1  0
 15 42  1  0
 15 43  1  0
 15 44  1  0
 18 45  1  0
 21 46  1  0
 24 47  1  0
 25 48  1  0
 27 49  1  0
 28 50  1  0
 29 51  1  0
 30 52  1  0
M  END
$$$$
