
     RDKit          3D

 24 25  0  0  0  0  0  0  0  0999 V2000
   -0.4320    0.2873    0.5694 C   0  0  1  0  0  0  0  0  0  0  0  0
   -0.2415   -0.9776    1.0922 O   0  0  0  0  0  0  0  0  0  0  0  0
    1.1400   -1.0233    1.2764 C   0  0  0  0  0  0  0  0  0  0  0  0
    1.7058   -0.4519    0.0220 C   0  0  2  0  0  0  0  0  0  0  0  0
    2.8380    0.3412    0.2069 O   0  0  0  0  0  0  0  0  0  0  0  0
    4.0774    0.1867   -0.3043 N   0  0  0  0  0  4  0  0  0  0  0  0
    3.9860    0.6013   -1.6316 O   0  0  0  0  0  1  0  0  0  0  0  0
    5.1576   -0.2325    0.2134 O   0  0  0  0  0  0  0  0  0  0  0  0
    0.5426    0.2668   -0.5988 C   0  0  1  0  0  0  0  0  0  0  0  0
   -0.0580   -0.4659   -1.5983 O   0  0  0  0  0  0  0  0  0  0  0  0
   -1.3941   -0.6716   -1.2809 C   0  0  0  0  0  0  0  0  0  0  0  0
   -1.7353    0.3722   -0.2373 C   0  0  1  0  0  0  0  0  0  0  0  0
   -2.8630    0.0653    0.5145 O   0  0  0  0  0  0  0  0  0  0  0  0
   -3.8678    0.9936    0.6222 N   0  0  0  0  0  4  0  0  0  0  0  0
   -4.3310    2.0642   -0.1233 O   0  0  0  0  0  1  0  0  0  0  0  0
   -4.5726    0.8664    1.6605 O   0  0  0  0  0  0  0  0  0  0  0  0
   -0.2951    1.1173    1.2523 H   0  0  0  0  0  0  0  0  0  0  0  0
    1.3672   -0.3845    2.1541 H   0  0  0  0  0  0  0  0  0  0  0  0
    1.5077   -2.0658    1.4180 H   0  0  0  0  0  0  0  0  0  0  0  0
    1.9786   -1.2922   -0.6533 H   0  0  0  0  0  0  0  0  0  0  0  0
    0.7206    1.2965   -0.8959 H   0  0  0  0  0  0  0  0  0  0  0  0
   -1.4914   -1.6705   -0.7753 H   0  0  0  0  0  0  0  0  0  0  0  0
   -1.9935   -0.5951   -2.2036 H   0  0  0  0  0  0  0  0  0  0  0  0
   -1.7463    1.3720   -0.6994 H   0  0  0  0  0  0  0  0  0  0  0  0
  1  2  1  0
  2  3  1  0
  3  4  1  0
  4  5  1  0
  5  6  1  0
  6  7  1  0
  6  8  2  0
  4  9  1  0
  9 10  1  0
 10 11  1  0
 11 12  1  0
 12 13  1  0
 13 14  1  0
 14 15  1  0
 14 16  2  0
  9  1  1  0
 12  1  1  0
  1 17  1  1
  3 18  1  0
  3 19  1  0
  4 20  1  6
  9 21  1  6
 11 22  1  0
 11 23  1  0
 12 24  1  6
M  CHG  4   6   1   7  -1  14   1  15  -1
M  END
$$$$
