
     RDKit          3D

 46 49  0  0  0  0  0  0  0  0999 V2000
   -4.1149   -3.0627   -0.5709 C   0  0  0  0  0  0  0  0  0  0  0  0
   -2.6651   -3.5037   -0.3102 C   0  0  0  0  0  0  0  0  0  0  0  0
   -2.3521   -3.3397    1.0078 O   0  0  0  0  0  0  0  0  0  0  0  0
   -1.7366   -2.7825   -1.2508 C   0  0  0  0  0  0  0  0  0  0  0  0
   -1.7985   -1.3369   -1.1007 N   0  0  0  0  0  0  0  0  0  0  0  0
   -2.8124   -0.6569   -1.7208 C   0  0  0  0  0  0  0  0  0  0  0  0
   -2.7307    0.6485   -1.4549 N   0  0  0  0  0  0  0  0  0  0  0  0
   -1.6658    0.8010   -0.6670 C   0  0  0  0  0  0  0  0  0  0  0  0
   -1.2009    2.0752   -0.1487 C   0  0  0  0  0  0  0  0  0  0  0  0
   -0.7418    3.0057   -1.0684 C   0  0  0  0  0  0  0  0  0  0  0  0
   -0.2777    4.2368   -0.6831 C   0  0  0  0  0  0  0  0  0  0  0  0
   -0.2584    4.5787    0.6538 C   0  0  0  0  0  0  0  0  0  0  0  0
    0.2027    5.8102    1.0712 F   0  0  0  0  0  0  0  0  0  0  0  0
   -0.7117    3.6664    1.5848 C   0  0  0  0  0  0  0  0  0  0  0  0
   -1.1811    2.4199    1.1788 C   0  0  0  0  0  0  0  0  0  0  0  0
   -1.0774   -0.4556   -0.4440 C   0  0  0  0  0  0  0  0  0  0  0  0
    0.1205   -0.6193    0.3356 C   0  0  0  0  0  0  0  0  0  0  0  0
    0.1359   -1.1716    1.5848 C   0  0  0  0  0  0  0  0  0  0  0  0
    1.3290   -1.2594    2.2815 C   0  0  0  0  0  0  0  0  0  0  0  0
    2.5193   -0.7987    1.7433 C   0  0  0  0  0  0  0  0  0  0  0  0
    3.7789   -0.7613    2.2282 N   0  0  0  0  0  0  0  0  0  0  0  0
    4.5809   -0.1899    1.3104 C   0  0  0  0  0  0  0  0  0  0  0  0
    3.7709    0.1239    0.2387 C   0  0  0  0  0  0  0  0  0  0  0  0
    4.2790    0.7822   -0.9605 C   0  0  0  0  0  0  0  0  0  0  0  0
    5.6033    1.2891   -1.0563 N   0  0  0  0  0  0  0  0  0  0  0  0
    3.5451    0.9334   -1.9878 O   0  0  0  0  0  0  0  0  0  0  0  0
    2.4998   -0.2466    0.4924 N   0  0  0  0  0  0  0  0  0  0  0  0
    1.3432   -0.1624   -0.1829 C   0  0  0  0  0  0  0  0  0  0  0  0
   -4.4137   -3.2050   -1.6211 H   0  0  0  0  0  0  0  0  0  0  0  0
   -4.2339   -2.0001   -0.2343 H   0  0  0  0  0  0  0  0  0  0  0  0
   -4.8155   -3.6471    0.0536 H   0  0  0  0  0  0  0  0  0  0  0  0
   -2.6717   -4.6081   -0.6031 H   0  0  0  0  0  0  0  0  0  0  0  0
   -2.8313   -2.6205    1.4812 H   0  0  0  0  0  0  0  0  0  0  0  0
   -0.7042   -3.1531   -0.9797 H   0  0  0  0  0  0  0  0  0  0  0  0
   -2.0223   -3.0946   -2.2825 H   0  0  0  0  0  0  0  0  0  0  0  0
   -3.6009   -1.0710   -2.3558 H   0  0  0  0  0  0  0  0  0  0  0  0
   -0.7472    2.7565   -2.1317 H   0  0  0  0  0  0  0  0  0  0  0  0
    0.0816    4.9547   -1.4241 H   0  0  0  0  0  0  0  0  0  0  0  0
   -0.6791    3.9740    2.6331 H   0  0  0  0  0  0  0  0  0  0  0  0
   -1.5319    1.7229    1.9229 H   0  0  0  0  0  0  0  0  0  0  0  0
   -0.7712   -1.5462    2.0837 H   0  0  0  0  0  0  0  0  0  0  0  0
    1.3401   -1.6991    3.2697 H   0  0  0  0  0  0  0  0  0  0  0  0
    5.6658   -0.0173    1.4179 H   0  0  0  0  0  0  0  0  0  0  0  0
    5.9978    1.7967   -0.2388 H   0  0  0  0  0  0  0  0  0  0  0  0
    6.1368    1.1397   -1.9280 H   0  0  0  0  0  0  0  0  0  0  0  0
    1.4177    0.2943   -1.1670 H   0  0  0  0  0  0  0  0  0  0  0  0
  1  2  1  0
  2  3  1  0
  2  4  1  0
  4  5  1  0
  5  6  1  0
  6  7  2  0
  7  8  1  0
  8  9  1  0
  9 10  2  0
 10 11  1  0
 11 12  2  0
 12 13  1  0
 12 14  1  0
 14 15  2  0
  8 16  2  0
 16 17  1  0
 17 18  1  0
 18 19  2  0
 19 20  1  0
 20 21  2  0
 21 22  1  0
 22 23  2  0
 23 24  1  0
 24 25  1  0
 24 26  2  0
 23 27  1  0
 27 28  1  0
 16  5  1  0
 28 17  2  0
 15  9  1  0
 27 20  1  0
  1 29  1  0
  1 30  1  0
  1 31  1  0
  2 32  1  0
  3 33  1  0
  4 34  1  0
  4 35  1  0
  6 36  1  0
 10 37  1  0
 11 38  1  0
 14 39  1  0
 15 40  1  0
 18 41  1  0
 19 42  1  0
 22 43  1  0
 25 44  1  0
 25 45  1  0
 28 46  1  0
M  END
$$$$
