
     RDKit          3D

 50 53  0  0  0  0  0  0  0  0999 V2000
   -3.8303    0.3068    1.5480 O   0  0  0  0  0  0  0  0  0  0  0  0
   -3.4027   -0.4543    0.6725 C   0  0  0  0  0  0  0  0  0  0  0  0
   -4.2614   -1.3729    0.0352 N   0  0  0  0  0  0  0  0  0  0  0  0
   -5.6608   -1.5111    0.2915 C   0  0  0  0  0  0  0  0  0  0  0  0
   -6.4776   -0.3694   -0.1159 C   0  0  2  0  0  0  0  0  0  0  0  0
   -6.2686    0.9827    0.4584 C   0  0  0  0  0  0  0  0  0  0  0  0
   -7.6238    1.6206   -0.0119 C   0  0  0  0  0  0  0  0  0  0  0  0
   -8.5085    0.6688    0.4176 O   0  0  0  0  0  0  0  0  0  0  0  0
   -7.9625   -0.5710    0.2267 C   0  0  0  0  0  0  0  0  0  0  0  0
   -1.9633   -0.3467    0.3387 C   0  0  0  0  0  0  0  0  0  0  0  0
   -1.3575   -1.1225   -0.6147 C   0  0  0  0  0  0  0  0  0  0  0  0
    0.0103   -0.9821   -0.8935 C   0  0  0  0  0  0  0  0  0  0  0  0
    0.7896   -0.0678   -0.2259 C   0  0  0  0  0  0  0  0  0  0  0  0
    2.1882    0.0821   -0.5046 N   0  0  0  0  0  0  0  0  0  0  0  0
    3.1243   -0.6991    0.2228 C   0  0  0  0  0  0  0  0  0  0  0  0
    2.7126   -1.5060    1.0957 O   0  0  0  0  0  0  0  0  0  0  0  0
    4.5000   -0.5696   -0.0327 N   0  0  0  0  0  0  0  0  0  0  0  0
    5.1132    0.3017   -0.9903 C   0  0  0  0  0  0  0  0  0  0  0  0
    6.3807    0.7010   -0.3377 C   0  0  0  0  0  0  0  0  0  0  0  0
    7.2542    1.7656   -0.5119 C   0  0  0  0  0  0  0  0  0  0  0  0
    8.3678    1.8567    0.2601 C   0  0  0  0  0  0  0  0  0  0  0  0
    8.6511    0.9171    1.2125 C   0  0  0  0  0  0  0  0  0  0  0  0
    7.7876   -0.1508    1.3970 C   0  0  0  0  0  0  0  0  0  0  0  0
    6.6570   -0.2494    0.6181 C   0  0  0  0  0  0  0  0  0  0  0  0
    5.5699   -1.2847    0.6143 C   0  0  0  0  0  0  0  0  0  0  0  0
    0.1821    0.7134    0.7334 C   0  0  0  0  0  0  0  0  0  0  0  0
   -1.1653    0.5680    1.0010 C   0  0  0  0  0  0  0  0  0  0  0  0
   -3.8190   -2.0334   -0.7163 H   0  0  0  0  0  0  0  0  0  0  0  0
   -6.0625   -2.4174   -0.2385 H   0  0  0  0  0  0  0  0  0  0  0  0
   -5.8123   -1.6636    1.4002 H   0  0  0  0  0  0  0  0  0  0  0  0
   -6.4342   -0.2070   -1.2567 H   0  0  0  0  0  0  0  0  0  0  0  0
   -6.3416    1.0690    1.5457 H   0  0  0  0  0  0  0  0  0  0  0  0
   -5.4576    1.5842   -0.0132 H   0  0  0  0  0  0  0  0  0  0  0  0
   -7.5664    1.6131   -1.1064 H   0  0  0  0  0  0  0  0  0  0  0  0
   -7.7537    2.5987    0.4498 H   0  0  0  0  0  0  0  0  0  0  0  0
   -7.9736   -1.1081    1.1990 H   0  0  0  0  0  0  0  0  0  0  0  0
   -8.4512   -1.1857   -0.5402 H   0  0  0  0  0  0  0  0  0  0  0  0
   -1.9289   -1.8518   -1.1631 H   0  0  0  0  0  0  0  0  0  0  0  0
    0.4737   -1.5946   -1.6417 H   0  0  0  0  0  0  0  0  0  0  0  0
    2.4863    0.7659   -1.2399 H   0  0  0  0  0  0  0  0  0  0  0  0
    4.4842    1.1781   -1.2568 H   0  0  0  0  0  0  0  0  0  0  0  0
    5.3361   -0.2515   -1.9480 H   0  0  0  0  0  0  0  0  0  0  0  0
    6.9917    2.4976   -1.2856 H   0  0  0  0  0  0  0  0  0  0  0  0
    9.0530    2.6939    0.1217 H   0  0  0  0  0  0  0  0  0  0  0  0
    9.5474    1.0049    1.8224 H   0  0  0  0  0  0  0  0  0  0  0  0
    8.0327   -0.8908    2.1637 H   0  0  0  0  0  0  0  0  0  0  0  0
    5.3524   -1.4890    1.6999 H   0  0  0  0  0  0  0  0  0  0  0  0
    5.9053   -2.1743    0.0783 H   0  0  0  0  0  0  0  0  0  0  0  0
    0.7810    1.4459    1.2761 H   0  0  0  0  0  0  0  0  0  0  0  0
   -1.6492    1.1890    1.7639 H   0  0  0  0  0  0  0  0  0  0  0  0
  1  2  2  0
  2  3  1  0
  3  4  1  0
  4  5  1  0
  5  6  1  0
  6  7  1  0
  7  8  1  0
  8  9  1  0
  2 10  1  0
 10 11  2  0
 11 12  1  0
 12 13  2  0
 13 14  1  0
 14 15  1  0
 15 16  2  0
 15 17  1  0
 17 18  1  0
 18 19  1  0
 19 20  2  0
 20 21  1  0
 21 22  2  0
 22 23  1  0
 23 24  2  0
 24 25  1  0
 13 26  1  0
 26 27  2  0
  9  5  1  0
 27 10  1  0
 25 17  1  0
 24 19  1  0
  3 28  1  0
  4 29  1  0
  4 30  1  0
  5 31  1  6
  6 32  1  0
  6 33  1  0
  7 34  1  0
  7 35  1  0
  9 36  1  0
  9 37  1  0
 11 38  1  0
 12 39  1  0
 14 40  1  0
 18 41  1  0
 18 42  1  0
 20 43  1  0
 21 44  1  0
 22 45  1  0
 23 46  1  0
 25 47  1  0
 25 48  1  0
 26 49  1  0
 27 50  1  0
M  END
$$$$
