
     RDKit          3D

 54 57  0  0  0  0  0  0  0  0999 V2000
   -5.8020    1.7336    1.5165 C   0  0  0  0  0  0  0  0  0  0  0  0
   -5.0596    1.9586    0.2578 C   0  0  0  0  0  0  0  0  0  0  0  0
   -5.1752    3.0610   -0.3262 O   0  0  0  0  0  0  0  0  0  0  0  0
   -4.2221    0.9575   -0.3020 N   0  0  0  0  0  0  0  0  0  0  0  0
   -4.1145   -0.2982    0.3936 C   0  0  0  0  0  0  0  0  0  0  0  0
   -2.6478   -0.5534    0.7249 C   0  0  0  0  0  0  0  0  0  0  0  0
   -1.8453   -0.5075   -0.4862 N   0  0  0  0  0  0  0  0  0  0  0  0
   -0.5903   -1.1473   -0.4936 C   0  0  0  0  0  0  0  0  0  0  0  0
    0.5977   -0.5021   -0.1329 C   0  0  0  0  0  0  0  0  0  0  0  0
    1.8052   -1.1684   -0.1540 C   0  0  0  0  0  0  0  0  0  0  0  0
    3.0573   -0.5017    0.2207 C   0  0  0  0  0  0  0  0  0  0  0  0
    3.4883    0.7493   -0.1679 C   0  0  0  0  0  0  0  0  0  0  0  0
    4.7249    1.0353    0.3894 C   0  0  0  0  0  0  0  0  0  0  0  0
    5.5392    2.2847    0.2189 C   0  0  0  0  0  0  0  0  0  0  0  0
    6.7633    2.0187   -0.3379 F   0  0  0  0  0  0  0  0  0  0  0  0
    5.6163    2.9498    1.4217 F   0  0  0  0  0  0  0  0  0  0  0  0
    4.8577    3.0934   -0.6821 F   0  0  0  0  0  0  0  0  0  0  0  0
    5.0346   -0.0855    1.1328 C   0  0  0  0  0  0  0  0  0  0  0  0
    6.1521   -0.3744    1.9139 C   0  0  0  0  0  0  0  0  0  0  0  0
    7.2240    0.5220    2.0687 N   0  0  0  0  0  0  0  0  0  0  0  0
    6.1772   -1.5731    2.5353 N   0  0  0  0  0  0  0  0  0  0  0  0
    5.1901   -2.4638    2.4258 C   0  0  0  0  0  0  0  0  0  0  0  0
    4.1256   -2.1436    1.6589 N   0  0  0  0  0  0  0  0  0  0  0  0
    4.0366   -0.9846    1.0213 N   0  0  0  0  0  0  0  0  0  0  0  0
    1.7891   -2.4929   -0.5445 C   0  0  0  0  0  0  0  0  0  0  0  0
    0.6512   -3.1712   -0.9076 C   0  0  0  0  0  0  0  0  0  0  0  0
   -0.5594   -2.4770   -0.8788 C   0  0  0  0  0  0  0  0  0  0  0  0
   -1.7722   -3.1488   -1.2502 C   0  0  0  0  0  0  0  0  0  0  0  0
   -2.7700   -3.6910   -1.5535 N   0  0  0  0  0  0  0  0  0  0  0  0
   -2.3541    0.1767   -1.6171 C   0  0  0  0  0  0  0  0  0  0  0  0
   -1.8362   -0.0343   -2.7364 O   0  0  0  0  0  0  0  0  0  0  0  0
   -3.4821    1.1388   -1.5294 C   0  0  0  0  0  0  0  0  0  0  0  0
   -4.4387    0.9595   -2.6877 C   0  0  0  0  0  0  0  0  0  0  0  0
   -2.9811    2.5724   -1.5795 C   0  0  0  0  0  0  0  0  0  0  0  0
   -5.1009    1.5307    2.3700 H   0  0  0  0  0  0  0  0  0  0  0  0
   -6.4756    2.5797    1.7513 H   0  0  0  0  0  0  0  0  0  0  0  0
   -6.3967    0.7783    1.4268 H   0  0  0  0  0  0  0  0  0  0  0  0
   -4.6571   -0.2903    1.3601 H   0  0  0  0  0  0  0  0  0  0  0  0
   -4.4590   -1.1146   -0.2770 H   0  0  0  0  0  0  0  0  0  0  0  0
   -2.6071   -1.5529    1.2077 H   0  0  0  0  0  0  0  0  0  0  0  0
   -2.3004    0.1889    1.4761 H   0  0  0  0  0  0  0  0  0  0  0  0
    0.5364    0.5249    0.1592 H   0  0  0  0  0  0  0  0  0  0  0  0
    2.9273    1.4248   -0.8285 H   0  0  0  0  0  0  0  0  0  0  0  0
    8.0888    0.5428    1.4916 H   0  0  0  0  0  0  0  0  0  0  0  0
    7.1508    1.2333    2.8308 H   0  0  0  0  0  0  0  0  0  0  0  0
    5.2725   -3.4132    2.9535 H   0  0  0  0  0  0  0  0  0  0  0  0
    2.7559   -2.9916   -0.5512 H   0  0  0  0  0  0  0  0  0  0  0  0
    0.6603   -4.2195   -1.2135 H   0  0  0  0  0  0  0  0  0  0  0  0
   -5.3792    1.4834   -2.4893 H   0  0  0  0  0  0  0  0  0  0  0  0
   -3.9829    1.3822   -3.6045 H   0  0  0  0  0  0  0  0  0  0  0  0
   -4.6864   -0.1108   -2.8441 H   0  0  0  0  0  0  0  0  0  0  0  0
   -2.8643    2.9249   -0.5550 H   0  0  0  0  0  0  0  0  0  0  0  0
   -3.6875    3.2082   -2.1093 H   0  0  0  0  0  0  0  0  0  0  0  0
   -1.9746    2.6178   -2.0876 H   0  0  0  0  0  0  0  0  0  0  0  0
  1  2  1  0
  2  3  2  0
  2  4  1  0
  4  5  1  0
  5  6  1  0
  6  7  1  0
  7  8  1  0
  8  9  2  0
  9 10  1  0
 10 11  1  0
 11 12  2  0
 12 13  1  0
 13 14  1  0
 14 15  1  0
 14 16  1  0
 14 17  1  0
 13 18  2  0
 18 19  1  0
 19 20  1  0
 19 21  2  0
 21 22  1  0
 22 23  2  0
 23 24  1  0
 10 25  2  0
 25 26  1  0
 26 27  2  0
 27 28  1  0
 28 29  3  0
  7 30  1  0
 30 31  2  0
 30 32  1  0
 32 33  1  0
 32 34  1  0
 32  4  1  0
 27  8  1  0
 24 11  1  0
 24 18  1  0
  1 35  1  0
  1 36  1  0
  1 37  1  0
  5 38  1  0
  5 39  1  0
  6 40  1  0
  6 41  1  0
  9 42  1  0
 12 43  1  0
 20 44  1  0
 20 45  1  0
 22 46  1  0
 25 47  1  0
 26 48  1  0
 33 49  1  0
 33 50  1  0
 33 51  1  0
 34 52  1  0
 34 53  1  0
 34 54  1  0
M  END
$$$$
