
     RDKit          3D

 71 75  0  0  0  0  0  0  0  0999 V2000
   -1.4451    0.2035   -1.3657 C   0  0  2  0  0  0  0  0  0  0  0  0
   -0.0804   -0.2685   -1.3647 N   0  0  0  0  0  0  0  0  0  0  0  0
    0.3761   -0.1034   -0.1686 C   0  0  0  0  0  0  0  0  0  0  0  0
   -0.6057    0.4635    0.6819 N   0  0  0  0  0  0  0  0  0  0  0  0
   -0.3411    1.2799    1.8186 C   0  0  0  0  0  0  0  0  0  0  0  0
    0.9056    1.4713    2.0611 O   0  0  0  0  0  0  0  0  0  0  0  0
   -1.3215    1.8730    2.6631 N   0  0  0  0  0  0  0  0  0  0  0  0
   -2.7737    1.8432    2.6566 C   0  0  0  0  0  0  0  0  0  0  0  0
   -3.2826    2.5982    3.8626 C   0  0  0  0  0  0  0  0  0  0  0  0
   -2.9064    3.9871    3.7314 N   0  0  0  0  0  0  0  0  0  0  0  0
   -1.4720    4.0892    3.6951 C   0  0  0  0  0  0  0  0  0  0  0  0
   -0.8239    2.6980    3.7657 C   0  0  0  0  0  0  0  0  0  0  0  0
   -1.8472   -0.0301    0.0563 C   0  0  2  0  0  0  0  0  0  0  0  0
   -2.0872   -1.4383    0.4294 C   0  0  0  0  0  0  0  0  0  0  0  0
   -3.3005   -1.7711    1.0548 C   0  0  0  0  0  0  0  0  0  0  0  0
   -3.7233   -3.0222    1.4731 C   0  0  0  0  0  0  0  0  0  0  0  0
   -2.8198   -4.0182    1.2270 C   0  0  0  0  0  0  0  0  0  0  0  0
   -3.2561   -5.6500    1.7187 Cl  0  0  0  0  0  0  0  0  0  0  0  0
   -1.6016   -3.8308    0.6247 C   0  0  0  0  0  0  0  0  0  0  0  0
   -1.2936   -2.5407    0.2535 C   0  0  0  0  0  0  0  0  0  0  0  0
    1.7697   -0.4537    0.2119 C   0  0  0  0  0  0  0  0  0  0  0  0
    2.9015   -0.2062   -0.5834 C   0  0  0  0  0  0  0  0  0  0  0  0
    2.6896    0.4032   -1.7788 O   0  0  0  0  0  0  0  0  0  0  0  0
    3.6182    0.7810   -2.7477 C   0  0  0  0  0  0  0  0  0  0  0  0
    3.7601    2.3030   -2.8314 C   0  0  0  0  0  0  0  0  0  0  0  0
    3.3201    0.2970   -4.1430 C   0  0  0  0  0  0  0  0  0  0  0  0
    4.1354   -0.5893   -0.1123 C   0  0  0  0  0  0  0  0  0  0  0  0
    4.3424   -1.2063    1.1023 C   0  0  0  0  0  0  0  0  0  0  0  0
    5.5565   -1.6141    1.6230 O   0  0  0  0  0  0  0  0  0  0  0  0
    6.7836   -1.4583    0.9810 C   0  0  0  0  0  0  0  0  0  0  0  0
    3.2530   -1.4675    1.9212 C   0  0  0  0  0  0  0  0  0  0  0  0
    2.0277   -1.0818    1.4407 C   0  0  0  0  0  0  0  0  0  0  0  0
   -2.2972   -0.4136   -2.3901 C   0  0  0  0  0  0  0  0  0  0  0  0
   -3.5989   -0.8674   -2.4121 C   0  0  0  0  0  0  0  0  0  0  0  0
   -4.1646   -1.4300   -3.5367 C   0  0  0  0  0  0  0  0  0  0  0  0
   -3.4363   -1.5657   -4.7125 C   0  0  0  0  0  0  0  0  0  0  0  0
   -4.3341   -2.2993   -6.0212 Cl  0  0  0  0  0  0  0  0  0  0  0  0
   -2.1342   -1.1240   -4.7276 C   0  0  0  0  0  0  0  0  0  0  0  0
   -1.5799   -0.5602   -3.5864 C   0  0  0  0  0  0  0  0  0  0  0  0
   -1.4677    1.3214   -1.4985 H   0  0  0  0  0  0  0  0  0  0  0  0
   -3.1620    2.4414    1.7755 H   0  0  0  0  0  0  0  0  0  0  0  0
   -3.1935    0.8167    2.6675 H   0  0  0  0  0  0  0  0  0  0  0  0
   -2.9494    2.1726    4.8168 H   0  0  0  0  0  0  0  0  0  0  0  0
   -4.4165    2.5794    3.8544 H   0  0  0  0  0  0  0  0  0  0  0  0
   -3.3383    4.5797    4.4927 H   0  0  0  0  0  0  0  0  0  0  0  0
   -1.1160    4.6451    4.5721 H   0  0  0  0  0  0  0  0  0  0  0  0
   -1.1478    4.6202    2.7919 H   0  0  0  0  0  0  0  0  0  0  0  0
    0.2769    2.9211    3.6518 H   0  0  0  0  0  0  0  0  0  0  0  0
   -0.9344    2.2449    4.7496 H   0  0  0  0  0  0  0  0  0  0  0  0
   -2.7004    0.6190    0.3388 H   0  0  0  0  0  0  0  0  0  0  0  0
   -4.0015   -0.9365    1.2372 H   0  0  0  0  0  0  0  0  0  0  0  0
   -4.6892   -3.1273    1.9435 H   0  0  0  0  0  0  0  0  0  0  0  0
   -0.8960   -4.6238    0.4369 H   0  0  0  0  0  0  0  0  0  0  0  0
   -0.3424   -2.3847   -0.2279 H   0  0  0  0  0  0  0  0  0  0  0  0
    4.6312    0.4017   -2.4458 H   0  0  0  0  0  0  0  0  0  0  0  0
    4.2698    2.5152   -3.7930 H   0  0  0  0  0  0  0  0  0  0  0  0
    2.7517    2.7674   -2.8991 H   0  0  0  0  0  0  0  0  0  0  0  0
    4.3847    2.7139   -2.0335 H   0  0  0  0  0  0  0  0  0  0  0  0
    2.7497   -0.6597   -4.0442 H   0  0  0  0  0  0  0  0  0  0  0  0
    2.6593    0.9793   -4.7196 H   0  0  0  0  0  0  0  0  0  0  0  0
    4.2557    0.0633   -4.7005 H   0  0  0  0  0  0  0  0  0  0  0  0
    5.0340   -0.4292   -0.6736 H   0  0  0  0  0  0  0  0  0  0  0  0
    6.7405   -1.4713   -0.1207 H   0  0  0  0  0  0  0  0  0  0  0  0
    7.4553   -2.3239    1.2491 H   0  0  0  0  0  0  0  0  0  0  0  0
    7.3062   -0.5526    1.3811 H   0  0  0  0  0  0  0  0  0  0  0  0
    3.2436   -1.9431    2.9020 H   0  0  0  0  0  0  0  0  0  0  0  0
    1.1226   -1.2574    2.0302 H   0  0  0  0  0  0  0  0  0  0  0  0
   -4.0777   -0.7110   -1.4562 H   0  0  0  0  0  0  0  0  0  0  0  0
   -5.1983   -1.7404   -3.4089 H   0  0  0  0  0  0  0  0  0  0  0  0
   -1.6275   -1.2544   -5.6638 H   0  0  0  0  0  0  0  0  0  0  0  0
   -0.5348   -0.2676   -3.7772 H   0  0  0  0  0  0  0  0  0  0  0  0
  1  2  1  0
  2  3  2  0
  3  4  1  0
  4  5  1  0
  5  6  2  0
  5  7  1  0
  7  8  1  0
  8  9  1  0
  9 10  1  0
 10 11  1  0
 11 12  1  0
  4 13  1  0
 13 14  1  0
 14 15  2  0
 15 16  1  0
 16 17  2  0
 17 18  1  0
 17 19  1  0
 19 20  2  0
  3 21  1  0
 21 22  2  0
 22 23  1  0
 23 24  1  0
 24 25  1  0
 24 26  1  0
 22 27  1  0
 27 28  2  0
 28 29  1  0
 29 30  1  0
 28 31  1  0
 31 32  2  0
  1 33  1  0
 33 34  2  0
 34 35  1  0
 35 36  2  0
 36 37  1  0
 36 38  1  0
 38 39  2  0
 13  1  1  0
 20 14  1  0
 32 21  1  0
 39 33  1  0
 12  7  1  0
  1 40  1  6
  8 41  1  0
  8 42  1  0
  9 43  1  0
  9 44  1  0
 10 45  1  0
 11 46  1  0
 11 47  1  0
 12 48  1  0
 12 49  1  0
 13 50  1  1
 15 51  1  0
 16 52  1  0
 19 53  1  0
 20 54  1  0
 24 55  1  0
 25 56  1  0
 25 57  1  0
 25 58  1  0
 26 59  1  0
 26 60  1  0
 26 61  1  0
 27 62  1  0
 30 63  1  0
 30 64  1  0
 30 65  1  0
 31 66  1  0
 32 67  1  0
 34 68  1  0
 35 69  1  0
 38 70  1  0
 39 71  1  0
M  END
$$$$
