
     RDKit          3D

 78 83  0  0  0  0  0  0  0  0999 V2000
   -2.9913   -1.9646    1.3923 O   0  0  0  0  0  0  0  0  0  0  0  0
   -2.9149   -1.2255    0.3740 C   0  0  0  0  0  0  0  0  0  0  0  0
   -4.0386   -1.2701   -0.6266 C   0  0  0  0  0  0  0  0  0  0  0  0
   -4.6780    0.0754   -0.7082 C   0  0  0  0  0  0  0  0  0  0  0  0
   -6.1673    0.0915   -0.6464 C   0  0  0  0  0  0  0  0  0  0  0  0
   -6.7687   -0.9119    0.1684 N   0  0  0  0  0  0  0  0  0  0  0  0
   -8.1628   -0.8637    0.4296 C   0  0  0  0  0  0  0  0  0  0  0  0
   -8.9357    0.1613   -0.0483 C   0  0  0  0  0  0  0  0  0  0  0  0
  -10.2946    0.2195    0.1971 C   0  0  0  0  0  0  0  0  0  0  0  0
  -11.1128    1.3408   -0.3305 C   0  0  0  0  0  0  0  0  0  0  0  0
  -10.8017    2.5414    0.2825 F   0  0  0  0  0  0  0  0  0  0  0  0
  -10.9345    1.4872   -1.6911 F   0  0  0  0  0  0  0  0  0  0  0  0
  -12.4560    1.0782   -0.0862 F   0  0  0  0  0  0  0  0  0  0  0  0
  -10.8399   -0.7739    0.9280 N   0  0  0  0  0  0  0  0  0  0  0  0
  -10.1009   -1.8059    1.4176 C   0  0  0  0  0  0  0  0  0  0  0  0
   -8.7882   -1.8249    1.1574 N   0  0  0  0  0  0  0  0  0  0  0  0
   -5.9981   -1.9875    0.7433 C   0  0  0  0  0  0  0  0  0  0  0  0
   -4.9714   -2.3936   -0.2676 C   0  0  0  0  0  0  0  0  0  0  0  0
   -1.7954   -0.3768    0.1812 N   0  0  0  0  0  0  0  0  0  0  0  0
   -0.6723   -0.2791    1.1166 C   0  0  0  0  0  0  0  0  0  0  0  0
    0.4620   -0.3168    0.0971 C   0  0  0  0  0  0  0  0  0  0  0  0
    0.0562    0.5782   -1.0110 C   0  0  2  0  0  0  0  0  0  0  0  0
    0.3838    1.9223   -1.0151 N   0  0  0  0  0  0  0  0  0  0  0  0
    1.6791    2.4507   -0.9577 C   0  0  1  0  0  0  0  0  0  0  0  0
    2.2109    2.3891    0.4246 C   0  0  0  0  0  0  0  0  0  0  0  0
    3.5510    1.8173    0.6580 C   0  0  0  0  0  0  0  0  0  0  0  0
    4.4256    1.6076   -0.5200 C   0  0  1  0  0  0  0  0  0  0  0  0
    4.7249    2.8645   -1.0997 O   0  0  0  0  0  0  0  0  0  0  0  0
    5.6639    0.8709   -0.2118 C   0  0  0  0  0  0  0  0  0  0  0  0
    5.9800    0.4403    1.0534 C   0  0  0  0  0  0  0  0  0  0  0  0
    7.1526   -0.2565    1.3196 C   0  0  0  0  0  0  0  0  0  0  0  0
    8.0281   -0.5274    0.2929 C   0  0  0  0  0  0  0  0  0  0  0  0
    9.2709   -1.2520    0.4923 C   0  0  0  0  0  0  0  0  0  0  0  0
   10.0937   -1.4941   -0.5421 N   0  0  0  0  0  0  0  0  0  0  0  0
   11.2585   -2.1646   -0.3886 C   0  0  0  0  0  0  0  0  0  0  0  0
   11.6222   -2.6180    0.8628 C   0  0  0  0  0  0  0  0  0  0  0  0
   10.7697   -2.3640    1.9189 C   0  0  0  0  0  0  0  0  0  0  0  0
    9.6206   -1.6915    1.7136 N   0  0  0  0  0  0  0  0  0  0  0  0
    7.6775   -0.0810   -0.9564 C   0  0  0  0  0  0  0  0  0  0  0  0
    6.5366    0.5920   -1.1907 N   0  0  0  0  0  0  0  0  0  0  0  0
    3.5639    0.8936   -1.5715 C   0  0  0  0  0  0  0  0  0  0  0  0
    2.6056    1.9636   -2.0454 C   0  0  0  0  0  0  0  0  0  0  0  0
   -1.4870    0.5212   -0.8866 C   0  0  0  0  0  0  0  0  0  0  0  0
   -3.5701   -1.5536   -1.6085 H   0  0  0  0  0  0  0  0  0  0  0  0
   -4.2435    0.7531    0.0582 H   0  0  0  0  0  0  0  0  0  0  0  0
   -4.3865    0.5385   -1.6950 H   0  0  0  0  0  0  0  0  0  0  0  0
   -6.4562    1.0827   -0.1823 H   0  0  0  0  0  0  0  0  0  0  0  0
   -6.6277    0.1237   -1.6632 H   0  0  0  0  0  0  0  0  0  0  0  0
   -8.5150    0.9790   -0.6429 H   0  0  0  0  0  0  0  0  0  0  0  0
  -10.5762   -2.5883    2.0041 H   0  0  0  0  0  0  0  0  0  0  0  0
   -6.6286   -2.8819    0.9605 H   0  0  0  0  0  0  0  0  0  0  0  0
   -5.5699   -1.6661    1.7107 H   0  0  0  0  0  0  0  0  0  0  0  0
   -4.3384   -3.2285    0.1374 H   0  0  0  0  0  0  0  0  0  0  0  0
   -5.5221   -2.7913   -1.1536 H   0  0  0  0  0  0  0  0  0  0  0  0
   -0.6223   -1.1446    1.7697 H   0  0  0  0  0  0  0  0  0  0  0  0
   -0.6395    0.6770    1.6322 H   0  0  0  0  0  0  0  0  0  0  0  0
    1.4161   -0.2025    0.5601 H   0  0  0  0  0  0  0  0  0  0  0  0
    0.4295   -1.3992   -0.2731 H   0  0  0  0  0  0  0  0  0  0  0  0
    0.2246    0.0715   -2.0302 H   0  0  0  0  0  0  0  0  0  0  0  0
   -0.3214    2.4948   -1.5246 H   0  0  0  0  0  0  0  0  0  0  0  0
    1.5559    3.5644   -1.2104 H   0  0  0  0  0  0  0  0  0  0  0  0
    1.4370    2.0145    1.1712 H   0  0  0  0  0  0  0  0  0  0  0  0
    2.2971    3.4799    0.7885 H   0  0  0  0  0  0  0  0  0  0  0  0
    3.4335    0.8111    1.1546 H   0  0  0  0  0  0  0  0  0  0  0  0
    4.1363    2.3989    1.4342 H   0  0  0  0  0  0  0  0  0  0  0  0
    5.2450    2.7366   -1.9371 H   0  0  0  0  0  0  0  0  0  0  0  0
    5.3143    0.6404    1.8721 H   0  0  0  0  0  0  0  0  0  0  0  0
    7.3849   -0.5843    2.3116 H   0  0  0  0  0  0  0  0  0  0  0  0
   11.9343   -2.3693   -1.2084 H   0  0  0  0  0  0  0  0  0  0  0  0
   12.5514   -3.1578    1.0055 H   0  0  0  0  0  0  0  0  0  0  0  0
   11.0744   -2.7294    2.8915 H   0  0  0  0  0  0  0  0  0  0  0  0
    8.3421   -0.2756   -1.7889 H   0  0  0  0  0  0  0  0  0  0  0  0
    3.0898    0.0203   -1.1329 H   0  0  0  0  0  0  0  0  0  0  0  0
    4.2630    0.6390   -2.3889 H   0  0  0  0  0  0  0  0  0  0  0  0
    2.0706    1.5440   -2.9109 H   0  0  0  0  0  0  0  0  0  0  0  0
    3.2460    2.7816   -2.4536 H   0  0  0  0  0  0  0  0  0  0  0  0
   -1.9726    0.2298   -1.8189 H   0  0  0  0  0  0  0  0  0  0  0  0
   -1.8830    1.5282   -0.5608 H   0  0  0  0  0  0  0  0  0  0  0  0
  1  2  2  0
  2  3  1  0
  3  4  1  0
  4  5  1  0
  5  6  1  0
  6  7  1  0
  7  8  2  0
  8  9  1  0
  9 10  1  0
 10 11  1  0
 10 12  1  0
 10 13  1  0
  9 14  2  0
 14 15  1  0
 15 16  2  0
  6 17  1  0
 17 18  1  0
  2 19  1  0
 19 20  1  0
 20 21  1  0
 21 22  1  0
 22 23  1  0
 23 24  1  0
 24 25  1  0
 25 26  1  0
 26 27  1  0
 27 28  1  6
 27 29  1  0
 29 30  2  0
 30 31  1  0
 31 32  2  0
 32 33  1  0
 33 34  2  0
 34 35  1  0
 35 36  2  0
 36 37  1  0
 37 38  2  0
 32 39  1  0
 39 40  2  0
 27 41  1  0
 41 42  1  0
 22 43  1  0
 18  3  1  0
 43 19  1  0
 16  7  1  0
 42 24  1  0
 40 29  1  0
 38 33  1  0
  3 44  1  0
  4 45  1  0
  4 46  1  0
  5 47  1  0
  5 48  1  0
  8 49  1  0
 15 50  1  0
 17 51  1  0
 17 52  1  0
 18 53  1  0
 18 54  1  0
 20 55  1  0
 20 56  1  0
 21 57  1  0
 21 58  1  0
 22 59  1  6
 23 60  1  0
 24 61  1  6
 25 62  1  0
 25 63  1  0
 26 64  1  0
 26 65  1  0
 28 66  1  0
 30 67  1  0
 31 68  1  0
 35 69  1  0
 36 70  1  0
 37 71  1  0
 39 72  1  0
 41 73  1  0
 41 74  1  0
 42 75  1  0
 42 76  1  0
 43 77  1  0
 43 78  1  0
M  END
$$$$
