
     RDKit          3D

 47 49  0  0  0  0  0  0  0  0999 V2000
   -5.7884    3.1806   -0.6859 C   0  0  0  0  0  0  0  0  0  0  0  0
   -5.5504    1.9028   -1.2089 O   0  0  0  0  0  0  0  0  0  0  0  0
   -4.3171    1.3264   -1.0790 C   0  0  0  0  0  0  0  0  0  0  0  0
   -4.0775    0.0823   -1.5855 C   0  0  0  0  0  0  0  0  0  0  0  0
   -2.8402   -0.4950   -1.4548 C   0  0  0  0  0  0  0  0  0  0  0  0
   -1.7889    0.1580   -0.8065 C   0  0  0  0  0  0  0  0  0  0  0  0
   -0.5070   -0.4307   -0.6666 N   0  0  0  0  0  0  0  0  0  0  0  0
   -0.2400   -1.2195    0.4773 C   0  0  0  0  0  0  0  0  0  0  0  0
   -1.2167   -1.3305    1.3062 O   0  0  0  0  0  0  0  0  0  0  0  0
    0.9769   -1.8630    0.7521 N   0  0  0  0  0  0  0  0  0  0  0  0
    1.1095   -2.6406    1.9617 C   0  0  0  0  0  0  0  0  0  0  0  0
    1.5921   -4.0230    1.5265 C   0  0  0  0  0  0  0  0  0  0  0  0
    2.7784   -3.8495    0.7445 N   0  0  0  0  0  0  0  0  0  0  0  0
    2.4790   -3.2107   -0.5231 C   0  0  0  0  0  0  0  0  0  0  0  0
    2.0897   -1.7575   -0.1542 C   0  0  2  0  0  0  0  0  0  0  0  0
    3.2703   -1.0656    0.4712 C   0  0  0  0  0  0  0  0  0  0  0  0
    2.9708    0.2000    0.8782 O   0  0  0  0  0  0  0  0  0  0  0  0
    2.5890    1.3474    0.2648 C   0  0  0  0  0  0  0  0  0  0  0  0
    2.3518    2.4601    1.0960 C   0  0  0  0  0  0  0  0  0  0  0  0
    1.9669    3.6374    0.5148 C   0  0  0  0  0  0  0  0  0  0  0  0
    1.8005    3.7855   -0.8455 C   0  0  0  0  0  0  0  0  0  0  0  0
    2.0313    2.7157   -1.6172 N   0  0  0  0  0  0  0  0  0  0  0  0
    2.4092    1.5511   -1.0766 C   0  0  0  0  0  0  0  0  0  0  0  0
   -2.0399    1.4167   -0.2968 C   0  0  0  0  0  0  0  0  0  0  0  0
   -3.3048    1.9930   -0.4370 C   0  0  0  0  0  0  0  0  0  0  0  0
   -6.8235    3.4697   -0.8916 H   0  0  0  0  0  0  0  0  0  0  0  0
   -5.1240    3.9563   -1.1094 H   0  0  0  0  0  0  0  0  0  0  0  0
   -5.5634    3.1325    0.4065 H   0  0  0  0  0  0  0  0  0  0  0  0
   -4.8589   -0.4500   -2.0895 H   0  0  0  0  0  0  0  0  0  0  0  0
   -2.5935   -1.4830   -1.8388 H   0  0  0  0  0  0  0  0  0  0  0  0
    0.1867   -0.2702   -1.3930 H   0  0  0  0  0  0  0  0  0  0  0  0
    0.1081   -2.8167    2.4329 H   0  0  0  0  0  0  0  0  0  0  0  0
    1.7790   -2.2002    2.7053 H   0  0  0  0  0  0  0  0  0  0  0  0
    0.7712   -4.5059    0.9699 H   0  0  0  0  0  0  0  0  0  0  0  0
    1.7889   -4.6259    2.4221 H   0  0  0  0  0  0  0  0  0  0  0  0
    3.3701   -4.6831    0.6538 H   0  0  0  0  0  0  0  0  0  0  0  0
    1.5984   -3.6303   -1.0287 H   0  0  0  0  0  0  0  0  0  0  0  0
    3.3692   -3.1293   -1.1556 H   0  0  0  0  0  0  0  0  0  0  0  0
    1.8520   -1.2989   -1.1117 H   0  0  0  0  0  0  0  0  0  0  0  0
    4.0297   -0.9842   -0.3631 H   0  0  0  0  0  0  0  0  0  0  0  0
    3.7121   -1.7001    1.2967 H   0  0  0  0  0  0  0  0  0  0  0  0
    2.4757    2.3732    2.1797 H   0  0  0  0  0  0  0  0  0  0  0  0
    1.7734    4.5260    1.1338 H   0  0  0  0  0  0  0  0  0  0  0  0
    1.4934    4.7331   -1.2816 H   0  0  0  0  0  0  0  0  0  0  0  0
    2.5879    0.7492   -1.7749 H   0  0  0  0  0  0  0  0  0  0  0  0
   -1.2511    1.9739    0.2212 H   0  0  0  0  0  0  0  0  0  0  0  0
   -3.4257    2.9923   -0.0068 H   0  0  0  0  0  0  0  0  0  0  0  0
  1  2  1  0
  2  3  1  0
  3  4  2  0
  4  5  1  0
  5  6  2  0
  6  7  1  0
  7  8  1  0
  8  9  2  0
  8 10  1  0
 10 11  1  0
 11 12  1  0
 12 13  1  0
 13 14  1  0
 14 15  1  0
 15 16  1  0
 16 17  1  0
 17 18  1  0
 18 19  2  0
 19 20  1  0
 20 21  2  0
 21 22  1  0
 22 23  2  0
  6 24  1  0
 24 25  2  0
 25  3  1  0
 15 10  1  0
 23 18  1  0
  1 26  1  0
  1 27  1  0
  1 28  1  0
  4 29  1  0
  5 30  1  0
  7 31  1  0
 11 32  1  0
 11 33  1  0
 12 34  1  0
 12 35  1  0
 13 36  1  0
 14 37  1  0
 14 38  1  0
 15 39  1  6
 16 40  1  0
 16 41  1  0
 19 42  1  0
 20 43  1  0
 21 44  1  0
 23 45  1  0
 24 46  1  0
 25 47  1  0
M  END
$$$$
