
     RDKit          3D

 52 56  0  0  0  0  0  0  0  0999 V2000
   -5.0257   -1.7996    1.5978 C   0  0  0  0  0  0  0  0  0  0  0  0
   -4.1814   -0.8137    2.0989 O   0  0  0  0  0  0  0  0  0  0  0  0
   -3.8955    0.1281    1.1394 C   0  0  0  0  0  0  0  0  0  0  0  0
   -3.2339   -0.4170   -0.0396 N   0  0  0  0  0  0  0  0  0  0  0  0
   -3.8918   -0.8790   -1.1456 C   0  0  0  0  0  0  0  0  0  0  0  0
   -2.9356   -1.3067   -2.0360 C   0  0  0  0  0  0  0  0  0  0  0  0
   -3.2267   -1.8814   -3.3672 C   0  0  0  0  0  0  0  0  0  0  0  0
   -1.6869   -1.1138   -1.4908 C   0  0  0  0  0  0  0  0  0  0  0  0
   -1.8918   -0.5595   -0.2488 C   0  0  0  0  0  0  0  0  0  0  0  0
   -0.6030   -0.3066    0.4343 C   0  0  0  0  0  0  0  0  0  0  0  0
   -0.4948    1.1446    0.7218 C   0  0  0  0  0  0  0  0  0  0  0  0
   -0.5709    1.5595    2.0313 C   0  0  0  0  0  0  0  0  0  0  0  0
   -0.4758    2.9012    2.3547 C   0  0  0  0  0  0  0  0  0  0  0  0
   -0.3031    3.8588    1.3833 C   0  0  0  0  0  0  0  0  0  0  0  0
   -0.1834    5.5622    1.8054 Cl  0  0  0  0  0  0  0  0  0  0  0  0
   -0.2269    3.4388    0.0670 C   0  0  0  0  0  0  0  0  0  0  0  0
   -0.3233    2.0973   -0.2403 C   0  0  0  0  0  0  0  0  0  0  0  0
    0.4170   -0.7550   -0.4820 N   0  0  0  0  0  0  0  0  0  0  0  0
    1.8349   -0.7120   -0.2451 C   0  0  0  0  0  0  0  0  0  0  0  0
    2.4940   -1.7668    0.3478 C   0  0  0  0  0  0  0  0  0  0  0  0
    3.8443   -1.7464    0.5826 C   0  0  0  0  0  0  0  0  0  0  0  0
    4.4925   -2.9144    1.2244 C   0  0  0  0  0  0  0  0  0  0  0  0
    4.5395   -0.6198    0.2023 C   0  0  0  0  0  0  0  0  0  0  0  0
    5.8232   -0.2587    0.2721 N   0  0  0  0  0  0  0  0  0  0  0  0
    5.9701    0.9476   -0.2432 N   0  0  0  0  0  0  0  0  0  0  0  0
    4.7970    1.3886   -0.6532 N   0  0  0  0  0  0  0  0  0  0  0  0
    4.4697    2.6656   -1.2860 C   0  0  0  0  0  0  0  0  0  0  0  0
    3.8738    0.4325   -0.3906 C   0  0  0  0  0  0  0  0  0  0  0  0
    2.5427    0.3695   -0.6030 N   0  0  0  0  0  0  0  0  0  0  0  0
   -0.2430   -1.2368   -1.6387 C   0  0  0  0  0  0  0  0  0  0  0  0
    0.3515   -1.7057   -2.6517 O   0  0  0  0  0  0  0  0  0  0  0  0
   -4.5313   -2.3002    0.7488 H   0  0  0  0  0  0  0  0  0  0  0  0
   -5.9602   -1.3116    1.1923 H   0  0  0  0  0  0  0  0  0  0  0  0
   -5.3712   -2.4883    2.3780 H   0  0  0  0  0  0  0  0  0  0  0  0
   -3.3432    0.9970    1.5080 H   0  0  0  0  0  0  0  0  0  0  0  0
   -4.8893    0.5288    0.7746 H   0  0  0  0  0  0  0  0  0  0  0  0
   -4.9701   -0.8717   -1.2212 H   0  0  0  0  0  0  0  0  0  0  0  0
   -3.2854   -2.9934   -3.3443 H   0  0  0  0  0  0  0  0  0  0  0  0
   -2.4415   -1.6340   -4.1191 H   0  0  0  0  0  0  0  0  0  0  0  0
   -4.2198   -1.5275   -3.7129 H   0  0  0  0  0  0  0  0  0  0  0  0
   -0.5081   -0.8829    1.3790 H   0  0  0  0  0  0  0  0  0  0  0  0
   -0.7061    0.8736    2.8584 H   0  0  0  0  0  0  0  0  0  0  0  0
   -0.5360    3.2217    3.3825 H   0  0  0  0  0  0  0  0  0  0  0  0
   -0.0928    4.1854   -0.6828 H   0  0  0  0  0  0  0  0  0  0  0  0
   -0.2626    1.7873   -1.2628 H   0  0  0  0  0  0  0  0  0  0  0  0
    1.9195   -2.6305    0.6319 H   0  0  0  0  0  0  0  0  0  0  0  0
    3.8145   -3.4178    1.9497 H   0  0  0  0  0  0  0  0  0  0  0  0
    4.7587   -3.6837    0.4682 H   0  0  0  0  0  0  0  0  0  0  0  0
    5.3925   -2.6129    1.7973 H   0  0  0  0  0  0  0  0  0  0  0  0
    5.4140    3.1742   -1.5458 H   0  0  0  0  0  0  0  0  0  0  0  0
    3.7981    2.5411   -2.1399 H   0  0  0  0  0  0  0  0  0  0  0  0
    3.9632    3.3441   -0.5413 H   0  0  0  0  0  0  0  0  0  0  0  0
  1  2  1  0
  2  3  1  0
  3  4  1  0
  4  5  1  0
  5  6  2  0
  6  7  1  0
  6  8  1  0
  8  9  2  0
  9 10  1  0
 10 11  1  0
 11 12  2  0
 12 13  1  0
 13 14  2  0
 14 15  1  0
 14 16  1  0
 16 17  2  0
 10 18  1  0
 18 19  1  0
 19 20  2  0
 20 21  1  0
 21 22  1  0
 21 23  2  0
 23 24  1  0
 24 25  2  0
 25 26  1  0
 26 27  1  0
 26 28  1  0
 28 29  2  0
 18 30  1  0
 30 31  2  0
  9  4  1  0
 17 11  1  0
 29 19  1  0
 30  8  1  0
 28 23  1  0
  1 32  1  0
  1 33  1  0
  1 34  1  0
  3 35  1  0
  3 36  1  0
  5 37  1  0
  7 38  1  0
  7 39  1  0
  7 40  1  0
 10 41  1  0
 12 42  1  0
 13 43  1  0
 16 44  1  0
 17 45  1  0
 20 46  1  0
 22 47  1  0
 22 48  1  0
 22 49  1  0
 27 50  1  0
 27 51  1  0
 27 52  1  0
M  END
$$$$
