
     RDKit          3D

 51 55  0  0  0  0  0  0  0  0999 V2000
   -5.7211   -2.5672    1.1142 N   0  0  0  0  0  0  0  0  0  0  0  0
   -5.0232   -1.4037    0.7289 C   0  0  0  0  0  0  0  0  0  0  0  0
   -5.2938   -0.7255   -0.3096 N   0  0  0  0  0  0  0  0  0  0  0  0
   -4.6031    0.4697   -0.7406 C   0  0  1  0  0  0  0  0  0  0  0  0
   -3.4373   -0.0101   -1.5258 C   0  0  0  0  0  0  0  0  0  0  0  0
   -2.1618    0.3993   -1.1138 C   0  0  0  0  0  0  0  0  0  0  0  0
   -1.0486    0.0117   -1.8167 C   0  0  0  0  0  0  0  0  0  0  0  0
    0.2217    0.4327   -1.3879 N   0  0  0  0  0  0  0  0  0  0  0  0
    1.0191   -0.3051   -0.4681 C   0  0  0  0  0  0  0  0  0  0  0  0
    0.6026   -1.3893    0.0055 O   0  0  0  0  0  0  0  0  0  0  0  0
    2.3260    0.2003   -0.0738 C   0  0  0  0  0  0  0  0  0  0  0  0
    3.1104   -0.5025    0.8160 C   0  0  0  0  0  0  0  0  0  0  0  0
    4.3146   -0.0516    1.1889 N   0  0  0  0  0  0  0  0  0  0  0  0
    4.8098    1.0900    0.7216 C   0  0  0  0  0  0  0  0  0  0  0  0
    6.0509    1.5933    1.0811 O   0  0  0  0  0  0  0  0  0  0  0  0
    6.9550    1.0119    1.9574 C   0  0  0  0  0  0  0  0  0  0  0  0
    7.4341   -0.3300    1.5681 C   0  0  0  0  0  0  0  0  0  0  0  0
    6.8851   -1.5130    1.9538 C   0  0  0  0  0  0  0  0  0  0  0  0
    7.6153   -2.4868    1.3832 N   0  0  0  0  0  0  0  0  0  0  0  0
    8.5919   -1.9212    0.6625 C   0  0  0  0  0  0  0  0  0  0  0  0
    8.4681   -0.6286    0.7849 O   0  0  0  0  0  0  0  0  0  0  0  0
    4.0319    1.8188   -0.1815 C   0  0  0  0  0  0  0  0  0  0  0  0
    2.8338    1.3478   -0.5380 N   0  0  0  0  0  0  0  0  0  0  0  0
   -1.2157   -0.7851   -2.9300 C   0  0  0  0  0  0  0  0  0  0  0  0
   -2.4657   -1.1925   -3.3410 C   0  0  0  0  0  0  0  0  0  0  0  0
   -3.5993   -0.8052   -2.6348 C   0  0  0  0  0  0  0  0  0  0  0  0
   -4.8291   -1.2521   -3.0391 F   0  0  0  0  0  0  0  0  0  0  0  0
   -5.4921    1.3270   -1.5555 C   0  0  0  0  0  0  0  0  0  0  0  0
   -5.9982    0.7781   -2.6949 F   0  0  0  0  0  0  0  0  0  0  0  0
   -4.8287    2.5412   -1.8457 F   0  0  0  0  0  0  0  0  0  0  0  0
   -4.0843    1.2428    0.4782 C   0  0  1  0  0  0  0  0  0  0  0  0
   -4.9046    1.3521    1.7114 C   0  0  0  0  0  0  0  0  0  0  0  0
   -3.7074    0.4321    1.6240 C   0  0  1  0  0  0  0  0  0  0  0  0
   -3.9770   -0.9560    1.5163 O   0  0  0  0  0  0  0  0  0  0  0  0
   -5.6049   -3.4530    0.5945 H   0  0  0  0  0  0  0  0  0  0  0  0
   -6.3568   -2.5280    1.9288 H   0  0  0  0  0  0  0  0  0  0  0  0
   -1.9961    1.0198   -0.2395 H   0  0  0  0  0  0  0  0  0  0  0  0
    0.6469    1.3394   -1.7413 H   0  0  0  0  0  0  0  0  0  0  0  0
    2.6896   -1.4380    1.1907 H   0  0  0  0  0  0  0  0  0  0  0  0
    7.8542    1.6407    2.1244 H   0  0  0  0  0  0  0  0  0  0  0  0
    6.4457    0.9187    2.9474 H   0  0  0  0  0  0  0  0  0  0  0  0
    6.0371   -1.7049    2.5912 H   0  0  0  0  0  0  0  0  0  0  0  0
    9.3560   -2.3954    0.0780 H   0  0  0  0  0  0  0  0  0  0  0  0
    4.4345    2.7455   -0.5605 H   0  0  0  0  0  0  0  0  0  0  0  0
   -0.3351   -1.0952   -3.4919 H   0  0  0  0  0  0  0  0  0  0  0  0
   -2.6298   -1.8168   -4.2086 H   0  0  0  0  0  0  0  0  0  0  0  0
   -6.3936    1.6848   -0.9717 H   0  0  0  0  0  0  0  0  0  0  0  0
   -3.5045    2.1568    0.2580 H   0  0  0  0  0  0  0  0  0  0  0  0
   -5.8652    0.8362    1.8224 H   0  0  0  0  0  0  0  0  0  0  0  0
   -4.8384    2.2672    2.3345 H   0  0  0  0  0  0  0  0  0  0  0  0
   -2.8187    0.6555    2.2445 H   0  0  0  0  0  0  0  0  0  0  0  0
  1  2  1  0
  2  3  2  0
  3  4  1  0
  4  5  1  0
  5  6  2  0
  6  7  1  0
  7  8  1  0
  8  9  1  0
  9 10  2  0
  9 11  1  0
 11 12  2  0
 12 13  1  0
 13 14  2  0
 14 15  1  0
 15 16  1  0
 16 17  1  0
 17 18  2  0
 18 19  1  0
 19 20  2  0
 20 21  1  0
 14 22  1  0
 22 23  2  0
  7 24  2  0
 24 25  1  0
 25 26  2  0
 26 27  1  0
  4 28  1  6
 28 29  1  0
 28 30  1  0
  4 31  1  0
 31 32  1  0
 32 33  1  0
 33 34  1  0
 34  2  1  0
 26  5  1  0
 33 31  1  0
 23 11  1  0
 21 17  1  0
  1 35  1  0
  1 36  1  0
  6 37  1  0
  8 38  1  0
 12 39  1  0
 16 40  1  0
 16 41  1  0
 18 42  1  0
 20 43  1  0
 22 44  1  0
 24 45  1  0
 25 46  1  0
 28 47  1  0
 31 48  1  6
 32 49  1  0
 32 50  1  0
 33 51  1  1
M  END
$$$$
