
     RDKit          3D

 61 65  0  0  0  0  0  0  0  0999 V2000
    9.1153   -1.5581   -0.5051 C   0  0  0  0  0  0  0  0  0  0  0  0
    7.9155   -2.5153   -0.5135 C   0  0  0  0  0  0  0  0  0  0  0  0
    6.7741   -1.6994   -0.2756 O   0  0  0  0  0  0  0  0  0  0  0  0
    5.4889   -2.1872   -0.2080 C   0  0  0  0  0  0  0  0  0  0  0  0
    5.3163   -3.4226   -0.3656 O   0  0  0  0  0  0  0  0  0  0  0  0
    4.3530   -1.3728    0.0292 N   0  0  0  0  0  0  0  0  0  0  0  0
    2.9256   -1.5632    0.1543 C   0  0  0  0  0  0  0  0  0  0  0  0
    2.8554   -0.2930    0.9695 C   0  0  0  0  0  0  0  0  0  0  0  0
    1.8215    0.6402    0.5247 N   0  0  0  0  0  0  0  0  0  0  0  0
    2.0578    1.9230    0.3426 N   0  0  0  0  0  0  0  0  0  0  0  0
    0.9515    2.5710   -0.0666 C   0  0  0  0  0  0  0  0  0  0  0  0
    0.8833    4.0310   -0.3612 C   0  0  0  0  0  0  0  0  0  0  0  0
   -0.0178    1.6104   -0.1352 C   0  0  0  0  0  0  0  0  0  0  0  0
    0.5495    0.4167    0.2377 C   0  0  0  0  0  0  0  0  0  0  0  0
   -0.4586   -0.6144    0.1635 C   0  0  0  0  0  0  0  0  0  0  0  0
   -0.2756   -1.8326    0.4406 O   0  0  0  0  0  0  0  0  0  0  0  0
   -1.6832    0.0105   -0.2787 N   0  0  0  0  0  0  0  0  0  0  0  0
   -2.8549   -0.7524   -0.4798 C   0  0  0  0  0  0  0  0  0  0  0  0
   -3.7360   -0.9788    0.5390 C   0  0  0  0  0  0  0  0  0  0  0  0
   -4.8928   -1.7343    0.3158 C   0  0  0  0  0  0  0  0  0  0  0  0
   -5.8393   -1.9733    1.4237 C   0  0  0  0  0  0  0  0  0  0  0  0
   -5.1065   -2.2310   -0.9417 C   0  0  0  0  0  0  0  0  0  0  0  0
   -6.1585   -2.9136   -1.1298 O   0  0  0  0  0  0  0  0  0  0  0  0
   -4.2443   -2.0110   -1.9434 N   0  0  0  0  0  0  0  0  0  0  0  0
   -4.5613   -2.5802   -3.2372 C   0  0  0  0  0  0  0  0  0  0  0  0
   -3.1239   -1.2778   -1.7221 C   0  0  0  0  0  0  0  0  0  0  0  0
   -1.4582    1.4187   -0.4654 C   0  0  0  0  0  0  0  0  0  0  0  0
   -2.2303    2.2277    0.4964 C   0  0  0  0  0  0  0  0  0  0  0  0
   -2.9644    3.3276    0.0460 C   0  0  0  0  0  0  0  0  0  0  0  0
   -3.6960    4.1213    0.9032 C   0  0  0  0  0  0  0  0  0  0  0  0
   -3.7234    3.8451    2.2571 C   0  0  0  0  0  0  0  0  0  0  0  0
   -4.6365    4.8216    3.3888 Cl  0  0  0  0  0  0  0  0  0  0  0  0
   -2.9870    2.7438    2.7001 C   0  0  0  0  0  0  0  0  0  0  0  0
   -2.2637    1.9610    1.8443 C   0  0  0  0  0  0  0  0  0  0  0  0
    4.1472    0.0397    0.2523 C   0  0  0  0  0  0  0  0  0  0  0  0
    8.8699   -0.6147   -1.0354 H   0  0  0  0  0  0  0  0  0  0  0  0
    9.9980   -2.0002   -0.9781 H   0  0  0  0  0  0  0  0  0  0  0  0
    9.2970   -1.2630    0.5654 H   0  0  0  0  0  0  0  0  0  0  0  0
    8.0285   -3.2323    0.3414 H   0  0  0  0  0  0  0  0  0  0  0  0
    7.8541   -3.0642   -1.4673 H   0  0  0  0  0  0  0  0  0  0  0  0
    2.4210   -1.4370   -0.8291 H   0  0  0  0  0  0  0  0  0  0  0  0
    2.6451   -2.4872    0.7017 H   0  0  0  0  0  0  0  0  0  0  0  0
    2.9578   -0.4019    2.0502 H   0  0  0  0  0  0  0  0  0  0  0  0
    1.8502    4.3902   -0.8203 H   0  0  0  0  0  0  0  0  0  0  0  0
    0.0931    4.2686   -1.1118 H   0  0  0  0  0  0  0  0  0  0  0  0
    0.7598    4.6299    0.5691 H   0  0  0  0  0  0  0  0  0  0  0  0
   -3.5543   -0.5813    1.5368 H   0  0  0  0  0  0  0  0  0  0  0  0
   -6.4578   -1.0654    1.5523 H   0  0  0  0  0  0  0  0  0  0  0  0
   -5.3139   -2.2737    2.3388 H   0  0  0  0  0  0  0  0  0  0  0  0
   -6.5245   -2.8016    1.1285 H   0  0  0  0  0  0  0  0  0  0  0  0
   -5.4349   -2.0308   -3.6605 H   0  0  0  0  0  0  0  0  0  0  0  0
   -3.6638   -2.4994   -3.8778 H   0  0  0  0  0  0  0  0  0  0  0  0
   -4.8812   -3.6474   -3.1542 H   0  0  0  0  0  0  0  0  0  0  0  0
   -2.4617   -1.1330   -2.5735 H   0  0  0  0  0  0  0  0  0  0  0  0
   -1.6540    1.7133   -1.5125 H   0  0  0  0  0  0  0  0  0  0  0  0
   -2.9571    3.5599   -1.0004 H   0  0  0  0  0  0  0  0  0  0  0  0
   -4.2635    4.9765    0.5342 H   0  0  0  0  0  0  0  0  0  0  0  0
   -3.0266    2.5515    3.7633 H   0  0  0  0  0  0  0  0  0  0  0  0
   -1.7060    1.1103    2.2517 H   0  0  0  0  0  0  0  0  0  0  0  0
    4.0126    0.6362   -0.6796 H   0  0  0  0  0  0  0  0  0  0  0  0
    4.8696    0.4982    0.9676 H   0  0  0  0  0  0  0  0  0  0  0  0
  1  2  1  0
  2  3  1  0
  3  4  1  0
  4  5  2  0
  4  6  1  0
  6  7  1  0
  7  8  1  0
  8  9  1  0
  9 10  1  0
 10 11  2  0
 11 12  1  0
 11 13  1  0
 13 14  2  0
 14 15  1  0
 15 16  2  0
 15 17  1  0
 17 18  1  0
 18 19  1  0
 19 20  2  0
 20 21  1  0
 20 22  1  0
 22 23  2  0
 22 24  1  0
 24 25  1  0
 24 26  1  0
 17 27  1  0
 27 28  1  0
 28 29  2  0
 29 30  1  0
 30 31  2  0
 31 32  1  0
 31 33  1  0
 33 34  2  0
  8 35  1  0
 35  6  1  0
 14  9  1  0
 26 18  2  0
 34 28  1  0
 27 13  1  0
  1 36  1  0
  1 37  1  0
  1 38  1  0
  2 39  1  0
  2 40  1  0
  7 41  1  0
  7 42  1  0
  8 43  1  0
 12 44  1  0
 12 45  1  0
 12 46  1  0
 19 47  1  0
 21 48  1  0
 21 49  1  0
 21 50  1  0
 25 51  1  0
 25 52  1  0
 25 53  1  0
 26 54  1  0
 27 55  1  0
 29 56  1  0
 30 57  1  0
 33 58  1  0
 34 59  1  0
 35 60  1  0
 35 61  1  0
M  END
$$$$
