
     RDKit          3D

 53 55  0  0  0  0  0  0  0  0999 V2000
   -1.3975   -2.8248    1.6350 C   0  0  0  0  0  0  0  0  0  0  0  0
   -1.1062   -1.4414    1.0262 C   0  0  0  0  0  0  0  0  0  0  0  0
   -1.7809   -1.2684   -0.2148 N   0  0  0  0  0  0  0  0  0  0  0  0
   -1.2477   -2.0117   -1.2736 C   0  0  0  0  0  0  0  0  0  0  0  0
   -0.1471   -1.5705   -2.1229 C   0  0  0  0  0  0  0  0  0  0  0  0
    1.1277   -1.0832   -1.6044 C   0  0  0  0  0  0  0  0  0  0  0  0
    1.1807    0.2496   -0.9430 C   0  0  0  0  0  0  0  0  0  0  0  0
    2.5721    0.4499   -0.5217 N   0  0  0  0  0  0  0  0  0  0  0  0
    3.2098    0.1134    0.6946 C   0  0  0  0  0  0  0  0  0  0  0  0
    2.6251   -0.4445    1.6534 O   0  0  0  0  0  0  0  0  0  0  0  0
    4.6227    0.5039    0.6702 C   0  0  0  0  0  0  0  0  0  0  0  0
    5.6563    0.4072    1.5669 C   0  0  0  0  0  0  0  0  0  0  0  0
    6.9048    0.8706    1.2609 C   0  0  0  0  0  0  0  0  0  0  0  0
    7.1026    1.4413    0.0208 C   0  0  0  0  0  0  0  0  0  0  0  0
    6.0758    1.5457   -0.8901 C   0  0  0  0  0  0  0  0  0  0  0  0
    4.8252    1.0762   -0.5704 C   0  0  0  0  0  0  0  0  0  0  0  0
    3.5625    1.0557   -1.3353 C   0  0  0  0  0  0  0  0  0  0  0  0
    3.4214    1.5029   -2.4967 O   0  0  0  0  0  0  0  0  0  0  0  0
   -3.2242   -1.2528   -0.1163 C   0  0  0  0  0  0  0  0  0  0  0  0
   -3.7402   -0.1718    0.7354 C   0  0  0  0  0  0  0  0  0  0  0  0
   -4.1971   -0.4591    1.9950 C   0  0  0  0  0  0  0  0  0  0  0  0
   -4.6758    0.5726    2.7686 C   0  0  0  0  0  0  0  0  0  0  0  0
   -4.6969    1.8800    2.2854 C   0  0  0  0  0  0  0  0  0  0  0  0
   -4.2264    2.1198    1.0109 C   0  0  0  0  0  0  0  0  0  0  0  0
   -3.7376    1.1179    0.2003 C   0  0  0  0  0  0  0  0  0  0  0  0
   -3.2575    1.3515   -1.0946 O   0  0  0  0  0  0  0  0  0  0  0  0
   -3.2981    2.7020   -1.5476 C   0  0  0  0  0  0  0  0  0  0  0  0
   -2.4621   -3.0079    1.7712 H   0  0  0  0  0  0  0  0  0  0  0  0
   -0.9410   -2.7806    2.6672 H   0  0  0  0  0  0  0  0  0  0  0  0
   -0.9077   -3.5863    1.0277 H   0  0  0  0  0  0  0  0  0  0  0  0
   -0.0070   -1.4970    0.8480 H   0  0  0  0  0  0  0  0  0  0  0  0
   -1.2973   -0.6372    1.7285 H   0  0  0  0  0  0  0  0  0  0  0  0
   -0.9387   -3.0734   -0.9089 H   0  0  0  0  0  0  0  0  0  0  0  0
   -2.1268   -2.3396   -1.9679 H   0  0  0  0  0  0  0  0  0  0  0  0
    0.1261   -2.4868   -2.7844 H   0  0  0  0  0  0  0  0  0  0  0  0
   -0.5104   -0.8473   -2.9420 H   0  0  0  0  0  0  0  0  0  0  0  0
    1.8715   -1.0117   -2.4702 H   0  0  0  0  0  0  0  0  0  0  0  0
    1.6304   -1.8339   -0.9162 H   0  0  0  0  0  0  0  0  0  0  0  0
    0.9794    1.0556   -1.7171 H   0  0  0  0  0  0  0  0  0  0  0  0
    0.5548    0.4613   -0.1053 H   0  0  0  0  0  0  0  0  0  0  0  0
    5.4758   -0.0415    2.5234 H   0  0  0  0  0  0  0  0  0  0  0  0
    7.7495    0.8144    1.9376 H   0  0  0  0  0  0  0  0  0  0  0  0
    8.0744    1.8273   -0.2796 H   0  0  0  0  0  0  0  0  0  0  0  0
    6.2022    1.9890   -1.8700 H   0  0  0  0  0  0  0  0  0  0  0  0
   -3.6076   -1.1538   -1.1709 H   0  0  0  0  0  0  0  0  0  0  0  0
   -3.5506   -2.2619    0.2206 H   0  0  0  0  0  0  0  0  0  0  0  0
   -4.2071   -1.4499    2.4256 H   0  0  0  0  0  0  0  0  0  0  0  0
   -5.0513    0.3959    3.7759 H   0  0  0  0  0  0  0  0  0  0  0  0
   -5.0676    2.7109    2.8695 H   0  0  0  0  0  0  0  0  0  0  0  0
   -4.2344    3.1283    0.6218 H   0  0  0  0  0  0  0  0  0  0  0  0
   -4.3213    3.0964   -1.6206 H   0  0  0  0  0  0  0  0  0  0  0  0
   -2.8207    2.7340   -2.5497 H   0  0  0  0  0  0  0  0  0  0  0  0
   -2.7662    3.3631   -0.8207 H   0  0  0  0  0  0  0  0  0  0  0  0
  1  2  1  0
  2  3  1  0
  3  4  1  0
  4  5  1  0
  5  6  1  0
  6  7  1  0
  7  8  1  0
  8  9  1  0
  9 10  2  0
  9 11  1  0
 11 12  2  0
 12 13  1  0
 13 14  2  0
 14 15  1  0
 15 16  2  0
 16 17  1  0
 17 18  2  0
  3 19  1  0
 19 20  1  0
 20 21  2  0
 21 22  1  0
 22 23  2  0
 23 24  1  0
 24 25  2  0
 25 26  1  0
 26 27  1  0
 17  8  1  0
 25 20  1  0
 16 11  1  0
  1 28  1  0
  1 29  1  0
  1 30  1  0
  2 31  1  0
  2 32  1  0
  4 33  1  0
  4 34  1  0
  5 35  1  0
  5 36  1  0
  6 37  1  0
  6 38  1  0
  7 39  1  0
  7 40  1  0
 12 41  1  0
 13 42  1  0
 14 43  1  0
 15 44  1  0
 19 45  1  0
 19 46  1  0
 21 47  1  0
 22 48  1  0
 23 49  1  0
 24 50  1  0
 27 51  1  0
 27 52  1  0
 27 53  1  0
M  END
$$$$
