
     RDKit          3D

 68 72  0  0  0  0  0  0  0  0999 V2000
    5.3210   -4.9786   -1.0276 C   0  0  0  0  0  0  0  0  0  0  0  0
    4.6231   -3.7768   -0.8371 O   0  0  0  0  0  0  0  0  0  0  0  0
    5.2652   -2.5793   -1.1175 C   0  0  0  0  0  0  0  0  0  0  0  0
    6.5642   -2.5304   -1.5767 C   0  0  0  0  0  0  0  0  0  0  0  0
    7.1450   -1.3108   -1.8366 C   0  0  0  0  0  0  0  0  0  0  0  0
    6.4178   -0.1438   -1.6341 C   0  0  0  0  0  0  0  0  0  0  0  0
    5.1182   -0.2067   -1.1741 C   0  0  0  0  0  0  0  0  0  0  0  0
    4.5302   -1.4219   -0.9119 C   0  0  0  0  0  0  0  0  0  0  0  0
    3.1496   -1.4782   -0.4237 C   0  0  0  0  0  0  0  0  0  0  0  0
    2.6394   -2.6069   -0.1928 O   0  0  0  0  0  0  0  0  0  0  0  0
    2.3584   -0.2719   -0.2006 C   0  0  0  0  0  0  0  0  0  0  0  0
    1.0418   -0.3563    0.2659 C   0  0  0  0  0  0  0  0  0  0  0  0
    0.4560   -1.5753    0.5291 O   0  0  0  0  0  0  0  0  0  0  0  0
    0.3389    0.8114    0.4592 C   0  0  0  0  0  0  0  0  0  0  0  0
    0.9286    2.0478    0.1965 C   0  0  0  0  0  0  0  0  0  0  0  0
    2.2015    2.1197   -0.2543 C   0  0  0  0  0  0  0  0  0  0  0  0
    2.8276    3.3167   -0.5286 O   0  0  0  0  0  0  0  0  0  0  0  0
    2.9492    0.9457   -0.4639 C   0  0  0  0  0  0  0  0  0  0  0  0
    4.3117    1.0040   -0.9457 C   0  0  0  0  0  0  0  0  0  0  0  0
    4.8507    2.0992   -1.1853 O   0  0  0  0  0  0  0  0  0  0  0  0
    0.1135    3.2401    0.4500 C   0  0  0  0  0  0  0  0  0  0  0  0
   -0.3063    3.0982    1.9275 C   0  0  1  0  0  0  0  0  0  0  0  0
    0.9216    2.9866    2.6441 O   0  0  0  0  0  0  0  0  0  0  0  0
   -1.0109    4.3025    2.3937 C   0  0  0  0  0  0  0  0  0  0  0  0
   -0.4765    4.9946    3.2644 O   0  0  0  0  0  0  0  0  0  0  0  0
   -2.3285    4.6643    1.8242 C   0  0  0  0  0  0  0  0  0  0  0  0
   -2.7881    3.7829    0.8639 O   0  0  0  0  0  0  0  0  0  0  0  0
   -1.0827    1.8255    2.1324 C   0  0  0  0  0  0  0  0  0  0  0  0
   -1.0569    0.8963    0.9366 C   0  0  2  0  0  0  0  0  0  0  0  0
   -1.5981   -0.3218    1.1697 O   0  0  0  0  0  0  0  0  0  0  0  0
   -2.7485   -0.5912    0.4311 C   0  0  1  0  0  0  0  0  0  0  0  0
   -2.6075   -1.8518   -0.3413 C   0  0  0  0  0  0  0  0  0  0  0  0
   -3.9157   -2.4271   -0.8187 C   0  0  2  0  0  0  0  0  0  0  0  0
   -4.3000   -1.9252   -2.1211 N   0  0  0  0  0  0  0  0  0  0  0  0
   -5.0408   -2.2004    0.1588 C   0  0  2  0  0  0  0  0  0  0  0  0
   -6.2528   -2.4011   -0.5271 O   0  0  0  0  0  0  0  0  0  0  0  0
   -5.0097   -0.8315    0.7492 C   0  0  2  0  0  0  0  0  0  0  0  0
   -5.3433    0.2662   -0.2185 C   0  0  0  0  0  0  0  0  0  0  0  0
   -3.7894   -0.6610    1.3833 O   0  0  0  0  0  0  0  0  0  0  0  0
    5.7733   -5.0556   -2.0313 H   0  0  0  0  0  0  0  0  0  0  0  0
    4.6397   -5.8564   -0.8610 H   0  0  0  0  0  0  0  0  0  0  0  0
    6.1625   -5.1002   -0.2918 H   0  0  0  0  0  0  0  0  0  0  0  0
    7.0893   -3.4573   -1.7190 H   0  0  0  0  0  0  0  0  0  0  0  0
    8.1644   -1.2323   -2.1987 H   0  0  0  0  0  0  0  0  0  0  0  0
    6.8603    0.8187   -1.8337 H   0  0  0  0  0  0  0  0  0  0  0  0
    0.3299   -2.2093   -0.2417 H   0  0  0  0  0  0  0  0  0  0  0  0
    2.9029    3.5778   -1.5107 H   0  0  0  0  0  0  0  0  0  0  0  0
   -0.7998    3.2131   -0.1532 H   0  0  0  0  0  0  0  0  0  0  0  0
    0.6705    4.1889    0.3367 H   0  0  0  0  0  0  0  0  0  0  0  0
    0.6881    2.6392    3.5508 H   0  0  0  0  0  0  0  0  0  0  0  0
   -3.1075    4.6906    2.6279 H   0  0  0  0  0  0  0  0  0  0  0  0
   -2.2977    5.7048    1.4197 H   0  0  0  0  0  0  0  0  0  0  0  0
   -3.1461    4.2972    0.1104 H   0  0  0  0  0  0  0  0  0  0  0  0
   -0.6390    1.3076    3.0236 H   0  0  0  0  0  0  0  0  0  0  0  0
   -2.1426    2.1380    2.3625 H   0  0  0  0  0  0  0  0  0  0  0  0
   -1.6773    1.3865    0.1373 H   0  0  0  0  0  0  0  0  0  0  0  0
   -3.0412    0.2225   -0.2432 H   0  0  0  0  0  0  0  0  0  0  0  0
   -1.9921   -1.6511   -1.2428 H   0  0  0  0  0  0  0  0  0  0  0  0
   -2.0457   -2.6506    0.2276 H   0  0  0  0  0  0  0  0  0  0  0  0
   -3.7883   -3.5260   -0.9157 H   0  0  0  0  0  0  0  0  0  0  0  0
   -3.7267   -2.2920   -2.8915 H   0  0  0  0  0  0  0  0  0  0  0  0
   -5.3169   -1.9719   -2.2838 H   0  0  0  0  0  0  0  0  0  0  0  0
   -4.9662   -2.9323    0.9875 H   0  0  0  0  0  0  0  0  0  0  0  0
   -6.8061   -3.0321   -0.0150 H   0  0  0  0  0  0  0  0  0  0  0  0
   -5.7867   -0.7978    1.5533 H   0  0  0  0  0  0  0  0  0  0  0  0
   -5.1193    1.2365    0.2486 H   0  0  0  0  0  0  0  0  0  0  0  0
   -4.8487    0.1930   -1.1867 H   0  0  0  0  0  0  0  0  0  0  0  0
   -6.4504    0.1971   -0.4084 H   0  0  0  0  0  0  0  0  0  0  0  0
  1  2  1  0
  2  3  1  0
  3  4  2  0
  4  5  1  0
  5  6  2  0
  6  7  1  0
  7  8  2  0
  8  9  1  0
  9 10  2  0
  9 11  1  0
 11 12  2  0
 12 13  1  0
 12 14  1  0
 14 15  2  0
 15 16  1  0
 16 17  1  0
 16 18  2  0
 18 19  1  0
 19 20  2  0
 15 21  1  0
 21 22  1  0
 22 23  1  1
 22 24  1  0
 24 25  2  0
 24 26  1  0
 26 27  1  0
 22 28  1  0
 28 29  1  0
 29 30  1  0
 30 31  1  0
 31 32  1  0
 32 33  1  0
 33 34  1  0
 33 35  1  0
 35 36  1  0
 35 37  1  0
 37 38  1  0
 37 39  1  0
  8  3  1  0
 18 11  1  0
 39 31  1  0
 19  7  1  0
 29 14  1  0
  1 40  1  0
  1 41  1  0
  1 42  1  0
  4 43  1  0
  5 44  1  0
  6 45  1  0
 13 46  1  0
 17 47  1  0
 21 48  1  0
 21 49  1  0
 23 50  1  0
 26 51  1  0
 26 52  1  0
 27 53  1  0
 28 54  1  0
 28 55  1  0
 29 56  1  6
 31 57  1  6
 32 58  1  0
 32 59  1  0
 33 60  1  6
 34 61  1  0
 34 62  1  0
 35 63  1  1
 36 64  1  0
 37 65  1  1
 38 66  1  0
 38 67  1  0
 38 68  1  0
M  END
$$$$
