
     RDKit          3D

 53 57  0  0  0  0  0  0  0  0999 V2000
   -3.4330   -3.1948    2.0601 C   0  0  0  0  0  0  0  0  0  0  0  0
   -2.3509   -2.2430    1.6993 C   0  0  0  0  0  0  0  0  0  0  0  0
   -1.5378   -1.6676    2.6745 C   0  0  0  0  0  0  0  0  0  0  0  0
   -0.5520   -0.8042    2.3813 N   0  0  0  0  0  0  0  0  0  0  0  0
   -0.3412   -0.4804    1.0799 C   0  0  0  0  0  0  0  0  0  0  0  0
    0.7245    0.4586    0.7040 C   0  0  0  0  0  0  0  0  0  0  0  0
    0.9033    0.7542   -0.6293 C   0  0  0  0  0  0  0  0  0  0  0  0
    1.8768    1.6207   -1.0690 C   0  0  0  0  0  0  0  0  0  0  0  0
    2.7031    2.2122   -0.1203 C   0  0  0  0  0  0  0  0  0  0  0  0
    2.5378    1.9276    1.2160 C   0  0  0  0  0  0  0  0  0  0  0  0
    3.3521    2.5085    2.1650 O   0  0  0  0  0  0  0  0  0  0  0  0
    4.3819    3.3839    1.8749 C   0  0  0  0  0  0  0  0  0  0  0  0
    5.4993    2.8816    1.0862 C   0  0  0  0  0  0  0  0  0  0  0  0
    6.4302    3.7197    0.8252 O   0  0  0  0  0  0  0  0  0  0  0  0
    5.6812    1.5896    0.5801 N   0  0  0  0  0  0  0  0  0  0  0  0
    6.8580    1.2238   -0.2053 C   0  0  0  0  0  0  0  0  0  0  0  0
    6.6174    0.1804   -1.2591 C   0  0  0  0  0  0  0  0  0  0  0  0
    7.4127   -0.1619   -0.0426 C   0  0  0  0  0  0  0  0  0  0  0  0
    1.5414    1.0463    1.6154 C   0  0  0  0  0  0  0  0  0  0  0  0
   -1.1192   -1.0319    0.1553 N   0  0  0  0  0  0  0  0  0  0  0  0
   -2.1195   -1.9002    0.3831 C   0  0  0  0  0  0  0  0  0  0  0  0
   -2.9266   -2.4664   -0.6413 N   0  0  0  0  0  0  0  0  0  0  0  0
   -4.1343   -1.8707   -1.0811 C   0  0  0  0  0  0  0  0  0  0  0  0
   -4.9023   -2.4244   -2.0810 C   0  0  0  0  0  0  0  0  0  0  0  0
   -6.0781   -1.8422   -2.5059 C   0  0  0  0  0  0  0  0  0  0  0  0
   -6.5232   -0.6732   -1.9331 C   0  0  0  0  0  0  0  0  0  0  0  0
   -7.6064    0.0894   -2.1495 N   0  0  0  0  0  0  0  0  0  0  0  0
   -7.5284    1.0991   -1.3104 N   0  0  0  0  0  0  0  0  0  0  0  0
   -6.4326    1.0252   -0.5520 C   0  0  0  0  0  0  0  0  0  0  0  0
   -5.7597   -0.1157   -0.9336 C   0  0  0  0  0  0  0  0  0  0  0  0
   -4.5755   -0.6895   -0.4960 C   0  0  0  0  0  0  0  0  0  0  0  0
   -3.6810   -3.7691    1.1390 H   0  0  0  0  0  0  0  0  0  0  0  0
   -4.3480   -2.6081    2.3033 H   0  0  0  0  0  0  0  0  0  0  0  0
   -3.1013   -3.8285    2.8952 H   0  0  0  0  0  0  0  0  0  0  0  0
   -1.7617   -1.9719    3.7034 H   0  0  0  0  0  0  0  0  0  0  0  0
    0.2594    0.2943   -1.3769 H   0  0  0  0  0  0  0  0  0  0  0  0
    1.9666    1.8105   -2.1179 H   0  0  0  0  0  0  0  0  0  0  0  0
    3.4511    2.8833   -0.4993 H   0  0  0  0  0  0  0  0  0  0  0  0
    4.7358    3.7995    2.8594 H   0  0  0  0  0  0  0  0  0  0  0  0
    3.9292    4.2332    1.2762 H   0  0  0  0  0  0  0  0  0  0  0  0
    4.9931    0.8587    0.7618 H   0  0  0  0  0  0  0  0  0  0  0  0
    7.5942    2.0295   -0.3780 H   0  0  0  0  0  0  0  0  0  0  0  0
    5.6150   -0.2766   -1.3455 H   0  0  0  0  0  0  0  0  0  0  0  0
    7.1249    0.3292   -2.2293 H   0  0  0  0  0  0  0  0  0  0  0  0
    6.9550   -0.8354    0.6972 H   0  0  0  0  0  0  0  0  0  0  0  0
    8.5097   -0.2763   -0.2080 H   0  0  0  0  0  0  0  0  0  0  0  0
    1.4491    0.8547    2.6616 H   0  0  0  0  0  0  0  0  0  0  0  0
   -2.6424   -3.3651   -1.1125 H   0  0  0  0  0  0  0  0  0  0  0  0
   -4.5559   -3.3446   -2.5348 H   0  0  0  0  0  0  0  0  0  0  0  0
   -6.6858   -2.2760   -3.2938 H   0  0  0  0  0  0  0  0  0  0  0  0
   -8.3399   -0.1302   -2.8653 H   0  0  0  0  0  0  0  0  0  0  0  0
   -6.0877    1.6985    0.2256 H   0  0  0  0  0  0  0  0  0  0  0  0
   -3.9781   -0.2645    0.2775 H   0  0  0  0  0  0  0  0  0  0  0  0
  1  2  1  0
  2  3  2  0
  3  4  1  0
  4  5  2  0
  5  6  1  0
  6  7  2  0
  7  8  1  0
  8  9  2  0
  9 10  1  0
 10 11  1  0
 11 12  1  0
 12 13  1  0
 13 14  2  0
 13 15  1  0
 15 16  1  0
 16 17  1  0
 17 18  1  0
 10 19  2  0
  5 20  1  0
 20 21  2  0
 21 22  1  0
 22 23  1  0
 23 24  2  0
 24 25  1  0
 25 26  2  0
 26 27  1  0
 27 28  1  0
 28 29  2  0
 29 30  1  0
 30 31  2  0
 21  2  1  0
 31 23  1  0
 19  6  1  0
 30 26  1  0
 18 16  1  0
  1 32  1  0
  1 33  1  0
  1 34  1  0
  3 35  1  0
  7 36  1  0
  8 37  1  0
  9 38  1  0
 12 39  1  0
 12 40  1  0
 15 41  1  0
 16 42  1  0
 17 43  1  0
 17 44  1  0
 18 45  1  0
 18 46  1  0
 19 47  1  0
 22 48  1  0
 24 49  1  0
 25 50  1  0
 27 51  1  0
 29 52  1  0
 31 53  1  0
M  END
$$$$
