
     RDKit          3D

 69 72  0  0  0  0  0  0  0  0999 V2000
    7.2746   -2.6966    1.8328 C   0  0  0  0  0  0  0  0  0  0  0  0
    7.5263   -1.6045    0.8117 C   0  0  0  0  0  0  0  0  0  0  0  0
    6.2936   -1.4642   -0.0306 C   0  0  0  0  0  0  0  0  0  0  0  0
    8.6091   -2.1033   -0.1745 C   0  0  0  0  0  0  0  0  0  0  0  0
    7.8887   -0.3836    1.3878 N   0  0  0  0  0  0  0  0  0  0  0  0
    6.9667    0.3596    2.5581 S   0  0  0  0  0  6  0  0  0  0  0  0
    7.5842    1.6435    3.0787 O   0  0  0  0  0  0  0  0  0  0  0  0
    6.7217   -0.5924    3.7100 O   0  0  0  0  0  0  0  0  0  0  0  0
    5.3781    0.7729    1.9580 C   0  0  0  0  0  0  0  0  0  0  0  0
    5.1825    1.9640    1.2428 C   0  0  0  0  0  0  0  0  0  0  0  0
    3.9176    2.3106    0.7756 C   0  0  0  0  0  0  0  0  0  0  0  0
    2.8231    1.5239    0.9846 C   0  0  0  0  0  0  0  0  0  0  0  0
    1.4839    1.8869    0.4736 C   0  0  0  0  0  0  0  0  0  0  0  0
    1.1530    2.9793   -0.2879 C   0  0  0  0  0  0  0  0  0  0  0  0
   -0.1149    3.1258   -0.6624 C   0  0  0  0  0  0  0  0  0  0  0  0
   -0.6705    4.1730   -1.4495 C   0  0  0  0  0  0  0  0  0  0  0  0
    0.1276    5.2354   -1.9403 N   0  0  0  0  0  0  0  0  0  0  0  0
   -1.9607    4.1647   -1.7349 N   0  0  0  0  0  0  0  0  0  0  0  0
   -2.8717    3.2527   -1.3636 C   0  0  0  0  0  0  0  0  0  0  0  0
   -2.3801    2.1921   -0.5819 C   0  0  0  0  0  0  0  0  0  0  0  0
   -3.2627    1.1267   -0.1042 C   0  0  0  0  0  0  0  0  0  0  0  0
   -4.3901    1.4199    0.2922 O   0  0  0  0  0  0  0  0  0  0  0  0
   -2.7866   -0.1970   -0.1138 N   0  0  0  0  0  0  0  0  0  0  0  0
   -3.4918   -1.3584    0.2821 C   0  0  0  0  0  0  0  0  0  0  0  0
   -4.5968   -1.7804   -0.5868 C   0  0  0  0  0  0  0  0  0  0  0  0
   -5.7069   -0.8533   -0.8570 C   0  0  0  0  0  0  0  0  0  0  0  0
   -6.7111   -1.5763   -1.6958 N   0  0  0  0  0  0  0  0  0  0  0  0
   -7.7646   -0.6099   -1.9176 C   0  0  0  0  0  0  0  0  0  0  0  0
   -8.7531   -0.5834   -0.7645 C   0  0  0  0  0  0  0  0  0  0  0  0
   -9.4425   -1.7856   -0.6401 O   0  0  0  0  0  0  0  0  0  0  0  0
   -8.7195   -2.8296   -1.2079 C   0  0  0  0  0  0  0  0  0  0  0  0
   -7.2643   -2.6525   -0.8787 C   0  0  0  0  0  0  0  0  0  0  0  0
   -1.0414    2.1897   -0.2790 C   0  0  0  0  0  0  0  0  0  0  0  0
    0.0073    1.0471    0.6741 S   0  0  0  0  0  0  0  0  0  0  0  0
    2.9996    0.3451    1.6890 C   0  0  0  0  0  0  0  0  0  0  0  0
    4.2559   -0.0009    2.1543 C   0  0  0  0  0  0  0  0  0  0  0  0
    7.4918   -3.6667    1.3102 H   0  0  0  0  0  0  0  0  0  0  0  0
    7.9402   -2.6472    2.6980 H   0  0  0  0  0  0  0  0  0  0  0  0
    6.1998   -2.6979    2.0547 H   0  0  0  0  0  0  0  0  0  0  0  0
    5.4536   -1.9760    0.5113 H   0  0  0  0  0  0  0  0  0  0  0  0
    6.0276   -0.3984   -0.0909 H   0  0  0  0  0  0  0  0  0  0  0  0
    6.4084   -1.9146   -1.0522 H   0  0  0  0  0  0  0  0  0  0  0  0
    8.4734   -1.5024   -1.0942 H   0  0  0  0  0  0  0  0  0  0  0  0
    8.3674   -3.1686   -0.3743 H   0  0  0  0  0  0  0  0  0  0  0  0
    9.6138   -1.9644    0.2173 H   0  0  0  0  0  0  0  0  0  0  0  0
    8.8520   -0.0760    1.2579 H   0  0  0  0  0  0  0  0  0  0  0  0
    6.0418    2.5792    1.0792 H   0  0  0  0  0  0  0  0  0  0  0  0
    3.7935    3.2395    0.2217 H   0  0  0  0  0  0  0  0  0  0  0  0
    1.9854    3.6935   -0.5513 H   0  0  0  0  0  0  0  0  0  0  0  0
    1.0262    5.0404   -2.4289 H   0  0  0  0  0  0  0  0  0  0  0  0
   -0.1701    6.2415   -1.8212 H   0  0  0  0  0  0  0  0  0  0  0  0
   -3.9061    3.2661   -1.6043 H   0  0  0  0  0  0  0  0  0  0  0  0
   -1.7741   -0.3570   -0.4653 H   0  0  0  0  0  0  0  0  0  0  0  0
   -3.8452   -1.1841    1.3547 H   0  0  0  0  0  0  0  0  0  0  0  0
   -2.7414   -2.1885    0.4296 H   0  0  0  0  0  0  0  0  0  0  0  0
   -4.9884   -2.7574   -0.1464 H   0  0  0  0  0  0  0  0  0  0  0  0
   -4.1472   -2.0401   -1.6048 H   0  0  0  0  0  0  0  0  0  0  0  0
   -6.2190   -0.5299    0.0457 H   0  0  0  0  0  0  0  0  0  0  0  0
   -5.3574   -0.0193   -1.5169 H   0  0  0  0  0  0  0  0  0  0  0  0
   -8.3349   -0.8065   -2.8387 H   0  0  0  0  0  0  0  0  0  0  0  0
   -7.3314    0.4047   -1.9985 H   0  0  0  0  0  0  0  0  0  0  0  0
   -8.2699   -0.2708    0.1862 H   0  0  0  0  0  0  0  0  0  0  0  0
   -9.4799    0.2283   -1.0030 H   0  0  0  0  0  0  0  0  0  0  0  0
   -8.8869   -2.7888   -2.3007 H   0  0  0  0  0  0  0  0  0  0  0  0
   -9.1337   -3.7867   -0.8399 H   0  0  0  0  0  0  0  0  0  0  0  0
   -6.7348   -3.5932   -1.0171 H   0  0  0  0  0  0  0  0  0  0  0  0
   -7.1671   -2.3319    0.1776 H   0  0  0  0  0  0  0  0  0  0  0  0
    2.1340   -0.2829    1.8557 H   0  0  0  0  0  0  0  0  0  0  0  0
    4.4140   -0.9318    2.7146 H   0  0  0  0  0  0  0  0  0  0  0  0
  1  2  1  0
  2  3  1  0
  2  4  1  0
  2  5  1  0
  5  6  1  0
  6  7  2  0
  6  8  2  0
  6  9  1  0
  9 10  2  0
 10 11  1  0
 11 12  2  0
 12 13  1  0
 13 14  2  0
 14 15  1  0
 15 16  2  0
 16 17  1  0
 16 18  1  0
 18 19  2  0
 19 20  1  0
 20 21  1  0
 21 22  2  0
 21 23  1  0
 23 24  1  0
 24 25  1  0
 25 26  1  0
 26 27  1  0
 27 28  1  0
 28 29  1  0
 29 30  1  0
 30 31  1  0
 31 32  1  0
 20 33  2  0
 33 34  1  0
 12 35  1  0
 35 36  2  0
 36  9  1  0
 34 13  1  0
 33 15  1  0
 32 27  1  0
  1 37  1  0
  1 38  1  0
  1 39  1  0
  3 40  1  0
  3 41  1  0
  3 42  1  0
  4 43  1  0
  4 44  1  0
  4 45  1  0
  5 46  1  0
 10 47  1  0
 11 48  1  0
 14 49  1  0
 17 50  1  0
 17 51  1  0
 19 52  1  0
 23 53  1  0
 24 54  1  0
 24 55  1  0
 25 56  1  0
 25 57  1  0
 26 58  1  0
 26 59  1  0
 28 60  1  0
 28 61  1  0
 29 62  1  0
 29 63  1  0
 31 64  1  0
 31 65  1  0
 32 66  1  0
 32 67  1  0
 35 68  1  0
 36 69  1  0
M  END
$$$$
