
     RDKit          3D

 27 28  0  0  0  0  0  0  0  0999 V2000
   -1.8395   -1.4521   -2.0023 N   0  0  0  0  0  0  0  0  0  0  0  0
   -2.4995   -0.8541   -0.8920 C   0  0  0  0  0  0  0  0  0  0  0  0
   -3.8512   -0.9854   -0.9225 N   0  0  0  0  0  0  0  0  0  0  0  0
   -4.6098   -0.4633    0.0728 C   0  0  0  0  0  0  0  0  0  0  0  0
   -3.9362    0.1888    1.0851 C   0  0  0  0  0  0  0  0  0  0  0  0
   -2.5650    0.3318    1.1328 C   0  0  0  0  0  0  0  0  0  0  0  0
   -1.8082   -0.2050    0.1127 C   0  0  0  0  0  0  0  0  0  0  0  0
   -0.4475   -0.1634   -0.0103 O   0  0  0  0  0  0  0  0  0  0  0  0
    0.3604    0.4717    0.9539 C   0  0  0  0  0  0  0  0  0  0  0  0
    1.7704    0.2944    0.4517 C   0  0  0  0  0  0  0  0  0  0  0  0
    2.5025   -0.8153    0.8267 C   0  0  0  0  0  0  0  0  0  0  0  0
    3.8068   -0.9518    0.3450 C   0  0  0  0  0  0  0  0  0  0  0  0
    4.3615   -0.0028   -0.4891 C   0  0  0  0  0  0  0  0  0  0  0  0
    3.6399    1.1172   -0.8750 C   0  0  0  0  0  0  0  0  0  0  0  0
    2.3370    1.2428   -0.3871 C   0  0  0  0  0  0  0  0  0  0  0  0
   -1.5747   -0.6013   -2.5816 H   0  0  0  0  0  0  0  0  0  0  0  0
   -1.3436   -1.3584   -2.9031 H   0  0  0  0  0  0  0  0  0  0  0  0
   -5.6894   -0.5211    0.1284 H   0  0  0  0  0  0  0  0  0  0  0  0
   -4.5044    0.6198    1.8985 H   0  0  0  0  0  0  0  0  0  0  0  0
   -2.0289    0.8385    1.9176 H   0  0  0  0  0  0  0  0  0  0  0  0
    0.2574    0.0235    1.9589 H   0  0  0  0  0  0  0  0  0  0  0  0
    0.1849    1.5644    1.0444 H   0  0  0  0  0  0  0  0  0  0  0  0
    2.0171   -1.5366    1.4883 H   0  0  0  0  0  0  0  0  0  0  0  0
    4.3297   -1.8334    0.6684 H   0  0  0  0  0  0  0  0  0  0  0  0
    5.3788   -0.1252   -0.8549 H   0  0  0  0  0  0  0  0  0  0  0  0
    4.0218    1.8800   -1.5176 H   0  0  0  0  0  0  0  0  0  0  0  0
    1.7298    2.0859   -0.6498 H   0  0  0  0  0  0  0  0  0  0  0  0
  1  2  1  0
  2  3  2  0
  3  4  1  0
  4  5  2  0
  5  6  1  0
  6  7  2  0
  7  8  1  0
  8  9  1  0
  9 10  1  0
 10 11  2  0
 11 12  1  0
 12 13  2  0
 13 14  1  0
 14 15  2  0
  7  2  1  0
 15 10  1  0
  1 16  1  0
  1 17  1  0
  4 18  1  0
  5 19  1  0
  6 20  1  0
  9 21  1  0
  9 22  1  0
 11 23  1  0
 12 24  1  0
 13 25  1  0
 14 26  1  0
 15 27  1  0
M  END
$$$$
