
     RDKit          3D

 70 74  0  0  0  0  0  0  0  0999 V2000
   -5.6962   -2.2332    1.8066 C   0  0  0  0  0  0  0  0  0  0  0  0
   -5.9443   -2.5618    0.3537 C   0  0  0  0  0  0  0  0  0  0  0  0
   -5.1429   -1.6155   -0.5658 C   0  0  2  0  0  0  0  0  0  0  0  0
   -3.7432   -1.8122   -0.2398 C   0  0  0  0  0  0  0  0  0  0  0  0
   -3.1546   -2.8450   -0.6354 O   0  0  0  0  0  0  0  0  0  0  0  0
   -3.0031   -0.8777    0.5158 N   0  0  0  0  0  0  0  0  0  0  0  0
   -1.6210   -1.0749    0.8256 C   0  0  0  0  0  0  0  0  0  0  0  0
   -1.2483   -1.7253    1.9794 C   0  0  0  0  0  0  0  0  0  0  0  0
    0.1104   -1.9217    2.2656 C   0  0  0  0  0  0  0  0  0  0  0  0
    1.0770   -1.4785    1.4184 C   0  0  0  0  0  0  0  0  0  0  0  0
    0.7307   -0.8215    0.2514 C   0  0  0  0  0  0  0  0  0  0  0  0
    1.4850   -0.2800   -0.7676 C   0  0  0  0  0  0  0  0  0  0  0  0
    2.9344   -0.2476   -0.9077 C   0  0  0  0  0  0  0  0  0  0  0  0
    3.7411    0.2457    0.0267 N   0  0  0  0  0  0  0  0  0  0  0  0
    5.1043    0.2615   -0.1434 C   0  0  0  0  0  0  0  0  0  0  0  0
    5.9194    0.7948    0.8571 N   0  0  0  0  0  0  0  0  0  0  0  0
    7.3242    0.8487    0.7514 C   0  0  0  0  0  0  0  0  0  0  0  0
    8.1326    0.4049   -0.2618 C   0  0  0  0  0  0  0  0  0  0  0  0
    9.4173    0.6603    0.0642 N   0  0  0  0  0  0  0  0  0  0  0  0
   10.6047    0.3483   -0.7432 C   0  0  0  0  0  0  0  0  0  0  0  0
    9.4250    1.2438    1.2401 N   0  0  0  0  0  0  0  0  0  0  0  0
    8.1941    1.3880    1.7106 C   0  0  0  0  0  0  0  0  0  0  0  0
    7.7396    1.9426    2.8941 O   0  0  0  0  0  0  0  0  0  0  0  0
    8.6431    2.4855    3.8548 C   0  0  0  0  0  0  0  0  0  0  0  0
    5.6337   -0.2284   -1.2681 N   0  0  0  0  0  0  0  0  0  0  0  0
    4.8592   -0.7432   -2.2521 C   0  0  0  0  0  0  0  0  0  0  0  0
    3.5048   -0.7506   -2.0663 C   0  0  0  0  0  0  0  0  0  0  0  0
    2.7144   -1.2724   -3.0632 F   0  0  0  0  0  0  0  0  0  0  0  0
    0.5444    0.2433   -1.6661 C   0  0  0  0  0  0  0  0  0  0  0  0
   -0.6932    0.0160   -1.1912 N   0  0  0  0  0  0  0  0  0  0  0  0
   -0.6270   -0.6346   -0.0178 C   0  0  0  0  0  0  0  0  0  0  0  0
   -5.6736   -0.2885   -0.3183 N   0  0  0  0  0  0  0  0  0  0  0  0
   -7.0859   -0.2833   -0.5414 C   0  0  0  0  0  0  0  0  0  0  0  0
   -7.7227    0.9369   -1.0512 C   0  0  0  0  0  0  0  0  0  0  0  0
   -6.9345    1.8618   -1.7855 N   0  0  0  0  0  0  0  0  0  0  0  0
   -6.8525    3.1768   -1.1880 C   0  0  0  0  0  0  0  0  0  0  0  0
   -5.6427    1.3521   -2.1737 C   0  0  0  0  0  0  0  0  0  0  0  0
   -4.9310    0.7409   -0.9864 C   0  0  0  0  0  0  0  0  0  0  0  0
   -5.8294   -1.1331    2.0174 H   0  0  0  0  0  0  0  0  0  0  0  0
   -6.3826   -2.8318    2.4527 H   0  0  0  0  0  0  0  0  0  0  0  0
   -4.6704   -2.5348    2.1168 H   0  0  0  0  0  0  0  0  0  0  0  0
   -5.5787   -3.6105    0.2170 H   0  0  0  0  0  0  0  0  0  0  0  0
   -7.0094   -2.5727    0.1157 H   0  0  0  0  0  0  0  0  0  0  0  0
   -5.4075   -1.9456   -1.5964 H   0  0  0  0  0  0  0  0  0  0  0  0
   -3.4153   -0.0032    0.8998 H   0  0  0  0  0  0  0  0  0  0  0  0
   -1.9807   -2.0932    2.6802 H   0  0  0  0  0  0  0  0  0  0  0  0
    0.4282   -2.4352    3.1743 H   0  0  0  0  0  0  0  0  0  0  0  0
    2.1411   -1.6013    1.5863 H   0  0  0  0  0  0  0  0  0  0  0  0
    5.4634    1.1670    1.7195 H   0  0  0  0  0  0  0  0  0  0  0  0
    7.8736   -0.0827   -1.2045 H   0  0  0  0  0  0  0  0  0  0  0  0
   10.2514   -0.1028   -1.6982 H   0  0  0  0  0  0  0  0  0  0  0  0
   11.2460   -0.3903   -0.2282 H   0  0  0  0  0  0  0  0  0  0  0  0
   11.1469    1.2753   -1.0315 H   0  0  0  0  0  0  0  0  0  0  0  0
    9.2546    1.6653    4.3147 H   0  0  0  0  0  0  0  0  0  0  0  0
    8.0716    3.0321    4.6259 H   0  0  0  0  0  0  0  0  0  0  0  0
    9.2844    3.2110    3.3127 H   0  0  0  0  0  0  0  0  0  0  0  0
    5.2608   -1.1452   -3.1706 H   0  0  0  0  0  0  0  0  0  0  0  0
    0.8104    0.7346   -2.5689 H   0  0  0  0  0  0  0  0  0  0  0  0
   -1.6153    0.2858   -1.6325 H   0  0  0  0  0  0  0  0  0  0  0  0
   -7.5845   -0.6442    0.4066 H   0  0  0  0  0  0  0  0  0  0  0  0
   -7.2974   -1.1109   -1.2824 H   0  0  0  0  0  0  0  0  0  0  0  0
   -8.6342    0.7090   -1.6809 H   0  0  0  0  0  0  0  0  0  0  0  0
   -8.1684    1.4966   -0.1744 H   0  0  0  0  0  0  0  0  0  0  0  0
   -5.8724    3.6104   -1.5364 H   0  0  0  0  0  0  0  0  0  0  0  0
   -6.8388    3.1490   -0.0925 H   0  0  0  0  0  0  0  0  0  0  0  0
   -7.6353    3.8352   -1.6209 H   0  0  0  0  0  0  0  0  0  0  0  0
   -5.6830    0.6556   -3.0066 H   0  0  0  0  0  0  0  0  0  0  0  0
   -5.0284    2.2282   -2.4747 H   0  0  0  0  0  0  0  0  0  0  0  0
   -4.7420    1.5588   -0.2610 H   0  0  0  0  0  0  0  0  0  0  0  0
   -3.9812    0.3674   -1.3601 H   0  0  0  0  0  0  0  0  0  0  0  0
  1  2  1  0
  2  3  1  0
  3  4  1  0
  4  5  2  0
  4  6  1  0
  6  7  1  0
  7  8  2  0
  8  9  1  0
  9 10  2  0
 10 11  1  0
 11 12  1  0
 12 13  1  0
 13 14  2  0
 14 15  1  0
 15 16  1  0
 16 17  1  0
 17 18  2  0
 18 19  1  0
 19 20  1  0
 19 21  1  0
 21 22  2  0
 22 23  1  0
 23 24  1  0
 15 25  2  0
 25 26  1  0
 26 27  2  0
 27 28  1  0
 12 29  2  0
 29 30  1  0
 30 31  1  0
  3 32  1  0
 32 33  1  0
 33 34  1  0
 34 35  1  0
 35 36  1  0
 35 37  1  0
 37 38  1  0
 31  7  1  0
 38 32  1  0
 31 11  2  0
 27 13  1  0
 22 17  1  0
  1 39  1  0
  1 40  1  0
  1 41  1  0
  2 42  1  0
  2 43  1  0
  3 44  1  6
  6 45  1  0
  8 46  1  0
  9 47  1  0
 10 48  1  0
 16 49  1  0
 18 50  1  0
 20 51  1  0
 20 52  1  0
 20 53  1  0
 24 54  1  0
 24 55  1  0
 24 56  1  0
 26 57  1  0
 29 58  1  0
 30 59  1  0
 33 60  1  0
 33 61  1  0
 34 62  1  0
 34 63  1  0
 36 64  1  0
 36 65  1  0
 36 66  1  0
 37 67  1  0
 37 68  1  0
 38 69  1  0
 38 70  1  0
M  END
$$$$
