
     RDKit          3D

 46 49  0  0  0  0  0  0  0  0999 V2000
    7.9078    1.7123    0.4323 N   0  0  0  0  0  0  0  0  0  0  0  0
    7.0457    0.7247    0.9775 C   0  0  0  0  0  0  0  0  0  0  0  0
    7.3939   -0.3595    1.6215 N   0  0  0  0  0  4  0  0  0  0  0  0
    5.6355    0.9800    0.7791 C   0  0  0  0  0  0  0  0  0  0  0  0
    5.0528    2.2269    0.6821 C   0  0  0  0  0  0  0  0  0  0  0  0
    3.7012    2.4262    0.4926 C   0  0  0  0  0  0  0  0  0  0  0  0
    2.8764    1.3242    0.3930 C   0  0  0  0  0  0  0  0  0  0  0  0
    1.5576    1.1497    0.2129 N   0  0  0  0  0  0  0  0  0  0  0  0
    1.1930   -0.1416    0.1794 C   0  0  0  0  0  0  0  0  0  0  0  0
    2.3763   -0.8278    0.3521 C   0  0  0  0  0  0  0  0  0  0  0  0
    3.4195    0.0611    0.4847 C   0  0  0  0  0  0  0  0  0  0  0  0
    4.7770   -0.1036    0.6746 C   0  0  0  0  0  0  0  0  0  0  0  0
   -0.1127   -0.7594    0.0070 C   0  0  0  0  0  0  0  0  0  0  0  0
   -0.2002   -2.1510    0.0132 C   0  0  0  0  0  0  0  0  0  0  0  0
   -1.3817   -2.8400   -0.1411 C   0  0  0  0  0  0  0  0  0  0  0  0
   -2.5122   -2.0755   -0.3075 C   0  0  0  0  0  0  0  0  0  0  0  0
   -2.5439   -0.7012   -0.3300 C   0  0  0  0  0  0  0  0  0  0  0  0
   -3.6132    0.1446   -0.4890 O   0  0  0  0  0  0  0  0  0  0  0  0
   -4.9348   -0.2787   -0.6661 C   0  0  0  0  0  0  0  0  0  0  0  0
   -5.5485    0.3047   -1.9259 C   0  0  0  0  0  0  0  0  0  0  0  0
   -6.4324    1.4419   -1.4612 C   0  0  0  0  0  0  0  0  0  0  0  0
   -7.0387    0.8383   -0.2089 C   0  0  0  0  0  0  0  0  0  0  0  0
   -5.8437    0.1880    0.4546 C   0  0  0  0  0  0  0  0  0  0  0  0
   -1.2960   -0.0835   -0.1655 C   0  0  0  0  0  0  0  0  0  0  0  0
   -1.2448    1.3242   -0.1770 O   0  0  0  0  0  1  0  0  0  0  0  0
    8.3832    1.3168   -0.4270 H   0  0  0  0  0  0  0  0  0  0  0  0
    8.3488    1.2648   -0.4128 H   0  0  0  0  0  0  0  0  0  0  0  0
    6.8375   -1.1473    2.0610 H   0  0  0  0  0  0  0  0  0  0  0  0
    8.4072   -0.5539    1.7704 H   0  0  0  0  0  0  0  0  0  0  0  0
    5.7516    3.0620    0.7678 H   0  0  0  0  0  0  0  0  0  0  0  0
    3.2881    3.4212    0.4224 H   0  0  0  0  0  0  0  0  0  0  0  0
    0.9392    1.9623    0.1167 H   0  0  0  0  0  0  0  0  0  0  0  0
    2.5343   -1.8990    0.3880 H   0  0  0  0  0  0  0  0  0  0  0  0
    5.1842   -1.0910    0.7439 H   0  0  0  0  0  0  0  0  0  0  0  0
    0.7019   -2.7621    0.1460 H   0  0  0  0  0  0  0  0  0  0  0  0
   -1.4274   -3.9018   -0.1335 H   0  0  0  0  0  0  0  0  0  0  0  0
   -3.4433   -2.5945   -0.4294 H   0  0  0  0  0  0  0  0  0  0  0  0
   -4.9924   -1.3816   -0.6595 H   0  0  0  0  0  0  0  0  0  0  0  0
   -6.1500   -0.4945   -2.3832 H   0  0  0  0  0  0  0  0  0  0  0  0
   -4.8051    0.7647   -2.6051 H   0  0  0  0  0  0  0  0  0  0  0  0
   -5.8075    2.3072   -1.1942 H   0  0  0  0  0  0  0  0  0  0  0  0
   -7.1742    1.6297   -2.2451 H   0  0  0  0  0  0  0  0  0  0  0  0
   -7.4928    1.6108    0.4609 H   0  0  0  0  0  0  0  0  0  0  0  0
   -7.8021    0.0906   -0.4945 H   0  0  0  0  0  0  0  0  0  0  0  0
   -6.1904   -0.6374    1.1003 H   0  0  0  0  0  0  0  0  0  0  0  0
   -5.3249    0.9312    1.1224 H   0  0  0  0  0  0  0  0  0  0  0  0
  1  2  1  0
  2  3  2  0
  2  4  1  0
  4  5  2  0
  5  6  1  0
  6  7  2  0
  7  8  1  0
  8  9  1  0
  9 10  2  0
 10 11  1  0
 11 12  2  0
  9 13  1  0
 13 14  2  0
 14 15  1  0
 15 16  2  0
 16 17  1  0
 17 18  1  0
 18 19  1  0
 19 20  1  0
 20 21  1  0
 21 22  1  0
 22 23  1  0
 17 24  2  0
 24 25  1  0
 12  4  1  0
 24 13  1  0
 11  7  1  0
 23 19  1  0
  1 26  1  0
  1 27  1  0
  3 28  1  0
  3 29  1  0
  5 30  1  0
  6 31  1  0
  8 32  1  0
 10 33  1  0
 12 34  1  0
 14 35  1  0
 15 36  1  0
 16 37  1  0
 19 38  1  0
 20 39  1  0
 20 40  1  0
 21 41  1  0
 21 42  1  0
 22 43  1  0
 22 44  1  0
 23 45  1  0
 23 46  1  0
M  CHG  2   3   1  25  -1
M  END
$$$$
