
     RDKit          3D

 55 59  0  0  0  0  0  0  0  0999 V2000
   -6.8995   -2.4821   -0.6135 C   0  0  0  0  0  0  0  0  0  0  0  0
   -5.5786   -1.7927   -0.8156 C   0  0  0  0  0  0  0  0  0  0  0  0
   -4.6679   -2.3904   -1.6633 C   0  0  0  0  0  0  0  0  0  0  0  0
   -3.4565   -1.7455   -1.8403 C   0  0  0  0  0  0  0  0  0  0  0  0
   -3.1625   -0.5570   -1.2019 C   0  0  0  0  0  0  0  0  0  0  0  0
   -1.8860    0.1089   -1.3975 C   0  0  0  0  0  0  0  0  0  0  0  0
   -1.6868    0.9598   -2.3022 O   0  0  0  0  0  0  0  0  0  0  0  0
   -0.8050   -0.2100   -0.5299 N   0  0  0  0  0  0  0  0  0  0  0  0
   -0.9639   -1.1674    0.5178 C   0  0  0  0  0  0  0  0  0  0  0  0
   -0.1362   -0.8952    1.7350 C   0  0  0  0  0  0  0  0  0  0  0  0
    0.8894   -0.0314    1.5846 O   0  0  0  0  0  0  0  0  0  0  0  0
    0.7815    0.9956    0.7030 C   0  0  0  0  0  0  0  0  0  0  0  0
    0.4992    0.4143   -0.6640 C   0  0  1  0  0  0  0  0  0  0  0  0
    1.5284   -0.6711   -0.9246 C   0  0  0  0  0  0  0  0  0  0  0  0
    2.9008   -0.1529   -1.0923 C   0  0  0  0  0  0  0  0  0  0  0  0
    3.3396    0.2241   -2.3456 C   0  0  0  0  0  0  0  0  0  0  0  0
    4.6015    0.7094   -2.5831 C   0  0  0  0  0  0  0  0  0  0  0  0
    5.1099    1.1734   -4.1883 Cl  0  0  0  0  0  0  0  0  0  0  0  0
    5.4943    0.8337   -1.5191 C   0  0  0  0  0  0  0  0  0  0  0  0
    5.0878    0.4699   -0.2767 C   0  0  0  0  0  0  0  0  0  0  0  0
    5.9761    0.5833    0.8397 N   0  0  0  0  0  0  0  0  0  0  0  0
    6.9072    1.5164    0.9747 N   0  0  0  0  0  0  0  0  0  0  0  0
    7.5293    1.2902    2.1451 C   0  0  0  0  0  0  0  0  0  0  0  0
    6.9401    0.1856    2.7133 C   0  0  0  0  0  0  0  0  0  0  0  0
    5.9891   -0.2222    1.8822 N   0  0  0  0  0  0  0  0  0  0  0  0
    3.7948   -0.0233   -0.0569 C   0  0  0  0  0  0  0  0  0  0  0  0
   -4.0875    0.0210   -0.3601 C   0  0  0  0  0  0  0  0  0  0  0  0
   -3.7463    1.2442    0.2777 N   0  0  0  0  0  0  0  0  0  0  0  0
   -3.7080    1.3973    1.6025 N   0  0  0  0  0  0  0  0  0  0  0  0
   -3.3593    2.6435    1.9269 C   0  0  0  0  0  0  0  0  0  0  0  0
   -3.1673    3.3128    0.7406 C   0  0  0  0  0  0  0  0  0  0  0  0
   -3.4170    2.4113   -0.2266 N   0  0  0  0  0  0  0  0  0  0  0  0
   -5.3200   -0.6020   -0.1582 C   0  0  0  0  0  0  0  0  0  0  0  0
   -6.7624   -3.5741   -0.4932 H   0  0  0  0  0  0  0  0  0  0  0  0
   -7.5220   -2.2651   -1.4846 H   0  0  0  0  0  0  0  0  0  0  0  0
   -7.3709   -2.1153    0.3127 H   0  0  0  0  0  0  0  0  0  0  0  0
   -4.9080   -3.3282   -2.1630 H   0  0  0  0  0  0  0  0  0  0  0  0
   -2.7131   -2.1832   -2.4991 H   0  0  0  0  0  0  0  0  0  0  0  0
   -2.0203   -1.2758    0.8417 H   0  0  0  0  0  0  0  0  0  0  0  0
   -0.6950   -2.1731    0.0768 H   0  0  0  0  0  0  0  0  0  0  0  0
    0.2634   -1.8682    2.0947 H   0  0  0  0  0  0  0  0  0  0  0  0
   -0.7896   -0.5246    2.5765 H   0  0  0  0  0  0  0  0  0  0  0  0
    1.7956    1.4785    0.6285 H   0  0  0  0  0  0  0  0  0  0  0  0
    0.0229    1.7615    0.9837 H   0  0  0  0  0  0  0  0  0  0  0  0
    0.5107    1.1858   -1.4572 H   0  0  0  0  0  0  0  0  0  0  0  0
    1.5523   -1.4128   -0.0994 H   0  0  0  0  0  0  0  0  0  0  0  0
    1.2104   -1.2743   -1.8275 H   0  0  0  0  0  0  0  0  0  0  0  0
    2.6816    0.1468   -3.2105 H   0  0  0  0  0  0  0  0  0  0  0  0
    6.4982    1.2125   -1.6666 H   0  0  0  0  0  0  0  0  0  0  0  0
    8.3485    1.8965    2.5367 H   0  0  0  0  0  0  0  0  0  0  0  0
    7.2241   -0.2573    3.6796 H   0  0  0  0  0  0  0  0  0  0  0  0
    3.5047   -0.3048    0.9305 H   0  0  0  0  0  0  0  0  0  0  0  0
   -3.2314    3.1111    2.8971 H   0  0  0  0  0  0  0  0  0  0  0  0
   -2.8746    4.3540    0.6327 H   0  0  0  0  0  0  0  0  0  0  0  0
   -6.0459   -0.1412    0.5072 H   0  0  0  0  0  0  0  0  0  0  0  0
  1  2  1  0
  2  3  2  0
  3  4  1  0
  4  5  2  0
  5  6  1  0
  6  7  2  0
  6  8  1  0
  8  9  1  0
  9 10  1  0
 10 11  1  0
 11 12  1  0
 12 13  1  0
 13 14  1  0
 14 15  1  0
 15 16  2  0
 16 17  1  0
 17 18  1  0
 17 19  2  0
 19 20  1  0
 20 21  1  0
 21 22  1  0
 22 23  2  0
 23 24  1  0
 24 25  2  0
 20 26  2  0
  5 27  1  0
 27 28  1  0
 28 29  1  0
 29 30  2  0
 30 31  1  0
 31 32  2  0
 27 33  2  0
 33  2  1  0
 13  8  1  0
 26 15  1  0
 32 28  1  0
 25 21  1  0
  1 34  1  0
  1 35  1  0
  1 36  1  0
  3 37  1  0
  4 38  1  0
  9 39  1  0
  9 40  1  0
 10 41  1  0
 10 42  1  0
 12 43  1  0
 12 44  1  0
 13 45  1  6
 14 46  1  0
 14 47  1  0
 16 48  1  0
 19 49  1  0
 23 50  1  0
 24 51  1  0
 26 52  1  0
 30 53  1  0
 31 54  1  0
 33 55  1  0
M  END
$$$$
