
     RDKit          3D

 44 46  0  0  0  0  0  0  0  0999 V2000
   -2.9484    3.8976   -1.0715 C   0  0  0  0  0  0  0  0  0  0  0  0
   -2.7957    2.5257   -0.8274 O   0  0  0  0  0  0  0  0  0  0  0  0
   -1.5573    1.9487   -0.5924 C   0  0  0  0  0  0  0  0  0  0  0  0
   -0.4250    2.7329   -0.5942 C   0  0  0  0  0  0  0  0  0  0  0  0
    0.8113    2.1321   -0.3555 C   0  0  0  0  0  0  0  0  0  0  0  0
    0.9080    0.7783   -0.1207 C   0  0  0  0  0  0  0  0  0  0  0  0
    2.1777    0.1119    0.1327 C   0  0  0  0  0  0  0  0  0  0  0  0
    2.1866   -1.1322    0.3388 O   0  0  0  0  0  0  0  0  0  0  0  0
    3.3909    0.8497    0.1483 N   0  0  0  0  0  0  0  0  0  0  0  0
    4.5922    0.0968    0.4082 C   0  0  0  0  0  0  0  0  0  0  0  0
    5.3139   -0.4637   -0.6191 C   0  0  0  0  0  0  0  0  0  0  0  0
    4.7956   -0.2817   -2.2934 Cl  0  0  0  0  0  0  0  0  0  0  0  0
    6.4723   -1.1893   -0.3639 C   0  0  0  0  0  0  0  0  0  0  0  0
    6.8764   -1.3299    0.9555 C   0  0  0  0  0  0  0  0  0  0  0  0
    6.1502   -0.7651    1.9965 C   0  0  0  0  0  0  0  0  0  0  0  0
    5.0188   -0.0599    1.7104 C   0  0  0  0  0  0  0  0  0  0  0  0
    4.1184    0.6458    3.0620 Cl  0  0  0  0  0  0  0  0  0  0  0  0
   -0.2827    0.0413   -0.1332 C   0  0  0  0  0  0  0  0  0  0  0  0
   -1.5100    0.5765   -0.3602 C   0  0  0  0  0  0  0  0  0  0  0  0
   -2.6643   -0.1658   -0.3677 O   0  0  0  0  0  0  0  0  0  0  0  0
   -2.7564   -1.5258   -0.1531 C   0  0  0  0  0  0  0  0  0  0  0  0
   -3.6539   -1.7685    1.0682 C   0  0  0  0  0  0  0  0  0  0  0  0
   -5.0426   -1.9501    0.5428 C   0  0  0  0  0  0  0  0  0  0  0  0
   -4.9653   -1.6501   -0.9322 C   0  0  0  0  0  0  0  0  0  0  0  0
   -3.5794   -2.1656   -1.2788 C   0  0  0  0  0  0  0  0  0  0  0  0
   -4.0303    4.1786   -0.9470 H   0  0  0  0  0  0  0  0  0  0  0  0
   -2.3157    4.5395   -0.4208 H   0  0  0  0  0  0  0  0  0  0  0  0
   -2.6675    4.0949   -2.1345 H   0  0  0  0  0  0  0  0  0  0  0  0
   -0.4478    3.7996   -0.7732 H   0  0  0  0  0  0  0  0  0  0  0  0
    1.6768    2.7658   -0.3626 H   0  0  0  0  0  0  0  0  0  0  0  0
    3.4477    1.8769   -0.0147 H   0  0  0  0  0  0  0  0  0  0  0  0
    7.0666   -1.6439   -1.1337 H   0  0  0  0  0  0  0  0  0  0  0  0
    7.7744   -1.8882    1.1985 H   0  0  0  0  0  0  0  0  0  0  0  0
    6.4660   -0.8745    3.0333 H   0  0  0  0  0  0  0  0  0  0  0  0
   -0.1633   -1.0147    0.0548 H   0  0  0  0  0  0  0  0  0  0  0  0
   -1.8433   -2.0806    0.0421 H   0  0  0  0  0  0  0  0  0  0  0  0
   -3.5430   -0.9009    1.7506 H   0  0  0  0  0  0  0  0  0  0  0  0
   -3.3453   -2.6873    1.6103 H   0  0  0  0  0  0  0  0  0  0  0  0
   -5.7655   -1.3173    1.0822 H   0  0  0  0  0  0  0  0  0  0  0  0
   -5.3584   -3.0310    0.6216 H   0  0  0  0  0  0  0  0  0  0  0  0
   -5.7635   -2.1584   -1.4967 H   0  0  0  0  0  0  0  0  0  0  0  0
   -4.9461   -0.5477   -1.1211 H   0  0  0  0  0  0  0  0  0  0  0  0
   -3.2984   -1.7441   -2.2604 H   0  0  0  0  0  0  0  0  0  0  0  0
   -3.5750   -3.2561   -1.2274 H   0  0  0  0  0  0  0  0  0  0  0  0
  1  2  1  0
  2  3  1  0
  3  4  2  0
  4  5  1  0
  5  6  2  0
  6  7  1  0
  7  8  2  0
  7  9  1  0
  9 10  1  0
 10 11  2  0
 11 12  1  0
 11 13  1  0
 13 14  2  0
 14 15  1  0
 15 16  2  0
 16 17  1  0
  6 18  1  0
 18 19  2  0
 19 20  1  0
 20 21  1  0
 21 22  1  0
 22 23  1  0
 23 24  1  0
 24 25  1  0
 19  3  1  0
 25 21  1  0
 16 10  1  0
  1 26  1  0
  1 27  1  0
  1 28  1  0
  4 29  1  0
  5 30  1  0
  9 31  1  0
 13 32  1  0
 14 33  1  0
 15 34  1  0
 18 35  1  0
 21 36  1  0
 22 37  1  0
 22 38  1  0
 23 39  1  0
 23 40  1  0
 24 41  1  0
 24 42  1  0
 25 43  1  0
 25 44  1  0
M  END
$$$$
