
     RDKit          3D

 23 22  0  0  0  0  0  0  0  0999 V2000
   -3.2100    1.3563    0.4104 N   0  0  0  0  0  0  0  0  0  0  0  0
   -2.2323    0.6948   -0.3928 C   0  0  0  0  0  0  0  0  0  0  0  0
   -2.2013    0.8148   -1.6397 O   0  0  0  0  0  0  0  0  0  0  0  0
   -1.2472   -0.1375    0.2348 N   0  0  0  0  0  0  0  0  0  0  0  0
   -0.2182   -0.8460   -0.5031 C   0  0  1  0  0  0  0  0  0  0  0  0
    1.1669   -0.4073   -0.0221 C   0  0  0  0  0  0  0  0  0  0  0  0
    1.3081    1.0675   -0.2508 C   0  0  0  0  0  0  0  0  0  0  0  0
    2.6524    1.5176    0.2113 C   0  0  0  0  0  0  0  0  0  0  0  0
    3.6266    0.7060    0.7670 O   0  0  0  0  0  0  0  0  0  0  0  0
    2.8631    2.7658    0.0552 O   0  0  0  0  0  0  0  0  0  0  0  0
   -0.3997   -2.3097   -0.3046 C   0  0  0  0  0  0  0  0  0  0  0  0
   -1.2765   -3.1351    0.3855 O   0  0  0  0  0  0  0  0  0  0  0  0
    0.4725   -2.9937   -0.9263 O   0  0  0  0  0  0  0  0  0  0  0  0
   -4.2101    1.4041    0.1030 H   0  0  0  0  0  0  0  0  0  0  0  0
   -2.9916    1.8149    1.3200 H   0  0  0  0  0  0  0  0  0  0  0  0
   -1.2116   -0.2852    1.2776 H   0  0  0  0  0  0  0  0  0  0  0  0
   -0.3292   -0.6357   -1.5829 H   0  0  0  0  0  0  0  0  0  0  0  0
    1.9327   -0.9664   -0.5934 H   0  0  0  0  0  0  0  0  0  0  0  0
    1.2479   -0.5865    1.0578 H   0  0  0  0  0  0  0  0  0  0  0  0
    0.5302    1.5990    0.3352 H   0  0  0  0  0  0  0  0  0  0  0  0
    1.1869    1.3296   -1.3149 H   0  0  0  0  0  0  0  0  0  0  0  0
    4.2901    1.1443    1.3986 H   0  0  0  0  0  0  0  0  0  0  0  0
   -1.7499   -3.9117   -0.0259 H   0  0  0  0  0  0  0  0  0  0  0  0
  1  2  1  0
  2  3  2  0
  2  4  1  0
  4  5  1  0
  5  6  1  0
  6  7  1  0
  7  8  1  0
  8  9  1  0
  8 10  2  0
  5 11  1  0
 11 12  1  0
 11 13  2  0
  1 14  1  0
  1 15  1  0
  4 16  1  0
  5 17  1  6
  6 18  1  0
  6 19  1  0
  7 20  1  0
  7 21  1  0
  9 22  1  0
 12 23  1  0
M  END
$$$$
