
     RDKit          3D

 65 65  0  0  0  0  0  0  0  0999 V2000
   -7.9233   -1.9425    1.8365 C   0  0  0  0  0  0  0  0  0  0  0  0
   -7.8617   -1.0598    0.6154 C   0  0  0  0  0  0  0  0  0  0  0  0
   -6.4371   -1.0093    0.0486 C   0  0  0  0  0  0  0  0  0  0  0  0
   -5.5750   -0.4570    1.1325 C   0  0  0  0  0  0  0  0  0  0  0  0
   -4.1113   -0.3287    0.7717 C   0  0  0  0  0  0  0  0  0  0  0  0
   -3.4203    0.2411    1.9903 C   0  0  0  0  0  0  0  0  0  0  0  0
   -3.6415   -1.6107    0.4623 O   0  0  0  0  0  0  0  0  0  0  0  0
   -3.9916    0.5258   -0.4327 C   0  0  0  0  0  0  0  0  0  0  0  0
   -2.6102    0.7559   -0.9237 C   0  0  0  0  0  0  0  0  0  0  0  0
   -1.4472    0.3288   -0.4757 C   0  0  0  0  0  0  0  0  0  0  0  0
   -0.1180    0.6414   -1.0748 C   0  0  1  0  0  0  0  0  0  0  0  0
   -0.2851    1.7217   -2.1218 C   0  0  2  0  0  0  0  0  0  0  0  0
   -0.8142    1.2886   -3.3162 O   0  0  0  0  0  0  0  0  0  0  0  0
    1.1361    2.2245   -2.2711 C   0  0  0  0  0  0  0  0  0  0  0  0
    1.5416    2.3489   -0.8435 C   0  0  0  0  0  0  0  0  0  0  0  0
    2.3781    3.1922   -0.5871 O   0  0  0  0  0  0  0  0  0  0  0  0
    0.7754    1.3600   -0.0793 C   0  0  2  0  0  0  0  0  0  0  0  0
    1.5210    0.4428    0.8095 C   0  0  0  0  0  0  0  0  0  0  0  0
    2.4468   -0.5290    0.2111 C   0  0  0  0  0  0  0  0  0  0  0  0
    3.6084   -0.0686   -0.5595 C   0  0  0  0  0  0  0  0  0  0  0  0
    4.6023    0.7610    0.2023 C   0  0  0  0  0  0  0  0  0  0  0  0
    5.7322    1.1673   -0.7207 C   0  0  0  0  0  0  0  0  0  0  0  0
    6.4729   -0.0102   -1.3077 C   0  0  0  0  0  0  0  0  0  0  0  0
    7.0632   -0.8285   -0.2199 C   0  0  0  0  0  0  0  0  0  0  0  0
    6.4674   -1.6382    0.5371 O   0  0  0  0  0  0  0  0  0  0  0  0
    8.4176   -0.8033    0.1182 O   0  0  0  0  0  0  0  0  0  0  0  0
    8.8739   -1.6139    1.1607 C   0  0  0  0  0  0  0  0  0  0  0  0
   -8.8640   -2.4980    1.9476 H   0  0  0  0  0  0  0  0  0  0  0  0
   -7.8066   -1.3444    2.7669 H   0  0  0  0  0  0  0  0  0  0  0  0
   -7.0858   -2.6725    1.7862 H   0  0  0  0  0  0  0  0  0  0  0  0
   -8.1297   -0.0345    0.9429 H   0  0  0  0  0  0  0  0  0  0  0  0
   -8.6056   -1.3281   -0.1597 H   0  0  0  0  0  0  0  0  0  0  0  0
   -6.5283   -0.2974   -0.8152 H   0  0  0  0  0  0  0  0  0  0  0  0
   -6.1199   -2.0138   -0.2336 H   0  0  0  0  0  0  0  0  0  0  0  0
   -5.9723    0.5745    1.3670 H   0  0  0  0  0  0  0  0  0  0  0  0
   -5.7058   -1.0255    2.0657 H   0  0  0  0  0  0  0  0  0  0  0  0
   -2.8519    1.1702    1.7853 H   0  0  0  0  0  0  0  0  0  0  0  0
   -2.7915   -0.5649    2.4393 H   0  0  0  0  0  0  0  0  0  0  0  0
   -4.1285    0.5165    2.8018 H   0  0  0  0  0  0  0  0  0  0  0  0
   -3.1731   -2.0252    1.2232 H   0  0  0  0  0  0  0  0  0  0  0  0
   -4.4001    1.5342   -0.1804 H   0  0  0  0  0  0  0  0  0  0  0  0
   -4.5933    0.1187   -1.2521 H   0  0  0  0  0  0  0  0  0  0  0  0
   -2.6032    1.4022   -1.8209 H   0  0  0  0  0  0  0  0  0  0  0  0
   -1.5527   -0.2968    0.4042 H   0  0  0  0  0  0  0  0  0  0  0  0
    0.4243   -0.2417   -1.4393 H   0  0  0  0  0  0  0  0  0  0  0  0
   -0.8574    2.5336   -1.6757 H   0  0  0  0  0  0  0  0  0  0  0  0
   -0.6443    0.3566   -3.5231 H   0  0  0  0  0  0  0  0  0  0  0  0
    1.1821    3.1723   -2.8403 H   0  0  0  0  0  0  0  0  0  0  0  0
    1.7359    1.4959   -2.8368 H   0  0  0  0  0  0  0  0  0  0  0  0
    0.0972    1.9598    0.6028 H   0  0  0  0  0  0  0  0  0  0  0  0
    0.7300   -0.1717    1.3425 H   0  0  0  0  0  0  0  0  0  0  0  0
    1.9818    0.9961    1.6825 H   0  0  0  0  0  0  0  0  0  0  0  0
    2.8396   -1.1615    1.0623 H   0  0  0  0  0  0  0  0  0  0  0  0
    1.8621   -1.2481   -0.3994 H   0  0  0  0  0  0  0  0  0  0  0  0
    3.4139    0.4254   -1.5301 H   0  0  0  0  0  0  0  0  0  0  0  0
    4.1790   -1.0000   -0.8570 H   0  0  0  0  0  0  0  0  0  0  0  0
    4.2231    1.6633    0.6719 H   0  0  0  0  0  0  0  0  0  0  0  0
    5.0031    0.1128    1.0287 H   0  0  0  0  0  0  0  0  0  0  0  0
    6.4350    1.8180   -0.1833 H   0  0  0  0  0  0  0  0  0  0  0  0
    5.2614    1.7645   -1.5280 H   0  0  0  0  0  0  0  0  0  0  0  0
    7.3342    0.3917   -1.8856 H   0  0  0  0  0  0  0  0  0  0  0  0
    5.8735   -0.5837   -2.0238 H   0  0  0  0  0  0  0  0  0  0  0  0
    9.8546   -1.1996    1.4865 H   0  0  0  0  0  0  0  0  0  0  0  0
    9.0283   -2.6724    0.8129 H   0  0  0  0  0  0  0  0  0  0  0  0
    8.1544   -1.6073    2.0020 H   0  0  0  0  0  0  0  0  0  0  0  0
  1  2  1  0
  2  3  1  0
  3  4  1  0
  4  5  1  0
  5  6  1  0
  5  7  1  0
  5  8  1  0
  8  9  1  0
  9 10  2  0
 10 11  1  0
 11 12  1  0
 12 13  1  0
 12 14  1  0
 14 15  1  0
 15 16  2  0
 15 17  1  0
 17 18  1  0
 18 19  1  0
 19 20  1  0
 20 21  1  0
 21 22  1  0
 22 23  1  0
 23 24  1  0
 24 25  2  0
 24 26  1  0
 26 27  1  0
 17 11  1  0
  1 28  1  0
  1 29  1  0
  1 30  1  0
  2 31  1  0
  2 32  1  0
  3 33  1  0
  3 34  1  0
  4 35  1  0
  4 36  1  0
  6 37  1  0
  6 38  1  0
  6 39  1  0
  7 40  1  0
  8 41  1  0
  8 42  1  0
  9 43  1  0
 10 44  1  0
 11 45  1  6
 12 46  1  1
 13 47  1  0
 14 48  1  0
 14 49  1  0
 17 50  1  1
 18 51  1  0
 18 52  1  0
 19 53  1  0
 19 54  1  0
 20 55  1  0
 20 56  1  0
 21 57  1  0
 21 58  1  0
 22 59  1  0
 22 60  1  0
 23 61  1  0
 23 62  1  0
 27 63  1  0
 27 64  1  0
 27 65  1  0
M  END
$$$$
