
     RDKit          3D

 72 77  0  0  0  0  0  0  0  0999 V2000
    7.8938    2.3409   -1.0318 C   0  0  0  0  0  0  0  0  0  0  0  0
    7.6595    0.9190   -0.4805 C   0  0  1  0  0  0  0  0  0  0  0  0
    6.9553    0.2009   -1.4262 O   0  0  0  0  0  0  0  0  0  0  0  0
    5.6392   -0.3146   -1.2375 C   0  0  0  0  0  0  0  0  0  0  0  0
    4.8761   -0.1841   -0.1361 C   0  0  0  0  0  0  0  0  0  0  0  0
    3.6621   -0.7145   -0.0889 C   0  0  0  0  0  0  0  0  0  0  0  0
    2.6718   -0.7029    0.9705 N   0  0  0  0  0  0  0  0  0  0  0  0
    2.8833   -0.8124    2.2911 C   0  0  0  0  0  0  0  0  0  0  0  0
    1.7315   -0.7596    2.9754 N   0  0  0  0  0  0  0  0  0  0  0  0
    0.7565   -0.6123    2.0648 C   0  0  0  0  0  0  0  0  0  0  0  0
   -0.6085   -0.5053    2.2292 C   0  0  0  0  0  0  0  0  0  0  0  0
   -1.3937   -0.3593    1.1002 C   0  0  0  0  0  0  0  0  0  0  0  0
   -2.8188   -0.2479    1.2826 C   0  0  0  0  0  0  0  0  0  0  0  0
   -3.5762    0.4893    0.4135 C   0  0  0  0  0  0  0  0  0  0  0  0
   -4.9530    0.5615    0.6396 C   0  0  0  0  0  0  0  0  0  0  0  0
   -5.5458   -0.0811    1.6957 C   0  0  0  0  0  0  0  0  0  0  0  0
   -6.9404    0.0102    1.8802 N   0  0  0  0  0  0  0  0  0  0  0  0
   -7.8625    0.7127    1.0197 C   0  0  0  0  0  0  0  0  0  0  0  0
   -9.2664    0.7190    1.6135 C   0  0  0  0  0  0  0  0  0  0  0  0
  -10.2680    1.0670    0.5012 C   0  0  0  0  0  0  0  0  0  0  0  0
  -10.3482   -0.1052   -0.3162 N   0  0  0  0  0  0  0  0  0  0  0  0
  -11.3184   -0.0127   -1.3651 C   0  0  0  0  0  0  0  0  0  0  0  0
   -9.0993   -0.6247   -0.7377 C   0  0  0  0  0  0  0  0  0  0  0  0
   -7.8791    0.1450   -0.3811 C   0  0  0  0  0  0  0  0  0  0  0  0
   -4.7755   -0.7953    2.5291 N   0  0  0  0  0  0  0  0  0  0  0  0
   -3.4290   -0.8808    2.3296 C   0  0  0  0  0  0  0  0  0  0  0  0
   -0.8007   -0.3233   -0.1674 C   0  0  0  0  0  0  0  0  0  0  0  0
    0.5664   -0.4319   -0.3115 C   0  0  0  0  0  0  0  0  0  0  0  0
    1.3422   -0.5770    0.8167 C   0  0  0  0  0  0  0  0  0  0  0  0
    3.4747   -1.4782   -1.6562 S   0  0  0  0  0  0  0  0  0  0  0  0
    5.0921   -1.0194   -2.2918 C   0  0  0  0  0  0  0  0  0  0  0  0
    5.6269   -1.3472   -3.6087 C   0  0  0  0  0  0  0  0  0  0  0  0
    4.8959   -2.0940   -4.5589 N   0  0  0  0  0  0  0  0  0  0  0  0
    6.7792   -0.9529   -3.9114 O   0  0  0  0  0  0  0  0  0  0  0  0
    8.9970    0.3386   -0.1871 C   0  0  0  0  0  0  0  0  0  0  0  0
    9.7421   -0.3710   -1.1017 C   0  0  0  0  0  0  0  0  0  0  0  0
   10.9851   -0.8904   -0.7839 C   0  0  0  0  0  0  0  0  0  0  0  0
   11.4665   -0.6777    0.4892 C   0  0  0  0  0  0  0  0  0  0  0  0
   10.7628    0.0166    1.4208 C   0  0  0  0  0  0  0  0  0  0  0  0
    9.5191    0.5247    1.0701 C   0  0  0  0  0  0  0  0  0  0  0  0
    8.6424    1.4158    2.3042 Cl  0  0  0  0  0  0  0  0  0  0  0  0
    7.1116    2.9981   -0.5958 H   0  0  0  0  0  0  0  0  0  0  0  0
    7.7799    2.3198   -2.1354 H   0  0  0  0  0  0  0  0  0  0  0  0
    8.8770    2.7300   -0.7130 H   0  0  0  0  0  0  0  0  0  0  0  0
    7.1121    1.0159    0.4743 H   0  0  0  0  0  0  0  0  0  0  0  0
    5.2668    0.3800    0.7555 H   0  0  0  0  0  0  0  0  0  0  0  0
    3.8647   -0.9275    2.7269 H   0  0  0  0  0  0  0  0  0  0  0  0
   -1.0764   -0.5324    3.2050 H   0  0  0  0  0  0  0  0  0  0  0  0
   -3.1379    1.0043   -0.4247 H   0  0  0  0  0  0  0  0  0  0  0  0
   -5.4893    1.1693   -0.0842 H   0  0  0  0  0  0  0  0  0  0  0  0
   -7.3592   -0.4800    2.7277 H   0  0  0  0  0  0  0  0  0  0  0  0
   -7.5448    1.7677    0.9488 H   0  0  0  0  0  0  0  0  0  0  0  0
   -9.3525    1.4027    2.4680 H   0  0  0  0  0  0  0  0  0  0  0  0
   -9.4997   -0.3219    1.9123 H   0  0  0  0  0  0  0  0  0  0  0  0
   -9.9597    1.9769   -0.0409 H   0  0  0  0  0  0  0  0  0  0  0  0
  -11.2595    1.1933    1.0139 H   0  0  0  0  0  0  0  0  0  0  0  0
  -11.1861   -0.8673   -2.0600 H   0  0  0  0  0  0  0  0  0  0  0  0
  -11.2572    0.9651   -1.8556 H   0  0  0  0  0  0  0  0  0  0  0  0
  -12.3317   -0.0828   -0.8721 H   0  0  0  0  0  0  0  0  0  0  0  0
   -9.0316   -1.7092   -0.4495 H   0  0  0  0  0  0  0  0  0  0  0  0
   -9.1283   -0.6651   -1.8678 H   0  0  0  0  0  0  0  0  0  0  0  0
   -7.6277    0.9309   -1.1192 H   0  0  0  0  0  0  0  0  0  0  0  0
   -7.0204   -0.5951   -0.4224 H   0  0  0  0  0  0  0  0  0  0  0  0
   -2.9027   -1.4828    3.0612 H   0  0  0  0  0  0  0  0  0  0  0  0
   -1.4187   -0.2095   -1.0485 H   0  0  0  0  0  0  0  0  0  0  0  0
    1.0707   -0.4098   -1.2680 H   0  0  0  0  0  0  0  0  0  0  0  0
    5.3657   -2.7475   -5.1934 H   0  0  0  0  0  0  0  0  0  0  0  0
    3.8624   -2.0018   -4.6407 H   0  0  0  0  0  0  0  0  0  0  0  0
    9.3424   -0.5255   -2.1004 H   0  0  0  0  0  0  0  0  0  0  0  0
   11.5960   -1.4491   -1.4711 H   0  0  0  0  0  0  0  0  0  0  0  0
   12.4471   -1.0675    0.7958 H   0  0  0  0  0  0  0  0  0  0  0  0
   11.1490    0.1777    2.4162 H   0  0  0  0  0  0  0  0  0  0  0  0
  1  2  1  0
  2  3  1  0
  3  4  1  0
  4  5  1  0
  5  6  2  0
  6  7  1  0
  7  8  1  0
  8  9  2  0
  9 10  1  0
 10 11  2  0
 11 12  1  0
 12 13  1  0
 13 14  2  0
 14 15  1  0
 15 16  2  0
 16 17  1  0
 17 18  1  0
 18 19  1  0
 19 20  1  0
 20 21  1  0
 21 22  1  0
 21 23  1  0
 23 24  1  0
 16 25  1  0
 25 26  2  0
 12 27  2  0
 27 28  1  0
 28 29  2  0
  6 30  1  0
 30 31  1  0
 31 32  1  0
 32 33  1  0
 32 34  2  0
  2 35  1  0
 35 36  2  0
 36 37  1  0
 37 38  2  0
 38 39  1  0
 39 40  2  0
 40 41  1  0
 31  4  2  0
 40 35  1  0
 29  7  1  0
 29 10  1  0
 26 13  1  0
 24 18  1  0
  1 42  1  0
  1 43  1  0
  1 44  1  0
  2 45  1  1
  5 46  1  0
  8 47  1  0
 11 48  1  0
 14 49  1  0
 15 50  1  0
 17 51  1  0
 18 52  1  0
 19 53  1  0
 19 54  1  0
 20 55  1  0
 20 56  1  0
 22 57  1  0
 22 58  1  0
 22 59  1  0
 23 60  1  0
 23 61  1  0
 24 62  1  0
 24 63  1  0
 26 64  1  0
 27 65  1  0
 28 66  1  0
 33 67  1  0
 33 68  1  0
 36 69  1  0
 37 70  1  0
 38 71  1  0
 39 72  1  0
M  END
$$$$
