
     RDKit          3D

 54 60  0  0  0  0  0  0  0  0999 V2000
   -7.6125    2.3837    0.0806 C   0  0  0  0  0  0  0  0  0  0  0  0
   -6.4844    2.2275    0.8363 C   0  0  0  0  0  0  0  0  0  0  0  0
   -5.7708    1.0526    0.7731 C   0  0  0  0  0  0  0  0  0  0  0  0
   -6.1910    0.0326   -0.0505 C   0  0  0  0  0  0  0  0  0  0  0  0
   -5.4754   -1.1422   -0.1120 C   0  0  0  0  0  0  0  0  0  0  0  0
   -4.2796   -1.3118    0.6868 C   0  0  0  0  0  0  0  0  0  0  0  0
   -4.1954   -1.8192    1.9649 C   0  0  0  0  0  0  0  0  0  0  0  0
   -2.9104   -1.8077    2.3463 N   0  0  0  0  0  0  0  0  0  0  0  0
   -2.1374   -1.3106    1.3675 N   0  0  0  0  0  0  0  0  0  0  0  0
   -0.8091   -1.1096    1.2947 C   0  0  0  0  0  0  0  0  0  0  0  0
   -0.3071   -0.5725    0.1293 C   0  0  0  0  0  0  0  0  0  0  0  0
    1.1374   -0.3581    0.0549 C   0  0  0  0  0  0  0  0  0  0  0  0
    2.0236   -1.1866    0.7105 C   0  0  0  0  0  0  0  0  0  0  0  0
    3.3862   -0.9884    0.6431 C   0  0  0  0  0  0  0  0  0  0  0  0
    3.9300    0.0667   -0.0968 C   0  0  0  0  0  0  0  0  0  0  0  0
    5.3095    0.2919   -0.1831 N   0  0  0  0  0  0  0  0  0  0  0  0
    6.3876   -0.4819    0.4550 C   0  0  0  0  0  0  0  0  0  0  0  0
    7.6402    0.2969    0.1804 C   0  0  2  0  0  0  0  0  0  0  0  0
    7.0608    1.7220    0.1022 C   0  0  0  0  0  0  0  0  0  0  0  0
    5.9690    1.3251   -0.9121 C   0  0  1  0  0  0  0  0  0  0  0  0
    6.8451    0.6583   -1.9523 C   0  0  0  0  0  0  0  0  0  0  0  0
    7.9825    0.1033   -1.2199 N   0  0  0  0  0  0  0  0  0  0  0  0
    3.0395    0.8891   -0.7483 C   0  0  0  0  0  0  0  0  0  0  0  0
    1.6573    0.6863   -0.6785 C   0  0  0  0  0  0  0  0  0  0  0  0
   -1.1560   -0.2585   -0.9154 C   0  0  0  0  0  0  0  0  0  0  0  0
   -2.4774   -0.4794   -0.7911 N   0  0  0  0  0  0  0  0  0  0  0  0
   -2.9610   -1.0042    0.3495 C   0  0  0  0  0  0  0  0  0  0  0  0
   -5.8846   -2.1660   -0.9292 C   0  0  0  0  0  0  0  0  0  0  0  0
   -7.0437   -1.9680   -1.6867 C   0  0  0  0  0  0  0  0  0  0  0  0
   -7.7423   -0.8265   -1.6294 N   0  0  0  0  0  0  0  0  0  0  0  0
   -7.3309    0.1863   -0.8161 C   0  0  0  0  0  0  0  0  0  0  0  0
   -8.0403    1.3607   -0.7502 C   0  0  0  0  0  0  0  0  0  0  0  0
   -8.1402    3.3277    0.1655 H   0  0  0  0  0  0  0  0  0  0  0  0
   -6.1040    2.9991    1.5053 H   0  0  0  0  0  0  0  0  0  0  0  0
   -4.8609    0.9438    1.3906 H   0  0  0  0  0  0  0  0  0  0  0  0
   -5.0234   -2.1793    2.5884 H   0  0  0  0  0  0  0  0  0  0  0  0
   -0.1492   -1.3538    2.1085 H   0  0  0  0  0  0  0  0  0  0  0  0
    1.5935   -2.0143    1.2900 H   0  0  0  0  0  0  0  0  0  0  0  0
    4.0574   -1.6521    1.1655 H   0  0  0  0  0  0  0  0  0  0  0  0
    6.4678   -1.4819   -0.0170 H   0  0  0  0  0  0  0  0  0  0  0  0
    6.1857   -0.6384    1.5303 H   0  0  0  0  0  0  0  0  0  0  0  0
    8.4424    0.1927    0.8752 H   0  0  0  0  0  0  0  0  0  0  0  0
    6.6378    2.0446    1.0520 H   0  0  0  0  0  0  0  0  0  0  0  0
    7.7584    2.4129   -0.3688 H   0  0  0  0  0  0  0  0  0  0  0  0
    5.3898    2.1518   -1.2553 H   0  0  0  0  0  0  0  0  0  0  0  0
    6.2651   -0.2371   -2.3204 H   0  0  0  0  0  0  0  0  0  0  0  0
    7.1518    1.3282   -2.7559 H   0  0  0  0  0  0  0  0  0  0  0  0
    8.7871    0.7492   -1.4119 H   0  0  0  0  0  0  0  0  0  0  0  0
    3.4026    1.7245   -1.3379 H   0  0  0  0  0  0  0  0  0  0  0  0
    0.9860    1.3555   -1.2056 H   0  0  0  0  0  0  0  0  0  0  0  0
   -0.7241    0.1682   -1.8304 H   0  0  0  0  0  0  0  0  0  0  0  0
   -5.3383   -3.0834   -0.9861 H   0  0  0  0  0  0  0  0  0  0  0  0
   -7.4099   -2.7551   -2.3533 H   0  0  0  0  0  0  0  0  0  0  0  0
   -8.9352    1.5057   -1.3390 H   0  0  0  0  0  0  0  0  0  0  0  0
  1  2  2  0
  2  3  1  0
  3  4  2  0
  4  5  1  0
  5  6  1  0
  6  7  1  0
  7  8  2  0
  8  9  1  0
  9 10  1  0
 10 11  2  0
 11 12  1  0
 12 13  2  0
 13 14  1  0
 14 15  2  0
 15 16  1  0
 16 17  1  0
 17 18  1  0
 18 19  1  0
 19 20  1  0
 20 21  1  0
 21 22  1  0
 15 23  1  0
 23 24  2  0
 11 25  1  0
 25 26  2  0
 26 27  1  0
  5 28  2  0
 28 29  1  0
 29 30  2  0
 30 31  1  0
 31 32  2  0
 32  1  1  0
 31  4  1  0
 27  6  2  0
 27  9  1  0
 24 12  1  0
 20 16  1  0
 22 18  1  0
  1 33  1  0
  2 34  1  0
  3 35  1  0
  7 36  1  0
 10 37  1  0
 13 38  1  0
 14 39  1  0
 17 40  1  0
 17 41  1  0
 18 42  1  1
 19 43  1  0
 19 44  1  0
 20 45  1  6
 21 46  1  0
 21 47  1  0
 22 48  1  0
 23 49  1  0
 24 50  1  0
 25 51  1  0
 28 52  1  0
 29 53  1  0
 32 54  1  0
M  END
$$$$
