
     RDKit          3D

 37 39  0  0  0  0  0  0  0  0999 V2000
   -0.6271    0.6798   -3.8761 C   0  0  0  0  0  0  0  0  0  0  0  0
   -0.6803    0.7855   -2.3849 C   0  0  0  0  0  0  0  0  0  0  0  0
   -1.8164    1.2454   -1.7567 C   0  0  0  0  0  0  0  0  0  0  0  0
   -1.8358    1.3317   -0.3817 C   0  0  0  0  0  0  0  0  0  0  0  0
   -2.9913    1.7993    0.2548 O   0  0  0  0  0  0  0  0  0  0  0  0
   -4.0055    0.9405    0.6503 C   0  0  0  0  0  0  0  0  0  0  0  0
   -5.0177    0.6795   -0.2477 C   0  0  0  0  0  0  0  0  0  0  0  0
   -6.0432   -0.1540    0.0768 N   0  0  0  0  0  0  0  0  0  0  0  0
   -6.0848   -0.7445    1.2973 C   0  0  0  0  0  0  0  0  0  0  0  0
   -5.0922   -0.5084    2.2208 C   0  0  0  0  0  0  0  0  0  0  0  0
   -5.1398   -1.2591    3.7799 Cl  0  0  0  0  0  0  0  0  0  0  0  0
   -4.0481    0.3393    1.8926 C   0  0  0  0  0  0  0  0  0  0  0  0
   -0.7269    0.9599    0.3445 C   0  0  0  0  0  0  0  0  0  0  0  0
    0.4051    0.5012   -0.2914 C   0  0  0  0  0  0  0  0  0  0  0  0
    1.6041    0.0970    0.4560 C   0  0  0  0  0  0  0  0  0  0  0  0
    1.6290    0.1589    1.6926 O   0  0  0  0  0  0  0  0  0  0  0  0
    2.7271   -0.3623   -0.2457 N   0  0  0  0  0  0  0  0  0  0  0  0
    3.9373   -0.7789    0.3586 C   0  0  0  0  0  0  0  0  0  0  0  0
    4.9453    0.1194    0.5929 C   0  0  0  0  0  0  0  0  0  0  0  0
    6.1183   -0.3007    1.1822 C   0  0  0  0  0  0  0  0  0  0  0  0
    6.2770   -1.6339    1.5378 C   0  0  0  0  0  0  0  0  0  0  0  0
    7.4282   -2.0500    2.1169 F   0  0  0  0  0  0  0  0  0  0  0  0
    5.2488   -2.5181    1.2918 C   0  0  0  0  0  0  0  0  0  0  0  0
    4.1161   -2.0817    0.7161 N   0  0  0  0  0  0  0  0  0  0  0  0
    0.3762    0.4348   -1.6321 N   0  0  0  0  0  0  0  0  0  0  0  0
   -0.7459   -0.3651   -4.2240 H   0  0  0  0  0  0  0  0  0  0  0  0
    0.3053    1.1249   -4.2738 H   0  0  0  0  0  0  0  0  0  0  0  0
   -1.4708    1.2561   -4.2860 H   0  0  0  0  0  0  0  0  0  0  0  0
   -2.6723    1.5300   -2.3563 H   0  0  0  0  0  0  0  0  0  0  0  0
   -5.0375    1.1141   -1.2188 H   0  0  0  0  0  0  0  0  0  0  0  0
   -6.9003   -1.4187    1.5798 H   0  0  0  0  0  0  0  0  0  0  0  0
   -3.2589    0.5310    2.6182 H   0  0  0  0  0  0  0  0  0  0  0  0
   -0.7105    1.0158    1.4212 H   0  0  0  0  0  0  0  0  0  0  0  0
    2.6963   -0.4115   -1.3008 H   0  0  0  0  0  0  0  0  0  0  0  0
    4.8075    1.1585    0.3098 H   0  0  0  0  0  0  0  0  0  0  0  0
    6.9423    0.3654    1.3885 H   0  0  0  0  0  0  0  0  0  0  0  0
    5.3413   -3.5811    1.5609 H   0  0  0  0  0  0  0  0  0  0  0  0
  1  2  1  0
  2  3  2  0
  3  4  1  0
  4  5  1  0
  5  6  1  0
  6  7  2  0
  7  8  1  0
  8  9  2  0
  9 10  1  0
 10 11  1  0
 10 12  2  0
  4 13  2  0
 13 14  1  0
 14 15  1  0
 15 16  2  0
 15 17  1  0
 17 18  1  0
 18 19  2  0
 19 20  1  0
 20 21  2  0
 21 22  1  0
 21 23  1  0
 23 24  2  0
 14 25  2  0
 25  2  1  0
 12  6  1  0
 24 18  1  0
  1 26  1  0
  1 27  1  0
  1 28  1  0
  3 29  1  0
  7 30  1  0
  9 31  1  0
 12 32  1  0
 13 33  1  0
 17 34  1  0
 19 35  1  0
 20 36  1  0
 23 37  1  0
M  END
$$$$
