
     RDKit          3D

 54 58  0  0  0  0  0  0  0  0999 V2000
   -2.2547   -2.2638   -1.9866 C   0  0  0  0  0  0  0  0  0  0  0  0
   -3.0170   -1.6174   -0.8853 C   0  0  0  0  0  0  0  0  0  0  0  0
   -4.3748   -1.4839   -1.0355 C   0  0  0  0  0  0  0  0  0  0  0  0
   -5.1207   -0.8924   -0.0480 C   0  0  0  0  0  0  0  0  0  0  0  0
   -4.5309   -0.4199    1.1128 C   0  0  0  0  0  0  0  0  0  0  0  0
   -3.1749   -0.5603    1.2485 C   0  0  0  0  0  0  0  0  0  0  0  0
   -2.4228   -1.1505    0.2657 C   0  0  0  0  0  0  0  0  0  0  0  0
   -1.0151   -1.3086    0.4067 N   0  0  0  0  0  0  0  0  0  0  0  0
   -0.4746   -2.5214    0.4540 N   0  0  0  0  0  0  0  0  0  0  0  0
    0.8447   -2.4321    0.5978 C   0  0  0  0  0  0  0  0  0  0  0  0
    1.8072   -3.5709    0.6920 C   0  0  0  0  0  0  0  0  0  0  0  0
    2.7139   -3.4766   -0.3482 F   0  0  0  0  0  0  0  0  0  0  0  0
    2.4813   -3.5578    1.8934 F   0  0  0  0  0  0  0  0  0  0  0  0
    1.1483   -4.7827    0.6213 F   0  0  0  0  0  0  0  0  0  0  0  0
    1.1176   -1.0821    0.6398 C   0  0  0  0  0  0  0  0  0  0  0  0
    2.4613   -0.5060    0.7909 C   0  0  0  0  0  0  0  0  0  0  0  0
    2.9839   -0.2402    2.0402 C   0  0  0  0  0  0  0  0  0  0  0  0
    4.2315    0.2964    2.2212 C   0  0  0  0  0  0  0  0  0  0  0  0
    5.0105    0.5889    1.1148 C   0  0  0  0  0  0  0  0  0  0  0  0
    6.2557    1.1235    1.2609 N   0  0  0  0  0  0  0  0  0  0  0  0
    7.0138    1.4085    0.1892 C   0  0  0  0  0  0  0  0  0  0  0  0
    6.5264    1.1570   -1.0746 C   0  0  0  0  0  0  0  0  0  0  0  0
    5.2979    0.6294   -1.2210 N   0  0  0  0  0  0  0  0  0  0  0  0
    4.5280    0.3393   -0.1544 C   0  0  0  0  0  0  0  0  0  0  0  0
    3.2540   -0.2072   -0.2966 C   0  0  0  0  0  0  0  0  0  0  0  0
   -0.0662   -0.3734    0.5179 C   0  0  0  0  0  0  0  0  0  0  0  0
   -0.1951    1.0230    0.5108 N   0  0  0  0  0  0  0  0  0  0  0  0
   -1.3486    1.7830    0.2575 C   0  0  0  0  0  0  0  0  0  0  0  0
   -1.9075    2.5631    1.2457 C   0  0  0  0  0  0  0  0  0  0  0  0
   -3.0253    3.3397    1.0601 C   0  0  0  0  0  0  0  0  0  0  0  0
   -3.6357    3.3529   -0.1741 C   0  0  0  0  0  0  0  0  0  0  0  0
   -3.1034    2.5878   -1.1801 C   0  0  0  0  0  0  0  0  0  0  0  0
   -1.9542    1.7967   -0.9733 C   0  0  0  0  0  0  0  0  0  0  0  0
   -1.4563    1.0915   -2.1199 C   0  0  0  0  0  0  0  0  0  0  0  0
   -2.0723    1.1194   -3.2104 O   0  0  0  0  0  0  0  0  0  0  0  0
   -0.2922    0.3605   -2.0835 O   0  0  0  0  0  0  0  0  0  0  0  0
   -2.4755   -1.6619   -2.8996 H   0  0  0  0  0  0  0  0  0  0  0  0
   -2.6403   -3.2986   -2.1502 H   0  0  0  0  0  0  0  0  0  0  0  0
   -1.1710   -2.3120   -1.7987 H   0  0  0  0  0  0  0  0  0  0  0  0
   -4.8645   -1.8429   -1.9300 H   0  0  0  0  0  0  0  0  0  0  0  0
   -6.2045   -0.7736   -0.1418 H   0  0  0  0  0  0  0  0  0  0  0  0
   -5.1448    0.0520    1.8943 H   0  0  0  0  0  0  0  0  0  0  0  0
   -2.7001   -0.2017    2.1388 H   0  0  0  0  0  0  0  0  0  0  0  0
    2.3802   -0.4664    2.9075 H   0  0  0  0  0  0  0  0  0  0  0  0
    4.6661    0.5148    3.1810 H   0  0  0  0  0  0  0  0  0  0  0  0
    8.0043    1.8327    0.2587 H   0  0  0  0  0  0  0  0  0  0  0  0
    7.1176    1.3777   -1.9498 H   0  0  0  0  0  0  0  0  0  0  0  0
    2.8530   -0.4108   -1.2685 H   0  0  0  0  0  0  0  0  0  0  0  0
    0.6731    1.6226    0.7213 H   0  0  0  0  0  0  0  0  0  0  0  0
   -1.4529    2.5748    2.2255 H   0  0  0  0  0  0  0  0  0  0  0  0
   -3.4581    3.9529    1.8514 H   0  0  0  0  0  0  0  0  0  0  0  0
   -4.5392    3.9707   -0.3475 H   0  0  0  0  0  0  0  0  0  0  0  0
   -3.5964    2.6128   -2.1381 H   0  0  0  0  0  0  0  0  0  0  0  0
    0.3195    0.3435   -2.9037 H   0  0  0  0  0  0  0  0  0  0  0  0
  1  2  1  0
  2  3  2  0
  3  4  1  0
  4  5  2  0
  5  6  1  0
  6  7  2  0
  7  8  1  0
  8  9  1  0
  9 10  2  0
 10 11  1  0
 11 12  1  0
 11 13  1  0
 11 14  1  0
 10 15  1  0
 15 16  1  0
 16 17  2  0
 17 18  1  0
 18 19  2  0
 19 20  1  0
 20 21  2  0
 21 22  1  0
 22 23  2  0
 23 24  1  0
 24 25  2  0
 15 26  2  0
 26 27  1  0
 27 28  1  0
 28 29  2  0
 29 30  1  0
 30 31  2  0
 31 32  1  0
 32 33  2  0
 33 34  1  0
 34 35  2  0
 34 36  1  0
  7  2  1  0
 26  8  1  0
 33 28  1  0
 25 16  1  0
 24 19  1  0
  1 37  1  0
  1 38  1  0
  1 39  1  0
  3 40  1  0
  4 41  1  0
  5 42  1  0
  6 43  1  0
 17 44  1  0
 18 45  1  0
 21 46  1  0
 22 47  1  0
 25 48  1  0
 27 49  1  0
 29 50  1  0
 30 51  1  0
 31 52  1  0
 32 53  1  0
 36 54  1  0
M  END
$$$$
