
     RDKit          3D

 67 70  0  0  0  0  0  0  0  0999 V2000
    4.8428   -3.9216   -0.9311 C   0  0  0  0  0  0  0  0  0  0  0  0
    5.7645   -3.2603    0.0993 C   0  0  0  0  0  0  0  0  0  0  0  0
    7.0783   -4.0343    0.1348 C   0  0  0  0  0  0  0  0  0  0  0  0
    6.0962   -1.8720   -0.3865 C   0  0  0  0  0  0  0  0  0  0  0  0
    4.9671   -1.0089   -0.5593 N   0  0  0  0  0  0  0  0  0  0  0  0
    4.1138   -0.6586    0.5066 C   0  0  0  0  0  0  0  0  0  0  0  0
    4.2991   -1.0805    1.6692 O   0  0  0  0  0  0  0  0  0  0  0  0
    2.9834    0.2183    0.2726 C   0  0  0  0  0  0  0  0  0  0  0  0
    2.5219    0.5677   -0.9765 C   0  0  0  0  0  0  0  0  0  0  0  0
    1.4576    1.4182   -1.1711 C   0  0  0  0  0  0  0  0  0  0  0  0
    0.7898    1.9718   -0.0971 C   0  0  0  0  0  0  0  0  0  0  0  0
   -0.3367    2.8718   -0.2783 C   0  0  0  0  0  0  0  0  0  0  0  0
   -0.1718    4.2303   -0.4233 C   0  0  0  0  0  0  0  0  0  0  0  0
   -1.2573    5.0658   -0.6146 C   0  0  0  0  0  0  0  0  0  0  0  0
   -2.5317    4.5529   -0.6655 C   0  0  0  0  0  0  0  0  0  0  0  0
   -3.7243    5.4303   -0.8905 C   0  0  0  0  0  0  0  0  0  0  0  0
   -3.6684    6.5270   -1.6307 C   0  0  0  0  0  0  0  0  0  0  0  0
   -4.7951    7.2988   -1.8145 C   0  0  0  0  0  0  0  0  0  0  0  0
   -6.0157    6.3723   -0.8501 S   0  0  0  0  0  0  0  0  0  0  0  0
   -4.9245    5.0684   -0.3048 C   0  0  0  0  0  0  0  0  0  0  0  0
   -2.7114    3.1931   -0.5210 C   0  0  0  0  0  0  0  0  0  0  0  0
   -1.6075    2.3493   -0.3261 C   0  0  0  0  0  0  0  0  0  0  0  0
   -1.7672    0.9216   -0.1587 C   0  0  0  0  0  0  0  0  0  0  0  0
   -0.9538    0.1709    0.3862 O   0  0  0  0  0  0  0  0  0  0  0  0
   -2.9732    0.3113   -0.6620 N   0  0  0  0  0  0  0  0  0  0  0  0
   -3.1978   -1.0770   -0.5185 C   0  0  0  0  0  0  0  0  0  0  0  0
   -3.8679   -1.5273    0.5966 C   0  0  0  0  0  0  0  0  0  0  0  0
   -4.0889   -2.8855    0.7527 C   0  0  0  0  0  0  0  0  0  0  0  0
   -3.6532   -3.8101   -0.1858 C   0  0  0  0  0  0  0  0  0  0  0  0
   -3.9202   -5.2201    0.0314 C   0  0  0  0  0  0  0  0  0  0  0  0
   -3.9179   -6.0372   -0.9411 N   0  0  0  0  0  0  0  0  0  0  0  0
   -4.1893   -5.6836    1.3352 N   0  0  0  0  0  0  0  0  0  0  0  0
   -2.9883   -3.3588   -1.2919 C   0  0  0  0  0  0  0  0  0  0  0  0
   -2.7693   -1.9823   -1.4414 C   0  0  0  0  0  0  0  0  0  0  0  0
    1.2208    1.6479    1.1783 C   0  0  0  0  0  0  0  0  0  0  0  0
    0.5279    2.2389    2.3264 C   0  0  0  0  0  0  0  0  0  0  0  0
   -0.4192    3.0224    2.1602 O   0  0  0  0  0  0  0  0  0  0  0  0
    0.9695    1.8890    3.5893 O   0  0  0  0  0  0  0  0  0  0  0  0
    2.2886    0.7938    1.3329 C   0  0  0  0  0  0  0  0  0  0  0  0
    5.0269   -5.0038   -0.8805 H   0  0  0  0  0  0  0  0  0  0  0  0
    5.0790   -3.4849   -1.9376 H   0  0  0  0  0  0  0  0  0  0  0  0
    3.8076   -3.6809   -0.6060 H   0  0  0  0  0  0  0  0  0  0  0  0
    5.2707   -3.3109    1.0660 H   0  0  0  0  0  0  0  0  0  0  0  0
    7.5946   -3.8467   -0.8492 H   0  0  0  0  0  0  0  0  0  0  0  0
    7.6690   -3.6959    0.9858 H   0  0  0  0  0  0  0  0  0  0  0  0
    6.8348   -5.1148    0.1463 H   0  0  0  0  0  0  0  0  0  0  0  0
    6.8063   -1.3678    0.2984 H   0  0  0  0  0  0  0  0  0  0  0  0
    6.6569   -1.9775   -1.3492 H   0  0  0  0  0  0  0  0  0  0  0  0
    4.8228   -0.6459   -1.5523 H   0  0  0  0  0  0  0  0  0  0  0  0
    3.0466    0.1233   -1.8357 H   0  0  0  0  0  0  0  0  0  0  0  0
    1.1190    1.6739   -2.1586 H   0  0  0  0  0  0  0  0  0  0  0  0
    0.8418    4.6592   -0.3875 H   0  0  0  0  0  0  0  0  0  0  0  0
   -1.1227    6.1416   -0.7275 H   0  0  0  0  0  0  0  0  0  0  0  0
   -2.7237    6.8923   -2.1466 H   0  0  0  0  0  0  0  0  0  0  0  0
   -4.9828    8.2097   -2.3599 H   0  0  0  0  0  0  0  0  0  0  0  0
   -5.1805    4.2197    0.3270 H   0  0  0  0  0  0  0  0  0  0  0  0
   -3.7204    2.7819   -0.5542 H   0  0  0  0  0  0  0  0  0  0  0  0
   -3.6990    0.8833   -1.1419 H   0  0  0  0  0  0  0  0  0  0  0  0
   -4.2224   -0.8285    1.3463 H   0  0  0  0  0  0  0  0  0  0  0  0
   -4.6089   -3.2623    1.6173 H   0  0  0  0  0  0  0  0  0  0  0  0
   -3.7291   -5.7565   -1.9387 H   0  0  0  0  0  0  0  0  0  0  0  0
   -3.6327   -6.4555    1.7422 H   0  0  0  0  0  0  0  0  0  0  0  0
   -4.9497   -5.2451    1.8800 H   0  0  0  0  0  0  0  0  0  0  0  0
   -2.6314   -4.0548   -2.0503 H   0  0  0  0  0  0  0  0  0  0  0  0
   -2.2423   -1.6440   -2.3192 H   0  0  0  0  0  0  0  0  0  0  0  0
    0.8207    2.4993    4.3727 H   0  0  0  0  0  0  0  0  0  0  0  0
    2.5780    0.5776    2.3597 H   0  0  0  0  0  0  0  0  0  0  0  0
  1  2  1  0
  2  3  1  0
  2  4  1  0
  4  5  1  0
  5  6  1  0
  6  7  2  0
  6  8  1  0
  8  9  2  0
  9 10  1  0
 10 11  2  0
 11 12  1  0
 12 13  2  0
 13 14  1  0
 14 15  2  0
 15 16  1  0
 16 17  1  0
 17 18  2  0
 18 19  1  0
 19 20  1  0
 15 21  1  0
 21 22  2  0
 22 23  1  0
 23 24  2  0
 23 25  1  0
 25 26  1  0
 26 27  2  0
 27 28  1  0
 28 29  2  0
 29 30  1  0
 30 31  2  3
 30 32  1  0
 29 33  1  0
 33 34  2  0
 11 35  1  0
 35 36  1  0
 36 37  2  0
 36 38  1  0
 35 39  2  0
 39  8  1  0
 22 12  1  0
 34 26  1  0
 20 16  2  0
  1 40  1  0
  1 41  1  0
  1 42  1  0
  2 43  1  0
  3 44  1  0
  3 45  1  0
  3 46  1  0
  4 47  1  0
  4 48  1  0
  5 49  1  0
  9 50  1  0
 10 51  1  0
 13 52  1  0
 14 53  1  0
 17 54  1  0
 18 55  1  0
 20 56  1  0
 21 57  1  0
 25 58  1  0
 27 59  1  0
 28 60  1  0
 31 61  1  0
 32 62  1  0
 32 63  1  0
 33 64  1  0
 34 65  1  0
 38 66  1  0
 39 67  1  0
M  END
$$$$
