
     RDKit          3D

 69 74  0  0  0  0  0  0  0  0999 V2000
   -6.9767   -2.7666    0.6878 C   0  0  0  0  0  0  0  0  0  0  0  0
   -7.6844   -1.8912   -0.2354 N   0  0  0  0  0  0  0  0  0  0  0  0
   -9.1178   -2.0750   -0.3292 C   0  0  0  0  0  0  0  0  0  0  0  0
   -7.0105   -0.9129   -0.9991 C   0  0  0  0  0  0  0  0  0  0  0  0
   -7.6910   -0.1953   -1.7760 O   0  0  0  0  0  0  0  0  0  0  0  0
   -5.5552   -0.7172   -0.9078 C   0  0  0  0  0  0  0  0  0  0  0  0
   -4.6000   -1.6619   -1.2505 C   0  0  0  0  0  0  0  0  0  0  0  0
   -3.3435   -1.1391   -1.0352 C   0  0  0  0  0  0  0  0  0  0  0  0
   -2.0443   -1.5767   -1.1787 C   0  0  0  0  0  0  0  0  0  0  0  0
   -0.9922   -0.7976   -0.8668 N   0  0  0  0  0  0  0  0  0  0  0  0
   -1.2115    0.4381   -0.4037 C   0  0  0  0  0  0  0  0  0  0  0  0
   -0.1482    1.3190   -0.0439 N   0  0  0  0  0  0  0  0  0  0  0  0
    1.1775    0.8350   -0.1640 C   0  0  0  0  0  0  0  0  0  0  0  0
    2.2262    1.6583    0.1781 C   0  0  0  0  0  0  0  0  0  0  0  0
    3.5035    1.1725    0.0618 C   0  0  0  0  0  0  0  0  0  0  0  0
    3.7511   -0.1020   -0.3833 C   0  0  0  0  0  0  0  0  0  0  0  0
    5.0831   -0.6160   -0.5012 N   0  0  0  0  0  0  0  0  0  0  0  0
    5.7905   -1.3184    0.5443 C   0  0  0  0  0  0  0  0  0  0  0  0
    7.2279   -1.0987    0.1133 C   0  0  1  0  0  0  0  0  0  0  0  0
    7.6003    0.3210    0.5357 C   0  0  0  0  0  0  0  0  0  0  0  0
    8.9859    0.6808    0.0288 C   0  0  0  0  0  0  0  0  0  0  0  0
    9.7599   -0.6044   -0.0850 C   0  0  0  0  0  0  0  0  0  0  0  0
    9.3977   -1.4516    1.0442 N   0  0  0  0  0  0  0  0  0  0  0  0
    8.1544   -2.1210    0.6855 C   0  0  0  0  0  0  0  0  0  0  0  0
    7.1501   -1.1891   -1.3048 O   0  0  0  0  0  0  0  0  0  0  0  0
    5.9327   -0.5449   -1.6089 C   0  0  0  0  0  0  0  0  0  0  0  0
    5.6090    0.0214   -2.6912 O   0  0  0  0  0  0  0  0  0  0  0  0
    2.6778   -0.8962   -0.7164 C   0  0  0  0  0  0  0  0  0  0  0  0
    1.4334   -0.4182   -0.6013 N   0  0  0  0  0  0  0  0  0  0  0  0
   -2.4710    0.8768   -0.2593 N   0  0  0  0  0  0  0  0  0  0  0  0
   -3.5685    0.1482   -0.5528 C   0  0  0  0  0  0  0  0  0  0  0  0
   -4.8940    0.3713   -0.4878 N   0  0  0  0  0  0  0  0  0  0  0  0
   -5.5156    1.5955   -0.0348 C   0  0  0  0  0  0  0  0  0  0  0  0
   -4.8488    2.7720   -0.7136 C   0  0  0  0  0  0  0  0  0  0  0  0
   -4.4259    3.7131    0.3785 C   0  0  0  0  0  0  0  0  0  0  0  0
   -5.2839    3.3125    1.5411 C   0  0  0  0  0  0  0  0  0  0  0  0
   -5.2654    1.8003    1.4579 C   0  0  0  0  0  0  0  0  0  0  0  0
   -7.3942   -3.7978    0.5524 H   0  0  0  0  0  0  0  0  0  0  0  0
   -5.9002   -2.7744    0.5164 H   0  0  0  0  0  0  0  0  0  0  0  0
   -7.2361   -2.4581    1.7327 H   0  0  0  0  0  0  0  0  0  0  0  0
   -9.4132   -3.0200   -0.7984 H   0  0  0  0  0  0  0  0  0  0  0  0
   -9.5411   -1.2024   -0.8768 H   0  0  0  0  0  0  0  0  0  0  0  0
   -9.4975   -1.9743    0.7270 H   0  0  0  0  0  0  0  0  0  0  0  0
   -4.7413   -2.6663   -1.6308 H   0  0  0  0  0  0  0  0  0  0  0  0
   -1.8462   -2.5690   -1.5497 H   0  0  0  0  0  0  0  0  0  0  0  0
   -0.3352    2.2840    0.2948 H   0  0  0  0  0  0  0  0  0  0  0  0
    2.0088    2.6756    0.5326 H   0  0  0  0  0  0  0  0  0  0  0  0
    4.3438    1.7958    0.3233 H   0  0  0  0  0  0  0  0  0  0  0  0
    5.5988   -0.8923    1.5589 H   0  0  0  0  0  0  0  0  0  0  0  0
    5.5221   -2.3926    0.5486 H   0  0  0  0  0  0  0  0  0  0  0  0
    6.8185    0.9817    0.0908 H   0  0  0  0  0  0  0  0  0  0  0  0
    7.4999    0.3823    1.6239 H   0  0  0  0  0  0  0  0  0  0  0  0
    9.4617    1.3267    0.7900 H   0  0  0  0  0  0  0  0  0  0  0  0
    8.9406    1.2582   -0.9126 H   0  0  0  0  0  0  0  0  0  0  0  0
   10.8344   -0.3682   -0.1167 H   0  0  0  0  0  0  0  0  0  0  0  0
    9.4736   -1.1592   -1.0045 H   0  0  0  0  0  0  0  0  0  0  0  0
    9.2055   -0.8271    1.8644 H   0  0  0  0  0  0  0  0  0  0  0  0
    8.3860   -2.9034   -0.0421 H   0  0  0  0  0  0  0  0  0  0  0  0
    7.7311   -2.5856    1.6116 H   0  0  0  0  0  0  0  0  0  0  0  0
    2.8644   -1.8937   -1.0649 H   0  0  0  0  0  0  0  0  0  0  0  0
   -6.6107    1.5733   -0.2158 H   0  0  0  0  0  0  0  0  0  0  0  0
   -5.5138    3.2570   -1.4570 H   0  0  0  0  0  0  0  0  0  0  0  0
   -3.9242    2.4816   -1.2613 H   0  0  0  0  0  0  0  0  0  0  0  0
   -3.3616    3.6281    0.6398 H   0  0  0  0  0  0  0  0  0  0  0  0
   -4.5903    4.7903    0.0799 H   0  0  0  0  0  0  0  0  0  0  0  0
   -4.9126    3.6887    2.5166 H   0  0  0  0  0  0  0  0  0  0  0  0
   -6.3288    3.6491    1.3173 H   0  0  0  0  0  0  0  0  0  0  0  0
   -6.0937    1.3377    2.0079 H   0  0  0  0  0  0  0  0  0  0  0  0
   -4.2614    1.4325    1.7509 H   0  0  0  0  0  0  0  0  0  0  0  0
  1  2  1  0
  2  3  1  0
  2  4  1  0
  4  5  2  0
  4  6  1  0
  6  7  2  0
  7  8  1  0
  8  9  2  0
  9 10  1  0
 10 11  2  0
 11 12  1  0
 12 13  1  0
 13 14  2  0
 14 15  1  0
 15 16  2  0
 16 17  1  0
 17 18  1  0
 18 19  1  0
 19 20  1  0
 20 21  1  0
 21 22  1  0
 22 23  1  0
 23 24  1  0
 19 25  1  6
 25 26  1  0
 26 27  2  0
 16 28  1  0
 28 29  2  0
 11 30  1  0
 30 31  2  0
 31 32  1  0
 32 33  1  0
 33 34  1  0
 34 35  1  0
 35 36  1  0
 36 37  1  0
 32  6  1  0
 37 33  1  0
 31  8  1  0
 29 13  1  0
 26 17  1  0
 24 19  1  0
  1 38  1  0
  1 39  1  0
  1 40  1  0
  3 41  1  0
  3 42  1  0
  3 43  1  0
  7 44  1  0
  9 45  1  0
 12 46  1  0
 14 47  1  0
 15 48  1  0
 18 49  1  0
 18 50  1  0
 20 51  1  0
 20 52  1  0
 21 53  1  0
 21 54  1  0
 22 55  1  0
 22 56  1  0
 23 57  1  0
 24 58  1  0
 24 59  1  0
 28 60  1  0
 33 61  1  0
 34 62  1  0
 34 63  1  0
 35 64  1  0
 35 65  1  0
 36 66  1  0
 36 67  1  0
 37 68  1  0
 37 69  1  0
M  END
$$$$
