
     RDKit          3D

 61 66  0  0  0  0  0  0  0  0999 V2000
   -2.4803   -3.1470   -1.9044 Cl  0  0  0  0  0  0  0  0  0  0  0  0
   -1.8050   -2.1272   -0.6570 C   0  0  0  0  0  0  0  0  0  0  0  0
   -0.5079   -1.6835   -0.6554 C   0  0  0  0  0  0  0  0  0  0  0  0
    0.0375   -0.8877    0.3116 C   0  0  0  0  0  0  0  0  0  0  0  0
    1.4290   -0.4201    0.2915 C   0  0  0  0  0  0  0  0  0  0  0  0
    2.1143   -0.1553   -0.8554 C   0  0  0  0  0  0  0  0  0  0  0  0
    3.4000    0.2751   -0.8196 N   0  0  0  0  0  0  0  0  0  0  0  0
    4.0152    0.4455    0.3676 C   0  0  0  0  0  0  0  0  0  0  0  0
    5.2962    0.8676    0.7045 C   0  0  0  0  0  0  0  0  0  0  0  0
    6.3787    1.2587   -0.1838 C   0  0  0  0  0  0  0  0  0  0  0  0
    6.5637    2.5503   -0.6193 C   0  0  0  0  0  0  0  0  0  0  0  0
    7.5908    2.8938   -1.4558 C   0  0  0  0  0  0  0  0  0  0  0  0
    8.4432    1.9355   -1.8622 N   0  0  0  0  0  0  0  0  0  0  0  0
    8.3285    0.6495   -1.4793 C   0  0  0  0  0  0  0  0  0  0  0  0
    9.2255   -0.3168   -1.9146 C   0  0  0  0  0  0  0  0  0  0  0  0
    9.1115   -1.6304   -1.5242 C   0  0  0  0  0  0  0  0  0  0  0  0
    8.0835   -1.9677   -0.6874 C   0  0  0  0  0  0  0  0  0  0  0  0
    7.1676   -1.0191   -0.2344 C   0  0  0  0  0  0  0  0  0  0  0  0
    7.2893    0.3033   -0.6332 C   0  0  0  0  0  0  0  0  0  0  0  0
    5.3421    0.8421    2.0825 C   0  0  0  0  0  0  0  0  0  0  0  0
    4.1390    0.4231    2.5303 N   0  0  0  0  0  0  0  0  0  0  0  0
    3.3355    0.1829    1.4956 N   0  0  0  0  0  0  0  0  0  0  0  0
    2.0530   -0.2482    1.5020 C   0  0  0  0  0  0  0  0  0  0  0  0
   -0.8032   -0.5234    1.3441 C   0  0  0  0  0  0  0  0  0  0  0  0
   -2.1145   -0.9280    1.4119 C   0  0  0  0  0  0  0  0  0  0  0  0
   -2.6258   -1.7269    0.4200 C   0  0  0  0  0  0  0  0  0  0  0  0
   -3.9057   -2.1663    0.4184 O   0  0  0  0  0  0  0  0  0  0  0  0
   -4.9626   -1.9666    1.2655 C   0  0  0  0  0  0  0  0  0  0  0  0
   -5.4033   -0.5293    1.3084 C   0  0  0  0  0  0  0  0  0  0  0  0
   -5.7891   -0.1183   -0.0340 N   0  0  0  0  0  0  0  0  0  0  0  0
   -6.0398    1.3351   -0.0356 C   0  0  0  0  0  0  0  0  0  0  0  0
   -7.1394    1.7336   -0.9629 C   0  0  0  0  0  0  0  0  0  0  0  0
   -8.4741    1.1325   -0.5673 C   0  0  0  0  0  0  0  0  0  0  0  0
   -8.2560   -0.2301    0.0674 C   0  0  0  0  0  0  0  0  0  0  0  0
   -6.9779   -0.8006   -0.5121 C   0  0  0  0  0  0  0  0  0  0  0  0
    0.1227   -1.9989   -1.4950 H   0  0  0  0  0  0  0  0  0  0  0  0
    1.6269   -0.2869   -1.8293 H   0  0  0  0  0  0  0  0  0  0  0  0
    5.8675    3.3448   -0.2902 H   0  0  0  0  0  0  0  0  0  0  0  0
    7.7430    3.9101   -1.8052 H   0  0  0  0  0  0  0  0  0  0  0  0
   10.0425   -0.0228   -2.5831 H   0  0  0  0  0  0  0  0  0  0  0  0
    9.8179   -2.3523   -1.8746 H   0  0  0  0  0  0  0  0  0  0  0  0
    7.9501   -2.9818   -0.3512 H   0  0  0  0  0  0  0  0  0  0  0  0
    6.3582   -1.2671    0.4217 H   0  0  0  0  0  0  0  0  0  0  0  0
    6.2142    1.1183    2.6681 H   0  0  0  0  0  0  0  0  0  0  0  0
    1.5197   -0.4573    2.4173 H   0  0  0  0  0  0  0  0  0  0  0  0
   -0.4096    0.1041    2.1241 H   0  0  0  0  0  0  0  0  0  0  0  0
   -2.6708   -0.6024    2.2740 H   0  0  0  0  0  0  0  0  0  0  0  0
   -4.6839   -2.2909    2.3323 H   0  0  0  0  0  0  0  0  0  0  0  0
   -5.8416   -2.6301    1.0686 H   0  0  0  0  0  0  0  0  0  0  0  0
   -4.6962    0.1671    1.7227 H   0  0  0  0  0  0  0  0  0  0  0  0
   -6.3139   -0.4890    1.9699 H   0  0  0  0  0  0  0  0  0  0  0  0
   -5.1001    1.7840   -0.4268 H   0  0  0  0  0  0  0  0  0  0  0  0
   -6.1818    1.7160    0.9939 H   0  0  0  0  0  0  0  0  0  0  0  0
   -6.8993    1.3934   -1.9710 H   0  0  0  0  0  0  0  0  0  0  0  0
   -7.2252    2.8336   -0.9299 H   0  0  0  0  0  0  0  0  0  0  0  0
   -8.9765    1.7904    0.1656 H   0  0  0  0  0  0  0  0  0  0  0  0
   -9.0903    1.0881   -1.4818 H   0  0  0  0  0  0  0  0  0  0  0  0
   -8.2395   -0.1001    1.1542 H   0  0  0  0  0  0  0  0  0  0  0  0
   -9.0826   -0.8845   -0.2243 H   0  0  0  0  0  0  0  0  0  0  0  0
   -7.0323   -0.5951   -1.6046 H   0  0  0  0  0  0  0  0  0  0  0  0
   -6.8784   -1.8685   -0.3683 H   0  0  0  0  0  0  0  0  0  0  0  0
  1  2  1  0
  2  3  2  0
  3  4  1  0
  4  5  1  0
  5  6  1  0
  6  7  2  0
  7  8  1  0
  8  9  2  0
  9 10  1  0
 10 11  2  0
 11 12  1  0
 12 13  2  0
 13 14  1  0
 14 15  2  0
 15 16  1  0
 16 17  2  0
 17 18  1  0
 18 19  2  0
  9 20  1  0
 20 21  2  0
 21 22  1  0
 22 23  1  0
  4 24  2  0
 24 25  1  0
 25 26  2  0
 26 27  1  0
 27 28  1  0
 28 29  1  0
 29 30  1  0
 30 31  1  0
 31 32  1  0
 32 33  1  0
 33 34  1  0
 34 35  1  0
 26  2  1  0
 35 30  1  0
 23  5  2  0
 22  8  1  0
 19 10  1  0
 19 14  1  0
  3 36  1  0
  6 37  1  0
 11 38  1  0
 12 39  1  0
 15 40  1  0
 16 41  1  0
 17 42  1  0
 18 43  1  0
 20 44  1  0
 23 45  1  0
 24 46  1  0
 25 47  1  0
 28 48  1  0
 28 49  1  0
 29 50  1  0
 29 51  1  0
 31 52  1  0
 31 53  1  0
 32 54  1  0
 32 55  1  0
 33 56  1  0
 33 57  1  0
 34 58  1  0
 34 59  1  0
 35 60  1  0
 35 61  1  0
M  END
$$$$
