
     RDKit          3D

 25 24  0  0  0  0  0  0  0  0999 V2000
   -3.5878    0.3674   -0.3453 C   0  0  0  0  0  0  0  0  0  0  0  0
   -2.2939   -0.2880    0.1101 C   0  0  0  0  0  0  0  0  0  0  0  0
   -2.4837   -1.0074    1.4080 C   0  0  0  0  0  0  0  0  0  0  0  0
   -1.3283    0.7165    0.1550 O   0  0  0  0  0  0  0  0  0  0  0  0
   -0.1262    0.5020   -1.0124 P   0  0  0  0  0  0  0  0  0  0  0  0
   -0.7967   -0.4387   -2.2422 F   0  0  0  0  0  0  0  0  0  0  0  0
    0.2305    1.8556   -1.5732 O   0  0  0  0  0  0  0  0  0  0  0  0
    1.1614   -0.2834   -0.3182 O   0  0  0  0  0  0  0  0  0  0  0  0
    2.3656    0.3999   -0.4257 C   0  0  0  0  0  0  0  0  0  0  0  0
    3.3527   -0.5075   -1.1354 C   0  0  0  0  0  0  0  0  0  0  0  0
    2.8952    0.6018    0.9849 C   0  0  0  0  0  0  0  0  0  0  0  0
   -4.4616   -0.1825    0.0578 H   0  0  0  0  0  0  0  0  0  0  0  0
   -3.5775    1.4504   -0.0538 H   0  0  0  0  0  0  0  0  0  0  0  0
   -3.6386    0.3780   -1.4544 H   0  0  0  0  0  0  0  0  0  0  0  0
   -1.9983   -0.9773   -0.7075 H   0  0  0  0  0  0  0  0  0  0  0  0
   -2.3371   -2.1121    1.2813 H   0  0  0  0  0  0  0  0  0  0  0  0
   -3.5446   -0.9407    1.7825 H   0  0  0  0  0  0  0  0  0  0  0  0
   -1.8588   -0.5820    2.2022 H   0  0  0  0  0  0  0  0  0  0  0  0
    2.2893    1.3683   -0.9589 H   0  0  0  0  0  0  0  0  0  0  0  0
    3.3170   -1.4789   -0.6000 H   0  0  0  0  0  0  0  0  0  0  0  0
    3.1549   -0.6238   -2.2087 H   0  0  0  0  0  0  0  0  0  0  0  0
    4.3543   -0.0284   -1.0426 H   0  0  0  0  0  0  0  0  0  0  0  0
    3.8530    1.1285    1.0018 H   0  0  0  0  0  0  0  0  0  0  0  0
    2.0660    1.1140    1.5250 H   0  0  0  0  0  0  0  0  0  0  0  0
    2.9931   -0.4319    1.4080 H   0  0  0  0  0  0  0  0  0  0  0  0
  1  2  1  0
  2  3  1  0
  2  4  1  0
  4  5  1  0
  5  6  1  0
  5  7  2  0
  5  8  1  0
  8  9  1  0
  9 10  1  0
  9 11  1  0
  1 12  1  0
  1 13  1  0
  1 14  1  0
  2 15  1  0
  3 16  1  0
  3 17  1  0
  3 18  1  0
  9 19  1  0
 10 20  1  0
 10 21  1  0
 10 22  1  0
 11 23  1  0
 11 24  1  0
 11 25  1  0
M  END
$$$$
