
     RDKit          3D

 24 24  0  0  0  0  0  0  0  0999 V2000
   -1.5818   -0.6341   -0.1641 C   0  0  1  0  0  0  0  0  0  0  0  0
   -1.6390   -1.5963    0.8329 O   0  0  0  0  0  0  0  0  0  0  0  0
   -2.2831    0.6364    0.2832 C   0  0  0  0  0  0  0  0  0  0  0  0
   -3.6600    0.2809    0.5603 N   0  0  0  0  0  0  0  0  0  0  0  0
   -0.1624   -0.3163   -0.5012 C   0  0  0  0  0  0  0  0  0  0  0  0
    0.2453   -0.2148   -1.8328 C   0  0  0  0  0  0  0  0  0  0  0  0
    1.5644    0.0800   -2.0800 C   0  0  0  0  0  0  0  0  0  0  0  0
    2.4252    0.2622   -1.0288 C   0  0  0  0  0  0  0  0  0  0  0  0
    2.0039    0.1579    0.2783 C   0  0  0  0  0  0  0  0  0  0  0  0
    0.6819   -0.1378    0.5612 C   0  0  0  0  0  0  0  0  0  0  0  0
    3.0019    0.3701    1.3790 C   0  0  0  0  0  0  0  0  0  0  0  0
    2.3638    0.2679    2.5986 F   0  0  0  0  0  0  0  0  0  0  0  0
    3.9965   -0.5859    1.3300 F   0  0  0  0  0  0  0  0  0  0  0  0
    3.4995    1.6581    1.2742 F   0  0  0  0  0  0  0  0  0  0  0  0
   -2.0804   -1.0247   -1.0604 H   0  0  0  0  0  0  0  0  0  0  0  0
   -1.5485   -1.2014    1.7204 H   0  0  0  0  0  0  0  0  0  0  0  0
   -1.7923    1.0051    1.2173 H   0  0  0  0  0  0  0  0  0  0  0  0
   -2.2312    1.3735   -0.5321 H   0  0  0  0  0  0  0  0  0  0  0  0
   -4.2099    0.2962   -0.3193 H   0  0  0  0  0  0  0  0  0  0  0  0
   -3.6734   -0.7113    0.9036 H   0  0  0  0  0  0  0  0  0  0  0  0
   -0.5197   -0.3784   -2.5738 H   0  0  0  0  0  0  0  0  0  0  0  0
    1.8176    0.1449   -3.1303 H   0  0  0  0  0  0  0  0  0  0  0  0
    3.4429    0.4903   -1.2986 H   0  0  0  0  0  0  0  0  0  0  0  0
    0.3387   -0.2224    1.5824 H   0  0  0  0  0  0  0  0  0  0  0  0
  1  2  1  0
  1  3  1  0
  3  4  1  0
  1  5  1  0
  5  6  2  0
  6  7  1  0
  7  8  2  0
  8  9  1  0
  9 10  2  0
  9 11  1  0
 11 12  1  0
 11 13  1  0
 11 14  1  0
 10  5  1  0
  1 15  1  6
  2 16  1  0
  3 17  1  0
  3 18  1  0
  4 19  1  0
  4 20  1  0
  6 21  1  0
  7 22  1  0
  8 23  1  0
 10 24  1  0
M  END
$$$$
