
     RDKit          3D

 23 23  0  0  0  0  0  0  0  0999 V2000
    4.5290    0.6374    2.2036 O   0  0  0  0  0  0  0  0  0  0  0  0
    4.2623   -0.2088    1.3087 N   0  0  0  0  0  0  0  0  0  0  0  0
    3.3976    0.1405    0.2305 C   0  0  0  0  0  0  0  0  0  0  0  0
    3.8715    1.1061   -0.4414 O   0  0  0  0  0  0  0  0  0  0  0  0
    2.1064   -0.2860   -0.3447 C   0  0  0  0  0  0  0  0  0  0  0  0
    1.4920   -1.3878    0.3626 N   0  0  0  0  0  0  0  0  0  0  0  0
    0.0044   -1.7734   -0.4155 S   0  0  0  0  0  0  0  0  0  0  0  0
   -0.5944   -2.9850    0.2781 O   0  0  0  0  0  0  0  0  0  0  0  0
    0.2470   -2.2035   -1.8343 O   0  0  0  0  0  0  0  0  0  0  0  0
   -1.1193   -0.4323   -0.3799 C   0  0  0  0  0  0  0  0  0  0  0  0
   -1.2262    0.5480   -1.3240 C   0  0  0  0  0  0  0  0  0  0  0  0
   -2.1544    1.5597   -1.1876 C   0  0  0  0  0  0  0  0  0  0  0  0
   -3.0017    1.6086   -0.0913 C   0  0  0  0  0  0  0  0  0  0  0  0
   -2.9019    0.6122    0.8804 C   0  0  0  0  0  0  0  0  0  0  0  0
   -1.9612   -0.4069    0.7354 C   0  0  0  0  0  0  0  0  0  0  0  0
    1.3720    0.5664   -0.3538 H   0  0  0  0  0  0  0  0  0  0  0  0
    2.2947   -0.6591   -1.3926 H   0  0  0  0  0  0  0  0  0  0  0  0
    1.3970   -1.2394    1.3705 H   0  0  0  0  0  0  0  0  0  0  0  0
   -0.5396    0.4784   -2.1792 H   0  0  0  0  0  0  0  0  0  0  0  0
   -2.2038    2.3247   -1.9706 H   0  0  0  0  0  0  0  0  0  0  0  0
   -3.6898    2.4262   -0.0652 H   0  0  0  0  0  0  0  0  0  0  0  0
   -3.5838    0.6866    1.7239 H   0  0  0  0  0  0  0  0  0  0  0  0
   -1.9978   -1.1125    1.5692 H   0  0  0  0  0  0  0  0  0  0  0  0
  1  2  2  0
  2  3  1  0
  3  4  2  0
  3  5  1  0
  5  6  1  0
  6  7  1  0
  7  8  2  0
  7  9  2  0
  7 10  1  0
 10 11  2  0
 11 12  1  0
 12 13  2  0
 13 14  1  0
 14 15  2  0
 15 10  1  0
  5 16  1  0
  5 17  1  0
  6 18  1  0
 11 19  1  0
 12 20  1  0
 13 21  1  0
 14 22  1  0
 15 23  1  0
M  END
$$$$
