
     RDKit          3D

 47 49  0  0  0  0  0  0  0  0999 V2000
   -2.7861   -1.2217    2.1989 C   0  0  0  0  0  0  0  0  0  0  0  0
   -2.7216   -0.9878    0.7945 O   0  0  0  0  0  0  0  0  0  0  0  0
   -3.8008   -0.4472    0.1568 C   0  0  0  0  0  0  0  0  0  0  0  0
   -3.6652    0.8079   -0.1563 C   0  0  0  0  0  0  0  0  0  0  0  0
   -4.9447    1.1160   -0.8035 C   0  0  0  0  0  0  0  0  0  0  0  0
   -5.6317    2.0017   -1.3643 O   0  0  0  0  0  0  0  0  0  0  0  0
   -6.0640    0.3859   -1.0750 O   0  0  0  0  0  0  0  0  0  0  0  0
   -7.2224    0.8583   -1.7191 C   0  0  0  0  0  0  0  0  0  0  0  0
   -2.6084    1.7820   -0.1039 C   0  0  0  0  0  0  0  0  0  0  0  0
   -3.1199    3.0888   -0.1952 C   0  0  0  0  0  0  0  0  0  0  0  0
   -2.3393    4.2213   -0.2090 C   0  0  0  0  0  0  0  0  0  0  0  0
   -0.9806    4.0253   -0.1269 C   0  0  0  0  0  0  0  0  0  0  0  0
   -0.4929    2.7447   -0.0392 C   0  0  0  0  0  0  0  0  0  0  0  0
   -1.2426    1.5948   -0.0241 C   0  0  0  0  0  0  0  0  0  0  0  0
   -0.8154    0.3436    0.0504 O   0  0  0  0  0  0  0  0  0  0  0  0
    0.3406   -0.3253    0.1198 C   0  0  0  0  0  0  0  0  0  0  0  0
    0.1553   -1.6500    0.1661 N   0  0  0  0  0  0  0  0  0  0  0  0
    1.1200   -2.5678    0.2382 C   0  0  0  0  0  0  0  0  0  0  0  0
    2.4135   -2.1692    0.2697 N   0  0  0  0  0  0  0  0  0  0  0  0
    2.7128   -0.8361    0.2272 C   0  0  0  0  0  0  0  0  0  0  0  0
    3.9953   -0.3728    0.2557 O   0  0  0  0  0  0  0  0  0  0  0  0
    5.1273   -1.1247    0.3278 C   0  0  0  0  0  0  0  0  0  0  0  0
    5.9435   -0.9039    1.4265 C   0  0  0  0  0  0  0  0  0  0  0  0
    7.1355   -1.5877    1.6506 C   0  0  0  0  0  0  0  0  0  0  0  0
    7.4675   -2.5200    0.6952 C   0  0  0  0  0  0  0  0  0  0  0  0
    6.7171   -2.8056   -0.4281 C   0  0  0  0  0  0  0  0  0  0  0  0
    5.5463   -2.0821   -0.5772 C   0  0  0  0  0  0  0  0  0  0  0  0
    4.6713   -2.2870   -1.7114 C   0  0  0  0  0  0  0  0  0  0  0  0
    3.9858   -2.4575   -2.6305 N   0  0  0  0  0  0  0  0  0  0  0  0
    1.6452    0.0237    0.1536 C   0  0  0  0  0  0  0  0  0  0  0  0
   -1.8202   -1.6701    2.5750 H   0  0  0  0  0  0  0  0  0  0  0  0
   -3.5793   -1.9063    2.5010 H   0  0  0  0  0  0  0  0  0  0  0  0
   -2.8914   -0.2709    2.7612 H   0  0  0  0  0  0  0  0  0  0  0  0
   -4.5435   -1.2017    0.0526 H   0  0  0  0  0  0  0  0  0  0  0  0
   -8.0026    0.0370   -1.7475 H   0  0  0  0  0  0  0  0  0  0  0  0
   -7.0088    1.1995   -2.7535 H   0  0  0  0  0  0  0  0  0  0  0  0
   -7.7159    1.6983   -1.1907 H   0  0  0  0  0  0  0  0  0  0  0  0
   -4.1946    3.3408   -0.2560 H   0  0  0  0  0  0  0  0  0  0  0  0
   -2.7522    5.2089   -0.2782 H   0  0  0  0  0  0  0  0  0  0  0  0
   -0.3746    4.9217   -0.1373 H   0  0  0  0  0  0  0  0  0  0  0  0
    0.5800    2.7679    0.0181 H   0  0  0  0  0  0  0  0  0  0  0  0
    1.0001   -3.6399    0.2768 H   0  0  0  0  0  0  0  0  0  0  0  0
    5.6928   -0.1632    2.1982 H   0  0  0  0  0  0  0  0  0  0  0  0
    7.7534   -1.3956    2.5166 H   0  0  0  0  0  0  0  0  0  0  0  0
    8.4062   -3.0708    0.8549 H   0  0  0  0  0  0  0  0  0  0  0  0
    7.0078   -3.5462   -1.1608 H   0  0  0  0  0  0  0  0  0  0  0  0
    1.9012    1.0431    0.1210 H   0  0  0  0  0  0  0  0  0  0  0  0
  1  2  1  0
  2  3  1  0
  3  4  2  0
  4  5  1  0
  5  6  2  0
  5  7  1  0
  7  8  1  0
  4  9  1  0
  9 10  2  0
 10 11  1  0
 11 12  2  0
 12 13  1  0
 13 14  2  0
 14 15  1  0
 15 16  1  0
 16 17  2  0
 17 18  1  0
 18 19  2  0
 19 20  1  0
 20 21  1  0
 21 22  1  0
 22 23  2  0
 23 24  1  0
 24 25  2  0
 25 26  1  0
 26 27  2  0
 27 28  1  0
 28 29  3  0
 20 30  2  0
 14  9  1  0
 30 16  1  0
 27 22  1  0
  1 31  1  0
  1 32  1  0
  1 33  1  0
  3 34  1  0
  8 35  1  0
  8 36  1  0
  8 37  1  0
 10 38  1  0
 11 39  1  0
 12 40  1  0
 13 41  1  0
 18 42  1  0
 23 43  1  0
 24 44  1  0
 25 45  1  0
 26 46  1  0
 30 47  1  0
M  END
$$$$
