
     RDKit          3D

 41 44  0  0  0  0  0  0  0  0999 V2000
    3.2579   -4.0779   -1.9527 N   0  0  0  0  0  0  0  0  0  0  0  0
    2.2642   -3.6285   -1.5501 C   0  0  0  0  0  0  0  0  0  0  0  0
    1.0391   -3.0528   -1.0627 C   0  0  0  0  0  0  0  0  0  0  0  0
    0.8574   -1.7881   -0.5002 C   0  0  0  0  0  0  0  0  0  0  0  0
    1.7850   -0.8437   -0.2955 N   0  0  0  0  0  0  0  0  0  0  0  0
    1.4534    0.3288    0.2590 C   0  0  0  0  0  0  0  0  0  0  0  0
    2.3388    1.3861    0.5192 N   0  0  0  0  0  0  0  0  0  0  0  0
    3.7271    1.4509    0.2650 C   0  0  0  0  0  0  0  0  0  0  0  0
    4.4957    0.4604   -0.3023 C   0  0  0  0  0  0  0  0  0  0  0  0
    5.8492    0.5364   -0.5448 C   0  0  0  0  0  0  0  0  0  0  0  0
    6.5155    1.6924   -0.1992 C   0  0  0  0  0  0  0  0  0  0  0  0
    5.7997    2.7211    0.3733 C   0  0  0  0  0  0  0  0  0  0  0  0
    4.4496    2.5785    0.5874 C   0  0  0  0  0  0  0  0  0  0  0  0
    0.1573    0.4717    0.5810 N   0  0  0  0  0  0  0  0  0  0  0  0
   -0.7733   -0.4700    0.3780 C   0  0  0  0  0  0  0  0  0  0  0  0
   -2.1350   -0.2330    0.7524 N   0  0  0  0  0  0  0  0  0  0  0  0
   -3.1520   -1.2403    0.5396 C   0  0  0  0  0  0  0  0  0  0  0  0
   -4.4830   -0.7378    1.0181 C   0  0  0  0  0  0  0  0  0  0  0  0
   -4.9468    0.4816    0.3392 C   0  0  0  0  0  0  0  0  0  0  0  0
   -4.2611    1.1447   -0.6540 C   0  0  0  0  0  0  0  0  0  0  0  0
   -5.0046    2.2089   -1.0211 N   0  0  0  0  0  0  0  0  0  0  0  0
   -6.1027    2.1727   -0.2613 C   0  0  0  0  0  0  0  0  0  0  0  0
   -6.0946    1.1197    0.5862 N   0  0  0  0  0  0  0  0  0  0  0  0
   -0.4395   -1.6458   -0.1784 N   0  0  0  0  0  0  0  0  0  0  0  0
   -1.0948   -2.7500   -0.5046 N   0  0  0  0  0  0  0  0  0  0  0  0
   -0.2344   -3.6335   -1.0462 C   0  0  0  0  0  0  0  0  0  0  0  0
    1.9306    2.2610    0.9655 H   0  0  0  0  0  0  0  0  0  0  0  0
    4.0478   -0.4583   -0.5935 H   0  0  0  0  0  0  0  0  0  0  0  0
    6.4050   -0.2718   -0.9933 H   0  0  0  0  0  0  0  0  0  0  0  0
    7.5773    1.7860   -0.3753 H   0  0  0  0  0  0  0  0  0  0  0  0
    6.3329    3.6230    0.6402 H   0  0  0  0  0  0  0  0  0  0  0  0
    3.9739    3.4373    1.0407 H   0  0  0  0  0  0  0  0  0  0  0  0
   -2.3922    0.6877    1.1873 H   0  0  0  0  0  0  0  0  0  0  0  0
   -2.8967   -2.1312    1.1247 H   0  0  0  0  0  0  0  0  0  0  0  0
   -3.1934   -1.5338   -0.5448 H   0  0  0  0  0  0  0  0  0  0  0  0
   -5.2136   -1.5569    0.9004 H   0  0  0  0  0  0  0  0  0  0  0  0
   -4.3952   -0.5275    2.1007 H   0  0  0  0  0  0  0  0  0  0  0  0
   -3.2906    0.8988   -1.1005 H   0  0  0  0  0  0  0  0  0  0  0  0
   -6.8892    2.9111   -0.3359 H   0  0  0  0  0  0  0  0  0  0  0  0
   -6.8406    0.8671    1.2871 H   0  0  0  0  0  0  0  0  0  0  0  0
   -0.4239   -4.6450   -1.4282 H   0  0  0  0  0  0  0  0  0  0  0  0
  1  2  3  0
  2  3  1  0
  3  4  2  0
  4  5  1  0
  5  6  2  0
  6  7  1  0
  7  8  1  0
  8  9  2  0
  9 10  1  0
 10 11  2  0
 11 12  1  0
 12 13  2  0
  6 14  1  0
 14 15  2  0
 15 16  1  0
 16 17  1  0
 17 18  1  0
 18 19  1  0
 19 20  2  0
 20 21  1  0
 21 22  2  0
 22 23  1  0
 15 24  1  0
 24 25  1  0
 25 26  2  0
 26  3  1  0
 24  4  1  0
 13  8  1  0
 23 19  1  0
  7 27  1  0
  9 28  1  0
 10 29  1  0
 11 30  1  0
 12 31  1  0
 13 32  1  0
 16 33  1  0
 17 34  1  0
 17 35  1  0
 18 36  1  0
 18 37  1  0
 20 38  1  0
 22 39  1  0
 23 40  1  0
 26 41  1  0
M  END
$$$$
