
     RDKit          3D

 69 71  0  0  0  0  0  0  0  0999 V2000
    9.8995   -0.9477    1.5450 C   0  0  0  0  0  0  0  0  0  0  0  0
    8.7199   -0.5424    1.1470 C   0  0  0  0  0  0  0  0  0  0  0  0
    7.6067   -0.4428    2.1268 C   0  0  0  0  0  0  0  0  0  0  0  0
    6.4984   -1.3647    1.6807 C   0  0  0  0  0  0  0  0  0  0  0  0
    6.0189   -0.9823    0.3170 C   0  0  0  0  0  0  0  0  0  0  0  0
    5.4922    0.4254    0.2894 C   0  0  0  0  0  0  0  0  0  0  0  0
    4.3367    0.6568    1.2407 C   0  0  0  0  0  0  0  0  0  0  0  0
    3.1539   -0.2055    0.9663 C   0  0  0  0  0  0  0  0  0  0  0  0
    2.5678   -0.0243   -0.3994 C   0  0  0  0  0  0  0  0  0  0  0  0
    2.0914    1.3577   -0.6810 C   0  0  0  0  0  0  0  0  0  0  0  0
    1.5223    1.4423   -2.0783 C   0  0  0  0  0  0  0  0  0  0  0  0
    0.4066    0.5649   -2.3073 N   0  0  0  0  0  0  0  0  0  0  0  0
    0.4954   -0.7710   -2.7865 C   0  0  0  0  0  0  0  0  0  0  0  0
    1.5613   -1.4108   -3.0908 O   0  0  0  0  0  0  0  0  0  0  0  0
   -0.8740   -1.2602   -2.8599 C   0  0  0  0  0  0  0  0  0  0  0  0
   -1.2405   -2.4016   -3.2371 O   0  0  0  0  0  0  0  0  0  0  0  0
   -1.7690   -0.1980   -2.4188 C   0  0  0  0  0  0  0  0  0  0  0  0
   -3.1609   -0.1108   -2.2868 C   0  0  0  0  0  0  0  0  0  0  0  0
   -3.7883    1.0321   -1.8369 C   0  0  0  0  0  0  0  0  0  0  0  0
   -5.5132    1.1681   -1.6654 S   0  0  0  0  0  6  0  0  0  0  0  0
   -5.9057    2.5959   -1.9229 O   0  0  0  0  0  0  0  0  0  0  0  0
   -6.1513    0.3393   -2.7380 O   0  0  0  0  0  0  0  0  0  0  0  0
   -6.1158    0.7128   -0.1547 N   0  0  0  0  0  0  0  0  0  0  0  0
   -5.6352    1.4917    0.9462 C   0  0  0  0  0  0  0  0  0  0  0  0
   -4.8545    0.5880    1.8627 C   0  0  0  0  0  0  0  0  0  0  0  0
   -4.7089   -0.6797    1.0636 C   0  0  0  0  0  0  0  0  0  0  0  0
   -5.9451   -0.6753    0.1897 C   0  0  1  0  0  0  0  0  0  0  0  0
   -7.1074   -1.0774    1.0738 C   0  0  0  0  0  0  0  0  0  0  0  0
   -8.3411   -0.9374    0.4887 O   0  0  0  0  0  0  0  0  0  0  0  0
   -8.4567   -1.7117   -0.6348 C   0  0  0  0  0  0  0  0  0  0  0  0
   -2.9785    2.1034   -1.5166 C   0  0  0  0  0  0  0  0  0  0  0  0
   -1.6026    2.0244   -1.6446 C   0  0  0  0  0  0  0  0  0  0  0  0
   -0.9857    0.8758   -2.0958 C   0  0  0  0  0  0  0  0  0  0  0  0
   10.0551   -1.2074    2.5862 H   0  0  0  0  0  0  0  0  0  0  0  0
   10.7528   -1.0387    0.8641 H   0  0  0  0  0  0  0  0  0  0  0  0
    8.5748   -0.2839    0.1086 H   0  0  0  0  0  0  0  0  0  0  0  0
    7.9712   -0.7501    3.1567 H   0  0  0  0  0  0  0  0  0  0  0  0
    7.1877    0.5782    2.2124 H   0  0  0  0  0  0  0  0  0  0  0  0
    6.8710   -2.4336    1.6980 H   0  0  0  0  0  0  0  0  0  0  0  0
    5.6813   -1.3259    2.4417 H   0  0  0  0  0  0  0  0  0  0  0  0
    6.8048   -1.0816   -0.4608 H   0  0  0  0  0  0  0  0  0  0  0  0
    5.1665   -1.6932    0.0887 H   0  0  0  0  0  0  0  0  0  0  0  0
    6.3313    1.1096    0.5088 H   0  0  0  0  0  0  0  0  0  0  0  0
    5.1708    0.6253   -0.7710 H   0  0  0  0  0  0  0  0  0  0  0  0
    4.0948    1.7421    1.2581 H   0  0  0  0  0  0  0  0  0  0  0  0
    4.7043    0.4328    2.2623 H   0  0  0  0  0  0  0  0  0  0  0  0
    2.4171   -0.0205    1.7760 H   0  0  0  0  0  0  0  0  0  0  0  0
    3.4509   -1.2665    1.0786 H   0  0  0  0  0  0  0  0  0  0  0  0
    1.6622   -0.6986   -0.4412 H   0  0  0  0  0  0  0  0  0  0  0  0
    3.2530   -0.3680   -1.1718 H   0  0  0  0  0  0  0  0  0  0  0  0
    1.3167    1.7218    0.0066 H   0  0  0  0  0  0  0  0  0  0  0  0
    2.9955    2.0271   -0.6846 H   0  0  0  0  0  0  0  0  0  0  0  0
    1.1514    2.4869   -2.2045 H   0  0  0  0  0  0  0  0  0  0  0  0
    2.3063    1.2994   -2.8516 H   0  0  0  0  0  0  0  0  0  0  0  0
   -3.7692   -0.9732   -2.5477 H   0  0  0  0  0  0  0  0  0  0  0  0
   -6.5423    1.8851    1.4838 H   0  0  0  0  0  0  0  0  0  0  0  0
   -5.0649    2.3906    0.6427 H   0  0  0  0  0  0  0  0  0  0  0  0
   -5.4431    0.3455    2.7809 H   0  0  0  0  0  0  0  0  0  0  0  0
   -3.8664    1.0281    2.1210 H   0  0  0  0  0  0  0  0  0  0  0  0
   -3.7737   -0.6913    0.4841 H   0  0  0  0  0  0  0  0  0  0  0  0
   -4.7132   -1.5875    1.7353 H   0  0  0  0  0  0  0  0  0  0  0  0
   -5.8444   -1.3345   -0.6758 H   0  0  0  0  0  0  0  0  0  0  0  0
   -7.1330   -0.4683    2.0096 H   0  0  0  0  0  0  0  0  0  0  0  0
   -7.0159   -2.1284    1.4215 H   0  0  0  0  0  0  0  0  0  0  0  0
   -7.7253   -1.4750   -1.4180 H   0  0  0  0  0  0  0  0  0  0  0  0
   -8.3606   -2.8031   -0.4314 H   0  0  0  0  0  0  0  0  0  0  0  0
   -9.4767   -1.5364   -1.0588 H   0  0  0  0  0  0  0  0  0  0  0  0
   -3.4626    3.0011   -1.1639 H   0  0  0  0  0  0  0  0  0  0  0  0
   -0.9645    2.8571   -1.3963 H   0  0  0  0  0  0  0  0  0  0  0  0
  1  2  2  3
  2  3  1  0
  3  4  1  0
  4  5  1  0
  5  6  1  0
  6  7  1  0
  7  8  1  0
  8  9  1  0
  9 10  1  0
 10 11  1  0
 11 12  1  0
 12 13  1  0
 13 14  2  0
 13 15  1  0
 15 16  2  0
 15 17  1  0
 17 18  2  0
 18 19  1  0
 19 20  1  0
 20 21  2  0
 20 22  2  0
 20 23  1  0
 23 24  1  0
 24 25  1  0
 25 26  1  0
 26 27  1  0
 27 28  1  0
 28 29  1  0
 29 30  1  0
 19 31  2  0
 31 32  1  0
 32 33  2  0
 33 12  1  0
 33 17  1  0
 27 23  1  0
  1 34  1  0
  1 35  1  0
  2 36  1  0
  3 37  1  0
  3 38  1  0
  4 39  1  0
  4 40  1  0
  5 41  1  0
  5 42  1  0
  6 43  1  0
  6 44  1  0
  7 45  1  0
  7 46  1  0
  8 47  1  0
  8 48  1  0
  9 49  1  0
  9 50  1  0
 10 51  1  0
 10 52  1  0
 11 53  1  0
 11 54  1  0
 18 55  1  0
 24 56  1  0
 24 57  1  0
 25 58  1  0
 25 59  1  0
 26 60  1  0
 26 61  1  0
 27 62  1  6
 28 63  1  0
 28 64  1  0
 30 65  1  0
 30 66  1  0
 30 67  1  0
 31 68  1  0
 32 69  1  0
M  END
$$$$
