
     RDKit          3D

 88 88  0  0  0  0  0  0  0  0999 V2000
   10.6837    2.9166   -1.0255 C   0  0  0  0  0  0  0  0  0  0  0  0
    9.3694    3.4807   -0.5912 C   0  0  0  0  0  0  0  0  0  0  0  0
    8.2945    2.4012   -0.6924 C   0  0  0  0  0  0  0  0  0  0  0  0
    7.0158    3.0339   -0.2438 C   0  0  0  0  0  0  0  0  0  0  0  0
    5.8861    2.0619   -0.3263 C   0  0  0  0  0  0  0  0  0  0  0  0
    6.1441    0.8824    0.5607 C   0  0  0  0  0  0  0  0  0  0  0  0
    4.9803   -0.0819    0.4713 C   0  0  0  0  0  0  0  0  0  0  0  0
    3.7099    0.5606    0.8986 C   0  0  0  0  0  0  0  0  0  0  0  0
    2.5683   -0.4447    0.8370 C   0  0  0  0  0  0  0  0  0  0  0  0
    2.3618   -0.9926   -0.5345 C   0  0  0  0  0  0  0  0  0  0  0  0
    1.2233   -1.9877   -0.6051 C   0  0  0  0  0  0  0  0  0  0  0  0
   -0.0815   -1.3470   -0.1902 C   0  0  1  0  0  0  0  0  0  0  0  0
   -0.3739   -0.1785   -1.1486 C   0  0  0  0  0  0  0  0  0  0  0  0
   -1.6490    0.5031   -0.7804 C   0  0  2  0  0  0  0  0  0  0  0  0
   -2.8290   -0.2295   -0.7759 O   0  0  0  0  0  0  0  0  0  0  0  0
   -3.3194    0.3225   -1.9389 C   0  0  0  0  0  0  0  0  0  0  0  0
   -4.3433    0.0707   -2.6585 O   0  0  0  0  0  0  0  0  0  0  0  0
   -2.2267    1.2520   -1.9790 C   0  0  1  0  0  0  0  0  0  0  0  0
   -2.3429    2.6921   -1.7274 C   0  0  0  0  0  0  0  0  0  0  0  0
   -3.1487    3.1925   -0.6005 C   0  0  0  0  0  0  0  0  0  0  0  0
   -4.5931    2.8233   -0.6765 C   0  0  0  0  0  0  0  0  0  0  0  0
   -5.3460    3.4460    0.5132 C   0  0  0  0  0  0  0  0  0  0  0  0
   -6.7857    3.0508    0.3987 C   0  0  0  0  0  0  0  0  0  0  0  0
   -7.5711    3.6551    1.5669 C   0  0  0  0  0  0  0  0  0  0  0  0
   -1.1724   -2.1988   -0.3211 O   0  0  0  0  0  0  0  0  0  0  0  0
   -2.0357   -2.4220    0.7224 C   0  0  0  0  0  0  0  0  0  0  0  0
   -1.7813   -1.8134    1.7941 O   0  0  0  0  0  0  0  0  0  0  0  0
   -3.2389   -3.3356    0.6294 C   0  0  2  0  0  0  0  0  0  0  0  0
   -3.2255   -4.2403    1.8057 C   0  0  0  0  0  0  0  0  0  0  0  0
   -4.3920   -5.2068    1.8208 C   0  0  0  0  0  0  0  0  0  0  0  0
   -4.2610   -6.0636    3.0573 C   0  0  0  0  0  0  0  0  0  0  0  0
   -5.7241   -4.4929    1.7743 C   0  0  0  0  0  0  0  0  0  0  0  0
   -3.2629   -4.0030   -0.6423 N   0  0  0  0  0  0  0  0  0  0  0  0
   -2.1108   -4.6569   -1.1324 C   0  0  0  0  0  0  0  0  0  0  0  0
   -1.0088   -4.7201   -0.5249 O   0  0  0  0  0  0  0  0  0  0  0  0
   11.2882    2.6426   -0.1367 H   0  0  0  0  0  0  0  0  0  0  0  0
   10.5635    2.0044   -1.6512 H   0  0  0  0  0  0  0  0  0  0  0  0
   11.2491    3.6904   -1.6106 H   0  0  0  0  0  0  0  0  0  0  0  0
    9.4016    3.7696    0.4799 H   0  0  0  0  0  0  0  0  0  0  0  0
    9.0456    4.3166   -1.2478 H   0  0  0  0  0  0  0  0  0  0  0  0
    8.5420    1.5726    0.0094 H   0  0  0  0  0  0  0  0  0  0  0  0
    8.1821    2.0246   -1.7064 H   0  0  0  0  0  0  0  0  0  0  0  0
    6.7425    3.9283   -0.8470 H   0  0  0  0  0  0  0  0  0  0  0  0
    7.0860    3.3609    0.8274 H   0  0  0  0  0  0  0  0  0  0  0  0
    5.7615    1.6566   -1.3583 H   0  0  0  0  0  0  0  0  0  0  0  0
    4.9550    2.5961   -0.0270 H   0  0  0  0  0  0  0  0  0  0  0  0
    6.2094    1.1950    1.6292 H   0  0  0  0  0  0  0  0  0  0  0  0
    7.0596    0.3223    0.2446 H   0  0  0  0  0  0  0  0  0  0  0  0
    4.8770   -0.3645   -0.6031 H   0  0  0  0  0  0  0  0  0  0  0  0
    5.1471   -0.9781    1.1077 H   0  0  0  0  0  0  0  0  0  0  0  0
    3.7598    1.0592    1.8784 H   0  0  0  0  0  0  0  0  0  0  0  0
    3.4088    1.3803    0.1798 H   0  0  0  0  0  0  0  0  0  0  0  0
    2.7223   -1.2228    1.6082 H   0  0  0  0  0  0  0  0  0  0  0  0
    1.6677    0.1387    1.1930 H   0  0  0  0  0  0  0  0  0  0  0  0
    3.2765   -1.5899   -0.7905 H   0  0  0  0  0  0  0  0  0  0  0  0
    2.3017   -0.1977   -1.3021 H   0  0  0  0  0  0  0  0  0  0  0  0
    1.1228   -2.2645   -1.6782 H   0  0  0  0  0  0  0  0  0  0  0  0
    1.4694   -2.8207    0.0585 H   0  0  0  0  0  0  0  0  0  0  0  0
   -0.0288   -0.9200    0.8257 H   0  0  0  0  0  0  0  0  0  0  0  0
   -0.4856   -0.6634   -2.1558 H   0  0  0  0  0  0  0  0  0  0  0  0
    0.4292    0.5721   -1.1327 H   0  0  0  0  0  0  0  0  0  0  0  0
   -1.4777    1.1602    0.1028 H   0  0  0  0  0  0  0  0  0  0  0  0
   -1.5299    1.1072   -2.8769 H   0  0  0  0  0  0  0  0  0  0  0  0
   -1.2825    3.0789   -1.5739 H   0  0  0  0  0  0  0  0  0  0  0  0
   -2.6336    3.1965   -2.7096 H   0  0  0  0  0  0  0  0  0  0  0  0
   -3.1066    4.3269   -0.5456 H   0  0  0  0  0  0  0  0  0  0  0  0
   -2.7768    2.7819    0.3802 H   0  0  0  0  0  0  0  0  0  0  0  0
   -5.0101    3.1702   -1.6336 H   0  0  0  0  0  0  0  0  0  0  0  0
   -4.7295    1.7163   -0.6018 H   0  0  0  0  0  0  0  0  0  0  0  0
   -4.8905    3.0427    1.4201 H   0  0  0  0  0  0  0  0  0  0  0  0
   -5.2165    4.5531    0.4579 H   0  0  0  0  0  0  0  0  0  0  0  0
   -6.8732    1.9498    0.5227 H   0  0  0  0  0  0  0  0  0  0  0  0
   -7.2525    3.3883   -0.5278 H   0  0  0  0  0  0  0  0  0  0  0  0
   -8.6107    3.2707    1.5263 H   0  0  0  0  0  0  0  0  0  0  0  0
   -7.5323    4.7623    1.4399 H   0  0  0  0  0  0  0  0  0  0  0  0
   -7.0690    3.3699    2.5188 H   0  0  0  0  0  0  0  0  0  0  0  0
   -4.0872   -2.5611    0.6668 H   0  0  0  0  0  0  0  0  0  0  0  0
   -3.1716   -3.6549    2.7234 H   0  0  0  0  0  0  0  0  0  0  0  0
   -2.3094   -4.8584    1.7512 H   0  0  0  0  0  0  0  0  0  0  0  0
   -4.3712   -5.8852    0.9478 H   0  0  0  0  0  0  0  0  0  0  0  0
   -3.5772   -5.5868    3.8095 H   0  0  0  0  0  0  0  0  0  0  0  0
   -5.2673   -6.0920    3.5262 H   0  0  0  0  0  0  0  0  0  0  0  0
   -3.8870   -7.0682    2.8191 H   0  0  0  0  0  0  0  0  0  0  0  0
   -5.9996   -4.1956    0.7518 H   0  0  0  0  0  0  0  0  0  0  0  0
   -5.7841   -3.6780    2.5062 H   0  0  0  0  0  0  0  0  0  0  0  0
   -6.4906   -5.2518    2.0890 H   0  0  0  0  0  0  0  0  0  0  0  0
   -4.1271   -4.0135   -1.2189 H   0  0  0  0  0  0  0  0  0  0  0  0
   -2.1039   -5.1679   -2.1084 H   0  0  0  0  0  0  0  0  0  0  0  0
  1  2  1  0
  2  3  1  0
  3  4  1  0
  4  5  1  0
  5  6  1  0
  6  7  1  0
  7  8  1  0
  8  9  1  0
  9 10  1  0
 10 11  1  0
 11 12  1  0
 12 13  1  0
 13 14  1  0
 14 15  1  0
 15 16  1  0
 16 17  2  0
 16 18  1  0
 18 19  1  0
 19 20  1  0
 20 21  1  0
 21 22  1  0
 22 23  1  0
 23 24  1  0
 12 25  1  0
 25 26  1  0
 26 27  2  0
 26 28  1  0
 28 29  1  0
 29 30  1  0
 30 31  1  0
 30 32  1  0
 28 33  1  0
 33 34  1  0
 34 35  2  0
 18 14  1  0
  1 36  1  0
  1 37  1  0
  1 38  1  0
  2 39  1  0
  2 40  1  0
  3 41  1  0
  3 42  1  0
  4 43  1  0
  4 44  1  0
  5 45  1  0
  5 46  1  0
  6 47  1  0
  6 48  1  0
  7 49  1  0
  7 50  1  0
  8 51  1  0
  8 52  1  0
  9 53  1  0
  9 54  1  0
 10 55  1  0
 10 56  1  0
 11 57  1  0
 11 58  1  0
 12 59  1  1
 13 60  1  0
 13 61  1  0
 14 62  1  1
 18 63  1  6
 19 64  1  0
 19 65  1  0
 20 66  1  0
 20 67  1  0
 21 68  1  0
 21 69  1  0
 22 70  1  0
 22 71  1  0
 23 72  1  0
 23 73  1  0
 24 74  1  0
 24 75  1  0
 24 76  1  0
 28 77  1  1
 29 78  1  0
 29 79  1  0
 30 80  1  0
 31 81  1  0
 31 82  1  0
 31 83  1  0
 32 84  1  0
 32 85  1  0
 32 86  1  0
 33 87  1  0
 34 88  1  0
M  END
$$$$
