
     RDKit          3D

 57 61  0  0  0  0  0  0  0  0999 V2000
   -6.8030    1.8549   -0.3402 C   0  0  0  0  0  0  0  0  0  0  0  0
   -5.6019    2.7407   -0.5154 C   0  0  0  0  0  0  0  0  0  0  0  0
   -4.4393    2.2837    0.1788 N   0  0  0  0  0  0  0  0  0  0  0  0
   -3.8300    1.0617   -0.3137 C   0  0  0  0  0  0  0  0  0  0  0  0
   -4.1976    0.2776    0.9041 C   0  0  0  0  0  0  0  0  0  0  0  0
   -3.1269   -0.3418    1.6450 N   0  0  0  0  0  0  0  0  0  0  0  0
   -2.9966   -0.2992    2.9857 N   0  0  0  0  0  0  0  0  0  0  0  0
   -1.9119   -0.9714    3.3390 C   0  0  0  0  0  0  0  0  0  0  0  0
   -1.3077   -1.4732    2.1990 C   0  0  0  0  0  0  0  0  0  0  0  0
   -2.0980   -1.0576    1.1535 C   0  0  0  0  0  0  0  0  0  0  0  0
   -1.9015   -1.2991   -0.2779 C   0  0  0  0  0  0  0  0  0  0  0  0
   -2.9236   -1.7147   -1.0998 C   0  0  0  0  0  0  0  0  0  0  0  0
   -2.6813   -1.8923   -2.4530 C   0  0  0  0  0  0  0  0  0  0  0  0
   -3.9941   -2.4197   -3.4886 Cl  0  0  0  0  0  0  0  0  0  0  0  0
   -1.4286   -1.6537   -2.9650 C   0  0  0  0  0  0  0  0  0  0  0  0
   -0.3641   -1.2294   -2.1568 C   0  0  0  0  0  0  0  0  0  0  0  0
   -0.6374   -1.0638   -0.8175 C   0  0  0  0  0  0  0  0  0  0  0  0
    0.3463   -0.6522    0.0589 O   0  0  0  0  0  0  0  0  0  0  0  0
    1.6388   -0.4205   -0.3015 C   0  0  0  0  0  0  0  0  0  0  0  0
    2.1907    0.8411   -0.1852 C   0  0  0  0  0  0  0  0  0  0  0  0
    3.4857    1.1374   -0.5302 C   0  0  0  0  0  0  0  0  0  0  0  0
    4.3079    0.1188   -1.0299 C   0  0  0  0  0  0  0  0  0  0  0  0
    5.9502    0.4567   -1.4610 S   0  0  0  0  0  6  0  0  0  0  0  0
    6.2142    1.9460   -1.3084 O   0  0  0  0  0  0  0  0  0  0  0  0
    6.2395    0.1067   -2.8961 O   0  0  0  0  0  0  0  0  0  0  0  0
    7.0304   -0.3408   -0.4089 N   0  0  0  0  0  0  0  0  0  0  0  0
    7.1273   -0.1254    0.9906 C   0  0  0  0  0  0  0  0  0  0  0  0
    6.3341    0.8172    1.6296 C   0  0  0  0  0  0  0  0  0  0  0  0
    6.8919    0.6732    3.3384 S   0  0  0  0  0  0  0  0  0  0  0  0
    8.1508   -0.6838    2.9034 C   0  0  0  0  0  0  0  0  0  0  0  0
    7.9548   -0.7611    1.7756 N   0  0  0  0  0  0  0  0  0  0  0  0
    3.7686   -1.1202   -1.1439 C   0  0  0  0  0  0  0  0  0  0  0  0
    2.4463   -1.4181   -0.7899 C   0  0  0  0  0  0  0  0  0  0  0  0
    1.9992   -2.7510   -0.9176 C   0  0  0  0  0  0  0  0  0  0  0  0
    1.6068   -3.8890   -1.0454 N   0  0  0  0  0  0  0  0  0  0  0  0
   -4.6092    1.6390    1.4421 C   0  0  0  0  0  0  0  0  0  0  0  0
   -6.6288    0.8266   -0.7366 H   0  0  0  0  0  0  0  0  0  0  0  0
   -7.2126    1.8247    0.6716 H   0  0  0  0  0  0  0  0  0  0  0  0
   -7.5977    2.2814   -0.9929 H   0  0  0  0  0  0  0  0  0  0  0  0
   -5.8581    3.7449   -0.1174 H   0  0  0  0  0  0  0  0  0  0  0  0
   -5.4155    2.8478   -1.5833 H   0  0  0  0  0  0  0  0  0  0  0  0
   -2.7454    1.1168   -0.4753 H   0  0  0  0  0  0  0  0  0  0  0  0
   -4.3408    0.7941   -1.2689 H   0  0  0  0  0  0  0  0  0  0  0  0
   -5.0589   -0.4236    0.7821 H   0  0  0  0  0  0  0  0  0  0  0  0
   -1.5133   -1.1410    4.3270 H   0  0  0  0  0  0  0  0  0  0  0  0
   -0.4150   -2.0611    2.1173 H   0  0  0  0  0  0  0  0  0  0  0  0
   -3.9188   -1.9046   -0.6841 H   0  0  0  0  0  0  0  0  0  0  0  0
   -1.2324   -1.7855   -4.0143 H   0  0  0  0  0  0  0  0  0  0  0  0
    0.6073   -1.0359   -2.6137 H   0  0  0  0  0  0  0  0  0  0  0  0
    1.6078    1.6785    0.1976 H   0  0  0  0  0  0  0  0  0  0  0  0
    3.9430    2.1186   -0.4510 H   0  0  0  0  0  0  0  0  0  0  0  0
    7.6774   -1.0569   -0.8771 H   0  0  0  0  0  0  0  0  0  0  0  0
    5.5884    1.4871    1.2950 H   0  0  0  0  0  0  0  0  0  0  0  0
    8.7511   -1.0753    3.7580 H   0  0  0  0  0  0  0  0  0  0  0  0
    4.4064   -1.9146   -1.5280 H   0  0  0  0  0  0  0  0  0  0  0  0
   -3.8700    2.0406    2.1915 H   0  0  0  0  0  0  0  0  0  0  0  0
   -5.6051    1.6749    1.9046 H   0  0  0  0  0  0  0  0  0  0  0  0
  1  2  1  0
  2  3  1  0
  3  4  1  0
  4  5  1  0
  5  6  1  0
  6  7  1  0
  7  8  2  0
  8  9  1  0
  9 10  2  0
 10 11  1  0
 11 12  2  0
 12 13  1  0
 13 14  1  0
 13 15  2  0
 15 16  1  0
 16 17  2  0
 17 18  1  0
 18 19  1  0
 19 20  2  0
 20 21  1  0
 21 22  2  0
 22 23  1  0
 23 24  2  0
 23 25  2  0
 23 26  1  0
 26 27  1  0
 27 28  2  0
 28 29  1  0
 29 30  1  0
 30 31  2  0
 22 32  1  0
 32 33  2  0
 33 34  1  0
 34 35  3  0
  5 36  1  0
 36  3  1  0
 10  6  1  0
 17 11  1  0
 33 19  1  0
 31 27  1  0
  1 37  1  0
  1 38  1  0
  1 39  1  0
  2 40  1  0
  2 41  1  0
  4 42  1  0
  4 43  1  0
  5 44  1  0
  8 45  1  0
  9 46  1  0
 12 47  1  0
 15 48  1  0
 16 49  1  0
 20 50  1  0
 21 51  1  0
 26 52  1  0
 28 53  1  0
 30 54  1  0
 32 55  1  0
 36 56  1  0
 36 57  1  0
M  END
$$$$
