
     RDKit          3D

 21 20  0  0  0  0  0  0  0  0999 V2000
    1.4000   -0.9090   -0.7388 N   0  0  0  0  0  0  0  0  0  0  0  0
    1.3397    0.5195   -0.8607 C   0  0  1  0  0  0  0  0  0  0  0  0
   -0.0420    1.0634   -1.0955 C   0  0  0  0  0  0  0  0  0  0  0  0
   -0.9836    0.7569   -0.0506 N   0  0  0  0  0  0  0  0  0  0  0  0
   -1.5167   -0.4106    0.0298 C   0  0  0  0  0  0  0  0  0  0  0  0
   -1.2560   -1.5000   -0.8632 N   0  0  0  0  0  0  0  0  0  0  0  0
   -2.4388   -0.5865    1.1170 N   0  0  0  0  0  0  0  0  0  0  0  0
   -3.1602    0.4309    1.6748 O   0  0  0  0  0  0  0  0  0  0  0  0
    1.9851    1.1117    0.3372 C   0  0  0  0  0  0  0  0  0  0  0  0
    2.5467    0.3636    1.3888 O   0  0  0  0  0  0  0  0  0  0  0  0
    2.1344    2.3501    0.6059 O   0  0  0  0  0  0  0  0  0  0  0  0
    1.8189   -1.2105    0.1572 H   0  0  0  0  0  0  0  0  0  0  0  0
    1.7503   -1.3967   -1.5813 H   0  0  0  0  0  0  0  0  0  0  0  0
    1.9452    0.8248   -1.7385 H   0  0  0  0  0  0  0  0  0  0  0  0
    0.0532    2.1401   -1.3079 H   0  0  0  0  0  0  0  0  0  0  0  0
   -0.3859    0.6000   -2.0614 H   0  0  0  0  0  0  0  0  0  0  0  0
   -1.0707   -2.3859   -0.3159 H   0  0  0  0  0  0  0  0  0  0  0  0
   -1.2265   -1.5344   -1.9068 H   0  0  0  0  0  0  0  0  0  0  0  0
   -2.5831   -1.5579    1.5264 H   0  0  0  0  0  0  0  0  0  0  0  0
   -3.7615    0.7311    0.9392 H   0  0  0  0  0  0  0  0  0  0  0  0
    3.4517    0.5996    1.8066 H   0  0  0  0  0  0  0  0  0  0  0  0
  1  2  1  0
  2  3  1  0
  3  4  1  0
  4  5  2  0
  5  6  1  0
  5  7  1  0
  7  8  1  0
  2  9  1  0
  9 10  1  0
  9 11  2  0
  1 12  1  0
  1 13  1  0
  2 14  1  6
  3 15  1  0
  3 16  1  0
  6 17  1  0
  6 18  1  0
  7 19  1  0
  8 20  1  0
 10 21  1  0
M  END
$$$$
