
     RDKit          3D

 76 81  0  0  0  0  0  0  0  0999 V2000
   -3.3949    6.9027    2.8696 C   0  0  0  0  0  0  0  0  0  0  0  0
   -3.1752    5.5128    2.5202 N   0  0  0  0  0  0  0  0  0  0  0  0
   -3.8058    5.0903    1.3130 C   0  0  1  0  0  0  0  0  0  0  0  0
   -3.2628    5.9601    0.1922 C   0  0  0  0  0  0  0  0  0  0  0  0
   -3.4604    3.6563    0.9449 C   0  0  0  0  0  0  0  0  0  0  0  0
   -3.6864    3.2011   -0.0960 O   0  0  0  0  0  0  0  0  0  0  0  0
   -2.8125    2.8914    2.0422 N   0  0  0  0  0  0  0  0  0  0  0  0
   -2.3286    1.6404    1.9121 C   0  0  0  0  0  0  0  0  0  0  0  0
   -2.6571    0.3563    2.2492 C   0  0  0  0  0  0  0  0  0  0  0  0
   -2.2027   -0.8379    2.1489 C   0  0  0  0  0  0  0  0  0  0  0  0
   -0.8192   -0.8877    1.4065 C   0  0  0  0  0  0  0  0  0  0  0  0
   -0.3882   -2.1142    0.9917 C   0  0  0  0  0  0  0  0  0  0  0  0
   -1.3683   -2.9696    0.2928 C   0  0  0  0  0  0  0  0  0  0  0  0
   -2.8005   -2.8477    0.2474 C   0  0  0  0  0  0  0  0  0  0  0  0
   -3.6229   -3.8110    0.6753 C   0  0  0  0  0  0  0  0  0  0  0  0
   -4.9812   -3.8299    0.7651 C   0  0  0  0  0  0  0  0  0  0  0  0
   -5.6149   -2.5757    0.3140 C   0  0  0  0  0  0  0  0  0  0  0  0
   -7.0140   -2.6717    0.3645 O   0  0  0  0  0  0  0  0  0  0  0  0
   -8.1938   -2.7122    0.3923 C   0  0  0  0  0  0  0  0  0  0  0  0
   -4.8090   -1.6623   -0.0827 N   0  0  0  0  0  0  0  0  0  0  0  0
   -3.4664   -1.6310   -0.1753 C   0  0  0  0  0  0  0  0  0  0  0  0
   -0.6564   -3.9924   -0.1613 N   0  0  0  0  0  0  0  0  0  0  0  0
    0.6185   -3.8993    0.1667 C   0  0  0  0  0  0  0  0  0  0  0  0
    1.6540   -4.7606   -0.1262 C   0  0  0  0  0  0  0  0  0  0  0  0
    2.9276   -4.4658    0.3655 C   0  0  0  0  0  0  0  0  0  0  0  0
    4.0430   -5.3514    0.0270 C   0  0  0  0  0  0  0  0  0  0  0  0
    3.0880   -3.3087    1.1098 C   0  0  0  0  0  0  0  0  0  0  0  0
    2.0035   -2.4656    1.3558 C   0  0  0  0  0  0  0  0  0  0  0  0
    0.8096   -2.7565    0.8914 N   0  0  0  0  0  0  0  0  0  0  0  0
   -0.6079    0.4199    1.1341 C   0  0  0  0  0  0  0  0  0  0  0  0
    0.8198    0.3265    0.3784 C   0  0  0  0  0  0  0  0  0  0  0  0
    2.0660    0.2284   -0.2905 C   0  0  0  0  0  0  0  0  0  0  0  0
    3.4018    0.1367   -1.0110 C   0  0  0  0  0  0  0  0  0  0  0  0
    3.1472   -0.7773   -1.9504 C   0  0  0  0  0  0  0  0  0  0  0  0
    4.3981   -0.5407   -2.9361 C   0  0  0  0  0  0  0  0  0  0  0  0
    5.2614    0.3828   -2.5877 C   0  0  0  0  0  0  0  0  0  0  0  0
    5.3424    1.2301   -1.5132 C   0  0  0  0  0  0  0  0  0  0  0  0
    6.1888    2.1986   -1.1941 C   0  0  0  0  0  0  0  0  0  0  0  0
    7.1771    2.4244   -2.1236 C   0  0  0  0  0  0  0  0  0  0  0  0
    7.1897    1.6411   -3.2853 C   0  0  0  0  0  0  0  0  0  0  0  0
    8.1009    1.9264   -4.1303 O   0  0  0  0  0  0  0  0  0  0  0  0
    6.3000    0.6754   -3.5109 N   0  0  0  0  0  0  0  0  0  0  0  0
    6.3315   -0.0528   -4.7504 C   0  0  0  0  0  0  0  0  0  0  0  0
    4.1493    1.0219   -0.5813 C   0  0  0  0  0  0  0  0  0  0  0  0
   -0.9854    1.5553    1.2032 N   0  0  0  0  0  0  0  0  0  0  0  0
   -2.5137    7.4843    2.6834 H   0  0  0  0  0  0  0  0  0  0  0  0
   -4.1773    7.3121    2.1303 H   0  0  0  0  0  0  0  0  0  0  0  0
   -3.7589    6.9904    3.8986 H   0  0  0  0  0  0  0  0  0  0  0  0
   -2.1474    5.2516    2.5343 H   0  0  0  0  0  0  0  0  0  0  0  0
   -4.8833    5.2350    1.4234 H   0  0  0  0  0  0  0  0  0  0  0  0
   -3.1796    5.3024   -0.7127 H   0  0  0  0  0  0  0  0  0  0  0  0
   -2.3026    6.3925    0.5100 H   0  0  0  0  0  0  0  0  0  0  0  0
   -3.9828    6.7842   -0.0880 H   0  0  0  0  0  0  0  0  0  0  0  0
   -2.7673    3.4109    2.9930 H   0  0  0  0  0  0  0  0  0  0  0  0
   -3.7428    0.4348    2.7458 H   0  0  0  0  0  0  0  0  0  0  0  0
   -2.4441   -1.8181    2.4209 H   0  0  0  0  0  0  0  0  0  0  0  0
   -3.0769   -4.7945    0.9639 H   0  0  0  0  0  0  0  0  0  0  0  0
   -5.6094   -4.6211    1.0991 H   0  0  0  0  0  0  0  0  0  0  0  0
   -8.7935   -2.2635    1.2532 H   0  0  0  0  0  0  0  0  0  0  0  0
   -8.8038   -2.1994   -0.5011 H   0  0  0  0  0  0  0  0  0  0  0  0
   -8.7213   -3.7933    0.3511 H   0  0  0  0  0  0  0  0  0  0  0  0
   -2.8366   -0.8567   -0.5035 H   0  0  0  0  0  0  0  0  0  0  0  0
    1.5111   -5.6216   -0.7459 H   0  0  0  0  0  0  0  0  0  0  0  0
    4.1715   -5.3237   -1.0754 H   0  0  0  0  0  0  0  0  0  0  0  0
    5.0349   -5.0975    0.4502 H   0  0  0  0  0  0  0  0  0  0  0  0
    3.7586   -6.4531    0.1796 H   0  0  0  0  0  0  0  0  0  0  0  0
    4.0189   -3.0992    1.5484 H   0  0  0  0  0  0  0  0  0  0  0  0
    2.1712   -1.5799    1.9438 H   0  0  0  0  0  0  0  0  0  0  0  0
    2.5173   -1.4563   -2.1906 H   0  0  0  0  0  0  0  0  0  0  0  0
    4.3239   -1.1537   -3.7570 H   0  0  0  0  0  0  0  0  0  0  0  0
    6.1266    2.7308   -0.2256 H   0  0  0  0  0  0  0  0  0  0  0  0
    7.9073    3.2007   -1.9487 H   0  0  0  0  0  0  0  0  0  0  0  0
    7.3508   -0.0970   -5.2320 H   0  0  0  0  0  0  0  0  0  0  0  0
    5.7211    0.5843   -5.5029 H   0  0  0  0  0  0  0  0  0  0  0  0
    6.0204   -1.0553   -4.6576 H   0  0  0  0  0  0  0  0  0  0  0  0
    4.2040    1.7133    0.2443 H   0  0  0  0  0  0  0  0  0  0  0  0
  1  2  1  0
  2  3  1  0
  3  4  1  0
  3  5  1  0
  5  6  2  0
  5  7  1  0
  7  8  1  0
  8  9  2  0
  9 10  1  0
 10 11  2  0
 11 12  1  0
 12 13  2  0
 13 14  1  0
 14 15  2  0
 15 16  1  0
 16 17  2  0
 17 18  1  0
 18 19  1  0
 17 20  1  0
 20 21  2  0
 13 22  1  0
 22 23  2  0
 23 24  1  0
 24 25  2  0
 25 26  1  0
 25 27  1  0
 27 28  2  0
 28 29  1  0
 11 30  1  0
 30 31  1  0
 31 32  3  0
 32 33  1  0
 33 34  2  0
 34 35  1  0
 35 36  2  0
 36 37  1  0
 37 38  1  0
 38 39  2  0
 39 40  1  0
 40 41  2  0
 40 42  1  0
 42 43  1  0
 37 44  2  0
 30 45  2  0
 45  8  1  0
 29 12  1  0
 44 33  1  0
 21 14  1  0
 29 23  1  0
 42 36  1  0
  1 46  1  0
  1 47  1  0
  1 48  1  0
  2 49  1  0
  3 50  1  1
  4 51  1  0
  4 52  1  0
  4 53  1  0
  7 54  1  0
  9 55  1  0
 10 56  1  0
 15 57  1  0
 16 58  1  0
 19 59  1  0
 19 60  1  0
 19 61  1  0
 21 62  1  0
 24 63  1  0
 26 64  1  0
 26 65  1  0
 26 66  1  0
 27 67  1  0
 28 68  1  0
 34 69  1  0
 35 70  1  0
 38 71  1  0
 39 72  1  0
 43 73  1  0
 43 74  1  0
 43 75  1  0
 44 76  1  0
M  END
$$$$
