
     RDKit          3D

 61 68  0  0  0  0  0  0  0  0999 V2000
   -1.3708   -1.7651    2.0658 C   0  0  0  0  0  0  0  0  0  0  0  0
   -1.5723   -0.5760    1.2590 N   0  0  0  0  0  0  0  0  0  0  0  0
   -2.4095   -0.9241    0.1459 C   0  0  2  0  0  0  0  0  0  0  0  0
   -1.8454   -1.9902   -0.7508 C   0  0  0  0  0  0  0  0  0  0  0  0
   -0.8311   -1.4783   -1.7230 C   0  0  1  0  0  0  0  0  0  0  0  0
   -0.9502   -0.2553   -2.1989 O   0  0  0  0  0  0  0  0  0  0  0  0
   -1.4976    0.7829   -1.4432 C   0  0  1  0  0  0  0  0  0  0  0  0
   -1.9465    1.7763   -2.5198 C   0  0  0  0  0  0  0  0  0  0  0  0
   -2.6952    0.2652   -0.7677 C   0  0  2  0  0  0  0  0  0  0  0  0
   -3.4809    1.1163   -0.0526 O   0  0  0  0  0  0  0  0  0  0  0  0
   -4.8182    1.1327   -0.4206 C   0  0  0  0  0  0  0  0  0  0  0  0
   -0.4578    1.3069   -0.5933 N   0  0  0  0  0  0  0  0  0  0  0  0
   -0.3783    2.5415   -0.1034 C   0  0  0  0  0  0  0  0  0  0  0  0
   -1.2202    3.6304   -0.2005 C   0  0  0  0  0  0  0  0  0  0  0  0
   -0.9056    4.8193    0.4168 C   0  0  0  0  0  0  0  0  0  0  0  0
    0.2502    4.9752    1.1517 C   0  0  0  0  0  0  0  0  0  0  0  0
    1.1097    3.9037    1.2661 C   0  0  0  0  0  0  0  0  0  0  0  0
    0.7811    2.7183    0.6418 C   0  0  0  0  0  0  0  0  0  0  0  0
    1.4402    1.4855    0.5900 C   0  0  0  0  0  0  0  0  0  0  0  0
    2.6301    1.0441    1.1299 C   0  0  0  0  0  0  0  0  0  0  0  0
    3.0488   -0.2724    0.9059 C   0  0  0  0  0  0  0  0  0  0  0  0
    2.2601   -1.1195    0.1432 C   0  0  0  0  0  0  0  0  0  0  0  0
    2.3768   -2.4359   -0.2400 C   0  0  0  0  0  0  0  0  0  0  0  0
    3.2836   -3.4433   -0.0607 C   0  0  0  0  0  0  0  0  0  0  0  0
    3.0948   -4.7011   -0.5998 C   0  0  0  0  0  0  0  0  0  0  0  0
    1.9629   -4.9881   -1.3518 C   0  0  0  0  0  0  0  0  0  0  0  0
    1.0585   -3.9633   -1.5237 C   0  0  0  0  0  0  0  0  0  0  0  0
    1.2317   -2.7066   -0.9939 C   0  0  0  0  0  0  0  0  0  0  0  0
    0.4779   -1.6163   -1.0565 N   0  0  0  0  0  0  0  0  0  0  0  0
    1.0643   -0.6141   -0.3775 C   0  0  0  0  0  0  0  0  0  0  0  0
    0.6596    0.6834   -0.1551 C   0  0  0  0  0  0  0  0  0  0  0  0
    4.3071   -0.4623    1.5734 C   0  0  0  0  0  0  0  0  0  0  0  0
    5.0380   -1.4562    1.6464 O   0  0  0  0  0  0  0  0  0  0  0  0
    4.6399    0.7755    2.2085 N   0  0  0  0  0  0  0  0  0  0  0  0
    3.6268    1.7606    1.9696 C   0  0  0  0  0  0  0  0  0  0  0  0
   -0.4011   -2.2416    1.8744 H   0  0  0  0  0  0  0  0  0  0  0  0
   -1.4118   -1.5301    3.1597 H   0  0  0  0  0  0  0  0  0  0  0  0
   -2.1964   -2.5046    1.8951 H   0  0  0  0  0  0  0  0  0  0  0  0
   -2.1153    0.0906    1.8525 H   0  0  0  0  0  0  0  0  0  0  0  0
   -3.3959   -1.2285    0.5474 H   0  0  0  0  0  0  0  0  0  0  0  0
   -2.6864   -2.4996   -1.2662 H   0  0  0  0  0  0  0  0  0  0  0  0
   -1.3863   -2.7560   -0.0910 H   0  0  0  0  0  0  0  0  0  0  0  0
   -0.7978   -2.2047   -2.5696 H   0  0  0  0  0  0  0  0  0  0  0  0
   -2.0040    1.2776   -3.5414 H   0  0  0  0  0  0  0  0  0  0  0  0
   -1.1975    2.5760   -2.6908 H   0  0  0  0  0  0  0  0  0  0  0  0
   -2.9827    2.1281   -2.3832 H   0  0  0  0  0  0  0  0  0  0  0  0
   -3.3498   -0.2014   -1.5622 H   0  0  0  0  0  0  0  0  0  0  0  0
   -5.0123    1.4226   -1.4659 H   0  0  0  0  0  0  0  0  0  0  0  0
   -5.2470    0.1047   -0.3174 H   0  0  0  0  0  0  0  0  0  0  0  0
   -5.3634    1.8536    0.2277 H   0  0  0  0  0  0  0  0  0  0  0  0
   -2.1252    3.5446   -0.7511 H   0  0  0  0  0  0  0  0  0  0  0  0
   -1.5563    5.6786    0.3477 H   0  0  0  0  0  0  0  0  0  0  0  0
    0.5125    5.8845    1.6363 H   0  0  0  0  0  0  0  0  0  0  0  0
    2.0326    3.9769    1.8345 H   0  0  0  0  0  0  0  0  0  0  0  0
    4.1641   -3.2924    0.4993 H   0  0  0  0  0  0  0  0  0  0  0  0
    3.8111   -5.4844   -0.4539 H   0  0  0  0  0  0  0  0  0  0  0  0
    1.8429   -5.9763   -1.7589 H   0  0  0  0  0  0  0  0  0  0  0  0
    0.1739   -4.1820   -2.1095 H   0  0  0  0  0  0  0  0  0  0  0  0
    5.5046    0.9191    2.7633 H   0  0  0  0  0  0  0  0  0  0  0  0
    4.0486    2.6185    1.4083 H   0  0  0  0  0  0  0  0  0  0  0  0
    3.1766    2.0765    2.9338 H   0  0  0  0  0  0  0  0  0  0  0  0
  1  2  1  0
  2  3  1  0
  3  4  1  0
  4  5  1  0
  5  6  1  0
  6  7  1  0
  7  8  1  6
  7  9  1  0
  9 10  1  0
 10 11  1  0
  7 12  1  0
 12 13  1  0
 13 14  2  0
 14 15  1  0
 15 16  2  0
 16 17  1  0
 17 18  2  0
 18 19  1  0
 19 20  2  0
 20 21  1  0
 21 22  2  0
 22 23  1  0
 23 24  2  0
 24 25  1  0
 25 26  2  0
 26 27  1  0
 27 28  2  0
 28 29  1  0
 29 30  1  0
 30 31  2  0
 21 32  1  0
 32 33  2  0
 32 34  1  0
 34 35  1  0
  9  3  1  0
 31 12  1  0
 29  5  1  0
 18 13  1  0
 31 19  1  0
 35 20  1  0
 30 22  1  0
 28 23  1  0
  1 36  1  0
  1 37  1  0
  1 38  1  0
  2 39  1  0
  3 40  1  1
  4 41  1  0
  4 42  1  0
  5 43  1  6
  8 44  1  0
  8 45  1  0
  8 46  1  0
  9 47  1  6
 11 48  1  0
 11 49  1  0
 11 50  1  0
 14 51  1  0
 15 52  1  0
 16 53  1  0
 17 54  1  0
 24 55  1  0
 25 56  1  0
 26 57  1  0
 27 58  1  0
 34 59  1  0
 35 60  1  0
 35 61  1  0
M  END
$$$$
