
     RDKit          3D

 67 69  0  0  0  0  0  0  0  0999 V2000
   -2.3585    4.6630    1.1773 C   0  0  0  0  0  0  0  0  0  0  0  0
   -3.0184    4.0434   -0.0412 C   0  0  0  0  0  0  0  0  0  0  0  0
   -2.6390    2.6058   -0.0647 C   0  0  0  0  0  0  0  0  0  0  0  0
   -1.5179    2.1378   -0.7033 C   0  0  0  0  0  0  0  0  0  0  0  0
   -1.2109    0.7734   -0.6939 C   0  0  0  0  0  0  0  0  0  0  0  0
   -2.0130   -0.1535   -0.0491 C   0  0  0  0  0  0  0  0  0  0  0  0
   -1.7716   -1.5017    0.0005 O   0  0  0  0  0  0  0  0  0  0  0  0
   -0.6674   -2.1040   -0.5884 C   0  0  0  0  0  0  0  0  0  0  0  0
   -1.0960   -3.0340   -1.7214 C   0  0  0  0  0  0  0  0  0  0  0  0
    0.0793   -2.8881    0.4796 C   0  0  0  0  0  0  0  0  0  0  0  0
    1.2894   -3.5688   -0.0583 C   0  0  0  0  0  0  0  0  0  0  0  0
    2.2694   -2.7906   -0.6166 O   0  0  0  0  0  0  0  0  0  0  0  0
    3.0714   -1.8139   -0.1231 C   0  0  0  0  0  0  0  0  0  0  0  0
    3.0712   -1.3735    1.1796 C   0  0  0  0  0  0  0  0  0  0  0  0
    3.9449   -0.3705    1.5252 C   0  0  0  0  0  0  0  0  0  0  0  0
    4.8280    0.2194    0.6225 C   0  0  0  0  0  0  0  0  0  0  0  0
    5.7493    1.2936    1.0347 C   0  0  0  0  0  0  0  0  0  0  0  0
    5.2687    2.6471    0.5566 C   0  0  0  0  0  0  0  0  0  0  0  0
    6.1980    3.7068    0.9764 C   0  0  0  0  0  0  0  0  0  0  0  0
    7.2176    3.3895    1.6382 O   0  0  0  0  0  0  0  0  0  0  0  0
    6.0125    5.0476    0.6814 O   0  0  0  0  0  0  0  0  0  0  0  0
    4.8264   -0.2232   -0.6797 C   0  0  0  0  0  0  0  0  0  0  0  0
    5.7506    0.3715   -1.6988 C   0  0  0  0  0  0  0  0  0  0  0  0
    3.9595   -1.2253   -1.0431 C   0  0  0  0  0  0  0  0  0  0  0  0
   -3.1563    0.3377    0.6000 C   0  0  0  0  0  0  0  0  0  0  0  0
   -4.0465   -0.5887    1.2943 C   0  0  0  0  0  0  0  0  0  0  0  0
   -4.9521   -1.3693    0.4010 C   0  0  0  0  0  0  0  0  0  0  0  0
   -4.6694   -2.6823    0.1073 C   0  0  0  0  0  0  0  0  0  0  0  0
   -5.4970   -3.4089   -0.7284 C   0  0  0  0  0  0  0  0  0  0  0  0
   -6.6205   -2.8438   -1.2866 C   0  0  0  0  0  0  0  0  0  0  0  0
   -6.8817   -1.5244   -0.9752 C   0  0  0  0  0  0  0  0  0  0  0  0
   -6.0710   -0.7931   -0.1499 C   0  0  0  0  0  0  0  0  0  0  0  0
   -3.4407    1.6878    0.5786 C   0  0  0  0  0  0  0  0  0  0  0  0
   -1.3371    4.2367    1.2805 H   0  0  0  0  0  0  0  0  0  0  0  0
   -2.9162    4.3450    2.0813 H   0  0  0  0  0  0  0  0  0  0  0  0
   -2.3495    5.7712    1.1108 H   0  0  0  0  0  0  0  0  0  0  0  0
   -4.1094    4.1079    0.1369 H   0  0  0  0  0  0  0  0  0  0  0  0
   -2.7091    4.5684   -0.9666 H   0  0  0  0  0  0  0  0  0  0  0  0
   -0.8926    2.8607   -1.2061 H   0  0  0  0  0  0  0  0  0  0  0  0
   -0.3246    0.5092   -1.2162 H   0  0  0  0  0  0  0  0  0  0  0  0
    0.0085   -1.3771   -1.0078 H   0  0  0  0  0  0  0  0  0  0  0  0
   -1.4311   -4.0143   -1.3506 H   0  0  0  0  0  0  0  0  0  0  0  0
   -1.9313   -2.4944   -2.2396 H   0  0  0  0  0  0  0  0  0  0  0  0
   -0.2683   -3.1037   -2.4436 H   0  0  0  0  0  0  0  0  0  0  0  0
   -0.6423   -3.7121    0.7603 H   0  0  0  0  0  0  0  0  0  0  0  0
    0.1891   -2.2588    1.3486 H   0  0  0  0  0  0  0  0  0  0  0  0
    0.9220   -4.2712   -0.8712 H   0  0  0  0  0  0  0  0  0  0  0  0
    1.6801   -4.2950    0.7174 H   0  0  0  0  0  0  0  0  0  0  0  0
    2.3986   -1.8323    1.8812 H   0  0  0  0  0  0  0  0  0  0  0  0
    3.9403   -0.0302    2.5437 H   0  0  0  0  0  0  0  0  0  0  0  0
    6.8109    1.1011    0.7595 H   0  0  0  0  0  0  0  0  0  0  0  0
    5.7786    1.3506    2.1632 H   0  0  0  0  0  0  0  0  0  0  0  0
    5.1797    2.6842   -0.5428 H   0  0  0  0  0  0  0  0  0  0  0  0
    4.2687    2.8049    1.0125 H   0  0  0  0  0  0  0  0  0  0  0  0
    6.7727    5.7161    0.6219 H   0  0  0  0  0  0  0  0  0  0  0  0
    6.1105   -0.4277   -2.4063 H   0  0  0  0  0  0  0  0  0  0  0  0
    6.6625    0.7840   -1.2412 H   0  0  0  0  0  0  0  0  0  0  0  0
    5.1972    1.0865   -2.3318 H   0  0  0  0  0  0  0  0  0  0  0  0
    3.9660   -1.5704   -2.0796 H   0  0  0  0  0  0  0  0  0  0  0  0
   -3.4577   -1.3119    1.8928 H   0  0  0  0  0  0  0  0  0  0  0  0
   -4.6592   -0.0156    2.0204 H   0  0  0  0  0  0  0  0  0  0  0  0
   -3.7875   -3.1988    0.5310 H   0  0  0  0  0  0  0  0  0  0  0  0
   -5.2651   -4.4455   -0.9546 H   0  0  0  0  0  0  0  0  0  0  0  0
   -7.2785   -3.4235   -1.9511 H   0  0  0  0  0  0  0  0  0  0  0  0
   -7.7894   -1.0775   -1.4297 H   0  0  0  0  0  0  0  0  0  0  0  0
   -6.3116    0.2562    0.0749 H   0  0  0  0  0  0  0  0  0  0  0  0
   -4.3331    2.0104    1.0946 H   0  0  0  0  0  0  0  0  0  0  0  0
  1  2  1  0
  2  3  1  0
  3  4  2  0
  4  5  1  0
  5  6  2  0
  6  7  1  0
  7  8  1  0
  8  9  1  0
  8 10  1  0
 10 11  1  0
 11 12  1  0
 12 13  1  0
 13 14  2  0
 14 15  1  0
 15 16  2  0
 16 17  1  0
 17 18  1  0
 18 19  1  0
 19 20  2  0
 19 21  1  0
 16 22  1  0
 22 23  1  0
 22 24  2  0
  6 25  1  0
 25 26  1  0
 26 27  1  0
 27 28  2  0
 28 29  1  0
 29 30  2  0
 30 31  1  0
 31 32  2  0
 25 33  2  0
 33  3  1  0
 24 13  1  0
 32 27  1  0
  1 34  1  0
  1 35  1  0
  1 36  1  0
  2 37  1  0
  2 38  1  0
  4 39  1  0
  5 40  1  0
  8 41  1  0
  9 42  1  0
  9 43  1  0
  9 44  1  0
 10 45  1  0
 10 46  1  0
 11 47  1  0
 11 48  1  0
 14 49  1  0
 15 50  1  0
 17 51  1  0
 17 52  1  0
 18 53  1  0
 18 54  1  0
 21 55  1  0
 23 56  1  0
 23 57  1  0
 23 58  1  0
 24 59  1  0
 26 60  1  0
 26 61  1  0
 28 62  1  0
 29 63  1  0
 30 64  1  0
 31 65  1  0
 32 66  1  0
 33 67  1  0
M  END
$$$$
