
     RDKit          3D

 60 62  0  0  0  0  0  0  0  0999 V2000
   -4.3848    2.1525   -0.4227 C   0  0  1  0  0  0  0  0  0  0  0  0
   -3.9819    3.3747    0.2181 N   0  0  0  0  0  0  0  0  0  0  0  0
   -3.3253    1.5649   -1.3356 C   0  0  0  0  0  0  0  0  0  0  0  0
   -2.0588    1.2394   -0.6933 C   0  0  0  0  0  0  0  0  0  0  0  0
   -1.4225    0.7431   -1.6925 O   0  0  0  0  0  0  0  0  0  0  0  0
   -1.2828    1.2412    0.4967 N   0  0  0  0  0  0  0  0  0  0  0  0
   -1.4650    1.6701    1.8930 C   0  0  0  0  0  0  0  0  0  0  0  0
   -1.3907    0.2869    2.5607 C   0  0  0  0  0  0  0  0  0  0  0  0
   -0.1461   -0.2468    1.8228 C   0  0  0  0  0  0  0  0  0  0  0  0
    0.0863    0.7683    0.7281 C   0  0  1  0  0  0  0  0  0  0  0  0
    0.7425    0.1719   -0.4551 C   0  0  0  0  0  0  0  0  0  0  0  0
    2.0878   -0.2483   -0.1741 N   0  0  0  0  0  0  0  0  0  0  0  0
    2.8844   -1.1210    0.5740 C   0  0  0  0  0  0  0  0  0  0  0  0
    2.2454   -1.8963    1.3292 O   0  0  0  0  0  0  0  0  0  0  0  0
    4.3345   -1.2257    0.5728 C   0  0  0  0  0  0  0  0  0  0  0  0
    4.8621   -2.1810    1.4102 C   0  0  0  0  0  0  0  0  0  0  0  0
    6.2371   -2.3362    1.4605 C   0  0  0  0  0  0  0  0  0  0  0  0
    7.1028   -1.5740    0.7069 C   0  0  0  0  0  0  0  0  0  0  0  0
    6.5653   -0.6116   -0.1362 C   0  0  0  0  0  0  0  0  0  0  0  0
    5.1936   -0.4776   -0.1675 C   0  0  0  0  0  0  0  0  0  0  0  0
    7.5999    0.3874   -1.1172 S   0  0  0  0  0  0  0  0  0  0  0  0
    7.8592   -0.4049   -2.6687 C   0  0  0  0  0  0  0  0  0  0  0  0
    8.9238    0.5559   -0.4270 O   0  0  0  0  0  0  0  0  0  0  0  0
    7.0298    1.7515   -1.3490 O   0  0  0  0  0  0  0  0  0  0  0  0
   -4.9448    1.1417    0.5438 C   0  0  0  0  0  0  0  0  0  0  0  0
   -5.3542   -0.1137   -0.1823 C   0  0  0  0  0  0  0  0  0  0  0  0
   -6.6452   -0.1613   -0.6528 C   0  0  0  0  0  0  0  0  0  0  0  0
   -7.1888   -1.2414   -1.3424 C   0  0  0  0  0  0  0  0  0  0  0  0
   -8.8362   -1.2403   -1.9140 Cl  0  0  0  0  0  0  0  0  0  0  0  0
   -6.3645   -2.3148   -1.5537 C   0  0  0  0  0  0  0  0  0  0  0  0
   -5.0629   -2.2994   -1.0945 C   0  0  0  0  0  0  0  0  0  0  0  0
   -4.5592   -1.2103   -0.4146 C   0  0  0  0  0  0  0  0  0  0  0  0
   -5.2795    2.4592   -1.0658 H   0  0  0  0  0  0  0  0  0  0  0  0
   -2.9524    3.4651    0.1593 H   0  0  0  0  0  0  0  0  0  0  0  0
   -4.2394    3.4422    1.2284 H   0  0  0  0  0  0  0  0  0  0  0  0
   -3.7668    0.6698   -1.8583 H   0  0  0  0  0  0  0  0  0  0  0  0
   -3.2082    2.3340   -2.1541 H   0  0  0  0  0  0  0  0  0  0  0  0
   -2.4182    2.1245    2.1095 H   0  0  0  0  0  0  0  0  0  0  0  0
   -0.5924    2.3115    2.2136 H   0  0  0  0  0  0  0  0  0  0  0  0
   -1.2374    0.3373    3.6346 H   0  0  0  0  0  0  0  0  0  0  0  0
   -2.2711   -0.2754    2.2127 H   0  0  0  0  0  0  0  0  0  0  0  0
   -0.3463   -1.2596    1.4700 H   0  0  0  0  0  0  0  0  0  0  0  0
    0.6584   -0.2164    2.5643 H   0  0  0  0  0  0  0  0  0  0  0  0
    0.7239    1.5949    1.1051 H   0  0  0  0  0  0  0  0  0  0  0  0
    0.8081    0.8739   -1.3116 H   0  0  0  0  0  0  0  0  0  0  0  0
    0.1450   -0.7034   -0.8621 H   0  0  0  0  0  0  0  0  0  0  0  0
    2.8062    0.3083   -0.7471 H   0  0  0  0  0  0  0  0  0  0  0  0
    4.2837   -2.8361    2.0470 H   0  0  0  0  0  0  0  0  0  0  0  0
    6.6605   -3.0729    2.1054 H   0  0  0  0  0  0  0  0  0  0  0  0
    8.1646   -1.7340    0.7824 H   0  0  0  0  0  0  0  0  0  0  0  0
    4.8139    0.2707   -0.8256 H   0  0  0  0  0  0  0  0  0  0  0  0
    6.9248   -0.5653   -3.2244 H   0  0  0  0  0  0  0  0  0  0  0  0
    8.6125    0.1810   -3.2565 H   0  0  0  0  0  0  0  0  0  0  0  0
    8.3185   -1.4055   -2.5023 H   0  0  0  0  0  0  0  0  0  0  0  0
   -4.1641    0.8189    1.2498 H   0  0  0  0  0  0  0  0  0  0  0  0
   -5.8150    1.5589    1.0948 H   0  0  0  0  0  0  0  0  0  0  0  0
   -7.3385    0.6770   -0.5049 H   0  0  0  0  0  0  0  0  0  0  0  0
   -6.6851   -3.1930   -2.0722 H   0  0  0  0  0  0  0  0  0  0  0  0
   -4.3968   -3.1561   -1.2602 H   0  0  0  0  0  0  0  0  0  0  0  0
   -3.5496   -1.1544   -0.0371 H   0  0  0  0  0  0  0  0  0  0  0  0
  1  2  1  0
  1  3  1  0
  3  4  1  0
  4  5  2  0
  4  6  1  0
  6  7  1  0
  7  8  1  0
  8  9  1  0
  9 10  1  0
 10 11  1  0
 11 12  1  0
 12 13  1  0
 13 14  2  0
 13 15  1  0
 15 16  2  0
 16 17  1  0
 17 18  2  0
 18 19  1  0
 19 20  2  0
 19 21  1  0
 21 22  1  0
 21 23  2  0
 21 24  2  0
  1 25  1  0
 25 26  1  0
 26 27  2  0
 27 28  1  0
 28 29  1  0
 28 30  2  0
 30 31  1  0
 31 32  2  0
 10  6  1  0
 20 15  1  0
 32 26  1  0
  1 33  1  6
  2 34  1  0
  2 35  1  0
  3 36  1  0
  3 37  1  0
  7 38  1  0
  7 39  1  0
  8 40  1  0
  8 41  1  0
  9 42  1  0
  9 43  1  0
 10 44  1  1
 11 45  1  0
 11 46  1  0
 12 47  1  0
 16 48  1  0
 17 49  1  0
 18 50  1  0
 20 51  1  0
 22 52  1  0
 22 53  1  0
 22 54  1  0
 25 55  1  0
 25 56  1  0
 27 57  1  0
 30 58  1  0
 31 59  1  0
 32 60  1  0
M  END
$$$$
