
     RDKit          3D

 49 49  0  0  0  0  0  0  0  0999 V2000
    2.8749    0.1679   -1.2790 C   0  0  2  0  0  0  0  0  0  0  0  0
    4.0069    0.6524   -0.4292 C   0  0  0  0  0  0  0  0  0  0  0  0
    4.7063   -0.5451    0.1771 C   0  0  0  0  0  0  0  0  0  0  0  0
    5.8604   -0.0583    1.0356 C   0  0  0  0  0  0  0  0  0  0  0  0
    6.8530    0.7262    0.2118 C   0  0  0  0  0  0  0  0  0  0  0  0
    1.9350   -0.5748   -0.5018 N   0  0  0  0  0  0  0  0  0  0  0  0
    0.5701   -0.1804   -0.5762 C   0  0  0  0  0  0  0  0  0  0  0  0
    0.2738    0.7996   -1.3230 O   0  0  0  0  0  0  0  0  0  0  0  0
   -0.4318   -0.8274    0.1340 O   0  0  0  0  0  0  0  0  0  0  0  0
   -1.7979   -0.3539   -0.0049 C   0  0  2  0  0  0  0  0  0  0  0  0
   -2.1984    0.0792    1.3487 C   0  0  0  0  0  0  0  0  0  0  0  0
   -3.5380    0.6164    1.5475 C   0  0  0  0  0  0  0  0  0  0  0  0
   -4.7233    0.0213    1.9208 C   0  0  0  0  0  0  0  0  0  0  0  0
   -5.8914    0.7426    2.0468 C   0  0  0  0  0  0  0  0  0  0  0  0
   -5.9327    2.0876    1.8074 C   0  0  0  0  0  0  0  0  0  0  0  0
   -4.7839    2.7105    1.4371 C   0  0  0  0  0  0  0  0  0  0  0  0
   -3.6114    1.9957    1.3089 C   0  0  0  0  0  0  0  0  0  0  0  0
   -2.5564   -1.4373   -0.6650 C   0  0  0  0  0  0  0  0  0  0  0  0
   -4.0107   -1.1645   -0.9316 C   0  0  0  0  0  0  0  0  0  0  0  0
   -1.8804   -1.6767   -2.0237 C   0  0  0  0  0  0  0  0  0  0  0  0
    3.4814   -0.7761   -2.2871 C   0  0  0  0  0  0  0  0  0  0  0  0
    3.1836   -1.9390   -2.3709 O   0  0  0  0  0  0  0  0  0  0  0  0
    2.4031    0.9727   -1.8776 H   0  0  0  0  0  0  0  0  0  0  0  0
    3.6233    1.3434    0.3340 H   0  0  0  0  0  0  0  0  0  0  0  0
    4.7360    1.2045   -1.0932 H   0  0  0  0  0  0  0  0  0  0  0  0
    5.0653   -1.2512   -0.5863 H   0  0  0  0  0  0  0  0  0  0  0  0
    3.9722   -1.0881    0.8027 H   0  0  0  0  0  0  0  0  0  0  0  0
    6.3887   -0.9622    1.3997 H   0  0  0  0  0  0  0  0  0  0  0  0
    5.5199    0.5373    1.8834 H   0  0  0  0  0  0  0  0  0  0  0  0
    7.7068    0.9733    0.8923 H   0  0  0  0  0  0  0  0  0  0  0  0
    6.4563    1.7085   -0.1171 H   0  0  0  0  0  0  0  0  0  0  0  0
    7.2411    0.1392   -0.6337 H   0  0  0  0  0  0  0  0  0  0  0  0
    2.0978   -1.3824    0.1256 H   0  0  0  0  0  0  0  0  0  0  0  0
   -1.7639    0.5070   -0.7143 H   0  0  0  0  0  0  0  0  0  0  0  0
   -2.0450   -0.7821    2.0719 H   0  0  0  0  0  0  0  0  0  0  0  0
   -1.3967    0.8036    1.6889 H   0  0  0  0  0  0  0  0  0  0  0  0
   -4.5914   -1.0558    2.0906 H   0  0  0  0  0  0  0  0  0  0  0  0
   -6.7366    0.1123    2.3511 H   0  0  0  0  0  0  0  0  0  0  0  0
   -6.9123    2.5224    1.9445 H   0  0  0  0  0  0  0  0  0  0  0  0
   -4.8440    3.7772    1.2532 H   0  0  0  0  0  0  0  0  0  0  0  0
   -2.7585    2.6192    1.0042 H   0  0  0  0  0  0  0  0  0  0  0  0
   -2.4830   -2.4233   -0.1568 H   0  0  0  0  0  0  0  0  0  0  0  0
   -4.2889   -0.1016   -0.9118 H   0  0  0  0  0  0  0  0  0  0  0  0
   -4.6826   -1.7828   -0.3017 H   0  0  0  0  0  0  0  0  0  0  0  0
   -4.2590   -1.5012   -1.9873 H   0  0  0  0  0  0  0  0  0  0  0  0
   -0.7778   -1.8043   -1.8985 H   0  0  0  0  0  0  0  0  0  0  0  0
   -2.2477   -2.5881   -2.5179 H   0  0  0  0  0  0  0  0  0  0  0  0
   -2.0282   -0.8296   -2.7140 H   0  0  0  0  0  0  0  0  0  0  0  0
    4.2159   -0.2541   -2.9153 H   0  0  0  0  0  0  0  0  0  0  0  0
  1  2  1  0
  2  3  1  0
  3  4  1  0
  4  5  1  0
  1  6  1  0
  6  7  1  0
  7  8  2  0
  7  9  1  0
  9 10  1  0
 10 11  1  0
 11 12  1  0
 12 13  2  0
 13 14  1  0
 14 15  2  0
 15 16  1  0
 16 17  2  0
 10 18  1  0
 18 19  1  0
 18 20  1  0
  1 21  1  0
 21 22  2  0
 17 12  1  0
  1 23  1  6
  2 24  1  0
  2 25  1  0
  3 26  1  0
  3 27  1  0
  4 28  1  0
  4 29  1  0
  5 30  1  0
  5 31  1  0
  5 32  1  0
  6 33  1  0
 10 34  1  6
 11 35  1  0
 11 36  1  0
 13 37  1  0
 14 38  1  0
 15 39  1  0
 16 40  1  0
 17 41  1  0
 18 42  1  0
 19 43  1  0
 19 44  1  0
 19 45  1  0
 20 46  1  0
 20 47  1  0
 20 48  1  0
 21 49  1  0
M  END
$$$$
