
     RDKit          3D

 52 56  0  0  0  0  0  0  0  0999 V2000
    9.0899   -0.1277   -0.3418 O   0  0  0  0  0  0  0  0  0  0  0  0
    8.4413    0.3565   -1.2751 N   0  0  0  0  0  4  0  0  0  0  0  0
    9.1125    0.8862   -2.3353 O   0  0  0  0  0  1  0  0  0  0  0  0
    7.0283    0.3537   -1.2336 C   0  0  0  0  0  0  0  0  0  0  0  0
    6.2881    0.8966   -2.2921 C   0  0  0  0  0  0  0  0  0  0  0  0
    4.8953    0.8998   -2.2689 C   0  0  0  0  0  0  0  0  0  0  0  0
    4.2282    0.3627   -1.1918 C   0  0  0  0  0  0  0  0  0  0  0  0
    2.9096    0.2151   -0.8784 N   0  0  0  0  0  0  0  0  0  0  0  0
    2.7712   -0.3867    0.3123 C   0  0  0  0  0  0  0  0  0  0  0  0
    1.6771   -0.7573    1.0541 C   0  0  0  0  0  0  0  0  0  0  0  0
    0.3512   -0.5195    0.6106 N   0  0  0  0  0  0  0  0  0  0  0  0
   -0.1131    0.8171    0.4537 C   0  0  0  0  0  0  0  0  0  0  0  0
   -1.5828    0.9754    0.7827 C   0  0  0  0  0  0  0  0  0  0  0  0
   -2.3417   -0.2096    0.5189 N   0  0  0  0  0  0  0  0  0  0  0  0
   -2.7858   -0.3424   -0.8374 C   0  0  0  0  0  0  0  0  0  0  0  0
   -3.8396    0.6732   -1.2246 C   0  0  0  0  0  0  0  0  0  0  0  0
   -5.0492    0.5587   -0.3888 C   0  0  0  0  0  0  0  0  0  0  0  0
   -5.2459    1.2389    0.7796 C   0  0  0  0  0  0  0  0  0  0  0  0
   -6.3937    1.0794    1.5066 C   0  0  0  0  0  0  0  0  0  0  0  0
   -7.3882    0.2219    1.0747 C   0  0  0  0  0  0  0  0  0  0  0  0
   -8.5324    0.0485    1.7788 F   0  0  0  0  0  0  0  0  0  0  0  0
   -7.2176   -0.4752   -0.0973 C   0  0  0  0  0  0  0  0  0  0  0  0
   -8.1714   -1.3263   -0.5545 F   0  0  0  0  0  0  0  0  0  0  0  0
   -6.0525   -0.2963   -0.8102 C   0  0  0  0  0  0  0  0  0  0  0  0
   -1.7921   -1.4133    1.0500 C   0  0  0  0  0  0  0  0  0  0  0  0
   -0.4783   -1.6712    0.3349 C   0  0  0  0  0  0  0  0  0  0  0  0
    1.8656   -1.3730    2.2601 N   0  0  0  0  0  0  0  0  0  0  0  0
    3.0937   -1.6231    2.7349 C   0  0  0  0  0  0  0  0  0  0  0  0
    4.1334   -1.2554    1.9993 N   0  0  0  0  0  0  0  0  0  0  0  0
    4.0481   -0.6488    0.8092 C   0  0  0  0  0  0  0  0  0  0  0  0
    4.9297   -0.1761   -0.1394 C   0  0  0  0  0  0  0  0  0  0  0  0
    6.3021   -0.1661   -0.1886 C   0  0  0  0  0  0  0  0  0  0  0  0
    6.8416    1.3094   -3.1226 H   0  0  0  0  0  0  0  0  0  0  0  0
    4.3344    1.3200   -3.0898 H   0  0  0  0  0  0  0  0  0  0  0  0
    2.1374    0.5326   -1.4953 H   0  0  0  0  0  0  0  0  0  0  0  0
    0.0235    1.1244   -0.6072 H   0  0  0  0  0  0  0  0  0  0  0  0
    0.5048    1.5360    1.0628 H   0  0  0  0  0  0  0  0  0  0  0  0
   -1.6533    1.2307    1.8581 H   0  0  0  0  0  0  0  0  0  0  0  0
   -1.9636    1.8397    0.2079 H   0  0  0  0  0  0  0  0  0  0  0  0
   -3.1848   -1.3484   -1.0059 H   0  0  0  0  0  0  0  0  0  0  0  0
   -1.9276   -0.1633   -1.5499 H   0  0  0  0  0  0  0  0  0  0  0  0
   -3.4333    1.7102   -1.2107 H   0  0  0  0  0  0  0  0  0  0  0  0
   -4.1252    0.4661   -2.2736 H   0  0  0  0  0  0  0  0  0  0  0  0
   -4.4872    1.9063    1.1282 H   0  0  0  0  0  0  0  0  0  0  0  0
   -6.5917    1.5955    2.4339 H   0  0  0  0  0  0  0  0  0  0  0  0
   -5.9288   -0.8623   -1.7485 H   0  0  0  0  0  0  0  0  0  0  0  0
   -1.5512   -1.2566    2.1277 H   0  0  0  0  0  0  0  0  0  0  0  0
   -2.5301   -2.2251    0.9099 H   0  0  0  0  0  0  0  0  0  0  0  0
   -0.0673   -2.6070    0.7529 H   0  0  0  0  0  0  0  0  0  0  0  0
   -0.5937   -1.7973   -0.7467 H   0  0  0  0  0  0  0  0  0  0  0  0
    3.1898   -2.1210    3.7130 H   0  0  0  0  0  0  0  0  0  0  0  0
    6.8254   -0.5970    0.6532 H   0  0  0  0  0  0  0  0  0  0  0  0
  1  2  2  0
  2  3  1  0
  2  4  1  0
  4  5  2  0
  5  6  1  0
  6  7  2  0
  7  8  1  0
  8  9  1  0
  9 10  2  0
 10 11  1  0
 11 12  1  0
 12 13  1  0
 13 14  1  0
 14 15  1  0
 15 16  1  0
 16 17  1  0
 17 18  2  0
 18 19  1  0
 19 20  2  0
 20 21  1  0
 20 22  1  0
 22 23  1  0
 22 24  2  0
 14 25  1  0
 25 26  1  0
 10 27  1  0
 27 28  2  0
 28 29  1  0
 29 30  2  0
 30 31  1  0
 31 32  2  0
 32  4  1  0
 31  7  1  0
 30  9  1  0
 26 11  1  0
 24 17  1  0
  5 33  1  0
  6 34  1  0
  8 35  1  0
 12 36  1  0
 12 37  1  0
 13 38  1  0
 13 39  1  0
 15 40  1  0
 15 41  1  0
 16 42  1  0
 16 43  1  0
 18 44  1  0
 19 45  1  0
 24 46  1  0
 25 47  1  0
 25 48  1  0
 26 49  1  0
 26 50  1  0
 28 51  1  0
 32 52  1  0
M  CHG  2   2   1   3  -1
M  END
$$$$
