
     RDKit          3D

 81 86  0  0  0  0  0  0  0  0999 V2000
   -8.4413    0.9719   -1.6551 C   0  0  0  0  0  0  0  0  0  0  0  0
   -7.1593    0.7657   -1.0264 N   0  0  0  0  0  0  0  0  0  0  0  0
   -6.6939   -0.5548   -0.9482 C   0  0  0  0  0  0  0  0  0  0  0  0
   -6.4716   -1.1545    0.3849 C   0  0  0  0  0  0  0  0  0  0  0  0
   -6.8300   -2.6152    0.3606 C   0  0  0  0  0  0  0  0  0  0  0  0
   -5.0483   -1.0282    0.9109 C   0  0  0  0  0  0  0  0  0  0  0  0
   -4.7216    0.3255    1.2028 N   0  0  0  0  0  0  0  0  0  0  0  0
   -3.5992    1.0362    0.7998 C   0  0  0  0  0  0  0  0  0  0  0  0
   -3.5429    2.3101    1.1594 O   0  0  0  0  0  0  0  0  0  0  0  0
   -2.4653    0.6149    0.0478 C   0  0  0  0  0  0  0  0  0  0  0  0
   -1.2204    1.0281    0.5175 C   0  0  0  0  0  0  0  0  0  0  0  0
   -0.0720    0.6985   -0.1601 C   0  0  0  0  0  0  0  0  0  0  0  0
   -0.1125   -0.0494   -1.3222 C   0  0  0  0  0  0  0  0  0  0  0  0
    1.0535   -0.3203   -2.0643 N   0  0  0  0  0  0  0  0  0  0  0  0
    2.3169    0.2439   -1.7498 C   0  0  0  0  0  0  0  0  0  0  0  0
    2.3787    1.6133   -1.7871 N   0  0  0  0  0  0  0  0  0  0  0  0
    3.4872    2.3074   -1.5563 C   0  0  0  0  0  0  0  0  0  0  0  0
    4.6433    1.5811   -1.2608 C   0  0  0  0  0  0  0  0  0  0  0  0
    5.9321    2.0002   -0.9942 C   0  0  0  0  0  0  0  0  0  0  0  0
    6.6896    0.8326   -0.7834 C   0  0  0  0  0  0  0  0  0  0  0  0
    8.1047    0.8852   -0.4906 C   0  0  0  0  0  0  0  0  0  0  0  0
    9.0265    0.4178   -1.1868 O   0  0  0  0  0  0  0  0  0  0  0  0
    8.5011    1.5456    0.7228 N   0  0  0  0  0  0  0  0  0  0  0  0
    9.9018    1.6493    1.1002 C   0  0  0  0  0  0  0  0  0  0  0  0
    7.4884    2.1358    1.5792 C   0  0  0  0  0  0  0  0  0  0  0  0
    5.8894   -0.2196   -0.9162 N   0  0  0  0  0  0  0  0  0  0  0  0
    6.1703   -1.5850   -0.7778 C   0  0  0  0  0  0  0  0  0  0  0  0
    6.3664   -2.0877    0.6459 C   0  0  0  0  0  0  0  0  0  0  0  0
    6.6358   -3.5638    0.3800 C   0  0  0  0  0  0  0  0  0  0  0  0
    7.0438   -3.6856   -1.0832 C   0  0  0  0  0  0  0  0  0  0  0  0
    7.3570   -2.1917   -1.4321 C   0  0  0  0  0  0  0  0  0  0  0  0
    4.6147    0.2280   -1.2136 C   0  0  0  0  0  0  0  0  0  0  0  0
    3.4390   -0.4068   -1.4626 N   0  0  0  0  0  0  0  0  0  0  0  0
   -1.3163   -0.4253   -1.7366 N   0  0  0  0  0  0  0  0  0  0  0  0
   -2.4916   -0.1184   -1.0940 C   0  0  0  0  0  0  0  0  0  0  0  0
   -5.6759    1.0864    2.0912 C   0  0  0  0  0  0  0  0  0  0  0  0
   -7.0189    0.9769    1.4174 C   0  0  0  0  0  0  0  0  0  0  0  0
   -8.0630    1.6855    2.2902 C   0  0  0  0  0  0  0  0  0  0  0  0
   -6.9058    1.6271    0.0780 C   0  0  0  0  0  0  0  0  0  0  0  0
   -7.4054   -0.4608    1.3725 C   0  0  0  0  0  0  0  0  0  0  0  0
   -7.0894   -0.9999    2.6391 O   0  0  0  0  0  0  0  0  0  0  0  0
   -8.9829    0.0598   -1.8974 H   0  0  0  0  0  0  0  0  0  0  0  0
   -9.0149    1.6599   -0.9602 H   0  0  0  0  0  0  0  0  0  0  0  0
   -8.2750    1.5951   -2.5585 H   0  0  0  0  0  0  0  0  0  0  0  0
   -5.7583   -0.7036   -1.5499 H   0  0  0  0  0  0  0  0  0  0  0  0
   -7.4489   -1.2014   -1.4941 H   0  0  0  0  0  0  0  0  0  0  0  0
   -5.9690   -3.2967    0.3355 H   0  0  0  0  0  0  0  0  0  0  0  0
   -7.4518   -2.9149    1.2487 H   0  0  0  0  0  0  0  0  0  0  0  0
   -7.4452   -2.8747   -0.5324 H   0  0  0  0  0  0  0  0  0  0  0  0
   -4.3748   -1.4819    0.2031 H   0  0  0  0  0  0  0  0  0  0  0  0
   -5.0141   -1.6458    1.8463 H   0  0  0  0  0  0  0  0  0  0  0  0
   -1.2099    1.6164    1.4256 H   0  0  0  0  0  0  0  0  0  0  0  0
    0.9026    1.0154    0.2075 H   0  0  0  0  0  0  0  0  0  0  0  0
    0.9711   -0.9766   -2.8947 H   0  0  0  0  0  0  0  0  0  0  0  0
    3.5197    3.3804   -1.5847 H   0  0  0  0  0  0  0  0  0  0  0  0
    6.2869    3.0278   -0.9524 H   0  0  0  0  0  0  0  0  0  0  0  0
    9.9664    1.9094    2.1646 H   0  0  0  0  0  0  0  0  0  0  0  0
   10.3907    0.6889    0.8996 H   0  0  0  0  0  0  0  0  0  0  0  0
   10.3815    2.4324    0.4928 H   0  0  0  0  0  0  0  0  0  0  0  0
    6.5242    1.6227    1.5299 H   0  0  0  0  0  0  0  0  0  0  0  0
    7.8892    2.0920    2.6146 H   0  0  0  0  0  0  0  0  0  0  0  0
    7.3296    3.2130    1.3081 H   0  0  0  0  0  0  0  0  0  0  0  0
    5.2882   -2.2023   -1.1491 H   0  0  0  0  0  0  0  0  0  0  0  0
    7.3135   -1.6636    1.0146 H   0  0  0  0  0  0  0  0  0  0  0  0
    5.5093   -1.8995    1.2837 H   0  0  0  0  0  0  0  0  0  0  0  0
    7.3984   -3.9291    1.0803 H   0  0  0  0  0  0  0  0  0  0  0  0
    5.7098   -4.1178    0.5411 H   0  0  0  0  0  0  0  0  0  0  0  0
    6.2012   -4.0433   -1.6684 H   0  0  0  0  0  0  0  0  0  0  0  0
    7.9777   -4.2593   -1.2117 H   0  0  0  0  0  0  0  0  0  0  0  0
    8.3250   -2.0693   -0.8680 H   0  0  0  0  0  0  0  0  0  0  0  0
    7.4258   -2.0489   -2.5022 H   0  0  0  0  0  0  0  0  0  0  0  0
   -3.4079   -0.4582   -1.5306 H   0  0  0  0  0  0  0  0  0  0  0  0
   -5.3748    2.1303    2.1226 H   0  0  0  0  0  0  0  0  0  0  0  0
   -5.6617    0.5807    3.0868 H   0  0  0  0  0  0  0  0  0  0  0  0
   -8.1614    1.0815    3.2004 H   0  0  0  0  0  0  0  0  0  0  0  0
   -9.0149    1.6470    1.7402 H   0  0  0  0  0  0  0  0  0  0  0  0
   -7.7140    2.7255    2.4929 H   0  0  0  0  0  0  0  0  0  0  0  0
   -7.6635    2.4535    0.0447 H   0  0  0  0  0  0  0  0  0  0  0  0
   -5.9325    2.1256   -0.1080 H   0  0  0  0  0  0  0  0  0  0  0  0
   -8.4533   -0.6470    1.1109 H   0  0  0  0  0  0  0  0  0  0  0  0
   -7.6774   -1.7233    2.9047 H   0  0  0  0  0  0  0  0  0  0  0  0
  1  2  1  0
  2  3  1  0
  3  4  1  0
  4  5  1  0
  4  6  1  0
  6  7  1  0
  7  8  1  0
  8  9  2  0
  8 10  1  0
 10 11  2  0
 11 12  1  0
 12 13  2  0
 13 14  1  0
 14 15  1  0
 15 16  2  0
 16 17  1  0
 17 18  2  0
 18 19  1  0
 19 20  2  0
 20 21  1  0
 21 22  2  0
 21 23  1  0
 23 24  1  0
 23 25  1  0
 20 26  1  0
 26 27  1  0
 27 28  1  0
 28 29  1  0
 29 30  1  0
 30 31  1  0
 26 32  1  0
 32 33  2  0
 13 34  1  0
 34 35  2  0
  7 36  1  0
 36 37  1  0
 37 38  1  0
 37 39  1  0
 37 40  1  0
 40 41  1  0
 39  2  1  0
 40  4  1  0
 35 10  1  0
 33 15  1  0
 32 18  1  0
 31 27  1  0
  1 42  1  0
  1 43  1  0
  1 44  1  0
  3 45  1  0
  3 46  1  0
  5 47  1  0
  5 48  1  0
  5 49  1  0
  6 50  1  0
  6 51  1  0
 11 52  1  0
 12 53  1  0
 14 54  1  0
 17 55  1  0
 19 56  1  0
 24 57  1  0
 24 58  1  0
 24 59  1  0
 25 60  1  0
 25 61  1  0
 25 62  1  0
 27 63  1  0
 28 64  1  0
 28 65  1  0
 29 66  1  0
 29 67  1  0
 30 68  1  0
 30 69  1  0
 31 70  1  0
 31 71  1  0
 35 72  1  0
 36 73  1  0
 36 74  1  0
 38 75  1  0
 38 76  1  0
 38 77  1  0
 39 78  1  0
 39 79  1  0
 40 80  1  0
 41 81  1  0
M  END
$$$$
