
     RDKit          3D

 62 66  0  0  0  0  0  0  0  0999 V2000
   -2.5682    0.9512    1.0631 C   0  0  2  0  0  0  0  0  0  0  0  0
   -1.1963    1.6530    1.1456 C   0  0  0  0  0  0  0  0  0  0  0  0
   -0.3343    0.7703    0.3043 C   0  0  1  0  0  0  0  0  0  0  0  0
    1.1134    0.8436    0.4704 C   0  0  2  0  0  0  0  0  0  0  0  0
    1.7168    2.2094    0.2295 C   0  0  0  0  0  0  0  0  0  0  0  0
    3.2173    2.1310    0.4017 C   0  0  2  0  0  0  0  0  0  0  0  0
    3.8278    3.2848   -0.1066 F   0  0  0  0  0  0  0  0  0  0  0  0
    3.8246    0.9454   -0.1972 C   0  0  0  0  0  0  0  0  0  0  0  0
    4.9801    1.0812   -0.8290 C   0  0  0  0  0  0  0  0  0  0  0  0
    5.6411   -0.0549   -1.4482 C   0  0  0  0  0  0  0  0  0  0  0  0
    6.7186    0.1294   -2.0249 O   0  0  0  0  0  0  0  0  0  0  0  0
    5.0155   -1.3700   -1.3700 C   0  0  0  0  0  0  0  0  0  0  0  0
    3.8582   -1.4483   -0.7257 C   0  0  0  0  0  0  0  0  0  0  0  0
    3.0915   -0.3672   -0.0594 C   0  0  1  0  0  0  0  0  0  0  0  0
    3.1738   -0.6724    1.4211 C   0  0  0  0  0  0  0  0  0  0  0  0
    1.7462   -0.0784   -0.5858 C   0  0  1  0  0  0  0  0  0  0  0  0
    0.8182   -1.1424   -0.9767 C   0  0  1  0  0  0  0  0  0  0  0  0
    1.3603   -2.2202   -1.6173 O   0  0  0  0  0  0  0  0  0  0  0  0
   -0.1327   -1.6645    0.0775 C   0  0  0  0  0  0  0  0  0  0  0  0
   -0.8360   -0.5894    0.7975 C   0  0  1  0  0  0  0  0  0  0  0  0
   -0.7583   -0.7196    2.2779 C   0  0  0  0  0  0  0  0  0  0  0  0
   -2.3019   -0.3864    0.4171 C   0  0  2  0  0  0  0  0  0  0  0  0
   -2.4270   -0.0914   -0.9387 O   0  0  0  0  0  0  0  0  0  0  0  0
   -3.3152    0.9693   -1.0550 C   0  0  0  0  0  0  0  0  0  0  0  0
   -2.9118    1.9647   -2.1169 C   0  0  0  0  0  0  0  0  0  0  0  0
   -4.7381    0.5441   -1.3572 C   0  0  0  0  0  0  0  0  0  0  0  0
   -3.3684    1.6358    0.1558 O   0  0  0  0  0  0  0  0  0  0  0  0
   -3.1493   -1.4851    0.8822 C   0  0  0  0  0  0  0  0  0  0  0  0
   -3.1437   -1.6760    2.1097 O   0  0  0  0  0  0  0  0  0  0  0  0
   -4.0647   -2.5126    0.3790 C   0  0  0  0  0  0  0  0  0  0  0  0
   -4.1951   -2.5754   -0.9987 O   0  0  0  0  0  0  0  0  0  0  0  0
   -3.0728    0.9074    2.0291 H   0  0  0  0  0  0  0  0  0  0  0  0
   -1.2926    2.6886    0.7794 H   0  0  0  0  0  0  0  0  0  0  0  0
   -0.8279    1.6905    2.1779 H   0  0  0  0  0  0  0  0  0  0  0  0
   -0.6829    0.8570   -0.7412 H   0  0  0  0  0  0  0  0  0  0  0  0
    1.4129    0.5774    1.4968 H   0  0  0  0  0  0  0  0  0  0  0  0
    1.5241    2.4665   -0.8322 H   0  0  0  0  0  0  0  0  0  0  0  0
    1.2496    2.9575    0.8667 H   0  0  0  0  0  0  0  0  0  0  0  0
    3.4156    2.1745    1.4925 H   0  0  0  0  0  0  0  0  0  0  0  0
    5.4420    2.0650   -0.8841 H   0  0  0  0  0  0  0  0  0  0  0  0
    5.4922   -2.2273   -1.8241 H   0  0  0  0  0  0  0  0  0  0  0  0
    3.4584   -2.4544   -0.7019 H   0  0  0  0  0  0  0  0  0  0  0  0
    3.3256    0.2235    2.0562 H   0  0  0  0  0  0  0  0  0  0  0  0
    4.0820   -1.3086    1.6460 H   0  0  0  0  0  0  0  0  0  0  0  0
    2.3319   -1.2311    1.8152 H   0  0  0  0  0  0  0  0  0  0  0  0
    1.9053    0.5536   -1.5170 H   0  0  0  0  0  0  0  0  0  0  0  0
    0.1064   -0.7021   -1.7440 H   0  0  0  0  0  0  0  0  0  0  0  0
    1.6999   -1.9335   -2.5054 H   0  0  0  0  0  0  0  0  0  0  0  0
    0.3710   -2.4145    0.7535 H   0  0  0  0  0  0  0  0  0  0  0  0
   -0.8949   -2.2695   -0.4636 H   0  0  0  0  0  0  0  0  0  0  0  0
   -0.8861   -1.8016    2.5278 H   0  0  0  0  0  0  0  0  0  0  0  0
   -1.5519   -0.1806    2.8324 H   0  0  0  0  0  0  0  0  0  0  0  0
    0.2564   -0.4876    2.7168 H   0  0  0  0  0  0  0  0  0  0  0  0
   -2.0083    1.5400   -2.6203 H   0  0  0  0  0  0  0  0  0  0  0  0
   -3.7150    2.0785   -2.8547 H   0  0  0  0  0  0  0  0  0  0  0  0
   -2.6317    2.9516   -1.6565 H   0  0  0  0  0  0  0  0  0  0  0  0
   -5.2448    0.1174   -0.4701 H   0  0  0  0  0  0  0  0  0  0  0  0
   -5.2895    1.4539   -1.6506 H   0  0  0  0  0  0  0  0  0  0  0  0
   -4.7346   -0.1485   -2.2204 H   0  0  0  0  0  0  0  0  0  0  0  0
   -3.7098   -3.5439    0.6778 H   0  0  0  0  0  0  0  0  0  0  0  0
   -5.0898   -2.3186    0.7807 H   0  0  0  0  0  0  0  0  0  0  0  0
   -5.1025   -2.3412   -1.3158 H   0  0  0  0  0  0  0  0  0  0  0  0
  1  2  1  0
  2  3  1  0
  3  4  1  0
  4  5  1  0
  5  6  1  0
  6  7  1  0
  6  8  1  0
  8  9  2  0
  9 10  1  0
 10 11  2  0
 10 12  1  0
 12 13  2  0
 13 14  1  0
 14 15  1  1
 14 16  1  0
 16 17  1  0
 17 18  1  0
 17 19  1  0
 19 20  1  0
 20 21  1  1
 20 22  1  0
 22 23  1  0
 23 24  1  0
 24 25  1  0
 24 26  1  0
 24 27  1  0
 22 28  1  1
 28 29  2  0
 28 30  1  0
 30 31  1  0
 22  1  1  0
 27  1  1  0
 20  3  1  0
 16  4  1  0
 14  8  1  0
  1 32  1  1
  2 33  1  0
  2 34  1  0
  3 35  1  6
  4 36  1  1
  5 37  1  0
  5 38  1  0
  6 39  1  1
  9 40  1  0
 12 41  1  0
 13 42  1  0
 15 43  1  0
 15 44  1  0
 15 45  1  0
 16 46  1  6
 17 47  1  6
 18 48  1  0
 19 49  1  0
 19 50  1  0
 21 51  1  0
 21 52  1  0
 21 53  1  0
 25 54  1  0
 25 55  1  0
 25 56  1  0
 26 57  1  0
 26 58  1  0
 26 59  1  0
 30 60  1  0
 30 61  1  0
 31 62  1  0
M  END
$$$$
