
     RDKit          3D

 38 39  0  0  0  0  0  0  0  0999 V2000
   -3.9283   -2.8880    1.1500 C   0  0  0  0  0  0  0  0  0  0  0  0
   -3.9258   -1.5098    0.7136 N   0  0  0  0  0  0  0  0  0  0  0  0
   -5.0523   -0.7846    0.4939 C   0  0  0  0  0  0  0  0  0  0  0  0
   -4.7502    0.4717    0.1078 N   0  0  0  0  0  0  0  0  0  0  0  0
   -3.4136    0.5986    0.0639 C   0  0  0  0  0  0  0  0  0  0  0  0
   -2.9180   -0.6303    0.4398 C   0  0  0  0  0  0  0  0  0  0  0  0
   -1.5750   -0.9092    0.5318 C   0  0  0  0  0  0  0  0  0  0  0  0
   -1.0396   -1.9947    0.8608 O   0  0  0  0  0  0  0  0  0  0  0  0
   -0.7666    0.1216    0.2223 N   0  0  0  0  0  0  0  0  0  0  0  0
    0.6760   -0.0367    0.3045 C   0  0  0  0  0  0  0  0  0  0  0  0
    1.3555   -0.4350   -0.9496 C   0  0  0  0  0  0  0  0  0  0  0  0
    2.8624   -0.6022   -0.7086 C   0  0  0  0  0  0  0  0  0  0  0  0
    3.4855    0.6743   -0.2153 C   0  0  0  0  0  0  0  0  0  0  0  0
    4.9186    0.4730    0.0342 C   0  0  0  0  0  0  0  0  0  0  0  0
    6.4105    0.4662    0.1445 C   0  0  0  0  0  0  0  0  0  0  0  0
    4.7057   -0.5399    0.7731 O   0  0  0  0  0  0  0  0  0  0  0  0
   -1.1539    1.3826   -0.1656 C   0  0  0  0  0  0  0  0  0  0  0  0
   -0.3377    2.2892   -0.4369 O   0  0  0  0  0  0  0  0  0  0  0  0
   -2.5130    1.5229   -0.2133 N   0  0  0  0  0  0  0  0  0  0  0  0
   -2.9906    2.8456   -0.5844 C   0  0  0  0  0  0  0  0  0  0  0  0
   -2.9459   -3.2336    1.4848 H   0  0  0  0  0  0  0  0  0  0  0  0
   -4.6402   -3.0242    2.0125 H   0  0  0  0  0  0  0  0  0  0  0  0
   -4.3064   -3.5308    0.3420 H   0  0  0  0  0  0  0  0  0  0  0  0
   -6.0530   -1.1820    0.6217 H   0  0  0  0  0  0  0  0  0  0  0  0
    1.0479    0.9096    0.7480 H   0  0  0  0  0  0  0  0  0  0  0  0
    0.8791   -0.8097    1.0766 H   0  0  0  0  0  0  0  0  0  0  0  0
    0.9826   -1.3477   -1.4140 H   0  0  0  0  0  0  0  0  0  0  0  0
    1.2835    0.4631   -1.6426 H   0  0  0  0  0  0  0  0  0  0  0  0
    3.3160   -0.8603   -1.7312 H   0  0  0  0  0  0  0  0  0  0  0  0
    3.0965   -1.4547   -0.0617 H   0  0  0  0  0  0  0  0  0  0  0  0
    2.9878    1.0754    0.6860 H   0  0  0  0  0  0  0  0  0  0  0  0
    3.3486    1.4651   -1.0307 H   0  0  0  0  0  0  0  0  0  0  0  0
    6.6746    0.9471    1.0999 H   0  0  0  0  0  0  0  0  0  0  0  0
    6.7976   -0.5403    0.0440 H   0  0  0  0  0  0  0  0  0  0  0  0
    6.8540    1.0466   -0.7156 H   0  0  0  0  0  0  0  0  0  0  0  0
   -3.8388    2.7799   -1.2752 H   0  0  0  0  0  0  0  0  0  0  0  0
   -3.3475    3.3075    0.3819 H   0  0  0  0  0  0  0  0  0  0  0  0
   -2.1859    3.4736   -1.0254 H   0  0  0  0  0  0  0  0  0  0  0  0
  1  2  1  0
  2  3  1  0
  3  4  2  0
  4  5  1  0
  5  6  2  0
  6  7  1  0
  7  8  2  0
  7  9  1  0
  9 10  1  0
 10 11  1  0
 11 12  1  0
 12 13  1  0
 13 14  1  0
 14 15  1  0
 14 16  2  0
  9 17  1  0
 17 18  2  0
 17 19  1  0
 19 20  1  0
  6  2  1  0
 19  5  1  0
  1 21  1  0
  1 22  1  0
  1 23  1  0
  3 24  1  0
 10 25  1  0
 10 26  1  0
 11 27  1  0
 11 28  1  0
 12 29  1  0
 12 30  1  0
 13 31  1  0
 13 32  1  0
 15 33  1  0
 15 34  1  0
 15 35  1  0
 20 36  1  0
 20 37  1  0
 20 38  1  0
M  END
$$$$
