
     RDKit          3D

 61 63  0  0  0  0  0  0  0  0999 V2000
    0.0935   -2.7717    0.2485 C   0  0  0  0  0  0  0  0  0  0  0  0
   -0.6665   -1.5418   -0.3012 C   0  0  2  0  0  0  0  0  0  0  0  0
    0.3852   -0.5206   -0.3992 N   0  0  0  0  0  0  0  0  0  0  0  0
    0.6436    0.1955   -1.5488 C   0  0  0  0  0  0  0  0  0  0  0  0
   -0.0122    0.0190   -2.6198 O   0  0  0  0  0  0  0  0  0  0  0  0
    1.7105    1.2446   -1.6426 C   0  0  0  0  0  0  0  0  0  0  0  0
    2.6817    0.8742   -2.7403 C   0  0  0  0  0  0  0  0  0  0  0  0
    1.1030    2.5883   -1.9857 C   0  0  0  0  0  0  0  0  0  0  0  0
    2.4067    1.2592   -0.4266 O   0  0  0  0  0  0  0  0  0  0  0  0
    3.4428    2.0947   -0.0872 C   0  0  0  0  0  0  0  0  0  0  0  0
    4.0159    1.9234    1.1924 C   0  0  0  0  0  0  0  0  0  0  0  0
    5.0584    2.7583    1.5592 C   0  0  0  0  0  0  0  0  0  0  0  0
    5.5553    3.7408    0.7374 C   0  0  0  0  0  0  0  0  0  0  0  0
    6.6742    4.6505    1.1547 C   0  0  0  0  0  0  0  0  0  0  0  0
    6.9903    4.3316    2.4576 F   0  0  0  0  0  0  0  0  0  0  0  0
    6.2060    5.9661    1.1677 F   0  0  0  0  0  0  0  0  0  0  0  0
    7.7719    4.5204    0.3522 F   0  0  0  0  0  0  0  0  0  0  0  0
    4.9656    3.8708   -0.5046 C   0  0  0  0  0  0  0  0  0  0  0  0
    3.9434    3.0443   -0.8523 N   0  0  0  0  0  0  0  0  0  0  0  0
   -1.6213   -1.1557    0.7842 C   0  0  1  0  0  0  0  0  0  0  0  0
   -2.5445   -0.0143    0.5090 C   0  0  0  0  0  0  0  0  0  0  0  0
   -3.4183   -0.1297   -0.6552 C   0  0  0  0  0  0  0  0  0  0  0  0
   -4.5486   -0.9089   -0.6471 C   0  0  0  0  0  0  0  0  0  0  0  0
   -5.3532   -0.9264   -1.8229 C   0  0  0  0  0  0  0  0  0  0  0  0
   -5.0245   -0.2079   -2.9082 C   0  0  0  0  0  0  0  0  0  0  0  0
   -6.0797   -0.2642   -4.3567 Cl  0  0  0  0  0  0  0  0  0  0  0  0
   -3.8980    0.5858   -2.9510 C   0  0  0  0  0  0  0  0  0  0  0  0
   -3.1192    0.5888   -1.7748 C   0  0  0  0  0  0  0  0  0  0  0  0
   -2.0710   -2.2039    1.6522 C   0  0  0  0  0  0  0  0  0  0  0  0
   -2.0907   -1.9414    3.0522 C   0  0  0  0  0  0  0  0  0  0  0  0
   -2.4600   -2.8631    3.9530 C   0  0  0  0  0  0  0  0  0  0  0  0
   -2.8573   -4.1661    3.6355 C   0  0  0  0  0  0  0  0  0  0  0  0
   -2.8324   -4.4004    2.2571 C   0  0  0  0  0  0  0  0  0  0  0  0
   -3.2465   -5.8000    1.8595 C   0  0  0  0  0  0  0  0  0  0  0  0
   -3.5514   -6.7807    1.5677 N   0  0  0  0  0  0  0  0  0  0  0  0
   -2.4731   -3.5056    1.3613 C   0  0  0  0  0  0  0  0  0  0  0  0
    1.1819   -2.6800    0.1059 H   0  0  0  0  0  0  0  0  0  0  0  0
   -0.1982   -3.6695   -0.3702 H   0  0  0  0  0  0  0  0  0  0  0  0
   -0.0871   -2.9294    1.3176 H   0  0  0  0  0  0  0  0  0  0  0  0
   -1.0605   -1.6680   -1.2926 H   0  0  0  0  0  0  0  0  0  0  0  0
    0.9321   -0.3968    0.4896 H   0  0  0  0  0  0  0  0  0  0  0  0
    3.3244    0.0026   -2.5035 H   0  0  0  0  0  0  0  0  0  0  0  0
    2.1099    0.6921   -3.6938 H   0  0  0  0  0  0  0  0  0  0  0  0
    3.3736    1.7212   -2.9701 H   0  0  0  0  0  0  0  0  0  0  0  0
    0.7823    3.1757   -1.1212 H   0  0  0  0  0  0  0  0  0  0  0  0
    0.2338    2.3744   -2.6678 H   0  0  0  0  0  0  0  0  0  0  0  0
    1.8474    3.1340   -2.6140 H   0  0  0  0  0  0  0  0  0  0  0  0
    3.6673    1.1869    1.8541 H   0  0  0  0  0  0  0  0  0  0  0  0
    5.5490    2.6754    2.5322 H   0  0  0  0  0  0  0  0  0  0  0  0
    5.3018    4.6158   -1.1967 H   0  0  0  0  0  0  0  0  0  0  0  0
   -0.8383   -0.5747    1.5067 H   0  0  0  0  0  0  0  0  0  0  0  0
   -3.1141    0.1693    1.4496 H   0  0  0  0  0  0  0  0  0  0  0  0
   -1.9132    0.9227    0.4091 H   0  0  0  0  0  0  0  0  0  0  0  0
   -4.8338   -1.4941    0.1911 H   0  0  0  0  0  0  0  0  0  0  0  0
   -6.2436   -1.5404   -1.8230 H   0  0  0  0  0  0  0  0  0  0  0  0
   -3.6512    1.1442   -3.8055 H   0  0  0  0  0  0  0  0  0  0  0  0
   -2.2558    1.2067   -1.8068 H   0  0  0  0  0  0  0  0  0  0  0  0
   -1.7900   -0.9339    3.3608 H   0  0  0  0  0  0  0  0  0  0  0  0
   -2.4727   -2.6483    5.0296 H   0  0  0  0  0  0  0  0  0  0  0  0
   -3.1429   -4.8989    4.3268 H   0  0  0  0  0  0  0  0  0  0  0  0
   -2.4817   -3.7410    0.2945 H   0  0  0  0  0  0  0  0  0  0  0  0
  1  2  1  0
  2  3  1  0
  3  4  1  0
  4  5  2  0
  4  6  1  0
  6  7  1  0
  6  8  1  0
  6  9  1  0
  9 10  1  0
 10 11  2  0
 11 12  1  0
 12 13  2  0
 13 14  1  0
 14 15  1  0
 14 16  1  0
 14 17  1  0
 13 18  1  0
 18 19  2  0
  2 20  1  0
 20 21  1  0
 21 22  1  0
 22 23  2  0
 23 24  1  0
 24 25  2  0
 25 26  1  0
 25 27  1  0
 27 28  2  0
 20 29  1  0
 29 30  2  0
 30 31  1  0
 31 32  2  0
 32 33  1  0
 33 34  1  0
 34 35  3  0
 33 36  2  0
 19 10  1  0
 28 22  1  0
 36 29  1  0
  1 37  1  0
  1 38  1  0
  1 39  1  0
  2 40  1  6
  3 41  1  0
  7 42  1  0
  7 43  1  0
  7 44  1  0
  8 45  1  0
  8 46  1  0
  8 47  1  0
 11 48  1  0
 12 49  1  0
 18 50  1  0
 20 51  1  1
 21 52  1  0
 21 53  1  0
 23 54  1  0
 24 55  1  0
 27 56  1  0
 28 57  1  0
 30 58  1  0
 31 59  1  0
 32 60  1  0
 36 61  1  0
M  END
$$$$
