
     RDKit          3D

 42 44  0  0  0  0  0  0  0  0999 V2000
   -4.9805   -1.1188    1.3396 C   0  0  0  0  0  0  0  0  0  0  0  0
   -3.5548   -1.4344    0.8653 C   0  0  0  0  0  0  0  0  0  0  0  0
   -3.4256   -1.1358   -0.5720 C   0  0  0  0  0  0  0  0  0  0  0  0
   -2.2858   -0.3138   -1.0228 C   0  0  0  0  0  0  0  0  0  0  0  0
   -2.8455    0.9499   -1.6948 C   0  0  0  0  0  0  0  0  0  0  0  0
   -1.3186    0.1117   -0.0299 C   0  0  0  0  0  0  0  0  0  0  0  0
   -0.1668    0.7473   -0.4249 C   0  0  0  0  0  0  0  0  0  0  0  0
    0.8044    1.1833    0.4732 C   0  0  0  0  0  0  0  0  0  0  0  0
    2.0283    1.8833   -0.0094 C   0  0  0  0  0  0  0  0  0  0  0  0
    3.0550    0.9511   -0.5139 C   0  0  0  0  0  0  0  0  0  0  0  0
    3.1929    0.8014   -1.8904 C   0  0  0  0  0  0  0  0  0  0  0  0
    4.1121   -0.0441   -2.3719 N   0  0  0  0  0  0  0  0  0  0  0  0
    4.8926   -0.7405   -1.5570 C   0  0  0  0  0  0  0  0  0  0  0  0
    5.8529   -1.6250   -2.1531 N   0  0  0  0  0  0  0  0  0  0  0  0
    4.7923   -0.6259   -0.2262 N   0  0  0  0  0  0  0  0  0  0  0  0
    3.8679    0.2257    0.3166 C   0  0  0  0  0  0  0  0  0  0  0  0
    3.7611    0.3592    1.7291 N   0  0  0  0  0  0  0  0  0  0  0  0
    0.6000    0.9679    1.8124 C   0  0  0  0  0  0  0  0  0  0  0  0
   -0.5511    0.3289    2.2515 C   0  0  0  0  0  0  0  0  0  0  0  0
   -0.8506    0.0331    3.9515 Cl  0  0  0  0  0  0  0  0  0  0  0  0
   -1.4949   -0.0897    1.3151 C   0  0  0  0  0  0  0  0  0  0  0  0
   -2.6734   -0.7396    1.7424 N   0  0  0  0  0  0  0  0  0  0  0  0
   -5.6910   -1.8366    0.9043 H   0  0  0  0  0  0  0  0  0  0  0  0
   -5.0347   -1.1215    2.4460 H   0  0  0  0  0  0  0  0  0  0  0  0
   -5.2053   -0.0689    1.0251 H   0  0  0  0  0  0  0  0  0  0  0  0
   -3.4325   -2.5310    1.0720 H   0  0  0  0  0  0  0  0  0  0  0  0
   -3.3624   -2.1241   -1.1250 H   0  0  0  0  0  0  0  0  0  0  0  0
   -4.4110   -0.7227   -0.9531 H   0  0  0  0  0  0  0  0  0  0  0  0
   -1.6968   -0.8160   -1.8507 H   0  0  0  0  0  0  0  0  0  0  0  0
   -3.5783    0.5724   -2.4514 H   0  0  0  0  0  0  0  0  0  0  0  0
   -2.0279    1.5294   -2.1429 H   0  0  0  0  0  0  0  0  0  0  0  0
   -3.3676    1.5417   -0.9283 H   0  0  0  0  0  0  0  0  0  0  0  0
    0.0289    0.9342   -1.4700 H   0  0  0  0  0  0  0  0  0  0  0  0
    1.7148    2.5595   -0.8190 H   0  0  0  0  0  0  0  0  0  0  0  0
    2.4861    2.4834    0.8231 H   0  0  0  0  0  0  0  0  0  0  0  0
    2.5627    1.3651   -2.5735 H   0  0  0  0  0  0  0  0  0  0  0  0
    5.5337   -2.2796   -2.8947 H   0  0  0  0  0  0  0  0  0  0  0  0
    6.8362   -1.5672   -1.8085 H   0  0  0  0  0  0  0  0  0  0  0  0
    3.7596   -0.4690    2.3435 H   0  0  0  0  0  0  0  0  0  0  0  0
    3.6824    1.3020    2.1780 H   0  0  0  0  0  0  0  0  0  0  0  0
    1.3197    1.2916    2.5807 H   0  0  0  0  0  0  0  0  0  0  0  0
   -2.9285   -0.7181    2.7651 H   0  0  0  0  0  0  0  0  0  0  0  0
  1  2  1  0
  2  3  1  0
  3  4  1  0
  4  5  1  0
  4  6  1  0
  6  7  2  0
  7  8  1  0
  8  9  1  0
  9 10  1  0
 10 11  2  0
 11 12  1  0
 12 13  2  0
 13 14  1  0
 13 15  1  0
 15 16  2  0
 16 17  1  0
  8 18  2  0
 18 19  1  0
 19 20  1  0
 19 21  2  0
 21 22  1  0
 22  2  1  0
 21  6  1  0
 16 10  1  0
  1 23  1  0
  1 24  1  0
  1 25  1  0
  2 26  1  0
  3 27  1  0
  3 28  1  0
  4 29  1  0
  5 30  1  0
  5 31  1  0
  5 32  1  0
  7 33  1  0
  9 34  1  0
  9 35  1  0
 11 36  1  0
 14 37  1  0
 14 38  1  0
 17 39  1  0
 17 40  1  0
 18 41  1  0
 22 42  1  0
M  END
$$$$
