
     RDKit          3D

 71 73  0  0  0  0  0  0  0  0999 V2000
    6.7222   -0.0023    3.2471 C   0  0  0  0  0  0  0  0  0  0  0  0
    6.1203    0.3550    1.8872 C   0  0  0  0  0  0  0  0  0  0  0  0
    4.9645    1.2731    2.0405 C   0  0  0  0  0  0  0  0  0  0  0  0
    3.7266    0.8169    1.4609 N   0  0  0  0  0  0  0  0  0  0  0  0
    3.7351   -0.0102    0.3117 C   0  0  0  0  0  0  0  0  0  0  0  0
    4.8013   -0.8667    0.1517 C   0  0  0  0  0  0  0  0  0  0  0  0
    4.8392   -1.6625   -0.9633 C   0  0  0  0  0  0  0  0  0  0  0  0
    3.8230   -1.6048   -1.9108 C   0  0  0  0  0  0  0  0  0  0  0  0
    2.7632   -0.7342   -1.7234 C   0  0  0  0  0  0  0  0  0  0  0  0
    2.7071    0.0707   -0.6120 C   0  0  0  0  0  0  0  0  0  0  0  0
    1.3581    1.1829   -0.3629 S   0  0  0  0  0  6  0  0  0  0  0  0
    0.7450    0.7360    0.9476 O   0  0  0  0  0  0  0  0  0  0  0  0
    1.8512    2.5981   -0.2830 O   0  0  0  0  0  0  0  0  0  0  0  0
    0.2909    1.0111   -1.6637 N   0  0  0  0  0  0  0  0  0  0  0  0
   -1.0467    0.5654   -1.3475 C   0  0  1  0  0  0  0  0  0  0  0  0
   -1.9487    1.6333   -1.9187 C   0  0  0  0  0  0  0  0  0  0  0  0
   -1.6618    2.9545   -1.2787 C   0  0  0  0  0  0  0  0  0  0  0  0
   -1.9718    2.9212    0.1727 C   0  0  0  0  0  0  0  0  0  0  0  0
   -1.6915    4.2175    0.8166 N   0  0  0  0  0  0  0  0  0  0  0  0
   -1.9302    4.3744    2.2084 C   0  0  0  0  0  0  0  0  0  0  0  0
   -2.7208    3.5679    2.8087 N   0  0  0  0  0  0  0  0  0  0  0  0
   -1.3127    5.4129    2.9724 N   0  0  0  0  0  0  0  0  0  0  0  0
   -1.3772   -0.7609   -1.9705 C   0  0  0  0  0  0  0  0  0  0  0  0
   -0.5759   -1.2486   -2.7971 O   0  0  0  0  0  0  0  0  0  0  0  0
   -2.5508   -1.4907   -1.6686 N   0  0  0  0  0  0  0  0  0  0  0  0
   -2.7798   -2.7424   -2.3420 C   0  0  0  0  0  0  0  0  0  0  0  0
   -3.0570   -3.8896   -1.4063 C   0  0  0  0  0  0  0  0  0  0  0  0
   -3.9599   -3.5135   -0.2649 C   0  0  1  0  0  0  0  0  0  0  0  0
   -3.7691   -4.5484    0.8259 C   0  0  0  0  0  0  0  0  0  0  0  0
   -3.6939   -2.1737    0.3096 C   0  0  0  0  0  0  0  0  0  0  0  0
   -3.5280   -1.0668   -0.7069 C   0  0  2  0  0  0  0  0  0  0  0  0
   -4.8212   -0.7846   -1.3647 C   0  0  0  0  0  0  0  0  0  0  0  0
   -5.8190   -0.4497   -0.6410 O   0  0  0  0  0  0  0  0  0  0  0  0
   -4.9739   -0.8736   -2.7366 O   0  0  0  0  0  0  0  0  0  0  0  0
    5.8519   -0.9122    1.1595 C   0  0  0  0  0  0  0  0  0  0  0  0
    7.2980   -0.9492    3.2017 H   0  0  0  0  0  0  0  0  0  0  0  0
    5.8804   -0.1939    3.9582 H   0  0  0  0  0  0  0  0  0  0  0  0
    7.3641    0.7888    3.6352 H   0  0  0  0  0  0  0  0  0  0  0  0
    6.9476    0.8844    1.3306 H   0  0  0  0  0  0  0  0  0  0  0  0
    5.1904    2.2726    1.5793 H   0  0  0  0  0  0  0  0  0  0  0  0
    4.8230    1.4916    3.1275 H   0  0  0  0  0  0  0  0  0  0  0  0
    2.7847    1.0780    1.8572 H   0  0  0  0  0  0  0  0  0  0  0  0
    5.6355   -2.3541   -1.1582 H   0  0  0  0  0  0  0  0  0  0  0  0
    3.8300   -2.2153   -2.7890 H   0  0  0  0  0  0  0  0  0  0  0  0
    2.0034   -0.7118   -2.4846 H   0  0  0  0  0  0  0  0  0  0  0  0
    0.3541    1.7088   -2.4077 H   0  0  0  0  0  0  0  0  0  0  0  0
   -1.2000    0.4619   -0.2811 H   0  0  0  0  0  0  0  0  0  0  0  0
   -3.0282    1.3807   -1.8814 H   0  0  0  0  0  0  0  0  0  0  0  0
   -1.6206    1.7135   -3.0095 H   0  0  0  0  0  0  0  0  0  0  0  0
   -2.1823    3.7925   -1.8024 H   0  0  0  0  0  0  0  0  0  0  0  0
   -0.5673    3.2185   -1.4024 H   0  0  0  0  0  0  0  0  0  0  0  0
   -1.5019    2.1235    0.7345 H   0  0  0  0  0  0  0  0  0  0  0  0
   -3.0846    2.7782    0.2574 H   0  0  0  0  0  0  0  0  0  0  0  0
   -1.3245    5.0280    0.2951 H   0  0  0  0  0  0  0  0  0  0  0  0
   -3.1859    2.8067    2.2948 H   0  0  0  0  0  0  0  0  0  0  0  0
   -1.1408    6.3668    2.6252 H   0  0  0  0  0  0  0  0  0  0  0  0
   -1.0233    5.1698    3.9443 H   0  0  0  0  0  0  0  0  0  0  0  0
   -1.8410   -3.0483   -2.9011 H   0  0  0  0  0  0  0  0  0  0  0  0
   -3.5836   -2.6651   -3.0960 H   0  0  0  0  0  0  0  0  0  0  0  0
   -2.1001   -4.3268   -1.0648 H   0  0  0  0  0  0  0  0  0  0  0  0
   -3.5784   -4.6709   -1.9972 H   0  0  0  0  0  0  0  0  0  0  0  0
   -5.0331   -3.5869   -0.5737 H   0  0  0  0  0  0  0  0  0  0  0  0
   -3.8023   -4.0759    1.8436 H   0  0  0  0  0  0  0  0  0  0  0  0
   -2.7890   -5.0552    0.7632 H   0  0  0  0  0  0  0  0  0  0  0  0
   -4.5534   -5.3212    0.8123 H   0  0  0  0  0  0  0  0  0  0  0  0
   -2.7976   -2.1675    0.9717 H   0  0  0  0  0  0  0  0  0  0  0  0
   -4.5500   -1.8899    0.9595 H   0  0  0  0  0  0  0  0  0  0  0  0
   -3.1909   -0.1824   -0.1157 H   0  0  0  0  0  0  0  0  0  0  0  0
   -5.9133   -0.9816   -3.1235 H   0  0  0  0  0  0  0  0  0  0  0  0
    5.5901   -1.7338    1.8858 H   0  0  0  0  0  0  0  0  0  0  0  0
    6.7817   -1.2901    0.6534 H   0  0  0  0  0  0  0  0  0  0  0  0
  1  2  1  0
  2  3  1  0
  3  4  1  0
  4  5  1  0
  5  6  2  0
  6  7  1  0
  7  8  2  0
  8  9  1  0
  9 10  2  0
 10 11  1  0
 11 12  2  0
 11 13  2  0
 11 14  1  0
 14 15  1  0
 15 16  1  0
 16 17  1  0
 17 18  1  0
 18 19  1  0
 19 20  1  0
 20 21  2  3
 20 22  1  0
 15 23  1  0
 23 24  2  0
 23 25  1  0
 25 26  1  0
 26 27  1  0
 27 28  1  0
 28 29  1  0
 28 30  1  0
 30 31  1  0
 31 32  1  0
 32 33  2  0
 32 34  1  0
  6 35  1  0
 35  2  1  0
 10  5  1  0
 31 25  1  0
  1 36  1  0
  1 37  1  0
  1 38  1  0
  2 39  1  0
  3 40  1  0
  3 41  1  0
  4 42  1  0
  7 43  1  0
  8 44  1  0
  9 45  1  0
 14 46  1  0
 15 47  1  1
 16 48  1  0
 16 49  1  0
 17 50  1  0
 17 51  1  0
 18 52  1  0
 18 53  1  0
 19 54  1  0
 21 55  1  0
 22 56  1  0
 22 57  1  0
 26 58  1  0
 26 59  1  0
 27 60  1  0
 27 61  1  0
 28 62  1  6
 29 63  1  0
 29 64  1  0
 29 65  1  0
 30 66  1  0
 30 67  1  0
 31 68  1  1
 34 69  1  0
 35 70  1  0
 35 71  1  0
M  END
$$$$
