
     RDKit          3D

 92 93  0  0  0  0  0  0  0  0999 V2000
   -3.1707   -2.9527    1.0922 Cl  0  0  0  0  0  0  0  0  0  0  0  0
   -2.6620   -2.2403    3.8344 C   0  0  0  0  0  0  0  0  0  0  0  0
   -2.8775   -3.7254    3.8318 C   0  0  0  0  0  0  0  0  0  0  0  0
   -2.7555   -4.1699    2.4552 O   0  0  0  0  0  0  0  0  0  0  0  0
   -1.6064   -3.9884    1.7600 C   0  0  0  0  0  0  0  0  0  0  0  0
   -0.9196   -3.4472    2.6354 O   0  0  0  0  0  0  0  0  0  0  0  0
   -0.4511   -3.8434    0.9478 N   0  0  0  0  0  0  0  0  0  0  0  0
    0.8250   -3.2817    1.3118 C   0  0  0  0  0  0  0  0  0  0  0  0
    1.1101   -2.0031    0.5125 C   0  0  0  0  0  0  0  0  0  0  0  0
    0.3384   -2.0157   -0.7179 N   0  0  0  0  0  0  0  0  0  0  0  0
   -0.3788   -3.1159   -1.3349 C   0  0  0  0  0  0  0  0  0  0  0  0
   -0.4944   -4.2890   -0.4335 C   0  0  0  0  0  0  0  0  0  0  0  0
    0.3663   -0.7301   -1.2804 C   0  0  0  0  0  0  0  0  0  0  0  0
    1.0645   -0.0844   -0.4338 O   0  0  0  0  0  0  0  0  0  0  0  0
    0.3674    0.5945   -1.9054 C   0  0  2  0  0  0  0  0  0  0  0  0
    0.9307    0.4660   -3.2930 C   0  0  0  0  0  0  0  0  0  0  0  0
    2.2950   -0.0305   -3.4125 C   0  0  0  0  0  0  0  0  0  0  0  0
    3.3123    0.8951   -3.4345 C   0  0  0  0  0  0  0  0  0  0  0  0
    4.6589    0.5409   -3.5460 C   0  0  0  0  0  0  0  0  0  0  0  0
    4.9438   -0.8114   -3.6353 C   0  0  0  0  0  0  0  0  0  0  0  0
    3.9920   -1.8079   -3.6210 C   0  0  0  0  0  0  0  0  0  0  0  0
    2.7068   -1.3441   -3.5086 C   0  0  0  0  0  0  0  0  0  0  0  0
    4.2620   -3.2387   -3.7054 C   0  0  0  0  0  0  0  0  0  0  0  0
    5.4688   -3.6764   -3.1649 N   0  0  0  0  0  0  0  0  0  0  0  0
    3.4437   -4.1076   -4.2482 N   0  0  0  0  0  0  0  0  0  0  0  0
    1.0467    1.4885   -1.0454 N   0  0  0  0  0  0  0  0  0  0  0  0
    0.2708    2.8772   -0.4951 S   0  0  0  0  0  0  0  0  0  0  0  0
    0.0547    3.7684   -1.7186 O   0  0  0  0  0  0  0  0  0  0  0  0
    1.3544    3.7098    0.2116 O   0  0  0  0  0  0  0  0  0  0  0  0
   -1.1424    2.6713    0.4332 C   0  0  0  0  0  0  0  0  0  0  0  0
   -2.3961    2.7842   -0.0838 C   0  0  0  0  0  0  0  0  0  0  0  0
   -3.5281    2.5971    0.7338 C   0  0  0  0  0  0  0  0  0  0  0  0
   -3.4223    2.2944    2.0770 C   0  0  0  0  0  0  0  0  0  0  0  0
   -2.1516    2.1807    2.5873 C   0  0  0  0  0  0  0  0  0  0  0  0
   -1.0302    2.3675    1.7720 C   0  0  0  0  0  0  0  0  0  0  0  0
    0.2213    2.1952    2.5477 C   0  0  0  0  0  0  0  0  0  0  0  0
    0.3739    3.3552    3.5322 C   0  0  0  0  0  0  0  0  0  0  0  0
    0.2147    0.9279    3.3823 C   0  0  0  0  0  0  0  0  0  0  0  0
   -4.6273    2.1119    2.9433 C   0  0  0  0  0  0  0  0  0  0  0  0
   -4.5883    0.8092    3.6855 C   0  0  0  0  0  0  0  0  0  0  0  0
   -4.6991    3.2853    3.8997 C   0  0  0  0  0  0  0  0  0  0  0  0
   -2.8019    3.0540   -1.4577 C   0  0  0  0  0  0  0  0  0  0  0  0
   -3.4012    1.7606   -2.0307 C   0  0  0  0  0  0  0  0  0  0  0  0
   -3.9290    4.0924   -1.5148 C   0  0  0  0  0  0  0  0  0  0  0  0
   -4.1916   -3.2940    1.9500 H   0  0  0  0  0  0  0  0  0  0  0  0
   -3.4676   -1.7354    4.4375 H   0  0  0  0  0  0  0  0  0  0  0  0
   -2.6715   -1.8308    2.8102 H   0  0  0  0  0  0  0  0  0  0  0  0
   -1.6561   -1.9914    4.2574 H   0  0  0  0  0  0  0  0  0  0  0  0
   -2.0887   -4.2395    4.3960 H   0  0  0  0  0  0  0  0  0  0  0  0
   -3.8873   -3.9874    4.1317 H   0  0  0  0  0  0  0  0  0  0  0  0
    1.5912   -4.0280    0.9961 H   0  0  0  0  0  0  0  0  0  0  0  0
    0.9173   -3.1225    2.3817 H   0  0  0  0  0  0  0  0  0  0  0  0
    0.8845   -1.1662    1.1822 H   0  0  0  0  0  0  0  0  0  0  0  0
    2.1909   -2.0173    0.2183 H   0  0  0  0  0  0  0  0  0  0  0  0
    0.2309   -3.4229   -2.2370 H   0  0  0  0  0  0  0  0  0  0  0  0
   -1.3537   -2.8055   -1.7518 H   0  0  0  0  0  0  0  0  0  0  0  0
    0.3845   -4.9580   -0.6349 H   0  0  0  0  0  0  0  0  0  0  0  0
   -1.4013   -4.8633   -0.6856 H   0  0  0  0  0  0  0  0  0  0  0  0
   -0.6560    1.0021   -2.0643 H   0  0  0  0  0  0  0  0  0  0  0  0
    0.2599   -0.3101   -3.7760 H   0  0  0  0  0  0  0  0  0  0  0  0
    0.8126    1.3676   -3.9039 H   0  0  0  0  0  0  0  0  0  0  0  0
    3.1267    1.9634   -3.3670 H   0  0  0  0  0  0  0  0  0  0  0  0
    5.4259    1.2927   -3.5610 H   0  0  0  0  0  0  0  0  0  0  0  0
    5.9896   -1.1164   -3.7216 H   0  0  0  0  0  0  0  0  0  0  0  0
    1.8971   -2.0910   -3.4909 H   0  0  0  0  0  0  0  0  0  0  0  0
    5.8513   -4.6262   -3.3913 H   0  0  0  0  0  0  0  0  0  0  0  0
    6.3799   -3.9852   -2.7451 H   0  0  0  0  0  0  0  0  0  0  0  0
    3.6616   -5.1023   -4.2930 H   0  0  0  0  0  0  0  0  0  0  0  0
    2.0580    1.6083   -1.2584 H   0  0  0  0  0  0  0  0  0  0  0  0
   -4.5679    2.6726    0.3924 H   0  0  0  0  0  0  0  0  0  0  0  0
   -2.1081    1.9377    3.6639 H   0  0  0  0  0  0  0  0  0  0  0  0
    1.1490    2.2631    1.9293 H   0  0  0  0  0  0  0  0  0  0  0  0
    1.4260    3.6336    3.7057 H   0  0  0  0  0  0  0  0  0  0  0  0
   -0.1352    3.0754    4.4964 H   0  0  0  0  0  0  0  0  0  0  0  0
   -0.1745    4.2228    3.1357 H   0  0  0  0  0  0  0  0  0  0  0  0
   -0.7281    0.3938    3.1029 H   0  0  0  0  0  0  0  0  0  0  0  0
    0.1204    1.1158    4.4722 H   0  0  0  0  0  0  0  0  0  0  0  0
    1.1281    0.3316    3.2487 H   0  0  0  0  0  0  0  0  0  0  0  0
   -5.5604    2.1549    2.3492 H   0  0  0  0  0  0  0  0  0  0  0  0
   -3.7701    0.8327    4.4342 H   0  0  0  0  0  0  0  0  0  0  0  0
   -4.4669    0.0034    2.9356 H   0  0  0  0  0  0  0  0  0  0  0  0
   -5.5780    0.6400    4.1520 H   0  0  0  0  0  0  0  0  0  0  0  0
   -4.1351    3.0841    4.8131 H   0  0  0  0  0  0  0  0  0  0  0  0
   -4.3408    4.1846    3.3470 H   0  0  0  0  0  0  0  0  0  0  0  0
   -5.7553    3.4609    4.1776 H   0  0  0  0  0  0  0  0  0  0  0  0
   -2.0544    3.3561   -2.1720 H   0  0  0  0  0  0  0  0  0  0  0  0
   -3.2970    0.9709   -1.2687 H   0  0  0  0  0  0  0  0  0  0  0  0
   -2.8414    1.4103   -2.9161 H   0  0  0  0  0  0  0  0  0  0  0  0
   -4.4587    1.9080   -2.3456 H   0  0  0  0  0  0  0  0  0  0  0  0
   -3.8234    4.7691   -2.3918 H   0  0  0  0  0  0  0  0  0  0  0  0
   -4.9083    3.5977   -1.5918 H   0  0  0  0  0  0  0  0  0  0  0  0
   -3.9566    4.7178   -0.5943 H   0  0  0  0  0  0  0  0  0  0  0  0
  2  3  1  0
  3  4  1  0
  4  5  1  0
  5  6  2  0
  5  7  1  0
  7  8  1  0
  8  9  1  0
  9 10  1  0
 10 11  1  0
 11 12  1  0
 10 13  1  0
 13 14  2  0
 13 15  1  0
 15 16  1  0
 16 17  1  0
 17 18  2  0
 18 19  1  0
 19 20  2  0
 20 21  1  0
 21 22  2  0
 21 23  1  0
 23 24  1  0
 23 25  2  3
 15 26  1  0
 26 27  1  0
 27 28  2  0
 27 29  2  0
 27 30  1  0
 30 31  2  0
 31 32  1  0
 32 33  2  0
 33 34  1  0
 34 35  2  0
 35 36  1  0
 36 37  1  0
 36 38  1  0
 33 39  1  0
 39 40  1  0
 39 41  1  0
 31 42  1  0
 42 43  1  0
 42 44  1  0
 12  7  1  0
 22 17  1  0
 35 30  1  0
  1 45  1  0
  2 46  1  0
  2 47  1  0
  2 48  1  0
  3 49  1  0
  3 50  1  0
  8 51  1  0
  8 52  1  0
  9 53  1  0
  9 54  1  0
 11 55  1  0
 11 56  1  0
 12 57  1  0
 12 58  1  0
 15 59  1  6
 16 60  1  0
 16 61  1  0
 18 62  1  0
 19 63  1  0
 20 64  1  0
 22 65  1  0
 24 66  1  0
 24 67  1  0
 25 68  1  0
 26 69  1  0
 32 70  1  0
 34 71  1  0
 36 72  1  0
 37 73  1  0
 37 74  1  0
 37 75  1  0
 38 76  1  0
 38 77  1  0
 38 78  1  0
 39 79  1  0
 40 80  1  0
 40 81  1  0
 40 82  1  0
 41 83  1  0
 41 84  1  0
 41 85  1  0
 42 86  1  0
 43 87  1  0
 43 88  1  0
 43 89  1  0
 44 90  1  0
 44 91  1  0
 44 92  1  0
M  END
$$$$
