
     RDKit          3D

 61 63  0  0  0  0  0  0  0  0999 V2000
   -6.7035    2.3670   -1.5365 C   0  0  0  0  0  0  0  0  0  0  0  0
   -6.0534    1.1337   -0.9780 C   0  0  0  0  0  0  0  0  0  0  0  0
   -6.0287    1.2020    0.5352 C   0  0  0  0  0  0  0  0  0  0  0  0
   -5.2505   -0.2749    1.1783 S   0  0  0  0  0  6  0  0  0  0  0  0
   -5.2188   -0.1071    2.6911 O   0  0  0  0  0  0  0  0  0  0  0  0
   -6.0867   -1.4445    0.7857 O   0  0  0  0  0  0  0  0  0  0  0  0
   -3.6487   -0.3828    0.5823 N   0  0  0  0  0  0  0  0  0  0  0  0
   -2.8641    0.7367    1.0120 C   0  0  0  0  0  0  0  0  0  0  0  0
   -1.4392    0.7016    0.5822 C   0  0  0  0  0  0  0  0  0  0  0  0
   -1.0149   -0.4649   -0.0828 N   0  0  0  0  0  0  0  0  0  0  0  0
    0.4648   -0.5949   -0.1253 C   0  0  0  0  0  0  0  0  0  0  0  0
    1.0345    0.6072   -0.7378 C   0  0  0  0  0  0  0  0  0  0  0  0
    2.4129    0.8016   -0.9889 N   0  0  0  0  0  0  0  0  0  0  0  0
    3.5257    0.9369   -0.1536 C   0  0  0  0  0  0  0  0  0  0  0  0
    3.3081    0.8799    1.1111 O   0  0  0  0  0  0  0  0  0  0  0  0
    4.9188    1.1313   -0.4977 C   0  0  0  0  0  0  0  0  0  0  0  0
    5.9321    0.7515    0.3980 C   0  0  0  0  0  0  0  0  0  0  0  0
    5.3812    0.0013    1.8862 Cl  0  0  0  0  0  0  0  0  0  0  0  0
    7.2486    0.9563    0.1186 C   0  0  0  0  0  0  0  0  0  0  0  0
    7.6609    1.5453   -1.0538 C   0  0  0  0  0  0  0  0  0  0  0  0
    6.6953    1.9226   -1.9371 C   0  0  0  0  0  0  0  0  0  0  0  0
    5.3303    1.7130   -1.6510 C   0  0  0  0  0  0  0  0  0  0  0  0
    4.2301    2.3140   -2.8652 Cl  0  0  0  0  0  0  0  0  0  0  0  0
    0.6965   -1.7761   -1.0464 C   0  0  0  0  0  0  0  0  0  0  0  0
    2.1282   -2.1614   -1.1525 C   0  0  0  0  0  0  0  0  0  0  0  0
    2.7997   -2.3814    0.1480 C   0  0  0  0  0  0  0  0  0  0  0  0
    1.9990   -2.0098    1.3255 C   0  0  0  0  0  0  0  0  0  0  0  0
    0.9622   -0.9664    1.2175 C   0  0  0  0  0  0  0  0  0  0  0  0
   -1.6869   -1.6730    0.0949 C   0  0  0  0  0  0  0  0  0  0  0  0
   -3.0326   -1.6439    0.7416 C   0  0  0  0  0  0  0  0  0  0  0  0
   -7.7008    2.5384   -1.0588 H   0  0  0  0  0  0  0  0  0  0  0  0
   -6.9165    2.2268   -2.6284 H   0  0  0  0  0  0  0  0  0  0  0  0
   -6.1099    3.2850   -1.3933 H   0  0  0  0  0  0  0  0  0  0  0  0
   -5.0178    1.0659   -1.3218 H   0  0  0  0  0  0  0  0  0  0  0  0
   -6.6735    0.2714   -1.2661 H   0  0  0  0  0  0  0  0  0  0  0  0
   -7.0868    1.1745    0.8890 H   0  0  0  0  0  0  0  0  0  0  0  0
   -5.5685    2.1094    0.9280 H   0  0  0  0  0  0  0  0  0  0  0  0
   -2.9040    0.7523    2.1302 H   0  0  0  0  0  0  0  0  0  0  0  0
   -3.4041    1.6536    0.6961 H   0  0  0  0  0  0  0  0  0  0  0  0
   -1.3697    1.5354   -0.1887 H   0  0  0  0  0  0  0  0  0  0  0  0
   -0.7747    0.8998    1.4471 H   0  0  0  0  0  0  0  0  0  0  0  0
    0.6197    1.5580   -0.1881 H   0  0  0  0  0  0  0  0  0  0  0  0
    0.5100    0.7886   -1.7430 H   0  0  0  0  0  0  0  0  0  0  0  0
    2.7287    0.8319   -2.0413 H   0  0  0  0  0  0  0  0  0  0  0  0
    7.9992    0.6493    0.8349 H   0  0  0  0  0  0  0  0  0  0  0  0
    8.7099    1.7115   -1.2843 H   0  0  0  0  0  0  0  0  0  0  0  0
    7.0160    2.3886   -2.8651 H   0  0  0  0  0  0  0  0  0  0  0  0
    0.3800   -1.4559   -2.0903 H   0  0  0  0  0  0  0  0  0  0  0  0
    0.1108   -2.6632   -0.8303 H   0  0  0  0  0  0  0  0  0  0  0  0
    2.7104   -1.5217   -1.8588 H   0  0  0  0  0  0  0  0  0  0  0  0
    2.1209   -3.1647   -1.6888 H   0  0  0  0  0  0  0  0  0  0  0  0
    3.1089   -3.4761    0.2833 H   0  0  0  0  0  0  0  0  0  0  0  0
    3.8210   -1.8746    0.1514 H   0  0  0  0  0  0  0  0  0  0  0  0
    1.6330   -2.9607    1.7996 H   0  0  0  0  0  0  0  0  0  0  0  0
    2.7444   -1.6430    2.1094 H   0  0  0  0  0  0  0  0  0  0  0  0
    0.0635   -1.4181    1.8242 H   0  0  0  0  0  0  0  0  0  0  0  0
    1.1904   -0.1082    1.8776 H   0  0  0  0  0  0  0  0  0  0  0  0
   -1.8289   -2.1344   -0.9339 H   0  0  0  0  0  0  0  0  0  0  0  0
   -1.1288   -2.4808    0.6465 H   0  0  0  0  0  0  0  0  0  0  0  0
   -3.0117   -1.9531    1.8101 H   0  0  0  0  0  0  0  0  0  0  0  0
   -3.6721   -2.4067    0.2460 H   0  0  0  0  0  0  0  0  0  0  0  0
  1  2  1  0
  2  3  1  0
  3  4  1  0
  4  5  2  0
  4  6  2  0
  4  7  1  0
  7  8  1  0
  8  9  1  0
  9 10  1  0
 10 11  1  0
 11 12  1  0
 12 13  1  0
 13 14  1  0
 14 15  2  0
 14 16  1  0
 16 17  2  0
 17 18  1  0
 17 19  1  0
 19 20  2  0
 20 21  1  0
 21 22  2  0
 22 23  1  0
 11 24  1  0
 24 25  1  0
 25 26  1  0
 26 27  1  0
 27 28  1  0
 10 29  1  0
 29 30  1  0
 30  7  1  0
 28 11  1  0
 22 16  1  0
  1 31  1  0
  1 32  1  0
  1 33  1  0
  2 34  1  0
  2 35  1  0
  3 36  1  0
  3 37  1  0
  8 38  1  0
  8 39  1  0
  9 40  1  0
  9 41  1  0
 12 42  1  0
 12 43  1  0
 13 44  1  0
 19 45  1  0
 20 46  1  0
 21 47  1  0
 24 48  1  0
 24 49  1  0
 25 50  1  0
 25 51  1  0
 26 52  1  0
 26 53  1  0
 27 54  1  0
 27 55  1  0
 28 56  1  0
 28 57  1  0
 29 58  1  0
 29 59  1  0
 30 60  1  0
 30 61  1  0
M  END
$$$$
