
     RDKit          3D

 71 75  0  0  0  0  0  0  0  0999 V2000
   -9.8634    2.2159    2.0745 N   0  0  0  0  0  0  0  0  0  0  0  0
  -10.4616    2.2602    0.7937 C   0  0  0  0  0  0  0  0  0  0  0  0
  -11.5273    2.9039    0.6050 O   0  0  0  0  0  0  0  0  0  0  0  0
   -9.7675    1.5241   -0.2577 C   0  0  0  0  0  0  0  0  0  0  0  0
   -8.6451    0.8355   -0.0983 N   0  0  0  0  0  0  0  0  0  0  0  0
   -8.0231    0.1638   -1.0857 C   0  0  0  0  0  0  0  0  0  0  0  0
   -8.5517    0.1610   -2.3727 C   0  0  0  0  0  0  0  0  0  0  0  0
   -9.7218    0.8674   -2.5812 C   0  0  0  0  0  0  0  0  0  0  0  0
  -10.3197    1.5392   -1.5359 C   0  0  0  0  0  0  0  0  0  0  0  0
   -6.7906   -0.5314   -0.6846 C   0  0  2  0  0  0  0  0  0  0  0  0
   -5.9615    0.2730    0.1208 O   0  0  0  0  0  0  0  0  0  0  0  0
   -4.8804   -0.5995    0.2761 C   0  0  2  0  0  0  0  0  0  0  0  0
   -3.6826    0.0350    0.9228 C   0  0  0  0  0  0  0  0  0  0  0  0
   -2.6989   -0.9317    1.0128 O   0  0  0  0  0  0  0  0  0  0  0  0
   -1.3033   -0.3160    1.7298 P   0  0  0  0  0  0  0  0  0  0  0  0
   -1.6139    0.4485    3.1864 O   0  0  0  0  0  0  0  0  0  0  0  0
   -0.6994    0.6820    0.7684 O   0  0  0  0  0  0  0  0  0  0  0  0
   -0.1954   -1.5446    2.0179 O   0  0  0  0  0  0  0  0  0  0  0  0
    0.9472   -1.6891    0.7838 P   0  0  0  0  0  0  0  0  0  0  0  0
    1.5331   -3.2764    0.7284 O   0  0  0  0  0  0  0  0  0  0  0  0
    0.2854   -1.4089   -0.5466 O   0  0  0  0  0  0  0  0  0  0  0  0
    2.2059   -0.6387    1.1049 O   0  0  0  0  0  0  0  0  0  0  0  0
    3.4689   -1.1953    0.9172 C   0  0  0  0  0  0  0  0  0  0  0  0
    4.5731   -0.2203    1.2158 C   0  0  1  0  0  0  0  0  0  0  0  0
    5.7940   -0.8549    1.0038 O   0  0  0  0  0  0  0  0  0  0  0  0
    6.6983    0.1533    0.6647 C   0  0  2  0  0  0  0  0  0  0  0  0
    5.9123    0.9714   -0.3224 C   0  0  2  0  0  0  0  0  0  0  0  0
    6.3422    2.2870   -0.3883 O   0  0  0  0  0  0  0  0  0  0  0  0
    4.5162    0.9386    0.2629 C   0  0  2  0  0  0  0  0  0  0  0  0
    4.2833    2.1376    0.9210 O   0  0  0  0  0  0  0  0  0  0  0  0
    7.8780   -0.4374    0.0787 N   0  0  0  0  0  0  0  0  0  0  0  0
    8.2961   -1.7124   -0.0583 C   0  0  0  0  0  0  0  0  0  0  0  0
    9.4926   -1.6960   -0.6935 N   0  0  0  0  0  0  0  0  0  0  0  0
    9.8331   -0.4416   -0.9570 C   0  0  0  0  0  0  0  0  0  0  0  0
    8.8094    0.3675   -0.4681 C   0  0  0  0  0  0  0  0  0  0  0  0
    8.9772    1.6890   -0.6446 N   0  0  0  0  0  0  0  0  0  0  0  0
   10.0520    2.1911   -1.2474 C   0  0  0  0  0  0  0  0  0  0  0  0
   11.0477    1.4379   -1.7252 N   0  0  0  0  0  0  0  0  0  0  0  0
   10.9576    0.0936   -1.5883 C   0  0  0  0  0  0  0  0  0  0  0  0
   11.9682   -0.7880   -2.0655 N   0  0  0  0  0  0  0  0  0  0  0  0
   -4.5693   -1.1394   -1.0931 C   0  0  1  0  0  0  0  0  0  0  0  0
   -4.4498   -2.5363   -0.9459 O   0  0  0  0  0  0  0  0  0  0  0  0
   -5.8545   -0.8123   -1.8447 C   0  0  1  0  0  0  0  0  0  0  0  0
   -6.2817   -1.8948   -2.6089 O   0  0  0  0  0  0  0  0  0  0  0  0
   -9.5882    2.8005    2.8783 H   0  0  0  0  0  0  0  0  0  0  0  0
   -9.5962    2.8398    2.8750 H   0  0  0  0  0  0  0  0  0  0  0  0
   -8.0104   -0.3941   -3.1225 H   0  0  0  0  0  0  0  0  0  0  0  0
  -10.1411    0.8674   -3.5944 H   0  0  0  0  0  0  0  0  0  0  0  0
  -11.2364    2.0941   -1.6936 H   0  0  0  0  0  0  0  0  0  0  0  0
   -6.9555   -1.4687   -0.1225 H   0  0  0  0  0  0  0  0  0  0  0  0
   -5.2735   -1.4016    0.9611 H   0  0  0  0  0  0  0  0  0  0  0  0
   -3.3238    0.8688    0.2683 H   0  0  0  0  0  0  0  0  0  0  0  0
   -3.9916    0.4417    1.9009 H   0  0  0  0  0  0  0  0  0  0  0  0
   -2.2391   -0.0775    3.7443 H   0  0  0  0  0  0  0  0  0  0  0  0
    1.1393   -3.7806   -0.0280 H   0  0  0  0  0  0  0  0  0  0  0  0
    3.6175   -2.1299    1.4968 H   0  0  0  0  0  0  0  0  0  0  0  0
    3.5342   -1.4488   -0.1596 H   0  0  0  0  0  0  0  0  0  0  0  0
    4.4656    0.1086    2.2823 H   0  0  0  0  0  0  0  0  0  0  0  0
    6.9483    0.7815    1.5625 H   0  0  0  0  0  0  0  0  0  0  0  0
    5.9102    0.4758   -1.3160 H   0  0  0  0  0  0  0  0  0  0  0  0
    5.5408    2.8478   -0.5255 H   0  0  0  0  0  0  0  0  0  0  0  0
    3.7876    0.7551   -0.5556 H   0  0  0  0  0  0  0  0  0  0  0  0
    3.8279    2.0373    1.7803 H   0  0  0  0  0  0  0  0  0  0  0  0
    7.7077   -2.5510    0.3090 H   0  0  0  0  0  0  0  0  0  0  0  0
   10.1809    3.2692   -1.3871 H   0  0  0  0  0  0  0  0  0  0  0  0
   12.6580   -1.3108   -1.4806 H   0  0  0  0  0  0  0  0  0  0  0  0
   12.2148   -1.0777   -3.0442 H   0  0  0  0  0  0  0  0  0  0  0  0
   -3.6768   -0.6883   -1.5589 H   0  0  0  0  0  0  0  0  0  0  0  0
   -3.8698   -2.7020   -0.1380 H   0  0  0  0  0  0  0  0  0  0  0  0
   -5.6423    0.0853   -2.4287 H   0  0  0  0  0  0  0  0  0  0  0  0
   -5.9976   -2.7534   -2.1990 H   0  0  0  0  0  0  0  0  0  0  0  0
  1  2  1  0
  2  3  2  0
  2  4  1  0
  4  5  2  0
  5  6  1  0
  6  7  2  0
  7  8  1  0
  8  9  2  0
  6 10  1  0
 10 11  1  0
 11 12  1  0
 12 13  1  0
 13 14  1  0
 14 15  1  0
 15 16  1  0
 15 17  2  0
 15 18  1  0
 18 19  1  0
 19 20  1  0
 19 21  2  0
 19 22  1  0
 22 23  1  0
 23 24  1  0
 24 25  1  0
 25 26  1  0
 26 27  1  0
 27 28  1  0
 27 29  1  0
 29 30  1  0
 26 31  1  0
 31 32  1  0
 32 33  2  0
 33 34  1  0
 34 35  2  0
 35 36  1  0
 36 37  2  0
 37 38  1  0
 38 39  2  0
 39 40  1  0
 12 41  1  0
 41 42  1  0
 41 43  1  0
 43 44  1  0
  9  4  1  0
 43 10  1  0
 29 24  1  0
 35 31  1  0
 39 34  1  0
  1 45  1  0
  1 46  1  0
  7 47  1  0
  8 48  1  0
  9 49  1  0
 10 50  1  1
 12 51  1  1
 13 52  1  0
 13 53  1  0
 16 54  1  0
 20 55  1  0
 23 56  1  0
 23 57  1  0
 24 58  1  1
 26 59  1  1
 27 60  1  6
 28 61  1  0
 29 62  1  6
 30 63  1  0
 32 64  1  0
 37 65  1  0
 40 66  1  0
 40 67  1  0
 41 68  1  6
 42 69  1  0
 43 70  1  6
 44 71  1  0
M  END
$$$$
