
     RDKit          3D

 79 83  0  0  0  0  0  0  0  0999 V2000
    8.7197    2.0466    2.2925 C   0  0  0  0  0  0  0  0  0  0  0  0
    7.5031    2.4388    1.5219 C   0  0  0  0  0  0  0  0  0  0  0  0
    7.5534    3.5127    0.8789 O   0  0  0  0  0  0  0  0  0  0  0  0
    6.3733    1.5948    1.5540 N   0  0  0  0  0  0  0  0  0  0  0  0
    5.1951    1.9780    0.7982 C   0  0  0  0  0  0  0  0  0  0  0  0
    4.9796    0.9222   -0.2675 C   0  0  0  0  0  0  0  0  0  0  0  0
    5.1791   -0.4400    0.3071 C   0  0  0  0  0  0  0  0  0  0  0  0
    4.3045   -1.4141   -0.3352 C   0  0  0  0  0  0  0  0  0  0  0  0
    4.8959   -2.3092   -1.0334 O   0  0  0  0  0  0  0  0  0  0  0  0
    2.9082   -1.5085   -0.2942 N   0  0  0  0  0  0  0  0  0  0  0  0
    2.1062   -2.4996   -0.9713 C   0  0  0  0  0  0  0  0  0  0  0  0
    0.6723   -2.0191   -0.9264 C   0  0  2  0  0  0  0  0  0  0  0  0
   -0.1141   -2.3002   -2.1098 C   0  0  0  0  0  0  0  0  0  0  0  0
   -0.1863   -1.4386   -3.1745 C   0  0  0  0  0  0  0  0  0  0  0  0
   -0.9541   -1.7370   -4.3071 C   0  0  0  0  0  0  0  0  0  0  0  0
   -1.6559   -2.9125   -4.3699 C   0  0  0  0  0  0  0  0  0  0  0  0
   -2.4040   -3.1936   -5.4833 F   0  0  0  0  0  0  0  0  0  0  0  0
   -1.6020   -3.7863   -3.3269 C   0  0  0  0  0  0  0  0  0  0  0  0
   -0.8297   -3.4742   -2.2005 C   0  0  0  0  0  0  0  0  0  0  0  0
   -0.7952   -4.4590   -1.0741 C   0  0  0  0  0  0  0  0  0  0  0  0
    0.8598   -0.5731   -0.5717 C   0  0  1  0  0  0  0  0  0  0  0  0
   -0.3769   -0.0678    0.0670 C   0  0  0  0  0  0  0  0  0  0  0  0
   -1.1478    0.9234   -0.4145 N   0  0  0  0  0  0  0  0  0  0  0  0
   -2.1896    1.1545    0.3813 C   0  0  0  0  0  0  0  0  0  0  0  0
   -3.3105    2.1275    0.2756 C   0  0  0  0  0  0  0  0  0  0  0  0
   -2.9603    3.4113    1.0137 C   0  0  0  0  0  0  0  0  0  0  0  0
   -3.4471    2.5384   -1.1882 C   0  0  0  0  0  0  0  0  0  0  0  0
   -4.5886    1.5629    0.7143 C   0  0  0  0  0  0  0  0  0  0  0  0
   -4.8483    1.2202    2.0297 C   0  0  0  0  0  0  0  0  0  0  0  0
   -6.0552    0.6971    2.3951 C   0  0  0  0  0  0  0  0  0  0  0  0
   -6.3711    0.3173    3.8046 C   0  0  0  0  0  0  0  0  0  0  0  0
   -5.4345    0.7740    4.6800 F   0  0  0  0  0  0  0  0  0  0  0  0
   -6.6355   -1.0369    3.9239 F   0  0  0  0  0  0  0  0  0  0  0  0
   -7.5697    0.9741    4.1143 F   0  0  0  0  0  0  0  0  0  0  0  0
   -7.0396    0.5016    1.4515 C   0  0  0  0  0  0  0  0  0  0  0  0
   -6.8281    0.8241    0.1465 C   0  0  0  0  0  0  0  0  0  0  0  0
   -7.9150    0.5971   -0.8410 C   0  0  0  0  0  0  0  0  0  0  0  0
   -7.4279    0.5035   -2.1395 F   0  0  0  0  0  0  0  0  0  0  0  0
   -8.8798    1.5771   -0.7799 F   0  0  0  0  0  0  0  0  0  0  0  0
   -8.4735   -0.6527   -0.5488 F   0  0  0  0  0  0  0  0  0  0  0  0
   -5.5866    1.3566   -0.1984 C   0  0  0  0  0  0  0  0  0  0  0  0
   -2.0467    0.2569    1.4017 N   0  0  0  0  0  0  0  0  0  0  0  0
   -0.9567   -0.4508    1.1767 O   0  0  0  0  0  0  0  0  0  0  0  0
    2.0023   -0.6704    0.4269 C   0  0  0  0  0  0  0  0  0  0  0  0
    5.0829   -0.4178    1.8160 C   0  0  0  0  0  0  0  0  0  0  0  0
    6.3202    0.3593    2.2985 C   0  0  0  0  0  0  0  0  0  0  0  0
    9.6117    2.6176    2.0144 H   0  0  0  0  0  0  0  0  0  0  0  0
    8.4824    2.1069    3.3689 H   0  0  0  0  0  0  0  0  0  0  0  0
    8.9309    0.9895    2.0066 H   0  0  0  0  0  0  0  0  0  0  0  0
    4.3277    2.0789    1.4592 H   0  0  0  0  0  0  0  0  0  0  0  0
    5.3697    2.9369    0.2422 H   0  0  0  0  0  0  0  0  0  0  0  0
    3.9977    1.0454   -0.7250 H   0  0  0  0  0  0  0  0  0  0  0  0
    5.7544    1.0521   -1.0914 H   0  0  0  0  0  0  0  0  0  0  0  0
    6.2541   -0.7529    0.1101 H   0  0  0  0  0  0  0  0  0  0  0  0
    2.4414   -2.7101   -2.0061 H   0  0  0  0  0  0  0  0  0  0  0  0
    2.2479   -3.4662   -0.4207 H   0  0  0  0  0  0  0  0  0  0  0  0
    0.2392   -2.4970    0.0053 H   0  0  0  0  0  0  0  0  0  0  0  0
    0.3658   -0.5162   -3.1267 H   0  0  0  0  0  0  0  0  0  0  0  0
   -0.9701   -1.0191   -5.1127 H   0  0  0  0  0  0  0  0  0  0  0  0
   -2.1275   -4.7151   -3.3204 H   0  0  0  0  0  0  0  0  0  0  0  0
   -1.4957   -5.2996   -1.2871 H   0  0  0  0  0  0  0  0  0  0  0  0
   -1.0810   -4.0405   -0.1127 H   0  0  0  0  0  0  0  0  0  0  0  0
    0.2258   -4.9233   -1.0807 H   0  0  0  0  0  0  0  0  0  0  0  0
    1.1854    0.0520   -1.3982 H   0  0  0  0  0  0  0  0  0  0  0  0
   -3.7244    4.1616    0.7393 H   0  0  0  0  0  0  0  0  0  0  0  0
   -1.9919    3.7626    0.5981 H   0  0  0  0  0  0  0  0  0  0  0  0
   -2.9501    3.2956    2.1007 H   0  0  0  0  0  0  0  0  0  0  0  0
   -4.2987    3.2460   -1.3162 H   0  0  0  0  0  0  0  0  0  0  0  0
   -2.5260    3.0637   -1.5121 H   0  0  0  0  0  0  0  0  0  0  0  0
   -3.5365    1.6513   -1.8596 H   0  0  0  0  0  0  0  0  0  0  0  0
   -4.0652    1.3810    2.7529 H   0  0  0  0  0  0  0  0  0  0  0  0
   -8.0073    0.0801    1.7477 H   0  0  0  0  0  0  0  0  0  0  0  0
   -5.4827    1.5928   -1.2569 H   0  0  0  0  0  0  0  0  0  0  0  0
    1.5913   -1.2609    1.2999 H   0  0  0  0  0  0  0  0  0  0  0  0
    2.3604    0.3017    0.7439 H   0  0  0  0  0  0  0  0  0  0  0  0
    4.2246    0.1802    2.1631 H   0  0  0  0  0  0  0  0  0  0  0  0
    5.1457   -1.4305    2.2434 H   0  0  0  0  0  0  0  0  0  0  0  0
    7.2182   -0.2706    2.0377 H   0  0  0  0  0  0  0  0  0  0  0  0
    6.2573    0.4972    3.3930 H   0  0  0  0  0  0  0  0  0  0  0  0
  1  2  1  0
  2  3  2  0
  2  4  1  0
  4  5  1  0
  5  6  1  0
  6  7  1  0
  7  8  1  0
  8  9  2  0
  8 10  1  0
 10 11  1  0
 11 12  1  0
 12 13  1  0
 13 14  2  0
 14 15  1  0
 15 16  2  0
 16 17  1  0
 16 18  1  0
 18 19  2  0
 19 20  1  0
 12 21  1  0
 21 22  1  0
 22 23  2  0
 23 24  1  0
 24 25  1  0
 25 26  1  0
 25 27  1  0
 25 28  1  0
 28 29  2  0
 29 30  1  0
 30 31  1  0
 31 32  1  0
 31 33  1  0
 31 34  1  0
 30 35  2  0
 35 36  1  0
 36 37  1  0
 37 38  1  0
 37 39  1  0
 37 40  1  0
 36 41  2  0
 24 42  2  0
 42 43  1  0
 21 44  1  0
  7 45  1  0
 45 46  1  0
 46  4  1  0
 44 10  1  0
 19 13  1  0
 43 22  1  0
 41 28  1  0
  1 47  1  0
  1 48  1  0
  1 49  1  0
  5 50  1  0
  5 51  1  0
  6 52  1  0
  6 53  1  0
  7 54  1  0
 11 55  1  0
 11 56  1  0
 12 57  1  1
 14 58  1  0
 15 59  1  0
 18 60  1  0
 20 61  1  0
 20 62  1  0
 20 63  1  0
 21 64  1  6
 26 65  1  0
 26 66  1  0
 26 67  1  0
 27 68  1  0
 27 69  1  0
 27 70  1  0
 29 71  1  0
 35 72  1  0
 41 73  1  0
 44 74  1  0
 44 75  1  0
 45 76  1  0
 45 77  1  0
 46 78  1  0
 46 79  1  0
M  END
$$$$
