
     RDKit          3D

 54 58  0  0  0  0  0  0  0  0999 V2000
   10.2183   -3.7669   -0.5840 C   0  0  0  0  0  0  0  0  0  0  0  0
    9.5443   -2.4413   -0.2682 C   0  0  0  0  0  0  0  0  0  0  0  0
    9.0576   -1.4607   -0.0247 C   0  0  0  0  0  0  0  0  0  0  0  0
    8.4364   -0.2066    0.2920 C   0  0  0  0  0  0  0  0  0  0  0  0
    7.0455   -0.0830    0.2693 O   0  0  0  0  0  0  0  0  0  0  0  0
    5.8811   -0.0747    0.3453 C   0  0  0  0  0  0  0  0  0  0  0  0
    5.0847    0.8240   -0.4944 C   0  0  0  0  0  0  0  0  0  0  0  0
    3.7842    0.9110   -0.4655 N   0  0  0  0  0  0  0  0  0  0  0  0
    3.0204    0.1615    0.3691 C   0  0  0  0  0  0  0  0  0  0  0  0
    1.5889    0.3938    0.4929 C   0  0  0  0  0  0  0  0  0  0  0  0
    0.9916   -0.2384    1.4215 O   0  0  0  0  0  0  0  0  0  0  0  0
    0.7908    1.2469   -0.2806 N   0  0  0  0  0  0  0  0  0  0  0  0
   -0.5715    1.5298   -0.0501 C   0  0  0  0  0  0  0  0  0  0  0  0
   -0.7768    2.8321    0.4443 C   0  0  0  0  0  0  0  0  0  0  0  0
   -2.0103    3.3146    0.8046 C   0  0  0  0  0  0  0  0  0  0  0  0
   -3.0716    2.4435    0.6677 C   0  0  0  0  0  0  0  0  0  0  0  0
   -2.9654    1.1396    0.1881 C   0  0  0  0  0  0  0  0  0  0  0  0
   -1.6697    0.7419   -0.1585 C   0  0  0  0  0  0  0  0  0  0  0  0
   -4.1086    0.2043    0.0784 C   0  0  0  0  0  0  0  0  0  0  0  0
   -3.8551   -0.9928    1.0195 C   0  0  0  0  0  0  0  0  0  0  0  0
   -3.4011   -2.2191    0.2721 C   0  0  0  0  0  0  0  0  0  0  0  0
   -3.5302   -2.1748   -1.0929 O   0  0  0  0  0  0  0  0  0  0  0  0
   -4.1864   -1.3093   -1.8664 C   0  0  0  0  0  0  0  0  0  0  0  0
   -4.6889   -1.3336   -3.1633 N   0  0  0  0  0  0  0  0  0  0  0  0
   -4.4512   -0.1300   -1.2439 N   0  0  0  0  0  0  0  0  0  0  0  0
   -5.3860    0.8536    0.5946 C   0  0  0  0  0  0  0  0  0  0  0  0
   -6.5409    0.1289    0.6115 C   0  0  0  0  0  0  0  0  0  0  0  0
   -7.7230    0.6680    1.0409 C   0  0  0  0  0  0  0  0  0  0  0  0
   -9.1868   -0.2297    1.1034 Cl  0  0  0  0  0  0  0  0  0  0  0  0
   -7.7266    1.9787    1.4735 N   0  0  0  0  0  0  0  0  0  0  0  0
   -6.6359    2.7005    1.4724 C   0  0  0  0  0  0  0  0  0  0  0  0
   -6.6716    3.9876    1.8896 F   0  0  0  0  0  0  0  0  0  0  0  0
   -5.4391    2.1257    1.0265 C   0  0  0  0  0  0  0  0  0  0  0  0
   -4.3197    2.8866    1.0594 O   0  0  0  0  0  0  0  0  0  0  0  0
    3.7180   -0.6861    1.1559 C   0  0  0  0  0  0  0  0  0  0  0  0
    5.0224   -0.8239    1.1709 N   0  0  0  0  0  0  0  0  0  0  0  0
   10.8548   -3.9501    0.3321 H   0  0  0  0  0  0  0  0  0  0  0  0
   10.8589   -3.6514   -1.4464 H   0  0  0  0  0  0  0  0  0  0  0  0
    9.4422   -4.5016   -0.7361 H   0  0  0  0  0  0  0  0  0  0  0  0
    8.7387    0.1072    1.3453 H   0  0  0  0  0  0  0  0  0  0  0  0
    8.8204    0.5854   -0.4465 H   0  0  0  0  0  0  0  0  0  0  0  0
    5.7318    1.4212   -1.1498 H   0  0  0  0  0  0  0  0  0  0  0  0
    1.2946    1.7100   -1.1175 H   0  0  0  0  0  0  0  0  0  0  0  0
    0.0775    3.5136    0.5626 H   0  0  0  0  0  0  0  0  0  0  0  0
   -2.1674    4.3287    1.1662 H   0  0  0  0  0  0  0  0  0  0  0  0
   -1.5394   -0.2664   -0.5534 H   0  0  0  0  0  0  0  0  0  0  0  0
   -4.7185   -1.1735    1.6525 H   0  0  0  0  0  0  0  0  0  0  0  0
   -2.9741   -0.6959    1.6720 H   0  0  0  0  0  0  0  0  0  0  0  0
   -3.9579   -3.0837    0.7448 H   0  0  0  0  0  0  0  0  0  0  0  0
   -2.2912   -2.3709    0.4805 H   0  0  0  0  0  0  0  0  0  0  0  0
   -5.7549   -1.2383   -3.2981 H   0  0  0  0  0  0  0  0  0  0  0  0
   -4.1515   -1.4160   -4.0599 H   0  0  0  0  0  0  0  0  0  0  0  0
   -6.6015   -0.9148    0.2724 H   0  0  0  0  0  0  0  0  0  0  0  0
    3.0695   -1.3052    1.8493 H   0  0  0  0  0  0  0  0  0  0  0  0
  1  2  1  0
  2  3  3  0
  3  4  1  0
  4  5  1  0
  5  6  1  0
  6  7  2  0
  7  8  1  0
  8  9  2  0
  9 10  1  0
 10 11  2  0
 10 12  1  0
 12 13  1  0
 13 14  2  0
 14 15  1  0
 15 16  2  0
 16 17  1  0
 17 18  2  0
 17 19  1  0
 19 20  1  0
 20 21  1  0
 21 22  1  0
 22 23  1  0
 23 24  1  0
 23 25  2  0
 19 26  1  0
 26 27  2  0
 27 28  1  0
 28 29  1  0
 28 30  2  0
 30 31  1  0
 31 32  1  0
 31 33  2  0
 33 34  1  0
  9 35  1  0
 35 36  2  0
 36  6  1  0
 18 13  1  0
 25 19  1  0
 33 26  1  0
 34 16  1  0
  1 37  1  0
  1 38  1  0
  1 39  1  0
  4 40  1  0
  4 41  1  0
  7 42  1  0
 12 43  1  0
 14 44  1  0
 15 45  1  0
 18 46  1  0
 20 47  1  0
 20 48  1  0
 21 49  1  0
 21 50  1  0
 24 51  1  0
 24 52  1  0
 27 53  1  0
 35 54  1  0
M  END
$$$$
