
     RDKit          3D

 77 80  0  0  0  0  0  0  0  0999 V2000
    0.8012   -2.8776   -4.2207 C   0  0  0  0  0  0  0  0  0  0  0  0
    1.8023   -2.4495   -3.2178 C   0  0  0  0  0  0  0  0  0  0  0  0
    2.5540   -3.3949   -2.8058 O   0  0  0  0  0  0  0  0  0  0  0  0
    2.0088   -1.1455   -2.6839 N   0  0  0  0  0  0  0  0  0  0  0  0
    3.0523   -0.8868   -1.6877 C   0  0  1  0  0  0  0  0  0  0  0  0
    4.0535    0.1028   -2.1779 C   0  0  0  0  0  0  0  0  0  0  0  0
    5.0883    0.3431   -1.1445 C   0  0  0  0  0  0  0  0  0  0  0  0
    6.2526   -0.4067   -1.0105 C   0  0  0  0  0  0  0  0  0  0  0  0
    7.1540   -0.0924   -0.0179 C   0  0  0  0  0  0  0  0  0  0  0  0
    6.9203    0.9540    0.8454 C   0  0  0  0  0  0  0  0  0  0  0  0
    7.7694    1.3470    1.8762 O   0  0  0  0  0  0  0  0  0  0  0  0
    9.2205    0.4618    2.0834 P   0  0  0  0  0  0  0  0  0  0  0  0
   10.0474    0.9968    3.4614 O   0  0  0  0  0  0  0  0  0  0  0  0
   10.1492    0.6739    0.6763 O   0  0  0  0  0  0  0  0  0  0  0  0
    8.9213   -1.0237    2.2574 O   0  0  0  0  0  0  0  0  0  0  0  0
    5.7669    1.7317    0.7474 C   0  0  0  0  0  0  0  0  0  0  0  0
    5.4771    2.8628    1.6507 C   0  0  0  0  0  0  0  0  0  0  0  0
    4.4081    3.5380    1.5143 O   0  0  0  0  0  0  0  0  0  0  0  0
    4.8561    1.4065   -0.2637 C   0  0  0  0  0  0  0  0  0  0  0  0
    2.4816   -0.5054   -0.3985 C   0  0  0  0  0  0  0  0  0  0  0  0
    2.8749   -0.2030    0.7773 O   0  0  0  0  0  0  0  0  0  0  0  0
    1.0435   -0.4099   -0.3128 N   0  0  0  0  0  0  0  0  0  0  0  0
    0.2594   -0.0611    0.8231 C   0  0  1  0  0  0  0  0  0  0  0  0
   -0.5206    1.2246    0.6377 C   0  0  0  0  0  0  0  0  0  0  0  0
   -0.7940    1.8803    1.9704 C   0  0  0  0  0  0  0  0  0  0  0  0
   -1.9760    1.3391    2.6993 C   0  0  0  0  0  0  0  0  0  0  0  0
   -1.7347   -0.0294    3.3037 C   0  0  0  0  0  0  0  0  0  0  0  0
   -1.6987   -1.0258    2.2222 N   0  0  0  0  0  0  0  0  0  0  0  0
   -2.7965   -1.9872    2.2350 C   0  0  0  0  0  0  0  0  0  0  0  0
   -3.9524   -1.4937    1.4478 C   0  0  0  0  0  0  0  0  0  0  0  0
   -4.1827   -1.7047    0.1126 C   0  0  0  0  0  0  0  0  0  0  0  0
   -5.3103   -1.1670   -0.4727 C   0  0  0  0  0  0  0  0  0  0  0  0
   -6.2526   -0.4099    0.2049 C   0  0  0  0  0  0  0  0  0  0  0  0
   -6.0194   -0.1988    1.5481 C   0  0  0  0  0  0  0  0  0  0  0  0
   -4.8961   -0.7302    2.1467 C   0  0  0  0  0  0  0  0  0  0  0  0
   -7.4365    0.1509   -0.4356 C   0  0  0  0  0  0  0  0  0  0  0  0
   -7.8903    1.3599    0.1038 C   0  0  0  0  0  0  0  0  0  0  0  0
   -9.0120    1.9887   -0.4280 C   0  0  0  0  0  0  0  0  0  0  0  0
   -9.7103    1.4507   -1.4934 C   0  0  0  0  0  0  0  0  0  0  0  0
   -9.2416    0.2602   -2.0043 C   0  0  0  0  0  0  0  0  0  0  0  0
   -8.1321   -0.3864   -1.4979 C   0  0  0  0  0  0  0  0  0  0  0  0
   -0.7148   -1.1149    1.2053 C   0  0  0  0  0  0  0  0  0  0  0  0
   -0.7115   -2.2352    0.5889 O   0  0  0  0  0  0  0  0  0  0  0  0
    0.3857   -3.8831   -3.9283 H   0  0  0  0  0  0  0  0  0  0  0  0
    1.2647   -2.8954   -5.2243 H   0  0  0  0  0  0  0  0  0  0  0  0
   -0.0716   -2.1914   -4.1888 H   0  0  0  0  0  0  0  0  0  0  0  0
    1.3654   -0.4243   -3.0613 H   0  0  0  0  0  0  0  0  0  0  0  0
    3.5494   -1.8924   -1.5400 H   0  0  0  0  0  0  0  0  0  0  0  0
    3.5445    1.0512   -2.4465 H   0  0  0  0  0  0  0  0  0  0  0  0
    4.5447   -0.2403   -3.1113 H   0  0  0  0  0  0  0  0  0  0  0  0
    6.4100   -1.2241   -1.7025 H   0  0  0  0  0  0  0  0  0  0  0  0
    8.0693   -0.6579    0.1123 H   0  0  0  0  0  0  0  0  0  0  0  0
   10.9643    0.6148    3.3778 H   0  0  0  0  0  0  0  0  0  0  0  0
    9.9563    1.5523    0.2762 H   0  0  0  0  0  0  0  0  0  0  0  0
    6.2113    3.0745    2.4144 H   0  0  0  0  0  0  0  0  0  0  0  0
    3.9634    2.0516   -0.3058 H   0  0  0  0  0  0  0  0  0  0  0  0
    0.3507   -0.5894   -1.1003 H   0  0  0  0  0  0  0  0  0  0  0  0
    0.8966    0.1243    1.7366 H   0  0  0  0  0  0  0  0  0  0  0  0
   -1.4514    1.0324    0.0888 H   0  0  0  0  0  0  0  0  0  0  0  0
    0.1029    1.9001    0.0193 H   0  0  0  0  0  0  0  0  0  0  0  0
   -1.0346    2.9556    1.7382 H   0  0  0  0  0  0  0  0  0  0  0  0
    0.1172    1.9238    2.5821 H   0  0  0  0  0  0  0  0  0  0  0  0
   -2.8512    1.3479    2.0210 H   0  0  0  0  0  0  0  0  0  0  0  0
   -2.1873    2.0172    3.5426 H   0  0  0  0  0  0  0  0  0  0  0  0
   -2.4391   -0.2694    4.0937 H   0  0  0  0  0  0  0  0  0  0  0  0
   -0.7126   -0.0104    3.7361 H   0  0  0  0  0  0  0  0  0  0  0  0
   -3.0791   -2.0982    3.3006 H   0  0  0  0  0  0  0  0  0  0  0  0
   -2.4402   -2.9446    1.8543 H   0  0  0  0  0  0  0  0  0  0  0  0
   -3.4611   -2.2869   -0.4143 H   0  0  0  0  0  0  0  0  0  0  0  0
   -5.5037   -1.3310   -1.5399 H   0  0  0  0  0  0  0  0  0  0  0  0
   -6.7238    0.3898    2.1456 H   0  0  0  0  0  0  0  0  0  0  0  0
   -4.7650   -0.5314    3.2094 H   0  0  0  0  0  0  0  0  0  0  0  0
   -7.4485    1.8905    0.9277 H   0  0  0  0  0  0  0  0  0  0  0  0
   -9.3904    2.9323   -0.0300 H   0  0  0  0  0  0  0  0  0  0  0  0
  -10.5824    1.9735   -1.8800 H   0  0  0  0  0  0  0  0  0  0  0  0
   -9.7826   -0.1764   -2.8462 H   0  0  0  0  0  0  0  0  0  0  0  0
   -7.7511   -1.3185   -1.8845 H   0  0  0  0  0  0  0  0  0  0  0  0
  1  2  1  0
  2  3  2  0
  2  4  1  0
  4  5  1  0
  5  6  1  0
  6  7  1  0
  7  8  2  0
  8  9  1  0
  9 10  2  0
 10 11  1  0
 11 12  1  0
 12 13  1  0
 12 14  1  0
 12 15  2  0
 10 16  1  0
 16 17  1  0
 17 18  2  0
 16 19  2  0
  5 20  1  0
 20 21  2  0
 20 22  1  0
 22 23  1  0
 23 24  1  0
 24 25  1  0
 25 26  1  0
 26 27  1  0
 27 28  1  0
 28 29  1  0
 29 30  1  0
 30 31  2  0
 31 32  1  0
 32 33  2  0
 33 34  1  0
 34 35  2  0
 33 36  1  0
 36 37  2  0
 37 38  1  0
 38 39  2  0
 39 40  1  0
 40 41  2  0
 28 42  1  0
 42 43  2  0
 19  7  1  0
 42 23  1  0
 35 30  1  0
 41 36  1  0
  1 44  1  0
  1 45  1  0
  1 46  1  0
  4 47  1  0
  5 48  1  1
  6 49  1  0
  6 50  1  0
  8 51  1  0
  9 52  1  0
 13 53  1  0
 14 54  1  0
 17 55  1  0
 19 56  1  0
 22 57  1  0
 23 58  1  1
 24 59  1  0
 24 60  1  0
 25 61  1  0
 25 62  1  0
 26 63  1  0
 26 64  1  0
 27 65  1  0
 27 66  1  0
 29 67  1  0
 29 68  1  0
 31 69  1  0
 32 70  1  0
 34 71  1  0
 35 72  1  0
 37 73  1  0
 38 74  1  0
 39 75  1  0
 40 76  1  0
 41 77  1  0
M  END
$$$$
