
     RDKit          3D

 42 45  0  0  0  0  0  0  0  0999 V2000
   -6.7702   -1.4479    1.5005 C   0  0  0  0  0  0  0  0  0  0  0  0
   -5.3894   -1.0706    1.0530 C   0  0  0  0  0  0  0  0  0  0  0  0
   -4.5537   -1.9827    0.4603 C   0  0  0  0  0  0  0  0  0  0  0  0
   -3.2664   -1.6178    0.0519 C   0  0  0  0  0  0  0  0  0  0  0  0
   -2.8306   -0.3299    0.2463 C   0  0  0  0  0  0  0  0  0  0  0  0
   -1.5194    0.0417   -0.1661 N   0  0  0  0  0  0  0  0  0  0  0  0
   -0.4607   -0.1349    0.5745 N   0  0  0  0  0  0  0  0  0  0  0  0
    0.8230    0.2129    0.2220 C   0  0  0  0  0  0  0  0  0  0  0  0
    1.8524   -0.0338    1.1082 N   0  0  0  0  0  0  0  0  0  0  0  0
    3.2175    0.1429    1.1903 C   0  0  0  0  0  0  0  0  0  0  0  0
    4.1686   -0.8192    0.8243 C   0  0  0  0  0  0  0  0  0  0  0  0
    5.4330   -0.3364    1.0649 C   0  0  0  0  0  0  0  0  0  0  0  0
    6.7333   -1.0475    0.8112 C   0  0  0  0  0  0  0  0  0  0  0  0
    5.2431    0.8862    1.5640 N   0  0  0  0  0  0  0  0  0  0  0  0
    3.9625    1.1854    1.6460 N   0  0  0  0  0  0  0  0  0  0  0  0
    0.9707    0.7872   -1.0075 C   0  0  0  0  0  0  0  0  0  0  0  0
    2.2235    1.1762   -1.4551 C   0  0  0  0  0  0  0  0  0  0  0  0
    2.3166    1.7577   -2.7138 C   0  0  0  0  0  0  0  0  0  0  0  0
    1.2318    1.9676   -3.5377 C   0  0  0  0  0  0  0  0  0  0  0  0
   -0.0120    1.5734   -3.0745 C   0  0  0  0  0  0  0  0  0  0  0  0
   -0.1119    0.9992   -1.8344 C   0  0  0  0  0  0  0  0  0  0  0  0
   -1.3804    0.6051   -1.3746 C   0  0  0  0  0  0  0  0  0  0  0  0
   -2.3751    0.7821   -2.0961 O   0  0  0  0  0  0  0  0  0  0  0  0
   -3.6659    0.6009    0.8446 C   0  0  0  0  0  0  0  0  0  0  0  0
   -4.9255    0.2250    1.2384 C   0  0  0  0  0  0  0  0  0  0  0  0
   -6.7199   -1.6913    2.5734 H   0  0  0  0  0  0  0  0  0  0  0  0
   -7.0779   -2.3183    0.9089 H   0  0  0  0  0  0  0  0  0  0  0  0
   -7.4471   -0.5565    1.3652 H   0  0  0  0  0  0  0  0  0  0  0  0
   -4.9111   -2.9957    0.3113 H   0  0  0  0  0  0  0  0  0  0  0  0
   -2.6757   -2.3957   -0.4043 H   0  0  0  0  0  0  0  0  0  0  0  0
    1.4906   -0.5228    2.0410 H   0  0  0  0  0  0  0  0  0  0  0  0
    3.9278   -1.8072    0.4076 H   0  0  0  0  0  0  0  0  0  0  0  0
    7.5157   -0.2590    0.8240 H   0  0  0  0  0  0  0  0  0  0  0  0
    6.6788   -1.6117   -0.1284 H   0  0  0  0  0  0  0  0  0  0  0  0
    6.8704   -1.7802    1.6335 H   0  0  0  0  0  0  0  0  0  0  0  0
    3.4975    2.0535    1.9887 H   0  0  0  0  0  0  0  0  0  0  0  0
    3.1092    1.0442   -0.8628 H   0  0  0  0  0  0  0  0  0  0  0  0
    3.3056    2.0560   -3.0509 H   0  0  0  0  0  0  0  0  0  0  0  0
    1.2894    2.4177   -4.5179 H   0  0  0  0  0  0  0  0  0  0  0  0
   -0.9110    1.7052   -3.6632 H   0  0  0  0  0  0  0  0  0  0  0  0
   -3.2671    1.5985    0.9703 H   0  0  0  0  0  0  0  0  0  0  0  0
   -5.5900    0.9405    1.7079 H   0  0  0  0  0  0  0  0  0  0  0  0
  1  2  1  0
  2  3  2  0
  3  4  1  0
  4  5  2  0
  5  6  1  0
  6  7  1  0
  7  8  2  0
  8  9  1  0
  9 10  1  0
 10 11  2  0
 11 12  1  0
 12 13  1  0
 12 14  2  0
 14 15  1  0
  8 16  1  0
 16 17  2  0
 17 18  1  0
 18 19  2  0
 19 20  1  0
 20 21  2  0
 21 22  1  0
 22 23  2  0
  5 24  1  0
 24 25  2  0
 25  2  1  0
 22  6  1  0
 15 10  1  0
 21 16  1  0
  1 26  1  0
  1 27  1  0
  1 28  1  0
  3 29  1  0
  4 30  1  0
  9 31  1  0
 11 32  1  0
 13 33  1  0
 13 34  1  0
 13 35  1  0
 15 36  1  0
 17 37  1  0
 18 38  1  0
 19 39  1  0
 20 40  1  0
 24 41  1  0
 25 42  1  0
M  END
$$$$
