
     RDKit          3D

 29 31  0  0  0  0  0  0  0  0999 V2000
   -4.9228   -0.2461    0.2322 C   0  0  0  0  0  0  0  0  0  0  0  0
   -3.4925    0.0954    0.0800 C   0  0  0  0  0  0  0  0  0  0  0  0
   -2.6322   -0.8052   -0.5170 C   0  0  0  0  0  0  0  0  0  0  0  0
   -1.2905   -0.5308   -0.6807 C   0  0  0  0  0  0  0  0  0  0  0  0
   -0.7733    0.6664   -0.2449 C   0  0  0  0  0  0  0  0  0  0  0  0
    0.6395    0.9587   -0.4092 C   0  0  0  0  0  0  0  0  0  0  0  0
    1.1959    2.1009   -0.9116 C   0  0  0  0  0  0  0  0  0  0  0  0
    2.4908    1.9300   -0.8843 O   0  0  0  0  0  0  0  0  0  0  0  0
    2.8188    0.7701   -0.4050 C   0  0  0  0  0  0  0  0  0  0  0  0
    4.0251    0.1432   -0.1814 C   0  0  0  0  0  0  0  0  0  0  0  0
    5.1228    0.7160   -0.4622 O   0  0  0  0  0  0  0  0  0  0  0  0
    4.0191   -1.0953    0.3435 N   0  0  0  0  0  0  0  0  0  0  0  0
    5.2176   -1.7454    0.5772 O   0  0  0  0  0  0  0  0  0  0  0  0
    2.8836   -1.7397    0.6561 C   0  0  0  0  0  0  0  0  0  0  0  0
    2.8698   -2.9072    1.1514 O   0  0  0  0  0  0  0  0  0  0  0  0
    1.6979   -1.1577    0.4507 N   0  0  0  0  0  0  0  0  0  0  0  0
    1.6521    0.0902   -0.0768 C   0  0  0  0  0  0  0  0  0  0  0  0
   -1.6077    1.5937    0.3586 C   0  0  0  0  0  0  0  0  0  0  0  0
   -2.9402    1.2885    0.5062 C   0  0  0  0  0  0  0  0  0  0  0  0
   -5.1255   -0.8700    1.1156 H   0  0  0  0  0  0  0  0  0  0  0  0
   -5.5460    0.6676    0.3027 H   0  0  0  0  0  0  0  0  0  0  0  0
   -5.2444   -0.8185   -0.6838 H   0  0  0  0  0  0  0  0  0  0  0  0
   -3.0457   -1.7645   -0.8662 H   0  0  0  0  0  0  0  0  0  0  0  0
   -0.6371   -1.2758   -1.1669 H   0  0  0  0  0  0  0  0  0  0  0  0
    0.7028    3.0094   -1.2787 H   0  0  0  0  0  0  0  0  0  0  0  0
    5.8832   -1.9684   -0.1353 H   0  0  0  0  0  0  0  0  0  0  0  0
    0.8025   -1.6375    0.6884 H   0  0  0  0  0  0  0  0  0  0  0  0
   -1.1578    2.5189    0.6844 H   0  0  0  0  0  0  0  0  0  0  0  0
   -3.6061    2.0132    0.9808 H   0  0  0  0  0  0  0  0  0  0  0  0
  1  2  1  0
  2  3  2  0
  3  4  1  0
  4  5  2  0
  5  6  1  0
  6  7  2  0
  7  8  1  0
  8  9  1  0
  9 10  1  0
 10 11  2  0
 10 12  1  0
 12 13  1  0
 12 14  1  0
 14 15  2  0
 14 16  1  0
 16 17  1  0
  5 18  1  0
 18 19  2  0
 19  2  1  0
 17  6  1  0
 17  9  2  0
  1 20  1  0
  1 21  1  0
  1 22  1  0
  3 23  1  0
  4 24  1  0
  7 25  1  0
 13 26  1  0
 16 27  1  0
 18 28  1  0
 19 29  1  0
M  END
$$$$
