
     RDKit          3D

 85 89  0  0  0  0  0  0  0  0999 V2000
   -4.2360   -4.8629    1.8439 C   0  0  0  0  0  0  0  0  0  0  0  0
   -4.0128   -3.9270    0.6520 C   0  0  0  0  0  0  0  0  0  0  0  0
   -2.6151   -4.0380    0.1318 C   0  0  0  0  0  0  0  0  0  0  0  0
   -2.2686   -3.1854   -1.0226 C   0  0  0  0  0  0  0  0  0  0  0  0
   -2.3928   -1.7643   -0.8547 N   0  0  0  0  0  0  0  0  0  0  0  0
   -3.5964   -1.1114   -1.1907 C   0  0  0  0  0  0  0  0  0  0  0  0
   -4.6551   -1.8048   -1.3801 O   0  0  0  0  0  0  0  0  0  0  0  0
   -3.7537    0.3778   -1.3518 C   0  0  1  0  0  0  0  0  0  0  0  0
   -5.1768    0.7283   -1.1400 C   0  0  2  0  0  0  0  0  0  0  0  0
   -6.0094    0.0028   -2.0437 O   0  0  0  0  0  0  0  0  0  0  0  0
   -5.5989    2.1421   -1.2805 C   0  0  0  0  0  0  0  0  0  0  0  0
   -7.1358    2.1975   -1.0407 C   0  0  0  0  0  0  0  0  0  0  0  0
   -7.4184    2.2891    0.4474 C   0  0  0  0  0  0  0  0  0  0  0  0
   -7.1354    3.7344    0.8281 C   0  0  0  0  0  0  0  0  0  0  0  0
   -6.0464    4.2448   -0.0750 C   0  0  0  0  0  0  0  0  0  0  0  0
   -4.9938    3.1466   -0.3657 C   0  0  0  0  0  0  0  0  0  0  0  0
   -2.8063    1.0068   -0.4781 N   0  0  0  0  0  0  0  0  0  0  0  0
   -1.8809    0.2271    0.3042 C   0  0  0  0  0  0  0  0  0  0  0  0
   -1.6076    0.5400    1.4686 O   0  0  0  0  0  0  0  0  0  0  0  0
   -1.2740   -0.9550   -0.3393 C   0  0  0  0  0  0  0  0  0  0  0  0
   -0.4082   -0.5563   -1.5238 C   0  0  0  0  0  0  0  0  0  0  0  0
    0.7861    0.2394   -1.1049 C   0  0  0  0  0  0  0  0  0  0  0  0
    0.8224    0.3745    0.3425 N   0  0  0  0  0  0  0  0  0  0  0  0
    1.9475    1.1701    0.7503 C   0  0  0  0  0  0  0  0  0  0  0  0
    3.2450    0.6015    0.3458 C   0  0  0  0  0  0  0  0  0  0  0  0
    3.8621    0.8889   -0.8546 C   0  0  0  0  0  0  0  0  0  0  0  0
    5.0935    0.3122   -1.1787 C   0  0  0  0  0  0  0  0  0  0  0  0
    5.7138   -0.5482   -0.3150 C   0  0  0  0  0  0  0  0  0  0  0  0
    6.9347   -1.1485   -0.5857 O   0  0  0  0  0  0  0  0  0  0  0  0
    8.1089   -0.5040   -0.2202 C   0  0  0  0  0  0  0  0  0  0  0  0
    8.0908    0.7279    0.3974 C   0  0  0  0  0  0  0  0  0  0  0  0
    9.2687    1.3872    0.7702 C   0  0  0  0  0  0  0  0  0  0  0  0
   10.4931    0.8016    0.5194 C   0  0  0  0  0  0  0  0  0  0  0  0
   11.7254    1.4769    0.9020 C   0  0  0  0  0  0  0  0  0  0  0  0
   11.6888    2.5960    1.4650 O   0  0  0  0  0  0  0  0  0  0  0  0
   12.9530    0.8928    0.6483 O   0  0  0  0  0  0  0  0  0  0  0  0
   10.5046   -0.4323   -0.0998 C   0  0  0  0  0  0  0  0  0  0  0  0
    9.3444   -1.0816   -0.4664 C   0  0  0  0  0  0  0  0  0  0  0  0
    5.1139   -0.8406    0.8759 C   0  0  0  0  0  0  0  0  0  0  0  0
    3.8954   -0.2713    1.1979 C   0  0  0  0  0  0  0  0  0  0  0  0
    0.7754   -0.9065    1.0012 C   0  0  0  0  0  0  0  0  0  0  0  0
   -0.4246   -1.7141    0.6293 C   0  0  0  0  0  0  0  0  0  0  0  0
   -5.2953   -5.1867    1.8913 H   0  0  0  0  0  0  0  0  0  0  0  0
   -3.6154   -5.7740    1.7715 H   0  0  0  0  0  0  0  0  0  0  0  0
   -4.0011   -4.3640    2.8061 H   0  0  0  0  0  0  0  0  0  0  0  0
   -4.2158   -2.9104    1.0636 H   0  0  0  0  0  0  0  0  0  0  0  0
   -4.7844   -4.1887   -0.0726 H   0  0  0  0  0  0  0  0  0  0  0  0
   -1.8749   -4.0045    0.9814 H   0  0  0  0  0  0  0  0  0  0  0  0
   -2.5190   -5.1156   -0.2228 H   0  0  0  0  0  0  0  0  0  0  0  0
   -1.2326   -3.4364   -1.3787 H   0  0  0  0  0  0  0  0  0  0  0  0
   -2.9296   -3.4656   -1.8785 H   0  0  0  0  0  0  0  0  0  0  0  0
   -3.5218    0.6259   -2.4331 H   0  0  0  0  0  0  0  0  0  0  0  0
   -5.4801    0.3655   -0.1158 H   0  0  0  0  0  0  0  0  0  0  0  0
   -6.6376   -0.5871   -1.5670 H   0  0  0  0  0  0  0  0  0  0  0  0
   -5.4781    2.5194   -2.3235 H   0  0  0  0  0  0  0  0  0  0  0  0
   -7.5676    3.0724   -1.5507 H   0  0  0  0  0  0  0  0  0  0  0  0
   -7.5314    1.2479   -1.4291 H   0  0  0  0  0  0  0  0  0  0  0  0
   -6.7793    1.6467    1.0517 H   0  0  0  0  0  0  0  0  0  0  0  0
   -8.5024    2.0746    0.5702 H   0  0  0  0  0  0  0  0  0  0  0  0
   -6.9016    3.7862    1.8906 H   0  0  0  0  0  0  0  0  0  0  0  0
   -8.0666    4.2920    0.6282 H   0  0  0  0  0  0  0  0  0  0  0  0
   -6.4242    4.6715   -1.0267 H   0  0  0  0  0  0  0  0  0  0  0  0
   -5.4963    5.0404    0.4864 H   0  0  0  0  0  0  0  0  0  0  0  0
   -4.6862    2.7850    0.6151 H   0  0  0  0  0  0  0  0  0  0  0  0
   -4.1630    3.7483   -0.8500 H   0  0  0  0  0  0  0  0  0  0  0  0
   -2.7305    2.0371   -0.3806 H   0  0  0  0  0  0  0  0  0  0  0  0
   -1.0031    0.0264   -2.2705 H   0  0  0  0  0  0  0  0  0  0  0  0
   -0.0606   -1.4758   -2.0278 H   0  0  0  0  0  0  0  0  0  0  0  0
    1.7388   -0.1859   -1.4646 H   0  0  0  0  0  0  0  0  0  0  0  0
    0.6979    1.2594   -1.5261 H   0  0  0  0  0  0  0  0  0  0  0  0
    1.8365    2.1606    0.2365 H   0  0  0  0  0  0  0  0  0  0  0  0
    1.8765    1.4013    1.8368 H   0  0  0  0  0  0  0  0  0  0  0  0
    3.3790    1.5673   -1.5417 H   0  0  0  0  0  0  0  0  0  0  0  0
    5.5463    0.5541   -2.1211 H   0  0  0  0  0  0  0  0  0  0  0  0
    7.1427    1.2097    0.6033 H   0  0  0  0  0  0  0  0  0  0  0  0
    9.2586    2.3499    1.2570 H   0  0  0  0  0  0  0  0  0  0  0  0
   13.8037    1.4397    0.4986 H   0  0  0  0  0  0  0  0  0  0  0  0
   11.4752   -0.8807   -0.2910 H   0  0  0  0  0  0  0  0  0  0  0  0
    9.3347   -2.0343   -0.9440 H   0  0  0  0  0  0  0  0  0  0  0  0
    5.5734   -1.5143    1.5851 H   0  0  0  0  0  0  0  0  0  0  0  0
    3.4185   -0.5022    2.1375 H   0  0  0  0  0  0  0  0  0  0  0  0
    1.7289   -1.4597    0.7451 H   0  0  0  0  0  0  0  0  0  0  0  0
    0.8512   -0.7131    2.0988 H   0  0  0  0  0  0  0  0  0  0  0  0
   -1.0022   -1.8836    1.5627 H   0  0  0  0  0  0  0  0  0  0  0  0
   -0.0817   -2.6530    0.1539 H   0  0  0  0  0  0  0  0  0  0  0  0
  1  2  1  0
  2  3  1  0
  3  4  1  0
  4  5  1  0
  5  6  1  0
  6  7  2  0
  6  8  1  0
  8  9  1  0
  9 10  1  0
  9 11  1  0
 11 12  1  0
 12 13  1  0
 13 14  1  0
 14 15  1  0
 15 16  1  0
  8 17  1  0
 17 18  1  0
 18 19  2  0
 18 20  1  0
 20 21  1  0
 21 22  1  0
 22 23  1  0
 23 24  1  0
 24 25  1  0
 25 26  2  0
 26 27  1  0
 27 28  2  0
 28 29  1  0
 29 30  1  0
 30 31  2  0
 31 32  1  0
 32 33  2  0
 33 34  1  0
 34 35  2  0
 34 36  1  0
 33 37  1  0
 37 38  2  0
 28 39  1  0
 39 40  2  0
 23 41  1  0
 41 42  1  0
 20  5  1  0
 40 25  1  0
 16 11  1  0
 42 20  1  0
 38 30  1  0
  1 43  1  0
  1 44  1  0
  1 45  1  0
  2 46  1  0
  2 47  1  0
  3 48  1  0
  3 49  1  0
  4 50  1  0
  4 51  1  0
  8 52  1  6
  9 53  1  1
 10 54  1  0
 11 55  1  0
 12 56  1  0
 12 57  1  0
 13 58  1  0
 13 59  1  0
 14 60  1  0
 14 61  1  0
 15 62  1  0
 15 63  1  0
 16 64  1  0
 16 65  1  0
 17 66  1  0
 21 67  1  0
 21 68  1  0
 22 69  1  0
 22 70  1  0
 24 71  1  0
 24 72  1  0
 26 73  1  0
 27 74  1  0
 31 75  1  0
 32 76  1  0
 36 77  1  0
 37 78  1  0
 38 79  1  0
 39 80  1  0
 40 81  1  0
 41 82  1  0
 41 83  1  0
 42 84  1  0
 42 85  1  0
M  END
$$$$
