
     RDKit          3D

137137  0  0  0  0  0  0  0  0999 V2000
   -2.6411    0.9884   -0.3758 C   0  0  0  0  0  0  0  0  0  0  0  0
   -1.2846    1.4483   -0.8357 C   0  0  0  0  0  0  0  0  0  0  0  0
   -1.1086    2.9113   -0.5926 C   0  0  0  0  0  0  0  0  0  0  0  0
    0.2624    3.3518   -1.0666 C   0  0  0  0  0  0  0  0  0  0  0  0
    0.3787    4.8613   -0.7968 C   0  0  0  0  0  0  0  0  0  0  0  0
    1.7015    5.4288   -1.2114 C   0  0  0  0  0  0  0  0  0  0  0  0
    1.7273    6.9113   -0.9336 C   0  0  0  0  0  0  0  0  0  0  0  0
    1.5283    7.2660    0.5032 C   0  0  0  0  0  0  0  0  0  0  0  0
    2.5764    6.6956    1.4154 C   0  0  0  0  0  0  0  0  0  0  0  0
   -3.5145    1.8291    0.2004 C   0  0  0  0  0  0  0  0  0  0  0  0
   -4.8520    1.7462    0.7387 C   0  0  0  0  0  0  0  0  0  0  0  0
   -5.1515    1.9972    2.1593 C   0  0  0  0  0  0  0  0  0  0  0  0
   -4.7579    3.2439    2.8196 C   0  0  0  0  0  0  0  0  0  0  0  0
   -3.3146    3.5106    3.0848 C   0  0  0  0  0  0  0  0  0  0  0  0
   -2.7750    2.4630    4.0490 C   0  0  0  0  0  0  0  0  0  0  0  0
   -1.3399    2.6008    4.4099 C   0  0  0  0  0  0  0  0  0  0  0  0
   -0.3785    2.4458    3.2696 C   0  0  0  0  0  0  0  0  0  0  0  0
    1.0535    2.5827    3.6821 C   0  0  0  0  0  0  0  0  0  0  0  0
    1.1286    3.0912    4.8417 O   0  0  0  0  0  0  0  0  0  0  0  0
    1.9212    2.1127    2.6847 O   0  0  0  0  0  0  0  0  0  0  0  0
    3.3409    2.1640    2.8804 C   0  0  2  0  0  0  0  0  0  0  0  0
    3.9766    2.7271    1.6650 C   0  0  0  0  0  0  0  0  0  0  0  0
    3.7606    1.8756    0.5348 O   0  0  0  0  0  0  0  0  0  0  0  0
    4.2870    2.3132   -0.6519 C   0  0  0  0  0  0  0  0  0  0  0  0
    4.8235    3.4297   -0.3345 O   0  0  0  0  0  0  0  0  0  0  0  0
    4.3590    1.8338   -2.0331 C   0  0  0  0  0  0  0  0  0  0  0  0
    3.1239    2.1302   -2.8625 C   0  0  0  0  0  0  0  0  0  0  0  0
    3.3363    1.6236   -4.2689 C   0  0  0  0  0  0  0  0  0  0  0  0
    2.1877    1.8370   -5.1915 C   0  0  0  0  0  0  0  0  0  0  0  0
    0.9103    1.1538   -4.8019 C   0  0  0  0  0  0  0  0  0  0  0  0
    1.0630   -0.3406   -4.7207 C   0  0  0  0  0  0  0  0  0  0  0  0
   -0.2112   -1.0283   -4.3589 C   0  0  0  0  0  0  0  0  0  0  0  0
   -1.3069   -0.7502   -5.3927 C   0  0  0  0  0  0  0  0  0  0  0  0
   -2.5274   -1.4973   -5.0082 C   0  0  0  0  0  0  0  0  0  0  0  0
   -2.5289   -2.9711   -4.9918 C   0  0  0  0  0  0  0  0  0  0  0  0
   -2.4014   -3.6861   -6.2632 C   0  0  0  0  0  0  0  0  0  0  0  0
   -1.2266   -3.6363   -7.1347 C   0  0  0  0  0  0  0  0  0  0  0  0
    0.0039   -4.2063   -6.4991 C   0  0  0  0  0  0  0  0  0  0  0  0
    1.1925   -4.1016   -7.4389 C   0  0  0  0  0  0  0  0  0  0  0  0
    2.4636   -4.6527   -6.8522 C   0  0  0  0  0  0  0  0  0  0  0  0
    3.8255    0.6924    3.0702 C   0  0  0  0  0  0  0  0  0  0  0  0
    3.4775    0.0231    1.9209 O   0  0  0  0  0  0  0  0  0  0  0  0
    3.6350   -1.6538    2.0784 P   0  0  0  0  0  0  0  0  0  0  0  0
    5.1566   -2.0818    2.6972 O   0  0  0  0  0  1  0  0  0  0  0  0
    3.5212   -2.2532    0.6982 O   0  0  0  0  0  0  0  0  0  0  0  0
    2.3984   -2.2903    3.0391 O   0  0  0  0  0  0  0  0  0  0  0  0
    1.5765   -3.1734    2.3850 C   0  0  1  0  0  0  0  0  0  0  0  0
    1.5003   -4.5031    3.0497 C   0  0  2  0  0  0  0  0  0  0  0  0
    1.0116   -5.4256    2.1500 O   0  0  0  0  0  0  0  0  0  0  0  0
    0.7713   -4.4988    4.3585 C   0  0  1  0  0  0  0  0  0  0  0  0
    1.6366   -4.4165    5.4720 O   0  0  0  0  0  0  0  0  0  0  0  0
   -0.3393   -3.5305    4.4985 C   0  0  2  0  0  0  0  0  0  0  0  0
   -1.6058   -4.0680    4.2217 O   0  0  0  0  0  0  0  0  0  0  0  0
   -0.2092   -2.2501    3.7331 C   0  0  1  0  0  0  0  0  0  0  0  0
    0.7304   -1.4461    4.3581 O   0  0  0  0  0  0  0  0  0  0  0  0
    0.1765   -2.5983    2.3120 C   0  0  1  0  0  0  0  0  0  0  0  0
    0.0567   -1.5299    1.4498 O   0  0  0  0  0  0  0  0  0  0  0  0
   -3.0899    0.0102   -0.4289 H   0  0  0  0  0  0  0  0  0  0  0  0
   -1.0987    1.1538   -1.8684 H   0  0  0  0  0  0  0  0  0  0  0  0
   -0.5335    0.9075   -0.2149 H   0  0  0  0  0  0  0  0  0  0  0  0
   -1.2675    3.1386    0.4621 H   0  0  0  0  0  0  0  0  0  0  0  0
   -1.8707    3.4815   -1.1840 H   0  0  0  0  0  0  0  0  0  0  0  0
    1.0756    2.8625   -0.5091 H   0  0  0  0  0  0  0  0  0  0  0  0
    0.4069    3.1504   -2.1392 H   0  0  0  0  0  0  0  0  0  0  0  0
    0.2716    5.0414    0.3000 H   0  0  0  0  0  0  0  0  0  0  0  0
   -0.4794    5.3894   -1.2592 H   0  0  0  0  0  0  0  0  0  0  0  0
    2.5479    4.9877   -0.6542 H   0  0  0  0  0  0  0  0  0  0  0  0
    1.8710    5.2836   -2.2975 H   0  0  0  0  0  0  0  0  0  0  0  0
    2.7435    7.2775   -1.2225 H   0  0  0  0  0  0  0  0  0  0  0  0
    0.9577    7.4633   -1.5285 H   0  0  0  0  0  0  0  0  0  0  0  0
    1.6227    8.3825    0.5732 H   0  0  0  0  0  0  0  0  0  0  0  0
    0.4913    6.9832    0.8267 H   0  0  0  0  0  0  0  0  0  0  0  0
    2.6939    7.3541    2.3127 H   0  0  0  0  0  0  0  0  0  0  0  0
    2.2832    5.7013    1.8045 H   0  0  0  0  0  0  0  0  0  0  0  0
    3.5511    6.6693    0.9154 H   0  0  0  0  0  0  0  0  0  0  0  0
   -3.2085    2.8605    0.2867 H   0  0  0  0  0  0  0  0  0  0  0  0
   -5.5151    2.4079    0.0671 H   0  0  0  0  0  0  0  0  0  0  0  0
   -5.2883    0.7047    0.4808 H   0  0  0  0  0  0  0  0  0  0  0  0
   -6.2756    1.8419    2.3284 H   0  0  0  0  0  0  0  0  0  0  0  0
   -4.7219    1.1198    2.7381 H   0  0  0  0  0  0  0  0  0  0  0  0
   -5.2702    3.3239    3.8299 H   0  0  0  0  0  0  0  0  0  0  0  0
   -5.1402    4.1553    2.2692 H   0  0  0  0  0  0  0  0  0  0  0  0
   -3.3244    4.4710    3.7276 H   0  0  0  0  0  0  0  0  0  0  0  0
   -2.6670    3.7546    2.2603 H   0  0  0  0  0  0  0  0  0  0  0  0
   -2.9902    1.4681    3.5963 H   0  0  0  0  0  0  0  0  0  0  0  0
   -3.3826    2.5277    4.9781 H   0  0  0  0  0  0  0  0  0  0  0  0
   -1.1347    1.8818    5.2423 H   0  0  0  0  0  0  0  0  0  0  0  0
   -1.2270    3.6093    4.9058 H   0  0  0  0  0  0  0  0  0  0  0  0
   -0.5575    1.5903    2.6284 H   0  0  0  0  0  0  0  0  0  0  0  0
   -0.5497    3.3747    2.6314 H   0  0  0  0  0  0  0  0  0  0  0  0
    3.6505    2.6783    3.7846 H   0  0  0  0  0  0  0  0  0  0  0  0
    5.0701    2.8090    1.8166 H   0  0  0  0  0  0  0  0  0  0  0  0
    3.5308    3.7126    1.4413 H   0  0  0  0  0  0  0  0  0  0  0  0
    4.6272    0.7552   -2.1026 H   0  0  0  0  0  0  0  0  0  0  0  0
    5.1914    2.3898   -2.5550 H   0  0  0  0  0  0  0  0  0  0  0  0
    2.2203    1.6336   -2.4317 H   0  0  0  0  0  0  0  0  0  0  0  0
    2.9291    3.2138   -2.8495 H   0  0  0  0  0  0  0  0  0  0  0  0
    4.1987    2.2297   -4.6788 H   0  0  0  0  0  0  0  0  0  0  0  0
    3.7049    0.6007   -4.2272 H   0  0  0  0  0  0  0  0  0  0  0  0
    1.9395    2.9132   -5.3397 H   0  0  0  0  0  0  0  0  0  0  0  0
    2.4262    1.4644   -6.2255 H   0  0  0  0  0  0  0  0  0  0  0  0
    0.1935    1.3439   -5.6419 H   0  0  0  0  0  0  0  0  0  0  0  0
    0.4230    1.5286   -3.9071 H   0  0  0  0  0  0  0  0  0  0  0  0
    1.8809   -0.5335   -4.0016 H   0  0  0  0  0  0  0  0  0  0  0  0
    1.4239   -0.7510   -5.7054 H   0  0  0  0  0  0  0  0  0  0  0  0
   -0.0942   -2.0956   -4.2558 H   0  0  0  0  0  0  0  0  0  0  0  0
   -0.6493   -0.5966   -3.4075 H   0  0  0  0  0  0  0  0  0  0  0  0
   -0.9691   -0.8042   -6.4181 H   0  0  0  0  0  0  0  0  0  0  0  0
   -1.5470    0.3637   -5.2371 H   0  0  0  0  0  0  0  0  0  0  0  0
   -2.7669   -1.1595   -3.9371 H   0  0  0  0  0  0  0  0  0  0  0  0
   -3.4103   -1.1211   -5.6428 H   0  0  0  0  0  0  0  0  0  0  0  0
   -1.7831   -3.3264   -4.2133 H   0  0  0  0  0  0  0  0  0  0  0  0
   -3.5106   -3.3183   -4.5117 H   0  0  0  0  0  0  0  0  0  0  0  0
   -3.3361   -3.4090   -6.8908 H   0  0  0  0  0  0  0  0  0  0  0  0
   -2.6098   -4.8132   -6.0907 H   0  0  0  0  0  0  0  0  0  0  0  0
   -1.4983   -4.2875   -8.0453 H   0  0  0  0  0  0  0  0  0  0  0  0
   -0.9683   -2.6848   -7.6150 H   0  0  0  0  0  0  0  0  0  0  0  0
   -0.1881   -5.3296   -6.4302 H   0  0  0  0  0  0  0  0  0  0  0  0
    0.2186   -3.8962   -5.4990 H   0  0  0  0  0  0  0  0  0  0  0  0
    1.3274   -3.0052   -7.6476 H   0  0  0  0  0  0  0  0  0  0  0  0
    0.9751   -4.5994   -8.4004 H   0  0  0  0  0  0  0  0  0  0  0  0
    3.1548   -4.9592   -7.6471 H   0  0  0  0  0  0  0  0  0  0  0  0
    2.2111   -5.5307   -6.2196 H   0  0  0  0  0  0  0  0  0  0  0  0
    2.9649   -3.8526   -6.2400 H   0  0  0  0  0  0  0  0  0  0  0  0
    3.3687    0.2737    3.9826 H   0  0  0  0  0  0  0  0  0  0  0  0
    4.9346    0.7397    3.1180 H   0  0  0  0  0  0  0  0  0  0  0  0
    1.9128   -3.3017    1.3408 H   0  0  0  0  0  0  0  0  0  0  0  0
    2.5576   -4.8083    3.2583 H   0  0  0  0  0  0  0  0  0  0  0  0
    0.2105   -5.8951    2.4488 H   0  0  0  0  0  0  0  0  0  0  0  0
    0.3045   -5.5226    4.4419 H   0  0  0  0  0  0  0  0  0  0  0  0
    1.0393   -4.2053    6.2335 H   0  0  0  0  0  0  0  0  0  0  0  0
   -0.4045   -3.2268    5.5856 H   0  0  0  0  0  0  0  0  0  0  0  0
   -1.5856   -4.6753    3.4612 H   0  0  0  0  0  0  0  0  0  0  0  0
   -1.2212   -1.7722    3.7510 H   0  0  0  0  0  0  0  0  0  0  0  0
    0.7234   -1.5372    5.3455 H   0  0  0  0  0  0  0  0  0  0  0  0
   -0.5551   -3.3821    1.9811 H   0  0  0  0  0  0  0  0  0  0  0  0
    0.0043   -1.8970    0.5403 H   0  0  0  0  0  0  0  0  0  0  0  0
  1  2  1  0
  2  3  1  0
  3  4  1  0
  4  5  1  0
  5  6  1  0
  6  7  1  0
  7  8  1  0
  8  9  1  0
  1 10  2  0
 10 11  1  0
 11 12  1  0
 12 13  1  0
 13 14  1  0
 14 15  1  0
 15 16  1  0
 16 17  1  0
 17 18  1  0
 18 19  2  0
 18 20  1  0
 20 21  1  0
 21 22  1  0
 22 23  1  0
 23 24  1  0
 24 25  2  0
 24 26  1  0
 26 27  1  0
 27 28  1  0
 28 29  1  0
 29 30  1  0
 30 31  1  0
 31 32  1  0
 32 33  1  0
 33 34  1  0
 34 35  1  0
 35 36  1  0
 36 37  1  0
 37 38  1  0
 38 39  1  0
 39 40  1  0
 21 41  1  0
 41 42  1  0
 42 43  1  0
 43 44  1  0
 43 45  2  0
 43 46  1  0
 46 47  1  0
 47 48  1  0
 48 49  1  0
 48 50  1  0
 50 51  1  0
 50 52  1  0
 52 53  1  0
 52 54  1  0
 54 55  1  0
 54 56  1  0
 56 57  1  0
 56 47  1  0
  1 58  1  0
  2 59  1  0
  2 60  1  0
  3 61  1  0
  3 62  1  0
  4 63  1  0
  4 64  1  0
  5 65  1  0
  5 66  1  0
  6 67  1  0
  6 68  1  0
  7 69  1  0
  7 70  1  0
  8 71  1  0
  8 72  1  0
  9 73  1  0
  9 74  1  0
  9 75  1  0
 10 76  1  0
 11 77  1  0
 11 78  1  0
 12 79  1  0
 12 80  1  0
 13 81  1  0
 13 82  1  0
 14 83  1  0
 14 84  1  0
 15 85  1  0
 15 86  1  0
 16 87  1  0
 16 88  1  0
 17 89  1  0
 17 90  1  0
 21 91  1  1
 22 92  1  0
 22 93  1  0
 26 94  1  0
 26 95  1  0
 27 96  1  0
 27 97  1  0
 28 98  1  0
 28 99  1  0
 29100  1  0
 29101  1  0
 30102  1  0
 30103  1  0
 31104  1  0
 31105  1  0
 32106  1  0
 32107  1  0
 33108  1  0
 33109  1  0
 34110  1  0
 34111  1  0
 35112  1  0
 35113  1  0
 36114  1  0
 36115  1  0
 37116  1  0
 37117  1  0
 38118  1  0
 38119  1  0
 39120  1  0
 39121  1  0
 40122  1  0
 40123  1  0
 40124  1  0
 41125  1  0
 41126  1  0
 47127  1  6
 48128  1  1
 49129  1  0
 50130  1  1
 51131  1  0
 52132  1  1
 53133  1  0
 54134  1  6
 55135  1  0
 56136  1  6
 57137  1  0
M  CHG  1  44  -1
M  END
$$$$
