
     RDKit          3D

 70 72  0  0  0  0  0  0  0  0999 V2000
    5.6480   -0.9958   -0.2057 C   0  0  0  0  0  0  0  0  0  0  0  0
    5.1472    0.3481    0.0770 C   0  0  0  0  0  0  0  0  0  0  0  0
    6.0926    1.3439    0.6646 C   0  0  0  0  0  0  0  0  0  0  0  0
    7.3350    1.0981    0.9427 C   0  0  0  0  0  0  0  0  0  0  0  0
    8.1495    2.1636    1.5161 C   0  0  0  0  0  0  0  0  0  0  0  0
    7.6702    3.3043    1.7421 O   0  0  0  0  0  0  0  0  0  0  0  0
    9.5080    1.9614    1.8415 N   0  0  0  0  0  0  0  0  0  0  0  0
   10.2611    2.9671    2.3782 O   0  0  0  0  0  0  0  0  0  0  0  0
    3.9224    0.6902   -0.1743 C   0  0  0  0  0  0  0  0  0  0  0  0
    2.8719   -0.1341   -0.7539 C   0  0  1  0  0  0  0  0  0  0  0  0
    3.2097   -1.2529   -1.6373 C   0  0  0  0  0  0  0  0  0  0  0  0
    1.7140   -0.3434    0.2147 C   0  0  1  0  0  0  0  0  0  0  0  0
    1.1433    1.0259    0.6065 C   0  0  0  0  0  0  0  0  0  0  0  0
   -0.3284    0.8463    0.8231 C   0  0  0  0  0  0  0  0  0  0  0  0
   -0.5223   -0.6520    0.7524 C   0  0  1  0  0  0  0  0  0  0  0  0
   -1.8408   -1.0085    0.1934 C   0  0  0  0  0  0  0  0  0  0  0  0
   -2.9106   -0.2208    0.2030 C   0  0  0  0  0  0  0  0  0  0  0  0
   -4.1709   -0.6598   -0.3736 C   0  0  0  0  0  0  0  0  0  0  0  0
   -5.2301    0.0973   -0.3755 C   0  0  0  0  0  0  0  0  0  0  0  0
   -6.5299   -0.3765   -0.9779 C   0  0  0  0  0  0  0  0  0  0  0  0
   -7.6286    0.1126   -0.0383 C   0  0  2  0  0  0  0  0  0  0  0  0
   -8.2007    1.2984   -0.4844 O   0  0  0  0  0  0  0  0  0  0  0  0
   -7.0988    0.2418    1.3786 C   0  0  0  0  0  0  0  0  0  0  0  0
   -6.0774    1.3586    1.4790 C   0  0  2  0  0  0  0  0  0  0  0  0
   -6.6603    2.5884    1.7617 O   0  0  0  0  0  0  0  0  0  0  0  0
   -5.2564    1.4528    0.1974 C   0  0  0  0  0  0  0  0  0  0  0  0
   -1.9680   -2.3452   -0.4188 C   0  0  0  0  0  0  0  0  0  0  0  0
   -0.7456   -3.1939   -0.1517 C   0  0  0  0  0  0  0  0  0  0  0  0
    0.5433   -2.4761   -0.4829 C   0  0  0  0  0  0  0  0  0  0  0  0
    0.5095   -0.9979   -0.3492 C   0  0  2  0  0  0  0  0  0  0  0  0
    0.0143   -0.2806   -1.5790 C   0  0  0  0  0  0  0  0  0  0  0  0
    6.2771   -1.0834   -1.1156 H   0  0  0  0  0  0  0  0  0  0  0  0
    6.4260   -1.1926    0.6234 H   0  0  0  0  0  0  0  0  0  0  0  0
    4.9533   -1.8279   -0.0307 H   0  0  0  0  0  0  0  0  0  0  0  0
    5.6984    2.3164    0.8607 H   0  0  0  0  0  0  0  0  0  0  0  0
    7.7886    0.1641    0.7680 H   0  0  0  0  0  0  0  0  0  0  0  0
    9.9823    1.0389    1.6836 H   0  0  0  0  0  0  0  0  0  0  0  0
   10.1253    3.7619    1.7949 H   0  0  0  0  0  0  0  0  0  0  0  0
    3.6803    1.7601    0.1044 H   0  0  0  0  0  0  0  0  0  0  0  0
    2.3638    0.6313   -1.4939 H   0  0  0  0  0  0  0  0  0  0  0  0
    2.5035   -1.3272   -2.5421 H   0  0  0  0  0  0  0  0  0  0  0  0
    3.0902   -2.2533   -1.1853 H   0  0  0  0  0  0  0  0  0  0  0  0
    4.1956   -1.1300   -2.1700 H   0  0  0  0  0  0  0  0  0  0  0  0
    2.0268   -0.8922    1.1208 H   0  0  0  0  0  0  0  0  0  0  0  0
    1.5885    1.3216    1.5844 H   0  0  0  0  0  0  0  0  0  0  0  0
    1.3429    1.8040   -0.1250 H   0  0  0  0  0  0  0  0  0  0  0  0
   -0.6978    1.2903    1.7585 H   0  0  0  0  0  0  0  0  0  0  0  0
   -0.9331    1.2748   -0.0235 H   0  0  0  0  0  0  0  0  0  0  0  0
   -0.2691   -1.1147    1.7016 H   0  0  0  0  0  0  0  0  0  0  0  0
   -2.7740    0.7366    0.6611 H   0  0  0  0  0  0  0  0  0  0  0  0
   -4.2395   -1.6707   -0.8282 H   0  0  0  0  0  0  0  0  0  0  0  0
   -6.6518    0.1752   -1.9312 H   0  0  0  0  0  0  0  0  0  0  0  0
   -6.5460   -1.4566   -1.1250 H   0  0  0  0  0  0  0  0  0  0  0  0
   -8.4533   -0.6441    0.0128 H   0  0  0  0  0  0  0  0  0  0  0  0
   -8.0464    1.4552   -1.4505 H   0  0  0  0  0  0  0  0  0  0  0  0
   -6.5788   -0.6976    1.6284 H   0  0  0  0  0  0  0  0  0  0  0  0
   -7.9418    0.4880    2.0283 H   0  0  0  0  0  0  0  0  0  0  0  0
   -5.3684    1.1158    2.2965 H   0  0  0  0  0  0  0  0  0  0  0  0
   -6.9273    2.6886    2.6939 H   0  0  0  0  0  0  0  0  0  0  0  0
   -4.2840    1.9167    0.3352 H   0  0  0  0  0  0  0  0  0  0  0  0
   -5.8991    2.0727   -0.4960 H   0  0  0  0  0  0  0  0  0  0  0  0
   -2.2130   -2.3232   -1.4878 H   0  0  0  0  0  0  0  0  0  0  0  0
   -2.8208   -2.8551    0.0950 H   0  0  0  0  0  0  0  0  0  0  0  0
   -0.8117   -4.0758   -0.8217 H   0  0  0  0  0  0  0  0  0  0  0  0
   -0.7714   -3.5874    0.8809 H   0  0  0  0  0  0  0  0  0  0  0  0
    0.8338   -2.7172   -1.5481 H   0  0  0  0  0  0  0  0  0  0  0  0
    1.3141   -2.9366    0.1559 H   0  0  0  0  0  0  0  0  0  0  0  0
    0.3661    0.7696   -1.5725 H   0  0  0  0  0  0  0  0  0  0  0  0
    0.2160   -0.7919   -2.5266 H   0  0  0  0  0  0  0  0  0  0  0  0
   -1.1166   -0.1655   -1.5154 H   0  0  0  0  0  0  0  0  0  0  0  0
  1  2  1  0
  2  3  1  0
  3  4  2  0
  4  5  1  0
  5  6  2  0
  5  7  1  0
  7  8  1  0
  2  9  2  0
  9 10  1  0
 10 11  1  0
 10 12  1  0
 12 13  1  0
 13 14  1  0
 14 15  1  0
 15 16  1  0
 16 17  2  0
 17 18  1  0
 18 19  2  0
 19 20  1  0
 20 21  1  0
 21 22  1  0
 21 23  1  0
 23 24  1  0
 24 25  1  0
 24 26  1  0
 16 27  1  0
 27 28  1  0
 28 29  1  0
 29 30  1  0
 30 31  1  6
 30 12  1  0
 30 15  1  0
 26 19  1  0
  1 32  1  0
  1 33  1  0
  1 34  1  0
  3 35  1  0
  4 36  1  0
  7 37  1  0
  8 38  1  0
  9 39  1  0
 10 40  1  6
 11 41  1  0
 11 42  1  0
 11 43  1  0
 12 44  1  1
 13 45  1  0
 13 46  1  0
 14 47  1  0
 14 48  1  0
 15 49  1  1
 17 50  1  0
 18 51  1  0
 20 52  1  0
 20 53  1  0
 21 54  1  1
 22 55  1  0
 23 56  1  0
 23 57  1  0
 24 58  1  1
 25 59  1  0
 26 60  1  0
 26 61  1  0
 27 62  1  0
 27 63  1  0
 28 64  1  0
 28 65  1  0
 29 66  1  0
 29 67  1  0
 31 68  1  0
 31 69  1  0
 31 70  1  0
M  END
$$$$
