
     RDKit          3D

 41 44  0  0  0  0  0  0  0  0999 V2000
   -7.2790    1.2134   -0.8196 C   0  0  0  0  0  0  0  0  0  0  0  0
   -6.6729    0.0690    0.4273 S   0  0  0  0  0  6  0  0  0  0  0  0
   -7.2056   -1.2964    0.0674 O   0  0  0  0  0  0  0  0  0  0  0  0
   -7.2209    0.5035    1.7391 O   0  0  0  0  0  0  0  0  0  0  0  0
   -4.9257    0.0337    0.3781 C   0  0  0  0  0  0  0  0  0  0  0  0
   -4.1835    0.9358    1.1061 C   0  0  0  0  0  0  0  0  0  0  0  0
   -2.7910    0.9087    1.0587 C   0  0  0  0  0  0  0  0  0  0  0  0
   -2.1343   -0.0176    0.2855 C   0  0  0  0  0  0  0  0  0  0  0  0
   -0.6883   -0.0001    0.2463 C   0  0  0  0  0  0  0  0  0  0  0  0
    0.0495    0.1806    1.3977 C   0  0  0  0  0  0  0  0  0  0  0  0
    1.3768    0.2110    1.3401 N   0  0  0  0  0  0  0  0  0  0  0  0
    2.0443    0.0706    0.1902 C   0  0  0  0  0  0  0  0  0  0  0  0
    3.4595    0.1308    0.1654 N   0  0  0  0  0  0  0  0  0  0  0  0
    4.3471   -0.9491    0.5263 C   0  0  0  0  0  0  0  0  0  0  0  0
    5.7507   -0.5105    0.3231 C   0  0  0  0  0  0  0  0  0  0  0  0
    6.4528   -0.7166   -0.8354 C   0  0  0  0  0  0  0  0  0  0  0  0
    7.7066   -0.1499   -0.5892 C   0  0  0  0  0  0  0  0  0  0  0  0
    7.6834    0.3584    0.6912 C   0  0  0  0  0  0  0  0  0  0  0  0
    6.4778    0.1151    1.2025 O   0  0  0  0  0  0  0  0  0  0  0  0
    1.3702   -0.1096   -0.9642 N   0  0  0  0  0  0  0  0  0  0  0  0
    1.7957   -0.2726   -2.2392 C   0  0  0  0  0  0  0  0  0  0  0  0
    0.6707   -0.4058   -2.9717 N   0  0  0  0  0  0  0  0  0  0  0  0
   -0.3854   -0.3277   -2.1851 N   0  0  0  0  0  0  0  0  0  0  0  0
    0.0315   -0.1423   -0.9218 C   0  0  0  0  0  0  0  0  0  0  0  0
   -2.8538   -0.9257   -0.4472 C   0  0  0  0  0  0  0  0  0  0  0  0
   -4.2329   -0.8888   -0.3918 C   0  0  0  0  0  0  0  0  0  0  0  0
   -8.3664    1.1772   -0.9196 H   0  0  0  0  0  0  0  0  0  0  0  0
   -6.7412    0.9866   -1.7628 H   0  0  0  0  0  0  0  0  0  0  0  0
   -6.9723    2.2446   -0.4816 H   0  0  0  0  0  0  0  0  0  0  0  0
   -4.7088    1.6697    1.7176 H   0  0  0  0  0  0  0  0  0  0  0  0
   -2.2232    1.6320    1.6421 H   0  0  0  0  0  0  0  0  0  0  0  0
   -0.5231    0.2891    2.3105 H   0  0  0  0  0  0  0  0  0  0  0  0
    3.8764    1.0348   -0.1401 H   0  0  0  0  0  0  0  0  0  0  0  0
    4.1522   -1.1759    1.6146 H   0  0  0  0  0  0  0  0  0  0  0  0
    4.1262   -1.8760   -0.0455 H   0  0  0  0  0  0  0  0  0  0  0  0
    6.1422   -1.1998   -1.7448 H   0  0  0  0  0  0  0  0  0  0  0  0
    8.5494   -0.1112   -1.2689 H   0  0  0  0  0  0  0  0  0  0  0  0
    8.4557    0.8693    1.2432 H   0  0  0  0  0  0  0  0  0  0  0  0
    2.8230   -0.2950   -2.6169 H   0  0  0  0  0  0  0  0  0  0  0  0
   -2.3881   -1.6778   -1.0709 H   0  0  0  0  0  0  0  0  0  0  0  0
   -4.8453   -1.5855   -0.9513 H   0  0  0  0  0  0  0  0  0  0  0  0
  1  2  1  0
  2  3  2  0
  2  4  2  0
  2  5  1  0
  5  6  2  0
  6  7  1  0
  7  8  2  0
  8  9  1  0
  9 10  2  0
 10 11  1  0
 11 12  2  0
 12 13  1  0
 13 14  1  0
 14 15  1  0
 15 16  2  0
 16 17  1  0
 17 18  2  0
 18 19  1  0
 12 20  1  0
 20 21  1  0
 21 22  2  0
 22 23  1  0
 23 24  2  0
  8 25  1  0
 25 26  2  0
 26  5  1  0
 24  9  1  0
 19 15  1  0
 24 20  1  0
  1 27  1  0
  1 28  1  0
  1 29  1  0
  6 30  1  0
  7 31  1  0
 10 32  1  0
 13 33  1  0
 14 34  1  0
 14 35  1  0
 16 36  1  0
 17 37  1  0
 18 38  1  0
 21 39  1  0
 25 40  1  0
 26 41  1  0
M  END
$$$$
