
     RDKit          3D

 33 33  0  0  0  0  0  0  0  0999 V2000
   -1.7824   -0.4003   -1.0341 C   0  0  1  0  0  0  0  0  0  0  0  0
   -2.8971    0.2595   -0.2687 C   0  0  0  0  0  0  0  0  0  0  0  0
   -3.8284   -0.7453    0.0278 O   0  0  0  0  0  0  0  0  0  0  0  0
   -0.7996    0.4826   -1.3861 O   0  0  0  0  0  0  0  0  0  0  0  0
   -0.0749    1.0319   -0.3555 C   0  0  1  0  0  0  0  0  0  0  0  0
   -0.7330    2.0681    0.2878 O   0  0  0  0  0  0  0  0  0  0  0  0
   -0.0752    3.2993    0.0698 C   0  0  0  0  0  0  0  0  0  0  0  0
    0.5091    0.0254    0.5900 C   0  0  2  0  0  0  0  0  0  0  0  0
    1.7235   -0.5069    0.0007 N   0  0  0  0  0  0  0  0  0  0  0  0
    3.0163   -0.3382    0.5675 C   0  0  0  0  0  0  0  0  0  0  0  0
    4.1903   -0.9307   -0.1289 C   0  0  0  0  0  0  0  0  0  0  0  0
    3.1132    0.3038    1.6322 O   0  0  0  0  0  0  0  0  0  0  0  0
   -0.3952   -1.1269    0.9092 C   0  0  1  0  0  0  0  0  0  0  0  0
   -1.2048   -0.9062    2.0345 O   0  0  0  0  0  0  0  0  0  0  0  0
   -1.2064   -1.5668   -0.2709 C   0  0  2  0  0  0  0  0  0  0  0  0
   -0.3639   -2.2429   -1.1657 O   0  0  0  0  0  0  0  0  0  0  0  0
   -2.2064   -0.8057   -1.9740 H   0  0  0  0  0  0  0  0  0  0  0  0
   -3.3645    1.0424   -0.8653 H   0  0  0  0  0  0  0  0  0  0  0  0
   -2.5642    0.6716    0.6879 H   0  0  0  0  0  0  0  0  0  0  0  0
   -4.5411   -0.7607   -0.6429 H   0  0  0  0  0  0  0  0  0  0  0  0
    0.8074    1.5233   -0.8655 H   0  0  0  0  0  0  0  0  0  0  0  0
    0.9621    3.2433    0.4600 H   0  0  0  0  0  0  0  0  0  0  0  0
    0.0261    3.4726   -1.0380 H   0  0  0  0  0  0  0  0  0  0  0  0
   -0.6166    4.1175    0.5372 H   0  0  0  0  0  0  0  0  0  0  0  0
    0.7526    0.5766    1.5402 H   0  0  0  0  0  0  0  0  0  0  0  0
    1.6171   -1.0333   -0.8782 H   0  0  0  0  0  0  0  0  0  0  0  0
    4.5728   -0.2327   -0.8837 H   0  0  0  0  0  0  0  0  0  0  0  0
    3.8394   -1.8569   -0.6176 H   0  0  0  0  0  0  0  0  0  0  0  0
    4.9573   -1.1136    0.6453 H   0  0  0  0  0  0  0  0  0  0  0  0
    0.2494   -1.9944    1.1988 H   0  0  0  0  0  0  0  0  0  0  0  0
   -0.7777   -0.3343    2.6970 H   0  0  0  0  0  0  0  0  0  0  0  0
   -2.0026   -2.2468    0.0617 H   0  0  0  0  0  0  0  0  0  0  0  0
   -0.9024   -2.9754   -1.5727 H   0  0  0  0  0  0  0  0  0  0  0  0
  1  2  1  0
  2  3  1  0
  1  4  1  0
  4  5  1  0
  5  6  1  0
  6  7  1  0
  5  8  1  0
  8  9  1  0
  9 10  1  0
 10 11  1  0
 10 12  2  0
  8 13  1  0
 13 14  1  0
 13 15  1  0
 15 16  1  0
 15  1  1  0
  1 17  1  6
  2 18  1  0
  2 19  1  0
  3 20  1  0
  5 21  1  6
  7 22  1  0
  7 23  1  0
  7 24  1  0
  8 25  1  1
  9 26  1  0
 11 27  1  0
 11 28  1  0
 11 29  1  0
 13 30  1  1
 14 31  1  0
 15 32  1  1
 16 33  1  0
M  END
$$$$
