
     RDKit          3D

 48 53  0  0  0  0  0  0  0  0999 V2000
   -2.7206   -4.7704    0.7529 C   0  0  0  0  0  0  0  0  0  0  0  0
   -1.9858   -3.5560    0.5372 N   0  0  0  0  0  0  0  0  0  0  0  0
   -0.7109   -3.2690    1.1765 C   0  0  0  0  0  0  0  0  0  0  0  0
    0.1642   -2.5365    0.2292 C   0  0  0  0  0  0  0  0  0  0  0  0
    1.3519   -2.8429   -0.0133 O   0  0  0  0  0  0  0  0  0  0  0  0
   -0.3850   -1.4078   -0.4505 N   0  0  0  0  0  0  0  0  0  0  0  0
   -1.8105   -1.3303   -0.7095 C   0  0  2  0  0  0  0  0  0  0  0  0
   -2.4185   -0.1741    0.0174 C   0  0  0  0  0  0  0  0  0  0  0  0
   -1.6069    1.0418   -0.2936 C   0  0  0  0  0  0  0  0  0  0  0  0
   -0.3094    0.9868   -0.7138 C   0  0  0  0  0  0  0  0  0  0  0  0
    0.0987    2.2540   -0.8954 N   0  0  0  0  0  0  0  0  0  0  0  0
   -0.8864    3.1228   -0.6081 C   0  0  0  0  0  0  0  0  0  0  0  0
   -0.9625    4.5024   -0.6363 C   0  0  0  0  0  0  0  0  0  0  0  0
   -2.1384    5.1019   -0.2766 C   0  0  0  0  0  0  0  0  0  0  0  0
   -3.2457    4.3508    0.1128 C   0  0  0  0  0  0  0  0  0  0  0  0
   -3.1559    2.9758    0.1364 C   0  0  0  0  0  0  0  0  0  0  0  0
   -1.9759    2.3601   -0.2241 C   0  0  0  0  0  0  0  0  0  0  0  0
    0.4346   -0.3063   -0.9064 C   0  0  1  0  0  0  0  0  0  0  0  0
    1.7360   -0.2240   -0.2400 C   0  0  0  0  0  0  0  0  0  0  0  0
    1.8198   -0.3707    1.1271 C   0  0  0  0  0  0  0  0  0  0  0  0
    3.0346   -0.2961    1.7691 C   0  0  0  0  0  0  0  0  0  0  0  0
    4.1899   -0.0705    1.0324 C   0  0  0  0  0  0  0  0  0  0  0  0
    4.1385    0.0805   -0.3374 C   0  0  0  0  0  0  0  0  0  0  0  0
    2.8968   -0.0015   -0.9436 C   0  0  0  0  0  0  0  0  0  0  0  0
    5.4348    0.2906   -0.7895 O   0  0  0  0  0  0  0  0  0  0  0  0
    6.1597    0.7348    0.3424 C   0  0  0  0  0  0  0  0  0  0  0  0
    5.5209    0.0498    1.4000 O   0  0  0  0  0  0  0  0  0  0  0  0
   -2.5169   -2.5667   -0.3468 C   0  0  0  0  0  0  0  0  0  0  0  0
   -3.6556   -2.7689   -0.8416 O   0  0  0  0  0  0  0  0  0  0  0  0
   -2.4642   -5.4610   -0.0892 H   0  0  0  0  0  0  0  0  0  0  0  0
   -3.8160   -4.5474    0.6362 H   0  0  0  0  0  0  0  0  0  0  0  0
   -2.5408   -5.2369    1.7217 H   0  0  0  0  0  0  0  0  0  0  0  0
   -0.2239   -4.1709    1.5721 H   0  0  0  0  0  0  0  0  0  0  0  0
   -0.8881   -2.5688    2.0406 H   0  0  0  0  0  0  0  0  0  0  0  0
   -1.9088   -1.1211   -1.8072 H   0  0  0  0  0  0  0  0  0  0  0  0
   -3.4465   -0.0176   -0.4039 H   0  0  0  0  0  0  0  0  0  0  0  0
   -2.5058   -0.3371    1.1060 H   0  0  0  0  0  0  0  0  0  0  0  0
    1.0701    2.5188   -1.2218 H   0  0  0  0  0  0  0  0  0  0  0  0
   -0.1023    5.0930   -0.9391 H   0  0  0  0  0  0  0  0  0  0  0  0
   -2.2352    6.1831   -0.2866 H   0  0  0  0  0  0  0  0  0  0  0  0
   -4.1737    4.8393    0.3961 H   0  0  0  0  0  0  0  0  0  0  0  0
   -4.0207    2.3755    0.4410 H   0  0  0  0  0  0  0  0  0  0  0  0
    0.5572   -0.4149   -2.0020 H   0  0  0  0  0  0  0  0  0  0  0  0
    0.9247   -0.5475    1.7155 H   0  0  0  0  0  0  0  0  0  0  0  0
    3.1269   -0.4082    2.8445 H   0  0  0  0  0  0  0  0  0  0  0  0
    2.8852    0.1218   -2.0308 H   0  0  0  0  0  0  0  0  0  0  0  0
    6.0259    1.8412    0.4717 H   0  0  0  0  0  0  0  0  0  0  0  0
    7.2406    0.4981    0.2663 H   0  0  0  0  0  0  0  0  0  0  0  0
  1  2  1  0
  2  3  1  0
  3  4  1  0
  4  5  2  0
  4  6  1  0
  6  7  1  0
  7  8  1  0
  8  9  1  0
  9 10  2  0
 10 11  1  0
 11 12  1  0
 12 13  2  0
 13 14  1  0
 14 15  2  0
 15 16  1  0
 16 17  2  0
 10 18  1  0
 18 19  1  0
 19 20  2  0
 20 21  1  0
 21 22  2  0
 22 23  1  0
 23 24  2  0
 23 25  1  0
 25 26  1  0
 26 27  1  0
  7 28  1  0
 28 29  2  0
 28  2  1  0
 18  6  1  0
 24 19  1  0
 17  9  1  0
 27 22  1  0
 17 12  1  0
  1 30  1  0
  1 31  1  0
  1 32  1  0
  3 33  1  0
  3 34  1  0
  7 35  1  6
  8 36  1  0
  8 37  1  0
 11 38  1  0
 13 39  1  0
 14 40  1  0
 15 41  1  0
 16 42  1  0
 18 43  1  6
 20 44  1  0
 21 45  1  0
 24 46  1  0
 26 47  1  0
 26 48  1  0
M  END
$$$$
