
     RDKit          3D

 64 67  0  0  0  0  0  0  0  0999 V2000
    5.4639    3.0916   -0.7229 C   0  0  0  0  0  0  0  0  0  0  0  0
    4.5468    2.0129   -1.2076 C   0  0  0  0  0  0  0  0  0  0  0  0
    4.5873    1.5876   -2.3700 O   0  0  0  0  0  0  0  0  0  0  0  0
    3.6440    1.4955   -0.3221 O   0  0  0  0  0  0  0  0  0  0  0  0
    2.7094    0.4651   -0.6433 C   0  0  2  0  0  0  0  0  0  0  0  0
    1.3341    1.0561   -0.4169 C   0  0  0  0  0  0  0  0  0  0  0  0
    0.2647    0.0259   -0.2294 C   0  0  2  0  0  0  0  0  0  0  0  0
   -1.1015    0.5847   -0.1492 C   0  0  1  0  0  0  0  0  0  0  0  0
   -1.2185    1.8116    0.7087 C   0  0  0  0  0  0  0  0  0  0  0  0
   -1.4838    1.0253   -1.5730 C   0  0  0  0  0  0  0  0  0  0  0  0
   -2.8892    1.5209   -1.6622 C   0  0  0  0  0  0  0  0  0  0  0  0
   -3.9278    0.6552   -1.0655 C   0  0  2  0  0  0  0  0  0  0  0  0
   -5.0189    1.4848   -0.7105 O   0  0  0  0  0  0  0  0  0  0  0  0
   -3.5261   -0.0820    0.1743 C   0  0  0  0  0  0  0  0  0  0  0  0
   -3.9866    0.6493    1.3930 C   0  0  0  0  0  0  0  0  0  0  0  0
   -4.3158   -1.4079    0.1429 C   0  0  0  0  0  0  0  0  0  0  0  0
   -2.0871   -0.4904    0.1872 C   0  0  2  0  0  0  0  0  0  0  0  0
   -1.7775   -1.2320    1.4556 C   0  0  0  0  0  0  0  0  0  0  0  0
   -0.4393   -1.9205    1.2070 C   0  0  0  0  0  0  0  0  0  0  0  0
    0.6340   -0.9398    0.8877 C   0  0  2  0  0  0  0  0  0  0  0  0
    0.9915   -0.2363    2.1727 C   0  0  0  0  0  0  0  0  0  0  0  0
    1.8289   -1.6460    0.3769 C   0  0  2  0  0  0  0  0  0  0  0  0
    1.6268   -2.2968   -0.9735 C   0  0  0  0  0  0  0  0  0  0  0  0
    2.4842   -2.6294    1.2452 C   0  0  0  0  0  0  0  0  0  0  0  0
    2.1192   -3.3020    2.2296 O   0  0  0  0  0  0  0  0  0  0  0  0
    3.8378   -2.6739    0.6485 C   0  0  0  0  0  0  0  0  0  0  0  0
    4.1073   -1.4934    0.1072 C   0  0  0  0  0  0  0  0  0  0  0  0
    2.9582   -0.6365    0.3260 C   0  0  1  0  0  0  0  0  0  0  0  0
    5.9839    3.6002   -1.5500 H   0  0  0  0  0  0  0  0  0  0  0  0
    4.8271    3.8110   -0.1302 H   0  0  0  0  0  0  0  0  0  0  0  0
    6.2218    2.7051   -0.0289 H   0  0  0  0  0  0  0  0  0  0  0  0
    2.8740    0.2051   -1.6919 H   0  0  0  0  0  0  0  0  0  0  0  0
    1.3876    1.8285    0.3483 H   0  0  0  0  0  0  0  0  0  0  0  0
    1.1022    1.6004   -1.3807 H   0  0  0  0  0  0  0  0  0  0  0  0
    0.2965   -0.6049   -1.1712 H   0  0  0  0  0  0  0  0  0  0  0  0
   -0.5060    2.5683    0.2639 H   0  0  0  0  0  0  0  0  0  0  0  0
   -2.2216    2.2727    0.5480 H   0  0  0  0  0  0  0  0  0  0  0  0
   -0.9770    1.6640    1.7607 H   0  0  0  0  0  0  0  0  0  0  0  0
   -1.4185    0.0922   -2.1827 H   0  0  0  0  0  0  0  0  0  0  0  0
   -0.8277    1.7978   -1.9672 H   0  0  0  0  0  0  0  0  0  0  0  0
   -3.1112    1.5941   -2.7701 H   0  0  0  0  0  0  0  0  0  0  0  0
   -2.9406    2.5992   -1.3280 H   0  0  0  0  0  0  0  0  0  0  0  0
   -4.3617   -0.0363   -1.8475 H   0  0  0  0  0  0  0  0  0  0  0  0
   -5.2804    2.0520   -1.4784 H   0  0  0  0  0  0  0  0  0  0  0  0
   -4.8183    0.1167    1.9444 H   0  0  0  0  0  0  0  0  0  0  0  0
   -4.4603    1.6402    1.1244 H   0  0  0  0  0  0  0  0  0  0  0  0
   -3.2048    0.8031    2.1632 H   0  0  0  0  0  0  0  0  0  0  0  0
   -3.7983   -2.1700   -0.4393 H   0  0  0  0  0  0  0  0  0  0  0  0
   -5.2991   -1.2052   -0.3464 H   0  0  0  0  0  0  0  0  0  0  0  0
   -4.5215   -1.7107    1.1969 H   0  0  0  0  0  0  0  0  0  0  0  0
   -1.9837   -1.2605   -0.6396 H   0  0  0  0  0  0  0  0  0  0  0  0
   -1.7776   -0.6349    2.3619 H   0  0  0  0  0  0  0  0  0  0  0  0
   -2.5367   -2.0290    1.5659 H   0  0  0  0  0  0  0  0  0  0  0  0
   -0.5901   -2.7321    0.4992 H   0  0  0  0  0  0  0  0  0  0  0  0
   -0.1678   -2.3712    2.2078 H   0  0  0  0  0  0  0  0  0  0  0  0
    1.4278    0.7473    2.0702 H   0  0  0  0  0  0  0  0  0  0  0  0
    1.7248   -0.8884    2.7189 H   0  0  0  0  0  0  0  0  0  0  0  0
    0.1308   -0.1476    2.8744 H   0  0  0  0  0  0  0  0  0  0  0  0
    1.9905   -1.6282   -1.8002 H   0  0  0  0  0  0  0  0  0  0  0  0
    2.2507   -3.2219   -1.0735 H   0  0  0  0  0  0  0  0  0  0  0  0
    0.5858   -2.6220   -1.1524 H   0  0  0  0  0  0  0  0  0  0  0  0
    4.5440   -3.5120    0.6297 H   0  0  0  0  0  0  0  0  0  0  0  0
    5.0156   -1.1912   -0.4130 H   0  0  0  0  0  0  0  0  0  0  0  0
    3.0733   -0.2114    1.3563 H   0  0  0  0  0  0  0  0  0  0  0  0
  1  2  1  0
  2  3  2  0
  2  4  1  0
  4  5  1  0
  5  6  1  0
  6  7  1  0
  7  8  1  0
  8  9  1  1
  8 10  1  0
 10 11  1  0
 11 12  1  0
 12 13  1  0
 12 14  1  0
 14 15  1  0
 14 16  1  0
 14 17  1  0
 17 18  1  0
 18 19  1  0
 19 20  1  0
 20 21  1  1
 20 22  1  0
 22 23  1  6
 22 24  1  0
 24 25  2  0
 24 26  1  0
 26 27  2  0
 27 28  1  0
 28  5  1  0
 20  7  1  0
 28 22  1  0
 17  8  1  0
  1 29  1  0
  1 30  1  0
  1 31  1  0
  5 32  1  6
  6 33  1  0
  6 34  1  0
  7 35  1  6
  9 36  1  0
  9 37  1  0
  9 38  1  0
 10 39  1  0
 10 40  1  0
 11 41  1  0
 11 42  1  0
 12 43  1  6
 13 44  1  0
 15 45  1  0
 15 46  1  0
 15 47  1  0
 16 48  1  0
 16 49  1  0
 16 50  1  0
 17 51  1  6
 18 52  1  0
 18 53  1  0
 19 54  1  0
 19 55  1  0
 21 56  1  0
 21 57  1  0
 21 58  1  0
 23 59  1  0
 23 60  1  0
 23 61  1  0
 26 62  1  0
 27 63  1  0
 28 64  1  1
M  END
$$$$
