
     RDKit          3D

 10  9  0  0  0  0  0  0  0  0999 V2000
   -2.5520   -0.0414   -0.2311 O   0  0  0  0  0  0  0  0  0  0  0  0
   -1.2192    0.1311    0.1059 C   0  0  0  0  0  0  0  0  0  0  0  0
   -1.3153    1.1199    0.9099 O   0  0  0  0  0  0  0  0  0  0  0  0
   -0.0126   -0.5796   -0.3060 C   0  0  0  0  0  0  0  0  0  0  0  0
   -0.0213   -1.5505   -1.1104 O   0  0  0  0  0  0  0  0  0  0  0  0
    1.1980   -0.0241    0.3300 C   0  0  0  0  0  0  0  0  0  0  0  0
    2.4097   -0.5900    0.0386 O   0  0  0  0  0  0  0  0  0  0  0  0
    1.3468    0.9385    1.1479 O   0  0  0  0  0  0  0  0  0  0  0  0
   -3.1023    0.6442   -0.7439 H   0  0  0  0  0  0  0  0  0  0  0  0
    3.2682   -0.0481   -0.1409 H   0  0  0  0  0  0  0  0  0  0  0  0
  1  2  1  0
  2  3  2  0
  2  4  1  0
  4  5  2  0
  4  6  1  0
  6  7  1  0
  6  8  2  0
  1  9  1  0
  7 10  1  0
M  END
$$$$
