
     RDKit          3D

 42 43  0  0  0  0  0  0  0  0999 V2000
    2.0330   -2.5761   -1.4322 C   0  0  0  0  0  0  0  0  0  0  0  0
    2.7658   -1.3049   -1.7129 C   0  0  0  0  0  0  0  0  0  0  0  0
    2.8049   -0.4817   -0.4938 C   0  0  0  0  0  0  0  0  0  0  0  0
    3.9898   -0.4564    0.2101 C   0  0  0  0  0  0  0  0  0  0  0  0
    4.0914    0.3020    1.3436 C   0  0  0  0  0  0  0  0  0  0  0  0
    5.5662    0.3654    2.2653 Cl  0  0  0  0  0  0  0  0  0  0  0  0
    3.0141    1.0407    1.7844 C   0  0  0  0  0  0  0  0  0  0  0  0
    1.8547    0.9891    1.0578 C   0  0  0  0  0  0  0  0  0  0  0  0
    1.6791    0.2443   -0.0973 C   0  0  0  0  0  0  0  0  0  0  0  0
    0.5060    0.2054   -0.8175 O   0  0  0  0  0  0  0  0  0  0  0  0
   -0.6207    0.9089   -0.4398 C   0  0  0  0  0  0  0  0  0  0  0  0
   -1.0162    1.9774   -1.2757 C   0  0  0  0  0  0  0  0  0  0  0  0
   -2.0892    2.7631   -1.0437 C   0  0  0  0  0  0  0  0  0  0  0  0
   -2.4897    3.8770   -1.9331 C   0  0  0  0  0  0  0  0  0  0  0  0
   -2.8340    2.5182    0.0527 N   0  0  0  0  0  0  0  0  0  0  0  0
   -2.5149    1.5171    0.8879 C   0  0  0  0  0  0  0  0  0  0  0  0
   -1.3992    0.6907    0.6537 C   0  0  0  0  0  0  0  0  0  0  0  0
   -1.2321   -0.4369    1.5743 C   0  0  0  0  0  0  0  0  0  0  0  0
   -1.8807   -1.6457    1.1525 N   0  0  0  0  0  0  0  0  0  0  0  0
   -1.5087   -2.1873   -0.0925 C   0  0  0  0  0  0  0  0  0  0  0  0
   -3.2161   -1.8259    1.5899 C   0  0  0  0  0  0  0  0  0  0  0  0
    2.5942   -3.4233   -1.8483 H   0  0  0  0  0  0  0  0  0  0  0  0
    1.9053   -2.6989   -0.3219 H   0  0  0  0  0  0  0  0  0  0  0  0
    1.0311   -2.4893   -1.9406 H   0  0  0  0  0  0  0  0  0  0  0  0
    2.3051   -0.7323   -2.5502 H   0  0  0  0  0  0  0  0  0  0  0  0
    3.8107   -1.5536   -2.0455 H   0  0  0  0  0  0  0  0  0  0  0  0
    4.8607   -1.0389   -0.1251 H   0  0  0  0  0  0  0  0  0  0  0  0
    3.1057    1.6376    2.6846 H   0  0  0  0  0  0  0  0  0  0  0  0
    1.0004    1.5669    1.3969 H   0  0  0  0  0  0  0  0  0  0  0  0
   -0.3980    2.1450   -2.1449 H   0  0  0  0  0  0  0  0  0  0  0  0
   -3.3776    3.5755   -2.5231 H   0  0  0  0  0  0  0  0  0  0  0  0
   -1.6678    4.2293   -2.5906 H   0  0  0  0  0  0  0  0  0  0  0  0
   -2.7439    4.7459   -1.2623 H   0  0  0  0  0  0  0  0  0  0  0  0
   -3.1489    1.3682    1.7487 H   0  0  0  0  0  0  0  0  0  0  0  0
   -1.5688   -0.1571    2.6190 H   0  0  0  0  0  0  0  0  0  0  0  0
   -0.1668   -0.6991    1.7053 H   0  0  0  0  0  0  0  0  0  0  0  0
   -1.5883   -1.5083   -0.9710 H   0  0  0  0  0  0  0  0  0  0  0  0
   -2.1541   -3.1062   -0.2724 H   0  0  0  0  0  0  0  0  0  0  0  0
   -0.4798   -2.5960   -0.0889 H   0  0  0  0  0  0  0  0  0  0  0  0
   -3.9260   -2.2061    0.8358 H   0  0  0  0  0  0  0  0  0  0  0  0
   -3.2067   -2.6062    2.4058 H   0  0  0  0  0  0  0  0  0  0  0  0
   -3.6900   -0.9372    2.0548 H   0  0  0  0  0  0  0  0  0  0  0  0
  1  2  1  0
  2  3  1  0
  3  4  2  0
  4  5  1  0
  5  6  1  0
  5  7  2  0
  7  8  1  0
  8  9  2  0
  9 10  1  0
 10 11  1  0
 11 12  2  0
 12 13  1  0
 13 14  1  0
 13 15  2  0
 15 16  1  0
 16 17  2  0
 17 18  1  0
 18 19  1  0
 19 20  1  0
 19 21  1  0
  9  3  1  0
 17 11  1  0
  1 22  1  0
  1 23  1  0
  1 24  1  0
  2 25  1  0
  2 26  1  0
  4 27  1  0
  7 28  1  0
  8 29  1  0
 12 30  1  0
 14 31  1  0
 14 32  1  0
 14 33  1  0
 16 34  1  0
 18 35  1  0
 18 36  1  0
 20 37  1  0
 20 38  1  0
 20 39  1  0
 21 40  1  0
 21 41  1  0
 21 42  1  0
M  END
$$$$
