
     RDKit          3D

 53 55  0  0  0  0  0  0  0  0999 V2000
   -8.8805   -3.1842    0.7396 C   0  0  0  0  0  0  0  0  0  0  0  0
   -7.4598   -2.9733    0.2849 C   0  0  0  0  0  0  0  0  0  0  0  0
   -6.6829   -3.8930   -0.4053 C   0  0  0  0  0  0  0  0  0  0  0  0
   -5.4727   -3.2677   -0.6071 C   0  0  0  0  0  0  0  0  0  0  0  0
   -4.3428   -3.6812   -1.2209 N   0  0  0  0  0  0  0  0  0  0  0  0
   -3.2533   -2.9017   -1.3130 C   0  0  0  0  0  0  0  0  0  0  0  0
   -3.2502   -1.6221   -0.7713 C   0  0  0  0  0  0  0  0  0  0  0  0
   -2.0393   -0.7939   -0.8961 C   0  0  0  0  0  0  0  0  0  0  0  0
   -1.0908   -1.2821   -1.5271 O   0  0  0  0  0  0  0  0  0  0  0  0
   -1.9002    0.4923   -0.3515 N   0  0  0  0  0  0  0  0  0  0  0  0
   -0.8272    1.3980   -0.3610 C   0  0  0  0  0  0  0  0  0  0  0  0
    0.4418    1.0708    0.3555 C   0  0  0  0  0  0  0  0  0  0  0  0
    1.1785   -0.1213   -0.0920 C   0  0  0  0  0  0  0  0  0  0  0  0
   -0.0886    0.7208    1.8226 C   0  0  0  0  0  0  0  0  0  0  0  0
    1.2113    2.2665    0.5907 N   0  0  0  0  0  0  0  0  0  0  0  0
    2.5792    2.0420    0.8731 C   0  0  0  0  0  0  0  0  0  0  0  0
    3.4132    1.7678   -0.3294 C   0  0  0  0  0  0  0  0  0  0  0  0
    2.7554    1.8444   -1.4401 O   0  0  0  0  0  0  0  0  0  0  0  0
    4.7773    1.4520   -0.3298 N   0  0  0  0  0  0  0  0  0  0  0  0
    5.5348    1.1809   -1.5458 C   0  0  0  0  0  0  0  0  0  0  0  0
    6.9028    1.7437   -1.2469 C   0  0  0  0  0  0  0  0  0  0  0  0
    6.8907    2.1364    0.2124 C   0  0  0  0  0  0  0  0  0  0  0  0
    5.6946    1.3210    0.7370 C   0  0  1  0  0  0  0  0  0  0  0  0
    5.2620    1.8118    2.0150 C   0  0  0  0  0  0  0  0  0  0  0  0
    4.9067    2.2023    3.0470 N   0  0  0  0  0  0  0  0  0  0  0  0
   -4.4026   -1.2243   -0.1553 C   0  0  0  0  0  0  0  0  0  0  0  0
   -5.4977   -2.0378   -0.0756 N   0  0  0  0  0  0  0  0  0  0  0  0
   -6.6981   -1.8934    0.4492 N   0  0  0  0  0  0  0  0  0  0  0  0
   -9.0570   -4.1935    1.1206 H   0  0  0  0  0  0  0  0  0  0  0  0
   -9.0887   -2.4452    1.5508 H   0  0  0  0  0  0  0  0  0  0  0  0
   -9.5373   -2.8960   -0.1091 H   0  0  0  0  0  0  0  0  0  0  0  0
   -7.0239   -4.8617   -0.6854 H   0  0  0  0  0  0  0  0  0  0  0  0
   -2.3706   -3.2706   -1.8122 H   0  0  0  0  0  0  0  0  0  0  0  0
   -2.8158    0.8054    0.1656 H   0  0  0  0  0  0  0  0  0  0  0  0
   -1.1691    2.3869    0.0727 H   0  0  0  0  0  0  0  0  0  0  0  0
   -0.5111    1.7012   -1.4029 H   0  0  0  0  0  0  0  0  0  0  0  0
    0.6737   -1.0302    0.3730 H   0  0  0  0  0  0  0  0  0  0  0  0
    1.2601   -0.2487   -1.1722 H   0  0  0  0  0  0  0  0  0  0  0  0
    2.2389   -0.1627    0.2912 H   0  0  0  0  0  0  0  0  0  0  0  0
   -0.3232    1.6553    2.3392 H   0  0  0  0  0  0  0  0  0  0  0  0
    0.7369    0.2083    2.3056 H   0  0  0  0  0  0  0  0  0  0  0  0
   -0.9633    0.0884    1.7475 H   0  0  0  0  0  0  0  0  0  0  0  0
    1.0600    2.9108   -0.2133 H   0  0  0  0  0  0  0  0  0  0  0  0
    2.9813    3.0321    1.2604 H   0  0  0  0  0  0  0  0  0  0  0  0
    2.7406    1.2589    1.6545 H   0  0  0  0  0  0  0  0  0  0  0  0
    5.6455    0.0880   -1.7151 H   0  0  0  0  0  0  0  0  0  0  0  0
    5.0568    1.6367   -2.4334 H   0  0  0  0  0  0  0  0  0  0  0  0
    7.7062    0.9672   -1.3622 H   0  0  0  0  0  0  0  0  0  0  0  0
    7.1238    2.6441   -1.8845 H   0  0  0  0  0  0  0  0  0  0  0  0
    7.8117    1.9138    0.7522 H   0  0  0  0  0  0  0  0  0  0  0  0
    6.5898    3.2238    0.2709 H   0  0  0  0  0  0  0  0  0  0  0  0
    6.0431    0.2569    0.7763 H   0  0  0  0  0  0  0  0  0  0  0  0
   -4.4699   -0.2438    0.2854 H   0  0  0  0  0  0  0  0  0  0  0  0
  1  2  1  0
  2  3  1  0
  3  4  2  0
  4  5  1  0
  5  6  2  0
  6  7  1  0
  7  8  1  0
  8  9  2  0
  8 10  1  0
 10 11  1  0
 11 12  1  0
 12 13  1  0
 12 14  1  0
 12 15  1  0
 15 16  1  0
 16 17  1  0
 17 18  2  0
 17 19  1  0
 19 20  1  0
 20 21  1  0
 21 22  1  0
 22 23  1  0
 23 24  1  0
 24 25  3  0
  7 26  2  0
 26 27  1  0
 27 28  1  0
 28  2  2  0
 27  4  1  0
 23 19  1  0
  1 29  1  0
  1 30  1  0
  1 31  1  0
  3 32  1  0
  6 33  1  0
 10 34  1  0
 11 35  1  0
 11 36  1  0
 13 37  1  0
 13 38  1  0
 13 39  1  0
 14 40  1  0
 14 41  1  0
 14 42  1  0
 15 43  1  0
 16 44  1  0
 16 45  1  0
 20 46  1  0
 20 47  1  0
 21 48  1  0
 21 49  1  0
 22 50  1  0
 22 51  1  0
 23 52  1  1
 26 53  1  0
M  END
$$$$
