
     RDKit          3D

 52 55  0  0  0  0  0  0  0  0999 V2000
    6.8908   -0.6438   -3.5299 C   0  0  0  0  0  0  0  0  0  0  0  0
    6.2765   -0.4381   -2.2025 C   0  0  0  0  0  0  0  0  0  0  0  0
    4.9408   -0.7813   -1.9743 C   0  0  0  0  0  0  0  0  0  0  0  0
    4.3598   -0.5939   -0.7427 C   0  0  0  0  0  0  0  0  0  0  0  0
    2.9646   -0.9568   -0.5197 C   0  0  0  0  0  0  0  0  0  0  0  0
    2.0941    0.1562   -0.4812 O   0  0  0  0  0  0  0  0  0  0  0  0
    0.7565   -0.0479   -0.2784 C   0  0  0  0  0  0  0  0  0  0  0  0
   -0.1034    1.0181   -0.2381 C   0  0  0  0  0  0  0  0  0  0  0  0
   -1.4673    0.8675   -0.0357 C   0  0  0  0  0  0  0  0  0  0  0  0
   -1.9703   -0.3935    0.1296 C   0  0  0  0  0  0  0  0  0  0  0  0
   -3.3863   -0.6336    0.3458 C   0  0  0  0  0  0  0  0  0  0  0  0
   -3.8186   -1.8329    0.4984 O   0  0  0  0  0  0  0  0  0  0  0  0
   -4.2916    0.4354    0.3899 N   0  0  0  0  0  0  0  0  0  0  0  0
   -5.6954    0.1275    0.6093 C   0  0  0  0  0  0  0  0  0  0  0  0
   -5.8898   -0.5800    1.9218 C   0  0  0  0  0  0  0  0  0  0  0  0
   -6.5044    1.3928    0.6846 C   0  0  0  0  0  0  0  0  0  0  0  0
   -5.9267    2.5196    0.7948 O   0  0  0  0  0  0  0  0  0  0  0  0
   -7.9214    1.2798    0.6283 N   0  0  0  0  0  0  0  0  0  0  0  0
   -8.5444    0.1778   -0.0329 C   0  0  0  0  0  0  0  0  0  0  0  0
   -9.7813    0.0345   -0.1091 O   0  0  0  0  0  0  0  0  0  0  0  0
   -7.6607   -0.7811   -0.6203 N   0  0  0  0  0  0  0  0  0  0  0  0
   -6.2489   -0.6340   -0.5433 C   0  0  0  0  0  0  0  0  0  0  0  0
   -5.4753   -1.1309   -1.4219 O   0  0  0  0  0  0  0  0  0  0  0  0
   -1.1052   -1.4919    0.0910 C   0  0  0  0  0  0  0  0  0  0  0  0
    0.2573   -1.3124   -0.1134 C   0  0  0  0  0  0  0  0  0  0  0  0
    5.1350   -0.0570    0.2608 C   0  0  0  0  0  0  0  0  0  0  0  0
    4.6499    0.1712    1.5311 C   0  0  0  0  0  0  0  0  0  0  0  0
    5.4619    0.7109    2.5065 C   0  0  0  0  0  0  0  0  0  0  0  0
    6.7669    1.0398    2.2619 C   0  0  0  0  0  0  0  0  0  0  0  0
    7.2686    0.8173    0.9936 C   0  0  0  0  0  0  0  0  0  0  0  0
    6.4660    0.2777    0.0091 C   0  0  0  0  0  0  0  0  0  0  0  0
    6.9913    0.0791   -1.2026 N   0  0  0  0  0  0  0  0  0  0  0  0
    7.0011    0.3749   -3.9923 H   0  0  0  0  0  0  0  0  0  0  0  0
    6.2391   -1.2943   -4.1687 H   0  0  0  0  0  0  0  0  0  0  0  0
    7.8884   -1.1046   -3.3742 H   0  0  0  0  0  0  0  0  0  0  0  0
    4.4110   -1.1957   -2.8192 H   0  0  0  0  0  0  0  0  0  0  0  0
    2.5969   -1.6074   -1.3607 H   0  0  0  0  0  0  0  0  0  0  0  0
    2.8562   -1.5872    0.3958 H   0  0  0  0  0  0  0  0  0  0  0  0
    0.2757    2.0121   -0.3660 H   0  0  0  0  0  0  0  0  0  0  0  0
   -2.0910    1.7390   -0.0140 H   0  0  0  0  0  0  0  0  0  0  0  0
   -4.0324    1.4133    0.2785 H   0  0  0  0  0  0  0  0  0  0  0  0
   -4.9132   -0.8991    2.3395 H   0  0  0  0  0  0  0  0  0  0  0  0
   -6.4690    0.0206    2.6562 H   0  0  0  0  0  0  0  0  0  0  0  0
   -6.4978   -1.4923    1.7218 H   0  0  0  0  0  0  0  0  0  0  0  0
   -8.4978    2.0092    1.0741 H   0  0  0  0  0  0  0  0  0  0  0  0
   -8.0324   -1.6244   -1.1278 H   0  0  0  0  0  0  0  0  0  0  0  0
   -1.5365   -2.4677    0.2248 H   0  0  0  0  0  0  0  0  0  0  0  0
    0.9068   -2.1742   -0.1396 H   0  0  0  0  0  0  0  0  0  0  0  0
    3.6023   -0.0867    1.7476 H   0  0  0  0  0  0  0  0  0  0  0  0
    5.0713    0.8829    3.4894 H   0  0  0  0  0  0  0  0  0  0  0  0
    7.4265    1.4699    3.0268 H   0  0  0  0  0  0  0  0  0  0  0  0
    8.3058    1.0783    0.7976 H   0  0  0  0  0  0  0  0  0  0  0  0
  1  2  1  0
  2  3  2  0
  3  4  1  0
  4  5  1  0
  5  6  1  0
  6  7  1  0
  7  8  2  0
  8  9  1  0
  9 10  2  0
 10 11  1  0
 11 12  2  0
 11 13  1  0
 13 14  1  0
 14 15  1  0
 14 16  1  0
 16 17  2  0
 16 18  1  0
 18 19  1  0
 19 20  2  0
 19 21  1  0
 21 22  1  0
 22 23  2  0
 10 24  1  0
 24 25  2  0
  4 26  2  0
 26 27  1  0
 27 28  2  0
 28 29  1  0
 29 30  2  0
 30 31  1  0
 31 32  2  0
 32  2  1  0
 25  7  1  0
 31 26  1  0
 22 14  1  0
  1 33  1  0
  1 34  1  0
  1 35  1  0
  3 36  1  0
  5 37  1  0
  5 38  1  0
  8 39  1  0
  9 40  1  0
 13 41  1  0
 15 42  1  0
 15 43  1  0
 15 44  1  0
 18 45  1  0
 21 46  1  0
 24 47  1  0
 25 48  1  0
 27 49  1  0
 28 50  1  0
 29 51  1  0
 30 52  1  0
M  END
$$$$
