
     RDKit          3D

 82 88  0  0  0  0  0  0  0  0999 V2000
    4.1209    4.2419   -2.3149 C   0  0  0  0  0  0  0  0  0  0  0  0
    3.9832    3.2754   -1.3146 O   0  0  0  0  0  0  0  0  0  0  0  0
    4.0015    2.0250   -1.8880 C   0  0  2  0  0  0  0  0  0  0  0  0
    2.7320    1.2272   -1.6024 C   0  0  1  0  0  0  0  0  0  0  0  0
    2.7149    0.0630   -2.4623 N   0  0  0  0  0  0  0  0  0  0  0  0
    2.6741    0.7930   -0.1794 C   0  0  1  0  0  0  0  0  0  0  0  0
    2.4965   -0.5608   -0.0732 O   0  0  0  0  0  0  0  0  0  0  0  0
    1.3157   -0.9281    0.5569 C   0  0  1  0  0  0  0  0  0  0  0  0
    0.3768   -1.6590   -0.3596 C   0  0  2  0  0  0  0  0  0  0  0  0
   -0.8894   -1.0675   -0.4890 O   0  0  0  0  0  0  0  0  0  0  0  0
   -1.4564   -0.6539   -1.6698 C   0  0  0  0  0  0  0  0  0  0  0  0
   -0.9727   -0.7207   -2.9526 C   0  0  0  0  0  0  0  0  0  0  0  0
   -1.6133   -0.2798   -4.0802 C   0  0  0  0  0  0  0  0  0  0  0  0
   -2.8722    0.2944   -3.9516 C   0  0  0  0  0  0  0  0  0  0  0  0
   -3.4054    0.3862   -2.6843 C   0  0  0  0  0  0  0  0  0  0  0  0
   -2.7272   -0.0707   -1.5731 C   0  0  0  0  0  0  0  0  0  0  0  0
   -3.3251    0.0586   -0.3387 C   0  0  0  0  0  0  0  0  0  0  0  0
   -4.5854    0.6380   -0.2168 C   0  0  0  0  0  0  0  0  0  0  0  0
   -5.2509    1.0929   -1.3629 C   0  0  0  0  0  0  0  0  0  0  0  0
   -6.5156    1.6748   -1.2297 C   0  0  0  0  0  0  0  0  0  0  0  0
   -7.1215    2.0866   -2.2512 O   0  0  0  0  0  0  0  0  0  0  0  0
   -7.0741    1.7927   -0.0397 O   0  0  0  0  0  0  0  0  0  0  0  0
   -6.4900    1.3815    1.0616 C   0  0  0  0  0  0  0  0  0  0  0  0
   -5.2370    0.7977    0.9924 C   0  0  0  0  0  0  0  0  0  0  0  0
   -4.6291    0.3669    2.1717 C   0  0  0  0  0  0  0  0  0  0  0  0
   -5.1441    0.4554    3.4444 C   0  0  0  0  0  0  0  0  0  0  0  0
   -4.4181   -0.0298    4.6235 C   0  0  0  0  0  0  0  0  0  0  0  0
   -6.4084    1.0498    3.4684 C   0  0  0  0  0  0  0  0  0  0  0  0
   -7.0698    1.5012    2.3279 C   0  0  0  0  0  0  0  0  0  0  0  0
   -3.3947   -0.1879    1.9424 C   0  0  0  0  0  0  0  0  0  0  0  0
   -2.7219   -0.6272    2.9353 O   0  0  0  0  0  0  0  0  0  0  0  0
   -2.7431   -0.3553    0.7954 O   0  0  0  0  0  0  0  0  0  0  0  0
   -4.6553    0.9676   -2.6244 C   0  0  0  0  0  0  0  0  0  0  0  0
   -5.3007    1.4104   -3.7406 O   0  0  0  0  0  0  0  0  0  0  0  0
    0.2183   -2.9945   -0.0215 O   0  0  0  0  0  0  0  0  0  0  0  0
    1.3705   -3.5768    0.4650 C   0  0  2  0  0  0  0  0  0  0  0  0
    1.1269   -5.0659    0.5559 C   0  0  0  0  0  0  0  0  0  0  0  0
    1.8014   -3.0721    1.7929 C   0  0  2  0  0  0  0  0  0  0  0  0
    1.2165   -3.7603    2.8589 O   0  0  0  0  0  0  0  0  0  0  0  0
    1.5783   -1.6013    1.8675 C   0  0  1  0  0  0  0  0  0  0  0  0
    2.7556   -0.9471    2.5541 C   0  0  0  0  0  0  0  0  0  0  0  0
    0.4836   -1.4074    2.7456 O   0  0  0  0  0  0  0  0  0  0  0  0
    3.7451    1.2642    0.5774 O   0  0  0  0  0  0  0  0  0  0  0  0
    4.9864    0.8974    0.0783 C   0  0  2  0  0  0  0  0  0  0  0  0
    6.0221    1.6495    0.8717 C   0  0  0  0  0  0  0  0  0  0  0  0
    5.1460    1.1823   -1.3744 C   0  0  2  0  0  0  0  0  0  0  0  0
    6.3269    1.8825   -1.5793 O   0  0  0  0  0  0  0  0  0  0  0  0
    5.0931    4.1028   -2.8670 H   0  0  0  0  0  0  0  0  0  0  0  0
    3.2518    4.1154   -2.9987 H   0  0  0  0  0  0  0  0  0  0  0  0
    4.1842    5.2598   -1.8832 H   0  0  0  0  0  0  0  0  0  0  0  0
    4.1156    2.1132   -2.9990 H   0  0  0  0  0  0  0  0  0  0  0  0
    1.8288    1.8404   -1.8964 H   0  0  0  0  0  0  0  0  0  0  0  0
    3.2465    0.3204   -3.3225 H   0  0  0  0  0  0  0  0  0  0  0  0
    3.2058   -0.7005   -1.9881 H   0  0  0  0  0  0  0  0  0  0  0  0
    1.7711    1.2794    0.2893 H   0  0  0  0  0  0  0  0  0  0  0  0
    0.7867    0.0368    0.8180 H   0  0  0  0  0  0  0  0  0  0  0  0
    0.8424   -1.6722   -1.3636 H   0  0  0  0  0  0  0  0  0  0  0  0
    0.0015   -1.1610   -3.0885 H   0  0  0  0  0  0  0  0  0  0  0  0
   -1.1477   -0.3784   -5.0493 H   0  0  0  0  0  0  0  0  0  0  0  0
   -3.3738    0.6392   -4.8194 H   0  0  0  0  0  0  0  0  0  0  0  0
   -5.0904    0.1156    5.5208 H   0  0  0  0  0  0  0  0  0  0  0  0
   -3.5059    0.5310    4.8723 H   0  0  0  0  0  0  0  0  0  0  0  0
   -4.2672   -1.1462    4.6122 H   0  0  0  0  0  0  0  0  0  0  0  0
   -6.8884    1.1554    4.4548 H   0  0  0  0  0  0  0  0  0  0  0  0
   -8.0469    1.9576    2.3952 H   0  0  0  0  0  0  0  0  0  0  0  0
   -5.8218    0.7161   -4.2989 H   0  0  0  0  0  0  0  0  0  0  0  0
    2.2375   -3.4426   -0.2411 H   0  0  0  0  0  0  0  0  0  0  0  0
    0.0492   -5.2136    0.7784 H   0  0  0  0  0  0  0  0  0  0  0  0
    1.2944   -5.5678   -0.4284 H   0  0  0  0  0  0  0  0  0  0  0  0
    1.6977   -5.5592    1.3676 H   0  0  0  0  0  0  0  0  0  0  0  0
    2.8990   -3.2788    1.8998 H   0  0  0  0  0  0  0  0  0  0  0  0
    0.3156   -4.0218    2.5279 H   0  0  0  0  0  0  0  0  0  0  0  0
    3.6966   -1.0871    1.9921 H   0  0  0  0  0  0  0  0  0  0  0  0
    2.9420   -1.4354    3.5552 H   0  0  0  0  0  0  0  0  0  0  0  0
    2.5518    0.1227    2.8096 H   0  0  0  0  0  0  0  0  0  0  0  0
    0.8172   -1.5399    3.6885 H   0  0  0  0  0  0  0  0  0  0  0  0
    5.1346   -0.2064    0.2594 H   0  0  0  0  0  0  0  0  0  0  0  0
    6.6319    0.9519    1.4861 H   0  0  0  0  0  0  0  0  0  0  0  0
    6.7243    2.2056    0.2344 H   0  0  0  0  0  0  0  0  0  0  0  0
    5.5563    2.4121    1.5523 H   0  0  0  0  0  0  0  0  0  0  0  0
    5.1330    0.2527   -2.0008 H   0  0  0  0  0  0  0  0  0  0  0  0
    6.9620    1.3930   -2.1820 H   0  0  0  0  0  0  0  0  0  0  0  0
  1  2  1  0
  2  3  1  0
  3  4  1  0
  4  5  1  0
  4  6  1  0
  6  7  1  0
  7  8  1  0
  8  9  1  0
  9 10  1  0
 10 11  1  0
 11 12  2  0
 12 13  1  0
 13 14  2  0
 14 15  1  0
 15 16  2  0
 16 17  1  0
 17 18  2  0
 18 19  1  0
 19 20  1  0
 20 21  2  0
 20 22  1  0
 22 23  1  0
 23 24  2  0
 24 25  1  0
 25 26  2  0
 26 27  1  0
 26 28  1  0
 28 29  2  0
 25 30  1  0
 30 31  2  0
 30 32  1  0
 19 33  2  0
 33 34  1  0
  9 35  1  0
 35 36  1  0
 36 37  1  0
 36 38  1  0
 38 39  1  0
 38 40  1  0
 40 41  1  0
 40 42  1  1
  6 43  1  0
 43 44  1  0
 44 45  1  0
 44 46  1  0
 46 47  1  0
 46  3  1  0
 40  8  1  0
 16 11  1  0
 32 17  1  0
 33 15  1  0
 24 18  1  0
 29 23  1  0
  1 48  1  0
  1 49  1  0
  1 50  1  0
  3 51  1  6
  4 52  1  6
  5 53  1  0
  5 54  1  0
  6 55  1  1
  8 56  1  1
  9 57  1  6
 12 58  1  0
 13 59  1  0
 14 60  1  0
 27 61  1  0
 27 62  1  0
 27 63  1  0
 28 64  1  0
 29 65  1  0
 34 66  1  0
 36 67  1  6
 37 68  1  0
 37 69  1  0
 37 70  1  0
 38 71  1  6
 39 72  1  0
 41 73  1  0
 41 74  1  0
 41 75  1  0
 42 76  1  0
 44 77  1  6
 45 78  1  0
 45 79  1  0
 45 80  1  0
 46 81  1  6
 47 82  1  0
M  END
$$$$
