
     RDKit          3D

 69 73  0  0  0  0  0  0  0  0999 V2000
   -2.1164   -2.0494    2.8438 C   0  0  0  0  0  0  0  0  0  0  0  0
   -3.2604   -1.9318    1.8979 C   0  0  0  0  0  0  0  0  0  0  0  0
   -4.4536   -2.5716    2.1634 C   0  0  0  0  0  0  0  0  0  0  0  0
   -5.4657   -2.4555    1.2952 N   0  0  0  0  0  0  0  0  0  0  0  0
   -5.3418   -1.7335    0.1809 C   0  0  0  0  0  0  0  0  0  0  0  0
   -6.4490   -1.6007   -0.7424 N   0  0  0  0  0  0  0  0  0  0  0  0
   -7.2670   -0.4586   -0.7724 C   0  0  0  0  0  0  0  0  0  0  0  0
   -7.1094    0.6650    0.0111 C   0  0  0  0  0  0  0  0  0  0  0  0
   -8.0720    1.5538   -0.3066 N   0  0  0  0  0  0  0  0  0  0  0  0
   -8.2885    2.8754    0.2609 C   0  0  0  0  0  0  0  0  0  0  0  0
   -8.7927    1.0000   -1.2448 N   0  0  0  0  0  0  0  0  0  0  0  0
   -8.3607   -0.2214   -1.5766 C   0  0  0  0  0  0  0  0  0  0  0  0
   -8.9175   -1.1747   -2.6011 C   0  0  0  0  0  0  0  0  0  0  0  0
   -4.1755   -1.1137   -0.0692 N   0  0  0  0  0  0  0  0  0  0  0  0
   -3.1254   -1.1748    0.7331 C   0  0  0  0  0  0  0  0  0  0  0  0
   -1.8518   -0.5176    0.5106 C   0  0  0  0  0  0  0  0  0  0  0  0
   -1.1830    0.3602    1.3728 C   0  0  0  0  0  0  0  0  0  0  0  0
   -0.0303    0.7463    0.7987 N   0  0  0  0  0  0  0  0  0  0  0  0
    0.0976    0.1716   -0.3953 C   0  0  0  0  0  0  0  0  0  0  0  0
    1.1123    0.2797   -1.3157 C   0  0  0  0  0  0  0  0  0  0  0  0
    2.2502    1.1076   -1.0518 N   0  0  0  0  0  0  0  0  0  0  0  0
    3.3456    0.5900   -0.3290 C   0  0  0  0  0  0  0  0  0  0  0  0
    3.2957   -0.5890    0.0699 O   0  0  0  0  0  0  0  0  0  0  0  0
    4.5179    1.4283   -0.0522 C   0  0  1  0  0  0  0  0  0  0  0  0
    4.0849    2.6361    0.7149 C   0  0  0  0  0  0  0  0  0  0  0  0
    5.5625    0.7071    0.6509 N   0  0  0  0  0  0  0  0  0  0  0  0
    6.5838    1.5216    1.2092 C   0  0  0  0  0  0  0  0  0  0  0  0
    7.7202    1.8385    0.2716 C   0  0  0  0  0  0  0  0  0  0  0  0
    8.3148    0.5990   -0.1884 N   0  0  0  0  0  0  0  0  0  0  0  0
    9.1612   -0.0297    0.8050 C   0  0  0  0  0  0  0  0  0  0  0  0
    7.3593   -0.2894   -0.7556 C   0  0  0  0  0  0  0  0  0  0  0  0
    6.0553   -0.4236   -0.0614 C   0  0  0  0  0  0  0  0  0  0  0  0
    1.0390   -0.4157   -2.4999 C   0  0  0  0  0  0  0  0  0  0  0  0
   -0.0797   -1.2198   -2.7298 C   0  0  0  0  0  0  0  0  0  0  0  0
   -1.0857   -1.3061   -1.7758 C   0  0  0  0  0  0  0  0  0  0  0  0
   -1.0207   -0.6136   -0.5882 C   0  0  0  0  0  0  0  0  0  0  0  0
   -2.1075   -3.1391    3.1500 H   0  0  0  0  0  0  0  0  0  0  0  0
   -2.3261   -1.4600    3.7549 H   0  0  0  0  0  0  0  0  0  0  0  0
   -1.1500   -1.8723    2.3772 H   0  0  0  0  0  0  0  0  0  0  0  0
   -4.5501   -3.1653    3.0807 H   0  0  0  0  0  0  0  0  0  0  0  0
   -6.5988   -2.4106   -1.3813 H   0  0  0  0  0  0  0  0  0  0  0  0
   -6.3585    0.8467    0.7646 H   0  0  0  0  0  0  0  0  0  0  0  0
   -7.5546    3.6122   -0.1294 H   0  0  0  0  0  0  0  0  0  0  0  0
   -8.2375    2.7749    1.3534 H   0  0  0  0  0  0  0  0  0  0  0  0
   -9.2848    3.2287   -0.0604 H   0  0  0  0  0  0  0  0  0  0  0  0
   -8.4260   -1.0924   -3.5715 H   0  0  0  0  0  0  0  0  0  0  0  0
   -9.9954   -0.9309   -2.7448 H   0  0  0  0  0  0  0  0  0  0  0  0
   -8.8978   -2.2077   -2.1849 H   0  0  0  0  0  0  0  0  0  0  0  0
   -1.5583    0.6519    2.3267 H   0  0  0  0  0  0  0  0  0  0  0  0
    0.6565    1.4085    1.2457 H   0  0  0  0  0  0  0  0  0  0  0  0
    2.2323    2.0763   -1.4045 H   0  0  0  0  0  0  0  0  0  0  0  0
    4.9443    1.7750   -1.0294 H   0  0  0  0  0  0  0  0  0  0  0  0
    4.7924    3.4570    0.4725 H   0  0  0  0  0  0  0  0  0  0  0  0
    3.0951    2.9598    0.2663 H   0  0  0  0  0  0  0  0  0  0  0  0
    3.8956    2.4758    1.7738 H   0  0  0  0  0  0  0  0  0  0  0  0
    6.1831    2.4905    1.5766 H   0  0  0  0  0  0  0  0  0  0  0  0
    7.0078    1.0332    2.1219 H   0  0  0  0  0  0  0  0  0  0  0  0
    7.3177    2.3592   -0.6106 H   0  0  0  0  0  0  0  0  0  0  0  0
    8.4923    2.3934    0.8062 H   0  0  0  0  0  0  0  0  0  0  0  0
    8.6200   -0.3201    1.7236 H   0  0  0  0  0  0  0  0  0  0  0  0
    9.9859    0.6755    1.0474 H   0  0  0  0  0  0  0  0  0  0  0  0
    9.6275   -0.9085    0.3111 H   0  0  0  0  0  0  0  0  0  0  0  0
    7.8255   -1.2952   -0.8416 H   0  0  0  0  0  0  0  0  0  0  0  0
    7.2013    0.0516   -1.8194 H   0  0  0  0  0  0  0  0  0  0  0  0
    5.3094   -0.6976   -0.8673 H   0  0  0  0  0  0  0  0  0  0  0  0
    6.0301   -1.2997    0.6236 H   0  0  0  0  0  0  0  0  0  0  0  0
    1.8213   -0.3538   -3.2479 H   0  0  0  0  0  0  0  0  0  0  0  0
   -0.1035   -1.7500   -3.6644 H   0  0  0  0  0  0  0  0  0  0  0  0
   -1.9427   -1.9246   -1.9525 H   0  0  0  0  0  0  0  0  0  0  0  0
  1  2  1  0
  2  3  2  0
  3  4  1  0
  4  5  2  0
  5  6  1  0
  6  7  1  0
  7  8  2  0
  8  9  1  0
  9 10  1  0
  9 11  1  0
 11 12  2  0
 12 13  1  0
  5 14  1  0
 14 15  2  0
 15 16  1  0
 16 17  2  0
 17 18  1  0
 18 19  1  0
 19 20  2  0
 20 21  1  0
 21 22  1  0
 22 23  2  0
 22 24  1  0
 24 25  1  0
 24 26  1  0
 26 27  1  0
 27 28  1  0
 28 29  1  0
 29 30  1  0
 29 31  1  0
 31 32  1  0
 20 33  1  0
 33 34  2  0
 34 35  1  0
 35 36  2  0
 15  2  1  0
 36 16  1  0
 12  7  1  0
 36 19  1  0
 32 26  1  0
  1 37  1  0
  1 38  1  0
  1 39  1  0
  3 40  1  0
  6 41  1  0
  8 42  1  0
 10 43  1  0
 10 44  1  0
 10 45  1  0
 13 46  1  0
 13 47  1  0
 13 48  1  0
 17 49  1  0
 18 50  1  0
 21 51  1  0
 24 52  1  6
 25 53  1  0
 25 54  1  0
 25 55  1  0
 27 56  1  0
 27 57  1  0
 28 58  1  0
 28 59  1  0
 30 60  1  0
 30 61  1  0
 30 62  1  0
 31 63  1  0
 31 64  1  0
 32 65  1  0
 32 66  1  0
 33 67  1  0
 34 68  1  0
 35 69  1  0
M  END
$$$$
