
     RDKit          3D

 48 51  0  0  0  0  0  0  0  0999 V2000
   -0.4991   -1.6392    1.3427 O   0  0  0  0  0  0  0  0  0  0  0  0
   -1.1315   -1.1071    0.3633 C   0  0  0  0  0  0  0  0  0  0  0  0
   -0.3783   -0.9695   -0.8792 C   0  0  0  0  0  0  0  0  0  0  0  0
    1.0448   -1.4443   -0.7040 C   0  0  0  0  0  0  0  0  0  0  0  0
    1.9857   -0.5610   -0.3282 N   0  0  0  0  0  0  0  0  0  0  0  0
    3.2575   -0.9216   -0.1572 C   0  0  0  0  0  0  0  0  0  0  0  0
    4.2412    0.0025    0.2354 N   0  0  0  0  0  0  0  0  0  0  0  0
    3.8339    1.4022    0.4713 C   0  0  0  0  0  0  0  0  0  0  0  0
    4.7277    2.2686   -0.3858 C   0  0  0  0  0  0  0  0  0  0  0  0
    6.0395    2.0602    0.0948 O   0  0  0  0  0  0  0  0  0  0  0  0
    6.4147    0.8062   -0.3412 C   0  0  0  0  0  0  0  0  0  0  0  0
    5.6319   -0.2523    0.4416 C   0  0  0  0  0  0  0  0  0  0  0  0
    3.5814   -2.2322   -0.3777 C   0  0  0  0  0  0  0  0  0  0  0  0
    2.6307   -3.1712   -0.7675 C   0  0  0  0  0  0  0  0  0  0  0  0
    2.9082   -4.3669   -0.9724 O   0  0  0  0  0  0  0  0  0  0  0  0
    1.3530   -2.7171   -0.9195 N   0  0  0  0  0  0  0  0  0  0  0  0
   -2.4712   -0.7196    0.6038 N   0  0  0  0  0  0  0  0  0  0  0  0
   -3.1746   -0.9182    1.8873 C   0  0  0  0  0  0  0  0  0  0  0  0
   -3.9571    0.3914    1.9523 C   0  0  0  0  0  0  0  0  0  0  0  0
   -4.3583    0.6019    0.5422 C   0  0  0  0  0  0  0  0  0  0  0  0
   -3.4292   -0.0922   -0.2346 C   0  0  0  0  0  0  0  0  0  0  0  0
   -3.5385   -0.0853   -1.6020 C   0  0  0  0  0  0  0  0  0  0  0  0
   -4.5888    0.6254   -2.1659 C   0  0  0  0  0  0  0  0  0  0  0  0
   -5.4983    1.3064   -1.3754 C   0  0  0  0  0  0  0  0  0  0  0  0
   -5.4054    1.3115    0.0010 C   0  0  0  0  0  0  0  0  0  0  0  0
   -6.3769    2.0393    0.8583 C   0  0  0  0  0  0  0  0  0  0  0  0
   -5.7039    2.9998    1.6184 F   0  0  0  0  0  0  0  0  0  0  0  0
   -6.9085    1.1458    1.7679 F   0  0  0  0  0  0  0  0  0  0  0  0
   -7.3697    2.6297    0.1402 F   0  0  0  0  0  0  0  0  0  0  0  0
   -0.7829   -1.5889   -1.7123 H   0  0  0  0  0  0  0  0  0  0  0  0
   -0.3837    0.0916   -1.1896 H   0  0  0  0  0  0  0  0  0  0  0  0
    3.9645    1.6794    1.5344 H   0  0  0  0  0  0  0  0  0  0  0  0
    2.7813    1.5605    0.1597 H   0  0  0  0  0  0  0  0  0  0  0  0
    4.6283    1.8957   -1.4352 H   0  0  0  0  0  0  0  0  0  0  0  0
    4.5025    3.3341   -0.2958 H   0  0  0  0  0  0  0  0  0  0  0  0
    7.5061    0.6232   -0.2745 H   0  0  0  0  0  0  0  0  0  0  0  0
    6.1137    0.7192   -1.4051 H   0  0  0  0  0  0  0  0  0  0  0  0
    6.0143   -1.2134    0.1153 H   0  0  0  0  0  0  0  0  0  0  0  0
    5.8311   -0.1413    1.5316 H   0  0  0  0  0  0  0  0  0  0  0  0
    4.5850   -2.5774   -0.2552 H   0  0  0  0  0  0  0  0  0  0  0  0
    0.6407   -3.4029   -1.2077 H   0  0  0  0  0  0  0  0  0  0  0  0
   -3.8690   -1.7654    1.7667 H   0  0  0  0  0  0  0  0  0  0  0  0
   -2.4659   -1.0245    2.7215 H   0  0  0  0  0  0  0  0  0  0  0  0
   -3.2498    1.1958    2.2226 H   0  0  0  0  0  0  0  0  0  0  0  0
   -4.8205    0.3204    2.6334 H   0  0  0  0  0  0  0  0  0  0  0  0
   -2.8252   -0.6186   -2.2058 H   0  0  0  0  0  0  0  0  0  0  0  0
   -4.6981    0.6471   -3.2410 H   0  0  0  0  0  0  0  0  0  0  0  0
   -6.3331    1.8725   -1.7984 H   0  0  0  0  0  0  0  0  0  0  0  0
  1  2  2  0
  2  3  1  0
  3  4  1  0
  4  5  2  0
  5  6  1  0
  6  7  1  0
  7  8  1  0
  8  9  1  0
  9 10  1  0
 10 11  1  0
 11 12  1  0
  6 13  2  0
 13 14  1  0
 14 15  2  0
 14 16  1  0
  2 17  1  0
 17 18  1  0
 18 19  1  0
 19 20  1  0
 20 21  2  0
 21 22  1  0
 22 23  2  0
 23 24  1  0
 24 25  2  0
 25 26  1  0
 26 27  1  0
 26 28  1  0
 26 29  1  0
 16  4  1  0
 21 17  1  0
 12  7  1  0
 25 20  1  0
  3 30  1  0
  3 31  1  0
  8 32  1  0
  8 33  1  0
  9 34  1  0
  9 35  1  0
 11 36  1  0
 11 37  1  0
 12 38  1  0
 12 39  1  0
 13 40  1  0
 16 41  1  0
 18 42  1  0
 18 43  1  0
 19 44  1  0
 19 45  1  0
 22 46  1  0
 23 47  1  0
 24 48  1  0
M  END
$$$$
