
     RDKit          3D

 47 50  0  0  0  0  0  0  0  0999 V2000
   -2.0657   -4.3002   -0.2293 C   0  0  0  0  0  0  0  0  0  0  0  0
   -1.9301   -2.9202    0.1676 N   0  0  0  0  0  0  0  0  0  0  0  0
   -0.5843   -2.4606   -0.1406 C   0  0  0  0  0  0  0  0  0  0  0  0
   -0.6045   -2.1979   -1.6027 C   0  0  0  0  0  0  0  0  0  0  0  0
   -2.0491   -2.1108   -2.0418 C   0  0  0  0  0  0  0  0  0  0  0  0
   -2.7285   -2.0357   -0.6649 C   0  0  2  0  0  0  0  0  0  0  0  0
   -2.6218   -0.6314   -0.1979 C   0  0  0  0  0  0  0  0  0  0  0  0
   -1.5488   -0.3631    0.8263 C   0  0  2  0  0  0  0  0  0  0  0  0
   -1.2913    1.0966    0.8230 C   0  0  0  0  0  0  0  0  0  0  0  0
   -1.5454    1.8909    1.9396 C   0  0  0  0  0  0  0  0  0  0  0  0
   -1.3317    3.2480    1.9711 C   0  0  0  0  0  0  0  0  0  0  0  0
   -0.8416    3.8855    0.8576 C   0  0  0  0  0  0  0  0  0  0  0  0
   -0.4877    5.9624    0.8278 I   0  0  0  0  0  0  0  0  0  0  0  0
   -0.5784    3.1383   -0.2622 C   0  0  0  0  0  0  0  0  0  0  0  0
   -0.7994    1.7809   -0.2726 C   0  0  0  0  0  0  0  0  0  0  0  0
   -0.3647   -1.2351    0.7235 C   0  0  2  0  0  0  0  0  0  0  0  0
    0.9168   -0.6011    0.3805 C   0  0  0  0  0  0  0  0  0  0  0  0
    1.6497   -1.1598   -0.4700 O   0  0  0  0  0  0  0  0  0  0  0  0
    1.3913    0.5788    0.9267 O   0  0  0  0  0  0  0  0  0  0  0  0
    2.6192    1.1107    0.5578 C   0  0  0  0  0  0  0  0  0  0  0  0
    2.7569    1.8814   -0.5729 C   0  0  0  0  0  0  0  0  0  0  0  0
    3.9748    2.4138   -0.9450 C   0  0  0  0  0  0  0  0  0  0  0  0
    5.1047    2.1917   -0.1935 C   0  0  0  0  0  0  0  0  0  0  0  0
    4.9839    1.4210    0.9429 C   0  0  0  0  0  0  0  0  0  0  0  0
    3.7513    0.8865    1.3131 C   0  0  0  0  0  0  0  0  0  0  0  0
   -1.6023   -4.9319    0.5378 H   0  0  0  0  0  0  0  0  0  0  0  0
   -1.4995   -4.5050   -1.1846 H   0  0  0  0  0  0  0  0  0  0  0  0
   -3.1297   -4.5801   -0.3420 H   0  0  0  0  0  0  0  0  0  0  0  0
    0.1340   -3.2644    0.1187 H   0  0  0  0  0  0  0  0  0  0  0  0
   -0.1134   -1.2908   -1.9513 H   0  0  0  0  0  0  0  0  0  0  0  0
   -0.1337   -3.0627   -2.1571 H   0  0  0  0  0  0  0  0  0  0  0  0
   -2.3889   -2.9721   -2.6157 H   0  0  0  0  0  0  0  0  0  0  0  0
   -2.2512   -1.1979   -2.6355 H   0  0  0  0  0  0  0  0  0  0  0  0
   -3.7679   -2.3903   -0.7772 H   0  0  0  0  0  0  0  0  0  0  0  0
   -3.6306   -0.3542    0.2326 H   0  0  0  0  0  0  0  0  0  0  0  0
   -2.5278    0.0422   -1.0839 H   0  0  0  0  0  0  0  0  0  0  0  0
   -2.0542   -0.5700    1.8216 H   0  0  0  0  0  0  0  0  0  0  0  0
   -1.9335    1.3885    2.8225 H   0  0  0  0  0  0  0  0  0  0  0  0
   -1.5437    3.8293    2.8636 H   0  0  0  0  0  0  0  0  0  0  0  0
   -0.1940    3.6485   -1.1308 H   0  0  0  0  0  0  0  0  0  0  0  0
   -0.5902    1.1819   -1.1643 H   0  0  0  0  0  0  0  0  0  0  0  0
   -0.1671   -1.6896    1.7572 H   0  0  0  0  0  0  0  0  0  0  0  0
    1.9272    2.0895   -1.2004 H   0  0  0  0  0  0  0  0  0  0  0  0
    4.0338    3.0124   -1.8404 H   0  0  0  0  0  0  0  0  0  0  0  0
    6.0664    2.6013   -0.4707 H   0  0  0  0  0  0  0  0  0  0  0  0
    5.8838    1.2567    1.5220 H   0  0  0  0  0  0  0  0  0  0  0  0
    3.7068    0.2879    2.2137 H   0  0  0  0  0  0  0  0  0  0  0  0
  1  2  1  0
  2  3  1  0
  3  4  1  0
  4  5  1  0
  5  6  1  0
  6  7  1  0
  7  8  1  0
  8  9  1  0
  9 10  2  0
 10 11  1  0
 11 12  2  0
 12 13  1  0
 12 14  1  0
 14 15  2  0
  8 16  1  0
 16 17  1  0
 17 18  2  0
 17 19  1  0
 19 20  1  0
 20 21  2  0
 21 22  1  0
 22 23  2  0
 23 24  1  0
 24 25  2  0
  6  2  1  0
 15  9  1  0
 25 20  1  0
 16  3  1  0
  1 26  1  0
  1 27  1  0
  1 28  1  0
  3 29  1  0
  4 30  1  0
  4 31  1  0
  5 32  1  0
  5 33  1  0
  6 34  1  6
  7 35  1  0
  7 36  1  0
  8 37  1  1
 10 38  1  0
 11 39  1  0
 14 40  1  0
 15 41  1  0
 16 42  1  1
 21 43  1  0
 22 44  1  0
 23 45  1  0
 24 46  1  0
 25 47  1  0
M  END
$$$$
