
     RDKit          3D

 42 44  0  0  0  0  0  0  0  0999 V2000
   -0.9819   -0.6055   -0.0376 C   0  0  1  0  0  0  0  0  0  0  0  0
   -1.6938   -0.7166   -1.3793 C   0  0  0  0  0  0  0  0  0  0  0  0
   -2.8876    0.0490   -1.2286 O   0  0  0  0  0  0  0  0  0  0  0  0
   -3.8450    0.2276   -2.1716 C   0  0  0  0  0  0  0  0  0  0  0  0
   -3.6132   -0.3636   -3.2606 O   0  0  0  0  0  0  0  0  0  0  0  0
   -5.0222    1.0672   -1.8311 C   0  0  0  0  0  0  0  0  0  0  0  0
   -6.0862    0.0265   -0.7740 P   0  0  0  0  0  0  0  0  0  0  0  0
   -5.0969   -1.0468    0.0937 O   0  0  0  0  0  0  0  0  0  0  0  0
   -6.9251    1.0585    0.2736 O   0  0  0  0  0  0  0  0  0  0  0  0
   -7.0453   -0.7560   -1.6393 O   0  0  0  0  0  0  0  0  0  0  0  0
    0.2468   -1.1942    0.0110 O   0  0  0  0  0  0  0  0  0  0  0  0
    1.1418   -0.2480    0.5317 C   0  0  1  0  0  0  0  0  0  0  0  0
    2.5169   -0.5307    0.2266 N   0  0  0  0  0  0  0  0  0  0  0  0
    2.9494   -1.0307   -0.9145 C   0  0  0  0  0  0  0  0  0  0  0  0
    4.2706   -1.1206   -0.7576 N   0  0  0  0  0  0  0  0  0  0  0  0
    4.6815   -0.7020    0.4231 C   0  0  0  0  0  0  0  0  0  0  0  0
    5.8264   -0.5384    1.1592 C   0  0  0  0  0  0  0  0  0  0  0  0
    7.0595   -0.8862    0.5997 N   0  0  0  0  0  0  0  0  0  0  0  0
    5.8836   -0.0496    2.4062 N   0  0  0  0  0  0  0  0  0  0  0  0
    4.7461    0.3326    3.0411 C   0  0  0  0  0  0  0  0  0  0  0  0
    3.5834    0.1936    2.3590 N   0  0  0  0  0  0  0  0  0  0  0  0
    3.5345   -0.2984    1.1054 C   0  0  0  0  0  0  0  0  0  0  0  0
    0.6467    1.0278   -0.1371 C   0  0  2  0  0  0  0  0  0  0  0  0
    1.1979    2.1746    0.3581 O   0  0  0  0  0  0  0  0  0  0  0  0
   -0.8394    0.8742    0.2499 C   0  0  2  0  0  0  0  0  0  0  0  0
   -0.9129    1.0296    1.6193 O   0  0  0  0  0  0  0  0  0  0  0  0
   -1.6219   -1.1111    0.7384 H   0  0  0  0  0  0  0  0  0  0  0  0
   -1.9272   -1.7433   -1.6511 H   0  0  0  0  0  0  0  0  0  0  0  0
   -1.0729   -0.1612   -2.1134 H   0  0  0  0  0  0  0  0  0  0  0  0
   -4.7318    1.9762   -1.2836 H   0  0  0  0  0  0  0  0  0  0  0  0
   -5.5738    1.4148   -2.7298 H   0  0  0  0  0  0  0  0  0  0  0  0
   -4.9825   -0.7114    1.0033 H   0  0  0  0  0  0  0  0  0  0  0  0
   -6.4790    1.0879    1.1842 H   0  0  0  0  0  0  0  0  0  0  0  0
    0.9867   -0.0851    1.6149 H   0  0  0  0  0  0  0  0  0  0  0  0
    2.4821   -1.3411   -1.8352 H   0  0  0  0  0  0  0  0  0  0  0  0
    8.0242   -0.4597    0.5950 H   0  0  0  0  0  0  0  0  0  0  0  0
    7.6306   -1.5405    0.0346 H   0  0  0  0  0  0  0  0  0  0  0  0
    4.5296    0.7527    4.0092 H   0  0  0  0  0  0  0  0  0  0  0  0
    0.7506    0.9405   -1.2508 H   0  0  0  0  0  0  0  0  0  0  0  0
    1.5049    2.7768   -0.3877 H   0  0  0  0  0  0  0  0  0  0  0  0
   -1.4968    1.5138   -0.3299 H   0  0  0  0  0  0  0  0  0  0  0  0
   -1.3583    0.2648    2.0759 H   0  0  0  0  0  0  0  0  0  0  0  0
  1  2  1  0
  2  3  1  0
  3  4  1  0
  4  5  2  0
  4  6  1  0
  6  7  1  0
  7  8  1  0
  7  9  1  0
  7 10  2  0
  1 11  1  0
 11 12  1  0
 12 13  1  0
 13 14  1  0
 14 15  2  0
 15 16  1  0
 16 17  2  0
 17 18  1  0
 17 19  1  0
 19 20  2  0
 20 21  1  0
 21 22  2  0
 12 23  1  0
 23 24  1  0
 23 25  1  0
 25 26  1  0
 25  1  1  0
 22 13  1  0
 22 16  1  0
  1 27  1  1
  2 28  1  0
  2 29  1  0
  6 30  1  0
  6 31  1  0
  8 32  1  0
  9 33  1  0
 12 34  1  1
 14 35  1  0
 18 36  1  0
 18 37  1  0
 20 38  1  0
 23 39  1  6
 24 40  1  0
 25 41  1  6
 26 42  1  0
M  END
$$$$
