
     RDKit          3D

 41 40  0  0  0  0  0  0  0  0999 V2000
    6.4589   -0.4373    1.3146 C   0  0  0  0  0  0  0  0  0  0  0  0
    5.2579   -0.8060    0.4306 C   0  0  0  0  0  0  0  0  0  0  0  0
    4.9632    0.4263   -0.3839 C   0  0  0  0  0  0  0  0  0  0  0  0
    3.8662    0.2580   -1.2733 N   0  0  0  0  0  0  0  0  0  0  0  0
    2.5765    0.1145   -0.6910 C   0  0  0  0  0  0  0  0  0  0  0  0
    2.0840    1.3797   -0.0132 C   0  0  0  0  0  0  0  0  0  0  0  0
    0.7131    1.1050    0.5583 C   0  0  0  0  0  0  0  0  0  0  0  0
   -0.2313    0.7256   -0.4924 N   0  0  0  0  0  0  0  0  0  0  0  0
   -1.5086    0.4871    0.2003 C   0  0  0  0  0  0  0  0  0  0  0  0
   -2.5786    0.0842   -0.7965 C   0  0  0  0  0  0  0  0  0  0  0  0
   -3.8741   -0.1466   -0.0354 C   0  0  0  0  0  0  0  0  0  0  0  0
   -4.9440   -0.5378   -0.9266 N   0  0  0  0  0  0  0  0  0  0  0  0
   -6.1994   -0.7517   -0.2313 C   0  0  0  0  0  0  0  0  0  0  0  0
   -6.8047    0.4976    0.3254 C   0  0  0  0  0  0  0  0  0  0  0  0
    6.5714   -1.1724    2.1146 H   0  0  0  0  0  0  0  0  0  0  0  0
    7.3616   -0.3548    0.6723 H   0  0  0  0  0  0  0  0  0  0  0  0
    6.2553    0.5785    1.7087 H   0  0  0  0  0  0  0  0  0  0  0  0
    5.5718   -1.6665   -0.1854 H   0  0  0  0  0  0  0  0  0  0  0  0
    4.4211   -1.0368    1.1120 H   0  0  0  0  0  0  0  0  0  0  0  0
    5.8524    0.6675   -1.0355 H   0  0  0  0  0  0  0  0  0  0  0  0
    4.8510    1.2919    0.3063 H   0  0  0  0  0  0  0  0  0  0  0  0
    4.0680   -0.2766   -2.1219 H   0  0  0  0  0  0  0  0  0  0  0  0
    1.8737   -0.2232   -1.4897 H   0  0  0  0  0  0  0  0  0  0  0  0
    2.6051   -0.6999    0.0602 H   0  0  0  0  0  0  0  0  0  0  0  0
    2.7563    1.5848    0.8446 H   0  0  0  0  0  0  0  0  0  0  0  0
    2.1135    2.2369   -0.6812 H   0  0  0  0  0  0  0  0  0  0  0  0
    0.7406    0.2661    1.2773 H   0  0  0  0  0  0  0  0  0  0  0  0
    0.3189    2.0060    1.0293 H   0  0  0  0  0  0  0  0  0  0  0  0
   -0.3606    1.5090   -1.1757 H   0  0  0  0  0  0  0  0  0  0  0  0
   -1.3736   -0.3531    0.9074 H   0  0  0  0  0  0  0  0  0  0  0  0
   -1.7839    1.3989    0.7238 H   0  0  0  0  0  0  0  0  0  0  0  0
   -2.7798    0.9495   -1.4895 H   0  0  0  0  0  0  0  0  0  0  0  0
   -2.2890   -0.7705   -1.4041 H   0  0  0  0  0  0  0  0  0  0  0  0
   -4.1696    0.8051    0.4775 H   0  0  0  0  0  0  0  0  0  0  0  0
   -3.7443   -0.8986    0.7766 H   0  0  0  0  0  0  0  0  0  0  0  0
   -4.6913   -1.4082   -1.4177 H   0  0  0  0  0  0  0  0  0  0  0  0
   -6.9025   -1.2178   -0.9545 H   0  0  0  0  0  0  0  0  0  0  0  0
   -6.0168   -1.4523    0.6324 H   0  0  0  0  0  0  0  0  0  0  0  0
   -6.4183    1.4174   -0.1797 H   0  0  0  0  0  0  0  0  0  0  0  0
   -6.7078    0.5516    1.4267 H   0  0  0  0  0  0  0  0  0  0  0  0
   -7.9024    0.5059    0.0796 H   0  0  0  0  0  0  0  0  0  0  0  0
  1  2  1  0
  2  3  1  0
  3  4  1  0
  4  5  1  0
  5  6  1  0
  6  7  1  0
  7  8  1  0
  8  9  1  0
  9 10  1  0
 10 11  1  0
 11 12  1  0
 12 13  1  0
 13 14  1  0
  1 15  1  0
  1 16  1  0
  1 17  1  0
  2 18  1  0
  2 19  1  0
  3 20  1  0
  3 21  1  0
  4 22  1  0
  5 23  1  0
  5 24  1  0
  6 25  1  0
  6 26  1  0
  7 27  1  0
  7 28  1  0
  8 29  1  0
  9 30  1  0
  9 31  1  0
 10 32  1  0
 10 33  1  0
 11 34  1  0
 11 35  1  0
 12 36  1  0
 13 37  1  0
 13 38  1  0
 14 39  1  0
 14 40  1  0
 14 41  1  0
M  END
$$$$
