
     RDKit          3D

 41 44  0  0  0  0  0  0  0  0999 V2000
    5.5146    3.2202    1.0024 O   0  0  0  0  0  0  0  0  0  0  0  0
    5.1039    1.9639    0.5382 C   0  0  0  0  0  0  0  0  0  0  0  0
    6.0422    1.0512    0.1198 C   0  0  0  0  0  0  0  0  0  0  0  0
    5.6911   -0.1876   -0.3414 C   0  0  0  0  0  0  0  0  0  0  0  0
    4.3320   -0.5125   -0.3792 C   0  0  0  0  0  0  0  0  0  0  0  0
    3.3714    0.3793    0.0325 C   0  0  0  0  0  0  0  0  0  0  0  0
    1.9680    0.0241   -0.0133 C   0  0  0  0  0  0  0  0  0  0  0  0
    0.9842    0.9754   -0.2332 C   0  0  0  0  0  0  0  0  0  0  0  0
   -0.3290    0.5559   -0.2619 C   0  0  0  0  0  0  0  0  0  0  0  0
   -0.6744   -0.7726   -0.0785 C   0  0  0  0  0  0  0  0  0  0  0  0
   -1.9899   -1.1965   -0.1067 C   0  0  0  0  0  0  0  0  0  0  0  0
   -3.0309   -0.2010   -0.3375 C   0  0  0  0  0  0  0  0  0  0  0  0
   -3.4784    0.1258   -1.6003 C   0  0  0  0  0  0  0  0  0  0  0  0
   -4.4569    1.0602   -1.8212 C   0  0  0  0  0  0  0  0  0  0  0  0
   -5.0249    1.7058   -0.7592 C   0  0  0  0  0  0  0  0  0  0  0  0
   -4.5947    1.3969    0.5144 C   0  0  0  0  0  0  0  0  0  0  0  0
   -5.1643    2.0466    1.6073 O   0  0  0  0  0  0  0  0  0  0  0  0
   -3.6071    0.4543    0.7445 C   0  0  0  0  0  0  0  0  0  0  0  0
   -2.3115   -2.5365    0.0801 C   0  0  0  0  0  0  0  0  0  0  0  0
   -3.6535   -2.9248    0.0444 O   0  0  0  0  0  0  0  0  0  0  0  0
   -1.3408   -3.4909    0.2995 C   0  0  0  0  0  0  0  0  0  0  0  0
   -0.0295   -3.0703    0.3279 C   0  0  0  0  0  0  0  0  0  0  0  0
    0.2951   -1.7288    0.1411 C   0  0  0  0  0  0  0  0  0  0  0  0
    1.6079   -1.2960    0.1677 C   0  0  0  0  0  0  0  0  0  0  0  0
    3.7534    1.6154    0.4906 C   0  0  0  0  0  0  0  0  0  0  0  0
    4.9095    4.0030    0.7894 H   0  0  0  0  0  0  0  0  0  0  0  0
    7.0960    1.3193    0.1555 H   0  0  0  0  0  0  0  0  0  0  0  0
    6.3818   -0.9444   -0.6826 H   0  0  0  0  0  0  0  0  0  0  0  0
    3.9983   -1.4769   -0.7347 H   0  0  0  0  0  0  0  0  0  0  0  0
    1.2521    2.0225   -0.3781 H   0  0  0  0  0  0  0  0  0  0  0  0
   -1.1388    1.2806   -0.4336 H   0  0  0  0  0  0  0  0  0  0  0  0
   -3.0402   -0.3766   -2.4694 H   0  0  0  0  0  0  0  0  0  0  0  0
   -4.7999    1.3092   -2.8065 H   0  0  0  0  0  0  0  0  0  0  0  0
   -5.8097    2.4583   -0.8999 H   0  0  0  0  0  0  0  0  0  0  0  0
   -4.8082    1.9183    2.5299 H   0  0  0  0  0  0  0  0  0  0  0  0
   -3.2755    0.2194    1.7630 H   0  0  0  0  0  0  0  0  0  0  0  0
   -4.3035   -2.3719    0.5957 H   0  0  0  0  0  0  0  0  0  0  0  0
   -1.6107   -4.5312    0.4431 H   0  0  0  0  0  0  0  0  0  0  0  0
    0.7464   -3.7919    0.4969 H   0  0  0  0  0  0  0  0  0  0  0  0
    2.3697   -2.0613    0.3425 H   0  0  0  0  0  0  0  0  0  0  0  0
    3.0548    2.3659    0.8299 H   0  0  0  0  0  0  0  0  0  0  0  0
  1  2  1  0
  2  3  2  0
  3  4  1  0
  4  5  2  0
  5  6  1  0
  6  7  1  0
  7  8  2  0
  8  9  1  0
  9 10  2  0
 10 11  1  0
 11 12  1  0
 12 13  2  0
 13 14  1  0
 14 15  2  0
 15 16  1  0
 16 17  1  0
 16 18  2  0
 11 19  2  0
 19 20  1  0
 19 21  1  0
 21 22  2  0
 22 23  1  0
 23 24  2  0
  6 25  2  0
 25  2  1  0
 24  7  1  0
 23 10  1  0
 18 12  1  0
  1 26  1  0
  3 27  1  0
  4 28  1  0
  5 29  1  0
  8 30  1  0
  9 31  1  0
 13 32  1  0
 14 33  1  0
 15 34  1  0
 17 35  1  0
 18 36  1  0
 20 37  1  0
 21 38  1  0
 22 39  1  0
 24 40  1  0
 25 41  1  0
M  END
$$$$
