
     RDKit          3D

 78 82  0  0  0  0  0  0  0  0999 V2000
    7.3072   -1.8784    0.2206 C   0  0  0  0  0  0  0  0  0  0  0  0
    5.9033   -2.0524    0.1557 O   0  0  0  0  0  0  0  0  0  0  0  0
    5.0775   -1.0977   -0.3827 C   0  0  0  0  0  0  0  0  0  0  0  0
    5.6366   -0.0391   -0.8251 O   0  0  0  0  0  0  0  0  0  0  0  0
    3.6459   -1.2525   -0.4597 N   0  0  0  0  0  0  0  0  0  0  0  0
    2.8424   -0.2612   -1.0307 N   0  0  0  0  0  0  0  0  0  0  0  0
    2.3325    0.8045   -0.2453 C   0  0  0  0  0  0  0  0  0  0  0  0
    2.6736    0.7261    0.9888 O   0  0  0  0  0  0  0  0  0  0  0  0
    1.5035    1.8916   -0.7204 C   0  0  0  0  0  0  0  0  0  0  0  0
    0.3403    2.2493   -0.0201 C   0  0  0  0  0  0  0  0  0  0  0  0
   -0.0024    1.4410    1.1448 C   0  0  0  0  0  0  0  0  0  0  0  0
   -0.4255    0.1044    0.7098 N   0  0  0  0  0  0  0  0  0  0  0  0
   -0.7743   -0.7393    1.8364 C   0  0  0  0  0  0  0  0  0  0  0  0
   -2.2492   -1.0836    1.7983 C   0  0  0  0  0  0  0  0  0  0  0  0
   -2.4988   -1.8443    0.6139 N   0  0  0  0  0  0  0  0  0  0  0  0
   -3.8326   -2.3901    0.5481 C   0  0  0  0  0  0  0  0  0  0  0  0
   -3.9660   -3.1660   -0.7478 C   0  0  0  0  0  0  0  0  0  0  0  0
   -4.9037   -1.3518    0.5927 C   0  0  0  0  0  0  0  0  0  0  0  0
   -4.0859   -3.3756    1.6691 C   0  0  0  0  0  0  0  0  0  0  0  0
   -2.1152   -1.1286   -0.5633 C   0  0  0  0  0  0  0  0  0  0  0  0
   -1.4893    0.2191   -0.2450 C   0  0  0  0  0  0  0  0  0  0  0  0
   -0.4532    3.2769   -0.4295 C   0  0  0  0  0  0  0  0  0  0  0  0
   -1.6655    3.6914    0.2450 C   0  0  0  0  0  0  0  0  0  0  0  0
   -2.8901    3.7526   -0.4175 C   0  0  0  0  0  0  0  0  0  0  0  0
   -4.0264    4.2012    0.2177 C   0  0  0  0  0  0  0  0  0  0  0  0
   -4.0165    4.6116    1.5337 C   0  0  0  0  0  0  0  0  0  0  0  0
   -2.8143    4.5586    2.2045 C   0  0  0  0  0  0  0  0  0  0  0  0
   -1.6625    4.1022    1.5540 C   0  0  0  0  0  0  0  0  0  0  0  0
   -0.0956    3.9539   -1.5420 N   0  0  0  0  0  0  0  0  0  0  0  0
    0.9930    3.6965   -2.2846 C   0  0  0  0  0  0  0  0  0  0  0  0
    1.3097    4.4422   -3.3925 C   0  0  0  0  0  0  0  0  0  0  0  0
    0.4939    5.4416   -3.7626 F   0  0  0  0  0  0  0  0  0  0  0  0
    2.4365    4.1758   -4.1114 C   0  0  0  0  0  0  0  0  0  0  0  0
    3.2492    3.1441   -3.7014 C   0  0  0  0  0  0  0  0  0  0  0  0
    2.9249    2.3978   -2.5870 C   0  0  0  0  0  0  0  0  0  0  0  0
    1.7959    2.6345   -1.8389 C   0  0  0  0  0  0  0  0  0  0  0  0
    3.1176   -2.4628    0.0583 C   0  0  0  0  0  0  0  0  0  0  0  0
    2.7518   -2.6167    1.3727 C   0  0  0  0  0  0  0  0  0  0  0  0
    2.2300   -3.8248    1.8516 C   0  0  0  0  0  0  0  0  0  0  0  0
    2.0648   -4.9063    1.0159 C   0  0  0  0  0  0  0  0  0  0  0  0
    2.4282   -4.7647   -0.3053 C   0  0  0  0  0  0  0  0  0  0  0  0
    2.9415   -3.5746   -0.7743 C   0  0  0  0  0  0  0  0  0  0  0  0
    7.7025   -1.9831    1.2492 H   0  0  0  0  0  0  0  0  0  0  0  0
    7.8046   -2.6451   -0.4339 H   0  0  0  0  0  0  0  0  0  0  0  0
    7.6332   -0.8960   -0.2034 H   0  0  0  0  0  0  0  0  0  0  0  0
    2.5685   -0.2996   -2.0467 H   0  0  0  0  0  0  0  0  0  0  0  0
    0.7686    1.3264    1.9098 H   0  0  0  0  0  0  0  0  0  0  0  0
   -0.8892    1.8680    1.7130 H   0  0  0  0  0  0  0  0  0  0  0  0
   -0.4608   -0.3141    2.8075 H   0  0  0  0  0  0  0  0  0  0  0  0
   -0.2306   -1.7132    1.6654 H   0  0  0  0  0  0  0  0  0  0  0  0
   -2.8525   -0.1466    1.8631 H   0  0  0  0  0  0  0  0  0  0  0  0
   -2.4307   -1.7320    2.6972 H   0  0  0  0  0  0  0  0  0  0  0  0
   -4.2661   -2.4589   -1.5401 H   0  0  0  0  0  0  0  0  0  0  0  0
   -4.6865   -4.0049   -0.6378 H   0  0  0  0  0  0  0  0  0  0  0  0
   -2.9567   -3.5548   -0.9914 H   0  0  0  0  0  0  0  0  0  0  0  0
   -5.0094   -0.8945   -0.3973 H   0  0  0  0  0  0  0  0  0  0  0  0
   -4.7913   -0.6220    1.4136 H   0  0  0  0  0  0  0  0  0  0  0  0
   -5.8728   -1.8881    0.8072 H   0  0  0  0  0  0  0  0  0  0  0  0
   -4.1000   -2.9015    2.6653 H   0  0  0  0  0  0  0  0  0  0  0  0
   -5.1112   -3.8004    1.5056 H   0  0  0  0  0  0  0  0  0  0  0  0
   -3.3880   -4.2413    1.6051 H   0  0  0  0  0  0  0  0  0  0  0  0
   -2.9371   -0.9348   -1.2745 H   0  0  0  0  0  0  0  0  0  0  0  0
   -1.3639   -1.7448   -1.1021 H   0  0  0  0  0  0  0  0  0  0  0  0
   -2.2798    0.8733    0.1924 H   0  0  0  0  0  0  0  0  0  0  0  0
   -1.0854    0.6324   -1.1868 H   0  0  0  0  0  0  0  0  0  0  0  0
   -2.8925    3.4305   -1.4465 H   0  0  0  0  0  0  0  0  0  0  0  0
   -4.9663    4.2427   -0.3076 H   0  0  0  0  0  0  0  0  0  0  0  0
   -4.8978    4.9660    2.0478 H   0  0  0  0  0  0  0  0  0  0  0  0
   -2.7723    4.8771    3.2495 H   0  0  0  0  0  0  0  0  0  0  0  0
   -0.7526    4.1137    2.1579 H   0  0  0  0  0  0  0  0  0  0  0  0
    2.7053    4.7686   -5.0087 H   0  0  0  0  0  0  0  0  0  0  0  0
    4.1604    2.8927   -4.2404 H   0  0  0  0  0  0  0  0  0  0  0  0
    3.5923    1.6227   -2.2725 H   0  0  0  0  0  0  0  0  0  0  0  0
    2.8761   -1.7777    2.0465 H   0  0  0  0  0  0  0  0  0  0  0  0
    1.9524   -3.8993    2.9091 H   0  0  0  0  0  0  0  0  0  0  0  0
    1.6587   -5.8269    1.4168 H   0  0  0  0  0  0  0  0  0  0  0  0
    2.3018   -5.6088   -0.9682 H   0  0  0  0  0  0  0  0  0  0  0  0
    3.2364   -3.4324   -1.8087 H   0  0  0  0  0  0  0  0  0  0  0  0
  1  2  1  0
  2  3  1  0
  3  4  2  0
  3  5  1  0
  5  6  1  0
  6  7  1  0
  7  8  2  0
  7  9  1  0
  9 10  2  0
 10 11  1  0
 11 12  1  0
 12 13  1  0
 13 14  1  0
 14 15  1  0
 15 16  1  0
 16 17  1  0
 16 18  1  0
 16 19  1  0
 15 20  1  0
 20 21  1  0
 10 22  1  0
 22 23  1  0
 23 24  2  0
 24 25  1  0
 25 26  2  0
 26 27  1  0
 27 28  2  0
 22 29  2  0
 29 30  1  0
 30 31  2  0
 31 32  1  0
 31 33  1  0
 33 34  2  0
 34 35  1  0
 35 36  2  0
  5 37  1  0
 37 38  2  0
 38 39  1  0
 39 40  2  0
 40 41  1  0
 41 42  2  0
 36  9  1  0
 42 37  1  0
 21 12  1  0
 28 23  1  0
 36 30  1  0
  1 43  1  0
  1 44  1  0
  1 45  1  0
  6 46  1  0
 11 47  1  0
 11 48  1  0
 13 49  1  0
 13 50  1  0
 14 51  1  0
 14 52  1  0
 17 53  1  0
 17 54  1  0
 17 55  1  0
 18 56  1  0
 18 57  1  0
 18 58  1  0
 19 59  1  0
 19 60  1  0
 19 61  1  0
 20 62  1  0
 20 63  1  0
 21 64  1  0
 21 65  1  0
 24 66  1  0
 25 67  1  0
 26 68  1  0
 27 69  1  0
 28 70  1  0
 33 71  1  0
 34 72  1  0
 35 73  1  0
 38 74  1  0
 39 75  1  0
 40 76  1  0
 41 77  1  0
 42 78  1  0
M  END
$$$$
