
     RDKit          3D

 81 83  0  0  0  0  0  0  0  0999 V2000
    1.4728   -0.1464   -0.3237 C   0  0  2  0  0  0  0  0  0  0  0  0
    1.2734    0.6470    0.9687 C   0  0  0  0  0  0  0  0  0  0  0  0
    0.9525   -0.3025    2.0628 C   0  0  0  0  0  0  0  0  0  0  0  0
    1.9457   -0.6484    2.9753 O   0  0  0  0  0  0  0  0  0  0  0  0
   -0.0999   -0.8958    2.3520 O   0  0  0  0  0  0  0  0  0  0  0  0
    1.7808    0.7738   -1.3413 N   0  0  0  0  0  0  0  0  0  0  0  0
    3.2081    0.6350   -2.2138 S   0  0  0  0  0  0  0  0  0  0  0  0
    3.2727   -0.5837   -3.0946 O   0  0  0  0  0  0  0  0  0  0  0  0
    3.2083    1.7910   -3.2295 O   0  0  0  0  0  0  0  0  0  0  0  0
    4.5881    0.7921   -1.1616 C   0  0  0  0  0  0  0  0  0  0  0  0
    5.0598    2.0560   -0.8660 C   0  0  0  0  0  0  0  0  0  0  0  0
    4.4113    3.2554   -1.4025 C   0  0  0  0  0  0  0  0  0  0  0  0
    6.1780    2.2493   -0.0454 C   0  0  0  0  0  0  0  0  0  0  0  0
    6.8515    1.1734    0.4998 C   0  0  0  0  0  0  0  0  0  0  0  0
    7.9623    1.3844    1.3142 O   0  0  0  0  0  0  0  0  0  0  0  0
    8.3848    2.7076    1.5678 C   0  0  0  0  0  0  0  0  0  0  0  0
    6.3797   -0.0843    0.2038 C   0  0  0  0  0  0  0  0  0  0  0  0
    7.1365   -1.2066    0.8134 C   0  0  0  0  0  0  0  0  0  0  0  0
    5.2633   -0.2739   -0.6161 C   0  0  0  0  0  0  0  0  0  0  0  0
    4.9257   -1.6760   -0.8374 C   0  0  0  0  0  0  0  0  0  0  0  0
    0.1666   -0.7981   -0.7134 C   0  0  0  0  0  0  0  0  0  0  0  0
    0.3485   -1.5328   -1.8803 O   0  0  0  0  0  0  0  0  0  0  0  0
   -0.9799   -0.7652   -0.1613 N   0  0  0  0  0  0  0  0  0  0  0  0
   -2.1372   -1.4635   -0.6848 C   0  0  2  0  0  0  0  0  0  0  0  0
   -2.8659   -0.6203   -1.7071 C   0  0  0  0  0  0  0  0  0  0  0  0
   -3.3443    0.6635   -1.1073 C   0  0  0  0  0  0  0  0  0  0  0  0
   -4.6185    0.7171   -0.5457 C   0  0  0  0  0  0  0  0  0  0  0  0
   -5.0587    1.8986    0.0125 C   0  0  0  0  0  0  0  0  0  0  0  0
   -4.2423    3.0035    0.0095 C   0  0  0  0  0  0  0  0  0  0  0  0
   -2.9713    2.9977   -0.5360 C   0  0  0  0  0  0  0  0  0  0  0  0
   -2.5477    1.8095   -1.0892 C   0  0  0  0  0  0  0  0  0  0  0  0
   -4.7242    4.2417    0.6039 C   0  0  0  0  0  0  0  0  0  0  0  0
   -4.2369    5.4929    0.1394 N   0  0  0  0  0  0  0  0  0  0  0  0
   -5.5741    4.4275    1.5440 N   0  0  0  0  0  0  0  0  0  0  0  0
   -3.0675   -1.8571    0.3975 C   0  0  0  0  0  0  0  0  0  0  0  0
   -3.0834   -1.4427    1.5838 O   0  0  0  0  0  0  0  0  0  0  0  0
   -4.1373   -2.7869    0.3259 N   0  0  0  0  0  0  0  0  0  0  0  0
   -4.8623   -2.9083    1.5655 C   0  0  0  0  0  0  0  0  0  0  0  0
   -5.4101   -4.3147    1.6641 C   0  0  0  0  0  0  0  0  0  0  0  0
   -6.5423   -4.4802    0.6457 C   0  0  0  0  0  0  0  0  0  0  0  0
   -6.1841   -3.6801   -0.6081 C   0  0  0  0  0  0  0  0  0  0  0  0
   -4.6634   -3.6556   -0.7076 C   0  0  0  0  0  0  0  0  0  0  0  0
    2.2558   -0.8973   -0.1898 H   0  0  0  0  0  0  0  0  0  0  0  0
    0.4963    1.4205    0.8438 H   0  0  0  0  0  0  0  0  0  0  0  0
    2.1966    1.1939    1.2417 H   0  0  0  0  0  0  0  0  0  0  0  0
    2.0111   -1.5388    3.4471 H   0  0  0  0  0  0  0  0  0  0  0  0
    1.4835    1.7309   -1.0844 H   0  0  0  0  0  0  0  0  0  0  0  0
    4.7466    3.4660   -2.4563 H   0  0  0  0  0  0  0  0  0  0  0  0
    4.7331    4.1760   -0.8472 H   0  0  0  0  0  0  0  0  0  0  0  0
    3.3127    3.2511   -1.3156 H   0  0  0  0  0  0  0  0  0  0  0  0
    6.5182    3.2585    0.1635 H   0  0  0  0  0  0  0  0  0  0  0  0
    8.5616    3.1575    0.5516 H   0  0  0  0  0  0  0  0  0  0  0  0
    9.3560    2.6624    2.1190 H   0  0  0  0  0  0  0  0  0  0  0  0
    7.5839    3.2312    2.1009 H   0  0  0  0  0  0  0  0  0  0  0  0
    7.2409   -1.0865    1.9266 H   0  0  0  0  0  0  0  0  0  0  0  0
    8.1912   -1.1060    0.4244 H   0  0  0  0  0  0  0  0  0  0  0  0
    6.8078   -2.2004    0.5122 H   0  0  0  0  0  0  0  0  0  0  0  0
    4.7933   -2.1417    0.1835 H   0  0  0  0  0  0  0  0  0  0  0  0
    4.0252   -1.9112   -1.3808 H   0  0  0  0  0  0  0  0  0  0  0  0
    5.8457   -2.1538   -1.2838 H   0  0  0  0  0  0  0  0  0  0  0  0
   -0.3728   -1.8454   -2.4981 H   0  0  0  0  0  0  0  0  0  0  0  0
   -1.7878   -2.3792   -1.1821 H   0  0  0  0  0  0  0  0  0  0  0  0
   -2.2519   -0.3710   -2.5740 H   0  0  0  0  0  0  0  0  0  0  0  0
   -3.7591   -1.1600   -2.0331 H   0  0  0  0  0  0  0  0  0  0  0  0
   -5.2534   -0.1474   -0.5454 H   0  0  0  0  0  0  0  0  0  0  0  0
   -6.0358    1.9776    0.4552 H   0  0  0  0  0  0  0  0  0  0  0  0
   -2.2940    3.8431   -0.5606 H   0  0  0  0  0  0  0  0  0  0  0  0
   -1.5650    1.7456   -1.5296 H   0  0  0  0  0  0  0  0  0  0  0  0
   -3.4220    6.0755   -0.1166 H   0  0  0  0  0  0  0  0  0  0  0  0
   -4.5022    6.4325   -0.1670 H   0  0  0  0  0  0  0  0  0  0  0  0
   -6.0812    3.6999    2.0602 H   0  0  0  0  0  0  0  0  0  0  0  0
   -5.7373   -2.2177    1.5117 H   0  0  0  0  0  0  0  0  0  0  0  0
   -4.2412   -2.6970    2.4608 H   0  0  0  0  0  0  0  0  0  0  0  0
   -5.8292   -4.4845    2.6889 H   0  0  0  0  0  0  0  0  0  0  0  0
   -4.5907   -5.0148    1.4645 H   0  0  0  0  0  0  0  0  0  0  0  0
   -6.5769   -5.5419    0.3383 H   0  0  0  0  0  0  0  0  0  0  0  0
   -7.4727   -4.1059    1.0894 H   0  0  0  0  0  0  0  0  0  0  0  0
   -6.5468   -2.6469   -0.5615 H   0  0  0  0  0  0  0  0  0  0  0  0
   -6.5814   -4.1598   -1.5104 H   0  0  0  0  0  0  0  0  0  0  0  0
   -4.3124   -4.6970   -0.5234 H   0  0  0  0  0  0  0  0  0  0  0  0
   -4.3654   -3.4117   -1.7238 H   0  0  0  0  0  0  0  0  0  0  0  0
  1  2  1  0
  2  3  1  0
  3  4  1  0
  3  5  2  0
  1  6  1  0
  6  7  1  0
  7  8  2  0
  7  9  2  0
  7 10  1  0
 10 11  2  0
 11 12  1  0
 11 13  1  0
 13 14  2  0
 14 15  1  0
 15 16  1  0
 14 17  1  0
 17 18  1  0
 17 19  2  0
 19 20  1  0
  1 21  1  0
 21 22  1  0
 21 23  2  3
 23 24  1  0
 24 25  1  0
 25 26  1  0
 26 27  2  0
 27 28  1  0
 28 29  2  0
 29 30  1  0
 30 31  2  0
 29 32  1  0
 32 33  1  0
 32 34  2  3
 24 35  1  0
 35 36  2  0
 35 37  1  0
 37 38  1  0
 38 39  1  0
 39 40  1  0
 40 41  1  0
 41 42  1  0
 19 10  1  0
 31 26  1  0
 42 37  1  0
  1 43  1  1
  2 44  1  0
  2 45  1  0
  4 46  1  0
  6 47  1  0
 12 48  1  0
 12 49  1  0
 12 50  1  0
 13 51  1  0
 16 52  1  0
 16 53  1  0
 16 54  1  0
 18 55  1  0
 18 56  1  0
 18 57  1  0
 20 58  1  0
 20 59  1  0
 20 60  1  0
 22 61  1  0
 24 62  1  6
 25 63  1  0
 25 64  1  0
 27 65  1  0
 28 66  1  0
 30 67  1  0
 31 68  1  0
 33 69  1  0
 33 70  1  0
 34 71  1  0
 38 72  1  0
 38 73  1  0
 39 74  1  0
 39 75  1  0
 40 76  1  0
 40 77  1  0
 41 78  1  0
 41 79  1  0
 42 80  1  0
 42 81  1  0
M  END
$$$$
