
     RDKit          3D

 61 66  0  0  0  0  0  0  0  0999 V2000
   -4.3573   -1.5589   -1.2246 O   0  0  0  0  0  0  0  0  0  0  0  0
   -3.1806   -1.7760   -0.8364 C   0  0  0  0  0  0  0  0  0  0  0  0
   -2.4709   -2.9053   -0.8749 N   0  0  0  0  0  0  0  0  0  0  0  0
   -2.9227   -4.1750   -1.3934 C   0  0  0  0  0  0  0  0  0  0  0  0
   -1.8363   -5.2096   -1.3360 C   0  0  0  0  0  0  0  0  0  0  0  0
   -2.6183   -6.4689   -1.0113 C   0  0  0  0  0  0  0  0  0  0  0  0
   -3.5787   -6.0159   -0.1358 O   0  0  0  0  0  0  0  0  0  0  0  0
   -4.0252   -4.7894   -0.5762 C   0  0  0  0  0  0  0  0  0  0  0  0
   -1.2918   -2.6467   -0.3559 N   0  0  0  0  0  0  0  0  0  0  0  0
   -1.2547   -1.3318    0.0173 C   0  0  0  0  0  0  0  0  0  0  0  0
   -0.1025   -0.7082    0.6257 C   0  0  0  0  0  0  0  0  0  0  0  0
   -0.1559   -0.1955    1.9011 C   0  0  0  0  0  0  0  0  0  0  0  0
    0.9958    0.3955    2.4313 C   0  0  0  0  0  0  0  0  0  0  0  0
    2.1298    0.4653    1.7209 N   0  0  0  0  0  0  0  0  0  0  0  0
    2.2130   -0.0211    0.4859 C   0  0  0  0  0  0  0  0  0  0  0  0
    3.3939    0.0317   -0.3020 N   0  0  0  0  0  0  0  0  0  0  0  0
    4.5744    0.6410    0.2273 C   0  0  0  0  0  0  0  0  0  0  0  0
    4.4448    2.1018    0.5468 C   0  0  0  0  0  0  0  0  0  0  0  0
    5.7425    2.5133    1.2540 C   0  0  0  0  0  0  0  0  0  0  0  0
    6.7709    2.3641    0.3443 O   0  0  0  0  0  0  0  0  0  0  0  0
    6.9804    1.0087    0.0727 C   0  0  0  0  0  0  0  0  0  0  0  0
    5.7908    0.4042   -0.6425 C   0  0  0  0  0  0  0  0  0  0  0  0
    1.0810   -0.6131   -0.0619 C   0  0  0  0  0  0  0  0  0  0  0  0
   -2.4329   -0.7822   -0.2807 N   0  0  0  0  0  0  0  0  0  0  0  0
   -2.7674    0.5763   -0.0369 C   0  0  0  0  0  0  0  0  0  0  0  0
   -4.0290    0.8882    0.4305 C   0  0  0  0  0  0  0  0  0  0  0  0
   -4.4259    2.1834    0.6901 C   0  0  0  0  0  0  0  0  0  0  0  0
   -3.5103    3.1881    0.4665 C   0  0  0  0  0  0  0  0  0  0  0  0
   -3.8511    4.5097    0.7091 C   0  0  0  0  0  0  0  0  0  0  0  0
   -2.9538    5.5326    0.4936 C   0  0  0  0  0  0  0  0  0  0  0  0
   -1.6789    5.2827    0.0274 C   0  0  0  0  0  0  0  0  0  0  0  0
   -1.3319    3.9703   -0.2164 C   0  0  0  0  0  0  0  0  0  0  0  0
   -2.2422    2.9388    0.0027 C   0  0  0  0  0  0  0  0  0  0  0  0
   -1.8997    1.6175   -0.2404 C   0  0  0  0  0  0  0  0  0  0  0  0
   -3.2747   -4.0268   -2.4340 H   0  0  0  0  0  0  0  0  0  0  0  0
   -1.4300   -5.3548   -2.3611 H   0  0  0  0  0  0  0  0  0  0  0  0
   -1.0590   -4.9949   -0.5919 H   0  0  0  0  0  0  0  0  0  0  0  0
   -1.9908   -7.2340   -0.5146 H   0  0  0  0  0  0  0  0  0  0  0  0
   -3.1230   -6.8381   -1.9150 H   0  0  0  0  0  0  0  0  0  0  0  0
   -4.9874   -4.8444   -1.1240 H   0  0  0  0  0  0  0  0  0  0  0  0
   -4.1997   -4.1499    0.3146 H   0  0  0  0  0  0  0  0  0  0  0  0
   -1.0456   -0.2297    2.5079 H   0  0  0  0  0  0  0  0  0  0  0  0
    0.9754    0.8009    3.4228 H   0  0  0  0  0  0  0  0  0  0  0  0
    3.3930   -0.3765   -1.2671 H   0  0  0  0  0  0  0  0  0  0  0  0
    4.8010    0.1257    1.2028 H   0  0  0  0  0  0  0  0  0  0  0  0
    3.5763    2.2476    1.2058 H   0  0  0  0  0  0  0  0  0  0  0  0
    4.3289    2.7064   -0.3894 H   0  0  0  0  0  0  0  0  0  0  0  0
    5.8857    1.8016    2.0893 H   0  0  0  0  0  0  0  0  0  0  0  0
    5.6778    3.5617    1.5962 H   0  0  0  0  0  0  0  0  0  0  0  0
    7.1483    0.4162    0.9954 H   0  0  0  0  0  0  0  0  0  0  0  0
    7.8547    0.9501   -0.6095 H   0  0  0  0  0  0  0  0  0  0  0  0
    5.9548   -0.6948   -0.6770 H   0  0  0  0  0  0  0  0  0  0  0  0
    5.6695    0.7697   -1.6619 H   0  0  0  0  0  0  0  0  0  0  0  0
    1.1118   -1.0196   -1.0640 H   0  0  0  0  0  0  0  0  0  0  0  0
   -4.7206    0.0613    0.5930 H   0  0  0  0  0  0  0  0  0  0  0  0
   -5.4135    2.4225    1.0555 H   0  0  0  0  0  0  0  0  0  0  0  0
   -4.8663    4.6852    1.0782 H   0  0  0  0  0  0  0  0  0  0  0  0
   -3.2358    6.5645    0.6886 H   0  0  0  0  0  0  0  0  0  0  0  0
   -0.9625    6.0900   -0.1455 H   0  0  0  0  0  0  0  0  0  0  0  0
   -0.3458    3.7304   -0.5814 H   0  0  0  0  0  0  0  0  0  0  0  0
   -0.9218    1.4139   -0.5991 H   0  0  0  0  0  0  0  0  0  0  0  0
  1  2  2  0
  2  3  1  0
  3  4  1  0
  4  5  1  0
  5  6  1  0
  6  7  1  0
  7  8  1  0
  3  9  1  0
  9 10  2  0
 10 11  1  0
 11 12  2  0
 12 13  1  0
 13 14  2  0
 14 15  1  0
 15 16  1  0
 16 17  1  0
 17 18  1  0
 18 19  1  0
 19 20  1  0
 20 21  1  0
 21 22  1  0
 15 23  2  0
 10 24  1  0
 24 25  1  0
 25 26  2  0
 26 27  1  0
 27 28  2  0
 28 29  1  0
 29 30  2  0
 30 31  1  0
 31 32  2  0
 32 33  1  0
 33 34  2  0
 24  2  1  0
 34 25  1  0
  8  4  1  0
 23 11  1  0
 33 28  1  0
 22 17  1  0
  4 35  1  0
  5 36  1  0
  5 37  1  0
  6 38  1  0
  6 39  1  0
  8 40  1  0
  8 41  1  0
 12 42  1  0
 13 43  1  0
 16 44  1  0
 17 45  1  0
 18 46  1  0
 18 47  1  0
 19 48  1  0
 19 49  1  0
 21 50  1  0
 21 51  1  0
 22 52  1  0
 22 53  1  0
 23 54  1  0
 26 55  1  0
 27 56  1  0
 29 57  1  0
 30 58  1  0
 31 59  1  0
 32 60  1  0
 34 61  1  0
M  END
$$$$
