
     RDKit          3D

 46 48  0  0  0  0  0  0  0  0999 V2000
    6.2266   -0.2313   -1.6760 C   0  0  0  0  0  0  0  0  0  0  0  0
    6.2432    0.8482   -0.6540 C   0  0  0  0  0  0  0  0  0  0  0  0
    5.0018    1.5765   -0.4248 C   0  0  0  0  0  0  0  0  0  0  0  0
    3.7857    0.9846    0.1491 C   0  0  0  0  0  0  0  0  0  0  0  0
    3.0451   -0.3097   -0.6930 S   0  0  0  0  0  6  0  0  0  0  0  0
    2.7329    0.0388   -2.1058 O   0  0  0  0  0  0  0  0  0  0  0  0
    3.9429   -1.5353   -0.6843 O   0  0  0  0  0  0  0  0  0  0  0  0
    1.5649   -0.8521    0.0475 N   0  0  0  0  0  0  0  0  0  0  0  0
    0.5683    0.1617    0.0932 C   0  0  1  0  0  0  0  0  0  0  0  0
   -0.7132   -0.3314   -0.5909 C   0  0  0  0  0  0  0  0  0  0  0  0
   -1.4771    0.0919    0.6266 C   0  0  1  0  0  0  0  0  0  0  0  0
   -2.4435   -0.8288    1.1541 N   0  0  0  0  0  0  0  0  0  0  0  0
   -2.0257   -2.1655    1.5446 C   0  0  0  0  0  0  0  0  0  0  0  0
   -3.7943   -0.4496    1.3084 C   0  0  0  0  0  0  0  0  0  0  0  0
   -4.3792   -0.4167    2.5156 N   0  0  0  0  0  0  0  0  0  0  0  0
   -5.6573   -0.0574    2.6998 C   0  0  0  0  0  0  0  0  0  0  0  0
   -6.3981    0.2869    1.6437 N   0  0  0  0  0  0  0  0  0  0  0  0
   -5.9031    0.2846    0.4025 C   0  0  0  0  0  0  0  0  0  0  0  0
   -6.3988    0.5734   -0.8175 N   0  0  0  0  0  0  0  0  0  0  0  0
   -5.4627    0.4033   -1.7583 C   0  0  0  0  0  0  0  0  0  0  0  0
   -4.3271   -0.0092   -1.1174 C   0  0  0  0  0  0  0  0  0  0  0  0
   -4.5629   -0.0940    0.2250 C   0  0  0  0  0  0  0  0  0  0  0  0
   -0.2098    0.2718    1.4006 C   0  0  0  0  0  0  0  0  0  0  0  0
    5.4051   -0.1886   -2.3826 H   0  0  0  0  0  0  0  0  0  0  0  0
    7.1608   -0.0901   -2.3600 H   0  0  0  0  0  0  0  0  0  0  0  0
    6.4479   -1.2503   -1.2647 H   0  0  0  0  0  0  0  0  0  0  0  0
    7.0585    1.6020   -0.9462 H   0  0  0  0  0  0  0  0  0  0  0  0
    6.5857    0.4286    0.3443 H   0  0  0  0  0  0  0  0  0  0  0  0
    4.7392    2.1094   -1.4326 H   0  0  0  0  0  0  0  0  0  0  0  0
    5.2921    2.5368    0.1705 H   0  0  0  0  0  0  0  0  0  0  0  0
    3.0815    1.8510    0.3594 H   0  0  0  0  0  0  0  0  0  0  0  0
    4.0856    0.5972    1.1978 H   0  0  0  0  0  0  0  0  0  0  0  0
    1.7225   -1.2920    0.9618 H   0  0  0  0  0  0  0  0  0  0  0  0
    0.8246    1.1424   -0.3261 H   0  0  0  0  0  0  0  0  0  0  0  0
   -0.9500    0.1961   -1.5337 H   0  0  0  0  0  0  0  0  0  0  0  0
   -0.7276   -1.4232   -0.7703 H   0  0  0  0  0  0  0  0  0  0  0  0
   -1.9287    1.1037    0.4315 H   0  0  0  0  0  0  0  0  0  0  0  0
   -1.0490   -2.1786    2.0648 H   0  0  0  0  0  0  0  0  0  0  0  0
   -1.9051   -2.8293    0.6541 H   0  0  0  0  0  0  0  0  0  0  0  0
   -2.7666   -2.5601    2.2694 H   0  0  0  0  0  0  0  0  0  0  0  0
   -6.0670   -0.0513    3.6906 H   0  0  0  0  0  0  0  0  0  0  0  0
   -7.3875    0.8897   -1.0051 H   0  0  0  0  0  0  0  0  0  0  0  0
   -5.5632    0.5573   -2.8313 H   0  0  0  0  0  0  0  0  0  0  0  0
   -3.3971   -0.2327   -1.5942 H   0  0  0  0  0  0  0  0  0  0  0  0
    0.0429   -0.4621    2.1623 H   0  0  0  0  0  0  0  0  0  0  0  0
   -0.0635    1.3033    1.8379 H   0  0  0  0  0  0  0  0  0  0  0  0
  1  2  1  0
  2  3  1  0
  3  4  1  0
  4  5  1  0
  5  6  2  0
  5  7  2  0
  5  8  1  0
  8  9  1  0
  9 10  1  0
 10 11  1  0
 11 12  1  0
 12 13  1  0
 12 14  1  0
 14 15  2  0
 15 16  1  0
 16 17  2  0
 17 18  1  0
 18 19  1  0
 19 20  1  0
 20 21  2  0
 21 22  1  0
 11 23  1  0
 23  9  1  0
 22 14  1  0
 22 18  2  0
  1 24  1  0
  1 25  1  0
  1 26  1  0
  2 27  1  0
  2 28  1  0
  3 29  1  0
  3 30  1  0
  4 31  1  0
  4 32  1  0
  8 33  1  0
  9 34  1  6
 10 35  1  0
 10 36  1  0
 11 37  1  6
 13 38  1  0
 13 39  1  0
 13 40  1  0
 16 41  1  0
 19 42  1  0
 20 43  1  0
 21 44  1  0
 23 45  1  0
 23 46  1  0
M  END
$$$$
