
     RDKit          3D

 31 31  0  0  0  0  0  0  0  0999 V2000
   -0.8820   -1.4418   -2.1935 O   0  0  0  0  0  0  0  0  0  0  0  0
    0.1080   -0.8338   -1.9932 N   0  0  0  0  0  0  0  0  0  0  0  0
    0.4181   -0.4687   -0.6508 C   0  0  0  0  0  0  0  0  0  0  0  0
   -0.4912    0.6083   -0.1164 C   0  0  0  0  0  0  0  0  0  0  0  0
   -1.9021    0.2446   -0.0979 C   0  0  0  0  0  0  0  0  0  0  0  0
   -2.4397   -0.3663    1.0137 C   0  0  0  0  0  0  0  0  0  0  0  0
   -3.7773   -0.7301    1.0755 C   0  0  0  0  0  0  0  0  0  0  0  0
   -4.5811   -0.4661   -0.0158 C   0  0  0  0  0  0  0  0  0  0  0  0
   -5.9170   -0.8335    0.0557 O   0  0  0  0  0  0  0  0  0  0  0  0
   -4.0878    0.1351   -1.1307 C   0  0  0  0  0  0  0  0  0  0  0  0
   -5.2788    0.4562   -2.5838 Br  0  0  0  0  0  0  0  0  0  0  0  0
   -2.7525    0.4829   -1.1565 C   0  0  0  0  0  0  0  0  0  0  0  0
    1.8351    0.0417   -0.5677 C   0  0  0  0  0  0  0  0  0  0  0  0
    2.4904    0.0982   -1.6189 O   0  0  0  0  0  0  0  0  0  0  0  0
    2.4203    0.4463    0.6445 N   0  0  0  0  0  0  0  0  0  0  0  0
    3.7262    0.9348    0.8987 C   0  0  0  0  0  0  0  0  0  0  0  0
    4.8941    0.0702    0.6555 C   0  0  0  0  0  0  0  0  0  0  0  0
    5.0526   -0.4259   -1.0579 S   0  0  0  0  0  0  0  0  0  0  0  0
    0.3839   -1.3912   -0.0364 H   0  0  0  0  0  0  0  0  0  0  0  0
   -0.3375    1.5017   -0.7908 H   0  0  0  0  0  0  0  0  0  0  0  0
   -0.0931    0.9261    0.8670 H   0  0  0  0  0  0  0  0  0  0  0  0
   -1.7987   -0.5629    1.8513 H   0  0  0  0  0  0  0  0  0  0  0  0
   -4.1381   -1.2027    1.9678 H   0  0  0  0  0  0  0  0  0  0  0  0
   -6.6347   -0.1117   -0.0028 H   0  0  0  0  0  0  0  0  0  0  0  0
   -2.3803    0.9572   -2.0460 H   0  0  0  0  0  0  0  0  0  0  0  0
    1.7541    0.3589    1.4879 H   0  0  0  0  0  0  0  0  0  0  0  0
    3.9306    1.9026    0.3350 H   0  0  0  0  0  0  0  0  0  0  0  0
    3.7600    1.2758    1.9834 H   0  0  0  0  0  0  0  0  0  0  0  0
    4.9463   -0.8099    1.3552 H   0  0  0  0  0  0  0  0  0  0  0  0
    5.8091    0.7000    0.8880 H   0  0  0  0  0  0  0  0  0  0  0  0
    5.9632   -1.4960   -1.1414 H   0  0  0  0  0  0  0  0  0  0  0  0
  1  2  2  0
  2  3  1  0
  3  4  1  0
  4  5  1  0
  5  6  2  0
  6  7  1  0
  7  8  2  0
  8  9  1  0
  8 10  1  0
 10 11  1  0
 10 12  2  0
  3 13  1  0
 13 14  2  0
 13 15  1  0
 15 16  1  0
 16 17  1  0
 17 18  1  0
 12  5  1  0
  3 19  1  0
  4 20  1  0
  4 21  1  0
  6 22  1  0
  7 23  1  0
  9 24  1  0
 12 25  1  0
 15 26  1  0
 16 27  1  0
 16 28  1  0
 17 29  1  0
 17 30  1  0
 18 31  1  0
M  END
$$$$
