
     RDKit          3D

 72 75  0  0  0  0  0  0  0  0999 V2000
   -7.6834   -4.2012   -0.3107 C   0  0  0  0  0  0  0  0  0  0  0  0
   -6.1947   -4.3012   -0.4987 C   0  0  0  0  0  0  0  0  0  0  0  0
   -5.4843   -3.7793    0.7375 C   0  0  0  0  0  0  0  0  0  0  0  0
   -5.8251   -2.3431    1.0102 C   0  0  0  0  0  0  0  0  0  0  0  0
   -5.4670   -1.4548   -0.0545 N   0  0  0  0  0  0  0  0  0  0  0  0
   -4.1268   -1.2706   -0.5216 C   0  0  0  0  0  0  0  0  0  0  0  0
   -3.6078   -2.0217   -1.5031 N   0  0  0  0  0  0  0  0  0  0  0  0
   -2.3613   -1.8820   -1.9621 C   0  0  0  0  0  0  0  0  0  0  0  0
   -1.4962   -0.9027   -1.4187 C   0  0  0  0  0  0  0  0  0  0  0  0
   -0.0982   -0.9561   -1.8062 C   0  0  0  0  0  0  0  0  0  0  0  0
    0.9478   -0.4060   -1.1700 C   0  0  0  0  0  0  0  0  0  0  0  0
    2.2951   -0.5952   -1.5686 C   0  0  0  0  0  0  0  0  0  0  0  0
    3.3441   -0.0035   -0.8570 N   0  0  0  0  0  0  0  0  0  0  0  0
    4.7124   -0.0435   -1.1646 C   0  0  0  0  0  0  0  0  0  0  0  0
    5.1973   -0.3538   -2.4087 C   0  0  0  0  0  0  0  0  0  0  0  0
    6.5734   -0.4002   -2.6868 C   0  0  0  0  0  0  0  0  0  0  0  0
    7.4640   -0.1240   -1.6753 C   0  0  0  0  0  0  0  0  0  0  0  0
    7.0248    0.1939   -0.4068 C   0  0  0  0  0  0  0  0  0  0  0  0
    8.0222    0.4841    0.6511 C   0  0  0  0  0  0  0  0  0  0  0  0
    7.9430   -0.5458    1.7749 C   0  0  0  0  0  0  0  0  0  0  0  0
    7.8253    1.8429    1.2821 C   0  0  0  0  0  0  0  0  0  0  0  0
    5.6845    0.2226   -0.1983 C   0  0  0  0  0  0  0  0  0  0  0  0
    2.4844   -1.3711   -2.6356 N   0  0  0  0  0  0  0  0  0  0  0  0
    1.4732   -1.9479   -3.3061 C   0  0  0  0  0  0  0  0  0  0  0  0
    0.2337   -1.7378   -2.8931 N   0  0  0  0  0  0  0  0  0  0  0  0
   -2.0298   -0.1477   -0.4384 C   0  0  0  0  0  0  0  0  0  0  0  0
   -1.3595    1.0042    0.0240 N   0  0  0  0  0  0  0  0  0  0  0  0
   -1.8750    1.6812    1.1973 C   0  0  1  0  0  0  0  0  0  0  0  0
   -1.0114    2.9005    1.5534 C   0  0  0  0  0  0  0  0  0  0  0  0
   -1.2691    3.9722    0.5196 C   0  0  0  0  0  0  0  0  0  0  0  0
   -2.6668    4.4998    0.7361 C   0  0  2  0  0  0  0  0  0  0  0  0
   -2.6086    5.6594    1.5041 O   0  0  0  0  0  0  0  0  0  0  0  0
   -3.5581    3.5173    1.4554 C   0  0  0  0  0  0  0  0  0  0  0  0
   -3.3164    2.0980    1.0158 C   0  0  0  0  0  0  0  0  0  0  0  0
   -3.3332   -0.3410    0.0011 N   0  0  0  0  0  0  0  0  0  0  0  0
   -8.1684   -4.9818   -0.9532 H   0  0  0  0  0  0  0  0  0  0  0  0
   -8.0508   -3.1993   -0.5944 H   0  0  0  0  0  0  0  0  0  0  0  0
   -7.9146   -4.3423    0.7545 H   0  0  0  0  0  0  0  0  0  0  0  0
   -5.9514   -5.3739   -0.6342 H   0  0  0  0  0  0  0  0  0  0  0  0
   -5.8304   -3.7141   -1.3587 H   0  0  0  0  0  0  0  0  0  0  0  0
   -4.4062   -3.9615    0.7129 H   0  0  0  0  0  0  0  0  0  0  0  0
   -5.8901   -4.3720    1.6016 H   0  0  0  0  0  0  0  0  0  0  0  0
   -6.8547   -2.2495    1.3462 H   0  0  0  0  0  0  0  0  0  0  0  0
   -5.1877   -2.0413    1.8942 H   0  0  0  0  0  0  0  0  0  0  0  0
   -6.2094   -0.9046   -0.5265 H   0  0  0  0  0  0  0  0  0  0  0  0
   -1.9509   -2.4909   -2.7547 H   0  0  0  0  0  0  0  0  0  0  0  0
    0.8233    0.1615   -0.2698 H   0  0  0  0  0  0  0  0  0  0  0  0
    3.0844    0.5437    0.0219 H   0  0  0  0  0  0  0  0  0  0  0  0
    4.5116   -0.5639   -3.2202 H   0  0  0  0  0  0  0  0  0  0  0  0
    6.9017   -0.6509   -3.6836 H   0  0  0  0  0  0  0  0  0  0  0  0
    8.5398   -0.1595   -1.8913 H   0  0  0  0  0  0  0  0  0  0  0  0
    9.0600    0.4328    0.2711 H   0  0  0  0  0  0  0  0  0  0  0  0
    7.8183   -1.5721    1.3571 H   0  0  0  0  0  0  0  0  0  0  0  0
    7.1278   -0.2847    2.4813 H   0  0  0  0  0  0  0  0  0  0  0  0
    8.8930   -0.4476    2.3504 H   0  0  0  0  0  0  0  0  0  0  0  0
    7.5292    2.5515    0.4985 H   0  0  0  0  0  0  0  0  0  0  0  0
    7.0902    1.7736    2.1134 H   0  0  0  0  0  0  0  0  0  0  0  0
    8.7926    2.1248    1.7504 H   0  0  0  0  0  0  0  0  0  0  0  0
    5.3195    0.4706    0.7932 H   0  0  0  0  0  0  0  0  0  0  0  0
    1.6528   -2.5788   -4.1750 H   0  0  0  0  0  0  0  0  0  0  0  0
   -0.5775    1.4427   -0.4477 H   0  0  0  0  0  0  0  0  0  0  0  0
   -1.8294    1.0373    2.0999 H   0  0  0  0  0  0  0  0  0  0  0  0
    0.0508    2.5684    1.5387 H   0  0  0  0  0  0  0  0  0  0  0  0
   -1.3226    3.2922    2.5348 H   0  0  0  0  0  0  0  0  0  0  0  0
   -1.1331    3.5779   -0.5124 H   0  0  0  0  0  0  0  0  0  0  0  0
   -0.5524    4.8066    0.7103 H   0  0  0  0  0  0  0  0  0  0  0  0
   -3.1165    4.8053   -0.2467 H   0  0  0  0  0  0  0  0  0  0  0  0
   -2.4300    6.4349    0.9284 H   0  0  0  0  0  0  0  0  0  0  0  0
   -3.5132    3.6439    2.5570 H   0  0  0  0  0  0  0  0  0  0  0  0
   -4.6093    3.7671    1.1622 H   0  0  0  0  0  0  0  0  0  0  0  0
   -3.9760    1.4498    1.6253 H   0  0  0  0  0  0  0  0  0  0  0  0
   -3.5726    2.0579   -0.0752 H   0  0  0  0  0  0  0  0  0  0  0  0
  1  2  1  0
  2  3  1  0
  3  4  1  0
  4  5  1  0
  5  6  1  0
  6  7  2  0
  7  8  1  0
  8  9  2  0
  9 10  1  0
 10 11  2  0
 11 12  1  0
 12 13  1  0
 13 14  1  0
 14 15  2  0
 15 16  1  0
 16 17  2  0
 17 18  1  0
 18 19  1  0
 19 20  1  0
 19 21  1  0
 18 22  2  0
 12 23  2  0
 23 24  1  0
 24 25  2  0
  9 26  1  0
 26 27  1  0
 27 28  1  0
 28 29  1  0
 29 30  1  0
 30 31  1  0
 31 32  1  0
 31 33  1  0
 33 34  1  0
 26 35  2  0
 35  6  1  0
 25 10  1  0
 34 28  1  0
 22 14  1  0
  1 36  1  0
  1 37  1  0
  1 38  1  0
  2 39  1  0
  2 40  1  0
  3 41  1  0
  3 42  1  0
  4 43  1  0
  4 44  1  0
  5 45  1  0
  8 46  1  0
 11 47  1  0
 13 48  1  0
 15 49  1  0
 16 50  1  0
 17 51  1  0
 19 52  1  0
 20 53  1  0
 20 54  1  0
 20 55  1  0
 21 56  1  0
 21 57  1  0
 21 58  1  0
 22 59  1  0
 24 60  1  0
 27 61  1  0
 28 62  1  1
 29 63  1  0
 29 64  1  0
 30 65  1  0
 30 66  1  0
 31 67  1  6
 32 68  1  0
 33 69  1  0
 33 70  1  0
 34 71  1  0
 34 72  1  0
M  END
$$$$
