
     RDKit          3D

 61 65  0  0  0  0  0  0  0  0999 V2000
    6.4798    3.9265   -1.0102 O   0  0  0  0  0  0  0  0  0  0  0  0
    6.2374    2.7480   -1.3478 C   0  0  0  0  0  0  0  0  0  0  0  0
    7.1104    2.0500   -2.1472 O   0  0  0  0  0  0  0  0  0  0  0  0
    5.0054    2.1248   -0.8753 C   0  0  0  0  0  0  0  0  0  0  0  0
    4.1255    2.8268   -0.0700 C   0  0  0  0  0  0  0  0  0  0  0  0
    2.9715    2.2012    0.3555 C   0  0  0  0  0  0  0  0  0  0  0  0
    2.6532    0.9096    0.0164 C   0  0  0  0  0  0  0  0  0  0  0  0
    1.4796    0.2691    0.4470 N   0  0  0  0  0  0  0  0  0  0  0  0
    0.2533    0.2909   -0.2591 C   0  0  0  0  0  0  0  0  0  0  0  0
    0.1996    0.9224   -1.3382 O   0  0  0  0  0  0  0  0  0  0  0  0
   -0.9030   -0.4437    0.3291 C   0  0  2  0  0  0  0  0  0  0  0  0
   -0.5203   -1.8743    0.4255 C   0  0  0  0  0  0  0  0  0  0  0  0
   -0.1223   -2.5488   -0.8618 C   0  0  0  0  0  0  0  0  0  0  0  0
   -0.3719   -4.0243   -0.6968 C   0  0  0  0  0  0  0  0  0  0  0  0
    0.2271   -4.4377    0.6309 C   0  0  0  0  0  0  0  0  0  0  0  0
   -0.4881   -3.8901    1.8175 C   0  0  0  0  0  0  0  0  0  0  0  0
   -1.3523   -2.7141    1.3509 C   0  0  0  0  0  0  0  0  0  0  0  0
   -2.1553    0.0645    0.0196 N   0  0  0  0  0  0  0  0  0  0  0  0
   -2.4299    1.3822    0.3961 C   0  0  0  0  0  0  0  0  0  0  0  0
   -1.5863    2.3079    1.0866 C   0  0  0  0  0  0  0  0  0  0  0  0
   -1.3111    2.2358    2.4333 C   0  0  0  0  0  0  0  0  0  0  0  0
   -0.5162    3.1030    3.1140 C   0  0  0  0  0  0  0  0  0  0  0  0
    0.0762    4.1519    2.4199 C   0  0  0  0  0  0  0  0  0  0  0  0
    1.1109    5.2997    3.2492 Cl  0  0  0  0  0  0  0  0  0  0  0  0
   -0.1608    4.2800    1.0636 C   0  0  0  0  0  0  0  0  0  0  0  0
   -0.9741    3.3786    0.4092 C   0  0  0  0  0  0  0  0  0  0  0  0
   -3.6645    1.6153   -0.0198 N   0  0  0  0  0  0  0  0  0  0  0  0
   -4.1897    0.5427   -0.6305 C   0  0  0  0  0  0  0  0  0  0  0  0
   -5.4145    0.2951   -1.2208 C   0  0  0  0  0  0  0  0  0  0  0  0
   -5.6957   -0.9284   -1.7886 C   0  0  0  0  0  0  0  0  0  0  0  0
   -6.9163   -1.1581   -2.3706 F   0  0  0  0  0  0  0  0  0  0  0  0
   -4.7150   -1.8988   -1.7490 C   0  0  0  0  0  0  0  0  0  0  0  0
   -5.0260   -3.1101   -2.3244 F   0  0  0  0  0  0  0  0  0  0  0  0
   -3.4844   -1.6901   -1.1707 C   0  0  0  0  0  0  0  0  0  0  0  0
   -3.2207   -0.4588   -0.6072 C   0  0  0  0  0  0  0  0  0  0  0  0
    3.5308    0.2162   -0.7840 C   0  0  0  0  0  0  0  0  0  0  0  0
    3.3259   -1.0637   -1.1851 F   0  0  0  0  0  0  0  0  0  0  0  0
    4.7108    0.8166   -1.2351 C   0  0  0  0  0  0  0  0  0  0  0  0
    8.0126    2.4255   -2.4603 H   0  0  0  0  0  0  0  0  0  0  0  0
    4.3670    3.8530    0.2061 H   0  0  0  0  0  0  0  0  0  0  0  0
    2.3100    2.7675    0.9768 H   0  0  0  0  0  0  0  0  0  0  0  0
    1.5429   -0.2583    1.3706 H   0  0  0  0  0  0  0  0  0  0  0  0
   -0.7615   -0.1764    1.4812 H   0  0  0  0  0  0  0  0  0  0  0  0
    0.5047   -1.9417    0.9959 H   0  0  0  0  0  0  0  0  0  0  0  0
    0.9971   -2.4825   -1.0657 H   0  0  0  0  0  0  0  0  0  0  0  0
   -0.5347   -2.0999   -1.7757 H   0  0  0  0  0  0  0  0  0  0  0  0
   -1.3960   -4.3527   -0.8306 H   0  0  0  0  0  0  0  0  0  0  0  0
    0.2495   -4.5549   -1.4769 H   0  0  0  0  0  0  0  0  0  0  0  0
    0.2832   -5.5332    0.7303 H   0  0  0  0  0  0  0  0  0  0  0  0
    1.2964   -4.0819    0.6134 H   0  0  0  0  0  0  0  0  0  0  0  0
    0.2338   -3.4592    2.5521 H   0  0  0  0  0  0  0  0  0  0  0  0
   -1.1480   -4.6223    2.3213 H   0  0  0  0  0  0  0  0  0  0  0  0
   -2.2388   -3.1795    0.9650 H   0  0  0  0  0  0  0  0  0  0  0  0
   -1.6072   -2.0574    2.2152 H   0  0  0  0  0  0  0  0  0  0  0  0
   -1.7795    1.4257    2.9337 H   0  0  0  0  0  0  0  0  0  0  0  0
   -0.3292    3.0003    4.1891 H   0  0  0  0  0  0  0  0  0  0  0  0
    0.3195    5.1101    0.5617 H   0  0  0  0  0  0  0  0  0  0  0  0
   -1.1183    3.5355   -0.6518 H   0  0  0  0  0  0  0  0  0  0  0  0
   -6.1289    1.1111   -1.2093 H   0  0  0  0  0  0  0  0  0  0  0  0
   -2.7625   -2.4363   -1.1522 H   0  0  0  0  0  0  0  0  0  0  0  0
    5.4089    0.2897   -1.8617 H   0  0  0  0  0  0  0  0  0  0  0  0
  1  2  2  0
  2  3  1  0
  2  4  1  0
  4  5  2  0
  5  6  1  0
  6  7  2  0
  7  8  1  0
  8  9  1  0
  9 10  2  0
  9 11  1  0
 11 12  1  0
 12 13  1  0
 13 14  1  0
 14 15  1  0
 15 16  1  0
 16 17  1  0
 11 18  1  0
 18 19  1  0
 19 20  1  0
 20 21  2  0
 21 22  1  0
 22 23  2  0
 23 24  1  0
 23 25  1  0
 25 26  2  0
 19 27  2  0
 27 28  1  0
 28 29  2  0
 29 30  1  0
 30 31  1  0
 30 32  2  0
 32 33  1  0
 32 34  1  0
 34 35  2  0
  7 36  1  0
 36 37  1  0
 36 38  2  0
 38  4  1  0
 17 12  1  0
 35 18  1  0
 26 20  1  0
 35 28  1  0
  3 39  1  0
  5 40  1  0
  6 41  1  0
  8 42  1  0
 11 43  1  1
 12 44  1  0
 13 45  1  0
 13 46  1  0
 14 47  1  0
 14 48  1  0
 15 49  1  0
 15 50  1  0
 16 51  1  0
 16 52  1  0
 17 53  1  0
 17 54  1  0
 21 55  1  0
 22 56  1  0
 25 57  1  0
 26 58  1  0
 29 59  1  0
 34 60  1  0
 38 61  1  0
M  END
$$$$
