
     RDKit          3D

 43 45  0  0  0  0  0  0  0  0999 V2000
   -2.7130    0.3713   -2.5154 C   0  0  0  0  0  0  0  0  0  0  0  0
   -2.0850   -0.8555   -1.3327 S   0  0  0  0  0  0  0  0  0  0  0  0
   -0.5947   -0.2831   -0.5427 C   0  0  0  0  0  0  0  0  0  0  0  0
    0.6257   -0.4921   -1.1272 N   0  0  0  0  0  0  0  0  0  0  0  0
    1.5905    0.0167   -0.3668 C   0  0  0  0  0  0  0  0  0  0  0  0
    3.0271    0.0238   -0.6007 C   0  0  0  0  0  0  0  0  0  0  0  0
    3.7770   -1.0572   -0.2339 C   0  0  0  0  0  0  0  0  0  0  0  0
    5.1562   -1.0354   -0.4630 C   0  0  0  0  0  0  0  0  0  0  0  0
    5.7706    0.0562   -1.0514 C   0  0  0  0  0  0  0  0  0  0  0  0
    7.1373    0.0939   -1.2857 O   0  0  0  0  0  0  0  0  0  0  0  0
    8.0205    0.6070   -0.3109 C   0  0  0  0  0  0  0  0  0  0  0  0
    9.3261    0.5604   -0.7216 F   0  0  0  0  0  0  0  0  0  0  0  0
    7.8536   -0.2103    0.8131 F   0  0  0  0  0  0  0  0  0  0  0  0
    7.6564    1.8842    0.0623 F   0  0  0  0  0  0  0  0  0  0  0  0
    4.9686    1.1302   -1.4069 C   0  0  0  0  0  0  0  0  0  0  0  0
    3.5946    1.1218   -1.1846 C   0  0  0  0  0  0  0  0  0  0  0  0
    0.9726    0.5425    0.6924 N   0  0  0  0  0  0  0  0  0  0  0  0
   -0.3881    0.3587    0.5906 N   0  0  0  0  0  0  0  0  0  0  0  0
   -1.2884    0.7985    1.5745 C   0  0  0  0  0  0  0  0  0  0  0  0
   -0.6382    1.4297    2.5546 O   0  0  0  0  0  0  0  0  0  0  0  0
   -2.6365    0.7442    1.7845 N   0  0  0  0  0  0  0  0  0  0  0  0
   -3.1126    1.3835    3.0758 C   0  0  0  0  0  0  0  0  0  0  0  0
   -3.7376    0.2214    1.0813 C   0  0  0  0  0  0  0  0  0  0  0  0
   -4.4481    1.0070    0.2187 C   0  0  0  0  0  0  0  0  0  0  0  0
   -5.5476    0.4912   -0.4218 C   0  0  0  0  0  0  0  0  0  0  0  0
   -5.9369   -0.8047   -0.2020 C   0  0  0  0  0  0  0  0  0  0  0  0
   -5.2486   -1.6171    0.6543 C   0  0  0  0  0  0  0  0  0  0  0  0
   -4.1465   -1.0902    1.2920 C   0  0  0  0  0  0  0  0  0  0  0  0
   -2.1286    0.2545   -3.4530 H   0  0  0  0  0  0  0  0  0  0  0  0
   -3.7644    0.1303   -2.7559 H   0  0  0  0  0  0  0  0  0  0  0  0
   -2.6426    1.4051   -2.1375 H   0  0  0  0  0  0  0  0  0  0  0  0
    3.3495   -1.9491    0.2352 H   0  0  0  0  0  0  0  0  0  0  0  0
    5.7297   -1.9044   -0.1642 H   0  0  0  0  0  0  0  0  0  0  0  0
    5.4671    1.9807   -1.8685 H   0  0  0  0  0  0  0  0  0  0  0  0
    3.0206    1.9862   -1.4830 H   0  0  0  0  0  0  0  0  0  0  0  0
   -2.2953    1.9757    3.4784 H   0  0  0  0  0  0  0  0  0  0  0  0
   -3.9698    2.0028    2.8043 H   0  0  0  0  0  0  0  0  0  0  0  0
   -3.4723    0.5606    3.7303 H   0  0  0  0  0  0  0  0  0  0  0  0
   -4.1411    2.0303    0.0446 H   0  0  0  0  0  0  0  0  0  0  0  0
   -6.1103    1.1291   -1.1087 H   0  0  0  0  0  0  0  0  0  0  0  0
   -6.8046   -1.1727   -0.7238 H   0  0  0  0  0  0  0  0  0  0  0  0
   -5.5924   -2.6407    0.8007 H   0  0  0  0  0  0  0  0  0  0  0  0
   -3.6007   -1.7436    1.9739 H   0  0  0  0  0  0  0  0  0  0  0  0
  1  2  1  0
  2  3  1  0
  3  4  2  0
  4  5  1  0
  5  6  1  0
  6  7  2  0
  7  8  1  0
  8  9  2  0
  9 10  1  0
 10 11  1  0
 11 12  1  0
 11 13  1  0
 11 14  1  0
  9 15  1  0
 15 16  2  0
  5 17  2  0
 17 18  1  0
 18 19  1  0
 19 20  2  0
 19 21  1  0
 21 22  1  0
 21 23  1  0
 23 24  2  0
 24 25  1  0
 25 26  2  0
 26 27  1  0
 27 28  2  0
 18  3  1  0
 28 23  1  0
 16  6  1  0
  1 29  1  0
  1 30  1  0
  1 31  1  0
  7 32  1  0
  8 33  1  0
 15 34  1  0
 16 35  1  0
 22 36  1  0
 22 37  1  0
 22 38  1  0
 24 39  1  0
 25 40  1  0
 26 41  1  0
 27 42  1  0
 28 43  1  0
M  END
$$$$
