
     RDKit          3D

 44 47  0  0  0  0  0  0  0  0999 V2000
   -4.9758    1.5332   -0.9785 C   0  0  0  0  0  0  0  0  0  0  0  0
   -5.2220    0.0873   -0.7752 C   0  0  0  0  0  0  0  0  0  0  0  0
   -6.4511   -0.3759   -1.1606 N   0  0  0  0  0  0  0  0  0  0  0  0
   -6.8061   -1.6547   -0.9871 C   0  0  0  0  0  0  0  0  0  0  0  0
   -8.3649   -2.2955   -1.4627 Cl  0  0  0  0  0  0  0  0  0  0  0  0
   -5.8939   -2.5069   -0.4036 C   0  0  0  0  0  0  0  0  0  0  0  0
   -4.6983   -2.0406   -0.0335 N   0  0  0  0  0  0  0  0  0  0  0  0
   -4.3035   -0.7391   -0.1975 C   0  0  0  0  0  0  0  0  0  0  0  0
   -2.9541   -0.3936    0.2045 C   0  0  0  0  0  0  0  0  0  0  0  0
   -2.3752   -1.1791    1.0600 O   0  0  0  0  0  0  0  0  0  0  0  0
   -2.1625    0.6815   -0.2043 N   0  0  0  0  0  0  0  0  0  0  0  0
   -0.8281    0.8430    0.3386 C   0  0  0  0  0  0  0  0  0  0  0  0
   -0.6325    1.5816    1.4840 C   0  0  0  0  0  0  0  0  0  0  0  0
    0.6497    1.7483    2.0227 C   0  0  0  0  0  0  0  0  0  0  0  0
    1.7047    1.1402    1.3549 C   0  0  0  0  0  0  0  0  0  0  0  0
    2.9590    1.3024    1.8806 F   0  0  0  0  0  0  0  0  0  0  0  0
    1.5341    0.3961    0.2070 C   0  0  0  0  0  0  0  0  0  0  0  0
    2.7488   -0.2008   -0.4037 C   0  0  2  0  0  0  0  0  0  0  0  0
    2.4426   -1.0221   -1.6304 C   0  0  0  0  0  0  0  0  0  0  0  0
    1.8462   -0.3196   -2.6403 F   0  0  0  0  0  0  0  0  0  0  0  0
    1.6939   -2.1497   -1.2833 F   0  0  0  0  0  0  0  0  0  0  0  0
    3.3214   -1.0742    0.5785 N   0  0  0  0  0  0  0  0  0  0  0  0
    4.4972   -1.0457    1.0511 C   0  0  0  0  0  0  0  0  0  0  0  0
    4.9812   -1.9641    2.0340 N   0  0  0  0  0  0  0  0  0  0  0  0
    5.3652   -0.0690    0.5898 O   0  0  0  0  0  0  0  0  0  0  0  0
    4.9647    1.0007   -0.2044 C   0  0  1  0  0  0  0  0  0  0  0  0
    4.8449    0.6992   -1.6706 C   0  0  0  0  0  0  0  0  0  0  0  0
    3.6477    0.9391   -0.8165 C   0  0  1  0  0  0  0  0  0  0  0  0
    0.2592    0.2618   -0.2817 C   0  0  0  0  0  0  0  0  0  0  0  0
   -5.9890    2.0737   -1.0497 H   0  0  0  0  0  0  0  0  0  0  0  0
   -4.5250    1.9803   -0.0822 H   0  0  0  0  0  0  0  0  0  0  0  0
   -4.5067    1.7874   -1.9421 H   0  0  0  0  0  0  0  0  0  0  0  0
   -6.1811   -3.5574   -0.2590 H   0  0  0  0  0  0  0  0  0  0  0  0
   -2.5238    1.3405   -0.9057 H   0  0  0  0  0  0  0  0  0  0  0  0
   -1.5026    2.0264    1.9500 H   0  0  0  0  0  0  0  0  0  0  0  0
    0.7884    2.3281    2.9185 H   0  0  0  0  0  0  0  0  0  0  0  0
    3.4077   -1.4142   -2.0037 H   0  0  0  0  0  0  0  0  0  0  0  0
    4.3056   -2.3381    2.7375 H   0  0  0  0  0  0  0  0  0  0  0  0
    5.9818   -2.2458    2.0394 H   0  0  0  0  0  0  0  0  0  0  0  0
    5.3972    1.9887    0.1087 H   0  0  0  0  0  0  0  0  0  0  0  0
    5.1121   -0.2960   -2.0463 H   0  0  0  0  0  0  0  0  0  0  0  0
    5.1943    1.5203   -2.3343 H   0  0  0  0  0  0  0  0  0  0  0  0
    3.1418    1.9335   -0.9941 H   0  0  0  0  0  0  0  0  0  0  0  0
    0.1068   -0.3109   -1.1674 H   0  0  0  0  0  0  0  0  0  0  0  0
  1  2  1  0
  2  3  2  0
  3  4  1  0
  4  5  1  0
  4  6  2  0
  6  7  1  0
  7  8  2  0
  8  9  1  0
  9 10  2  0
  9 11  1  0
 11 12  1  0
 12 13  2  0
 13 14  1  0
 14 15  2  0
 15 16  1  0
 15 17  1  0
 17 18  1  0
 18 19  1  6
 19 20  1  0
 19 21  1  0
 18 22  1  0
 22 23  2  0
 23 24  1  0
 23 25  1  0
 25 26  1  0
 26 27  1  0
 27 28  1  0
 17 29  2  0
  8  2  1  0
 29 12  1  0
 28 18  1  0
 28 26  1  0
  1 30  1  0
  1 31  1  0
  1 32  1  0
  6 33  1  0
 11 34  1  0
 13 35  1  0
 14 36  1  0
 19 37  1  0
 24 38  1  0
 24 39  1  0
 26 40  1  6
 27 41  1  0
 27 42  1  0
 28 43  1  6
 29 44  1  0
M  END
$$$$
