
     RDKit          3D

 43 44  0  0  0  0  0  0  0  0999 V2000
   -8.7894   -1.6986   -1.3605 O   0  0  0  0  0  0  0  0  0  0  0  0
   -8.1815   -0.8848   -0.4400 C   0  0  0  0  0  0  0  0  0  0  0  0
   -8.8428   -0.5066    0.5580 O   0  0  0  0  0  0  0  0  0  0  0  0
   -6.7794   -0.3861   -0.4989 C   0  0  0  0  0  0  0  0  0  0  0  0
   -6.4710    0.4886    0.7081 C   0  0  0  0  0  0  0  0  0  0  0  0
   -5.0554    0.9866    0.6348 C   0  0  0  0  0  0  0  0  0  0  0  0
   -4.1483   -0.0767    0.6125 O   0  0  0  0  0  0  0  0  0  0  0  0
   -2.7894    0.1681    0.5443 C   0  0  0  0  0  0  0  0  0  0  0  0
   -1.9321   -0.9123    0.5198 C   0  0  0  0  0  0  0  0  0  0  0  0
   -0.5925   -0.6194    0.4493 C   0  0  0  0  0  0  0  0  0  0  0  0
   -0.0633    0.6424    0.4028 C   0  0  0  0  0  0  0  0  0  0  0  0
    1.3403    0.9291    0.3058 N   0  0  0  0  0  0  0  0  0  0  0  0
    2.3107   -0.1498    0.1616 C   0  0  0  0  0  0  0  0  0  0  0  0
    2.1213   -1.3564    0.1061 O   0  0  0  0  0  0  0  0  0  0  0  0
    3.4213    0.6930    0.1158 N   0  0  0  0  0  0  0  0  0  0  0  0
    4.6550   -0.0989   -0.2009 C   0  0  0  0  0  0  0  0  0  0  0  0
    4.6190   -1.3573   -0.3866 O   0  0  0  0  0  0  0  0  0  0  0  0
    6.1320   -0.0193   -0.4232 C   0  0  0  0  0  0  0  0  0  0  0  0
    6.6529    0.0904   -1.7115 C   0  0  0  0  0  0  0  0  0  0  0  0
    8.0309    0.1925   -1.8103 C   0  0  0  0  0  0  0  0  0  0  0  0
    8.7411    0.1757   -0.6341 C   0  0  0  0  0  0  0  0  0  0  0  0
   10.4913    0.3077   -0.7902 Cl  0  0  0  0  0  0  0  0  0  0  0  0
    8.2651    0.0689    0.6465 C   0  0  0  0  0  0  0  0  0  0  0  0
    6.8673   -0.0347    0.7387 C   0  0  0  0  0  0  0  0  0  0  0  0
    6.1531   -0.1736    2.3193 Cl  0  0  0  0  0  0  0  0  0  0  0  0
   -0.9763    1.6584    0.4323 C   0  0  0  0  0  0  0  0  0  0  0  0
   -0.4731    3.3571    0.3796 Cl  0  0  0  0  0  0  0  0  0  0  0  0
   -2.3272    1.4587    0.5017 C   0  0  0  0  0  0  0  0  0  0  0  0
   -9.7984   -1.6237   -1.5853 H   0  0  0  0  0  0  0  0  0  0  0  0
   -6.0349   -1.1920   -0.5892 H   0  0  0  0  0  0  0  0  0  0  0  0
   -6.6810    0.2249   -1.4208 H   0  0  0  0  0  0  0  0  0  0  0  0
   -6.5607   -0.0785    1.6526 H   0  0  0  0  0  0  0  0  0  0  0  0
   -7.1627    1.3460    0.7517 H   0  0  0  0  0  0  0  0  0  0  0  0
   -4.9179    1.5734   -0.3180 H   0  0  0  0  0  0  0  0  0  0  0  0
   -4.8779    1.6995    1.4667 H   0  0  0  0  0  0  0  0  0  0  0  0
   -2.3456   -1.8987    0.5536 H   0  0  0  0  0  0  0  0  0  0  0  0
    0.0082   -1.5096    0.4386 H   0  0  0  0  0  0  0  0  0  0  0  0
    1.5138    1.9800    0.3573 H   0  0  0  0  0  0  0  0  0  0  0  0
    4.1874    1.2715    0.0840 H   0  0  0  0  0  0  0  0  0  0  0  0
    5.9542    0.0887   -2.5269 H   0  0  0  0  0  0  0  0  0  0  0  0
    8.4564    0.2758   -2.7778 H   0  0  0  0  0  0  0  0  0  0  0  0
    8.9069    0.0651    1.5061 H   0  0  0  0  0  0  0  0  0  0  0  0
   -3.0275    2.2764    0.5267 H   0  0  0  0  0  0  0  0  0  0  0  0
  1  2  1  0
  2  3  2  0
  2  4  1  0
  4  5  1  0
  5  6  1  0
  6  7  1  0
  7  8  1  0
  8  9  2  0
  9 10  1  0
 10 11  2  0
 11 12  1  0
 12 13  1  0
 13 14  2  0
 13 15  1  0
 15 16  1  0
 16 17  2  0
 16 18  1  0
 18 19  2  0
 19 20  1  0
 20 21  2  0
 21 22  1  0
 21 23  1  0
 23 24  2  0
 24 25  1  0
 11 26  1  0
 26 27  1  0
 26 28  2  0
 28  8  1  0
 24 18  1  0
  1 29  1  0
  4 30  1  0
  4 31  1  0
  5 32  1  0
  5 33  1  0
  6 34  1  0
  6 35  1  0
  9 36  1  0
 10 37  1  0
 12 38  1  0
 15 39  1  0
 19 40  1  0
 20 41  1  0
 23 42  1  0
 28 43  1  0
M  END
$$$$
