
     RDKit          3D

 42 43  0  0  0  0  0  0  0  0999 V2000
   -2.8214    2.2569    1.0359 C   0  0  0  0  0  0  0  0  0  0  0  0
   -2.6097    0.8296    0.6230 C   0  0  2  0  0  0  0  0  0  0  0  0
   -1.3592    0.6074   -0.0449 N   0  0  0  0  0  0  0  0  0  0  0  0
   -1.0814   -0.8109   -0.0219 C   0  0  2  0  0  0  0  0  0  0  0  0
   -0.0108   -1.2123   -0.9805 C   0  0  0  0  0  0  0  0  0  0  0  0
    1.3078   -0.5571   -0.7371 C   0  0  0  0  0  0  0  0  0  0  0  0
    1.8897   -0.8411    0.6108 C   0  0  0  0  0  0  0  0  0  0  0  0
    3.2031   -0.1108    0.6851 C   0  0  0  0  0  0  0  0  0  0  0  0
    4.3846   -0.7097    0.2823 C   0  0  0  0  0  0  0  0  0  0  0  0
    5.5887   -0.0389    0.3509 C   0  0  0  0  0  0  0  0  0  0  0  0
    5.6435    1.2698    0.8320 C   0  0  0  0  0  0  0  0  0  0  0  0
    4.4863    1.8725    1.2326 C   0  0  0  0  0  0  0  0  0  0  0  0
    3.2945    1.1803    1.1541 C   0  0  0  0  0  0  0  0  0  0  0  0
   -2.3083   -1.6468   -0.2816 C   0  0  1  0  0  0  0  0  0  0  0  0
   -2.8136   -2.2108    0.8948 O   0  0  0  0  0  0  0  0  0  0  0  0
   -3.4203   -0.8762   -0.9372 C   0  0  2  0  0  0  0  0  0  0  0  0
   -3.2034   -0.6286   -2.2798 O   0  0  0  0  0  0  0  0  0  0  0  0
   -3.7466    0.4086   -0.2577 C   0  0  2  0  0  0  0  0  0  0  0  0
   -4.0724    1.4120   -1.1977 O   0  0  0  0  0  0  0  0  0  0  0  0
   -3.3017    2.8725    0.2478 H   0  0  0  0  0  0  0  0  0  0  0  0
   -3.5120    2.2959    1.9197 H   0  0  0  0  0  0  0  0  0  0  0  0
   -1.8625    2.7146    1.3689 H   0  0  0  0  0  0  0  0  0  0  0  0
   -2.6388    0.2056    1.5386 H   0  0  0  0  0  0  0  0  0  0  0  0
   -1.3446    0.9172   -1.0387 H   0  0  0  0  0  0  0  0  0  0  0  0
   -0.7392   -1.0551    1.0073 H   0  0  0  0  0  0  0  0  0  0  0  0
    0.0915   -2.3159   -0.9334 H   0  0  0  0  0  0  0  0  0  0  0  0
   -0.3232   -0.9682   -2.0190 H   0  0  0  0  0  0  0  0  0  0  0  0
    1.2112    0.5411   -0.8595 H   0  0  0  0  0  0  0  0  0  0  0  0
    2.0222   -0.9422   -1.4975 H   0  0  0  0  0  0  0  0  0  0  0  0
    2.1203   -1.8980    0.7695 H   0  0  0  0  0  0  0  0  0  0  0  0
    1.2502   -0.4872    1.4439 H   0  0  0  0  0  0  0  0  0  0  0  0
    4.3778   -1.7128   -0.0918 H   0  0  0  0  0  0  0  0  0  0  0  0
    6.5312   -0.4902    0.0394 H   0  0  0  0  0  0  0  0  0  0  0  0
    6.5815    1.8051    0.8902 H   0  0  0  0  0  0  0  0  0  0  0  0
    4.5313    2.8916    1.6068 H   0  0  0  0  0  0  0  0  0  0  0  0
    2.4066    1.7045    1.4846 H   0  0  0  0  0  0  0  0  0  0  0  0
   -2.0611   -2.4969   -0.9512 H   0  0  0  0  0  0  0  0  0  0  0  0
   -2.8397   -3.1958    0.8676 H   0  0  0  0  0  0  0  0  0  0  0  0
   -4.3346   -1.5305   -0.8750 H   0  0  0  0  0  0  0  0  0  0  0  0
   -2.6007   -1.2532   -2.7232 H   0  0  0  0  0  0  0  0  0  0  0  0
   -4.6565    0.3357    0.4042 H   0  0  0  0  0  0  0  0  0  0  0  0
   -3.2599    1.8681   -1.5352 H   0  0  0  0  0  0  0  0  0  0  0  0
  1  2  1  0
  2  3  1  0
  3  4  1  0
  4  5  1  0
  5  6  1  0
  6  7  1  0
  7  8  1  0
  8  9  2  0
  9 10  1  0
 10 11  2  0
 11 12  1  0
 12 13  2  0
  4 14  1  0
 14 15  1  0
 14 16  1  0
 16 17  1  0
 16 18  1  0
 18 19  1  0
 18  2  1  0
 13  8  1  0
  1 20  1  0
  1 21  1  0
  1 22  1  0
  2 23  1  1
  3 24  1  0
  4 25  1  1
  5 26  1  0
  5 27  1  0
  6 28  1  0
  6 29  1  0
  7 30  1  0
  7 31  1  0
  9 32  1  0
 10 33  1  0
 11 34  1  0
 12 35  1  0
 13 36  1  0
 14 37  1  6
 15 38  1  0
 16 39  1  6
 17 40  1  0
 18 41  1  1
 19 42  1  0
M  END
$$$$
