
     RDKit          3D

 76 80  0  0  0  0  0  0  0  0999 V2000
   -8.6017    3.3502   -3.0778 C   0  0  0  0  0  0  0  0  0  0  0  0
   -9.1463    2.2313   -2.2117 C   0  0  0  0  0  0  0  0  0  0  0  0
   -8.1360    1.5212   -1.5661 O   0  0  0  0  0  0  0  0  0  0  0  0
   -8.3688    0.4533   -0.7029 C   0  0  0  0  0  0  0  0  0  0  0  0
   -9.5758   -0.0519   -0.3626 N   0  0  0  0  0  0  0  0  0  0  0  0
   -9.4632   -1.0622    0.4762 N   0  0  0  0  0  0  0  0  0  0  0  0
  -10.5253   -1.8580    1.0677 C   0  0  0  0  0  0  0  0  0  0  0  0
   -8.1213   -1.2084    0.6800 C   0  0  0  0  0  0  0  0  0  0  0  0
   -7.4057   -0.2828   -0.0371 C   0  0  0  0  0  0  0  0  0  0  0  0
   -6.0163   -0.0500   -0.1393 N   0  0  0  0  0  0  0  0  0  0  0  0
   -5.0212   -0.8055    0.5750 C   0  0  0  0  0  0  0  0  0  0  0  0
   -5.3980   -1.7992    1.3493 N   0  0  0  0  0  0  0  0  0  0  0  0
   -4.5512   -2.5710    2.0869 C   0  0  0  0  0  0  0  0  0  0  0  0
   -3.1990   -2.2445    1.9799 C   0  0  0  0  0  0  0  0  0  0  0  0
   -2.1866   -3.0138    2.7346 C   0  0  0  0  0  0  0  0  0  0  0  0
   -2.7866   -1.2058    1.1724 C   0  0  0  0  0  0  0  0  0  0  0  0
   -1.3668   -0.8926    1.0801 C   0  0  0  0  0  0  0  0  0  0  0  0
   -0.5019   -0.5291    2.0954 C   0  0  0  0  0  0  0  0  0  0  0  0
    0.7239   -0.2998    1.5965 N   0  0  0  0  0  0  0  0  0  0  0  0
    0.7226   -0.4942    0.2820 C   0  0  0  0  0  0  0  0  0  0  0  0
    1.7582   -0.3769   -0.6143 C   0  0  0  0  0  0  0  0  0  0  0  0
    3.0652    0.0237   -0.2480 N   0  0  0  0  0  0  0  0  0  0  0  0
    3.3889    1.3917   -0.3165 C   0  0  0  0  0  0  0  0  0  0  0  0
    2.5063    2.2475   -0.7004 O   0  0  0  0  0  0  0  0  0  0  0  0
    4.6959    1.9523    0.0270 C   0  0  1  0  0  0  0  0  0  0  0  0
    4.5374    2.9402    1.1694 C   0  0  0  0  0  0  0  0  0  0  0  0
    5.7401    1.0195    0.2390 N   0  0  0  0  0  0  0  0  0  0  0  0
    6.1452    0.3481   -0.9511 C   0  0  0  0  0  0  0  0  0  0  0  0
    7.3875   -0.5064   -0.6481 C   0  0  0  0  0  0  0  0  0  0  0  0
    8.5034    0.3777   -0.5300 N   0  0  0  0  0  0  0  0  0  0  0  0
    9.5846   -0.1873    0.2609 C   0  0  0  0  0  0  0  0  0  0  0  0
   10.1914   -1.3352   -0.4875 C   0  0  0  0  0  0  0  0  0  0  0  0
    8.0942    1.6615    0.0014 C   0  0  0  0  0  0  0  0  0  0  0  0
    6.8889    1.5318    0.9236 C   0  0  0  0  0  0  0  0  0  0  0  0
    1.4479   -0.6580   -1.9420 C   0  0  0  0  0  0  0  0  0  0  0  0
    0.1703   -1.0299   -2.3182 C   0  0  0  0  0  0  0  0  0  0  0  0
   -0.8423   -1.1354   -1.3886 C   0  0  0  0  0  0  0  0  0  0  0  0
   -0.5675   -0.8644   -0.0638 C   0  0  0  0  0  0  0  0  0  0  0  0
   -3.7159   -0.4960    0.4749 N   0  0  0  0  0  0  0  0  0  0  0  0
   -8.1405    2.9820   -3.9987 H   0  0  0  0  0  0  0  0  0  0  0  0
   -7.8200    3.9216   -2.5076 H   0  0  0  0  0  0  0  0  0  0  0  0
   -9.3800    4.0864   -3.3372 H   0  0  0  0  0  0  0  0  0  0  0  0
   -9.6916    1.5436   -2.8865 H   0  0  0  0  0  0  0  0  0  0  0  0
   -9.8997    2.6592   -1.5206 H   0  0  0  0  0  0  0  0  0  0  0  0
  -11.3802   -1.9965    0.3827 H   0  0  0  0  0  0  0  0  0  0  0  0
  -10.8392   -1.4468    2.0602 H   0  0  0  0  0  0  0  0  0  0  0  0
  -10.1164   -2.8655    1.2911 H   0  0  0  0  0  0  0  0  0  0  0  0
   -7.7179   -1.9640    1.3284 H   0  0  0  0  0  0  0  0  0  0  0  0
   -5.6945    0.7336   -0.7888 H   0  0  0  0  0  0  0  0  0  0  0  0
   -4.8943   -3.3754    2.7081 H   0  0  0  0  0  0  0  0  0  0  0  0
   -1.2367   -3.1320    2.1738 H   0  0  0  0  0  0  0  0  0  0  0  0
   -2.5506   -4.0623    2.9401 H   0  0  0  0  0  0  0  0  0  0  0  0
   -1.9884   -2.4690    3.6601 H   0  0  0  0  0  0  0  0  0  0  0  0
   -0.8137   -0.4530    3.1282 H   0  0  0  0  0  0  0  0  0  0  0  0
    1.5291   -0.0163    2.1760 H   0  0  0  0  0  0  0  0  0  0  0  0
    3.7474   -0.6692    0.0674 H   0  0  0  0  0  0  0  0  0  0  0  0
    5.0017    2.5801   -0.8658 H   0  0  0  0  0  0  0  0  0  0  0  0
    3.4940    3.3624    1.0927 H   0  0  0  0  0  0  0  0  0  0  0  0
    5.2517    3.7819    1.0117 H   0  0  0  0  0  0  0  0  0  0  0  0
    4.5966    2.4786    2.1663 H   0  0  0  0  0  0  0  0  0  0  0  0
    5.4047   -0.2272   -1.4935 H   0  0  0  0  0  0  0  0  0  0  0  0
    6.5401    1.1391   -1.6571 H   0  0  0  0  0  0  0  0  0  0  0  0
    7.4766   -1.2439   -1.4579 H   0  0  0  0  0  0  0  0  0  0  0  0
    7.1651   -1.0696    0.2804 H   0  0  0  0  0  0  0  0  0  0  0  0
    9.2970   -0.4033    1.2919 H   0  0  0  0  0  0  0  0  0  0  0  0
   10.3616    0.6244    0.3191 H   0  0  0  0  0  0  0  0  0  0  0  0
   10.3855   -2.2134    0.1820 H   0  0  0  0  0  0  0  0  0  0  0  0
   11.1818   -1.0855   -0.9350 H   0  0  0  0  0  0  0  0  0  0  0  0
    9.5530   -1.7159   -1.3192 H   0  0  0  0  0  0  0  0  0  0  0  0
    7.9137    2.3709   -0.8206 H   0  0  0  0  0  0  0  0  0  0  0  0
    8.9238    2.0167    0.6816 H   0  0  0  0  0  0  0  0  0  0  0  0
    7.1656    0.7944    1.7113 H   0  0  0  0  0  0  0  0  0  0  0  0
    6.7609    2.4865    1.4292 H   0  0  0  0  0  0  0  0  0  0  0  0
    2.2492   -0.5746   -2.6764 H   0  0  0  0  0  0  0  0  0  0  0  0
   -0.0560   -1.2453   -3.3510 H   0  0  0  0  0  0  0  0  0  0  0  0
   -1.8337   -1.4247   -1.6836 H   0  0  0  0  0  0  0  0  0  0  0  0
  1  2  1  0
  2  3  1  0
  3  4  1  0
  4  5  2  0
  5  6  1  0
  6  7  1  0
  6  8  1  0
  8  9  2  0
  9 10  1  0
 10 11  1  0
 11 12  2  0
 12 13  1  0
 13 14  2  0
 14 15  1  0
 14 16  1  0
 16 17  1  0
 17 18  2  0
 18 19  1  0
 19 20  1  0
 20 21  2  0
 21 22  1  0
 22 23  1  0
 23 24  2  0
 23 25  1  0
 25 26  1  0
 25 27  1  0
 27 28  1  0
 28 29  1  0
 29 30  1  0
 30 31  1  0
 31 32  1  0
 30 33  1  0
 33 34  1  0
 21 35  1  0
 35 36  2  0
 36 37  1  0
 37 38  2  0
 16 39  2  0
  9  4  1  0
 39 11  1  0
 38 17  1  0
 38 20  1  0
 34 27  1  0
  1 40  1  0
  1 41  1  0
  1 42  1  0
  2 43  1  0
  2 44  1  0
  7 45  1  0
  7 46  1  0
  7 47  1  0
  8 48  1  0
 10 49  1  0
 13 50  1  0
 15 51  1  0
 15 52  1  0
 15 53  1  0
 18 54  1  0
 19 55  1  0
 22 56  1  0
 25 57  1  6
 26 58  1  0
 26 59  1  0
 26 60  1  0
 28 61  1  0
 28 62  1  0
 29 63  1  0
 29 64  1  0
 31 65  1  0
 31 66  1  0
 32 67  1  0
 32 68  1  0
 32 69  1  0
 33 70  1  0
 33 71  1  0
 34 72  1  0
 34 73  1  0
 35 74  1  0
 36 75  1  0
 37 76  1  0
M  END
$$$$
