
     RDKit          3D

 50 53  0  0  0  0  0  0  0  0999 V2000
   -4.1689   -0.8745   -1.2581 C   0  0  0  0  0  0  0  0  0  0  0  0
   -3.4155    0.3182   -0.8123 C   0  0  0  0  0  0  0  0  0  0  0  0
   -2.0639    0.3624   -0.9464 C   0  0  0  0  0  0  0  0  0  0  0  0
   -1.1885   -0.7564   -1.3586 C   0  0  0  0  0  0  0  0  0  0  0  0
   -0.6768   -1.5706   -0.2734 N   0  0  0  0  0  0  0  0  0  0  0  0
   -1.1446   -2.6482    0.3260 C   0  0  0  0  0  0  0  0  0  0  0  0
   -2.3903   -3.4020    0.0383 C   0  0  0  0  0  0  0  0  0  0  0  0
   -0.2442   -3.0624    1.3310 C   0  0  0  0  0  0  0  0  0  0  0  0
    0.7733   -2.1997    1.3075 N   0  0  0  0  0  0  0  0  0  0  0  0
    1.8991   -2.1666    2.0549 C   0  0  0  0  0  0  0  0  0  0  0  0
    2.1452   -2.9960    2.9536 O   0  0  0  0  0  0  0  0  0  0  0  0
    2.7983   -1.1385    1.7733 C   0  0  0  0  0  0  0  0  0  0  0  0
    2.5857   -0.1957    0.7980 C   0  0  0  0  0  0  0  0  0  0  0  0
    3.4878    0.8529    0.4972 N   0  0  0  0  0  0  0  0  0  0  0  0
    4.6506    1.1182    1.2809 C   0  0  0  0  0  0  0  0  0  0  0  0
    5.8644    1.0664    0.3575 C   0  0  0  0  0  0  0  0  0  0  0  0
    5.4620    0.9303   -0.9465 O   0  0  0  0  0  0  0  0  0  0  0  0
    4.5597    1.9280   -1.3463 C   0  0  0  0  0  0  0  0  0  0  0  0
    3.2324    1.6886   -0.6541 C   0  0  0  0  0  0  0  0  0  0  0  0
    1.4173   -0.3123    0.0968 N   0  0  0  0  0  0  0  0  0  0  0  0
    0.5402   -1.2938    0.3541 C   0  0  0  0  0  0  0  0  0  0  0  0
   -1.4319    1.5453   -0.5772 C   0  0  0  0  0  0  0  0  0  0  0  0
   -2.1525    2.6061   -0.0984 C   0  0  0  0  0  0  0  0  0  0  0  0
   -3.5361    2.5252    0.0296 C   0  0  0  0  0  0  0  0  0  0  0  0
   -4.1920    1.3743   -0.3288 C   0  0  0  0  0  0  0  0  0  0  0  0
   -5.6525    1.2831   -0.2473 C   0  0  0  0  0  0  0  0  0  0  0  0
   -6.1542    2.4386    0.3533 F   0  0  0  0  0  0  0  0  0  0  0  0
   -6.1704    0.1892    0.3412 F   0  0  0  0  0  0  0  0  0  0  0  0
   -6.1418    1.3746   -1.5700 F   0  0  0  0  0  0  0  0  0  0  0  0
   -4.5380   -1.4340   -0.3870 H   0  0  0  0  0  0  0  0  0  0  0  0
   -3.5751   -1.5699   -1.8875 H   0  0  0  0  0  0  0  0  0  0  0  0
   -5.0756   -0.5330   -1.8278 H   0  0  0  0  0  0  0  0  0  0  0  0
   -1.6160   -1.3819   -2.1734 H   0  0  0  0  0  0  0  0  0  0  0  0
   -0.2990   -0.2673   -1.8729 H   0  0  0  0  0  0  0  0  0  0  0  0
   -2.2194   -4.4787    0.3971 H   0  0  0  0  0  0  0  0  0  0  0  0
   -3.2560   -3.0778    0.6174 H   0  0  0  0  0  0  0  0  0  0  0  0
   -2.6549   -3.4570   -1.0303 H   0  0  0  0  0  0  0  0  0  0  0  0
   -0.3606   -3.9092    1.9872 H   0  0  0  0  0  0  0  0  0  0  0  0
    3.7324   -1.0930    2.3629 H   0  0  0  0  0  0  0  0  0  0  0  0
    4.5642    2.1783    1.6272 H   0  0  0  0  0  0  0  0  0  0  0  0
    4.7934    0.5114    2.1742 H   0  0  0  0  0  0  0  0  0  0  0  0
    6.5126    1.9711    0.5249 H   0  0  0  0  0  0  0  0  0  0  0  0
    6.5169    0.1990    0.6064 H   0  0  0  0  0  0  0  0  0  0  0  0
    4.9922    2.9347   -1.0721 H   0  0  0  0  0  0  0  0  0  0  0  0
    4.4604    1.8955   -2.4446 H   0  0  0  0  0  0  0  0  0  0  0  0
    2.8835    2.7093   -0.3119 H   0  0  0  0  0  0  0  0  0  0  0  0
    2.4973    1.2544   -1.3618 H   0  0  0  0  0  0  0  0  0  0  0  0
   -0.3489    1.6454   -0.6705 H   0  0  0  0  0  0  0  0  0  0  0  0
   -1.6457    3.5237    0.1787 H   0  0  0  0  0  0  0  0  0  0  0  0
   -4.0557    3.3945    0.4152 H   0  0  0  0  0  0  0  0  0  0  0  0
  1  2  1  0
  2  3  2  0
  3  4  1  0
  4  5  1  0
  5  6  1  0
  6  7  1  0
  6  8  2  0
  8  9  1  0
  9 10  1  0
 10 11  2  0
 10 12  1  0
 12 13  2  0
 13 14  1  0
 14 15  1  0
 15 16  1  0
 16 17  1  0
 17 18  1  0
 18 19  1  0
 13 20  1  0
 20 21  2  0
  3 22  1  0
 22 23  2  0
 23 24  1  0
 24 25  2  0
 25 26  1  0
 26 27  1  0
 26 28  1  0
 26 29  1  0
 25  2  1  0
 21  5  1  0
 21  9  1  0
 19 14  1  0
  1 30  1  0
  1 31  1  0
  1 32  1  0
  4 33  1  0
  4 34  1  0
  7 35  1  0
  7 36  1  0
  7 37  1  0
  8 38  1  0
 12 39  1  0
 15 40  1  0
 15 41  1  0
 16 42  1  0
 16 43  1  0
 18 44  1  0
 18 45  1  0
 19 46  1  0
 19 47  1  0
 22 48  1  0
 23 49  1  0
 24 50  1  0
M  END
$$$$
