
     RDKit          3D

 82 84  0  0  0  0  0  0  0  0999 V2000
    0.4655    3.6126   -0.4649 C   0  0  1  0  0  0  0  0  0  0  0  0
   -0.8081    2.8855   -0.1958 C   0  0  0  0  0  0  0  0  0  0  0  0
   -0.6128    1.5435   -0.7177 N   0  0  0  0  0  0  0  0  0  0  0  0
    0.6502    1.4499   -1.4155 C   0  0  2  0  0  0  0  0  0  0  0  0
    1.5111    0.4892   -0.6270 C   0  0  0  0  0  0  0  0  0  0  0  0
    0.8345    0.2846    0.4211 O   0  0  0  0  0  0  0  0  0  0  0  0
    2.7470    0.0573   -1.1409 N   0  0  0  0  0  0  0  0  0  0  0  0
    3.6111   -0.8653   -0.4096 C   0  0  0  0  0  0  0  0  0  0  0  0
    5.0157   -0.3856   -0.2940 C   0  0  0  0  0  0  0  0  0  0  0  0
    5.1904    0.9265    0.4107 C   0  0  0  0  0  0  0  0  0  0  0  0
    6.6507    1.3253    0.4685 C   0  0  0  0  0  0  0  0  0  0  0  0
    6.5576    1.5194    1.9534 C   0  0  0  0  0  0  0  0  0  0  0  0
    5.1870    0.9107    1.9104 C   0  0  0  0  0  0  0  0  0  0  0  0
    3.5419   -2.2275   -1.0245 C   0  0  0  0  0  0  0  0  0  0  0  0
    2.7006   -1.9220   -1.9366 O   0  0  0  0  0  0  0  0  0  0  0  0
    4.3361   -3.3170   -0.4751 C   0  0  0  0  0  0  0  0  0  0  0  0
    3.9298   -4.3689   -1.3739 N   0  0  0  0  0  0  0  0  0  0  0  0
    5.1473   -3.8928    0.2924 O   0  0  0  0  0  0  0  0  0  0  0  0
    1.3143    2.7596   -1.3937 C   0  0  1  0  0  0  0  0  0  0  0  0
    0.7334    4.0263   -1.8586 C   0  0  0  0  0  0  0  0  0  0  0  0
    1.7124    5.1949   -1.9435 C   0  0  0  0  0  0  0  0  0  0  0  0
   -0.3146    4.0931   -2.9224 C   0  0  0  0  0  0  0  0  0  0  0  0
   -1.6402    0.6653   -0.4382 C   0  0  0  0  0  0  0  0  0  0  0  0
   -2.3675    1.4951    0.2170 O   0  0  0  0  0  0  0  0  0  0  0  0
   -2.2568   -0.6230   -0.5093 C   0  0  1  0  0  0  0  0  0  0  0  0
   -3.5042   -0.5232    0.2761 N   0  0  0  0  0  0  0  0  0  0  0  0
   -3.6940   -1.2504    1.5110 C   0  0  0  0  0  0  0  0  0  0  0  0
   -2.7141   -1.9622    1.8365 O   0  0  0  0  0  0  0  0  0  0  0  0
   -4.9253   -1.1003    2.2200 N   0  0  0  0  0  0  0  0  0  0  0  0
   -4.8775   -1.9251    3.4289 C   0  0  0  0  0  0  0  0  0  0  0  0
   -6.1718   -1.7775    4.1989 C   0  0  0  0  0  0  0  0  0  0  0  0
   -4.6910   -3.3794    3.1531 C   0  0  0  0  0  0  0  0  0  0  0  0
   -3.7972   -1.3584    4.3425 C   0  0  0  0  0  0  0  0  0  0  0  0
   -2.6082   -1.2271   -1.8110 C   0  0  0  0  0  0  0  0  0  0  0  0
   -1.3892   -1.4114   -2.6954 C   0  0  0  0  0  0  0  0  0  0  0  0
   -3.1433   -2.6370   -1.6019 C   0  0  0  0  0  0  0  0  0  0  0  0
   -3.6380   -0.5059   -2.6153 C   0  0  0  0  0  0  0  0  0  0  0  0
    0.9991    4.0855    0.3895 H   0  0  0  0  0  0  0  0  0  0  0  0
   -1.1099    2.9041    0.8726 H   0  0  0  0  0  0  0  0  0  0  0  0
   -1.6155    3.3240   -0.8216 H   0  0  0  0  0  0  0  0  0  0  0  0
    0.5397    1.0058   -2.4376 H   0  0  0  0  0  0  0  0  0  0  0  0
    3.0258    0.4177   -2.0623 H   0  0  0  0  0  0  0  0  0  0  0  0
    3.1736   -0.9764    0.6002 H   0  0  0  0  0  0  0  0  0  0  0  0
    5.5405   -0.3048   -1.2683 H   0  0  0  0  0  0  0  0  0  0  0  0
    5.5601   -1.1518    0.3320 H   0  0  0  0  0  0  0  0  0  0  0  0
    4.5174    1.7069    0.0038 H   0  0  0  0  0  0  0  0  0  0  0  0
    7.3282    0.4668    0.2405 H   0  0  0  0  0  0  0  0  0  0  0  0
    6.8553    2.2008   -0.1547 H   0  0  0  0  0  0  0  0  0  0  0  0
    7.3260    0.9538    2.5464 H   0  0  0  0  0  0  0  0  0  0  0  0
    6.6076    2.6006    2.2000 H   0  0  0  0  0  0  0  0  0  0  0  0
    4.4392    1.5878    2.3826 H   0  0  0  0  0  0  0  0  0  0  0  0
    5.1745   -0.0873    2.4023 H   0  0  0  0  0  0  0  0  0  0  0  0
    3.6371   -5.1268   -2.0241 H   0  0  0  0  0  0  0  0  0  0  0  0
    3.5641   -5.3449   -1.4746 H   0  0  0  0  0  0  0  0  0  0  0  0
    2.4323    2.7338   -1.2286 H   0  0  0  0  0  0  0  0  0  0  0  0
    1.4354    5.9190   -1.1234 H   0  0  0  0  0  0  0  0  0  0  0  0
    2.7380    4.8603   -1.7687 H   0  0  0  0  0  0  0  0  0  0  0  0
    1.6738    5.7182   -2.9175 H   0  0  0  0  0  0  0  0  0  0  0  0
   -0.0805    4.8406   -3.7163 H   0  0  0  0  0  0  0  0  0  0  0  0
   -1.2536    4.4623   -2.4593 H   0  0  0  0  0  0  0  0  0  0  0  0
   -0.5669    3.1082   -3.3603 H   0  0  0  0  0  0  0  0  0  0  0  0
   -1.6164   -1.3434    0.0444 H   0  0  0  0  0  0  0  0  0  0  0  0
   -4.2326    0.1054   -0.1184 H   0  0  0  0  0  0  0  0  0  0  0  0
   -5.6916   -0.4840    1.8744 H   0  0  0  0  0  0  0  0  0  0  0  0
   -6.1699   -2.4623    5.0739 H   0  0  0  0  0  0  0  0  0  0  0  0
   -7.0725   -2.0420    3.6259 H   0  0  0  0  0  0  0  0  0  0  0  0
   -6.2818   -0.7476    4.6193 H   0  0  0  0  0  0  0  0  0  0  0  0
   -4.0324   -3.8124    3.9631 H   0  0  0  0  0  0  0  0  0  0  0  0
   -5.6401   -3.9812    3.2614 H   0  0  0  0  0  0  0  0  0  0  0  0
   -4.2942   -3.6447    2.1750 H   0  0  0  0  0  0  0  0  0  0  0  0
   -3.8622   -0.2542    4.2587 H   0  0  0  0  0  0  0  0  0  0  0  0
   -2.7972   -1.7414    4.1399 H   0  0  0  0  0  0  0  0  0  0  0  0
   -4.0367   -1.5720    5.4259 H   0  0  0  0  0  0  0  0  0  0  0  0
   -0.5275   -1.8560   -2.1768 H   0  0  0  0  0  0  0  0  0  0  0  0
   -1.1511   -0.4665   -3.2444 H   0  0  0  0  0  0  0  0  0  0  0  0
   -1.7001   -2.1569   -3.4835 H   0  0  0  0  0  0  0  0  0  0  0  0
   -4.2554   -2.6380   -1.6578 H   0  0  0  0  0  0  0  0  0  0  0  0
   -2.8251   -3.3383   -2.4043 H   0  0  0  0  0  0  0  0  0  0  0  0
   -2.7773   -3.0660   -0.6560 H   0  0  0  0  0  0  0  0  0  0  0  0
   -3.4977    0.6022   -2.5672 H   0  0  0  0  0  0  0  0  0  0  0  0
   -3.4887   -0.7557   -3.6867 H   0  0  0  0  0  0  0  0  0  0  0  0
   -4.6739   -0.8281   -2.3957 H   0  0  0  0  0  0  0  0  0  0  0  0
  1  2  1  0
  2  3  1  0
  3  4  1  0
  4  5  1  0
  5  6  2  0
  5  7  1  0
  7  8  1  0
  8  9  1  0
  9 10  1  0
 10 11  1  0
 11 12  1  0
 12 13  1  0
  8 14  1  0
 14 15  2  0
 14 16  1  0
 16 17  1  0
 16 18  2  0
  4 19  1  0
 19 20  1  0
 20 21  1  0
 20 22  1  0
  3 23  1  0
 23 24  2  0
 23 25  1  0
 25 26  1  0
 26 27  1  0
 27 28  2  0
 27 29  1  0
 29 30  1  0
 30 31  1  0
 30 32  1  0
 30 33  1  0
 25 34  1  0
 34 35  1  0
 34 36  1  0
 34 37  1  0
 19  1  1  0
 20  1  1  0
 13 10  1  0
  1 38  1  1
  2 39  1  0
  2 40  1  0
  4 41  1  6
  7 42  1  0
  8 43  1  0
  9 44  1  0
  9 45  1  0
 10 46  1  0
 11 47  1  0
 11 48  1  0
 12 49  1  0
 12 50  1  0
 13 51  1  0
 13 52  1  0
 17 53  1  0
 17 54  1  0
 19 55  1  1
 21 56  1  0
 21 57  1  0
 21 58  1  0
 22 59  1  0
 22 60  1  0
 22 61  1  0
 25 62  1  1
 26 63  1  0
 29 64  1  0
 31 65  1  0
 31 66  1  0
 31 67  1  0
 32 68  1  0
 32 69  1  0
 32 70  1  0
 33 71  1  0
 33 72  1  0
 33 73  1  0
 35 74  1  0
 35 75  1  0
 35 76  1  0
 36 77  1  0
 36 78  1  0
 36 79  1  0
 37 80  1  0
 37 81  1  0
 37 82  1  0
M  END
$$$$
