
     RDKit          3D

 43 42  0  0  0  0  0  0  0  0999 V2000
   -5.8410    0.6211    1.2675 C   0  0  0  0  0  0  0  0  0  0  0  0
   -5.4170   -0.3906    0.2605 C   0  0  0  0  0  0  0  0  0  0  0  0
   -4.9853    0.2040   -1.0549 C   0  0  0  0  0  0  0  0  0  0  0  0
   -3.8199    1.1395   -0.9149 C   0  0  0  0  0  0  0  0  0  0  0  0
   -2.5951    0.4998   -0.3497 C   0  0  0  0  0  0  0  0  0  0  0  0
   -2.0592   -0.6341   -1.1500 C   0  0  0  0  0  0  0  0  0  0  0  0
   -0.8367   -1.2100   -0.5090 C   0  0  0  0  0  0  0  0  0  0  0  0
    0.2885   -0.2257   -0.3582 C   0  0  0  0  0  0  0  0  0  0  0  0
    1.4443   -0.9583    0.3024 C   0  0  0  0  0  0  0  0  0  0  0  0
    2.6374   -0.0680    0.5067 C   0  0  0  0  0  0  0  0  0  0  0  0
    3.7258   -0.8519    1.1561 C   0  0  0  0  0  0  0  0  0  0  0  0
    4.9863   -0.0800    1.4209 C   0  0  0  0  0  0  0  0  0  0  0  0
    5.5415    0.4193    0.2641 O   0  0  0  0  0  0  0  0  0  0  0  0
    6.9404    1.2736    0.5767 S   0  0  0  0  0  0  0  0  0  0  0  0
    8.2035    0.2140    0.8581 O   0  0  0  0  0  0  0  0  0  0  0  0
    6.7285    2.1546    1.7942 O   0  0  0  0  0  0  0  0  0  0  0  0
    7.2939    2.1494   -0.5666 O   0  0  0  0  0  0  0  0  0  0  0  0
   -5.0031    0.9209    1.9602 H   0  0  0  0  0  0  0  0  0  0  0  0
   -6.5869    0.1538    1.9439 H   0  0  0  0  0  0  0  0  0  0  0  0
   -6.3301    1.5154    0.8267 H   0  0  0  0  0  0  0  0  0  0  0  0
   -6.2469   -1.1089    0.1072 H   0  0  0  0  0  0  0  0  0  0  0  0
   -4.5810   -0.9701    0.7098 H   0  0  0  0  0  0  0  0  0  0  0  0
   -5.8436    0.7784   -1.4602 H   0  0  0  0  0  0  0  0  0  0  0  0
   -4.7937   -0.6263   -1.7553 H   0  0  0  0  0  0  0  0  0  0  0  0
   -3.5940    1.6004   -1.8978 H   0  0  0  0  0  0  0  0  0  0  0  0
   -4.1035    1.9838   -0.2559 H   0  0  0  0  0  0  0  0  0  0  0  0
   -1.8303    1.2849   -0.1802 H   0  0  0  0  0  0  0  0  0  0  0  0
   -2.8335    0.0914    0.6683 H   0  0  0  0  0  0  0  0  0  0  0  0
   -2.8334   -1.4520   -1.0919 H   0  0  0  0  0  0  0  0  0  0  0  0
   -1.7943   -0.3656   -2.1892 H   0  0  0  0  0  0  0  0  0  0  0  0
   -1.0195   -1.6930    0.4721 H   0  0  0  0  0  0  0  0  0  0  0  0
   -0.4690   -2.0293   -1.1780 H   0  0  0  0  0  0  0  0  0  0  0  0
    0.0271    0.6050    0.3217 H   0  0  0  0  0  0  0  0  0  0  0  0
    0.6693    0.1653   -1.3006 H   0  0  0  0  0  0  0  0  0  0  0  0
    1.1502   -1.3553    1.2889 H   0  0  0  0  0  0  0  0  0  0  0  0
    1.7792   -1.8389   -0.3045 H   0  0  0  0  0  0  0  0  0  0  0  0
    2.9775    0.3255   -0.4813 H   0  0  0  0  0  0  0  0  0  0  0  0
    2.4114    0.8061    1.1302 H   0  0  0  0  0  0  0  0  0  0  0  0
    4.0173   -1.6824    0.4607 H   0  0  0  0  0  0  0  0  0  0  0  0
    3.3535   -1.2939    2.0977 H   0  0  0  0  0  0  0  0  0  0  0  0
    4.8630    0.6941    2.2038 H   0  0  0  0  0  0  0  0  0  0  0  0
    5.7132   -0.8202    1.8436 H   0  0  0  0  0  0  0  0  0  0  0  0
    8.6650    0.0541   -0.0023 H   0  0  0  0  0  0  0  0  0  0  0  0
  1  2  1  0
  2  3  1  0
  3  4  1  0
  4  5  1  0
  5  6  1  0
  6  7  1  0
  7  8  1  0
  8  9  1  0
  9 10  1  0
 10 11  1  0
 11 12  1  0
 12 13  1  0
 13 14  1  0
 14 15  1  0
 14 16  2  0
 14 17  2  0
  1 18  1  0
  1 19  1  0
  1 20  1  0
  2 21  1  0
  2 22  1  0
  3 23  1  0
  3 24  1  0
  4 25  1  0
  4 26  1  0
  5 27  1  0
  5 28  1  0
  6 29  1  0
  6 30  1  0
  7 31  1  0
  7 32  1  0
  8 33  1  0
  8 34  1  0
  9 35  1  0
  9 36  1  0
 10 37  1  0
 10 38  1  0
 11 39  1  0
 11 40  1  0
 12 41  1  0
 12 42  1  0
 15 43  1  0
M  END
$$$$
