
     RDKit          3D

 63 67  0  0  0  0  0  0  0  0999 V2000
    9.6420    1.4732    1.6831 C   0  0  0  0  0  0  0  0  0  0  0  0
    9.4342    0.1896    1.7452 C   0  0  0  0  0  0  0  0  0  0  0  0
    8.1527   -0.3983    1.4319 C   0  0  0  0  0  0  0  0  0  0  0  0
    7.9675   -1.6606    1.4990 O   0  0  0  0  0  0  0  0  0  0  0  0
    7.0600    0.4118    1.0394 N   0  0  0  0  0  0  0  0  0  0  0  0
    5.7755   -0.1746    0.7251 C   0  0  0  0  0  0  0  0  0  0  0  0
    5.5369   -0.5483   -0.5725 C   0  0  0  0  0  0  0  0  0  0  0  0
    4.3040   -1.1158   -0.8897 C   0  0  0  0  0  0  0  0  0  0  0  0
    3.3294   -1.3088    0.0579 C   0  0  0  0  0  0  0  0  0  0  0  0
    1.8222   -2.0232   -0.4167 S   0  0  0  0  0  6  0  0  0  0  0  0
    1.2647   -2.8715    0.7106 O   0  0  0  0  0  0  0  0  0  0  0  0
    2.0428   -2.9936   -1.5687 O   0  0  0  0  0  0  0  0  0  0  0  0
    0.6397   -0.9101   -0.9072 N   0  0  0  0  0  0  0  0  0  0  0  0
    0.2915   -0.0027    0.1639 C   0  0  0  0  0  0  0  0  0  0  0  0
   -0.6315    1.0882   -0.4088 C   0  0  0  0  0  0  0  0  0  0  0  0
   -1.3068    0.4752   -1.5115 N   0  0  0  0  0  0  0  0  0  0  0  0
   -2.6437    0.0700   -1.5496 C   0  0  0  0  0  0  0  0  0  0  0  0
   -2.9766   -0.4690   -2.7004 O   0  0  0  0  0  0  0  0  0  0  0  0
   -3.6925    0.1539   -0.5306 C   0  0  0  0  0  0  0  0  0  0  0  0
   -3.3825   -0.5068    0.7736 C   0  0  0  0  0  0  0  0  0  0  0  0
   -4.6007   -0.4452    1.6750 C   0  0  0  0  0  0  0  0  0  0  0  0
   -5.7875   -1.1389    1.0919 C   0  0  0  0  0  0  0  0  0  0  0  0
   -6.1128   -0.4065   -0.2102 C   0  0  0  0  0  0  0  0  0  0  0  0
   -6.4783    0.9934    0.1511 C   0  0  0  0  0  0  0  0  0  0  0  0
   -5.2377    1.6944    0.7027 C   0  0  0  0  0  0  0  0  0  0  0  0
   -4.8500    1.0101    1.9814 C   0  0  0  0  0  0  0  0  0  0  0  0
   -4.1225    1.5793   -0.3321 C   0  0  0  0  0  0  0  0  0  0  0  0
   -4.9395   -0.5581   -1.1114 C   0  0  0  0  0  0  0  0  0  0  0  0
   -0.4215    0.2808   -2.6987 C   0  0  0  0  0  0  0  0  0  0  0  0
    0.8978   -0.2546   -2.1469 C   0  0  0  0  0  0  0  0  0  0  0  0
    3.5781   -0.9335    1.3433 C   0  0  0  0  0  0  0  0  0  0  0  0
    4.8012   -0.3674    1.6722 C   0  0  0  0  0  0  0  0  0  0  0  0
    8.9301    2.2321    1.4059 H   0  0  0  0  0  0  0  0  0  0  0  0
   10.6369    1.8761    1.9314 H   0  0  0  0  0  0  0  0  0  0  0  0
   10.2679   -0.4525    2.0464 H   0  0  0  0  0  0  0  0  0  0  0  0
    7.1887    1.4365    0.9786 H   0  0  0  0  0  0  0  0  0  0  0  0
    6.2968   -0.4009   -1.3258 H   0  0  0  0  0  0  0  0  0  0  0  0
    4.1083   -1.4134   -1.9131 H   0  0  0  0  0  0  0  0  0  0  0  0
    1.1550    0.4305    0.6657 H   0  0  0  0  0  0  0  0  0  0  0  0
   -0.3069   -0.5647    0.8993 H   0  0  0  0  0  0  0  0  0  0  0  0
    0.0865    1.8802   -0.7757 H   0  0  0  0  0  0  0  0  0  0  0  0
   -1.2083    1.5532    0.3645 H   0  0  0  0  0  0  0  0  0  0  0  0
   -2.5802    0.0010    1.3295 H   0  0  0  0  0  0  0  0  0  0  0  0
   -3.1759   -1.5955    0.6346 H   0  0  0  0  0  0  0  0  0  0  0  0
   -4.3472   -0.9312    2.6540 H   0  0  0  0  0  0  0  0  0  0  0  0
   -5.5112   -2.1797    0.8794 H   0  0  0  0  0  0  0  0  0  0  0  0
   -6.6305   -1.0280    1.7853 H   0  0  0  0  0  0  0  0  0  0  0  0
   -6.9881   -0.9023   -0.6660 H   0  0  0  0  0  0  0  0  0  0  0  0
   -6.9582    1.5590   -0.6527 H   0  0  0  0  0  0  0  0  0  0  0  0
   -7.2034    0.9425    0.9980 H   0  0  0  0  0  0  0  0  0  0  0  0
   -5.4552    2.7638    0.8185 H   0  0  0  0  0  0  0  0  0  0  0  0
   -3.8974    1.4330    2.3550 H   0  0  0  0  0  0  0  0  0  0  0  0
   -5.6127    1.1680    2.7439 H   0  0  0  0  0  0  0  0  0  0  0  0
   -3.3403    2.2762   -0.0064 H   0  0  0  0  0  0  0  0  0  0  0  0
   -4.6139    1.9527   -1.2885 H   0  0  0  0  0  0  0  0  0  0  0  0
   -4.7384   -1.6193   -1.2605 H   0  0  0  0  0  0  0  0  0  0  0  0
   -5.1494   -0.0705   -2.0719 H   0  0  0  0  0  0  0  0  0  0  0  0
   -0.8769   -0.4000   -3.4148 H   0  0  0  0  0  0  0  0  0  0  0  0
   -0.2113    1.2931   -3.0965 H   0  0  0  0  0  0  0  0  0  0  0  0
    1.2603   -1.0011   -2.8718 H   0  0  0  0  0  0  0  0  0  0  0  0
    1.6563    0.5502   -2.0800 H   0  0  0  0  0  0  0  0  0  0  0  0
    2.8465   -1.0573    2.1528 H   0  0  0  0  0  0  0  0  0  0  0  0
    5.0163   -0.0642    2.6841 H   0  0  0  0  0  0  0  0  0  0  0  0
  1  2  2  3
  2  3  1  0
  3  4  2  0
  3  5  1  0
  5  6  1  0
  6  7  2  0
  7  8  1  0
  8  9  2  0
  9 10  1  0
 10 11  2  0
 10 12  2  0
 10 13  1  0
 13 14  1  0
 14 15  1  0
 15 16  1  0
 16 17  1  0
 17 18  2  0
 17 19  1  0
 19 20  1  0
 20 21  1  0
 21 22  1  0
 22 23  1  0
 23 24  1  0
 24 25  1  0
 25 26  1  0
 25 27  1  0
 23 28  1  0
 16 29  1  0
 29 30  1  0
  9 31  1  0
 31 32  2  0
 32  6  1  0
 30 13  1  0
 27 19  1  0
 28 19  1  0
 26 21  1  0
  1 33  1  0
  1 34  1  0
  2 35  1  0
  5 36  1  0
  7 37  1  0
  8 38  1  0
 14 39  1  0
 14 40  1  0
 15 41  1  0
 15 42  1  0
 20 43  1  0
 20 44  1  0
 21 45  1  0
 22 46  1  0
 22 47  1  0
 23 48  1  0
 24 49  1  0
 24 50  1  0
 25 51  1  0
 26 52  1  0
 26 53  1  0
 27 54  1  0
 27 55  1  0
 28 56  1  0
 28 57  1  0
 29 58  1  0
 29 59  1  0
 30 60  1  0
 30 61  1  0
 31 62  1  0
 32 63  1  0
M  END
$$$$
