
     RDKit          3D

 52 54  0  0  0  0  0  0  0  0999 V2000
   -5.7590    1.8050   -1.2442 C   0  0  0  0  0  0  0  0  0  0  0  0
   -4.5645    1.1287   -0.6825 C   0  0  0  0  0  0  0  0  0  0  0  0
   -4.1900   -0.1131   -1.1277 C   0  0  0  0  0  0  0  0  0  0  0  0
   -3.0803   -0.7281   -0.5984 C   0  0  0  0  0  0  0  0  0  0  0  0
   -2.2741   -0.1637    0.3953 C   0  0  0  0  0  0  0  0  0  0  0  0
   -2.7221    1.0814    0.7842 C   0  0  0  0  0  0  0  0  0  0  0  0
   -3.8152    1.7326    0.2902 C   0  0  0  0  0  0  0  0  0  0  0  0
   -4.2399    3.0838    0.7611 C   0  0  0  0  0  0  0  0  0  0  0  0
   -1.1892   -0.7775    0.9214 N   0  0  0  0  0  0  0  0  0  0  0  0
   -0.4283   -0.1006    1.9264 C   0  0  0  0  0  0  0  0  0  0  0  0
    0.6644    0.7296    1.3464 C   0  0  2  0  0  0  0  0  0  0  0  0
    0.1946    1.6864    0.4422 O   0  0  0  0  0  0  0  0  0  0  0  0
    1.7839   -0.0442    0.7303 C   0  0  2  0  0  0  0  0  0  0  0  0
    2.3628   -0.9658    1.5937 O   0  0  0  0  0  0  0  0  0  0  0  0
    2.8782    0.9706    0.3701 C   0  0  2  0  0  0  0  0  0  0  0  0
    2.2750    1.8854   -0.4966 O   0  0  0  0  0  0  0  0  0  0  0  0
    4.0312    0.2636   -0.3199 C   0  0  0  0  0  0  0  0  0  0  0  0
    4.9495    1.2273   -0.6991 O   0  0  0  0  0  0  0  0  0  0  0  0
    6.2904    0.6115   -1.4786 P   0  0  0  0  0  0  0  0  0  0  0  0
    7.6934    1.5076   -1.1681 O   0  0  0  0  0  0  0  0  0  0  0  0
    6.5642   -1.0149   -1.1154 O   0  0  0  0  0  0  0  0  0  0  0  0
    6.0325    0.6987   -2.9767 O   0  0  0  0  0  0  0  0  0  0  0  0
   -0.9933   -1.9849    0.3734 C   0  0  0  0  0  0  0  0  0  0  0  0
    0.0410   -2.7145    0.8121 N   0  0  0  0  0  0  0  0  0  0  0  0
    0.3064   -3.9280    0.3335 C   0  0  0  0  0  0  0  0  0  0  0  0
    1.3078   -4.5274    0.8199 O   0  0  0  0  0  0  0  0  0  0  0  0
   -0.4007   -4.5563   -0.6158 N   0  0  0  0  0  0  0  0  0  0  0  0
   -1.4612   -3.8840   -1.1086 C   0  0  0  0  0  0  0  0  0  0  0  0
   -2.1922   -4.3897   -2.0069 O   0  0  0  0  0  0  0  0  0  0  0  0
   -1.7841   -2.6296   -0.6534 C   0  0  0  0  0  0  0  0  0  0  0  0
   -2.8479   -1.9580   -1.1315 N   0  0  0  0  0  0  0  0  0  0  0  0
   -6.3849    2.2270   -0.4193 H   0  0  0  0  0  0  0  0  0  0  0  0
   -5.4640    2.5926   -1.9633 H   0  0  0  0  0  0  0  0  0  0  0  0
   -6.3674    1.0440   -1.7746 H   0  0  0  0  0  0  0  0  0  0  0  0
   -4.8052   -0.5503   -1.8905 H   0  0  0  0  0  0  0  0  0  0  0  0
   -2.2079    1.6315    1.5564 H   0  0  0  0  0  0  0  0  0  0  0  0
   -4.6752    2.9971    1.7797 H   0  0  0  0  0  0  0  0  0  0  0  0
   -3.3013    3.6976    0.8774 H   0  0  0  0  0  0  0  0  0  0  0  0
   -4.8802    3.5888    0.0382 H   0  0  0  0  0  0  0  0  0  0  0  0
    0.0887   -0.8856    2.5744 H   0  0  0  0  0  0  0  0  0  0  0  0
   -1.0402    0.4554    2.6756 H   0  0  0  0  0  0  0  0  0  0  0  0
    1.0912    1.3313    2.2081 H   0  0  0  0  0  0  0  0  0  0  0  0
    0.0064    1.3233   -0.4571 H   0  0  0  0  0  0  0  0  0  0  0  0
    1.4522   -0.5341   -0.2181 H   0  0  0  0  0  0  0  0  0  0  0  0
    2.7984   -1.7047    1.0930 H   0  0  0  0  0  0  0  0  0  0  0  0
    3.2140    1.4892    1.2839 H   0  0  0  0  0  0  0  0  0  0  0  0
    2.4947    2.8065   -0.2119 H   0  0  0  0  0  0  0  0  0  0  0  0
    3.6147   -0.2417   -1.2224 H   0  0  0  0  0  0  0  0  0  0  0  0
    4.4318   -0.4807    0.3909 H   0  0  0  0  0  0  0  0  0  0  0  0
    7.4796    2.2109   -0.5007 H   0  0  0  0  0  0  0  0  0  0  0  0
    7.1630   -1.4288   -1.7558 H   0  0  0  0  0  0  0  0  0  0  0  0
   -0.1416   -5.5015   -0.9456 H   0  0  0  0  0  0  0  0  0  0  0  0
  1  2  1  0
  2  3  2  0
  3  4  1  0
  4  5  2  0
  5  6  1  0
  6  7  2  0
  7  8  1  0
  5  9  1  0
  9 10  1  0
 10 11  1  0
 11 12  1  0
 11 13  1  0
 13 14  1  0
 13 15  1  0
 15 16  1  0
 15 17  1  0
 17 18  1  0
 18 19  1  0
 19 20  1  0
 19 21  1  0
 19 22  2  0
  9 23  1  0
 23 24  2  0
 24 25  1  0
 25 26  2  0
 25 27  1  0
 27 28  1  0
 28 29  2  0
 28 30  1  0
 30 31  2  0
  7  2  1  0
 30 23  1  0
 31  4  1  0
  1 32  1  0
  1 33  1  0
  1 34  1  0
  3 35  1  0
  6 36  1  0
  8 37  1  0
  8 38  1  0
  8 39  1  0
 10 40  1  0
 10 41  1  0
 11 42  1  1
 12 43  1  0
 13 44  1  6
 14 45  1  0
 15 46  1  1
 16 47  1  0
 17 48  1  0
 17 49  1  0
 20 50  1  0
 21 51  1  0
 27 52  1  0
M  END
$$$$
