
     RDKit          3D

 41 44  0  0  0  0  0  0  0  0999 V2000
   -0.4083    1.2487   -0.5309 O   0  0  0  0  0  0  0  0  0  0  0  0
   -0.7575    0.0607   -0.4292 C   0  0  0  0  0  0  0  0  0  0  0  0
    0.1617   -1.0031   -0.8291 C   0  0  0  0  0  0  0  0  0  0  0  0
    1.3034   -1.2232   -0.0083 N   0  0  0  0  0  0  0  0  0  0  0  0
    1.1936   -2.1173    1.0233 C   0  0  0  0  0  0  0  0  0  0  0  0
    0.0893   -2.6942    1.2001 O   0  0  0  0  0  0  0  0  0  0  0  0
    2.3065   -2.3209    1.7984 C   0  0  0  0  0  0  0  0  0  0  0  0
    3.4806   -1.6491    1.5428 C   0  0  0  0  0  0  0  0  0  0  0  0
    3.5958   -0.7438    0.5011 C   0  0  0  0  0  0  0  0  0  0  0  0
    4.7728   -0.0758    0.2559 C   0  0  0  0  0  0  0  0  0  0  0  0
    4.8753    0.8217   -0.7785 C   0  0  0  0  0  0  0  0  0  0  0  0
    6.1666    1.5263   -1.0061 C   0  0  0  0  0  0  0  0  0  0  0  0
    6.2450    1.8570   -2.3450 F   0  0  0  0  0  0  0  0  0  0  0  0
    7.1836    0.6054   -0.7621 F   0  0  0  0  0  0  0  0  0  0  0  0
    6.2736    2.6546   -0.2485 F   0  0  0  0  0  0  0  0  0  0  0  0
    3.7516    1.0349   -1.5730 C   0  0  0  0  0  0  0  0  0  0  0  0
    2.5907    0.3473   -1.2961 C   0  0  0  0  0  0  0  0  0  0  0  0
    2.4424   -0.5610   -0.2690 C   0  0  0  0  0  0  0  0  0  0  0  0
   -2.0677   -0.1970    0.0796 N   0  0  0  0  0  0  0  0  0  0  0  0
   -2.8979    0.8927    0.4311 C   0  0  0  0  0  0  0  0  0  0  0  0
   -2.1627    2.5247    0.8268 S   0  0  0  0  0  0  0  0  0  0  0  0
   -3.6643    3.3138    1.1504 C   0  0  0  0  0  0  0  0  0  0  0  0
   -4.6515    2.3450    0.9536 C   0  0  0  0  0  0  0  0  0  0  0  0
   -6.5311    2.8451    1.2276 Br  0  0  0  0  0  0  0  0  0  0  0  0
   -4.2092    1.1142    0.5818 C   0  0  0  0  0  0  0  0  0  0  0  0
   -5.2128    0.0465    0.2379 C   0  0  0  0  0  0  0  0  0  0  0  0
   -6.5656    0.1409    0.3745 N   0  0  0  0  0  0  0  0  0  0  0  0
   -7.1832   -0.9167   -0.0543 N   0  0  0  0  0  0  0  0  0  0  0  0
   -6.2585   -1.7628   -0.4973 C   0  0  0  0  0  0  0  0  0  0  0  0
   -5.0483   -1.1457   -0.3064 N   0  0  0  0  0  0  0  0  0  0  0  0
   -0.4226   -1.9973   -0.8554 H   0  0  0  0  0  0  0  0  0  0  0  0
    0.4435   -0.8756   -1.8852 H   0  0  0  0  0  0  0  0  0  0  0  0
    2.2511   -3.0274    2.6242 H   0  0  0  0  0  0  0  0  0  0  0  0
    4.3639   -1.8239    2.1683 H   0  0  0  0  0  0  0  0  0  0  0  0
    5.6554   -0.2323    0.8677 H   0  0  0  0  0  0  0  0  0  0  0  0
    3.8611    1.7484   -2.3738 H   0  0  0  0  0  0  0  0  0  0  0  0
    1.7583    0.5441   -1.9400 H   0  0  0  0  0  0  0  0  0  0  0  0
   -2.3484   -1.1789    0.2157 H   0  0  0  0  0  0  0  0  0  0  0  0
   -3.8275    4.3577    1.4441 H   0  0  0  0  0  0  0  0  0  0  0  0
   -6.3834   -2.7436   -0.9284 H   0  0  0  0  0  0  0  0  0  0  0  0
   -4.1651   -1.5908   -0.5883 H   0  0  0  0  0  0  0  0  0  0  0  0
  1  2  2  0
  2  3  1  0
  3  4  1  0
  4  5  1  0
  5  6  2  0
  5  7  1  0
  7  8  2  0
  8  9  1  0
  9 10  2  0
 10 11  1  0
 11 12  1  0
 12 13  1  0
 12 14  1  0
 12 15  1  0
 11 16  2  0
 16 17  1  0
 17 18  2  0
  2 19  1  0
 19 20  1  0
 20 21  1  0
 21 22  1  0
 22 23  2  0
 23 24  1  0
 23 25  1  0
 25 26  1  0
 26 27  2  0
 27 28  1  0
 28 29  2  0
 29 30  1  0
 18  4  1  0
 25 20  2  0
 30 26  1  0
 18  9  1  0
  3 31  1  0
  3 32  1  0
  7 33  1  0
  8 34  1  0
 10 35  1  0
 16 36  1  0
 17 37  1  0
 19 38  1  0
 22 39  1  0
 29 40  1  0
 30 41  1  0
M  END
$$$$
