
     RDKit          3D

 72 74  0  0  0  0  0  0  0  0999 V2000
    4.1364    4.4425    1.3740 C   0  0  0  0  0  0  0  0  0  0  0  0
    3.3708    4.5047    0.2201 O   0  0  0  0  0  0  0  0  0  0  0  0
    3.3074    3.2338   -0.3083 N   0  0  0  0  0  0  0  0  0  0  0  0
    4.2587    2.7722   -1.2214 C   0  0  0  0  0  0  0  0  0  0  0  0
    5.1908    3.5651   -1.5450 O   0  0  0  0  0  0  0  0  0  0  0  0
    4.2389    1.4630   -1.8061 C   0  0  0  0  0  0  0  0  0  0  0  0
    5.3236    1.0160   -2.5785 C   0  0  0  0  0  0  0  0  0  0  0  0
    5.2704   -0.2285   -3.1214 C   0  0  0  0  0  0  0  0  0  0  0  0
    4.2082   -1.0796   -2.9563 C   0  0  0  0  0  0  0  0  0  0  0  0
    4.2241   -2.4353   -3.5857 C   0  0  0  0  0  0  0  0  0  0  0  0
    3.1130   -0.6692   -2.1959 C   0  0  0  0  0  0  0  0  0  0  0  0
    2.0495   -1.5708   -2.0271 N   0  0  0  0  0  0  0  0  0  0  0  0
    0.8194   -1.3230   -1.4010 C   0  0  0  0  0  0  0  0  0  0  0  0
   -0.0139   -2.3997   -1.1983 N   0  0  0  0  0  0  0  0  0  0  0  0
   -1.2086   -2.2316   -0.6271 C   0  0  0  0  0  0  0  0  0  0  0  0
   -2.0192   -3.3871   -0.4599 N   0  0  0  0  0  0  0  0  0  0  0  0
   -3.0681   -3.6459   -1.4038 C   0  0  0  0  0  0  0  0  0  0  0  0
   -1.7717   -4.2673    0.6395 C   0  0  0  0  0  0  0  0  0  0  0  0
   -2.8164   -4.2911    1.7038 C   0  0  0  0  0  0  0  0  0  0  0  0
   -2.9935   -2.9115    2.3287 C   0  0  0  0  0  0  0  0  0  0  0  0
   -2.3337   -5.2387    2.8120 C   0  0  0  0  0  0  0  0  0  0  0  0
   -4.1412   -4.8174    1.2399 C   0  0  0  0  0  0  0  0  0  0  0  0
   -1.6144   -1.0179   -0.2442 N   0  0  0  0  0  0  0  0  0  0  0  0
   -0.8318    0.0766   -0.4222 C   0  0  0  0  0  0  0  0  0  0  0  0
   -1.3441    1.2946   -0.0056 N   0  0  0  0  0  0  0  0  0  0  0  0
   -2.6005    1.3056    0.7977 C   0  0  0  0  0  0  0  0  0  0  0  0
   -2.8062    2.6401    1.2472 C   0  0  0  0  0  0  0  0  0  0  0  0
   -2.7495    4.0066    1.5626 C   0  0  0  0  0  0  0  0  0  0  0  0
   -1.5315    4.5817    0.8980 N   0  0  0  0  0  0  0  0  0  0  0  0
   -1.0297    5.7095    1.5808 C   0  0  0  0  0  0  0  0  0  0  0  0
   -0.5144    3.5956    0.6387 C   0  0  0  0  0  0  0  0  0  0  0  0
   -0.6728    2.5411   -0.3691 C   0  0  0  0  0  0  0  0  0  0  0  0
    0.3562   -0.1274   -0.9952 N   0  0  0  0  0  0  0  0  0  0  0  0
    3.1628    0.5814   -1.6482 C   0  0  0  0  0  0  0  0  0  0  0  0
    4.7078    5.4126    1.4676 H   0  0  0  0  0  0  0  0  0  0  0  0
    3.5128    4.3216    2.2772 H   0  0  0  0  0  0  0  0  0  0  0  0
    4.8455    3.5965    1.2973 H   0  0  0  0  0  0  0  0  0  0  0  0
    2.5301    2.6223    0.0000 H   0  0  0  0  0  0  0  0  0  0  0  0
    6.1683    1.6951   -2.7081 H   0  0  0  0  0  0  0  0  0  0  0  0
    6.1110   -0.5616   -3.7124 H   0  0  0  0  0  0  0  0  0  0  0  0
    3.2720   -2.6371   -4.1346 H   0  0  0  0  0  0  0  0  0  0  0  0
    4.3488   -3.1793   -2.7762 H   0  0  0  0  0  0  0  0  0  0  0  0
    5.0970   -2.4979   -4.2713 H   0  0  0  0  0  0  0  0  0  0  0  0
    2.1704   -2.5711   -2.4162 H   0  0  0  0  0  0  0  0  0  0  0  0
   -3.9248   -2.9790   -1.1237 H   0  0  0  0  0  0  0  0  0  0  0  0
   -2.8041   -3.3269   -2.4367 H   0  0  0  0  0  0  0  0  0  0  0  0
   -3.3481   -4.7026   -1.4822 H   0  0  0  0  0  0  0  0  0  0  0  0
   -1.6805   -5.3187    0.2290 H   0  0  0  0  0  0  0  0  0  0  0  0
   -0.7869   -4.0890    1.1256 H   0  0  0  0  0  0  0  0  0  0  0  0
   -2.0242   -2.3650    2.2985 H   0  0  0  0  0  0  0  0  0  0  0  0
   -3.7652   -2.3916    1.7090 H   0  0  0  0  0  0  0  0  0  0  0  0
   -3.3816   -3.0312    3.3595 H   0  0  0  0  0  0  0  0  0  0  0  0
   -3.1683   -5.8270    3.2202 H   0  0  0  0  0  0  0  0  0  0  0  0
   -1.6144   -5.9489    2.3728 H   0  0  0  0  0  0  0  0  0  0  0  0
   -1.7872   -4.6776    3.5948 H   0  0  0  0  0  0  0  0  0  0  0  0
   -4.0463   -5.6830    0.5806 H   0  0  0  0  0  0  0  0  0  0  0  0
   -4.8110   -4.0441    0.8202 H   0  0  0  0  0  0  0  0  0  0  0  0
   -4.6767   -5.1887    2.1533 H   0  0  0  0  0  0  0  0  0  0  0  0
   -2.5450    0.5193    1.6057 H   0  0  0  0  0  0  0  0  0  0  0  0
   -3.4474    0.8742    0.1772 H   0  0  0  0  0  0  0  0  0  0  0  0
   -1.7904    2.5390    1.7832 H   0  0  0  0  0  0  0  0  0  0  0  0
   -2.7872    2.9445    0.1322 H   0  0  0  0  0  0  0  0  0  0  0  0
   -2.7494    4.2814    2.6476 H   0  0  0  0  0  0  0  0  0  0  0  0
   -3.6408    4.6115    1.2050 H   0  0  0  0  0  0  0  0  0  0  0  0
    0.0501    5.8409    1.5699 H   0  0  0  0  0  0  0  0  0  0  0  0
   -1.3653    5.7477    2.6595 H   0  0  0  0  0  0  0  0  0  0  0  0
   -1.5199    6.6282    1.1428 H   0  0  0  0  0  0  0  0  0  0  0  0
    0.0541    3.2808    1.5664 H   0  0  0  0  0  0  0  0  0  0  0  0
    0.3002    4.2694    0.1853 H   0  0  0  0  0  0  0  0  0  0  0  0
    0.3258    2.2119   -0.7203 H   0  0  0  0  0  0  0  0  0  0  0  0
   -1.1426    2.9968   -1.2693 H   0  0  0  0  0  0  0  0  0  0  0  0
    2.3444    0.9381   -1.0523 H   0  0  0  0  0  0  0  0  0  0  0  0
  1  2  1  0
  2  3  1  0
  3  4  1  0
  4  5  2  0
  4  6  1  0
  6  7  2  0
  7  8  1  0
  8  9  2  0
  9 10  1  0
  9 11  1  0
 11 12  1  0
 12 13  1  0
 13 14  2  0
 14 15  1  0
 15 16  1  0
 16 17  1  0
 16 18  1  0
 18 19  1  0
 19 20  1  0
 19 21  1  0
 19 22  1  0
 15 23  2  0
 23 24  1  0
 24 25  1  0
 25 26  1  0
 26 27  1  0
 27 28  1  0
 28 29  1  0
 29 30  1  0
 29 31  1  0
 31 32  1  0
 24 33  2  0
 11 34  2  0
 34  6  1  0
 33 13  1  0
 32 25  1  0
  1 35  1  0
  1 36  1  0
  1 37  1  0
  3 38  1  0
  7 39  1  0
  8 40  1  0
 10 41  1  0
 10 42  1  0
 10 43  1  0
 12 44  1  0
 17 45  1  0
 17 46  1  0
 17 47  1  0
 18 48  1  0
 18 49  1  0
 20 50  1  0
 20 51  1  0
 20 52  1  0
 21 53  1  0
 21 54  1  0
 21 55  1  0
 22 56  1  0
 22 57  1  0
 22 58  1  0
 26 59  1  0
 26 60  1  0
 27 61  1  0
 27 62  1  0
 28 63  1  0
 28 64  1  0
 30 65  1  0
 30 66  1  0
 30 67  1  0
 31 68  1  0
 31 69  1  0
 32 70  1  0
 32 71  1  0
 34 72  1  0
M  END
$$$$
