
     RDKit          3D

 46 50  0  0  0  0  0  0  0  0999 V2000
   -3.6733   -1.9468   -2.3163 N   0  0  0  0  0  0  0  0  0  0  0  0
   -3.2535   -2.0944   -1.2270 C   0  0  0  0  0  0  0  0  0  0  0  0
   -2.7572   -2.2941    0.1006 C   0  0  0  0  0  0  0  0  0  0  0  0
   -3.1817   -3.2341    1.0198 C   0  0  0  0  0  0  0  0  0  0  0  0
   -2.4492   -3.0675    2.1288 N   0  0  0  0  0  0  0  0  0  0  0  0
   -1.5786   -2.0420    1.9146 C   0  0  0  0  0  0  0  0  0  0  0  0
   -0.6198   -1.4797    2.7291 C   0  0  0  0  0  0  0  0  0  0  0  0
    0.1209   -0.4342    2.2268 C   0  0  0  0  0  0  0  0  0  0  0  0
   -0.1009    0.0273    0.9428 C   0  0  0  0  0  0  0  0  0  0  0  0
    0.6826    1.1301    0.4184 C   0  0  0  0  0  0  0  0  0  0  0  0
    0.0974    2.3389    0.0290 C   0  0  0  0  0  0  0  0  0  0  0  0
   -1.3300    2.6426    0.0853 C   0  0  0  0  0  0  0  0  0  0  0  0
   -2.0405    2.6902    1.2684 C   0  0  0  0  0  0  0  0  0  0  0  0
   -3.3917    2.9768    1.3058 C   0  0  0  0  0  0  0  0  0  0  0  0
   -4.0940    3.2303    0.1461 C   0  0  0  0  0  0  0  0  0  0  0  0
   -5.4223    3.5166    0.1289 F   0  0  0  0  0  0  0  0  0  0  0  0
   -3.3869    3.1835   -1.0376 C   0  0  0  0  0  0  0  0  0  0  0  0
   -4.2498    3.5008   -2.5305 Cl  0  0  0  0  0  0  0  0  0  0  0  0
   -2.0375    2.8974   -1.0760 C   0  0  0  0  0  0  0  0  0  0  0  0
    1.1155    3.1108   -0.3885 N   0  0  0  0  0  0  0  0  0  0  0  0
    2.2753    2.4076   -0.2617 C   0  0  0  0  0  0  0  0  0  0  0  0
    1.9995    1.1821    0.2382 N   0  0  0  0  0  0  0  0  0  0  0  0
    2.9889    0.1678    0.4920 C   0  0  0  0  0  0  0  0  0  0  0  0
    3.2409   -0.6665   -0.7034 C   0  0  2  0  0  0  0  0  0  0  0  0
    2.0755   -1.4247   -1.2436 C   0  0  0  0  0  0  0  0  0  0  0  0
    2.7835   -2.4735   -2.0914 C   0  0  0  0  0  0  0  0  0  0  0  0
    4.2118   -2.3294   -1.6659 C   0  0  0  0  0  0  0  0  0  0  0  0
    4.1689   -1.6797   -0.4153 O   0  0  0  0  0  0  0  0  0  0  0  0
   -1.0417   -0.5605    0.2102 N   0  0  0  0  0  0  0  0  0  0  0  0
   -1.7569   -1.5579    0.6730 N   0  0  0  0  0  0  0  0  0  0  0  0
   -3.9757   -3.9750    0.8560 H   0  0  0  0  0  0  0  0  0  0  0  0
   -0.4482   -1.8495    3.7473 H   0  0  0  0  0  0  0  0  0  0  0  0
    0.8856    0.0178    2.8712 H   0  0  0  0  0  0  0  0  0  0  0  0
   -1.4851    2.4909    2.1737 H   0  0  0  0  0  0  0  0  0  0  0  0
   -3.9513    3.0140    2.2390 H   0  0  0  0  0  0  0  0  0  0  0  0
   -1.4757    2.8590   -2.0048 H   0  0  0  0  0  0  0  0  0  0  0  0
    3.2483    2.7967   -0.5275 H   0  0  0  0  0  0  0  0  0  0  0  0
    2.7303   -0.4144    1.4044 H   0  0  0  0  0  0  0  0  0  0  0  0
    3.9732    0.6561    0.7652 H   0  0  0  0  0  0  0  0  0  0  0  0
    3.6480    0.0101   -1.5000 H   0  0  0  0  0  0  0  0  0  0  0  0
    1.4541   -1.8976   -0.4657 H   0  0  0  0  0  0  0  0  0  0  0  0
    1.4479   -0.7627   -1.8420 H   0  0  0  0  0  0  0  0  0  0  0  0
    2.6047   -2.2289   -3.1404 H   0  0  0  0  0  0  0  0  0  0  0  0
    2.4131   -3.4789   -1.8307 H   0  0  0  0  0  0  0  0  0  0  0  0
    4.8009   -1.6716   -2.3539 H   0  0  0  0  0  0  0  0  0  0  0  0
    4.7351   -3.2839   -1.4926 H   0  0  0  0  0  0  0  0  0  0  0  0
  1  2  3  0
  2  3  1  0
  3  4  2  0
  4  5  1  0
  5  6  2  0
  6  7  1  0
  7  8  2  0
  8  9  1  0
  9 10  1  0
 10 11  2  0
 11 12  1  0
 12 13  2  0
 13 14  1  0
 14 15  2  0
 15 16  1  0
 15 17  1  0
 17 18  1  0
 17 19  2  0
 11 20  1  0
 20 21  2  0
 21 22  1  0
 22 23  1  0
 23 24  1  0
 24 25  1  0
 25 26  1  0
 26 27  1  0
 27 28  1  0
  9 29  2  0
 29 30  1  0
 30  3  1  0
 30  6  1  0
 22 10  1  0
 28 24  1  0
 19 12  1  0
  4 31  1  0
  7 32  1  0
  8 33  1  0
 13 34  1  0
 14 35  1  0
 19 36  1  0
 21 37  1  0
 23 38  1  0
 23 39  1  0
 24 40  1  6
 25 41  1  0
 25 42  1  0
 26 43  1  0
 26 44  1  0
 27 45  1  0
 27 46  1  0
M  END
$$$$
