
     RDKit          3D

 32 34  0  0  0  0  0  0  0  0999 V2000
   -0.8143   -2.8457   -0.6136 O   0  0  0  0  0  0  0  0  0  0  0  0
   -0.8553   -1.9422    0.2409 C   0  0  0  0  0  0  0  0  0  0  0  0
   -0.0153   -1.9923    1.4651 C   0  0  0  0  0  0  0  0  0  0  0  0
    0.5305   -0.6411    1.8351 C   0  0  1  0  0  0  0  0  0  0  0  0
    1.6127   -0.1754    0.9641 C   0  0  0  0  0  0  0  0  0  0  0  0
    1.9790    1.1543    1.0381 C   0  0  0  0  0  0  0  0  0  0  0  0
    2.9916    1.6567    0.2440 C   0  0  0  0  0  0  0  0  0  0  0  0
    3.6787    0.8633   -0.6519 C   0  0  0  0  0  0  0  0  0  0  0  0
    4.7019    1.3437   -1.4629 O   0  0  0  0  0  0  0  0  0  0  0  0
    3.3107   -0.4644   -0.7237 C   0  0  0  0  0  0  0  0  0  0  0  0
    2.2975   -0.9706    0.0698 C   0  0  0  0  0  0  0  0  0  0  0  0
   -0.5162    0.3036    1.7817 O   0  0  0  0  0  0  0  0  0  0  0  0
   -1.5251    0.2989    0.8567 C   0  0  0  0  0  0  0  0  0  0  0  0
   -2.3485    1.4087    0.7120 C   0  0  0  0  0  0  0  0  0  0  0  0
   -3.3742    1.4283   -0.2150 C   0  0  0  0  0  0  0  0  0  0  0  0
   -4.2025    2.5309   -0.3681 O   0  0  0  0  0  0  0  0  0  0  0  0
   -3.5686    0.3163   -1.0021 C   0  0  0  0  0  0  0  0  0  0  0  0
   -2.7643   -0.7998   -0.8784 C   0  0  0  0  0  0  0  0  0  0  0  0
   -2.9358   -1.9264   -1.6525 O   0  0  0  0  0  0  0  0  0  0  0  0
   -1.7357   -0.8041    0.0597 C   0  0  0  0  0  0  0  0  0  0  0  0
   -0.7231   -2.2779    2.3000 H   0  0  0  0  0  0  0  0  0  0  0  0
    0.7438   -2.7820    1.4452 H   0  0  0  0  0  0  0  0  0  0  0  0
    0.8796   -0.6938    2.8873 H   0  0  0  0  0  0  0  0  0  0  0  0
    1.4698    1.8360    1.7315 H   0  0  0  0  0  0  0  0  0  0  0  0
    3.2900    2.7020    0.2924 H   0  0  0  0  0  0  0  0  0  0  0  0
    5.6275    1.5449   -1.1512 H   0  0  0  0  0  0  0  0  0  0  0  0
    3.8227   -1.1454   -1.4195 H   0  0  0  0  0  0  0  0  0  0  0  0
    1.9927   -2.0116    0.0288 H   0  0  0  0  0  0  0  0  0  0  0  0
   -2.1606    2.2698    1.3557 H   0  0  0  0  0  0  0  0  0  0  0  0
   -3.9041    3.2641   -1.0121 H   0  0  0  0  0  0  0  0  0  0  0  0
   -4.3767    0.3311   -1.7328 H   0  0  0  0  0  0  0  0  0  0  0  0
   -3.1083   -1.7797   -2.6498 H   0  0  0  0  0  0  0  0  0  0  0  0
  1  2  2  0
  2  3  1  0
  3  4  1  0
  4  5  1  0
  5  6  2  0
  6  7  1  0
  7  8  2  0
  8  9  1  0
  8 10  1  0
 10 11  2  0
  4 12  1  0
 12 13  1  0
 13 14  2  0
 14 15  1  0
 15 16  1  0
 15 17  2  0
 17 18  1  0
 18 19  1  0
 18 20  2  0
 20  2  1  0
 11  5  1  0
 20 13  1  0
  3 21  1  0
  3 22  1  0
  4 23  1  1
  6 24  1  0
  7 25  1  0
  9 26  1  0
 10 27  1  0
 11 28  1  0
 14 29  1  0
 16 30  1  0
 17 31  1  0
 19 32  1  0
M  END
$$$$
