
     RDKit          3D

 54 57  0  0  0  0  0  0  0  0999 V2000
   -2.4626    1.1630   -1.7517 C   0  0  0  0  0  0  0  0  0  0  0  0
   -2.7462    1.4605   -0.2804 C   0  0  1  0  0  0  0  0  0  0  0  0
   -4.2358    1.2102   -0.0081 C   0  0  1  0  0  0  0  0  0  0  0  0
   -5.0854    2.3708   -0.3986 C   0  0  0  0  0  0  0  0  0  0  0  0
   -4.5670    0.0466   -0.6541 O   0  0  0  0  0  0  0  0  0  0  0  0
   -3.9616   -1.0601   -0.1190 C   0  0  0  0  0  0  0  0  0  0  0  0
   -3.4926   -1.9301   -1.2910 C   0  0  0  0  0  0  0  0  0  0  0  0
   -4.9420   -1.9051    0.6936 C   0  0  0  0  0  0  0  0  0  0  0  0
   -2.7845   -0.7749    0.7146 C   0  0  0  0  0  0  0  0  0  0  0  0
   -2.3922   -1.5450    1.6208 O   0  0  0  0  0  0  0  0  0  0  0  0
   -2.0466    0.4244    0.4960 N   0  0  0  0  0  0  0  0  0  0  0  0
   -0.7255    0.6234    0.9866 C   0  0  0  0  0  0  0  0  0  0  0  0
    0.4078    0.2954    0.2895 C   0  0  0  0  0  0  0  0  0  0  0  0
    1.6855    0.5036    0.7993 C   0  0  0  0  0  0  0  0  0  0  0  0
    2.8579    0.1329    0.0078 C   0  0  0  0  0  0  0  0  0  0  0  0
    3.0922    0.3723   -1.3273 C   0  0  0  0  0  0  0  0  0  0  0  0
    4.3355   -0.1503   -1.6803 C   0  0  0  0  0  0  0  0  0  0  0  0
    4.9489   -0.0927   -3.0322 C   0  0  0  0  0  0  0  0  0  0  0  0
    4.0865    0.5622   -3.9003 F   0  0  0  0  0  0  0  0  0  0  0  0
    5.2566   -1.3304   -3.5053 F   0  0  0  0  0  0  0  0  0  0  0  0
    6.1148    0.6656   -2.9088 F   0  0  0  0  0  0  0  0  0  0  0  0
    4.8479   -0.7098   -0.5336 C   0  0  0  0  0  0  0  0  0  0  0  0
    6.0440   -1.3587   -0.3257 C   0  0  0  0  0  0  0  0  0  0  0  0
    7.0308   -1.5854   -1.3169 N   0  0  0  0  0  0  0  0  0  0  0  0
    6.2992   -1.8150    0.9122 N   0  0  0  0  0  0  0  0  0  0  0  0
    5.3826   -1.6246    1.9043 C   0  0  0  0  0  0  0  0  0  0  0  0
    4.2316   -0.9884    1.6599 N   0  0  0  0  0  0  0  0  0  0  0  0
    3.9448   -0.5257    0.4573 N   0  0  0  0  0  0  0  0  0  0  0  0
    1.7779    1.0637    2.0579 C   0  0  0  0  0  0  0  0  0  0  0  0
    0.6709    1.4145    2.8068 C   0  0  0  0  0  0  0  0  0  0  0  0
   -0.5660    1.1810    2.2417 C   0  0  0  0  0  0  0  0  0  0  0  0
   -1.7579    1.5341    2.9931 C   0  0  0  0  0  0  0  0  0  0  0  0
   -2.6846    1.8071    3.5996 N   0  0  0  0  0  0  0  0  0  0  0  0
   -2.0271    2.0708   -2.2168 H   0  0  0  0  0  0  0  0  0  0  0  0
   -3.3971    0.8588   -2.2732 H   0  0  0  0  0  0  0  0  0  0  0  0
   -1.7115    0.3577   -1.8715 H   0  0  0  0  0  0  0  0  0  0  0  0
   -2.4458    2.4683    0.0050 H   0  0  0  0  0  0  0  0  0  0  0  0
   -4.2965    1.0122    1.0970 H   0  0  0  0  0  0  0  0  0  0  0  0
   -5.5916    2.2675   -1.3614 H   0  0  0  0  0  0  0  0  0  0  0  0
   -4.4020    3.2639   -0.4924 H   0  0  0  0  0  0  0  0  0  0  0  0
   -5.8003    2.6684    0.4224 H   0  0  0  0  0  0  0  0  0  0  0  0
   -2.3791   -1.9038   -1.3816 H   0  0  0  0  0  0  0  0  0  0  0  0
   -3.7999   -2.9768   -1.1758 H   0  0  0  0  0  0  0  0  0  0  0  0
   -3.8856   -1.5549   -2.2556 H   0  0  0  0  0  0  0  0  0  0  0  0
   -5.8179   -1.3078    0.9953 H   0  0  0  0  0  0  0  0  0  0  0  0
   -5.2902   -2.7854    0.0955 H   0  0  0  0  0  0  0  0  0  0  0  0
   -4.4598   -2.3230    1.5975 H   0  0  0  0  0  0  0  0  0  0  0  0
    0.3175   -0.1405   -0.6906 H   0  0  0  0  0  0  0  0  0  0  0  0
    2.4184    0.8841   -1.9947 H   0  0  0  0  0  0  0  0  0  0  0  0
    7.0679   -2.4728   -1.9024 H   0  0  0  0  0  0  0  0  0  0  0  0
    7.7895   -0.9051   -1.5388 H   0  0  0  0  0  0  0  0  0  0  0  0
    5.6108   -1.9997    2.8877 H   0  0  0  0  0  0  0  0  0  0  0  0
    2.7709    1.2249    2.4526 H   0  0  0  0  0  0  0  0  0  0  0  0
    0.7645    1.8579    3.8040 H   0  0  0  0  0  0  0  0  0  0  0  0
  1  2  1  0
  2  3  1  0
  3  4  1  0
  3  5  1  0
  5  6  1  0
  6  7  1  0
  6  8  1  0
  6  9  1  0
  9 10  2  0
  9 11  1  0
 11 12  1  0
 12 13  2  0
 13 14  1  0
 14 15  1  0
 15 16  2  0
 16 17  1  0
 17 18  1  0
 18 19  1  0
 18 20  1  0
 18 21  1  0
 17 22  2  0
 22 23  1  0
 23 24  1  0
 23 25  2  0
 25 26  1  0
 26 27  2  0
 27 28  1  0
 14 29  2  0
 29 30  1  0
 30 31  2  0
 31 32  1  0
 32 33  3  0
 11  2  1  0
 31 12  1  0
 28 15  1  0
 28 22  1  0
  1 34  1  0
  1 35  1  0
  1 36  1  0
  2 37  1  1
  3 38  1  1
  4 39  1  0
  4 40  1  0
  4 41  1  0
  7 42  1  0
  7 43  1  0
  7 44  1  0
  8 45  1  0
  8 46  1  0
  8 47  1  0
 13 48  1  0
 16 49  1  0
 24 50  1  0
 24 51  1  0
 26 52  1  0
 29 53  1  0
 30 54  1  0
M  END
$$$$
