
     RDKit          3D

 47 48  0  0  0  0  0  0  0  0999 V2000
    8.3296    0.4076   -0.4513 C   0  0  0  0  0  0  0  0  0  0  0  0
    8.0107   -0.7618    0.4461 C   0  0  0  0  0  0  0  0  0  0  0  0
    6.6938   -0.5195    1.1383 C   0  0  0  0  0  0  0  0  0  0  0  0
    5.6292   -0.3709    0.0723 C   0  0  0  0  0  0  0  0  0  0  0  0
    4.2442   -0.1194    0.6852 C   0  0  0  0  0  0  0  0  0  0  0  0
    3.3590   -0.0022   -0.4142 O   0  0  0  0  0  0  0  0  0  0  0  0
    2.0196    0.2325   -0.1156 C   0  0  0  0  0  0  0  0  0  0  0  0
    1.8223    0.3020    1.1272 O   0  0  0  0  0  0  0  0  0  0  0  0
    1.1060    0.3555   -1.1792 N   0  0  0  0  0  0  0  0  0  0  0  0
   -0.2620    0.5955   -0.8633 C   0  0  0  0  0  0  0  0  0  0  0  0
   -0.9915   -0.5282   -0.7068 N   0  0  0  0  0  0  0  0  0  0  0  0
   -2.3025   -0.4854   -0.4058 C   0  0  0  0  0  0  0  0  0  0  0  0
   -2.9687   -1.5419   -0.2632 O   0  0  0  0  0  0  0  0  0  0  0  0
   -2.9135    0.6992   -0.2544 N   0  0  0  0  0  0  0  0  0  0  0  0
   -2.2300    1.8698   -0.3999 C   0  0  0  0  0  0  0  0  0  0  0  0
   -0.8852    1.8233   -0.7086 C   0  0  0  0  0  0  0  0  0  0  0  0
   -0.0863    2.9026   -0.8815 F   0  0  0  0  0  0  0  0  0  0  0  0
   -4.3193    0.7417    0.0683 C   0  0  2  0  0  0  0  0  0  0  0  0
   -4.6664   -0.1654    1.0590 O   0  0  0  0  0  0  0  0  0  0  0  0
   -6.0611   -0.1179    1.0596 C   0  0  2  0  0  0  0  0  0  0  0  0
   -6.6596   -1.2225    1.8999 C   0  0  0  0  0  0  0  0  0  0  0  0
   -6.3937   -0.2921   -0.4148 C   0  0  1  0  0  0  0  0  0  0  0  0
   -7.5828    0.3470   -0.7141 O   0  0  0  0  0  0  0  0  0  0  0  0
   -5.1881    0.3272   -1.0853 C   0  0  1  0  0  0  0  0  0  0  0  0
   -5.5596    1.4280   -1.8490 O   0  0  0  0  0  0  0  0  0  0  0  0
    9.4203    0.6441   -0.3137 H   0  0  0  0  0  0  0  0  0  0  0  0
    7.7592    1.3315   -0.1767 H   0  0  0  0  0  0  0  0  0  0  0  0
    8.1642    0.1045   -1.5020 H   0  0  0  0  0  0  0  0  0  0  0  0
    7.9333   -1.6897   -0.1485 H   0  0  0  0  0  0  0  0  0  0  0  0
    8.7695   -0.8389    1.2550 H   0  0  0  0  0  0  0  0  0  0  0  0
    6.7611    0.3783    1.7724 H   0  0  0  0  0  0  0  0  0  0  0  0
    6.4300   -1.3552    1.8037 H   0  0  0  0  0  0  0  0  0  0  0  0
    5.9351    0.4962   -0.5473 H   0  0  0  0  0  0  0  0  0  0  0  0
    5.5539   -1.2527   -0.5638 H   0  0  0  0  0  0  0  0  0  0  0  0
    3.9890   -0.9136    1.3927 H   0  0  0  0  0  0  0  0  0  0  0  0
    4.2688    0.8514    1.2575 H   0  0  0  0  0  0  0  0  0  0  0  0
    1.4561    0.2679   -2.1587 H   0  0  0  0  0  0  0  0  0  0  0  0
   -2.6850    2.8478   -0.2862 H   0  0  0  0  0  0  0  0  0  0  0  0
   -4.6322    1.7573    0.3541 H   0  0  0  0  0  0  0  0  0  0  0  0
   -6.3269    0.8855    1.4344 H   0  0  0  0  0  0  0  0  0  0  0  0
   -6.6703   -2.1440    1.3156 H   0  0  0  0  0  0  0  0  0  0  0  0
   -6.0395   -1.3266    2.8320 H   0  0  0  0  0  0  0  0  0  0  0  0
   -7.6810   -0.9346    2.2165 H   0  0  0  0  0  0  0  0  0  0  0  0
   -6.4695   -1.3771   -0.5968 H   0  0  0  0  0  0  0  0  0  0  0  0
   -7.6702    0.4839   -1.6786 H   0  0  0  0  0  0  0  0  0  0  0  0
   -4.6826   -0.4172   -1.7468 H   0  0  0  0  0  0  0  0  0  0  0  0
   -5.7273    1.1197   -2.7639 H   0  0  0  0  0  0  0  0  0  0  0  0
  1  2  1  0
  2  3  1  0
  3  4  1  0
  4  5  1  0
  5  6  1  0
  6  7  1  0
  7  8  2  0
  7  9  1  0
  9 10  1  0
 10 11  2  0
 11 12  1  0
 12 13  2  0
 12 14  1  0
 14 15  1  0
 15 16  2  0
 16 17  1  0
 14 18  1  0
 18 19  1  0
 19 20  1  0
 20 21  1  0
 20 22  1  0
 22 23  1  0
 22 24  1  0
 24 25  1  0
 16 10  1  0
 24 18  1  0
  1 26  1  0
  1 27  1  0
  1 28  1  0
  2 29  1  0
  2 30  1  0
  3 31  1  0
  3 32  1  0
  4 33  1  0
  4 34  1  0
  5 35  1  0
  5 36  1  0
  9 37  1  0
 15 38  1  0
 18 39  1  1
 20 40  1  1
 21 41  1  0
 21 42  1  0
 21 43  1  0
 22 44  1  1
 23 45  1  0
 24 46  1  6
 25 47  1  0
M  END
$$$$
