
     RDKit          3D

 62 67  0  0  0  0  0  0  0  0999 V2000
   -1.7686    0.6398    5.8120 C   0  0  0  0  0  0  0  0  0  0  0  0
   -0.8570    0.6354    4.6984 O   0  0  0  0  0  0  0  0  0  0  0  0
   -1.4459    0.3543    3.4532 C   0  0  0  0  0  0  0  0  0  0  0  0
   -2.7584    0.1028    3.3401 N   0  0  0  0  0  0  0  0  0  0  0  0
   -3.3268   -0.1678    2.1490 C   0  0  0  0  0  0  0  0  0  0  0  0
   -4.7610   -0.4341    2.0823 C   0  0  0  0  0  0  0  0  0  0  0  0
   -5.5147   -0.3842    3.1472 C   0  0  0  0  0  0  0  0  0  0  0  0
   -6.9686   -0.6460    3.1355 C   0  0  0  0  0  0  0  0  0  0  0  0
   -7.4635   -0.6067    1.8706 O   0  0  0  0  0  0  0  0  0  0  0  0
   -6.7535   -1.3240    0.9272 C   0  0  0  0  0  0  0  0  0  0  0  0
   -5.3468   -0.7811    0.7733 C   0  0  0  0  0  0  0  0  0  0  0  0
   -2.5096   -0.1761    1.0440 C   0  0  0  0  0  0  0  0  0  0  0  0
   -1.1359    0.0763    1.0787 C   0  0  0  0  0  0  0  0  0  0  0  0
   -0.6161    0.3485    2.3586 C   0  0  0  0  0  0  0  0  0  0  0  0
    0.7203    0.6104    2.5442 O   0  0  0  0  0  0  0  0  0  0  0  0
    1.5578    0.6022    1.4389 C   0  0  0  0  0  0  0  0  0  0  0  0
    2.9260    0.8549    1.6025 C   0  0  0  0  0  0  0  0  0  0  0  0
    3.7933    0.8479    0.5290 C   0  0  0  0  0  0  0  0  0  0  0  0
    3.3621    0.5941   -0.7526 C   0  0  0  0  0  0  0  0  0  0  0  0
    4.2003    0.5177   -1.9033 N   0  0  0  0  0  0  0  0  0  0  0  0
    5.6051    0.5153   -1.9245 C   0  0  0  0  0  0  0  0  0  0  0  0
    6.2536    0.5838   -0.8832 O   0  0  0  0  0  0  0  0  0  0  0  0
    6.3382    0.4229   -3.2111 C   0  0  0  0  0  0  0  0  0  0  0  0
    7.7012    0.3462   -3.2934 C   0  0  0  0  0  0  0  0  0  0  0  0
    8.3599    0.2335   -4.5195 C   0  0  0  0  0  0  0  0  0  0  0  0
    7.6465    0.1970   -5.6877 C   0  0  0  0  0  0  0  0  0  0  0  0
    8.2575    0.0892   -6.8929 F   0  0  0  0  0  0  0  0  0  0  0  0
    6.2598    0.2785   -5.5600 C   0  0  0  0  0  0  0  0  0  0  0  0
    5.6530    0.3862   -4.3685 N   0  0  0  0  0  0  0  0  0  0  0  0
    2.0068    0.3456   -0.9128 C   0  0  0  0  0  0  0  0  0  0  0  0
    1.1233    0.3531    0.1818 C   0  0  0  0  0  0  0  0  0  0  0  0
   -0.3172    0.0983   -0.1109 C   0  0  0  0  0  0  0  0  0  0  0  0
   -0.7137    1.2009   -1.0825 C   0  0  0  0  0  0  0  0  0  0  0  0
   -1.7945    0.8543   -2.0291 C   0  0  0  0  0  0  0  0  0  0  0  0
   -1.9124   -0.5216   -2.2946 O   0  0  0  0  0  0  0  0  0  0  0  0
   -1.0642   -1.4689   -1.7701 C   0  0  0  0  0  0  0  0  0  0  0  0
   -1.0129   -2.7928   -2.3805 N   0  0  0  0  0  0  0  0  0  0  0  0
   -0.3299   -1.2024   -0.7759 N   0  0  0  0  0  0  0  0  0  0  0  0
   -2.1744   -0.3758    5.9773 H   0  0  0  0  0  0  0  0  0  0  0  0
   -1.3317    1.0974    6.7065 H   0  0  0  0  0  0  0  0  0  0  0  0
   -2.6151    1.3025    5.4674 H   0  0  0  0  0  0  0  0  0  0  0  0
   -5.0065   -0.1338    4.0974 H   0  0  0  0  0  0  0  0  0  0  0  0
   -7.4455    0.1925    3.7062 H   0  0  0  0  0  0  0  0  0  0  0  0
   -7.2398   -1.5644    3.7146 H   0  0  0  0  0  0  0  0  0  0  0  0
   -6.7035   -2.3950    1.2353 H   0  0  0  0  0  0  0  0  0  0  0  0
   -7.2888   -1.2801   -0.0318 H   0  0  0  0  0  0  0  0  0  0  0  0
   -4.7211   -1.4645    0.1834 H   0  0  0  0  0  0  0  0  0  0  0  0
   -5.4441    0.1498    0.1771 H   0  0  0  0  0  0  0  0  0  0  0  0
   -2.9952   -0.4006    0.1051 H   0  0  0  0  0  0  0  0  0  0  0  0
    3.2704    1.0523    2.6214 H   0  0  0  0  0  0  0  0  0  0  0  0
    4.8356    1.0583    0.6929 H   0  0  0  0  0  0  0  0  0  0  0  0
    3.7443    0.4575   -2.8658 H   0  0  0  0  0  0  0  0  0  0  0  0
    8.2801    0.3704   -2.3974 H   0  0  0  0  0  0  0  0  0  0  0  0
    9.4444    0.1732   -4.5631 H   0  0  0  0  0  0  0  0  0  0  0  0
    5.6959    0.2514   -6.4956 H   0  0  0  0  0  0  0  0  0  0  0  0
    1.6353    0.1448   -1.8905 H   0  0  0  0  0  0  0  0  0  0  0  0
    0.1672    1.5948   -1.6225 H   0  0  0  0  0  0  0  0  0  0  0  0
   -1.0978    2.0454   -0.4479 H   0  0  0  0  0  0  0  0  0  0  0  0
   -2.8041    1.2507   -1.7215 H   0  0  0  0  0  0  0  0  0  0  0  0
   -1.5985    1.3575   -3.0126 H   0  0  0  0  0  0  0  0  0  0  0  0
   -1.3757   -3.5775   -1.8171 H   0  0  0  0  0  0  0  0  0  0  0  0
   -0.6249   -2.8900   -3.3247 H   0  0  0  0  0  0  0  0  0  0  0  0
  1  2  1  0
  2  3  1  0
  3  4  2  0
  4  5  1  0
  5  6  1  0
  6  7  2  0
  7  8  1  0
  8  9  1  0
  9 10  1  0
 10 11  1  0
  5 12  2  0
 12 13  1  0
 13 14  2  0
 14 15  1  0
 15 16  1  0
 16 17  2  0
 17 18  1  0
 18 19  2  0
 19 20  1  0
 20 21  1  0
 21 22  2  0
 21 23  1  0
 23 24  2  0
 24 25  1  0
 25 26  2  0
 26 27  1  0
 26 28  1  0
 28 29  2  0
 19 30  1  0
 30 31  2  0
 31 32  1  0
 32 33  1  0
 33 34  1  0
 34 35  1  0
 35 36  1  0
 36 37  1  0
 36 38  2  0
 14  3  1  0
 31 16  1  0
 38 32  1  0
 11  6  1  0
 32 13  1  0
 29 23  1  0
  1 39  1  0
  1 40  1  0
  1 41  1  0
  7 42  1  0
  8 43  1  0
  8 44  1  0
 10 45  1  0
 10 46  1  0
 11 47  1  0
 11 48  1  0
 12 49  1  0
 17 50  1  0
 18 51  1  0
 20 52  1  0
 24 53  1  0
 25 54  1  0
 28 55  1  0
 30 56  1  0
 33 57  1  0
 33 58  1  0
 34 59  1  0
 34 60  1  0
 37 61  1  0
 37 62  1  0
M  END
$$$$
