
     RDKit          3D

 23 23  0  0  0  0  0  0  0  0999 V2000
   -1.6988   -0.6411   -0.1959 C   0  0  1  0  0  0  0  0  0  0  0  0
   -2.2265   -0.0459    0.9536 O   0  0  0  0  0  0  0  0  0  0  0  0
   -0.8801    0.4494   -0.8952 C   0  0  1  0  0  0  0  0  0  0  0  0
   -1.7057    1.4582   -1.3698 O   0  0  0  0  0  0  0  0  0  0  0  0
    0.0427    0.9282    0.2009 C   0  0  2  0  0  0  0  0  0  0  0  0
    0.8126    2.0267   -0.1607 O   0  0  0  0  0  0  0  0  0  0  0  0
    0.8898   -0.1825    0.6721 C   0  0  2  0  0  0  0  0  0  0  0  0
    1.1948    0.0860    2.0149 F   0  0  0  0  0  0  0  0  0  0  0  0
    2.2242   -0.0909   -0.0483 C   0  0  0  0  0  0  0  0  0  0  0  0
    3.1619   -0.9321    0.5452 O   0  0  0  0  0  0  0  0  0  0  0  0
    0.4509   -1.4521    0.6073 O   0  0  0  0  0  0  0  0  0  0  0  0
   -0.7801   -1.7455    0.1396 C   0  0  0  0  0  0  0  0  0  0  0  0
   -0.6614   -2.5436   -0.9850 F   0  0  0  0  0  0  0  0  0  0  0  0
   -2.4958   -0.9747   -0.8686 H   0  0  0  0  0  0  0  0  0  0  0  0
   -3.2160   -0.0220    0.9667 H   0  0  0  0  0  0  0  0  0  0  0  0
   -0.3384   -0.0231   -1.7183 H   0  0  0  0  0  0  0  0  0  0  0  0
   -1.6362    2.2561   -0.7894 H   0  0  0  0  0  0  0  0  0  0  0  0
   -0.6455    1.2351    1.0413 H   0  0  0  0  0  0  0  0  0  0  0  0
    0.3706    2.6219   -0.8021 H   0  0  0  0  0  0  0  0  0  0  0  0
    2.5556    0.9358   -0.1961 H   0  0  0  0  0  0  0  0  0  0  0  0
    2.0495   -0.5241   -1.0711 H   0  0  0  0  0  0  0  0  0  0  0  0
    3.8381   -0.4262    1.0623 H   0  0  0  0  0  0  0  0  0  0  0  0
   -1.3064   -2.3936    0.8969 H   0  0  0  0  0  0  0  0  0  0  0  0
  1  2  1  0
  1  3  1  0
  3  4  1  0
  3  5  1  0
  5  6  1  0
  5  7  1  0
  7  8  1  1
  7  9  1  0
  9 10  1  0
  7 11  1  0
 11 12  1  0
 12 13  1  0
 12  1  1  0
  1 14  1  6
  2 15  1  0
  3 16  1  6
  4 17  1  0
  5 18  1  1
  6 19  1  0
  9 20  1  0
  9 21  1  0
 10 22  1  0
 12 23  1  0
M  END
$$$$
