
     RDKit          3D

 49 51  0  0  0  0  0  0  0  0999 V2000
    8.3737   -0.1932    2.2270 C   0  0  0  0  0  0  0  0  0  0  0  0
    7.9544    0.2006    0.9274 O   0  0  0  0  0  0  0  0  0  0  0  0
    6.5865    0.1867    0.6475 C   0  0  0  0  0  0  0  0  0  0  0  0
    6.1736    0.5684   -0.6134 C   0  0  0  0  0  0  0  0  0  0  0  0
    4.8470    0.5620   -0.9065 N   0  0  0  0  0  0  0  0  0  0  0  0
    3.9260    0.1941   -0.0019 C   0  0  0  0  0  0  0  0  0  0  0  0
    2.4994    0.1830   -0.3043 C   0  0  0  0  0  0  0  0  0  0  0  0
    1.7102   -0.1725    0.5935 O   0  0  0  0  0  0  0  0  0  0  0  0
    1.9899    0.5566   -1.5636 N   0  0  0  0  0  0  0  0  0  0  0  0
    0.6483    0.5922   -1.9879 C   0  0  0  0  0  0  0  0  0  0  0  0
    0.4000    1.0016   -3.2947 C   0  0  0  0  0  0  0  0  0  0  0  0
   -0.8615    1.0664   -3.7892 C   0  0  0  0  0  0  0  0  0  0  0  0
   -1.9692    0.7361   -3.0432 C   0  0  0  0  0  0  0  0  0  0  0  0
   -3.2190    0.8045   -3.5462 F   0  0  0  0  0  0  0  0  0  0  0  0
   -1.7340    0.3303   -1.7509 C   0  0  0  0  0  0  0  0  0  0  0  0
   -2.8427   -0.0506   -0.8507 C   0  0  2  0  0  0  0  0  0  0  0  0
   -3.4945   -1.2807   -1.4715 C   0  0  0  0  0  0  0  0  0  0  0  0
   -3.8289    1.1007   -0.7785 C   0  0  0  0  0  0  0  0  0  0  0  0
   -4.7762    1.0621    0.7265 S   0  0  0  0  0  6  0  0  0  0  0  0
   -4.3071    2.1805    1.6276 O   0  0  0  0  0  0  0  0  0  0  0  0
   -6.2359    1.2299    0.4769 O   0  0  0  0  0  0  0  0  0  0  0  0
   -4.4170   -0.5004    1.4974 C   0  0  0  0  0  0  0  0  0  0  0  0
   -5.0048   -0.6071    2.8658 C   0  0  0  0  0  0  0  0  0  0  0  0
   -2.9392   -0.6401    1.4896 C   0  0  0  0  0  0  0  0  0  0  0  0
   -2.2124   -1.0071    2.6513 N   0  0  0  0  0  0  0  0  0  0  0  0
   -2.3166   -0.4239    0.4112 N   0  0  0  0  0  0  0  0  0  0  0  0
   -0.4364    0.2639   -1.2428 C   0  0  0  0  0  0  0  0  0  0  0  0
    4.3462   -0.1835    1.2481 C   0  0  0  0  0  0  0  0  0  0  0  0
    5.6731   -0.1840    1.5626 N   0  0  0  0  0  0  0  0  0  0  0  0
    8.2007    0.6640    2.8961 H   0  0  0  0  0  0  0  0  0  0  0  0
    7.7735   -1.0642    2.5504 H   0  0  0  0  0  0  0  0  0  0  0  0
    9.4230   -0.5004    2.1798 H   0  0  0  0  0  0  0  0  0  0  0  0
    6.9223    0.8633   -1.3360 H   0  0  0  0  0  0  0  0  0  0  0  0
    2.7514    0.8434   -2.2585 H   0  0  0  0  0  0  0  0  0  0  0  0
    1.2394    1.2763   -3.9341 H   0  0  0  0  0  0  0  0  0  0  0  0
   -1.0620    1.3854   -4.8089 H   0  0  0  0  0  0  0  0  0  0  0  0
   -4.6063   -1.1123   -1.5763 H   0  0  0  0  0  0  0  0  0  0  0  0
   -3.2742   -2.1940   -0.8814 H   0  0  0  0  0  0  0  0  0  0  0  0
   -3.1393   -1.4700   -2.5028 H   0  0  0  0  0  0  0  0  0  0  0  0
   -4.5671    0.9350   -1.6104 H   0  0  0  0  0  0  0  0  0  0  0  0
   -3.2960    2.0548   -0.8655 H   0  0  0  0  0  0  0  0  0  0  0  0
   -4.8302   -1.2867    0.8065 H   0  0  0  0  0  0  0  0  0  0  0  0
   -6.0017   -0.0839    2.8566 H   0  0  0  0  0  0  0  0  0  0  0  0
   -4.3506   -0.2742    3.6694 H   0  0  0  0  0  0  0  0  0  0  0  0
   -5.2423   -1.6936    3.0419 H   0  0  0  0  0  0  0  0  0  0  0  0
   -2.2808   -0.5182    3.5647 H   0  0  0  0  0  0  0  0  0  0  0  0
   -1.5685   -1.8194    2.5844 H   0  0  0  0  0  0  0  0  0  0  0  0
   -0.2886   -0.0641   -0.2080 H   0  0  0  0  0  0  0  0  0  0  0  0
    3.6642   -0.4910    2.0251 H   0  0  0  0  0  0  0  0  0  0  0  0
  1  2  1  0
  2  3  1  0
  3  4  2  0
  4  5  1  0
  5  6  2  0
  6  7  1  0
  7  8  2  0
  7  9  1  0
  9 10  1  0
 10 11  2  0
 11 12  1  0
 12 13  2  0
 13 14  1  0
 13 15  1  0
 15 16  1  0
 16 17  1  6
 16 18  1  0
 18 19  1  0
 19 20  2  0
 19 21  2  0
 19 22  1  0
 22 23  1  0
 22 24  1  0
 24 25  1  0
 24 26  2  0
 15 27  2  0
  6 28  1  0
 28 29  2  0
 29  3  1  0
 27 10  1  0
 26 16  1  0
  1 30  1  0
  1 31  1  0
  1 32  1  0
  4 33  1  0
  9 34  1  0
 11 35  1  0
 12 36  1  0
 17 37  1  0
 17 38  1  0
 17 39  1  0
 18 40  1  0
 18 41  1  0
 22 42  1  0
 23 43  1  0
 23 44  1  0
 23 45  1  0
 25 46  1  0
 25 47  1  0
 27 48  1  0
 28 49  1  0
M  END
$$$$
