
     RDKit          3D

 38 40  0  0  0  0  0  0  0  0999 V2000
   -0.2440    5.0462    1.5445 F   0  0  0  0  0  0  0  0  0  0  0  0
   -0.4096    4.2376    0.4962 C   0  0  0  0  0  0  0  0  0  0  0  0
   -0.2502    2.8812    0.6832 C   0  0  0  0  0  0  0  0  0  0  0  0
   -0.4043    1.9793   -0.3499 C   0  0  0  0  0  0  0  0  0  0  0  0
   -0.2456    0.5427   -0.1952 C   0  0  0  0  0  0  0  0  0  0  0  0
   -1.4792    0.0440    0.5758 C   0  0  0  0  0  0  0  0  0  0  0  0
   -1.3333   -1.4557    0.7483 C   0  0  0  0  0  0  0  0  0  0  0  0
   -2.4900   -2.0812    1.4982 C   0  0  0  0  0  0  0  0  0  0  0  0
   -3.2627   -1.9770    0.2611 N   0  0  0  0  0  0  0  0  0  0  0  0
   -1.9859   -2.1506   -0.4490 C   0  0  0  0  0  0  0  0  0  0  0  0
    0.8608    0.1264    0.5358 O   0  0  0  0  0  0  0  0  0  0  0  0
    1.8269   -0.7837    0.1912 C   0  0  0  0  0  0  0  0  0  0  0  0
    1.8881   -1.4785   -0.9766 C   0  0  0  0  0  0  0  0  0  0  0  0
    2.9034   -2.3823   -1.2441 C   0  0  0  0  0  0  0  0  0  0  0  0
    3.8700   -2.5637   -0.2776 C   0  0  0  0  0  0  0  0  0  0  0  0
    3.8487   -1.8869    0.9112 C   0  0  0  0  0  0  0  0  0  0  0  0
    5.1003   -2.1357    2.1377 Cl  0  0  0  0  0  0  0  0  0  0  0  0
    2.8211   -0.9984    1.1347 C   0  0  0  0  0  0  0  0  0  0  0  0
   -0.7269    2.4989   -1.5848 C   0  0  0  0  0  0  0  0  0  0  0  0
   -0.8941    3.8463   -1.8096 C   0  0  0  0  0  0  0  0  0  0  0  0
   -0.7352    4.7243   -0.7649 C   0  0  0  0  0  0  0  0  0  0  0  0
   -0.9329    6.4480   -0.9802 Cl  0  0  0  0  0  0  0  0  0  0  0  0
    0.0015    2.4689    1.6440 H   0  0  0  0  0  0  0  0  0  0  0  0
   -0.3177    0.0484   -1.1806 H   0  0  0  0  0  0  0  0  0  0  0  0
   -1.4479    0.4915    1.5882 H   0  0  0  0  0  0  0  0  0  0  0  0
   -2.4075    0.3245    0.0792 H   0  0  0  0  0  0  0  0  0  0  0  0
   -0.3342   -1.8021    1.0033 H   0  0  0  0  0  0  0  0  0  0  0  0
   -2.8921   -1.4750    2.3309 H   0  0  0  0  0  0  0  0  0  0  0  0
   -2.2906   -3.1239    1.7622 H   0  0  0  0  0  0  0  0  0  0  0  0
   -3.9049   -2.7744    0.0869 H   0  0  0  0  0  0  0  0  0  0  0  0
   -1.8808   -1.5437   -1.3534 H   0  0  0  0  0  0  0  0  0  0  0  0
   -1.7515   -3.2233   -0.5222 H   0  0  0  0  0  0  0  0  0  0  0  0
    1.1073   -1.3036   -1.7063 H   0  0  0  0  0  0  0  0  0  0  0  0
    2.9153   -2.9193   -2.1939 H   0  0  0  0  0  0  0  0  0  0  0  0
    4.6702   -3.2688   -0.4753 H   0  0  0  0  0  0  0  0  0  0  0  0
    2.8211   -0.4670    2.0905 H   0  0  0  0  0  0  0  0  0  0  0  0
   -0.8642    1.8418   -2.4490 H   0  0  0  0  0  0  0  0  0  0  0  0
   -1.1490    4.2448   -2.7905 H   0  0  0  0  0  0  0  0  0  0  0  0
  1  2  1  0
  2  3  2  0
  3  4  1  0
  4  5  1  0
  5  6  1  0
  6  7  1  0
  7  8  1  0
  8  9  1  0
  9 10  1  0
  5 11  1  0
 11 12  1  0
 12 13  2  0
 13 14  1  0
 14 15  2  0
 15 16  1  0
 16 17  1  0
 16 18  2  0
  4 19  2  0
 19 20  1  0
 20 21  2  0
 21 22  1  0
 21  2  1  0
 10  7  1  0
 18 12  1  0
  3 23  1  0
  5 24  1  0
  6 25  1  0
  6 26  1  0
  7 27  1  0
  8 28  1  0
  8 29  1  0
  9 30  1  0
 10 31  1  0
 10 32  1  0
 13 33  1  0
 14 34  1  0
 15 35  1  0
 18 36  1  0
 19 37  1  0
 20 38  1  0
M  END
$$$$
