
     RDKit          3D

 50 52  0  0  0  0  0  0  0  0999 V2000
   -5.2761    2.0643   -0.7824 C   0  0  0  0  0  0  0  0  0  0  0  0
   -4.8718    1.7915    0.4929 O   0  0  0  0  0  0  0  0  0  0  0  0
   -5.2249    0.5274    0.8948 C   0  0  0  0  0  0  0  0  0  0  0  0
   -4.5710   -0.5002    0.0015 C   0  0  2  0  0  0  0  0  0  0  0  0
   -4.7695   -1.8973    0.5875 C   0  0  0  0  0  0  0  0  0  0  0  0
   -3.7523   -1.9447    1.6894 C   0  0  0  0  0  0  0  0  0  0  0  0
   -2.7612   -0.8622    1.3626 C   0  0  0  0  0  0  0  0  0  0  0  0
   -3.1443   -0.2889    0.1129 N   0  0  0  0  0  0  0  0  0  0  0  0
   -2.3263   -0.8993   -1.2489 S   0  0  0  0  0  6  0  0  0  0  0  0
   -2.5843   -2.3965   -1.3327 O   0  0  0  0  0  0  0  0  0  0  0  0
   -2.9323   -0.3095   -2.4894 O   0  0  0  0  0  0  0  0  0  0  0  0
   -0.6058   -0.6112   -1.1753 C   0  0  0  0  0  0  0  0  0  0  0  0
    0.1795   -1.5651   -0.5815 C   0  0  0  0  0  0  0  0  0  0  0  0
    1.5653   -1.3775   -0.4990 C   0  0  0  0  0  0  0  0  0  0  0  0
    2.6876   -2.9149    0.3964 I   0  0  0  0  0  0  0  0  0  0  0  0
    2.2021   -0.2653   -0.9895 C   0  0  0  0  0  0  0  0  0  0  0  0
    1.3844    0.6888   -1.5884 C   0  0  0  0  0  0  0  0  0  0  0  0
   -0.0026    0.5153   -1.6786 C   0  0  0  0  0  0  0  0  0  0  0  0
    2.2398    1.7668   -2.0423 C   0  0  0  0  0  0  0  0  0  0  0  0
    1.8345    2.7956   -2.6292 O   0  0  0  0  0  0  0  0  0  0  0  0
    3.5942    1.4383   -1.7009 C   0  0  0  0  0  0  0  0  0  0  0  0
    4.6453    2.1382   -1.9347 O   0  0  0  0  0  0  0  0  0  0  0  0
    3.5765    0.1757   -1.0446 N   0  0  0  0  0  0  0  0  0  0  0  0
    4.7312   -0.5575   -0.5171 C   0  0  0  0  0  0  0  0  0  0  0  0
    5.0638   -0.2138    0.8915 C   0  0  0  0  0  0  0  0  0  0  0  0
    5.4975    1.2065    1.1296 C   0  0  0  0  0  0  0  0  0  0  0  0
    6.7866    1.4889    0.4155 C   0  0  0  0  0  0  0  0  0  0  0  0
    7.1905    2.8076    0.6257 F   0  0  0  0  0  0  0  0  0  0  0  0
   -4.8550    1.4185   -1.5659 H   0  0  0  0  0  0  0  0  0  0  0  0
   -5.0025    3.1119   -1.1043 H   0  0  0  0  0  0  0  0  0  0  0  0
   -6.4034    1.9732   -0.7875 H   0  0  0  0  0  0  0  0  0  0  0  0
   -6.3267    0.3711    0.9280 H   0  0  0  0  0  0  0  0  0  0  0  0
   -4.7775    0.3661    1.9106 H   0  0  0  0  0  0  0  0  0  0  0  0
   -4.9090   -0.4712   -1.0468 H   0  0  0  0  0  0  0  0  0  0  0  0
   -5.7991   -2.0116    0.9833 H   0  0  0  0  0  0  0  0  0  0  0  0
   -4.6005   -2.6309   -0.1964 H   0  0  0  0  0  0  0  0  0  0  0  0
   -3.2350   -2.9473    1.7036 H   0  0  0  0  0  0  0  0  0  0  0  0
   -4.2239   -1.7853    2.6827 H   0  0  0  0  0  0  0  0  0  0  0  0
   -1.7379   -1.2800    1.3755 H   0  0  0  0  0  0  0  0  0  0  0  0
   -2.7677   -0.0391    2.1243 H   0  0  0  0  0  0  0  0  0  0  0  0
   -0.2697   -2.4801   -0.1676 H   0  0  0  0  0  0  0  0  0  0  0  0
   -0.6198    1.2682   -2.1473 H   0  0  0  0  0  0  0  0  0  0  0  0
    4.7413   -1.6155   -0.7625 H   0  0  0  0  0  0  0  0  0  0  0  0
    5.5972   -0.1498   -1.1391 H   0  0  0  0  0  0  0  0  0  0  0  0
    5.9208   -0.8396    1.2859 H   0  0  0  0  0  0  0  0  0  0  0  0
    4.1754   -0.3533    1.5583 H   0  0  0  0  0  0  0  0  0  0  0  0
    4.6741    1.8741    0.7962 H   0  0  0  0  0  0  0  0  0  0  0  0
    5.6490    1.2951    2.2345 H   0  0  0  0  0  0  0  0  0  0  0  0
    7.5957    0.8169    0.8499 H   0  0  0  0  0  0  0  0  0  0  0  0
    6.8178    1.3077   -0.6488 H   0  0  0  0  0  0  0  0  0  0  0  0
  1  2  1  0
  2  3  1  0
  3  4  1  0
  4  5  1  0
  5  6  1  0
  6  7  1  0
  7  8  1  0
  8  9  1  0
  9 10  2  0
  9 11  2  0
  9 12  1  0
 12 13  2  0
 13 14  1  0
 14 15  1  0
 14 16  2  0
 16 17  1  0
 17 18  2  0
 17 19  1  0
 19 20  2  0
 19 21  1  0
 21 22  2  0
 21 23  1  0
 23 24  1  0
 24 25  1  0
 25 26  1  0
 26 27  1  0
 27 28  1  0
  8  4  1  0
 18 12  1  0
 23 16  1  0
  1 29  1  0
  1 30  1  0
  1 31  1  0
  3 32  1  0
  3 33  1  0
  4 34  1  6
  5 35  1  0
  5 36  1  0
  6 37  1  0
  6 38  1  0
  7 39  1  0
  7 40  1  0
 13 41  1  0
 18 42  1  0
 24 43  1  0
 24 44  1  0
 25 45  1  0
 25 46  1  0
 26 47  1  0
 26 48  1  0
 27 49  1  0
 27 50  1  0
M  END
$$$$
