
     RDKit          3D

 39 41  0  0  0  0  0  0  0  0999 V2000
   -4.8857   -1.9623   -0.2548 C   0  0  0  0  0  0  0  0  0  0  0  0
   -4.6128   -0.8571    0.7733 C   0  0  2  0  0  0  0  0  0  0  0  0
   -5.2299    0.4160    0.2644 C   0  0  0  0  0  0  0  0  0  0  0  0
   -4.4179    0.9443   -0.9179 C   0  0  0  0  0  0  0  0  0  0  0  0
   -3.0901    1.4076   -0.3985 C   0  0  0  0  0  0  0  0  0  0  0  0
   -2.4272    0.2677    0.2852 C   0  0  0  0  0  0  0  0  0  0  0  0
   -1.1598    0.1262    0.1728 N   0  0  0  0  0  0  0  0  0  0  0  0
   -0.2682    0.9107   -0.5209 N   0  0  0  0  0  0  0  0  0  0  0  0
    1.0487    0.3943   -0.7121 C   0  0  0  0  0  0  0  0  0  0  0  0
    2.1919    0.4969   -0.3462 N   0  0  0  0  0  0  0  0  0  0  0  0
    3.2454   -0.1599   -0.6883 C   0  0  0  0  0  0  0  0  0  0  0  0
    4.6399    0.0623   -0.1710 C   0  0  0  0  0  0  0  0  0  0  0  0
    5.6805   -0.7214   -0.5840 C   0  0  0  0  0  0  0  0  0  0  0  0
    6.9780   -0.5074   -0.1092 C   0  0  0  0  0  0  0  0  0  0  0  0
    7.2287    0.5060    0.7914 C   0  0  0  0  0  0  0  0  0  0  0  0
    8.4578    0.7377    1.2652 F   0  0  0  0  0  0  0  0  0  0  0  0
    6.1679    1.2899    1.2016 C   0  0  0  0  0  0  0  0  0  0  0  0
    4.8887    1.0752    0.7289 C   0  0  0  0  0  0  0  0  0  0  0  0
    3.8604    1.8426    1.1369 F   0  0  0  0  0  0  0  0  0  0  0  0
    3.0187   -1.1844   -1.6683 C   0  0  0  0  0  0  0  0  0  0  0  0
    1.2667   -1.0238   -1.9429 S   0  0  0  0  0  0  0  0  0  0  0  0
   -3.1688   -0.7386    1.0979 C   0  0  0  0  0  0  0  0  0  0  0  0
   -4.1430   -1.9345   -1.0851 H   0  0  0  0  0  0  0  0  0  0  0  0
   -5.9100   -1.7557   -0.6243 H   0  0  0  0  0  0  0  0  0  0  0  0
   -4.8578   -2.9676    0.2038 H   0  0  0  0  0  0  0  0  0  0  0  0
   -5.1786   -1.1648    1.6850 H   0  0  0  0  0  0  0  0  0  0  0  0
   -6.2433    0.2313   -0.0898 H   0  0  0  0  0  0  0  0  0  0  0  0
   -5.2619    1.2154    0.9998 H   0  0  0  0  0  0  0  0  0  0  0  0
   -4.2569    0.1317   -1.6594 H   0  0  0  0  0  0  0  0  0  0  0  0
   -4.9934    1.7577   -1.4079 H   0  0  0  0  0  0  0  0  0  0  0  0
   -3.2308    2.2690    0.3092 H   0  0  0  0  0  0  0  0  0  0  0  0
   -2.4746    1.6927   -1.2743 H   0  0  0  0  0  0  0  0  0  0  0  0
   -0.4743    1.8461   -0.9159 H   0  0  0  0  0  0  0  0  0  0  0  0
    5.5029   -1.5305   -1.2978 H   0  0  0  0  0  0  0  0  0  0  0  0
    7.7434   -1.1680   -0.4845 H   0  0  0  0  0  0  0  0  0  0  0  0
    6.3280    2.1019    1.9145 H   0  0  0  0  0  0  0  0  0  0  0  0
    3.6934   -1.8505   -2.1079 H   0  0  0  0  0  0  0  0  0  0  0  0
   -2.6360   -1.7168    0.9117 H   0  0  0  0  0  0  0  0  0  0  0  0
   -3.0199   -0.4800    2.1621 H   0  0  0  0  0  0  0  0  0  0  0  0
  1  2  1  0
  2  3  1  0
  3  4  1  0
  4  5  1  0
  5  6  1  0
  6  7  2  3
  7  8  1  0
  8  9  1  0
  9 10  2  0
 10 11  1  0
 11 12  1  0
 12 13  2  0
 13 14  1  0
 14 15  2  0
 15 16  1  0
 15 17  1  0
 17 18  2  0
 18 19  1  0
 11 20  2  0
 20 21  1  0
  6 22  1  0
 22  2  1  0
 21  9  1  0
 18 12  1  0
  1 23  1  0
  1 24  1  0
  1 25  1  0
  2 26  1  1
  3 27  1  0
  3 28  1  0
  4 29  1  0
  4 30  1  0
  5 31  1  0
  5 32  1  0
  8 33  1  0
 13 34  1  0
 14 35  1  0
 17 36  1  0
 20 37  1  0
 22 38  1  0
 22 39  1  0
M  END
$$$$
