
     RDKit          3D

 37 41  0  0  0  0  0  0  0  0999 V2000
   -0.1471    3.0949   -4.4944 O   0  0  0  0  0  0  0  0  0  0  0  0
   -0.1462    2.4339   -3.2881 C   0  0  0  0  0  0  0  0  0  0  0  0
   -1.3412    2.1696   -2.6200 C   0  0  0  0  0  0  0  0  0  0  0  0
   -1.3103    1.5073   -1.4159 C   0  0  0  0  0  0  0  0  0  0  0  0
   -0.1214    1.0902   -0.8396 C   0  0  0  0  0  0  0  0  0  0  0  0
    1.0734    1.3373   -1.4764 C   0  0  0  0  0  0  0  0  0  0  0  0
    2.2590    0.9187   -0.8969 O   0  0  0  0  0  0  0  0  0  0  0  0
    2.2912    0.2516    0.3158 C   0  0  0  0  0  0  0  0  0  0  0  0
    3.4779   -0.1619    0.8859 C   0  0  0  0  0  0  0  0  0  0  0  0
    3.4922   -0.8355    2.1131 C   0  0  0  0  0  0  0  0  0  0  0  0
    4.7715   -1.1738    2.5317 O   0  0  0  0  0  0  0  0  0  0  0  0
    2.2825   -1.0710    2.7311 C   0  0  0  0  0  0  0  0  0  0  0  0
    1.1098   -0.6548    2.1539 C   0  0  0  0  0  0  0  0  0  0  0  0
    1.0829    0.0141    0.9371 C   0  0  0  0  0  0  0  0  0  0  0  0
   -0.2694    0.3892    0.4626 C   0  0  0  0  0  0  0  0  0  0  0  0
   -0.9013    1.3152    1.3175 O   0  0  0  0  0  0  0  0  0  0  0  0
   -2.1035    0.7426    1.6980 C   0  0  0  0  0  0  0  0  0  0  0  0
   -2.8606    1.3932    2.4773 O   0  0  0  0  0  0  0  0  0  0  0  0
   -2.3346   -0.5737    1.1275 C   0  0  0  0  0  0  0  0  0  0  0  0
   -1.1906   -0.7509    0.3800 C   0  0  0  0  0  0  0  0  0  0  0  0
   -1.0289   -1.9364   -0.3448 C   0  0  0  0  0  0  0  0  0  0  0  0
   -2.0518   -2.8746   -0.2617 C   0  0  0  0  0  0  0  0  0  0  0  0
   -3.1949   -2.6613    0.5046 C   0  0  0  0  0  0  0  0  0  0  0  0
   -3.3564   -1.4898    1.2218 C   0  0  0  0  0  0  0  0  0  0  0  0
    1.0059    1.9966   -2.6692 C   0  0  0  0  0  0  0  0  0  0  0  0
    0.0484    4.0650   -4.6275 H   0  0  0  0  0  0  0  0  0  0  0  0
   -2.2539    2.5027   -3.0859 H   0  0  0  0  0  0  0  0  0  0  0  0
   -2.2869    1.3451   -0.9681 H   0  0  0  0  0  0  0  0  0  0  0  0
    4.3723    0.0747    0.3150 H   0  0  0  0  0  0  0  0  0  0  0  0
    5.4363   -1.6131    1.8892 H   0  0  0  0  0  0  0  0  0  0  0  0
    2.3780   -1.5950    3.6727 H   0  0  0  0  0  0  0  0  0  0  0  0
    0.2480   -0.9139    2.7608 H   0  0  0  0  0  0  0  0  0  0  0  0
   -0.1683   -2.1282   -0.9384 H   0  0  0  0  0  0  0  0  0  0  0  0
   -2.0105   -3.8197   -0.7895 H   0  0  0  0  0  0  0  0  0  0  0  0
   -3.9954   -3.3826    0.5765 H   0  0  0  0  0  0  0  0  0  0  0  0
   -4.1902   -1.2143    1.8447 H   0  0  0  0  0  0  0  0  0  0  0  0
    1.9340    2.2086   -3.2006 H   0  0  0  0  0  0  0  0  0  0  0  0
  1  2  1  0
  2  3  2  0
  3  4  1  0
  4  5  2  0
  5  6  1  0
  6  7  1  0
  7  8  1  0
  8  9  2  0
  9 10  1  0
 10 11  1  0
 10 12  2  0
 12 13  1  0
 13 14  2  0
 14 15  1  0
 15 16  1  0
 16 17  1  0
 17 18  2  0
 17 19  1  0
 19 20  2  0
 20 21  1  0
 21 22  2  0
 22 23  1  0
 23 24  2  0
  6 25  2  0
 25  2  1  0
 15  5  1  0
 20 15  1  0
 14  8  1  0
 24 19  1  0
  1 26  1  0
  3 27  1  0
  4 28  1  0
  9 29  1  0
 11 30  1  0
 12 31  1  0
 13 32  1  0
 21 33  1  0
 22 34  1  0
 23 35  1  0
 24 36  1  0
 25 37  1  0
M  END
$$$$
