
     RDKit          3D

 34 35  0  0  0  0  0  0  0  0999 V2000
    0.4074    1.4655   -2.6587 O   0  0  0  0  0  0  0  0  0  0  0  0
    0.8062    1.1858   -1.3573 C   0  0  1  0  0  0  0  0  0  0  0  0
   -0.4692    1.2588   -0.5112 C   0  0  1  0  0  0  0  0  0  0  0  0
   -1.3009    2.2666   -0.9276 O   0  0  0  0  0  0  0  0  0  0  0  0
   -1.0027   -0.1360   -0.7746 C   0  0  1  0  0  0  0  0  0  0  0  0
    0.1462   -0.8785   -0.5018 O   0  0  0  0  0  0  0  0  0  0  0  0
    1.1379   -0.2788   -1.2594 C   0  0  2  0  0  0  0  0  0  0  0  0
    2.4968   -0.3734   -0.5744 C   0  0  0  0  0  0  0  0  0  0  0  0
    2.4309    0.2673    0.6610 O   0  0  0  0  0  0  0  0  0  0  0  0
    3.9418    0.1453    1.3927 P   0  0  0  0  0  0  0  0  0  0  0  0
    3.7869   -0.2329    3.0426 O   0  0  0  0  0  0  0  0  0  0  0  0
    4.8938   -1.0320    0.6367 O   0  0  0  0  0  0  0  0  0  0  0  0
    4.6934    1.4558    1.2374 O   0  0  0  0  0  0  0  0  0  0  0  0
   -2.1190   -0.5032    0.0222 N   0  0  0  0  0  0  0  0  0  0  0  0
   -2.1593   -1.2595    1.1322 C   0  0  0  0  0  0  0  0  0  0  0  0
   -3.3703   -1.5057    1.7751 C   0  0  0  0  0  0  0  0  0  0  0  0
   -4.5550   -0.9705    1.2746 C   0  0  0  0  0  0  0  0  0  0  0  0
   -5.6393   -1.2039    1.8691 O   0  0  0  0  0  0  0  0  0  0  0  0
   -4.4747   -0.2214    0.1657 N   0  0  0  0  0  0  0  0  0  0  0  0
   -3.2904    0.0115   -0.4516 C   0  0  0  0  0  0  0  0  0  0  0  0
   -3.3946    0.7408   -1.4883 O   0  0  0  0  0  0  0  0  0  0  0  0
    1.1136    1.7174   -3.2719 H   0  0  0  0  0  0  0  0  0  0  0  0
    1.5907    1.8581   -0.9758 H   0  0  0  0  0  0  0  0  0  0  0  0
   -0.2196    1.3267    0.5647 H   0  0  0  0  0  0  0  0  0  0  0  0
   -1.0883    2.5612   -1.8300 H   0  0  0  0  0  0  0  0  0  0  0  0
   -1.2082   -0.1901   -1.8747 H   0  0  0  0  0  0  0  0  0  0  0  0
    1.1544   -0.7893   -2.2277 H   0  0  0  0  0  0  0  0  0  0  0  0
    3.1945    0.2261   -1.2036 H   0  0  0  0  0  0  0  0  0  0  0  0
    2.8225   -1.4109   -0.4128 H   0  0  0  0  0  0  0  0  0  0  0  0
    4.6898   -0.3421    3.4182 H   0  0  0  0  0  0  0  0  0  0  0  0
    4.9061   -1.8672    1.1748 H   0  0  0  0  0  0  0  0  0  0  0  0
   -1.1953   -1.6344    1.4512 H   0  0  0  0  0  0  0  0  0  0  0  0
   -3.3468   -2.1223    2.6668 H   0  0  0  0  0  0  0  0  0  0  0  0
   -5.3794    0.1648   -0.1836 H   0  0  0  0  0  0  0  0  0  0  0  0
  1  2  1  0
  2  3  1  0
  3  4  1  0
  3  5  1  0
  5  6  1  0
  6  7  1  0
  7  8  1  0
  8  9  1  0
  9 10  1  0
 10 11  1  0
 10 12  1  0
 10 13  2  0
  5 14  1  0
 14 15  1  0
 15 16  2  0
 16 17  1  0
 17 18  2  0
 17 19  1  0
 19 20  1  0
 20 21  2  0
  7  2  1  0
 20 14  1  0
  1 22  1  0
  2 23  1  1
  3 24  1  1
  4 25  1  0
  5 26  1  6
  7 27  1  6
  8 28  1  0
  8 29  1  0
 11 30  1  0
 12 31  1  0
 15 32  1  0
 16 33  1  0
 19 34  1  0
M  END
$$$$
