
     RDKit          3D

 52 55  0  0  0  0  0  0  0  0999 V2000
    6.2350    1.2081    1.4585 C   0  0  0  0  0  0  0  0  0  0  0  0
    5.6616    1.1996    0.0424 C   0  0  0  0  0  0  0  0  0  0  0  0
    4.3136    1.8438   -0.0105 C   0  0  0  0  0  0  0  0  0  0  0  0
    3.2979    1.1106    0.8897 C   0  0  0  0  0  0  0  0  0  0  0  0
    3.1703   -0.3019    0.4123 C   0  0  0  0  0  0  0  0  0  0  0  0
    3.9578   -1.2934    0.8634 N   0  0  0  0  0  0  0  0  0  0  0  0
    3.6405   -2.4284    0.2387 C   0  0  0  0  0  0  0  0  0  0  0  0
    4.3960   -3.9957    0.4929 Cl  0  0  0  0  0  0  0  0  0  0  0  0
    2.6140   -2.1397   -0.6383 C   0  0  0  0  0  0  0  0  0  0  0  0
    1.9916   -3.1343   -1.5206 C   0  0  0  0  0  0  0  0  0  0  0  0
    2.4211   -4.3337   -1.4616 O   0  0  0  0  0  0  0  0  0  0  0  0
    0.9844   -2.8809   -2.4065 O   0  0  0  0  0  0  0  0  0  0  0  0
    2.3448   -0.8403   -0.5128 N   0  0  0  0  0  0  0  0  0  0  0  0
    1.3715   -0.0686   -1.2197 C   0  0  0  0  0  0  0  0  0  0  0  0
    0.0087   -0.0850   -0.6804 C   0  0  0  0  0  0  0  0  0  0  0  0
   -0.3603    0.3042    0.5755 C   0  0  0  0  0  0  0  0  0  0  0  0
   -1.6877    0.2640    0.9231 C   0  0  0  0  0  0  0  0  0  0  0  0
   -2.7181   -0.1531    0.0766 C   0  0  0  0  0  0  0  0  0  0  0  0
   -4.0572   -0.1477    0.5766 C   0  0  0  0  0  0  0  0  0  0  0  0
   -4.3799   -0.6833    1.8069 C   0  0  0  0  0  0  0  0  0  0  0  0
   -5.6654   -0.6907    2.2994 C   0  0  0  0  0  0  0  0  0  0  0  0
   -6.6853   -0.1480    1.5525 C   0  0  0  0  0  0  0  0  0  0  0  0
   -6.3966    0.4008    0.3076 C   0  0  0  0  0  0  0  0  0  0  0  0
   -5.0767    0.3898   -0.1592 C   0  0  0  0  0  0  0  0  0  0  0  0
   -4.7629    0.9447   -1.4113 N   0  0  0  0  0  0  0  0  0  0  0  0
   -3.8492    1.8980   -1.6246 C   0  0  0  0  0  0  0  0  0  0  0  0
   -3.7858    2.2151   -2.9182 N   0  0  0  0  0  0  0  0  0  0  0  0
   -4.6891    1.4324   -3.5214 N   0  0  0  0  0  0  0  0  0  0  0  0
   -5.2746    0.6662   -2.5929 N   0  0  0  0  0  0  0  0  0  0  0  0
   -2.3299   -0.5362   -1.1669 C   0  0  0  0  0  0  0  0  0  0  0  0
   -1.0114   -0.5084   -1.5487 C   0  0  0  0  0  0  0  0  0  0  0  0
    6.2257    2.2395    1.8707 H   0  0  0  0  0  0  0  0  0  0  0  0
    7.2852    0.8773    1.4627 H   0  0  0  0  0  0  0  0  0  0  0  0
    5.6492    0.5431    2.1046 H   0  0  0  0  0  0  0  0  0  0  0  0
    5.5779    0.1709   -0.3278 H   0  0  0  0  0  0  0  0  0  0  0  0
    6.3456    1.7357   -0.6426 H   0  0  0  0  0  0  0  0  0  0  0  0
    4.3314    2.8913    0.3598 H   0  0  0  0  0  0  0  0  0  0  0  0
    3.9332    1.7883   -1.0283 H   0  0  0  0  0  0  0  0  0  0  0  0
    2.3791    1.6861    0.8423 H   0  0  0  0  0  0  0  0  0  0  0  0
    3.7050    1.1181    1.8970 H   0  0  0  0  0  0  0  0  0  0  0  0
    0.8109   -3.5348   -3.1672 H   0  0  0  0  0  0  0  0  0  0  0  0
    1.3975   -0.3741   -2.2897 H   0  0  0  0  0  0  0  0  0  0  0  0
    1.6731    1.0213   -1.2500 H   0  0  0  0  0  0  0  0  0  0  0  0
    0.4071    0.6273    1.2715 H   0  0  0  0  0  0  0  0  0  0  0  0
   -1.9238    0.5900    1.9482 H   0  0  0  0  0  0  0  0  0  0  0  0
   -3.6076   -1.1261    2.4386 H   0  0  0  0  0  0  0  0  0  0  0  0
   -5.8899   -1.1138    3.2599 H   0  0  0  0  0  0  0  0  0  0  0  0
   -7.7228   -0.1264    1.8925 H   0  0  0  0  0  0  0  0  0  0  0  0
   -7.1959    0.8224   -0.2702 H   0  0  0  0  0  0  0  0  0  0  0  0
   -3.2500    2.3439   -0.8512 H   0  0  0  0  0  0  0  0  0  0  0  0
   -3.0627   -0.8718   -1.8699 H   0  0  0  0  0  0  0  0  0  0  0  0
   -0.7470   -0.8160   -2.5580 H   0  0  0  0  0  0  0  0  0  0  0  0
  1  2  1  0
  2  3  1  0
  3  4  1  0
  4  5  1  0
  5  6  2  0
  6  7  1  0
  7  8  1  0
  7  9  2  0
  9 10  1  0
 10 11  2  0
 10 12  1  0
  9 13  1  0
 13 14  1  0
 14 15  1  0
 15 16  2  0
 16 17  1  0
 17 18  2  0
 18 19  1  0
 19 20  2  0
 20 21  1  0
 21 22  2  0
 22 23  1  0
 23 24  2  0
 24 25  1  0
 25 26  1  0
 26 27  2  0
 27 28  1  0
 28 29  2  0
 18 30  1  0
 30 31  2  0
 13  5  1  0
 31 15  1  0
 24 19  1  0
 29 25  1  0
  1 32  1  0
  1 33  1  0
  1 34  1  0
  2 35  1  0
  2 36  1  0
  3 37  1  0
  3 38  1  0
  4 39  1  0
  4 40  1  0
 12 41  1  0
 14 42  1  0
 14 43  1  0
 16 44  1  0
 17 45  1  0
 20 46  1  0
 21 47  1  0
 22 48  1  0
 23 49  1  0
 26 50  1  0
 30 51  1  0
 31 52  1  0
M  END
$$$$
