
     RDKit          3D

 40 43  0  0  0  0  0  0  0  0999 V2000
    7.2846   -0.4278    0.8400 C   0  0  0  0  0  0  0  0  0  0  0  0
    5.9641   -0.0666    0.2946 N   0  0  0  0  0  0  0  0  0  0  0  0
    4.7826   -0.6383    0.7889 C   0  0  0  0  0  0  0  0  0  0  0  0
    4.8965   -1.4809    1.7266 O   0  0  0  0  0  0  0  0  0  0  0  0
    3.4591   -0.3126    0.2820 C   0  0  0  0  0  0  0  0  0  0  0  0
    3.2258    0.5701   -0.7505 C   0  0  0  0  0  0  0  0  0  0  0  0
    1.9665    0.8634   -1.2112 C   0  0  0  0  0  0  0  0  0  0  0  0
    0.8958    0.2450   -0.6102 C   0  0  0  0  0  0  0  0  0  0  0  0
   -0.3918    0.5230   -1.0545 C   0  0  0  0  0  0  0  0  0  0  0  0
   -1.4747   -0.0873   -0.4632 C   0  0  0  0  0  0  0  0  0  0  0  0
   -2.8230    0.2257   -0.9533 C   0  0  1  0  0  0  0  0  0  0  0  0
   -2.6954    0.9750   -2.1393 O   0  0  0  0  0  0  0  0  0  0  0  0
   -3.6038   -1.0268   -1.3170 C   0  0  0  0  0  0  0  0  0  0  0  0
   -5.0300   -0.4655   -1.2784 C   0  0  0  0  0  0  0  0  0  0  0  0
   -4.9456    0.4744   -0.1759 N   0  0  0  0  0  0  0  0  0  0  0  0
   -5.7718    1.0730    0.7264 C   0  0  0  0  0  0  0  0  0  0  0  0
   -4.9674    1.8595    1.4866 N   0  0  0  0  0  0  0  0  0  0  0  0
   -3.7008    1.7650    1.0886 C   0  0  0  0  0  0  0  0  0  0  0  0
   -3.6851    0.8784    0.0238 C   0  0  0  0  0  0  0  0  0  0  0  0
   -1.3277   -0.9926    0.5867 C   0  0  0  0  0  0  0  0  0  0  0  0
   -0.0519   -1.2539    1.0109 C   0  0  0  0  0  0  0  0  0  0  0  0
    1.0681   -0.6578    0.4397 C   0  0  0  0  0  0  0  0  0  0  0  0
    2.3481   -0.9202    0.8665 C   0  0  0  0  0  0  0  0  0  0  0  0
    7.8501    0.5195    0.9443 H   0  0  0  0  0  0  0  0  0  0  0  0
    7.7758   -1.0909    0.1253 H   0  0  0  0  0  0  0  0  0  0  0  0
    7.1868   -0.8618    1.8471 H   0  0  0  0  0  0  0  0  0  0  0  0
    5.9142    0.6316   -0.4766 H   0  0  0  0  0  0  0  0  0  0  0  0
    4.0824    1.0441   -1.2079 H   0  0  0  0  0  0  0  0  0  0  0  0
    1.8108    1.5584   -2.0215 H   0  0  0  0  0  0  0  0  0  0  0  0
   -0.4857    1.2392   -1.8820 H   0  0  0  0  0  0  0  0  0  0  0  0
   -2.4685    1.9094   -1.8494 H   0  0  0  0  0  0  0  0  0  0  0  0
   -3.4801   -1.8082   -0.5668 H   0  0  0  0  0  0  0  0  0  0  0  0
   -3.3172   -1.3148   -2.3455 H   0  0  0  0  0  0  0  0  0  0  0  0
   -5.7734   -1.2506   -1.1392 H   0  0  0  0  0  0  0  0  0  0  0  0
   -5.1756    0.0838   -2.2368 H   0  0  0  0  0  0  0  0  0  0  0  0
   -6.8423    0.9375    0.8049 H   0  0  0  0  0  0  0  0  0  0  0  0
   -2.8695    2.2841    1.5218 H   0  0  0  0  0  0  0  0  0  0  0  0
   -2.2241   -1.4316    1.0012 H   0  0  0  0  0  0  0  0  0  0  0  0
    0.1116   -1.9413    1.8133 H   0  0  0  0  0  0  0  0  0  0  0  0
    2.4828   -1.6307    1.6934 H   0  0  0  0  0  0  0  0  0  0  0  0
  1  2  1  0
  2  3  1  0
  3  4  2  0
  3  5  1  0
  5  6  2  0
  6  7  1  0
  7  8  2  0
  8  9  1  0
  9 10  2  0
 10 11  1  0
 11 12  1  6
 11 13  1  0
 13 14  1  0
 14 15  1  0
 15 16  1  0
 16 17  2  0
 17 18  1  0
 18 19  2  0
 10 20  1  0
 20 21  2  0
 21 22  1  0
 22 23  2  0
 23  5  1  0
 22  8  1  0
 19 11  1  0
 19 15  1  0
  1 24  1  0
  1 25  1  0
  1 26  1  0
  2 27  1  0
  6 28  1  0
  7 29  1  0
  9 30  1  0
 12 31  1  0
 13 32  1  0
 13 33  1  0
 14 34  1  0
 14 35  1  0
 16 36  1  0
 18 37  1  0
 20 38  1  0
 21 39  1  0
 23 40  1  0
M  END
$$$$
