
     RDKit          3D

 38 40  0  0  0  0  0  0  0  0999 V2000
   -6.5553    1.6420   -0.3528 O   0  0  0  0  0  0  0  0  0  0  0  0
   -5.5198    1.2998    0.2485 C   0  0  0  0  0  0  0  0  0  0  0  0
   -5.3538    1.6339    1.5753 O   0  0  0  0  0  0  0  0  0  0  0  0
   -4.4933    0.5552   -0.4386 C   0  0  0  0  0  0  0  0  0  0  0  0
   -4.6598    0.2224   -1.7621 C   0  0  0  0  0  0  0  0  0  0  0  0
   -3.6712   -0.4918   -2.4147 C   0  0  0  0  0  0  0  0  0  0  0  0
   -2.5230   -0.8731   -1.7547 C   0  0  0  0  0  0  0  0  0  0  0  0
   -2.3503   -0.5437   -0.4321 C   0  0  0  0  0  0  0  0  0  0  0  0
   -0.8945   -1.0107    0.4565 S   0  0  0  0  0  6  0  0  0  0  0  0
   -1.3106   -1.1481    1.8944 O   0  0  0  0  0  0  0  0  0  0  0  0
   -0.4533   -2.3524   -0.0525 O   0  0  0  0  0  0  0  0  0  0  0  0
    0.2711    0.2036    0.3110 N   0  0  0  0  0  0  0  0  0  0  0  0
    0.7309    0.4937   -0.9826 C   0  0  0  0  0  0  0  0  0  0  0  0
    2.1497    0.9804   -1.0800 C   0  0  0  0  0  0  0  0  0  0  0  0
    3.0565    0.3741   -0.1050 C   0  0  0  0  0  0  0  0  0  0  0  0
    4.3742    0.1226   -0.4600 C   0  0  0  0  0  0  0  0  0  0  0  0
    5.1897   -0.4566    0.5132 C   0  0  0  0  0  0  0  0  0  0  0  0
    6.5118   -0.6978    0.1256 O   0  0  0  0  0  0  0  0  0  0  0  0
    4.7112   -0.7640    1.7651 C   0  0  0  0  0  0  0  0  0  0  0  0
    3.3815   -0.4966    2.0848 C   0  0  0  0  0  0  0  0  0  0  0  0
    2.5572    0.0720    1.1487 C   0  0  0  0  0  0  0  0  0  0  0  0
    1.1395    0.3887    1.4011 C   0  0  0  0  0  0  0  0  0  0  0  0
   -3.3454    0.1673    0.2000 C   0  0  0  0  0  0  0  0  0  0  0  0
   -6.1947    1.7901    2.1470 H   0  0  0  0  0  0  0  0  0  0  0  0
   -5.5536    0.5015   -2.3320 H   0  0  0  0  0  0  0  0  0  0  0  0
   -3.7543   -0.7761   -3.4495 H   0  0  0  0  0  0  0  0  0  0  0  0
   -1.7470   -1.4373   -2.2785 H   0  0  0  0  0  0  0  0  0  0  0  0
    0.0440    1.2028   -1.4896 H   0  0  0  0  0  0  0  0  0  0  0  0
    0.6840   -0.4533   -1.5978 H   0  0  0  0  0  0  0  0  0  0  0  0
    2.1239    2.0809   -0.8721 H   0  0  0  0  0  0  0  0  0  0  0  0
    2.5610    0.8879   -2.1061 H   0  0  0  0  0  0  0  0  0  0  0  0
    4.7681    0.3567   -1.4370 H   0  0  0  0  0  0  0  0  0  0  0  0
    7.0541   -1.2805    0.7514 H   0  0  0  0  0  0  0  0  0  0  0  0
    5.3868   -1.2057    2.4640 H   0  0  0  0  0  0  0  0  0  0  0  0
    3.0168   -0.7383    3.0601 H   0  0  0  0  0  0  0  0  0  0  0  0
    1.0933    1.4566    1.7545 H   0  0  0  0  0  0  0  0  0  0  0  0
    0.7807   -0.2240    2.2597 H   0  0  0  0  0  0  0  0  0  0  0  0
   -3.2061    0.4236    1.2370 H   0  0  0  0  0  0  0  0  0  0  0  0
  1  2  2  0
  2  3  1  0
  2  4  1  0
  4  5  2  0
  5  6  1  0
  6  7  2  0
  7  8  1  0
  8  9  1  0
  9 10  2  0
  9 11  2  0
  9 12  1  0
 12 13  1  0
 13 14  1  0
 14 15  1  0
 15 16  2  0
 16 17  1  0
 17 18  1  0
 17 19  2  0
 19 20  1  0
 20 21  2  0
 21 22  1  0
  8 23  2  0
 23  4  1  0
 22 12  1  0
 21 15  1  0
  3 24  1  0
  5 25  1  0
  6 26  1  0
  7 27  1  0
 13 28  1  0
 13 29  1  0
 14 30  1  0
 14 31  1  0
 16 32  1  0
 18 33  1  0
 19 34  1  0
 20 35  1  0
 22 36  1  0
 22 37  1  0
 23 38  1  0
M  END
$$$$
