
     RDKit          3D

 36 35  0  0  0  0  0  0  0  0999 V2000
    4.8794    1.9777    0.6190 C   0  0  0  0  0  0  0  0  0  0  0  0
    4.0719    1.2461   -0.4093 C   0  0  0  0  0  0  0  0  0  0  0  0
    3.0247    0.3790    0.3000 C   0  0  0  0  0  0  0  0  0  0  0  0
    2.2533   -0.3239   -0.7887 C   0  0  0  0  0  0  0  0  0  0  0  0
    1.1746   -1.2242   -0.2353 C   0  0  1  0  0  0  0  0  0  0  0  0
    1.7226   -2.2829    0.6437 C   0  0  0  0  0  0  0  0  0  0  0  0
    1.3301   -2.4341    1.7803 O   0  0  0  0  0  0  0  0  0  0  0  0
    0.1765   -0.5006    0.5031 N   0  0  0  0  0  0  0  0  0  0  0  0
   -1.1738   -0.5084    0.0948 C   0  0  0  0  0  0  0  0  0  0  0  0
   -1.4537   -1.1744   -0.9371 O   0  0  0  0  0  0  0  0  0  0  0  0
   -2.1723    0.1920    0.8000 O   0  0  0  0  0  0  0  0  0  0  0  0
   -3.4794    0.0833    0.2606 C   0  0  0  0  0  0  0  0  0  0  0  0
   -3.4187    0.6407   -1.1499 C   0  0  0  0  0  0  0  0  0  0  0  0
   -4.4845    0.8372    1.0806 C   0  0  0  0  0  0  0  0  0  0  0  0
   -3.8728   -1.3801    0.2713 C   0  0  0  0  0  0  0  0  0  0  0  0
    4.2324    2.2664    1.4676 H   0  0  0  0  0  0  0  0  0  0  0  0
    5.3080    2.9011    0.1523 H   0  0  0  0  0  0  0  0  0  0  0  0
    5.7098    1.3129    0.9436 H   0  0  0  0  0  0  0  0  0  0  0  0
    3.5928    1.9378   -1.1193 H   0  0  0  0  0  0  0  0  0  0  0  0
    4.6950    0.5382   -1.0136 H   0  0  0  0  0  0  0  0  0  0  0  0
    2.3644    0.9740    0.9332 H   0  0  0  0  0  0  0  0  0  0  0  0
    3.5282   -0.3900    0.9038 H   0  0  0  0  0  0  0  0  0  0  0  0
    2.9721   -0.9735   -1.3319 H   0  0  0  0  0  0  0  0  0  0  0  0
    1.7824    0.3887   -1.4735 H   0  0  0  0  0  0  0  0  0  0  0  0
    0.7368   -1.7571   -1.1241 H   0  0  0  0  0  0  0  0  0  0  0  0
    2.4895   -2.9410    0.2750 H   0  0  0  0  0  0  0  0  0  0  0  0
    0.4687    0.0304    1.3462 H   0  0  0  0  0  0  0  0  0  0  0  0
   -4.1405    1.4840   -1.2405 H   0  0  0  0  0  0  0  0  0  0  0  0
   -2.4181    1.0478   -1.4013 H   0  0  0  0  0  0  0  0  0  0  0  0
   -3.6736   -0.1458   -1.8804 H   0  0  0  0  0  0  0  0  0  0  0  0
   -4.1037    1.8061    1.4528 H   0  0  0  0  0  0  0  0  0  0  0  0
   -5.3418    1.0767    0.3978 H   0  0  0  0  0  0  0  0  0  0  0  0
   -4.8562    0.2195    1.9028 H   0  0  0  0  0  0  0  0  0  0  0  0
   -4.9015   -1.5239    0.6667 H   0  0  0  0  0  0  0  0  0  0  0  0
   -3.8236   -1.7933   -0.7610 H   0  0  0  0  0  0  0  0  0  0  0  0
   -3.1990   -1.9865    0.9340 H   0  0  0  0  0  0  0  0  0  0  0  0
  1  2  1  0
  2  3  1  0
  3  4  1  0
  4  5  1  0
  5  6  1  0
  6  7  2  0
  5  8  1  0
  8  9  1  0
  9 10  2  0
  9 11  1  0
 11 12  1  0
 12 13  1  0
 12 14  1  0
 12 15  1  0
  1 16  1  0
  1 17  1  0
  1 18  1  0
  2 19  1  0
  2 20  1  0
  3 21  1  0
  3 22  1  0
  4 23  1  0
  4 24  1  0
  5 25  1  6
  6 26  1  0
  8 27  1  0
 13 28  1  0
 13 29  1  0
 13 30  1  0
 14 31  1  0
 14 32  1  0
 14 33  1  0
 15 34  1  0
 15 35  1  0
 15 36  1  0
M  END
$$$$
