
     RDKit          3D

 39 41  0  0  0  0  0  0  0  0999 V2000
    4.7672    1.9795   -1.5100 C   0  0  0  0  0  0  0  0  0  0  0  0
    4.4501    0.6966   -1.0143 O   0  0  0  0  0  0  0  0  0  0  0  0
    3.1618    0.4910   -0.5026 C   0  0  0  0  0  0  0  0  0  0  0  0
    2.2439    1.5024   -0.4856 C   0  0  0  0  0  0  0  0  0  0  0  0
    0.9557    1.2918    0.0274 C   0  0  0  0  0  0  0  0  0  0  0  0
    0.5591    0.1006    0.5210 C   0  0  0  0  0  0  0  0  0  0  0  0
   -0.7864   -0.1763    1.0040 C   0  0  0  0  0  0  0  0  0  0  0  0
   -0.9478   -1.3442    1.6131 N   0  0  0  0  0  0  0  0  0  0  0  0
   -2.1376   -1.7738    2.1488 N   0  0  0  0  0  0  0  0  0  0  0  0
   -3.2466   -0.9153    2.0500 C   0  0  0  0  0  0  0  0  0  0  0  0
   -4.1942   -1.0364    2.8581 O   0  0  0  0  0  0  0  0  0  0  0  0
   -3.2811    0.1021    1.0116 C   0  0  2  0  0  0  0  0  0  0  0  0
   -3.9521   -0.5674   -0.1758 C   0  0  0  0  0  0  0  0  0  0  0  0
   -4.0482    0.3566   -1.3182 C   0  0  0  0  0  0  0  0  0  0  0  0
   -3.0894    1.2130   -1.4795 C   0  0  0  0  0  0  0  0  0  0  0  0
   -1.8853    1.3659   -0.6249 C   0  0  0  0  0  0  0  0  0  0  0  0
   -1.9423    0.7052    0.7259 C   0  0  2  0  0  0  0  0  0  0  0  0
    1.5237   -0.9206    0.4919 C   0  0  0  0  0  0  0  0  0  0  0  0
    2.7895   -0.7434   -0.0022 C   0  0  0  0  0  0  0  0  0  0  0  0
    3.7454   -1.7398   -0.0357 O   0  0  0  0  0  0  0  0  0  0  0  0
    3.5439   -3.0512    0.4286 C   0  0  0  0  0  0  0  0  0  0  0  0
    5.7831    2.0513   -1.8944 H   0  0  0  0  0  0  0  0  0  0  0  0
    4.5932    2.6944   -0.6584 H   0  0  0  0  0  0  0  0  0  0  0  0
    3.9887    2.2340   -2.2695 H   0  0  0  0  0  0  0  0  0  0  0  0
    2.5184    2.4806   -0.8751 H   0  0  0  0  0  0  0  0  0  0  0  0
    0.3450    2.1650    0.0336 H   0  0  0  0  0  0  0  0  0  0  0  0
   -2.2197   -2.7331    2.6281 H   0  0  0  0  0  0  0  0  0  0  0  0
   -3.9897    0.9107    1.3609 H   0  0  0  0  0  0  0  0  0  0  0  0
   -4.9632   -0.8597    0.1708 H   0  0  0  0  0  0  0  0  0  0  0  0
   -3.3833   -1.4665   -0.4466 H   0  0  0  0  0  0  0  0  0  0  0  0
   -4.8844    0.3060   -1.9765 H   0  0  0  0  0  0  0  0  0  0  0  0
   -3.1682    1.8908   -2.3290 H   0  0  0  0  0  0  0  0  0  0  0  0
   -1.0658    0.9126   -1.2096 H   0  0  0  0  0  0  0  0  0  0  0  0
   -1.7281    2.4705   -0.5694 H   0  0  0  0  0  0  0  0  0  0  0  0
   -1.8324    1.5492    1.4764 H   0  0  0  0  0  0  0  0  0  0  0  0
    1.2569   -1.8910    0.8763 H   0  0  0  0  0  0  0  0  0  0  0  0
    3.1288   -3.7245   -0.3409 H   0  0  0  0  0  0  0  0  0  0  0  0
    4.5020   -3.5085    0.8065 H   0  0  0  0  0  0  0  0  0  0  0  0
    2.8893   -3.0179    1.3484 H   0  0  0  0  0  0  0  0  0  0  0  0
  1  2  1  0
  2  3  1  0
  3  4  2  0
  4  5  1  0
  5  6  2  0
  6  7  1  0
  7  8  2  0
  8  9  1  0
  9 10  1  0
 10 11  2  0
 10 12  1  0
 12 13  1  0
 13 14  1  0
 14 15  2  0
 15 16  1  0
 16 17  1  0
  6 18  1  0
 18 19  2  0
 19 20  1  0
 20 21  1  0
 19  3  1  0
 17  7  1  0
 17 12  1  0
  1 22  1  0
  1 23  1  0
  1 24  1  0
  4 25  1  0
  5 26  1  0
  9 27  1  0
 12 28  1  1
 13 29  1  0
 13 30  1  0
 14 31  1  0
 15 32  1  0
 16 33  1  0
 16 34  1  0
 17 35  1  1
 18 36  1  0
 21 37  1  0
 21 38  1  0
 21 39  1  0
M  END
$$$$
