
     RDKit          3D

 60 63  0  0  0  0  0  0  0  0999 V2000
    6.6693    1.9144   -2.6519 C   0  0  0  0  0  0  0  0  0  0  0  0
    7.3089    0.8568   -1.9361 O   0  0  0  0  0  0  0  0  0  0  0  0
    6.5252    0.1159   -1.0634 C   0  0  0  0  0  0  0  0  0  0  0  0
    5.1696    0.3751   -0.8781 C   0  0  0  0  0  0  0  0  0  0  0  0
    4.4060   -0.3658   -0.0113 C   0  0  0  0  0  0  0  0  0  0  0  0
    3.0392   -0.1188    0.1879 C   0  0  0  0  0  0  0  0  0  0  0  0
    2.3460   -0.9057    1.0735 C   0  0  0  0  0  0  0  0  0  0  0  0
    0.9335   -0.6715    1.3011 C   0  0  0  0  0  0  0  0  0  0  0  0
    0.0158   -1.7180    1.3673 C   0  0  0  0  0  0  0  0  0  0  0  0
   -1.3267   -1.4830    1.5834 C   0  0  0  0  0  0  0  0  0  0  0  0
   -1.8425   -0.2130    1.7461 C   0  0  0  0  0  0  0  0  0  0  0  0
   -3.2950    0.0425    1.9837 C   0  0  0  0  0  0  0  0  0  0  0  0
   -4.0862    0.2129    0.8753 N   0  0  0  0  0  0  0  0  0  0  0  0
   -3.9785    1.1490   -0.1081 C   0  0  0  0  0  0  0  0  0  0  0  0
   -4.2392    2.5896    0.2152 C   0  0  0  0  0  0  0  0  0  0  0  0
   -5.5195    2.8324    0.6933 O   0  0  0  0  0  0  0  0  0  0  0  0
   -5.1514   -0.7288    0.7669 C   0  0  0  0  0  0  0  0  0  0  0  0
   -5.9347   -0.5604   -0.4595 C   0  0  0  0  0  0  0  0  0  0  0  0
   -5.5485   -1.2656   -1.5922 C   0  0  0  0  0  0  0  0  0  0  0  0
   -6.2419   -1.1509   -2.7569 C   0  0  0  0  0  0  0  0  0  0  0  0
   -7.3388   -0.3307   -2.8248 C   0  0  0  0  0  0  0  0  0  0  0  0
   -7.7414    0.3753   -1.7251 C   0  0  0  0  0  0  0  0  0  0  0  0
   -7.0371    0.2585   -0.5427 C   0  0  0  0  0  0  0  0  0  0  0  0
   -0.9275    0.8172    1.6792 C   0  0  0  0  0  0  0  0  0  0  0  0
    0.4172    0.5999    1.4641 C   0  0  0  0  0  0  0  0  0  0  0  0
    3.0250   -1.9021    1.7260 C   0  0  0  0  0  0  0  0  0  0  0  0
    2.4557   -2.6612    2.5503 O   0  0  0  0  0  0  0  0  0  0  0  0
    4.3191   -2.1159    1.5199 O   0  0  0  0  0  0  0  0  0  0  0  0
    5.0115   -1.3866    0.6842 C   0  0  0  0  0  0  0  0  0  0  0  0
    6.3697   -1.6460    0.4981 C   0  0  0  0  0  0  0  0  0  0  0  0
    7.1354   -0.9054   -0.3693 C   0  0  0  0  0  0  0  0  0  0  0  0
    8.4618   -1.1826   -0.5303 O   0  0  0  0  0  0  0  0  0  0  0  0
    9.1982   -2.1800    0.1044 C   0  0  0  0  0  0  0  0  0  0  0  0
    6.3310    2.6333   -1.8508 H   0  0  0  0  0  0  0  0  0  0  0  0
    5.7829    1.5668   -3.2080 H   0  0  0  0  0  0  0  0  0  0  0  0
    7.4045    2.3850   -3.3173 H   0  0  0  0  0  0  0  0  0  0  0  0
    4.7247    1.1758   -1.4326 H   0  0  0  0  0  0  0  0  0  0  0  0
    2.6121    0.6827   -0.3731 H   0  0  0  0  0  0  0  0  0  0  0  0
    0.4177   -2.7282    1.2391 H   0  0  0  0  0  0  0  0  0  0  0  0
   -2.0224   -2.3095    1.6311 H   0  0  0  0  0  0  0  0  0  0  0  0
   -3.3392    0.8158    2.7816 H   0  0  0  0  0  0  0  0  0  0  0  0
   -3.6431   -0.8947    2.5253 H   0  0  0  0  0  0  0  0  0  0  0  0
   -4.6678    0.9218   -0.9612 H   0  0  0  0  0  0  0  0  0  0  0  0
   -2.9623    1.0591   -0.6068 H   0  0  0  0  0  0  0  0  0  0  0  0
   -4.1837    3.1377   -0.7721 H   0  0  0  0  0  0  0  0  0  0  0  0
   -3.5265    3.0622    0.8717 H   0  0  0  0  0  0  0  0  0  0  0  0
   -5.4655    3.2213    1.5993 H   0  0  0  0  0  0  0  0  0  0  0  0
   -5.8185   -0.7015    1.6692 H   0  0  0  0  0  0  0  0  0  0  0  0
   -4.7777   -1.7957    0.7663 H   0  0  0  0  0  0  0  0  0  0  0  0
   -4.6857   -1.9117   -1.5407 H   0  0  0  0  0  0  0  0  0  0  0  0
   -5.9154   -1.7131   -3.6193 H   0  0  0  0  0  0  0  0  0  0  0  0
   -7.8724   -0.2641   -3.7807 H   0  0  0  0  0  0  0  0  0  0  0  0
   -8.6068    1.0322   -1.7511 H   0  0  0  0  0  0  0  0  0  0  0  0
   -7.3542    0.8172    0.3310 H   0  0  0  0  0  0  0  0  0  0  0  0
   -1.2976    1.8232    1.8023 H   0  0  0  0  0  0  0  0  0  0  0  0
    1.1434    1.4111    1.4105 H   0  0  0  0  0  0  0  0  0  0  0  0
    6.8138   -2.4518    1.0574 H   0  0  0  0  0  0  0  0  0  0  0  0
    8.6214   -3.0844    0.3743 H   0  0  0  0  0  0  0  0  0  0  0  0
    9.5962   -1.7463    1.0668 H   0  0  0  0  0  0  0  0  0  0  0  0
   10.0926   -2.5010   -0.4826 H   0  0  0  0  0  0  0  0  0  0  0  0
  1  2  1  0
  2  3  1  0
  3  4  2  0
  4  5  1  0
  5  6  1  0
  6  7  2  0
  7  8  1  0
  8  9  2  0
  9 10  1  0
 10 11  2  0
 11 12  1  0
 12 13  1  0
 13 14  1  0
 14 15  1  0
 15 16  1  0
 13 17  1  0
 17 18  1  0
 18 19  2  0
 19 20  1  0
 20 21  2  0
 21 22  1  0
 22 23  2  0
 11 24  1  0
 24 25  2  0
  7 26  1  0
 26 27  2  0
 26 28  1  0
 28 29  1  0
 29 30  1  0
 30 31  2  0
 31 32  1  0
 32 33  1  0
 31  3  1  0
 29  5  2  0
 25  8  1  0
 23 18  1  0
  1 34  1  0
  1 35  1  0
  1 36  1  0
  4 37  1  0
  6 38  1  0
  9 39  1  0
 10 40  1  0
 12 41  1  0
 12 42  1  0
 14 43  1  0
 14 44  1  0
 15 45  1  0
 15 46  1  0
 16 47  1  0
 17 48  1  0
 17 49  1  0
 19 50  1  0
 20 51  1  0
 21 52  1  0
 22 53  1  0
 23 54  1  0
 24 55  1  0
 25 56  1  0
 30 57  1  0
 33 58  1  0
 33 59  1  0
 33 60  1  0
M  END
$$$$
