
     RDKit          3D

 55 59  0  0  0  0  0  0  0  0999 V2000
   -7.3169   -1.8612   -1.9231 O   0  0  0  0  0  0  0  0  0  0  0  0
   -6.2839   -1.2799   -1.1974 C   0  0  0  0  0  0  0  0  0  0  0  0
   -5.1065   -1.9205   -1.0294 N   0  0  0  0  0  0  0  0  0  0  0  0
   -4.1014   -1.3987   -0.3455 N   0  0  0  0  0  0  0  0  0  0  0  0
   -4.2164   -0.1659    0.2299 C   0  0  0  0  0  0  0  0  0  0  0  0
   -3.1832    0.5257    1.0114 C   0  0  0  0  0  0  0  0  0  0  0  0
   -1.9721   -0.3322    1.0837 C   0  0  0  0  0  0  0  0  0  0  0  0
   -1.0123   -0.1952    0.0969 C   0  0  0  0  0  0  0  0  0  0  0  0
    0.1126   -0.9902    0.1616 C   0  0  0  0  0  0  0  0  0  0  0  0
    1.1233   -0.8453   -0.8784 C   0  0  0  0  0  0  0  0  0  0  0  0
    1.3832   -1.3488   -2.0199 O   0  0  0  0  0  0  0  0  0  0  0  0
    2.2299    0.0488   -0.8283 N   0  0  0  0  0  0  0  0  0  0  0  0
    3.0654   -0.0461   -2.0350 C   0  0  0  0  0  0  0  0  0  0  0  0
    4.3172    0.7871   -1.8075 C   0  0  0  0  0  0  0  0  0  0  0  0
    4.5942    0.9291   -0.3874 N   0  0  0  0  0  0  0  0  0  0  0  0
    3.5672    1.6965    0.2868 C   0  0  0  0  0  0  0  0  0  0  0  0
    2.3138    0.8505    0.3620 C   0  0  0  0  0  0  0  0  0  0  0  0
    5.6767    0.4497    0.4142 C   0  0  0  0  0  0  0  0  0  0  0  0
    5.7621    0.6676    1.6514 O   0  0  0  0  0  0  0  0  0  0  0  0
    6.7902   -0.3474   -0.1563 C   0  0  0  0  0  0  0  0  0  0  0  0
    8.1372   -0.2491    0.4142 C   0  0  0  0  0  0  0  0  0  0  0  0
    7.3014   -1.4817    0.6964 C   0  0  0  0  0  0  0  0  0  0  0  0
    0.3137   -1.9150    1.1737 C   0  0  0  0  0  0  0  0  0  0  0  0
    1.4242   -2.6865    1.2206 F   0  0  0  0  0  0  0  0  0  0  0  0
   -0.6423   -2.0618    2.1699 C   0  0  0  0  0  0  0  0  0  0  0  0
   -1.7618   -1.2545    2.0847 C   0  0  0  0  0  0  0  0  0  0  0  0
   -5.4169    0.5360    0.0833 C   0  0  0  0  0  0  0  0  0  0  0  0
   -5.6008    1.7902    0.6408 C   0  0  0  0  0  0  0  0  0  0  0  0
   -6.7883    2.4709    0.4889 C   0  0  0  0  0  0  0  0  0  0  0  0
   -7.8095    1.8888   -0.2323 C   0  0  0  0  0  0  0  0  0  0  0  0
   -7.6614    0.6238   -0.8102 C   0  0  0  0  0  0  0  0  0  0  0  0
   -6.4577   -0.0308   -0.6382 C   0  0  0  0  0  0  0  0  0  0  0  0
   -7.8607   -2.6351   -1.5478 H   0  0  0  0  0  0  0  0  0  0  0  0
   -3.5693    0.7347    2.0408 H   0  0  0  0  0  0  0  0  0  0  0  0
   -2.8970    1.5061    0.5896 H   0  0  0  0  0  0  0  0  0  0  0  0
   -1.1090    0.5068   -0.7187 H   0  0  0  0  0  0  0  0  0  0  0  0
    3.3003   -1.1337   -2.1554 H   0  0  0  0  0  0  0  0  0  0  0  0
    2.5494    0.3232   -2.9295 H   0  0  0  0  0  0  0  0  0  0  0  0
    5.1588    0.2855   -2.3139 H   0  0  0  0  0  0  0  0  0  0  0  0
    4.1029    1.8077   -2.2090 H   0  0  0  0  0  0  0  0  0  0  0  0
    3.2973    2.6023   -0.3282 H   0  0  0  0  0  0  0  0  0  0  0  0
    3.8877    2.0141    1.3060 H   0  0  0  0  0  0  0  0  0  0  0  0
    1.4163    1.4788    0.5252 H   0  0  0  0  0  0  0  0  0  0  0  0
    2.4591    0.1384    1.2072 H   0  0  0  0  0  0  0  0  0  0  0  0
    6.7107   -0.5372   -1.2477 H   0  0  0  0  0  0  0  0  0  0  0  0
    9.0283   -0.4520   -0.2142 H   0  0  0  0  0  0  0  0  0  0  0  0
    8.3537    0.3594    1.3282 H   0  0  0  0  0  0  0  0  0  0  0  0
    6.8591   -1.6141    1.7171 H   0  0  0  0  0  0  0  0  0  0  0  0
    7.5610   -2.4274    0.1523 H   0  0  0  0  0  0  0  0  0  0  0  0
   -0.5336   -2.7693    2.9823 H   0  0  0  0  0  0  0  0  0  0  0  0
   -2.5272   -1.3316    2.8307 H   0  0  0  0  0  0  0  0  0  0  0  0
   -4.7953    2.2449    1.2073 H   0  0  0  0  0  0  0  0  0  0  0  0
   -6.9581    3.4615    0.9189 H   0  0  0  0  0  0  0  0  0  0  0  0
   -8.7507    2.4120   -0.3609 H   0  0  0  0  0  0  0  0  0  0  0  0
   -8.4641    0.1714   -1.3744 H   0  0  0  0  0  0  0  0  0  0  0  0
  1  2  1  0
  2  3  2  0
  3  4  1  0
  4  5  2  0
  5  6  1  0
  6  7  1  0
  7  8  2  0
  8  9  1  0
  9 10  1  0
 10 11  2  0
 10 12  1  0
 12 13  1  0
 13 14  1  0
 14 15  1  0
 15 16  1  0
 16 17  1  0
 15 18  1  0
 18 19  2  0
 18 20  1  0
 20 21  1  0
 21 22  1  0
  9 23  2  0
 23 24  1  0
 23 25  1  0
 25 26  2  0
  5 27  1  0
 27 28  2  0
 28 29  1  0
 29 30  2  0
 30 31  1  0
 31 32  2  0
 32  2  1  0
 26  7  1  0
 32 27  1  0
 17 12  1  0
 22 20  1  0
  1 33  1  0
  6 34  1  0
  6 35  1  0
  8 36  1  0
 13 37  1  0
 13 38  1  0
 14 39  1  0
 14 40  1  0
 16 41  1  0
 16 42  1  0
 17 43  1  0
 17 44  1  0
 20 45  1  0
 21 46  1  0
 21 47  1  0
 22 48  1  0
 22 49  1  0
 25 50  1  0
 26 51  1  0
 28 52  1  0
 29 53  1  0
 30 54  1  0
 31 55  1  0
M  END
$$$$
