
     RDKit          3D

 78 85  0  0  0  0  0  0  0  0999 V2000
   -1.1676   -1.0392    0.8707 C   0  0  1  0  0  0  0  0  0  0  0  0
   -0.1442   -1.8289    1.6555 C   0  0  0  0  0  0  0  0  0  0  0  0
   -1.0218   -2.5393    2.5452 O   0  0  0  0  0  0  0  0  0  0  0  0
   -2.1384   -1.7245    2.8213 C   0  0  0  0  0  0  0  0  0  0  0  0
   -3.0981   -2.0125    3.6160 O   0  0  0  0  0  0  0  0  0  0  0  0
   -1.9745   -0.4976    2.0219 C   0  0  2  0  0  0  0  0  0  0  0  0
   -3.2093    0.1264    1.5116 C   0  0  2  0  0  0  0  0  0  0  0  0
   -4.0803   -0.7122    0.6665 C   0  0  0  0  0  0  0  0  0  0  0  0
   -3.8930   -0.9613   -0.6733 C   0  0  0  0  0  0  0  0  0  0  0  0
   -4.6992   -1.7527   -1.4615 C   0  0  0  0  0  0  0  0  0  0  0  0
   -4.4474   -1.9608   -2.8146 O   0  0  0  0  0  0  0  0  0  0  0  0
   -3.3101   -1.3238   -3.3954 C   0  0  0  0  0  0  0  0  0  0  0  0
   -5.7922   -2.3515   -0.8601 C   0  0  0  0  0  0  0  0  0  0  0  0
   -6.6057   -3.1563   -1.6728 O   0  0  0  0  0  0  0  0  0  0  0  0
   -6.0276   -2.1295    0.5029 C   0  0  0  0  0  0  0  0  0  0  0  0
   -7.1587   -2.8014    0.9443 O   0  0  0  0  0  0  0  0  0  0  0  0
   -7.5197   -2.6694    2.3039 C   0  0  0  0  0  0  0  0  0  0  0  0
   -5.1900   -1.3278    1.2463 C   0  0  0  0  0  0  0  0  0  0  0  0
   -2.7901    1.2801    0.6621 C   0  0  0  0  0  0  0  0  0  0  0  0
   -3.5586    2.3867    0.4918 C   0  0  0  0  0  0  0  0  0  0  0  0
   -3.1916    3.4610   -0.2904 C   0  0  0  0  0  0  0  0  0  0  0  0
   -1.9733    3.4094   -0.9380 C   0  0  0  0  0  0  0  0  0  0  0  0
   -1.8471    4.5884   -1.6439 O   0  0  0  0  0  0  0  0  0  0  0  0
   -2.8117    5.5293   -1.2191 C   0  0  0  0  0  0  0  0  0  0  0  0
   -3.7941    4.6840   -0.6147 O   0  0  0  0  0  0  0  0  0  0  0  0
   -1.1850    2.2844   -0.7686 C   0  0  0  0  0  0  0  0  0  0  0  0
   -1.5465    1.1905    0.0215 C   0  0  0  0  0  0  0  0  0  0  0  0
   -0.5577    0.0804    0.0741 C   0  0  1  0  0  0  0  0  0  0  0  0
    0.5972    0.5826    0.6478 O   0  0  0  0  0  0  0  0  0  0  0  0
    1.7246    0.4779   -0.1506 C   0  0  2  0  0  0  0  0  0  0  0  0
    2.5077   -0.5141    0.4562 O   0  0  0  0  0  0  0  0  0  0  0  0
    3.7956   -0.5280   -0.0295 C   0  0  2  0  0  0  0  0  0  0  0  0
    4.5490   -1.7236    0.4099 C   0  0  0  0  0  0  0  0  0  0  0  0
    5.7986   -1.5676    0.8932 O   0  0  0  0  0  0  0  0  0  0  0  0
    6.4674   -0.4085    0.6917 C   0  0  2  0  0  0  0  0  0  0  0  0
    5.7793    0.6148    0.0897 O   0  0  0  0  0  0  0  0  0  0  0  0
    4.4847    0.6801    0.5924 C   0  0  1  0  0  0  0  0  0  0  0  0
    3.7535    1.9282    0.2704 C   0  0  2  0  0  0  0  0  0  0  0  0
    3.4647    2.5907    1.4860 O   0  0  0  0  0  0  0  0  0  0  0  0
    2.4439    1.7433   -0.4334 C   0  0  1  0  0  0  0  0  0  0  0  0
    2.7245    1.7815   -1.8191 O   0  0  0  0  0  0  0  0  0  0  0  0
    7.7012   -0.6259   -0.1373 C   0  0  0  0  0  0  0  0  0  0  0  0
    8.2269    0.0648   -1.2043 C   0  0  0  0  0  0  0  0  0  0  0  0
    9.3831   -0.3837   -1.7586 C   0  0  0  0  0  0  0  0  0  0  0  0
    9.9937   -1.5142   -1.2369 C   0  0  0  0  0  0  0  0  0  0  0  0
    8.8348   -1.9826    0.1545 S   0  0  0  0  0  0  0  0  0  0  0  0
   -1.7305   -1.7679    0.2810 H   0  0  0  0  0  0  0  0  0  0  0  0
    0.5133   -1.2134    2.2802 H   0  0  0  0  0  0  0  0  0  0  0  0
    0.4220   -2.5368    1.0270 H   0  0  0  0  0  0  0  0  0  0  0  0
   -1.3642    0.2729    2.5381 H   0  0  0  0  0  0  0  0  0  0  0  0
   -3.7858    0.5461    2.3861 H   0  0  0  0  0  0  0  0  0  0  0  0
   -3.0639   -0.5124   -1.2003 H   0  0  0  0  0  0  0  0  0  0  0  0
   -3.2232   -1.5487   -4.4674 H   0  0  0  0  0  0  0  0  0  0  0  0
   -2.4101   -1.7185   -2.8915 H   0  0  0  0  0  0  0  0  0  0  0  0
   -3.3590   -0.2229   -3.2799 H   0  0  0  0  0  0  0  0  0  0  0  0
   -6.7598   -2.8991   -2.6412 H   0  0  0  0  0  0  0  0  0  0  0  0
   -8.3221   -3.4070    2.5484 H   0  0  0  0  0  0  0  0  0  0  0  0
   -6.6008   -2.8366    2.9073 H   0  0  0  0  0  0  0  0  0  0  0  0
   -7.9087   -1.6524    2.5497 H   0  0  0  0  0  0  0  0  0  0  0  0
   -5.4683   -1.2321    2.2686 H   0  0  0  0  0  0  0  0  0  0  0  0
   -4.5146    2.3837    1.0229 H   0  0  0  0  0  0  0  0  0  0  0  0
   -3.2279    6.1285   -2.0536 H   0  0  0  0  0  0  0  0  0  0  0  0
   -2.4099    6.1764   -0.3947 H   0  0  0  0  0  0  0  0  0  0  0  0
   -0.2589    2.3206   -1.3028 H   0  0  0  0  0  0  0  0  0  0  0  0
   -0.4182   -0.3319   -0.9436 H   0  0  0  0  0  0  0  0  0  0  0  0
    1.3642   -0.0128   -1.0999 H   0  0  0  0  0  0  0  0  0  0  0  0
    3.8261   -0.4807   -1.1407 H   0  0  0  0  0  0  0  0  0  0  0  0
    4.5700   -2.4962   -0.4143 H   0  0  0  0  0  0  0  0  0  0  0  0
    3.9381   -2.2396    1.2093 H   0  0  0  0  0  0  0  0  0  0  0  0
    6.8296   -0.0284    1.6686 H   0  0  0  0  0  0  0  0  0  0  0  0
    4.5544    0.4554    1.6678 H   0  0  0  0  0  0  0  0  0  0  0  0
    4.3837    2.6235   -0.3593 H   0  0  0  0  0  0  0  0  0  0  0  0
    3.0042    3.4440    1.2648 H   0  0  0  0  0  0  0  0  0  0  0  0
    1.8627    2.6662   -0.2416 H   0  0  0  0  0  0  0  0  0  0  0  0
    3.6580    1.9759   -2.0201 H   0  0  0  0  0  0  0  0  0  0  0  0
    7.6597    0.9255   -1.5180 H   0  0  0  0  0  0  0  0  0  0  0  0
    9.8432    0.1275   -2.6081 H   0  0  0  0  0  0  0  0  0  0  0  0
   10.9001   -1.9790   -1.5685 H   0  0  0  0  0  0  0  0  0  0  0  0
  1  2  1  0
  2  3  1  0
  3  4  1  0
  4  5  2  0
  4  6  1  0
  6  7  1  0
  7  8  1  0
  8  9  2  0
  9 10  1  0
 10 11  1  0
 11 12  1  0
 10 13  2  0
 13 14  1  0
 13 15  1  0
 15 16  1  0
 16 17  1  0
 15 18  2  0
  7 19  1  0
 19 20  2  0
 20 21  1  0
 21 22  2  0
 22 23  1  0
 23 24  1  0
 24 25  1  0
 22 26  1  0
 26 27  2  0
 27 28  1  0
 28 29  1  0
 29 30  1  0
 30 31  1  0
 31 32  1  0
 32 33  1  0
 33 34  1  0
 34 35  1  0
 35 36  1  0
 36 37  1  0
 37 38  1  0
 38 39  1  0
 38 40  1  0
 40 41  1  0
 35 42  1  0
 42 43  2  0
 43 44  1  0
 44 45  2  0
 45 46  1  0
  6  1  1  0
 18  8  1  0
 27 19  1  0
 40 30  1  0
 46 42  1  0
 28  1  1  0
 37 32  1  0
 25 21  1  0
  1 47  1  6
  2 48  1  0
  2 49  1  0
  6 50  1  1
  7 51  1  1
  9 52  1  0
 12 53  1  0
 12 54  1  0
 12 55  1  0
 14 56  1  0
 17 57  1  0
 17 58  1  0
 17 59  1  0
 18 60  1  0
 20 61  1  0
 24 62  1  0
 24 63  1  0
 26 64  1  0
 28 65  1  6
 30 66  1  6
 32 67  1  6
 33 68  1  0
 33 69  1  0
 35 70  1  1
 37 71  1  1
 38 72  1  6
 39 73  1  0
 40 74  1  6
 41 75  1  0
 43 76  1  0
 44 77  1  0
 45 78  1  0
M  END
$$$$
