
     RDKit          3D

 30 32  0  0  0  0  0  0  0  0999 V2000
   -0.1833    0.2364    2.7847 O   0  0  0  0  0  0  0  0  0  0  0  0
   -0.4269    0.1299    1.5617 C   0  0  0  0  0  0  0  0  0  0  0  0
   -1.7881    0.1767    1.0384 C   0  0  0  0  0  0  0  0  0  0  0  0
   -2.8609    0.3448    1.9166 C   0  0  0  0  0  0  0  0  0  0  0  0
   -4.1412    0.3881    1.4182 C   0  0  0  0  0  0  0  0  0  0  0  0
   -4.4236    0.2721    0.0736 C   0  0  0  0  0  0  0  0  0  0  0  0
   -3.3698    0.1063   -0.7950 C   0  0  0  0  0  0  0  0  0  0  0  0
   -3.6059   -0.0148   -2.1567 O   0  0  0  0  0  0  0  0  0  0  0  0
   -2.0764    0.0610   -0.3066 C   0  0  0  0  0  0  0  0  0  0  0  0
   -0.9741   -0.1159   -1.2502 C   0  0  0  0  0  0  0  0  0  0  0  0
   -1.2365   -0.2217   -2.4795 O   0  0  0  0  0  0  0  0  0  0  0  0
    0.3932   -0.1657   -0.7527 C   0  0  0  0  0  0  0  0  0  0  0  0
    1.4099   -0.3347   -1.6802 C   0  0  0  0  0  0  0  0  0  0  0  0
    1.0729   -0.4453   -3.0111 O   0  0  0  0  0  0  0  0  0  0  0  0
    2.6947   -0.3824   -1.2223 C   0  0  0  0  0  0  0  0  0  0  0  0
    2.9917   -0.2678    0.1191 C   0  0  0  0  0  0  0  0  0  0  0  0
    4.3949   -0.3222    0.5970 C   0  0  0  0  0  0  0  0  0  0  0  0
    4.9082    0.9735    0.6057 O   0  0  0  0  0  0  0  0  0  0  0  0
    1.9875   -0.1001    1.0435 C   0  0  0  0  0  0  0  0  0  0  0  0
    0.6642   -0.0478    0.6019 C   0  0  0  0  0  0  0  0  0  0  0  0
   -2.6165    0.4331    2.9618 H   0  0  0  0  0  0  0  0  0  0  0  0
   -4.9557    0.5174    2.1014 H   0  0  0  0  0  0  0  0  0  0  0  0
   -5.4634    0.3113   -0.2922 H   0  0  0  0  0  0  0  0  0  0  0  0
   -3.6454   -0.9840   -2.5068 H   0  0  0  0  0  0  0  0  0  0  0  0
    0.9445    0.4142   -3.5536 H   0  0  0  0  0  0  0  0  0  0  0  0
    3.5119   -0.5156   -1.9419 H   0  0  0  0  0  0  0  0  0  0  0  0
    5.0289   -0.9189   -0.1010 H   0  0  0  0  0  0  0  0  0  0  0  0
    4.4701   -0.8065    1.5859 H   0  0  0  0  0  0  0  0  0  0  0  0
    5.1088    1.2856    1.5367 H   0  0  0  0  0  0  0  0  0  0  0  0
    2.1865   -0.0069    2.1034 H   0  0  0  0  0  0  0  0  0  0  0  0
  1  2  2  0
  2  3  1  0
  3  4  2  0
  4  5  1  0
  5  6  2  0
  6  7  1  0
  7  8  1  0
  7  9  2  0
  9 10  1  0
 10 11  2  0
 10 12  1  0
 12 13  2  0
 13 14  1  0
 13 15  1  0
 15 16  2  0
 16 17  1  0
 17 18  1  0
 16 19  1  0
 19 20  2  0
 20  2  1  0
  9  3  1  0
 20 12  1  0
  4 21  1  0
  5 22  1  0
  6 23  1  0
  8 24  1  0
 14 25  1  0
 15 26  1  0
 17 27  1  0
 17 28  1  0
 18 29  1  0
 19 30  1  0
M  END
$$$$
