
     RDKit          3D

 54 57  0  0  0  0  0  0  0  0999 V2000
    0.9046   -1.9080   -1.7336 O   0  0  0  0  0  0  0  0  0  0  0  0
    0.4963   -1.6237   -0.5657 C   0  0  0  0  0  0  0  0  0  0  0  0
    1.1526   -2.2680    0.5015 N   0  0  0  0  0  0  0  0  0  0  0  0
    2.2203   -3.1958    0.3456 C   0  0  0  0  0  0  0  0  0  0  0  0
    1.9723   -4.5645    0.2094 C   0  0  0  0  0  0  0  0  0  0  0  0
    3.0015   -5.4405    0.0611 C   0  0  0  0  0  0  0  0  0  0  0  0
    4.2886   -4.9680    0.0462 C   0  0  0  0  0  0  0  0  0  0  0  0
    5.5865   -6.1131   -0.1453 Cl  0  0  0  0  0  0  0  0  0  0  0  0
    4.5186   -3.6113    0.1819 C   0  0  0  0  0  0  0  0  0  0  0  0
    3.4913   -2.6978    0.3343 C   0  0  0  0  0  0  0  0  0  0  0  0
    3.7268   -1.2706    0.4774 C   0  0  0  0  0  0  0  0  0  0  0  0
    2.7420   -0.5012    0.6118 O   0  0  0  0  0  0  0  0  0  0  0  0
    5.0089   -0.6594    0.4779 N   0  0  0  0  0  0  0  0  0  0  0  0
    5.1711    0.7550    0.6234 C   0  0  0  0  0  0  0  0  0  0  0  0
    6.4061    1.3592    0.6255 C   0  0  0  0  0  0  0  0  0  0  0  0
    6.5686    2.7246    0.7657 C   0  0  0  0  0  0  0  0  0  0  0  0
    5.4378    3.5247    0.9109 C   0  0  0  0  0  0  0  0  0  0  0  0
    5.5780    5.2615    1.0926 Cl  0  0  0  0  0  0  0  0  0  0  0  0
    4.2183    2.8805    0.9036 C   0  0  0  0  0  0  0  0  0  0  0  0
    4.0950    1.5433    0.7645 N   0  0  0  0  0  0  0  0  0  0  0  0
   -0.5941   -0.6733   -0.4523 C   0  0  0  0  0  0  0  0  0  0  0  0
   -1.1710   -0.0957   -1.5620 C   0  0  0  0  0  0  0  0  0  0  0  0
   -2.2123    0.8101   -1.4253 C   0  0  0  0  0  0  0  0  0  0  0  0
   -2.6876    1.1477   -0.1760 C   0  0  0  0  0  0  0  0  0  0  0  0
   -3.7980    2.1081    0.0121 C   0  0  0  0  0  0  0  0  0  0  0  0
   -5.0836    1.4859    0.0364 N   0  0  0  0  0  0  0  0  0  0  0  0
   -5.4545    0.7728   -1.1441 C   0  0  0  0  0  0  0  0  0  0  0  0
   -6.9596    0.9712   -1.3093 C   0  0  0  0  0  0  0  0  0  0  0  0
   -7.0757    2.4175   -0.8156 C   0  0  0  0  0  0  0  0  0  0  0  0
   -6.1322    2.3981    0.3642 C   0  0  0  0  0  0  0  0  0  0  0  0
   -2.1325    0.5882    0.9506 C   0  0  0  0  0  0  0  0  0  0  0  0
   -1.0878   -0.3183    0.7793 C   0  0  0  0  0  0  0  0  0  0  0  0
    0.8445   -2.0591    1.4721 H   0  0  0  0  0  0  0  0  0  0  0  0
    0.9466   -4.8748    0.2285 H   0  0  0  0  0  0  0  0  0  0  0  0
    2.7528   -6.4977   -0.0412 H   0  0  0  0  0  0  0  0  0  0  0  0
    5.5389   -3.2960    0.1637 H   0  0  0  0  0  0  0  0  0  0  0  0
    5.8257   -1.3003    0.3661 H   0  0  0  0  0  0  0  0  0  0  0  0
    7.2797    0.7347    0.5127 H   0  0  0  0  0  0  0  0  0  0  0  0
    7.5385    3.2026    0.7678 H   0  0  0  0  0  0  0  0  0  0  0  0
    3.3415    3.5086    1.0170 H   0  0  0  0  0  0  0  0  0  0  0  0
   -0.8106   -0.3481   -2.5658 H   0  0  0  0  0  0  0  0  0  0  0  0
   -2.6384    1.2434   -2.3257 H   0  0  0  0  0  0  0  0  0  0  0  0
   -3.6530    2.6253    0.9757 H   0  0  0  0  0  0  0  0  0  0  0  0
   -3.7737    2.9038   -0.7662 H   0  0  0  0  0  0  0  0  0  0  0  0
   -5.2122   -0.3011   -1.0400 H   0  0  0  0  0  0  0  0  0  0  0  0
   -5.0181    1.2143   -2.0862 H   0  0  0  0  0  0  0  0  0  0  0  0
   -7.5030    0.2779   -0.6633 H   0  0  0  0  0  0  0  0  0  0  0  0
   -7.2475    0.8914   -2.3709 H   0  0  0  0  0  0  0  0  0  0  0  0
   -8.0989    2.6935   -0.5651 H   0  0  0  0  0  0  0  0  0  0  0  0
   -6.6477    3.0344   -1.6558 H   0  0  0  0  0  0  0  0  0  0  0  0
   -5.7685    3.4164    0.6337 H   0  0  0  0  0  0  0  0  0  0  0  0
   -6.7221    1.9861    1.2273 H   0  0  0  0  0  0  0  0  0  0  0  0
   -2.5051    0.8529    1.9293 H   0  0  0  0  0  0  0  0  0  0  0  0
   -0.6658   -0.7471    1.6896 H   0  0  0  0  0  0  0  0  0  0  0  0
  1  2  2  0
  2  3  1  0
  3  4  1  0
  4  5  2  0
  5  6  1  0
  6  7  2  0
  7  8  1  0
  7  9  1  0
  9 10  2  0
 10 11  1  0
 11 12  2  0
 11 13  1  0
 13 14  1  0
 14 15  2  0
 15 16  1  0
 16 17  2  0
 17 18  1  0
 17 19  1  0
 19 20  2  0
  2 21  1  0
 21 22  2  0
 22 23  1  0
 23 24  2  0
 24 25  1  0
 25 26  1  0
 26 27  1  0
 27 28  1  0
 28 29  1  0
 29 30  1  0
 24 31  1  0
 31 32  2  0
 10  4  1  0
 20 14  1  0
 32 21  1  0
 30 26  1  0
  3 33  1  0
  5 34  1  0
  6 35  1  0
  9 36  1  0
 13 37  1  0
 15 38  1  0
 16 39  1  0
 19 40  1  0
 22 41  1  0
 23 42  1  0
 25 43  1  0
 25 44  1  0
 27 45  1  0
 27 46  1  0
 28 47  1  0
 28 48  1  0
 29 49  1  0
 29 50  1  0
 30 51  1  0
 30 52  1  0
 31 53  1  0
 32 54  1  0
M  END
$$$$
