
     RDKit          3D

 71 73  0  0  0  0  0  0  0  0999 V2000
   -1.6926    2.7015   -1.3312 C   0  0  2  0  0  0  0  0  0  0  0  0
   -1.6188    2.1748   -2.7692 C   0  0  0  0  0  0  0  0  0  0  0  0
   -1.0788    1.8805   -0.4254 O   0  0  0  0  0  0  0  0  0  0  0  0
   -1.8950    0.8639    0.0467 C   0  0  1  0  0  0  0  0  0  0  0  0
   -1.2395   -0.0196    0.8706 O   0  0  0  0  0  0  0  0  0  0  0  0
   -1.2516   -1.3212    0.4601 C   0  0  1  0  0  0  0  0  0  0  0  0
    0.1670   -1.7776    0.2696 C   0  0  2  0  0  0  0  0  0  0  0  0
    0.9628   -1.0054   -0.5158 O   0  0  0  0  0  0  0  0  0  0  0  0
    2.1263   -0.5955    0.1324 C   0  0  1  0  0  0  0  0  0  0  0  0
    3.3651   -1.1194   -0.5529 C   0  0  2  0  0  0  0  0  0  0  0  0
    4.3480   -1.4750    0.3679 O   0  0  0  0  0  0  0  0  0  0  0  0
    3.9498   -0.2026   -1.5736 C   0  0  1  0  0  0  0  0  0  0  0  0
    3.1549   -0.2827   -2.8816 C   0  0  0  0  0  0  0  0  0  0  0  0
    3.7711    0.4312   -3.8885 O   0  0  0  0  0  0  0  0  0  0  0  0
    4.0746    1.1049   -1.1424 O   0  0  0  0  0  0  0  0  0  0  0  0
    3.6117    1.3203    0.1281 C   0  0  1  0  0  0  0  0  0  0  0  0
    3.7790    2.6802    0.4074 O   0  0  0  0  0  0  0  0  0  0  0  0
    2.1429    0.9097    0.1906 C   0  0  2  0  0  0  0  0  0  0  0  0
    1.5554    1.3010    1.4542 N   0  0  0  0  0  0  0  0  0  0  0  0
    1.2093    2.4844    1.7792 C   0  0  0  0  0  0  0  0  0  0  0  0
    0.6266    2.6240    3.1429 C   0  0  0  0  0  0  0  0  0  0  0  0
    1.3588    3.5724    0.9336 O   0  0  0  0  0  0  0  0  0  0  0  0
    0.2165   -3.0928   -0.2239 O   0  0  0  0  0  0  0  0  0  0  0  0
   -0.1084   -3.9026    0.8606 C   0  0  2  0  0  0  0  0  0  0  0  0
    0.1642   -5.3580    0.5754 C   0  0  0  0  0  0  0  0  0  0  0  0
    1.5244   -5.4847    0.2980 O   0  0  0  0  0  0  0  0  0  0  0  0
   -1.5532   -3.7122    1.1514 C   0  0  2  0  0  0  0  0  0  0  0  0
   -2.2919   -4.1899    0.0672 O   0  0  0  0  0  0  0  0  0  0  0  0
   -1.9691   -2.2800    1.3926 C   0  0  2  0  0  0  0  0  0  0  0  0
   -3.3541   -2.2630    1.2204 O   0  0  0  0  0  0  0  0  0  0  0  0
   -3.0099    1.5220    0.8311 C   0  0  1  0  0  0  0  0  0  0  0  0
   -2.4448    2.4898    1.6571 O   0  0  0  0  0  0  0  0  0  0  0  0
   -3.8831    2.2360   -0.1771 C   0  0  2  0  0  0  0  0  0  0  0  0
   -4.6078    1.3605   -0.9637 O   0  0  0  0  0  0  0  0  0  0  0  0
   -3.0502    3.1960   -0.9724 C   0  0  2  0  0  0  0  0  0  0  0  0
   -3.7734    3.4589   -2.1561 O   0  0  0  0  0  0  0  0  0  0  0  0
   -1.0429    3.6272   -1.3795 H   0  0  0  0  0  0  0  0  0  0  0  0
   -0.5623    1.8923   -2.9454 H   0  0  0  0  0  0  0  0  0  0  0  0
   -1.8522    3.0424   -3.4248 H   0  0  0  0  0  0  0  0  0  0  0  0
   -2.2508    1.3076   -2.9450 H   0  0  0  0  0  0  0  0  0  0  0  0
   -2.3485    0.3982   -0.8432 H   0  0  0  0  0  0  0  0  0  0  0  0
   -1.7898   -1.4534   -0.5284 H   0  0  0  0  0  0  0  0  0  0  0  0
    0.6279   -1.8658    1.2979 H   0  0  0  0  0  0  0  0  0  0  0  0
    2.1634   -0.9800    1.1668 H   0  0  0  0  0  0  0  0  0  0  0  0
    3.1455   -2.0831   -1.1024 H   0  0  0  0  0  0  0  0  0  0  0  0
    4.0187   -2.1993    0.9671 H   0  0  0  0  0  0  0  0  0  0  0  0
    4.9692   -0.5781   -1.8011 H   0  0  0  0  0  0  0  0  0  0  0  0
    2.1309    0.1041   -2.7413 H   0  0  0  0  0  0  0  0  0  0  0  0
    3.1464   -1.3551   -3.1815 H   0  0  0  0  0  0  0  0  0  0  0  0
    4.7367    0.5204   -3.7196 H   0  0  0  0  0  0  0  0  0  0  0  0
    4.1498    0.7737    0.9299 H   0  0  0  0  0  0  0  0  0  0  0  0
    4.5630    2.8337    1.0073 H   0  0  0  0  0  0  0  0  0  0  0  0
    1.5996    1.3688   -0.6503 H   0  0  0  0  0  0  0  0  0  0  0  0
    1.3824    3.0985    3.8118 H   0  0  0  0  0  0  0  0  0  0  0  0
    0.2385    1.6814    3.5393 H   0  0  0  0  0  0  0  0  0  0  0  0
   -0.2179    3.3427    3.1147 H   0  0  0  0  0  0  0  0  0  0  0  0
    1.1796    3.3996   -0.0686 H   0  0  0  0  0  0  0  0  0  0  0  0
    0.4782   -3.5637    1.7533 H   0  0  0  0  0  0  0  0  0  0  0  0
   -0.3597   -5.5963   -0.3908 H   0  0  0  0  0  0  0  0  0  0  0  0
   -0.1549   -6.0259    1.3716 H   0  0  0  0  0  0  0  0  0  0  0  0
    2.0335   -4.6673    0.5404 H   0  0  0  0  0  0  0  0  0  0  0  0
   -1.8360   -4.3200    2.0304 H   0  0  0  0  0  0  0  0  0  0  0  0
   -2.7670   -5.0265    0.2790 H   0  0  0  0  0  0  0  0  0  0  0  0
   -1.6475   -2.0150    2.4205 H   0  0  0  0  0  0  0  0  0  0  0  0
   -3.7722   -2.1757    2.1226 H   0  0  0  0  0  0  0  0  0  0  0  0
   -3.5870    0.7974    1.4307 H   0  0  0  0  0  0  0  0  0  0  0  0
   -2.1701    3.2933    1.1866 H   0  0  0  0  0  0  0  0  0  0  0  0
   -4.6187    2.8299    0.4063 H   0  0  0  0  0  0  0  0  0  0  0  0
   -5.4017    0.9994   -0.5426 H   0  0  0  0  0  0  0  0  0  0  0  0
   -3.0190    4.1769   -0.4449 H   0  0  0  0  0  0  0  0  0  0  0  0
   -4.4508    4.1878   -2.0063 H   0  0  0  0  0  0  0  0  0  0  0  0
  1  2  1  0
  1  3  1  0
  3  4  1  0
  4  5  1  0
  5  6  1  0
  6  7  1  0
  7  8  1  0
  8  9  1  0
  9 10  1  0
 10 11  1  0
 10 12  1  0
 12 13  1  0
 13 14  1  0
 12 15  1  0
 15 16  1  0
 16 17  1  0
 16 18  1  0
 18 19  1  0
 19 20  2  3
 20 21  1  0
 20 22  1  0
  7 23  1  0
 23 24  1  0
 24 25  1  0
 25 26  1  0
 24 27  1  0
 27 28  1  0
 27 29  1  0
 29 30  1  0
  4 31  1  0
 31 32  1  0
 31 33  1  0
 33 34  1  0
 33 35  1  0
 35 36  1  0
 35  1  1  0
 29  6  1  0
 18  9  1  0
  1 37  1  6
  2 38  1  0
  2 39  1  0
  2 40  1  0
  4 41  1  6
  6 42  1  6
  7 43  1  1
  9 44  1  1
 10 45  1  6
 11 46  1  0
 12 47  1  6
 13 48  1  0
 13 49  1  0
 14 50  1  0
 16 51  1  1
 17 52  1  0
 18 53  1  6
 21 54  1  0
 21 55  1  0
 21 56  1  0
 22 57  1  0
 24 58  1  1
 25 59  1  0
 25 60  1  0
 26 61  1  0
 27 62  1  1
 28 63  1  0
 29 64  1  1
 30 65  1  0
 31 66  1  1
 32 67  1  0
 33 68  1  1
 34 69  1  0
 35 70  1  1
 36 71  1  0
M  END
$$$$
