
     RDKit          3D

 61 68  0  0  0  0  0  0  0  0999 V2000
   -4.4519   -2.5279    0.6675 C   0  0  0  0  0  0  0  0  0  0  0  0
   -4.0340   -1.1549    0.8746 N   0  0  0  0  0  0  0  0  0  0  0  0
   -3.1502   -0.8008   -0.2277 C   0  0  2  0  0  0  0  0  0  0  0  0
   -1.9795   -1.7445   -0.1895 C   0  0  0  0  0  0  0  0  0  0  0  0
   -1.0771   -1.3997   -1.3454 C   0  0  1  0  0  0  0  0  0  0  0  0
   -1.2583   -0.1816   -1.8820 O   0  0  0  0  0  0  0  0  0  0  0  0
   -1.5283    0.8852   -1.0303 C   0  0  1  0  0  0  0  0  0  0  0  0
   -2.1411    1.9217   -1.9911 C   0  0  0  0  0  0  0  0  0  0  0  0
   -2.5679    0.5995    0.0019 C   0  0  2  0  0  0  0  0  0  0  0  0
   -2.0973    0.6595    1.2942 O   0  0  0  0  0  0  0  0  0  0  0  0
   -2.8701    1.5373    2.0871 C   0  0  0  0  0  0  0  0  0  0  0  0
   -0.2708    1.3603   -0.4756 N   0  0  0  0  0  0  0  0  0  0  0  0
   -0.0021    2.6343   -0.0814 C   0  0  0  0  0  0  0  0  0  0  0  0
   -0.7553    3.7820   -0.0391 C   0  0  0  0  0  0  0  0  0  0  0  0
   -0.2275    4.9692    0.4252 C   0  0  0  0  0  0  0  0  0  0  0  0
    1.0833    5.0507    0.8678 C   0  0  0  0  0  0  0  0  0  0  0  0
    1.8574    3.8946    0.8311 C   0  0  0  0  0  0  0  0  0  0  0  0
    1.3066    2.7130    0.3606 C   0  0  0  0  0  0  0  0  0  0  0  0
    1.8666    1.4518    0.2409 C   0  0  0  0  0  0  0  0  0  0  0  0
    3.1178    0.9063    0.5213 C   0  0  0  0  0  0  0  0  0  0  0  0
    3.4004   -0.4327    0.3004 C   0  0  0  0  0  0  0  0  0  0  0  0
    2.4006   -1.2278   -0.2104 C   0  0  0  0  0  0  0  0  0  0  0  0
    2.3179   -2.5521   -0.5317 C   0  0  0  0  0  0  0  0  0  0  0  0
    3.2013   -3.5843   -0.4786 C   0  0  0  0  0  0  0  0  0  0  0  0
    2.7701   -4.8487   -0.8976 C   0  0  0  0  0  0  0  0  0  0  0  0
    1.4830   -5.0390   -1.3516 C   0  0  0  0  0  0  0  0  0  0  0  0
    0.5964   -3.9820   -1.4002 C   0  0  0  0  0  0  0  0  0  0  0  0
    1.0068   -2.7405   -0.9930 C   0  0  0  0  0  0  0  0  0  0  0  0
    0.3297   -1.6000   -0.9562 N   0  0  0  0  0  0  0  0  0  0  0  0
    1.1543   -0.6655   -0.4859 C   0  0  0  0  0  0  0  0  0  0  0  0
    0.8857    0.6688   -0.2637 C   0  0  0  0  0  0  0  0  0  0  0  0
    4.7634   -0.6306    0.6976 C   0  0  0  0  0  0  0  0  0  0  0  0
    5.4445   -1.6642    0.6777 O   0  0  0  0  0  0  0  0  0  0  0  0
    5.3366    0.6037    1.1724 N   0  0  0  0  0  0  0  0  0  0  0  0
    4.3011    1.6008    1.0694 C   0  0  0  0  0  0  0  0  0  0  0  0
   -5.4879   -2.6051    1.1071 H   0  0  0  0  0  0  0  0  0  0  0  0
   -4.4640   -2.7121   -0.4183 H   0  0  0  0  0  0  0  0  0  0  0  0
   -3.7523   -3.2170    1.1790 H   0  0  0  0  0  0  0  0  0  0  0  0
   -3.5413   -1.1204    1.7782 H   0  0  0  0  0  0  0  0  0  0  0  0
   -3.6500   -0.8641   -1.1976 H   0  0  0  0  0  0  0  0  0  0  0  0
   -1.4012   -1.6451    0.7474 H   0  0  0  0  0  0  0  0  0  0  0  0
   -2.3634   -2.7874   -0.2517 H   0  0  0  0  0  0  0  0  0  0  0  0
   -1.2683   -2.1549   -2.1362 H   0  0  0  0  0  0  0  0  0  0  0  0
   -1.3939    2.6457   -2.3526 H   0  0  0  0  0  0  0  0  0  0  0  0
   -3.0795    2.3472   -1.6030 H   0  0  0  0  0  0  0  0  0  0  0  0
   -2.4836    1.4088   -2.9522 H   0  0  0  0  0  0  0  0  0  0  0  0
   -3.4591    1.2839   -0.0646 H   0  0  0  0  0  0  0  0  0  0  0  0
   -3.9233    1.2214    2.1387 H   0  0  0  0  0  0  0  0  0  0  0  0
   -2.8161    2.5386    1.5778 H   0  0  0  0  0  0  0  0  0  0  0  0
   -2.3948    1.6709    3.0642 H   0  0  0  0  0  0  0  0  0  0  0  0
   -1.7643    3.7759   -0.3511 H   0  0  0  0  0  0  0  0  0  0  0  0
   -0.8084    5.8809    0.4639 H   0  0  0  0  0  0  0  0  0  0  0  0
    1.4845    5.9907    1.2298 H   0  0  0  0  0  0  0  0  0  0  0  0
    2.8833    3.9628    1.1788 H   0  0  0  0  0  0  0  0  0  0  0  0
    4.1958   -3.4773   -0.1371 H   0  0  0  0  0  0  0  0  0  0  0  0
    3.4878   -5.6583   -0.8480 H   0  0  0  0  0  0  0  0  0  0  0  0
    1.1486   -6.0172   -1.6760 H   0  0  0  0  0  0  0  0  0  0  0  0
   -0.4300   -4.1107   -1.7571 H   0  0  0  0  0  0  0  0  0  0  0  0
    6.3065    0.7503    1.5217 H   0  0  0  0  0  0  0  0  0  0  0  0
    4.6365    2.4324    0.4053 H   0  0  0  0  0  0  0  0  0  0  0  0
    4.1261    1.9985    2.0952 H   0  0  0  0  0  0  0  0  0  0  0  0
  1  2  1  0
  2  3  1  0
  3  4  1  0
  4  5  1  0
  5  6  1  0
  6  7  1  0
  7  8  1  6
  7  9  1  0
  9 10  1  0
 10 11  1  0
  7 12  1  0
 12 13  1  0
 13 14  2  0
 14 15  1  0
 15 16  2  0
 16 17  1  0
 17 18  2  0
 18 19  1  0
 19 20  2  0
 20 21  1  0
 21 22  2  0
 22 23  1  0
 23 24  2  0
 24 25  1  0
 25 26  2  0
 26 27  1  0
 27 28  2  0
 28 29  1  0
 29 30  1  0
 30 31  2  0
 21 32  1  0
 32 33  2  0
 32 34  1  0
 34 35  1  0
  9  3  1  0
 31 12  1  0
 29  5  1  0
 18 13  1  0
 31 19  1  0
 35 20  1  0
 30 22  1  0
 28 23  1  0
  1 36  1  0
  1 37  1  0
  1 38  1  0
  2 39  1  0
  3 40  1  6
  4 41  1  0
  4 42  1  0
  5 43  1  6
  8 44  1  0
  8 45  1  0
  8 46  1  0
  9 47  1  1
 11 48  1  0
 11 49  1  0
 11 50  1  0
 14 51  1  0
 15 52  1  0
 16 53  1  0
 17 54  1  0
 24 55  1  0
 25 56  1  0
 26 57  1  0
 27 58  1  0
 34 59  1  0
 35 60  1  0
 35 61  1  0
M  END
$$$$
