
     RDKit          3D

 54 58  0  0  0  0  0  0  0  0999 V2000
    5.2345   -0.4576    1.9250 C   0  0  0  0  0  0  0  0  0  0  0  0
    5.4910   -1.2541    0.6665 C   0  0  0  0  0  0  0  0  0  0  0  0
    5.1421   -0.5145   -0.5439 C   0  0  1  0  0  0  0  0  0  0  0  0
    5.9331    0.6582   -0.5619 O   0  0  0  0  0  0  0  0  0  0  0  0
    5.6243   -1.2630   -1.7638 C   0  0  0  0  0  0  0  0  0  0  0  0
    5.9761   -2.4553   -1.6356 O   0  0  0  0  0  0  0  0  0  0  0  0
    5.6108   -0.4866   -2.9205 O   0  0  0  0  0  0  0  0  0  0  0  0
    4.7132    0.6163   -3.0301 C   0  0  0  0  0  0  0  0  0  0  0  0
    3.5623    0.4335   -2.0796 C   0  0  0  0  0  0  0  0  0  0  0  0
    3.7778   -0.1427   -0.8198 C   0  0  0  0  0  0  0  0  0  0  0  0
    2.6812   -0.2690   -0.0376 C   0  0  0  0  0  0  0  0  0  0  0  0
    1.4076    0.1336   -0.4205 C   0  0  0  0  0  0  0  0  0  0  0  0
    1.2241    0.6914   -1.6508 N   0  0  0  0  0  0  0  0  0  0  0  0
   -0.1658    1.0364   -1.8474 C   0  0  0  0  0  0  0  0  0  0  0  0
   -0.8256    0.6282   -0.5784 C   0  0  0  0  0  0  0  0  0  0  0  0
   -2.1217    0.6843   -0.1181 C   0  0  0  0  0  0  0  0  0  0  0  0
   -2.3999    0.2078    1.1343 C   0  0  0  0  0  0  0  0  0  0  0  0
   -1.4434   -0.3270    1.9643 C   0  0  0  0  0  0  0  0  0  0  0  0
   -1.7642   -0.7729    3.2238 C   0  0  0  0  0  0  0  0  0  0  0  0
   -3.0682   -0.6620    3.6133 C   0  0  0  0  0  0  0  0  0  0  0  0
   -4.0407   -0.1192    2.7693 C   0  0  0  0  0  0  0  0  0  0  0  0
   -5.3122   -0.0864    3.3355 O   0  0  0  0  0  0  0  0  0  0  0  0
   -3.7176    0.3364    1.4812 C   0  0  0  0  0  0  0  0  0  0  0  0
   -4.8970    0.7947    0.7614 C   0  0  0  0  0  0  0  0  0  0  0  0
   -5.5895   -0.1515   -0.0496 N   0  0  0  0  0  0  0  0  0  0  0  0
   -6.6598    0.5273   -0.7333 C   0  0  0  0  0  0  0  0  0  0  0  0
   -4.7932   -0.8610   -0.9755 C   0  0  0  0  0  0  0  0  0  0  0  0
   -0.1738   -0.3870    1.5250 N   0  0  0  0  0  0  0  0  0  0  0  0
    0.1179    0.0757    0.2966 C   0  0  0  0  0  0  0  0  0  0  0  0
    2.2897    0.8291   -2.4464 C   0  0  0  0  0  0  0  0  0  0  0  0
    2.1109    1.3479   -3.5874 O   0  0  0  0  0  0  0  0  0  0  0  0
    4.7520   -1.0716    2.7308 H   0  0  0  0  0  0  0  0  0  0  0  0
    6.2283   -0.1769    2.3776 H   0  0  0  0  0  0  0  0  0  0  0  0
    4.7070    0.5025    1.7395 H   0  0  0  0  0  0  0  0  0  0  0  0
    4.9922   -2.2269    0.8188 H   0  0  0  0  0  0  0  0  0  0  0  0
    6.5725   -1.4963    0.6463 H   0  0  0  0  0  0  0  0  0  0  0  0
    5.4803    1.4009   -0.1037 H   0  0  0  0  0  0  0  0  0  0  0  0
    5.1853    1.5753   -2.8080 H   0  0  0  0  0  0  0  0  0  0  0  0
    4.2821    0.6060   -4.0495 H   0  0  0  0  0  0  0  0  0  0  0  0
    2.8176   -0.7084    0.9283 H   0  0  0  0  0  0  0  0  0  0  0  0
   -0.5792    0.4743   -2.7252 H   0  0  0  0  0  0  0  0  0  0  0  0
   -0.2964    2.1199   -1.9593 H   0  0  0  0  0  0  0  0  0  0  0  0
   -2.8190    1.1192   -0.7832 H   0  0  0  0  0  0  0  0  0  0  0  0
   -0.9944   -1.1848    3.8455 H   0  0  0  0  0  0  0  0  0  0  0  0
   -3.2945   -1.0192    4.6094 H   0  0  0  0  0  0  0  0  0  0  0  0
   -6.1017   -0.6186    3.0257 H   0  0  0  0  0  0  0  0  0  0  0  0
   -5.6073    1.3500    1.4365 H   0  0  0  0  0  0  0  0  0  0  0  0
   -4.5698    1.6063    0.0364 H   0  0  0  0  0  0  0  0  0  0  0  0
   -7.0078    1.4317   -0.1628 H   0  0  0  0  0  0  0  0  0  0  0  0
   -6.2313    0.9533   -1.6730 H   0  0  0  0  0  0  0  0  0  0  0  0
   -7.5094   -0.1311   -1.0035 H   0  0  0  0  0  0  0  0  0  0  0  0
   -3.9781   -1.4625   -0.5234 H   0  0  0  0  0  0  0  0  0  0  0  0
   -5.4834   -1.6151   -1.4790 H   0  0  0  0  0  0  0  0  0  0  0  0
   -4.4690   -0.2194   -1.8203 H   0  0  0  0  0  0  0  0  0  0  0  0
  1  2  1  0
  2  3  1  0
  3  4  1  1
  3  5  1  0
  5  6  2  0
  5  7  1  0
  7  8  1  0
  8  9  1  0
  9 10  2  0
 10 11  1  0
 11 12  2  0
 12 13  1  0
 13 14  1  0
 14 15  1  0
 15 16  2  0
 16 17  1  0
 17 18  2  0
 18 19  1  0
 19 20  2  0
 20 21  1  0
 21 22  1  0
 21 23  2  0
 23 24  1  0
 24 25  1  0
 25 26  1  0
 25 27  1  0
 18 28  1  0
 28 29  2  0
 13 30  1  0
 30 31  2  0
 10  3  1  0
 29 12  1  0
 30  9  1  0
 29 15  1  0
 23 17  1  0
  1 32  1  0
  1 33  1  0
  1 34  1  0
  2 35  1  0
  2 36  1  0
  4 37  1  0
  8 38  1  0
  8 39  1  0
 11 40  1  0
 14 41  1  0
 14 42  1  0
 16 43  1  0
 19 44  1  0
 20 45  1  0
 22 46  1  0
 24 47  1  0
 24 48  1  0
 26 49  1  0
 26 50  1  0
 26 51  1  0
 27 52  1  0
 27 53  1  0
 27 54  1  0
M  END
$$$$
