
     RDKit          3D

 57 57  0  0  0  0  0  0  0  0999 V2000
    2.9209    2.5263   -0.2894 C   0  0  1  0  0  0  0  0  0  0  0  0
    2.2537    3.6007    0.3498 O   0  0  0  0  0  0  0  0  0  0  0  0
    4.3809    2.6125   -0.0461 C   0  0  0  0  0  0  0  0  0  0  0  0
    5.2359    1.5623   -0.6525 C   0  0  0  0  0  0  0  0  0  0  0  0
    4.9658    0.1574   -0.2445 C   0  0  0  0  0  0  0  0  0  0  0  0
    5.9849   -0.7137   -0.9985 C   0  0  0  0  0  0  0  0  0  0  0  0
    5.6898   -2.1384   -0.5667 C   0  0  0  0  0  0  0  0  0  0  0  0
    2.3627    1.3059    0.4000 C   0  0  0  0  0  0  0  0  0  0  0  0
    1.2288    0.8373   -0.0649 C   0  0  0  0  0  0  0  0  0  0  0  0
    0.4121   -0.3091    0.3507 C   0  0  1  0  0  0  0  0  0  0  0  0
    0.9606   -0.8897    1.6030 C   0  0  0  0  0  0  0  0  0  0  0  0
    1.7857   -1.7675    1.8020 O   0  0  0  0  0  0  0  0  0  0  0  0
    0.3213   -0.2061    2.7744 C   0  0  0  0  0  0  0  0  0  0  0  0
   -0.7186    0.6949    2.1282 C   0  0  2  0  0  0  0  0  0  0  0  0
   -1.8098    0.9442    2.9169 O   0  0  0  0  0  0  0  0  0  0  0  0
   -0.9983    0.1183    0.7824 C   0  0  2  0  0  0  0  0  0  0  0  0
   -1.9132   -1.0593    0.7563 C   0  0  0  0  0  0  0  0  0  0  0  0
   -3.3011   -0.7986    1.1458 C   0  0  0  0  0  0  0  0  0  0  0  0
   -4.3994   -0.9864    0.3907 C   0  0  0  0  0  0  0  0  0  0  0  0
   -4.4670   -1.4909   -0.9853 C   0  0  0  0  0  0  0  0  0  0  0  0
   -5.0980   -0.4511   -1.8671 C   0  0  0  0  0  0  0  0  0  0  0  0
   -6.4989   -0.0891   -1.4392 C   0  0  0  0  0  0  0  0  0  0  0  0
   -7.4159   -1.2289   -1.4500 C   0  0  0  0  0  0  0  0  0  0  0  0
   -7.2018   -2.5696   -1.7917 O   0  0  0  0  0  0  0  0  0  0  0  0
   -8.5888   -0.8961   -1.0802 O   0  0  0  0  0  0  0  0  0  0  0  0
    2.6137    2.5396   -1.3303 H   0  0  0  0  0  0  0  0  0  0  0  0
    1.8361    4.1956   -0.3057 H   0  0  0  0  0  0  0  0  0  0  0  0
    4.7384    3.5954   -0.4737 H   0  0  0  0  0  0  0  0  0  0  0  0
    4.5927    2.7119    1.0429 H   0  0  0  0  0  0  0  0  0  0  0  0
    5.2898    1.6816   -1.7727 H   0  0  0  0  0  0  0  0  0  0  0  0
    6.2899    1.7855   -0.3290 H   0  0  0  0  0  0  0  0  0  0  0  0
    5.1430    0.0410    0.8218 H   0  0  0  0  0  0  0  0  0  0  0  0
    3.9834   -0.2415   -0.5713 H   0  0  0  0  0  0  0  0  0  0  0  0
    5.8052   -0.6847   -2.0929 H   0  0  0  0  0  0  0  0  0  0  0  0
    7.0166   -0.4212   -0.8084 H   0  0  0  0  0  0  0  0  0  0  0  0
    5.9770   -2.8866   -1.3145 H   0  0  0  0  0  0  0  0  0  0  0  0
    4.6038   -2.2741   -0.3563 H   0  0  0  0  0  0  0  0  0  0  0  0
    6.2259   -2.3367    0.3851 H   0  0  0  0  0  0  0  0  0  0  0  0
    2.7438    0.7389    1.2291 H   0  0  0  0  0  0  0  0  0  0  0  0
    0.6723    1.2451   -0.8849 H   0  0  0  0  0  0  0  0  0  0  0  0
    0.3196   -1.0945   -0.4375 H   0  0  0  0  0  0  0  0  0  0  0  0
    1.0817    0.4095    3.3021 H   0  0  0  0  0  0  0  0  0  0  0  0
   -0.1259   -0.9530    3.4487 H   0  0  0  0  0  0  0  0  0  0  0  0
   -0.2306    1.6964    1.9453 H   0  0  0  0  0  0  0  0  0  0  0  0
   -1.9625    1.8865    3.1458 H   0  0  0  0  0  0  0  0  0  0  0  0
   -1.3026    0.9123    0.0745 H   0  0  0  0  0  0  0  0  0  0  0  0
   -1.8081   -1.5632   -0.2157 H   0  0  0  0  0  0  0  0  0  0  0  0
   -1.5200   -1.8095    1.5038 H   0  0  0  0  0  0  0  0  0  0  0  0
   -3.5274   -0.4156    2.1312 H   0  0  0  0  0  0  0  0  0  0  0  0
   -5.3904   -0.7729    0.7457 H   0  0  0  0  0  0  0  0  0  0  0  0
   -4.9854   -2.4814   -1.0592 H   0  0  0  0  0  0  0  0  0  0  0  0
   -3.4519   -1.6840   -1.4280 H   0  0  0  0  0  0  0  0  0  0  0  0
   -5.0948   -0.8652   -2.9123 H   0  0  0  0  0  0  0  0  0  0  0  0
   -4.4429    0.4336   -1.8820 H   0  0  0  0  0  0  0  0  0  0  0  0
   -6.9014    0.6564   -2.1837 H   0  0  0  0  0  0  0  0  0  0  0  0
   -6.4389    0.4614   -0.4828 H   0  0  0  0  0  0  0  0  0  0  0  0
   -7.8420   -3.2724   -1.4384 H   0  0  0  0  0  0  0  0  0  0  0  0
  1  2  1  0
  1  3  1  0
  3  4  1  0
  4  5  1  0
  5  6  1  0
  6  7  1  0
  1  8  1  0
  8  9  2  0
  9 10  1  0
 10 11  1  0
 11 12  2  0
 11 13  1  0
 13 14  1  0
 14 15  1  0
 14 16  1  0
 16 17  1  0
 17 18  1  0
 18 19  2  0
 19 20  1  0
 20 21  1  0
 21 22  1  0
 22 23  1  0
 23 24  1  0
 23 25  2  0
 16 10  1  0
  1 26  1  6
  2 27  1  0
  3 28  1  0
  3 29  1  0
  4 30  1  0
  4 31  1  0
  5 32  1  0
  5 33  1  0
  6 34  1  0
  6 35  1  0
  7 36  1  0
  7 37  1  0
  7 38  1  0
  8 39  1  0
  9 40  1  0
 10 41  1  6
 13 42  1  0
 13 43  1  0
 14 44  1  6
 15 45  1  0
 16 46  1  6
 17 47  1  0
 17 48  1  0
 18 49  1  0
 19 50  1  0
 20 51  1  0
 20 52  1  0
 21 53  1  0
 21 54  1  0
 22 55  1  0
 22 56  1  0
 24 57  1  0
M  END
$$$$
