
     RDKit          3D

 49 53  0  0  0  0  0  0  0  0999 V2000
    6.8607    0.9200   -0.6813 C   0  0  0  0  0  0  0  0  0  0  0  0
    6.0217    0.0349    0.1663 C   0  0  0  0  0  0  0  0  0  0  0  0
    6.5822   -0.5112    1.2916 C   0  0  0  0  0  0  0  0  0  0  0  0
    5.8087   -1.3342    2.0835 C   0  0  0  0  0  0  0  0  0  0  0  0
    4.5378   -1.5504    1.6949 N   0  0  0  0  0  0  0  0  0  0  0  0
    4.0161   -0.9936    0.5755 C   0  0  0  0  0  0  0  0  0  0  0  0
    2.7668   -1.0568   -0.0287 C   0  0  0  0  0  0  0  0  0  0  0  0
    2.7805   -0.2843   -1.1697 C   0  0  0  0  0  0  0  0  0  0  0  0
    4.0230    0.2287   -1.2385 N   0  0  0  0  0  0  0  0  0  0  0  0
    4.7497   -0.1874   -0.2136 N   0  0  0  0  0  0  0  0  0  0  0  0
    1.4347   -0.3330   -1.8473 C   0  0  0  0  0  0  0  0  0  0  0  0
    0.5753   -0.8752   -0.8341 N   0  0  0  0  0  0  0  0  0  0  0  0
   -0.1559    0.0797   -0.0808 C   0  0  1  0  0  0  0  0  0  0  0  0
   -1.0806    0.9497   -0.8587 C   0  0  0  0  0  0  0  0  0  0  0  0
   -2.1845    0.2441   -1.3621 O   0  0  0  0  0  0  0  0  0  0  0  0
   -3.0327   -0.2041   -0.3718 C   0  0  2  0  0  0  0  0  0  0  0  0
   -4.3522    0.4569   -0.3942 C   0  0  0  0  0  0  0  0  0  0  0  0
   -4.4650    1.7868   -0.7196 C   0  0  0  0  0  0  0  0  0  0  0  0
   -5.7047    2.4262   -0.7454 C   0  0  0  0  0  0  0  0  0  0  0  0
   -5.7398    3.7384   -1.0749 F   0  0  0  0  0  0  0  0  0  0  0  0
   -6.8373    1.7135   -0.4395 C   0  0  0  0  0  0  0  0  0  0  0  0
   -6.7516    0.3834   -0.1110 C   0  0  0  0  0  0  0  0  0  0  0  0
   -5.5043   -0.2284   -0.0931 C   0  0  0  0  0  0  0  0  0  0  0  0
   -5.4838   -1.5442    0.2389 F   0  0  0  0  0  0  0  0  0  0  0  0
   -2.3893   -0.0999    1.0152 C   0  0  1  0  0  0  0  0  0  0  0  0
   -3.1836   -0.9394    1.8876 N   0  0  0  0  0  0  0  0  0  0  0  0
   -1.0091   -0.6913    0.9284 C   0  0  0  0  0  0  0  0  0  0  0  0
    1.4168   -1.6327    0.0729 C   0  0  0  0  0  0  0  0  0  0  0  0
    7.2545    0.3147   -1.5248 H   0  0  0  0  0  0  0  0  0  0  0  0
    7.7294    1.3325   -0.1364 H   0  0  0  0  0  0  0  0  0  0  0  0
    6.2427    1.7399   -1.1305 H   0  0  0  0  0  0  0  0  0  0  0  0
    7.6260   -0.3165    1.5852 H   0  0  0  0  0  0  0  0  0  0  0  0
    6.2469   -1.7683    2.9739 H   0  0  0  0  0  0  0  0  0  0  0  0
    1.1524    0.6446   -2.2307 H   0  0  0  0  0  0  0  0  0  0  0  0
    1.5636   -1.0140   -2.7137 H   0  0  0  0  0  0  0  0  0  0  0  0
    0.4985    0.7398    0.5349 H   0  0  0  0  0  0  0  0  0  0  0  0
   -1.4320    1.7623   -0.1555 H   0  0  0  0  0  0  0  0  0  0  0  0
   -0.6339    1.4750   -1.7090 H   0  0  0  0  0  0  0  0  0  0  0  0
   -3.1467   -1.3160   -0.5387 H   0  0  0  0  0  0  0  0  0  0  0  0
   -3.6111    2.3659   -0.9609 H   0  0  0  0  0  0  0  0  0  0  0  0
   -7.7985    2.2361   -0.4663 H   0  0  0  0  0  0  0  0  0  0  0  0
   -7.6426   -0.1492    0.1224 H   0  0  0  0  0  0  0  0  0  0  0  0
   -2.4161    0.9123    1.4152 H   0  0  0  0  0  0  0  0  0  0  0  0
   -2.9580   -0.7945    2.8952 H   0  0  0  0  0  0  0  0  0  0  0  0
   -3.1803   -1.9363    1.6093 H   0  0  0  0  0  0  0  0  0  0  0  0
   -0.5668   -0.6594    1.9453 H   0  0  0  0  0  0  0  0  0  0  0  0
   -1.1238   -1.7549    0.6197 H   0  0  0  0  0  0  0  0  0  0  0  0
    1.0476   -1.6346    1.0997 H   0  0  0  0  0  0  0  0  0  0  0  0
    1.4483   -2.6758   -0.3312 H   0  0  0  0  0  0  0  0  0  0  0  0
  1  2  1  0
  2  3  2  0
  3  4  1  0
  4  5  2  0
  5  6  1  0
  6  7  2  0
  7  8  1  0
  8  9  2  0
  9 10  1  0
  8 11  1  0
 11 12  1  0
 12 13  1  0
 13 14  1  0
 14 15  1  0
 15 16  1  0
 16 17  1  0
 17 18  2  0
 18 19  1  0
 19 20  1  0
 19 21  2  0
 21 22  1  0
 22 23  2  0
 23 24  1  0
 16 25  1  0
 25 26  1  0
 25 27  1  0
 12 28  1  0
 10  2  1  0
 27 13  1  0
 10  6  1  0
 23 17  1  0
 28  7  1  0
  1 29  1  0
  1 30  1  0
  1 31  1  0
  3 32  1  0
  4 33  1  0
 11 34  1  0
 11 35  1  0
 13 36  1  1
 14 37  1  0
 14 38  1  0
 16 39  1  6
 18 40  1  0
 21 41  1  0
 22 42  1  0
 25 43  1  1
 26 44  1  0
 26 45  1  0
 27 46  1  0
 27 47  1  0
 28 48  1  0
 28 49  1  0
M  END
$$$$
