
     RDKit          3D

 72 75  0  0  0  0  0  0  0  0999 V2000
   -0.3844   -4.3805    2.4223 C   0  0  0  0  0  0  0  0  0  0  0  0
   -0.4017   -2.8870    2.6470 C   0  0  0  0  0  0  0  0  0  0  0  0
    0.1468   -2.1877    1.5893 O   0  0  0  0  0  0  0  0  0  0  0  0
    0.1365   -0.8094    1.7846 C   0  0  1  0  0  0  0  0  0  0  0  0
    1.6177   -0.4081    1.8854 C   0  0  0  0  0  0  0  0  0  0  0  0
    2.0351   -0.2988    0.5278 N   0  0  0  0  0  0  0  0  0  0  0  0
    2.5458   -1.4992   -0.0460 C   0  0  1  0  0  0  0  0  0  0  0  0
    2.9529   -1.2544   -1.4750 C   0  0  0  0  0  0  0  0  0  0  0  0
    3.9321   -0.0912   -1.5686 C   0  0  0  0  0  0  0  0  0  0  0  0
    5.1335   -0.3717   -0.7233 C   0  0  1  0  0  0  0  0  0  0  0  0
    5.7045   -1.5677   -1.1989 O   0  0  0  0  0  0  0  0  0  0  0  0
    6.1488    0.6744   -0.8498 C   0  0  0  0  0  0  0  0  0  0  0  0
    5.9215    1.7470   -1.6803 C   0  0  0  0  0  0  0  0  0  0  0  0
    6.8558    2.7715   -1.8371 C   0  0  0  0  0  0  0  0  0  0  0  0
    8.0513    2.7280   -1.1477 C   0  0  0  0  0  0  0  0  0  0  0  0
    8.2790    1.6454   -0.3104 C   0  0  0  0  0  0  0  0  0  0  0  0
    7.3379    0.6354   -0.1669 C   0  0  0  0  0  0  0  0  0  0  0  0
    4.7191   -0.6410    0.7094 C   0  0  0  0  0  0  0  0  0  0  0  0
    3.8226   -1.8685    0.6993 C   0  0  0  0  0  0  0  0  0  0  0  0
    0.9282    0.3002   -0.1321 C   0  0  0  0  0  0  0  0  0  0  0  0
   -0.3381   -0.1215    0.5867 C   0  0  2  0  0  0  0  0  0  0  0  0
   -1.1476    1.0332    0.7202 N   0  0  0  0  0  0  0  0  0  0  0  0
   -2.3975    1.2673    0.1299 C   0  0  0  0  0  0  0  0  0  0  0  0
   -2.8866    0.3931   -0.5974 O   0  0  0  0  0  0  0  0  0  0  0  0
   -3.1402    2.5237    0.3531 C   0  0  0  0  0  0  0  0  0  0  0  0
   -4.3882    2.4588   -0.3814 N   0  0  0  0  0  0  0  0  0  0  0  0
   -5.3199    1.4544   -0.0852 C   0  0  0  0  0  0  0  0  0  0  0  0
   -5.0574    0.6078    0.8332 O   0  0  0  0  0  0  0  0  0  0  0  0
   -6.5726    1.3733   -0.8123 C   0  0  0  0  0  0  0  0  0  0  0  0
   -6.9643    2.2185   -1.8154 C   0  0  0  0  0  0  0  0  0  0  0  0
   -8.1867    2.0757   -2.4668 C   0  0  0  0  0  0  0  0  0  0  0  0
   -9.0364    1.0711   -2.1125 C   0  0  0  0  0  0  0  0  0  0  0  0
   -8.6900    0.2004   -1.1157 C   0  0  0  0  0  0  0  0  0  0  0  0
   -9.6262   -0.8954   -0.7350 C   0  0  0  0  0  0  0  0  0  0  0  0
   -8.9223   -2.0130   -0.3118 F   0  0  0  0  0  0  0  0  0  0  0  0
  -10.3778   -1.2322   -1.8456 F   0  0  0  0  0  0  0  0  0  0  0  0
  -10.4654   -0.4802    0.2694 F   0  0  0  0  0  0  0  0  0  0  0  0
   -7.4835    0.3551   -0.4849 C   0  0  0  0  0  0  0  0  0  0  0  0
    0.4657   -4.8819    2.8948 H   0  0  0  0  0  0  0  0  0  0  0  0
   -1.3063   -4.8574    2.8635 H   0  0  0  0  0  0  0  0  0  0  0  0
   -0.4521   -4.6235    1.3225 H   0  0  0  0  0  0  0  0  0  0  0  0
    0.2114   -2.6777    3.5504 H   0  0  0  0  0  0  0  0  0  0  0  0
   -1.4363   -2.6035    2.8808 H   0  0  0  0  0  0  0  0  0  0  0  0
   -0.3056   -0.5654    2.7386 H   0  0  0  0  0  0  0  0  0  0  0  0
    2.1853   -1.1090    2.4993 H   0  0  0  0  0  0  0  0  0  0  0  0
    1.6259    0.6118    2.3413 H   0  0  0  0  0  0  0  0  0  0  0  0
    1.8557   -2.3575   -0.0269 H   0  0  0  0  0  0  0  0  0  0  0  0
    2.1302   -1.1878   -2.1825 H   0  0  0  0  0  0  0  0  0  0  0  0
    3.5542   -2.1603   -1.7832 H   0  0  0  0  0  0  0  0  0  0  0  0
    4.2297   -0.0323   -2.6398 H   0  0  0  0  0  0  0  0  0  0  0  0
    3.4589    0.8607   -1.2195 H   0  0  0  0  0  0  0  0  0  0  0  0
    6.4113   -1.8819   -0.5801 H   0  0  0  0  0  0  0  0  0  0  0  0
    5.0021    1.8120   -2.2314 H   0  0  0  0  0  0  0  0  0  0  0  0
    6.6716    3.6140   -2.4923 H   0  0  0  0  0  0  0  0  0  0  0  0
    8.8101    3.5020   -1.2366 H   0  0  0  0  0  0  0  0  0  0  0  0
    9.2142    1.5910    0.2421 H   0  0  0  0  0  0  0  0  0  0  0  0
    7.5371   -0.1905    0.4860 H   0  0  0  0  0  0  0  0  0  0  0  0
    5.5828   -0.8861    1.3423 H   0  0  0  0  0  0  0  0  0  0  0  0
    4.1267    0.2239    1.0847 H   0  0  0  0  0  0  0  0  0  0  0  0
    3.6421   -2.2835    1.6865 H   0  0  0  0  0  0  0  0  0  0  0  0
    4.3374   -2.6278    0.0735 H   0  0  0  0  0  0  0  0  0  0  0  0
    1.0621    1.4099   -0.0533 H   0  0  0  0  0  0  0  0  0  0  0  0
    0.8731    0.0939   -1.2178 H   0  0  0  0  0  0  0  0  0  0  0  0
   -0.8596   -0.8422   -0.0813 H   0  0  0  0  0  0  0  0  0  0  0  0
   -0.7559    1.8015    1.3381 H   0  0  0  0  0  0  0  0  0  0  0  0
   -2.5595    3.3872   -0.0856 H   0  0  0  0  0  0  0  0  0  0  0  0
   -3.3128    2.6992    1.4388 H   0  0  0  0  0  0  0  0  0  0  0  0
   -4.5898    3.1486   -1.1185 H   0  0  0  0  0  0  0  0  0  0  0  0
   -6.3019    3.0192   -2.1069 H   0  0  0  0  0  0  0  0  0  0  0  0
   -8.4034    2.7966   -3.2474 H   0  0  0  0  0  0  0  0  0  0  0  0
   -9.9840    1.0047   -2.6568 H   0  0  0  0  0  0  0  0  0  0  0  0
   -7.2023   -0.3347    0.3093 H   0  0  0  0  0  0  0  0  0  0  0  0
  1  2  1  0
  2  3  1  0
  3  4  1  0
  4  5  1  0
  5  6  1  0
  6  7  1  0
  7  8  1  0
  8  9  1  0
  9 10  1  0
 10 11  1  6
 10 12  1  0
 12 13  2  0
 13 14  1  0
 14 15  2  0
 15 16  1  0
 16 17  2  0
 10 18  1  0
 18 19  1  0
  6 20  1  0
 20 21  1  0
 21 22  1  0
 22 23  1  0
 23 24  2  0
 23 25  1  0
 25 26  1  0
 26 27  1  0
 27 28  2  0
 27 29  1  0
 29 30  2  0
 30 31  1  0
 31 32  2  0
 32 33  1  0
 33 34  1  0
 34 35  1  0
 34 36  1  0
 34 37  1  0
 33 38  2  0
 21  4  1  0
 38 29  1  0
 19  7  1  0
 17 12  1  0
  1 39  1  0
  1 40  1  0
  1 41  1  0
  2 42  1  0
  2 43  1  0
  4 44  1  1
  5 45  1  0
  5 46  1  0
  7 47  1  6
  8 48  1  0
  8 49  1  0
  9 50  1  0
  9 51  1  0
 11 52  1  0
 13 53  1  0
 14 54  1  0
 15 55  1  0
 16 56  1  0
 17 57  1  0
 18 58  1  0
 18 59  1  0
 19 60  1  0
 19 61  1  0
 20 62  1  0
 20 63  1  0
 21 64  1  6
 22 65  1  0
 25 66  1  0
 25 67  1  0
 26 68  1  0
 30 69  1  0
 31 70  1  0
 32 71  1  0
 38 72  1  0
M  END
$$$$
