
     RDKit          3D

 74 81  0  0  0  0  0  0  0  0999 V2000
   -3.3023   -0.2997   -2.9807 N   0  0  0  0  0  0  0  0  0  0  0  0
   -2.1252   -1.0248   -2.7222 C   0  0  0  0  0  0  0  0  0  0  0  0
   -1.7356   -1.8712   -3.7138 N   0  0  0  0  0  0  0  0  0  0  0  0
   -0.6496   -2.6002   -3.5469 C   0  0  0  0  0  0  0  0  0  0  0  0
    0.0825   -2.4893   -2.3493 C   0  0  0  0  0  0  0  0  0  0  0  0
   -0.3147   -1.6375   -1.3694 N   0  0  0  0  0  0  0  0  0  0  0  0
   -1.4135   -0.9133   -1.5586 C   0  0  0  0  0  0  0  0  0  0  0  0
   -1.6486   -0.1565   -0.3852 C   0  0  0  0  0  0  0  0  0  0  0  0
   -2.8978    0.6154   -0.2534 C   0  0  0  0  0  0  0  0  0  0  0  0
   -2.8462    1.9861   -0.5463 C   0  0  0  0  0  0  0  0  0  0  0  0
   -3.9752    2.7591   -0.4055 C   0  0  0  0  0  0  0  0  0  0  0  0
   -5.1821    2.2181    0.0196 C   0  0  0  0  0  0  0  0  0  0  0  0
   -6.2981    3.0142    0.0600 C   0  0  0  0  0  0  0  0  0  0  0  0
   -7.5352    2.4347    0.4015 C   0  0  0  0  0  0  0  0  0  0  0  0
   -7.5746    1.0897    0.6810 C   0  0  0  0  0  0  0  0  0  0  0  0
   -8.8752    0.4825    0.9418 C   0  0  0  0  0  0  0  0  0  0  0  0
   -8.9596   -0.8829    1.1440 C   0  0  0  0  0  0  0  0  0  0  0  0
  -10.1473   -1.5577    1.3662 C   0  0  0  0  0  0  0  0  0  0  0  0
  -11.3347   -0.8306    1.3914 C   0  0  0  0  0  0  0  0  0  0  0  0
  -11.2448    0.5202    1.1916 C   0  0  0  0  0  0  0  0  0  0  0  0
  -10.0510    1.1907    0.9675 C   0  0  0  0  0  0  0  0  0  0  0  0
   -6.4391    0.3738    0.6277 N   0  0  0  0  0  0  0  0  0  0  0  0
   -5.2263    0.8656    0.3081 C   0  0  0  0  0  0  0  0  0  0  0  0
   -4.0850    0.1016    0.1686 C   0  0  0  0  0  0  0  0  0  0  0  0
   -4.1518   -1.2221    0.4523 F   0  0  0  0  0  0  0  0  0  0  0  0
   -0.6547   -0.4913    0.4154 N   0  0  0  0  0  0  0  0  0  0  0  0
    0.1907   -1.3803   -0.1236 C   0  0  0  0  0  0  0  0  0  0  0  0
    1.4588   -1.9668    0.3801 C   0  0  1  0  0  0  0  0  0  0  0  0
    2.4729   -1.9379   -0.7290 C   0  0  0  0  0  0  0  0  0  0  0  0
    3.7825   -1.3065   -0.4079 C   0  0  0  0  0  0  0  0  0  0  0  0
    3.7006   -0.0386    0.3877 C   0  0  2  0  0  0  0  0  0  0  0  0
    5.1292    0.2010    0.8344 C   0  0  0  0  0  0  0  0  0  0  0  0
    5.4935    0.2053    1.9963 O   0  0  0  0  0  0  0  0  0  0  0  0
    6.0302    0.4202   -0.2511 N   0  0  0  0  0  0  0  0  0  0  0  0
    7.4351    0.5820   -0.0944 C   0  0  0  0  0  0  0  0  0  0  0  0
    8.2717    0.9147   -1.0896 N   0  0  0  0  0  0  0  0  0  0  0  0
    9.5391    0.9673   -0.6584 C   0  0  0  0  0  0  0  0  0  0  0  0
   10.7457    1.2528   -1.2518 C   0  0  0  0  0  0  0  0  0  0  0  0
   11.9299    1.2326   -0.5390 C   0  0  0  0  0  0  0  0  0  0  0  0
   11.8913    0.9173    0.8001 C   0  0  0  0  0  0  0  0  0  0  0  0
   10.6895    0.6270    1.4015 C   0  0  0  0  0  0  0  0  0  0  0  0
    9.4821    0.6429    0.6938 C   0  0  0  0  0  0  0  0  0  0  0  0
    8.2029    0.4186    0.9970 N   0  0  0  0  0  0  0  0  0  0  0  0
    2.6998   -0.0535    1.4552 C   0  0  0  0  0  0  0  0  0  0  0  0
    1.9048   -1.3108    1.6377 C   0  0  0  0  0  0  0  0  0  0  0  0
   -3.2669    0.6977   -3.2350 H   0  0  0  0  0  0  0  0  0  0  0  0
   -4.2238   -0.7904   -2.9204 H   0  0  0  0  0  0  0  0  0  0  0  0
   -0.2896   -3.3018   -4.3089 H   0  0  0  0  0  0  0  0  0  0  0  0
    0.9230   -3.1491   -2.2949 H   0  0  0  0  0  0  0  0  0  0  0  0
   -1.8939    2.4024   -0.8674 H   0  0  0  0  0  0  0  0  0  0  0  0
   -3.9357    3.8325   -0.6183 H   0  0  0  0  0  0  0  0  0  0  0  0
   -6.2571    4.0798   -0.1573 H   0  0  0  0  0  0  0  0  0  0  0  0
   -8.3673    3.1174    0.4148 H   0  0  0  0  0  0  0  0  0  0  0  0
   -8.0538   -1.4724    1.1219 H   0  0  0  0  0  0  0  0  0  0  0  0
  -10.2103   -2.6321    1.5233 H   0  0  0  0  0  0  0  0  0  0  0  0
  -12.2947   -1.2875    1.5648 H   0  0  0  0  0  0  0  0  0  0  0  0
  -12.1618    1.1205    1.2041 H   0  0  0  0  0  0  0  0  0  0  0  0
  -10.0243    2.2498    0.8113 H   0  0  0  0  0  0  0  0  0  0  0  0
    1.2464   -3.0746    0.5927 H   0  0  0  0  0  0  0  0  0  0  0  0
    2.7234   -2.9964   -1.0009 H   0  0  0  0  0  0  0  0  0  0  0  0
    2.0782   -1.3908   -1.6048 H   0  0  0  0  0  0  0  0  0  0  0  0
    4.2649   -1.0190   -1.3872 H   0  0  0  0  0  0  0  0  0  0  0  0
    4.4750   -2.0387    0.0753 H   0  0  0  0  0  0  0  0  0  0  0  0
    3.5078    0.8463   -0.2927 H   0  0  0  0  0  0  0  0  0  0  0  0
    5.6548    0.4259   -1.2318 H   0  0  0  0  0  0  0  0  0  0  0  0
   10.7566    1.5090   -2.3185 H   0  0  0  0  0  0  0  0  0  0  0  0
   12.8744    1.4606   -0.9904 H   0  0  0  0  0  0  0  0  0  0  0  0
   12.8333    0.9031    1.3534 H   0  0  0  0  0  0  0  0  0  0  0  0
   10.6845    0.3733    2.4560 H   0  0  0  0  0  0  0  0  0  0  0  0
    7.8754    0.1559    1.9587 H   0  0  0  0  0  0  0  0  0  0  0  0
    3.1533    0.2221    2.4477 H   0  0  0  0  0  0  0  0  0  0  0  0
    1.9208    0.7518    1.2406 H   0  0  0  0  0  0  0  0  0  0  0  0
    2.5041   -2.0193    2.2890 H   0  0  0  0  0  0  0  0  0  0  0  0
    1.0385   -1.0379    2.3101 H   0  0  0  0  0  0  0  0  0  0  0  0
  1  2  1  0
  2  3  2  0
  3  4  1  0
  4  5  2  0
  5  6  1  0
  6  7  1  0
  7  8  2  0
  8  9  1  0
  9 10  2  0
 10 11  1  0
 11 12  2  0
 12 13  1  0
 13 14  2  0
 14 15  1  0
 15 16  1  0
 16 17  2  0
 17 18  1  0
 18 19  2  0
 19 20  1  0
 20 21  2  0
 15 22  2  0
 22 23  1  0
 23 24  2  0
 24 25  1  0
  8 26  1  0
 26 27  2  0
 27 28  1  0
 28 29  1  0
 29 30  1  0
 30 31  1  0
 31 32  1  0
 32 33  2  0
 32 34  1  0
 34 35  1  0
 35 36  2  0
 36 37  1  0
 37 38  2  0
 38 39  1  0
 39 40  2  0
 40 41  1  0
 41 42  2  0
 42 43  1  0
 31 44  1  0
 44 45  1  0
  7  2  1  0
 24  9  1  0
 45 28  1  0
 27  6  1  0
 43 35  1  0
 23 12  1  0
 42 37  1  0
 21 16  1  0
  1 46  1  0
  1 47  1  0
  4 48  1  0
  5 49  1  0
 10 50  1  0
 11 51  1  0
 13 52  1  0
 14 53  1  0
 17 54  1  0
 18 55  1  0
 19 56  1  0
 20 57  1  0
 21 58  1  0
 28 59  1  1
 29 60  1  0
 29 61  1  0
 30 62  1  0
 30 63  1  0
 31 64  1  6
 34 65  1  0
 38 66  1  0
 39 67  1  0
 40 68  1  0
 41 69  1  0
 43 70  1  0
 44 71  1  0
 44 72  1  0
 45 73  1  0
 45 74  1  0
M  END
$$$$
