
     RDKit          3D

 35 37  0  0  0  0  0  0  0  0999 V2000
    1.9844   -1.6758    3.1123 O   0  0  0  0  0  0  0  0  0  0  0  0
    1.1234   -1.2295    2.3675 C   0  0  0  0  0  0  0  0  0  0  0  0
   -0.3943   -0.3925    2.8639 S   0  0  0  0  0  0  0  0  0  0  0  0
   -1.0121   -0.1005    1.3196 N   0  0  0  0  0  0  0  0  0  0  0  0
   -2.2166    0.5414    0.9105 C   0  0  0  0  0  0  0  0  0  0  0  0
   -2.5488    1.8236    1.2404 C   0  0  0  0  0  0  0  0  0  0  0  0
   -3.7447    2.3564    0.7924 C   0  0  0  0  0  0  0  0  0  0  0  0
   -4.6198    1.6058    0.0074 C   0  0  0  0  0  0  0  0  0  0  0  0
   -4.2840    0.3128   -0.3249 C   0  0  0  0  0  0  0  0  0  0  0  0
   -5.2256   -0.4741   -1.1612 C   0  0  0  0  0  0  0  0  0  0  0  0
   -4.4646   -1.2892   -2.0091 F   0  0  0  0  0  0  0  0  0  0  0  0
   -5.9433   -1.3348   -0.3332 F   0  0  0  0  0  0  0  0  0  0  0  0
   -6.0278    0.3062   -1.9347 F   0  0  0  0  0  0  0  0  0  0  0  0
   -3.0862   -0.1918    0.1356 C   0  0  0  0  0  0  0  0  0  0  0  0
   -0.0403   -0.6511    0.4754 C   0  0  0  0  0  0  0  0  0  0  0  0
   -0.2505   -0.5733   -0.8228 O   0  0  0  0  0  0  0  0  0  0  0  0
    0.9896   -1.1939    1.0437 N   0  0  0  0  0  0  0  0  0  0  0  0
    2.0619   -1.7924    0.2016 C   0  0  0  0  0  0  0  0  0  0  0  0
    3.1123   -0.8356   -0.1364 C   0  0  0  0  0  0  0  0  0  0  0  0
    3.0876   -0.0283   -1.2499 C   0  0  0  0  0  0  0  0  0  0  0  0
    4.1371    0.8326   -1.4597 C   0  0  0  0  0  0  0  0  0  0  0  0
    5.2042    0.9103   -0.5950 C   0  0  0  0  0  0  0  0  0  0  0  0
    6.2305    1.7626   -0.8144 F   0  0  0  0  0  0  0  0  0  0  0  0
    5.2535    0.1151    0.5243 C   0  0  0  0  0  0  0  0  0  0  0  0
    4.1918   -0.7391    0.7140 C   0  0  0  0  0  0  0  0  0  0  0  0
   -1.8926    2.4068    1.8372 H   0  0  0  0  0  0  0  0  0  0  0  0
   -4.0631    3.3575    1.0174 H   0  0  0  0  0  0  0  0  0  0  0  0
   -5.5615    2.0214   -0.3470 H   0  0  0  0  0  0  0  0  0  0  0  0
   -2.8558   -1.2151   -0.1470 H   0  0  0  0  0  0  0  0  0  0  0  0
    2.4882   -2.6162    0.7889 H   0  0  0  0  0  0  0  0  0  0  0  0
    1.6499   -2.1946   -0.7445 H   0  0  0  0  0  0  0  0  0  0  0  0
    2.2389   -0.0974   -1.9277 H   0  0  0  0  0  0  0  0  0  0  0  0
    4.1175    1.4755   -2.3465 H   0  0  0  0  0  0  0  0  0  0  0  0
    6.0940    0.1582    1.2298 H   0  0  0  0  0  0  0  0  0  0  0  0
    4.2666   -1.3610    1.6210 H   0  0  0  0  0  0  0  0  0  0  0  0
  1  2  2  0
  2  3  1  0
  3  4  1  0
  4  5  1  0
  5  6  2  0
  6  7  1  0
  7  8  2  0
  8  9  1  0
  9 10  1  0
 10 11  1  0
 10 12  1  0
 10 13  1  0
  9 14  2  0
  4 15  1  0
 15 16  2  0
 15 17  1  0
 17 18  1  0
 18 19  1  0
 19 20  2  0
 20 21  1  0
 21 22  2  0
 22 23  1  0
 22 24  1  0
 24 25  2  0
 17  2  1  0
 25 19  1  0
 14  5  1  0
  6 26  1  0
  7 27  1  0
  8 28  1  0
 14 29  1  0
 18 30  1  0
 18 31  1  0
 20 32  1  0
 21 33  1  0
 24 34  1  0
 25 35  1  0
M  END
$$$$
