
     RDKit          3D

 50 50  0  0  0  0  0  0  0  0999 V2000
    1.2441   -1.0347   -1.5691 C   0  0  0  0  0  0  0  0  0  0  0  0
    0.7691   -0.2866   -0.3907 C   0  0  0  0  0  0  0  0  0  0  0  0
   -0.6290    0.0419   -0.0485 C   0  0  0  0  0  0  0  0  0  0  0  0
   -1.6833   -0.2802   -0.7413 C   0  0  0  0  0  0  0  0  0  0  0  0
   -3.0826    0.0219   -0.4434 C   0  0  0  0  0  0  0  0  0  0  0  0
   -3.9612   -0.4465   -1.3544 C   0  0  0  0  0  0  0  0  0  0  0  0
   -3.4726   -1.1947   -2.5311 C   0  0  0  0  0  0  0  0  0  0  0  0
   -5.4272   -0.2403   -1.2272 C   0  0  0  0  0  0  0  0  0  0  0  0
   -5.7298   -0.1029    0.2281 C   0  0  0  0  0  0  0  0  0  0  0  0
   -4.9403    0.9740    0.9034 C   0  0  0  0  0  0  0  0  0  0  0  0
   -3.4463    0.7850    0.7768 C   0  0  0  0  0  0  0  0  0  0  0  0
   -2.8306    2.1517    0.6814 C   0  0  0  0  0  0  0  0  0  0  0  0
   -2.8978    0.0954    2.0087 C   0  0  0  0  0  0  0  0  0  0  0  0
    1.7587    0.0998    0.3998 C   0  0  0  0  0  0  0  0  0  0  0  0
    3.1558   -0.1920    0.1186 C   0  0  0  0  0  0  0  0  0  0  0  0
    4.1156    0.2087    0.9286 C   0  0  0  0  0  0  0  0  0  0  0  0
    5.5340   -0.0359    0.7293 C   0  0  0  0  0  0  0  0  0  0  0  0
    6.1314   -0.7657   -0.4001 C   0  0  0  0  0  0  0  0  0  0  0  0
    6.4023    0.4216    1.6205 C   0  0  0  0  0  0  0  0  0  0  0  0
    7.8361    0.2275    1.5077 C   0  0  0  0  0  0  0  0  0  0  0  0
    8.5680   -0.4227    0.5305 O   0  0  0  0  0  0  0  0  0  0  0  0
    8.6285    0.6748    2.3710 O   0  0  0  0  0  0  0  0  0  0  0  0
    1.9883   -0.4300   -2.1492 H   0  0  0  0  0  0  0  0  0  0  0  0
    0.4718   -1.3855   -2.2531 H   0  0  0  0  0  0  0  0  0  0  0  0
    1.8232   -1.9116   -1.1574 H   0  0  0  0  0  0  0  0  0  0  0  0
   -0.7769    0.5944    0.8514 H   0  0  0  0  0  0  0  0  0  0  0  0
   -1.3725   -0.8411   -1.6317 H   0  0  0  0  0  0  0  0  0  0  0  0
   -4.3096   -1.5195   -3.1472 H   0  0  0  0  0  0  0  0  0  0  0  0
   -2.8269   -0.4726   -3.1038 H   0  0  0  0  0  0  0  0  0  0  0  0
   -2.8841   -2.0888   -2.1950 H   0  0  0  0  0  0  0  0  0  0  0  0
   -5.7619    0.6211   -1.8345 H   0  0  0  0  0  0  0  0  0  0  0  0
   -5.9362   -1.1556   -1.5955 H   0  0  0  0  0  0  0  0  0  0  0  0
   -5.6044   -1.0779    0.7170 H   0  0  0  0  0  0  0  0  0  0  0  0
   -6.8044    0.1990    0.3250 H   0  0  0  0  0  0  0  0  0  0  0  0
   -5.2837    1.9778    0.5889 H   0  0  0  0  0  0  0  0  0  0  0  0
   -5.1788    0.9105    1.9928 H   0  0  0  0  0  0  0  0  0  0  0  0
   -2.2311    2.3264    1.6015 H   0  0  0  0  0  0  0  0  0  0  0  0
   -2.1785    2.1782   -0.2153 H   0  0  0  0  0  0  0  0  0  0  0  0
   -3.6362    2.9167    0.5783 H   0  0  0  0  0  0  0  0  0  0  0  0
   -2.4153   -0.8658    1.7533 H   0  0  0  0  0  0  0  0  0  0  0  0
   -3.7888   -0.2067    2.6381 H   0  0  0  0  0  0  0  0  0  0  0  0
   -2.3031    0.7326    2.6641 H   0  0  0  0  0  0  0  0  0  0  0  0
    1.5140    0.6654    1.3073 H   0  0  0  0  0  0  0  0  0  0  0  0
    3.4382   -0.7427   -0.7590 H   0  0  0  0  0  0  0  0  0  0  0  0
    3.7866    0.7556    1.7928 H   0  0  0  0  0  0  0  0  0  0  0  0
    6.8148   -0.0829   -0.9691 H   0  0  0  0  0  0  0  0  0  0  0  0
    6.6748   -1.6695   -0.0142 H   0  0  0  0  0  0  0  0  0  0  0  0
    5.3834   -1.1609   -1.1142 H   0  0  0  0  0  0  0  0  0  0  0  0
    6.0378    0.9613    2.4674 H   0  0  0  0  0  0  0  0  0  0  0  0
    9.3166    0.0719    0.0829 H   0  0  0  0  0  0  0  0  0  0  0  0
  1  2  1  0
  2  3  1  0
  3  4  2  0
  4  5  1  0
  5  6  2  0
  6  7  1  0
  6  8  1  0
  8  9  1  0
  9 10  1  0
 10 11  1  0
 11 12  1  0
 11 13  1  0
  2 14  2  0
 14 15  1  0
 15 16  2  0
 16 17  1  0
 17 18  1  0
 17 19  2  0
 19 20  1  0
 20 21  1  0
 20 22  2  0
 11  5  1  0
  1 23  1  0
  1 24  1  0
  1 25  1  0
  3 26  1  0
  4 27  1  0
  7 28  1  0
  7 29  1  0
  7 30  1  0
  8 31  1  0
  8 32  1  0
  9 33  1  0
  9 34  1  0
 10 35  1  0
 10 36  1  0
 12 37  1  0
 12 38  1  0
 12 39  1  0
 13 40  1  0
 13 41  1  0
 13 42  1  0
 14 43  1  0
 15 44  1  0
 16 45  1  0
 18 46  1  0
 18 47  1  0
 18 48  1  0
 19 49  1  0
 21 50  1  0
M  END
$$$$
