
     RDKit          3D

 44 46  0  0  0  0  0  0  0  0999 V2000
    2.0392    4.5421   -3.7157 N   0  0  0  0  0  0  0  0  0  0  0  0
    2.2967    3.4962   -2.7912 C   0  0  0  0  0  0  0  0  0  0  0  0
    3.4786    3.2484   -2.4523 O   0  0  0  0  0  0  0  0  0  0  0  0
    1.2218    2.7134   -2.2349 N   0  0  0  0  0  0  0  0  0  0  0  0
    1.5299    1.6747   -1.3112 C   0  0  0  0  0  0  0  0  0  0  0  0
    3.2160    1.2732   -0.7866 S   0  0  0  0  0  0  0  0  0  0  0  0
    2.6830   -0.0878    0.3235 C   0  0  0  0  0  0  0  0  0  0  0  0
    3.6152   -0.8723    1.0960 C   0  0  0  0  0  0  0  0  0  0  0  0
    4.9598   -0.5975    1.0042 C   0  0  0  0  0  0  0  0  0  0  0  0
    5.8776   -1.3444    1.7429 C   0  0  0  0  0  0  0  0  0  0  0  0
    5.4330   -2.3579    2.5645 C   0  0  0  0  0  0  0  0  0  0  0  0
    4.0847   -2.6194    2.6446 C   0  0  0  0  0  0  0  0  0  0  0  0
    3.1696   -1.8689    1.9031 C   0  0  0  0  0  0  0  0  0  0  0  0
    1.3636   -0.0918    0.1858 C   0  0  0  0  0  0  0  0  0  0  0  0
    0.7181    0.7741   -0.6258 C   0  0  0  0  0  0  0  0  0  0  0  0
   -0.7657    0.7873   -0.7959 C   0  0  0  0  0  0  0  0  0  0  0  0
   -1.2483    1.6298   -1.5700 O   0  0  0  0  0  0  0  0  0  0  0  0
   -1.6208   -0.1020   -0.1247 N   0  0  0  0  0  0  0  0  0  0  0  0
   -3.0826   -0.0695   -0.3089 C   0  0  1  0  0  0  0  0  0  0  0  0
   -3.4723   -1.3669   -0.9247 C   0  0  0  0  0  0  0  0  0  0  0  0
   -4.8550   -1.8344   -0.6115 C   0  0  0  0  0  0  0  0  0  0  0  0
   -5.6140   -0.8781    0.2822 C   0  0  0  0  0  0  0  0  0  0  0  0
   -4.7617   -0.6068    1.4092 N   0  0  0  0  0  0  0  0  0  0  0  0
   -3.7051    0.2558    0.9888 C   0  0  0  0  0  0  0  0  0  0  0  0
    1.1333    5.0756   -3.6332 H   0  0  0  0  0  0  0  0  0  0  0  0
    2.7273    4.7932   -4.4738 H   0  0  0  0  0  0  0  0  0  0  0  0
    0.2856    2.9766   -2.5608 H   0  0  0  0  0  0  0  0  0  0  0  0
    5.3319    0.1970    0.3626 H   0  0  0  0  0  0  0  0  0  0  0  0
    6.9429   -1.1659    1.7037 H   0  0  0  0  0  0  0  0  0  0  0  0
    6.1142   -2.9587    3.1526 H   0  0  0  0  0  0  0  0  0  0  0  0
    3.7504   -3.4146    3.2908 H   0  0  0  0  0  0  0  0  0  0  0  0
    2.1214   -2.0605    1.9552 H   0  0  0  0  0  0  0  0  0  0  0  0
    0.7738   -0.8600    0.7815 H   0  0  0  0  0  0  0  0  0  0  0  0
   -1.2102   -0.8116    0.5278 H   0  0  0  0  0  0  0  0  0  0  0  0
   -3.2712    0.7492   -1.0311 H   0  0  0  0  0  0  0  0  0  0  0  0
   -3.4017   -1.2696   -2.0414 H   0  0  0  0  0  0  0  0  0  0  0  0
   -2.7584   -2.1750   -0.6607 H   0  0  0  0  0  0  0  0  0  0  0  0
   -5.4793   -1.9955   -1.5193 H   0  0  0  0  0  0  0  0  0  0  0  0
   -4.8500   -2.8183   -0.0810 H   0  0  0  0  0  0  0  0  0  0  0  0
   -5.9266    0.0210   -0.2730 H   0  0  0  0  0  0  0  0  0  0  0  0
   -6.5170   -1.3902    0.6604 H   0  0  0  0  0  0  0  0  0  0  0  0
   -5.2600   -0.1763    2.2120 H   0  0  0  0  0  0  0  0  0  0  0  0
   -2.9492    0.2788    1.8286 H   0  0  0  0  0  0  0  0  0  0  0  0
   -4.1185    1.3074    0.9832 H   0  0  0  0  0  0  0  0  0  0  0  0
  1  2  1  0
  2  3  2  0
  2  4  1  0
  4  5  1  0
  5  6  1  0
  6  7  1  0
  7  8  1  0
  8  9  2  0
  9 10  1  0
 10 11  2  0
 11 12  1  0
 12 13  2  0
  7 14  2  0
 14 15  1  0
 15 16  1  0
 16 17  2  0
 16 18  1  0
 18 19  1  0
 19 20  1  0
 20 21  1  0
 21 22  1  0
 22 23  1  0
 23 24  1  0
 15  5  2  0
 24 19  1  0
 13  8  1  0
  1 25  1  0
  1 26  1  0
  4 27  1  0
  9 28  1  0
 10 29  1  0
 11 30  1  0
 12 31  1  0
 13 32  1  0
 14 33  1  0
 18 34  1  0
 19 35  1  6
 20 36  1  0
 20 37  1  0
 21 38  1  0
 21 39  1  0
 22 40  1  0
 22 41  1  0
 23 42  1  0
 24 43  1  0
 24 44  1  0
M  END
$$$$
