
     RDKit          3D

 61 62  0  0  0  0  0  0  0  0999 V2000
    3.6492    0.0971    0.2566 C   0  0  2  0  0  0  0  0  0  0  0  0
    4.1883    0.9057    1.4076 C   0  0  0  0  0  0  0  0  0  0  0  0
    5.4538    1.6469    1.0643 C   0  0  0  0  0  0  0  0  0  0  0  0
    5.2234    2.6070   -0.0730 C   0  0  0  0  0  0  0  0  0  0  0  0
    6.4640    3.3141   -0.3878 N   0  0  0  0  0  0  0  0  0  0  0  0
    2.4360   -0.5801    0.6715 N   0  0  0  0  0  0  0  0  0  0  0  0
    1.1707   -0.4798    0.0132 C   0  0  0  0  0  0  0  0  0  0  0  0
    1.1712    0.2775   -1.0127 O   0  0  0  0  0  0  0  0  0  0  0  0
    0.1586   -1.3217    0.7362 C   0  0  2  0  0  0  0  0  0  0  0  0
    0.5137   -2.7784    0.5742 C   0  0  0  0  0  0  0  0  0  0  0  0
   -0.0175   -3.0689   -0.8247 C   0  0  0  0  0  0  0  0  0  0  0  0
   -1.4238   -2.4753   -0.6566 C   0  0  0  0  0  0  0  0  0  0  0  0
   -1.1263   -1.2319    0.0748 N   0  0  0  0  0  0  0  0  0  0  0  0
   -1.7634   -0.0002    0.2804 C   0  0  0  0  0  0  0  0  0  0  0  0
   -1.4364    1.0442    0.9325 O   0  0  0  0  0  0  0  0  0  0  0  0
   -2.8687    0.9075    0.0806 C   0  0  1  0  0  0  0  0  0  0  0  0
   -4.2142    0.4731    0.5499 C   0  0  0  0  0  0  0  0  0  0  0  0
   -4.7397   -0.7636   -0.0615 C   0  0  0  0  0  0  0  0  0  0  0  0
   -4.5879   -2.0476    0.4153 C   0  0  0  0  0  0  0  0  0  0  0  0
   -5.0856   -3.1813   -0.1718 C   0  0  0  0  0  0  0  0  0  0  0  0
   -5.8052   -2.9975   -1.3537 C   0  0  0  0  0  0  0  0  0  0  0  0
   -5.9881   -1.7300   -1.8772 C   0  0  0  0  0  0  0  0  0  0  0  0
   -5.4637   -0.6138   -1.2443 C   0  0  0  0  0  0  0  0  0  0  0  0
   -2.6166    2.2127    0.7309 N   0  0  0  0  0  0  0  0  0  0  0  0
   -2.5095    3.3917   -0.0703 C   0  0  0  0  0  0  0  0  0  0  0  0
   -2.2579    4.7537    0.4719 C   0  0  0  0  0  0  0  0  0  0  0  0
   -2.6214    3.3766   -1.3309 O   0  0  0  0  0  0  0  0  0  0  0  0
    4.7083   -1.0636   -0.0555 B   0  0  0  0  0  0  0  0  0  0  0  0
    5.4328   -1.1066   -1.3326 O   0  0  0  0  0  0  0  0  0  0  0  0
    5.0571   -1.9596    1.0373 O   0  0  0  0  0  0  0  0  0  0  0  0
    3.4369    0.7009   -0.6287 H   0  0  0  0  0  0  0  0  0  0  0  0
    4.4160    0.2700    2.2797 H   0  0  0  0  0  0  0  0  0  0  0  0
    3.4466    1.6751    1.7290 H   0  0  0  0  0  0  0  0  0  0  0  0
    6.2719    0.9441    0.8024 H   0  0  0  0  0  0  0  0  0  0  0  0
    5.7229    2.2443    1.9616 H   0  0  0  0  0  0  0  0  0  0  0  0
    4.4658    3.3699    0.2279 H   0  0  0  0  0  0  0  0  0  0  0  0
    4.8543    2.1231   -0.9854 H   0  0  0  0  0  0  0  0  0  0  0  0
    7.1506    3.1566    0.3658 H   0  0  0  0  0  0  0  0  0  0  0  0
    6.8264    3.0848   -1.3308 H   0  0  0  0  0  0  0  0  0  0  0  0
    2.6881   -1.1379    1.5296 H   0  0  0  0  0  0  0  0  0  0  0  0
    0.1186   -1.0232    1.8087 H   0  0  0  0  0  0  0  0  0  0  0  0
    1.6257   -2.9276    0.5872 H   0  0  0  0  0  0  0  0  0  0  0  0
   -0.0029   -3.3994    1.3308 H   0  0  0  0  0  0  0  0  0  0  0  0
    0.5853   -2.4711   -1.5205 H   0  0  0  0  0  0  0  0  0  0  0  0
   -0.0548   -4.1314   -1.0449 H   0  0  0  0  0  0  0  0  0  0  0  0
   -1.8662   -2.3046   -1.6369 H   0  0  0  0  0  0  0  0  0  0  0  0
   -1.9607   -3.1924   -0.0082 H   0  0  0  0  0  0  0  0  0  0  0  0
   -2.9346    1.1698   -1.0182 H   0  0  0  0  0  0  0  0  0  0  0  0
   -4.9361    1.3290    0.3900 H   0  0  0  0  0  0  0  0  0  0  0  0
   -4.2299    0.3511    1.6682 H   0  0  0  0  0  0  0  0  0  0  0  0
   -4.0293   -2.1546    1.3266 H   0  0  0  0  0  0  0  0  0  0  0  0
   -4.9049   -4.1545    0.2943 H   0  0  0  0  0  0  0  0  0  0  0  0
   -6.1893   -3.9156   -1.7991 H   0  0  0  0  0  0  0  0  0  0  0  0
   -6.5640   -1.7367   -2.7944 H   0  0  0  0  0  0  0  0  0  0  0  0
   -5.6808    0.3150   -1.7599 H   0  0  0  0  0  0  0  0  0  0  0  0
   -2.4987    2.4302    1.7259 H   0  0  0  0  0  0  0  0  0  0  0  0
   -1.3873    5.1650   -0.0950 H   0  0  0  0  0  0  0  0  0  0  0  0
   -2.0095    4.6894    1.5531 H   0  0  0  0  0  0  0  0  0  0  0  0
   -3.1724    5.3575    0.3251 H   0  0  0  0  0  0  0  0  0  0  0  0
    4.9240   -0.5516   -1.9674 H   0  0  0  0  0  0  0  0  0  0  0  0
    4.7872   -2.8832    0.8039 H   0  0  0  0  0  0  0  0  0  0  0  0
  1  2  1  0
  2  3  1  0
  3  4  1  0
  4  5  1  0
  1  6  1  0
  6  7  1  0
  7  8  2  0
  7  9  1  0
  9 10  1  0
 10 11  1  0
 11 12  1  0
 12 13  1  0
 13 14  1  0
 14 15  2  0
 14 16  1  0
 16 17  1  0
 17 18  1  0
 18 19  2  0
 19 20  1  0
 20 21  2  0
 21 22  1  0
 22 23  2  0
 16 24  1  0
 24 25  1  0
 25 26  1  0
 25 27  2  0
  1 28  1  0
 28 29  1  0
 28 30  1  0
 13  9  1  0
 23 18  1  0
  1 31  1  6
  2 32  1  0
  2 33  1  0
  3 34  1  0
  3 35  1  0
  4 36  1  0
  4 37  1  0
  5 38  1  0
  5 39  1  0
  6 40  1  0
  9 41  1  1
 10 42  1  0
 10 43  1  0
 11 44  1  0
 11 45  1  0
 12 46  1  0
 12 47  1  0
 16 48  1  6
 17 49  1  0
 17 50  1  0
 19 51  1  0
 20 52  1  0
 21 53  1  0
 22 54  1  0
 23 55  1  0
 24 56  1  0
 26 57  1  0
 26 58  1  0
 26 59  1  0
 29 60  1  0
 30 61  1  0
M  END
$$$$
