
     RDKit          3D

 54 55  0  0  0  0  0  0  0  0999 V2000
    5.4433    3.0053   -0.1739 C   0  0  0  0  0  0  0  0  0  0  0  0
    5.6109    2.0963   -1.3775 C   0  0  0  0  0  0  0  0  0  0  0  0
    4.3854    1.2106   -1.5211 C   0  0  0  0  0  0  0  0  0  0  0  0
    4.2287    0.3712   -0.2768 C   0  0  0  0  0  0  0  0  0  0  0  0
    3.0031   -0.5121   -0.4250 C   0  0  0  0  0  0  0  0  0  0  0  0
    2.8406   -1.3645    0.8268 C   0  0  0  0  0  0  0  0  0  0  0  0
    1.7554   -2.1881    0.7774 O   0  0  0  0  0  0  0  0  0  0  0  0
    0.4321   -1.9771    0.6557 C   0  0  0  0  0  0  0  0  0  0  0  0
   -0.1274   -1.9194   -0.6168 C   0  0  0  0  0  0  0  0  0  0  0  0
    0.6826   -2.0789   -1.7282 O   0  0  0  0  0  0  0  0  0  0  0  0
    0.0698   -2.0158   -3.0003 C   0  0  0  0  0  0  0  0  0  0  0  0
   -1.4875   -1.7032   -0.7486 C   0  0  0  0  0  0  0  0  0  0  0  0
   -2.3139   -1.5417    0.3511 C   0  0  0  0  0  0  0  0  0  0  0  0
   -3.7327   -1.3255    0.1156 C   0  0  0  0  0  0  0  0  0  0  0  0
   -4.1745    0.0600   -0.0654 C   0  0  0  0  0  0  0  0  0  0  0  0
   -4.3866    0.4688   -1.3883 C   0  0  0  0  0  0  0  0  0  0  0  0
   -4.7779    1.7234   -1.6295 N   0  0  0  0  0  0  0  0  0  0  0  0
   -4.9862    2.6409   -0.6601 C   0  0  0  0  0  0  0  0  0  0  0  0
   -5.4021    3.9617   -0.9597 N   0  0  0  0  0  0  0  0  0  0  0  0
   -4.7732    2.2142    0.5967 N   0  0  0  0  0  0  0  0  0  0  0  0
   -4.3844    0.9861    0.9182 C   0  0  0  0  0  0  0  0  0  0  0  0
   -4.1747    0.5707    2.2691 N   0  0  0  0  0  0  0  0  0  0  0  0
   -1.7709   -1.5974    1.6052 C   0  0  0  0  0  0  0  0  0  0  0  0
   -0.3945   -1.8157    1.7524 C   0  0  0  0  0  0  0  0  0  0  0  0
    0.2223   -1.8832    2.9907 O   0  0  0  0  0  0  0  0  0  0  0  0
   -0.5774   -1.7238    4.1478 C   0  0  0  0  0  0  0  0  0  0  0  0
    4.3697    3.2660   -0.1170 H   0  0  0  0  0  0  0  0  0  0  0  0
    5.6607    2.3746    0.7323 H   0  0  0  0  0  0  0  0  0  0  0  0
    6.1058    3.8907   -0.2055 H   0  0  0  0  0  0  0  0  0  0  0  0
    6.4817    1.4201   -1.2000 H   0  0  0  0  0  0  0  0  0  0  0  0
    5.8184    2.6717   -2.2973 H   0  0  0  0  0  0  0  0  0  0  0  0
    3.4866    1.8457   -1.6821 H   0  0  0  0  0  0  0  0  0  0  0  0
    4.4801    0.5671   -2.4104 H   0  0  0  0  0  0  0  0  0  0  0  0
    5.1088   -0.2999   -0.1786 H   0  0  0  0  0  0  0  0  0  0  0  0
    4.1771    0.9943    0.6232 H   0  0  0  0  0  0  0  0  0  0  0  0
    2.1285    0.0931   -0.6622 H   0  0  0  0  0  0  0  0  0  0  0  0
    3.2520   -1.2575   -1.2377 H   0  0  0  0  0  0  0  0  0  0  0  0
    3.7671   -1.9995    0.8686 H   0  0  0  0  0  0  0  0  0  0  0  0
    2.9148   -0.6716    1.6819 H   0  0  0  0  0  0  0  0  0  0  0  0
    0.8001   -2.1165   -3.8303 H   0  0  0  0  0  0  0  0  0  0  0  0
   -0.6732   -2.8640   -3.0077 H   0  0  0  0  0  0  0  0  0  0  0  0
   -0.5280   -1.0908   -3.1063 H   0  0  0  0  0  0  0  0  0  0  0  0
   -1.9146   -1.6585   -1.7398 H   0  0  0  0  0  0  0  0  0  0  0  0
   -4.3399   -1.7612    0.9492 H   0  0  0  0  0  0  0  0  0  0  0  0
   -4.0390   -1.9190   -0.7763 H   0  0  0  0  0  0  0  0  0  0  0  0
   -4.2436   -0.1991   -2.2253 H   0  0  0  0  0  0  0  0  0  0  0  0
   -6.2513    4.1175   -1.5216 H   0  0  0  0  0  0  0  0  0  0  0  0
   -4.8575    4.7591   -0.6172 H   0  0  0  0  0  0  0  0  0  0  0  0
   -4.5163   -0.3277    2.6426 H   0  0  0  0  0  0  0  0  0  0  0  0
   -3.6531    1.2081    2.9013 H   0  0  0  0  0  0  0  0  0  0  0  0
   -2.3400   -1.4862    2.5158 H   0  0  0  0  0  0  0  0  0  0  0  0
   -1.1840   -0.8098    4.1304 H   0  0  0  0  0  0  0  0  0  0  0  0
   -1.2637   -2.6095    4.1879 H   0  0  0  0  0  0  0  0  0  0  0  0
    0.0425   -1.7999    5.0790 H   0  0  0  0  0  0  0  0  0  0  0  0
  1  2  1  0
  2  3  1  0
  3  4  1  0
  4  5  1  0
  5  6  1  0
  6  7  1  0
  7  8  1  0
  8  9  2  0
  9 10  1  0
 10 11  1  0
  9 12  1  0
 12 13  2  0
 13 14  1  0
 14 15  1  0
 15 16  2  0
 16 17  1  0
 17 18  2  0
 18 19  1  0
 18 20  1  0
 20 21  2  0
 21 22  1  0
 13 23  1  0
 23 24  2  0
 24 25  1  0
 25 26  1  0
 24  8  1  0
 21 15  1  0
  1 27  1  0
  1 28  1  0
  1 29  1  0
  2 30  1  0
  2 31  1  0
  3 32  1  0
  3 33  1  0
  4 34  1  0
  4 35  1  0
  5 36  1  0
  5 37  1  0
  6 38  1  0
  6 39  1  0
 11 40  1  0
 11 41  1  0
 11 42  1  0
 12 43  1  0
 14 44  1  0
 14 45  1  0
 16 46  1  0
 19 47  1  0
 19 48  1  0
 22 49  1  0
 22 50  1  0
 23 51  1  0
 26 52  1  0
 26 53  1  0
 26 54  1  0
M  END
$$$$
