
     RDKit          3D

 66 69  0  0  0  0  0  0  0  0999 V2000
    9.7813   -0.4301    0.6475 C   0  0  0  0  0  0  0  0  0  0  0  0
    9.1444   -1.7234    0.5951 O   0  0  0  0  0  0  0  0  0  0  0  0
    8.4474   -2.1144    1.7180 C   0  0  0  0  0  0  0  0  0  0  0  0
    9.1120   -2.7772    2.7299 C   0  0  0  0  0  0  0  0  0  0  0  0
   11.1678   -3.2190    2.6164 I   0  0  0  0  0  0  0  0  0  0  0  0
    8.4179   -3.1660    3.8527 C   0  0  0  0  0  0  0  0  0  0  0  0
    7.0834   -2.9205    4.0094 C   0  0  0  0  0  0  0  0  0  0  0  0
    6.4106   -2.2559    2.9962 C   0  0  0  0  0  0  0  0  0  0  0  0
    5.1834   -1.9020    2.8801 O   0  0  0  0  0  0  0  0  0  0  0  0
    4.9589   -1.2743    1.7187 C   0  0  0  0  0  0  0  0  0  0  0  0
    3.6468   -0.7847    1.3720 C   0  0  0  0  0  0  0  0  0  0  0  0
    2.6421   -1.0702    2.1236 O   0  0  0  0  0  0  0  0  0  0  0  0
    3.3070    0.0090    0.2590 N   0  0  0  0  0  0  0  0  0  0  0  0
    1.9714    0.4465   -0.0070 C   0  0  0  0  0  0  0  0  0  0  0  0
    1.4770    1.6336    0.4868 C   0  0  0  0  0  0  0  0  0  0  0  0
    0.1715    2.0359    0.2114 C   0  0  0  0  0  0  0  0  0  0  0  0
   -0.6470    1.2526   -0.5600 C   0  0  0  0  0  0  0  0  0  0  0  0
   -2.0137    1.6753   -0.8478 C   0  0  0  0  0  0  0  0  0  0  0  0
   -2.6358    1.3313   -2.0331 C   0  0  0  0  0  0  0  0  0  0  0  0
   -3.9345    1.7267   -2.3200 C   0  0  0  0  0  0  0  0  0  0  0  0
   -4.6528    2.4872   -1.4143 C   0  0  0  0  0  0  0  0  0  0  0  0
   -6.2850    3.0015   -1.7442 S   0  0  0  0  0  6  0  0  0  0  0  0
   -6.4342    3.1745   -3.2365 O   0  0  0  0  0  0  0  0  0  0  0  0
   -6.5819    4.3385   -1.1297 O   0  0  0  0  0  0  0  0  0  0  0  0
   -7.4163    1.8744   -1.1455 N   0  0  0  0  0  0  0  0  0  0  0  0
   -7.2928    0.5610   -1.7526 C   0  0  2  0  0  0  0  0  0  0  0  0
   -8.5047    0.2652   -2.5902 C   0  0  0  0  0  0  0  0  0  0  0  0
   -8.5548   -0.8274   -3.1918 O   0  0  0  0  0  0  0  0  0  0  0  0
   -9.5502    1.1616   -2.7087 O   0  0  0  0  0  0  0  0  0  0  0  0
   -7.0710   -0.5308   -0.7370 C   0  0  0  0  0  0  0  0  0  0  0  0
   -6.9493   -1.8445   -1.4749 C   0  0  0  0  0  0  0  0  0  0  0  0
   -5.8485   -0.2431    0.0851 C   0  0  0  0  0  0  0  0  0  0  0  0
   -4.0164    2.8288   -0.2220 C   0  0  0  0  0  0  0  0  0  0  0  0
   -2.7258    2.4379    0.0673 C   0  0  0  0  0  0  0  0  0  0  0  0
   -0.1653    0.0437   -1.0714 C   0  0  0  0  0  0  0  0  0  0  0  0
    1.1409   -0.3282   -0.7781 C   0  0  0  0  0  0  0  0  0  0  0  0
    6.1448   -1.2376    1.0612 C   0  0  0  0  0  0  0  0  0  0  0  0
    6.3730   -0.6774   -0.2727 C   0  0  0  0  0  0  0  0  0  0  0  0
    7.1085   -1.8553    1.8464 C   0  0  0  0  0  0  0  0  0  0  0  0
    9.7409   -0.0467   -0.3968 H   0  0  0  0  0  0  0  0  0  0  0  0
    9.1265    0.2373    1.2445 H   0  0  0  0  0  0  0  0  0  0  0  0
   10.8084   -0.5031    1.0315 H   0  0  0  0  0  0  0  0  0  0  0  0
    8.9513   -3.6895    4.6483 H   0  0  0  0  0  0  0  0  0  0  0  0
    6.5169   -3.2111    4.8733 H   0  0  0  0  0  0  0  0  0  0  0  0
    4.0230    0.3060   -0.3949 H   0  0  0  0  0  0  0  0  0  0  0  0
    2.1477    2.2298    1.0926 H   0  0  0  0  0  0  0  0  0  0  0  0
   -0.2005    2.9670    0.6048 H   0  0  0  0  0  0  0  0  0  0  0  0
   -2.0625    0.7367   -2.7318 H   0  0  0  0  0  0  0  0  0  0  0  0
   -4.3616    1.4241   -3.2658 H   0  0  0  0  0  0  0  0  0  0  0  0
   -8.3816    2.2101   -1.2876 H   0  0  0  0  0  0  0  0  0  0  0  0
   -6.4502    0.5662   -2.4645 H   0  0  0  0  0  0  0  0  0  0  0  0
  -10.4259    0.9414   -3.1672 H   0  0  0  0  0  0  0  0  0  0  0  0
   -7.9800   -0.6470   -0.0846 H   0  0  0  0  0  0  0  0  0  0  0  0
   -6.1987   -2.5161   -0.9674 H   0  0  0  0  0  0  0  0  0  0  0  0
   -6.5180   -1.7144   -2.5051 H   0  0  0  0  0  0  0  0  0  0  0  0
   -7.8936   -2.3778   -1.5870 H   0  0  0  0  0  0  0  0  0  0  0  0
   -5.8425   -1.0372    0.8935 H   0  0  0  0  0  0  0  0  0  0  0  0
   -5.8941    0.7620    0.5442 H   0  0  0  0  0  0  0  0  0  0  0  0
   -4.9588   -0.3003   -0.5409 H   0  0  0  0  0  0  0  0  0  0  0  0
   -4.5258    3.4204    0.5229 H   0  0  0  0  0  0  0  0  0  0  0  0
   -2.2256    2.7015    0.9950 H   0  0  0  0  0  0  0  0  0  0  0  0
   -0.8019   -0.5878   -1.6842 H   0  0  0  0  0  0  0  0  0  0  0  0
    1.5463   -1.2647   -1.1616 H   0  0  0  0  0  0  0  0  0  0  0  0
    6.3916    0.4245   -0.3305 H   0  0  0  0  0  0  0  0  0  0  0  0
    7.3782   -0.9883   -0.6921 H   0  0  0  0  0  0  0  0  0  0  0  0
    5.6805   -1.1461   -1.0452 H   0  0  0  0  0  0  0  0  0  0  0  0
  1  2  1  0
  2  3  1  0
  3  4  2  0
  4  5  1  0
  4  6  1  0
  6  7  2  0
  7  8  1  0
  8  9  1  0
  9 10  1  0
 10 11  1  0
 11 12  2  0
 11 13  1  0
 13 14  1  0
 14 15  2  0
 15 16  1  0
 16 17  2  0
 17 18  1  0
 18 19  2  0
 19 20  1  0
 20 21  2  0
 21 22  1  0
 22 23  2  0
 22 24  2  0
 22 25  1  0
 25 26  1  0
 26 27  1  0
 27 28  2  0
 27 29  1  0
 26 30  1  0
 30 31  1  0
 30 32  1  0
 21 33  1  0
 33 34  2  0
 17 35  1  0
 35 36  2  0
 10 37  2  0
 37 38  1  0
 37 39  1  0
 39  3  1  0
 39  8  2  0
 36 14  1  0
 34 18  1  0
  1 40  1  0
  1 41  1  0
  1 42  1  0
  6 43  1  0
  7 44  1  0
 13 45  1  0
 15 46  1  0
 16 47  1  0
 19 48  1  0
 20 49  1  0
 25 50  1  0
 26 51  1  6
 29 52  1  0
 30 53  1  0
 31 54  1  0
 31 55  1  0
 31 56  1  0
 32 57  1  0
 32 58  1  0
 32 59  1  0
 33 60  1  0
 34 61  1  0
 35 62  1  0
 36 63  1  0
 38 64  1  0
 38 65  1  0
 38 66  1  0
M  END
$$$$
