
     RDKit          3D

 41 42  0  0  0  0  0  0  0  0999 V2000
    1.3738    2.2005    1.0147 C   0  0  0  0  0  0  0  0  0  0  0  0
    0.8642    0.8000    0.7587 C   0  0  2  0  0  0  0  0  0  0  0  0
    0.8458    0.0547    1.9255 O   0  0  0  0  0  0  0  0  0  0  0  0
    1.8404    0.1181   -0.1712 C   0  0  0  0  0  0  0  0  0  0  0  0
    3.0915    0.1312    0.5057 O   0  0  0  0  0  0  0  0  0  0  0  0
    4.2599   -0.3873    0.0198 C   0  0  0  0  0  0  0  0  0  0  0  0
    5.3244   -0.2263    0.9113 C   0  0  0  0  0  0  0  0  0  0  0  0
    6.5988   -0.6745    0.6286 C   0  0  0  0  0  0  0  0  0  0  0  0
    6.7825   -1.2993   -0.5925 C   0  0  0  0  0  0  0  0  0  0  0  0
    8.3695   -1.8956   -1.0250 Cl  0  0  0  0  0  0  0  0  0  0  0  0
    5.7559   -1.4866   -1.5199 C   0  0  0  0  0  0  0  0  0  0  0  0
    5.9496   -2.0981   -2.7076 F   0  0  0  0  0  0  0  0  0  0  0  0
    4.4962   -1.0103   -1.1701 C   0  0  0  0  0  0  0  0  0  0  0  0
   -0.4997    0.8834    0.2237 C   0  0  0  0  0  0  0  0  0  0  0  0
   -0.5849    1.5467   -0.8445 O   0  0  0  0  0  0  0  0  0  0  0  0
   -1.5944    0.2606    0.8789 N   0  0  0  0  0  0  0  0  0  0  0  0
   -2.9706    0.2297    0.5199 C   0  0  0  0  0  0  0  0  0  0  0  0
   -3.6050   -0.7071   -0.2751 C   0  0  0  0  0  0  0  0  0  0  0  0
   -4.9448   -0.6171   -0.5427 C   0  0  0  0  0  0  0  0  0  0  0  0
   -5.6826    0.4207   -0.0158 C   0  0  0  0  0  0  0  0  0  0  0  0
   -5.0744    1.3754    0.7849 C   0  0  0  0  0  0  0  0  0  0  0  0
   -3.7287    1.2779    1.0487 C   0  0  0  0  0  0  0  0  0  0  0  0
   -7.0845    0.5728   -0.2563 C   0  0  0  0  0  0  0  0  0  0  0  0
   -8.2323    0.6845   -0.4686 N   0  0  0  0  0  0  0  0  0  0  0  0
   -5.6046   -1.6368   -1.4002 C   0  0  0  0  0  0  0  0  0  0  0  0
   -6.5829   -2.2180   -0.6148 F   0  0  0  0  0  0  0  0  0  0  0  0
   -6.1549   -1.0314   -2.5068 F   0  0  0  0  0  0  0  0  0  0  0  0
   -4.7048   -2.6198   -1.7440 F   0  0  0  0  0  0  0  0  0  0  0  0
    1.7500    2.6068    0.0319 H   0  0  0  0  0  0  0  0  0  0  0  0
    0.5258    2.8017    1.3824 H   0  0  0  0  0  0  0  0  0  0  0  0
    2.1659    2.1239    1.7799 H   0  0  0  0  0  0  0  0  0  0  0  0
    0.6616   -0.8858    1.6460 H   0  0  0  0  0  0  0  0  0  0  0  0
    1.5701   -0.9502   -0.3066 H   0  0  0  0  0  0  0  0  0  0  0  0
    1.8805    0.5827   -1.1750 H   0  0  0  0  0  0  0  0  0  0  0  0
    5.2467    0.2600    1.8957 H   0  0  0  0  0  0  0  0  0  0  0  0
    7.4303   -0.5531    1.3159 H   0  0  0  0  0  0  0  0  0  0  0  0
    3.6421   -1.1038   -1.8104 H   0  0  0  0  0  0  0  0  0  0  0  0
   -1.4779   -0.2845    1.7704 H   0  0  0  0  0  0  0  0  0  0  0  0
   -2.9698   -1.4948   -0.6564 H   0  0  0  0  0  0  0  0  0  0  0  0
   -5.6428    2.2021    1.2092 H   0  0  0  0  0  0  0  0  0  0  0  0
   -3.2857    2.0472    1.6823 H   0  0  0  0  0  0  0  0  0  0  0  0
  1  2  1  0
  2  3  1  1
  2  4  1  0
  4  5  1  0
  5  6  1  0
  6  7  2  0
  7  8  1  0
  8  9  2  0
  9 10  1  0
  9 11  1  0
 11 12  1  0
 11 13  2  0
  2 14  1  0
 14 15  2  0
 14 16  1  0
 16 17  1  0
 17 18  2  0
 18 19  1  0
 19 20  2  0
 20 21  1  0
 21 22  2  0
 20 23  1  0
 23 24  3  0
 19 25  1  0
 25 26  1  0
 25 27  1  0
 25 28  1  0
 13  6  1  0
 22 17  1  0
  1 29  1  0
  1 30  1  0
  1 31  1  0
  3 32  1  0
  4 33  1  0
  4 34  1  0
  7 35  1  0
  8 36  1  0
 13 37  1  0
 16 38  1  0
 18 39  1  0
 21 40  1  0
 22 41  1  0
M  END
$$$$
