
     RDKit          3D

 28 31  0  0  0  0  0  0  0  0999 V2000
    2.7015    0.1194   -2.0082 N   0  0  0  0  0  0  0  0  0  0  0  0
    1.4031    0.1585   -1.9156 N   0  0  0  0  0  0  0  0  0  0  0  0
    0.9942    0.0423   -0.6341 C   0  0  0  0  0  0  0  0  0  0  0  0
   -0.4092    0.0544   -0.2388 C   0  0  0  0  0  0  0  0  0  0  0  0
   -0.9567   -0.0497    0.9759 N   0  0  0  0  0  0  0  0  0  0  0  0
   -2.3173    0.0104    0.8870 C   0  0  0  0  0  0  0  0  0  0  0  0
   -3.3756   -0.0394    1.7593 C   0  0  0  0  0  0  0  0  0  0  0  0
   -4.6677    0.0548    1.3140 C   0  0  0  0  0  0  0  0  0  0  0  0
   -4.9908    0.2037   -0.0190 C   0  0  0  0  0  0  0  0  0  0  0  0
   -3.9359    0.2560   -0.9143 C   0  0  0  0  0  0  0  0  0  0  0  0
   -2.6235    0.1592   -0.4508 C   0  0  0  0  0  0  0  0  0  0  0  0
   -1.4408    0.1822   -1.1070 N   0  0  0  0  0  0  0  0  0  0  0  0
    2.1070   -0.0784    0.1358 C   0  0  0  0  0  0  0  0  0  0  0  0
    3.1517   -0.0264   -0.7526 C   0  0  0  0  0  0  0  0  0  0  0  0
    4.4582   -0.1202   -0.3150 C   0  0  0  0  0  0  0  0  0  0  0  0
    4.6884   -0.2686    1.0468 C   0  0  0  0  0  0  0  0  0  0  0  0
    3.6232   -0.3186    1.9228 C   0  0  0  0  0  0  0  0  0  0  0  0
    2.2959   -0.2245    1.4908 C   0  0  0  0  0  0  0  0  0  0  0  0
    3.2583    0.1889   -2.8893 H   0  0  0  0  0  0  0  0  0  0  0  0
   -3.1714   -0.1553    2.8141 H   0  0  0  0  0  0  0  0  0  0  0  0
   -5.5343    0.0192    1.9774 H   0  0  0  0  0  0  0  0  0  0  0  0
   -5.9842    0.2842   -0.4408 H   0  0  0  0  0  0  0  0  0  0  0  0
   -4.1439    0.3732   -1.9799 H   0  0  0  0  0  0  0  0  0  0  0  0
   -1.3960    0.2881   -2.1551 H   0  0  0  0  0  0  0  0  0  0  0  0
    5.2678   -0.0794   -1.0086 H   0  0  0  0  0  0  0  0  0  0  0  0
    5.7202   -0.3396    1.3617 H   0  0  0  0  0  0  0  0  0  0  0  0
    3.8232   -0.4348    2.9825 H   0  0  0  0  0  0  0  0  0  0  0  0
    1.4546   -0.2595    2.1385 H   0  0  0  0  0  0  0  0  0  0  0  0
  1  2  1  0
  2  3  2  0
  3  4  1  0
  4  5  2  0
  5  6  1  0
  6  7  2  0
  7  8  1  0
  8  9  2  0
  9 10  1  0
 10 11  2  0
 11 12  1  0
  3 13  1  0
 13 14  2  0
 14 15  1  0
 15 16  2  0
 16 17  1  0
 17 18  2  0
 14  1  1  0
 12  4  1  0
 18 13  1  0
 11  6  1  0
  1 19  1  0
  7 20  1  0
  8 21  1  0
  9 22  1  0
 10 23  1  0
 12 24  1  0
 15 25  1  0
 16 26  1  0
 17 27  1  0
 18 28  1  0
M  END
$$$$
