
     RDKit          3D

 47 50  0  0  0  0  0  0  0  0999 V2000
   -4.2340    0.9068   -0.6948 C   0  0  1  0  0  0  0  0  0  0  0  0
   -4.5236   -0.4238   -0.7842 O   0  0  0  0  0  0  0  0  0  0  0  0
   -5.5533    1.6565   -0.6846 C   0  0  0  0  0  0  0  0  0  0  0  0
   -6.3183    1.2436    0.4178 O   0  0  0  0  0  0  0  0  0  0  0  0
   -3.3614    1.3155    0.4656 C   0  0  0  0  0  0  0  0  0  0  0  0
   -2.0753    0.6545    0.4024 N   0  0  0  0  0  0  0  0  0  0  0  0
   -1.8398   -0.7319    0.5594 C   0  0  0  0  0  0  0  0  0  0  0  0
   -0.5740   -1.2635    0.4761 C   0  0  0  0  0  0  0  0  0  0  0  0
   -0.2895   -2.6012    0.6272 C   0  0  0  0  0  0  0  0  0  0  0  0
    1.0218   -2.8007    0.4925 N   0  0  0  0  0  0  0  0  0  0  0  0
    1.6146   -1.5951    0.2513 C   0  0  0  0  0  0  0  0  0  0  0  0
    0.6274   -0.6313    0.2395 C   0  0  0  0  0  0  0  0  0  0  0  0
    1.0455    0.7134   -0.0002 C   0  0  0  0  0  0  0  0  0  0  0  0
    1.0903    1.0810   -1.3540 C   0  0  0  0  0  0  0  0  0  0  0  0
    1.4853    2.3430   -1.7574 C   0  0  0  0  0  0  0  0  0  0  0  0
    1.8472    3.2697   -0.7921 C   0  0  0  0  0  0  0  0  0  0  0  0
    1.8227    2.9621    0.5716 C   0  0  0  0  0  0  0  0  0  0  0  0
    1.4225    1.6922    0.9290 C   0  0  0  0  0  0  0  0  0  0  0  0
    3.0549   -1.5890    0.0742 C   0  0  0  0  0  0  0  0  0  0  0  0
    3.6804   -0.8536    1.0908 C   0  0  0  0  0  0  0  0  0  0  0  0
    5.0760   -0.7424    1.0752 C   0  0  0  0  0  0  0  0  0  0  0  0
    5.8750   -1.3191    0.1106 C   0  0  0  0  0  0  0  0  0  0  0  0
    5.1996   -2.0266   -0.8573 C   0  0  0  0  0  0  0  0  0  0  0  0
    3.8484   -2.1779   -0.9075 C   0  0  0  0  0  0  0  0  0  0  0  0
   -1.3500   -3.4215    0.8741 N   0  0  0  0  0  0  0  0  0  0  0  0
   -2.5902   -2.9100    0.9572 C   0  0  0  0  0  0  0  0  0  0  0  0
   -2.8276   -1.6007    0.8040 N   0  0  0  0  0  0  0  0  0  0  0  0
   -3.6690    1.1907   -1.6317 H   0  0  0  0  0  0  0  0  0  0  0  0
   -4.1921   -0.8817   -1.5854 H   0  0  0  0  0  0  0  0  0  0  0  0
   -6.1278    1.3422   -1.5807 H   0  0  0  0  0  0  0  0  0  0  0  0
   -5.4184    2.7513   -0.6798 H   0  0  0  0  0  0  0  0  0  0  0  0
   -6.0276    1.7201    1.2391 H   0  0  0  0  0  0  0  0  0  0  0  0
   -3.2739    2.4311    0.3899 H   0  0  0  0  0  0  0  0  0  0  0  0
   -3.8765    1.1053    1.4354 H   0  0  0  0  0  0  0  0  0  0  0  0
   -1.3012    1.3210    0.2195 H   0  0  0  0  0  0  0  0  0  0  0  0
    1.4131   -3.7686    0.5779 H   0  0  0  0  0  0  0  0  0  0  0  0
    0.8178    0.3950   -2.1600 H   0  0  0  0  0  0  0  0  0  0  0  0
    1.5148    2.6105   -2.8040 H   0  0  0  0  0  0  0  0  0  0  0  0
    2.1658    4.2744   -1.0393 H   0  0  0  0  0  0  0  0  0  0  0  0
    2.0952    3.6492    1.3589 H   0  0  0  0  0  0  0  0  0  0  0  0
    1.3638    1.3372    1.9490 H   0  0  0  0  0  0  0  0  0  0  0  0
    3.2040   -0.3415    1.9179 H   0  0  0  0  0  0  0  0  0  0  0  0
    5.6003   -0.1723    1.8590 H   0  0  0  0  0  0  0  0  0  0  0  0
    6.9331   -1.2447    0.0845 H   0  0  0  0  0  0  0  0  0  0  0  0
    5.7355   -2.5228   -1.6675 H   0  0  0  0  0  0  0  0  0  0  0  0
    3.2611   -2.7108   -1.6281 H   0  0  0  0  0  0  0  0  0  0  0  0
   -3.3928   -3.6356    1.1588 H   0  0  0  0  0  0  0  0  0  0  0  0
  1  2  1  0
  1  3  1  0
  3  4  1  0
  1  5  1  0
  5  6  1  0
  6  7  1  0
  7  8  2  0
  8  9  1  0
  9 10  1  0
 10 11  1  0
 11 12  2  0
 12 13  1  0
 13 14  2  0
 14 15  1  0
 15 16  2  0
 16 17  1  0
 17 18  2  0
 11 19  1  0
 19 20  2  0
 20 21  1  0
 21 22  2  0
 22 23  1  0
 23 24  2  0
  9 25  2  0
 25 26  1  0
 26 27  2  0
 27  7  1  0
 12  8  1  0
 18 13  1  0
 24 19  1  0
  1 28  1  6
  2 29  1  0
  3 30  1  0
  3 31  1  0
  4 32  1  0
  5 33  1  0
  5 34  1  0
  6 35  1  0
 10 36  1  0
 14 37  1  0
 15 38  1  0
 16 39  1  0
 17 40  1  0
 18 41  1  0
 20 42  1  0
 21 43  1  0
 22 44  1  0
 23 45  1  0
 24 46  1  0
 26 47  1  0
M  END
$$$$
