
     RDKit          3D

 83 87  0  0  0  0  0  0  0  0999 V2000
   -9.4807   -2.0891   -1.2033 O   0  0  0  0  0  0  0  0  0  0  0  0
   -9.6779   -1.6173   -0.0384 C   0  0  0  0  0  0  0  0  0  0  0  0
  -10.9144   -1.6629    0.5822 O   0  0  0  0  0  0  0  0  0  0  0  0
   -8.5520   -0.9745    0.7352 C   0  0  0  0  0  0  0  0  0  0  0  0
   -7.7681   -2.0342    1.4080 C   0  0  0  0  0  0  0  0  0  0  0  0
   -6.6241   -1.6129    2.2723 C   0  0  0  0  0  0  0  0  0  0  0  0
   -5.6051   -0.9142    1.7987 O   0  0  0  0  0  0  0  0  0  0  0  0
   -5.1392    0.2018    1.2596 C   0  0  0  0  0  0  0  0  0  0  0  0
   -5.9049    1.3157    0.9821 C   0  0  0  0  0  0  0  0  0  0  0  0
   -5.3385    2.4321    0.4266 C   0  0  0  0  0  0  0  0  0  0  0  0
   -4.0050    2.4707    0.1359 C   0  0  0  0  0  0  0  0  0  0  0  0
   -3.1570    1.3608    0.3974 C   0  0  0  0  0  0  0  0  0  0  0  0
   -1.7215    1.5430    0.1021 C   0  0  0  0  0  0  0  0  0  0  0  0
   -1.1936    0.8864   -1.1124 C   0  0  0  0  0  0  0  0  0  0  0  0
    0.3029    1.1917   -1.3363 C   0  0  0  0  0  0  0  0  0  0  0  0
    0.5414    2.6371   -1.5366 C   0  0  0  0  0  0  0  0  0  0  0  0
    1.9818    3.0419   -1.7715 C   0  0  0  0  0  0  0  0  0  0  0  0
    2.6155    2.3845   -2.9468 C   0  0  0  0  0  0  0  0  0  0  0  0
    2.7267    1.0285   -2.8185 O   0  0  0  0  0  0  0  0  0  0  0  0
    3.5318    0.3394   -1.9380 C   0  0  0  0  0  0  0  0  0  0  0  0
    3.4653   -1.0692   -1.9080 C   0  0  0  0  0  0  0  0  0  0  0  0
    4.2431   -1.8086   -1.0630 C   0  0  0  0  0  0  0  0  0  0  0  0
    4.0953   -3.3027   -1.0603 C   0  0  0  0  0  0  0  0  0  0  0  0
    4.3012   -4.0254    0.0119 C   0  0  0  0  0  0  0  0  0  0  0  0
    4.1230   -5.4012    0.0131 C   0  0  0  0  0  0  0  0  0  0  0  0
    3.6071   -5.6555   -1.7207 S   0  0  0  0  0  0  0  0  0  0  0  0
    3.6704   -3.9599   -2.2828 C   0  0  0  0  0  0  0  0  0  0  0  0
    5.1102   -1.1627   -0.2250 C   0  0  0  0  0  0  0  0  0  0  0  0
    5.2337    0.2033   -0.1949 C   0  0  0  0  0  0  0  0  0  0  0  0
    6.1352    0.9593    0.6458 C   0  0  0  0  0  0  0  0  0  0  0  0
    5.7870    2.2380    1.1031 C   0  0  0  0  0  0  0  0  0  0  0  0
    6.6411    2.9950    1.8909 C   0  0  0  0  0  0  0  0  0  0  0  0
    7.8851    2.4985    2.2537 C   0  0  0  0  0  0  0  0  0  0  0  0
    8.2603    1.2430    1.8217 C   0  0  0  0  0  0  0  0  0  0  0  0
    7.3810    0.5014    1.0299 C   0  0  0  0  0  0  0  0  0  0  0  0
    9.5349    1.0267    2.3361 O   0  0  0  0  0  0  0  0  0  0  0  0
    9.7836    1.9612    3.3582 C   0  0  0  0  0  0  0  0  0  0  0  0
    8.9252    3.0304    3.0201 O   0  0  0  0  0  0  0  0  0  0  0  0
    4.4158    0.9239   -1.0786 C   0  0  0  0  0  0  0  0  0  0  0  0
   -3.7609    0.2759    0.9452 C   0  0  0  0  0  0  0  0  0  0  0  0
   -2.9622   -0.9258    1.2974 C   0  0  0  0  0  0  0  0  0  0  0  0
   -3.3190   -2.1614    0.5390 C   0  0  0  0  0  0  0  0  0  0  0  0
   -3.2211   -2.1376   -0.9058 C   0  0  0  0  0  0  0  0  0  0  0  0
   -2.2368   -2.6175   -1.4986 O   0  0  0  0  0  0  0  0  0  0  0  0
   -4.2125   -1.5810   -1.7312 O   0  0  0  0  0  0  0  0  0  0  0  0
  -11.7319   -1.9096    0.0538 H   0  0  0  0  0  0  0  0  0  0  0  0
   -7.8889   -0.4622   -0.0263 H   0  0  0  0  0  0  0  0  0  0  0  0
   -8.9970   -0.2704    1.4345 H   0  0  0  0  0  0  0  0  0  0  0  0
   -8.4679   -2.6122    2.0827 H   0  0  0  0  0  0  0  0  0  0  0  0
   -7.3930   -2.7411    0.6251 H   0  0  0  0  0  0  0  0  0  0  0  0
   -6.2066   -2.6180    2.6722 H   0  0  0  0  0  0  0  0  0  0  0  0
   -7.0754   -1.2086    3.2433 H   0  0  0  0  0  0  0  0  0  0  0  0
   -6.9696    1.2985    1.2296 H   0  0  0  0  0  0  0  0  0  0  0  0
   -5.9746    3.2814    0.2243 H   0  0  0  0  0  0  0  0  0  0  0  0
   -3.5586    3.3560   -0.3048 H   0  0  0  0  0  0  0  0  0  0  0  0
   -1.1298    1.2636    1.0299 H   0  0  0  0  0  0  0  0  0  0  0  0
   -1.5215    2.6534    0.0279 H   0  0  0  0  0  0  0  0  0  0  0  0
   -1.7718    1.1077   -2.0148 H   0  0  0  0  0  0  0  0  0  0  0  0
   -1.2215   -0.2084   -0.9585 H   0  0  0  0  0  0  0  0  0  0  0  0
    0.6002    0.5615   -2.2064 H   0  0  0  0  0  0  0  0  0  0  0  0
    0.8151    0.8330   -0.4135 H   0  0  0  0  0  0  0  0  0  0  0  0
    0.2285    3.2322   -0.6362 H   0  0  0  0  0  0  0  0  0  0  0  0
   -0.0748    3.0430   -2.3619 H   0  0  0  0  0  0  0  0  0  0  0  0
    1.9213    4.1607   -1.9869 H   0  0  0  0  0  0  0  0  0  0  0  0
    2.5512    2.9851   -0.8407 H   0  0  0  0  0  0  0  0  0  0  0  0
    2.1333    2.6712   -3.9126 H   0  0  0  0  0  0  0  0  0  0  0  0
    3.6589    2.8198   -3.0483 H   0  0  0  0  0  0  0  0  0  0  0  0
    2.7809   -1.5394   -2.5741 H   0  0  0  0  0  0  0  0  0  0  0  0
    4.6493   -3.5629    1.0128 H   0  0  0  0  0  0  0  0  0  0  0  0
    4.2302   -6.1849    0.7631 H   0  0  0  0  0  0  0  0  0  0  0  0
    3.4573   -3.5592   -3.2335 H   0  0  0  0  0  0  0  0  0  0  0  0
    5.7207   -1.7544    0.4385 H   0  0  0  0  0  0  0  0  0  0  0  0
    4.8376    2.6474    0.8406 H   0  0  0  0  0  0  0  0  0  0  0  0
    6.3691    3.9853    2.2437 H   0  0  0  0  0  0  0  0  0  0  0  0
    7.6720   -0.4859    0.6870 H   0  0  0  0  0  0  0  0  0  0  0  0
    9.4349    1.5565    4.3396 H   0  0  0  0  0  0  0  0  0  0  0  0
   10.8460    2.2765    3.4008 H   0  0  0  0  0  0  0  0  0  0  0  0
    4.5184    2.0040   -1.0917 H   0  0  0  0  0  0  0  0  0  0  0  0
   -3.2588   -1.1436    2.3747 H   0  0  0  0  0  0  0  0  0  0  0  0
   -1.8775   -0.7589    1.2269 H   0  0  0  0  0  0  0  0  0  0  0  0
   -2.6091   -2.9864    0.8914 H   0  0  0  0  0  0  0  0  0  0  0  0
   -4.3188   -2.5911    0.8730 H   0  0  0  0  0  0  0  0  0  0  0  0
   -3.8821   -1.1162   -2.5709 H   0  0  0  0  0  0  0  0  0  0  0  0
  1  2  2  0
  2  3  1  0
  2  4  1  0
  4  5  1  0
  5  6  1  0
  6  7  1  0
  7  8  1  0
  8  9  2  0
  9 10  1  0
 10 11  2  0
 11 12  1  0
 12 13  1  0
 13 14  1  0
 14 15  1  0
 15 16  1  0
 16 17  1  0
 17 18  1  0
 18 19  1  0
 19 20  1  0
 20 21  2  0
 21 22  1  0
 22 23  1  0
 23 24  1  0
 24 25  2  0
 25 26  1  0
 26 27  1  0
 22 28  2  0
 28 29  1  0
 29 30  1  0
 30 31  2  0
 31 32  1  0
 32 33  2  0
 33 34  1  0
 34 35  2  0
 34 36  1  0
 36 37  1  0
 37 38  1  0
 29 39  2  0
 12 40  2  0
 40 41  1  0
 41 42  1  0
 42 43  1  0
 43 44  2  0
 43 45  1  0
 40  8  1  0
 39 20  1  0
 27 23  2  0
 35 30  1  0
 38 33  1  0
  3 46  1  0
  4 47  1  0
  4 48  1  0
  5 49  1  0
  5 50  1  0
  6 51  1  0
  6 52  1  0
  9 53  1  0
 10 54  1  0
 11 55  1  0
 13 56  1  0
 13 57  1  0
 14 58  1  0
 14 59  1  0
 15 60  1  0
 15 61  1  0
 16 62  1  0
 16 63  1  0
 17 64  1  0
 17 65  1  0
 18 66  1  0
 18 67  1  0
 21 68  1  0
 24 69  1  0
 25 70  1  0
 27 71  1  0
 28 72  1  0
 31 73  1  0
 32 74  1  0
 35 75  1  0
 37 76  1  0
 37 77  1  0
 39 78  1  0
 41 79  1  0
 41 80  1  0
 42 81  1  0
 42 82  1  0
 45 83  1  0
M  END
$$$$
