
     RDKit          3D

 62 66  0  0  0  0  0  0  0  0999 V2000
   -3.2740    4.5464   -1.6496 C   0  0  0  0  0  0  0  0  0  0  0  0
   -2.9351    4.4363   -0.1949 C   0  0  0  0  0  0  0  0  0  0  0  0
   -3.1751    3.0082    0.3040 C   0  0  0  0  0  0  0  0  0  0  0  0
   -2.2655    2.1347   -0.5564 C   0  0  0  0  0  0  0  0  0  0  0  0
   -2.3262    0.7156   -0.2235 C   0  0  0  0  0  0  0  0  0  0  0  0
   -3.0624   -0.1467   -0.9850 N   0  0  0  0  0  0  0  0  0  0  0  0
   -3.0383   -1.3490   -0.5065 N   0  0  0  0  0  0  0  0  0  0  0  0
   -3.7214   -2.4691   -1.0947 C   0  0  0  0  0  0  0  0  0  0  0  0
   -3.3592   -2.9163   -2.3580 C   0  0  0  0  0  0  0  0  0  0  0  0
   -3.9732   -3.9796   -2.9735 C   0  0  0  0  0  0  0  0  0  0  0  0
   -4.9901   -4.6273   -2.3093 C   0  0  0  0  0  0  0  0  0  0  0  0
   -5.3644   -4.2019   -1.0614 C   0  0  0  0  0  0  0  0  0  0  0  0
   -6.6583   -5.0347   -0.2163 Cl  0  0  0  0  0  0  0  0  0  0  0  0
   -4.7382   -3.1250   -0.4446 C   0  0  0  0  0  0  0  0  0  0  0  0
   -2.2669   -1.3272    0.6156 C   0  0  0  0  0  0  0  0  0  0  0  0
   -2.0467   -2.5187    1.3941 C   0  0  0  0  0  0  0  0  0  0  0  0
   -2.5164   -3.6300    1.0532 O   0  0  0  0  0  0  0  0  0  0  0  0
   -1.3152   -2.4996    2.5514 O   0  0  0  0  0  0  0  0  0  0  0  0
   -1.8120   -0.0135    0.7935 C   0  0  0  0  0  0  0  0  0  0  0  0
   -0.9282    0.4294    1.8605 C   0  0  0  0  0  0  0  0  0  0  0  0
    0.5173    0.4728    1.6067 C   0  0  0  0  0  0  0  0  0  0  0  0
    1.1357    1.4421    0.8698 C   0  0  0  0  0  0  0  0  0  0  0  0
    2.5265    1.4686    0.6688 C   0  0  0  0  0  0  0  0  0  0  0  0
    3.3492    0.5118    1.2088 C   0  0  0  0  0  0  0  0  0  0  0  0
    4.8068    0.5401    0.9945 C   0  0  0  0  0  0  0  0  0  0  0  0
    5.6493    1.1014    1.9451 C   0  0  0  0  0  0  0  0  0  0  0  0
    7.0103    1.1699    1.7823 C   0  0  0  0  0  0  0  0  0  0  0  0
    7.5552    0.6563    0.6207 C   0  0  0  0  0  0  0  0  0  0  0  0
    6.7618    0.0918   -0.3477 C   0  0  0  0  0  0  0  0  0  0  0  0
    5.3773    0.0353   -0.1537 C   0  0  0  0  0  0  0  0  0  0  0  0
    4.5073   -0.5785   -1.1443 C   0  0  0  0  0  0  0  0  0  0  0  0
    3.2065   -0.7637   -1.0158 N   0  0  0  0  0  0  0  0  0  0  0  0
    2.7712   -1.3652   -2.1076 N   0  0  0  0  0  0  0  0  0  0  0  0
    3.8053   -1.5470   -2.9047 N   0  0  0  0  0  0  0  0  0  0  0  0
    4.8989   -1.0644   -2.3252 N   0  0  0  0  0  0  0  0  0  0  0  0
    2.7502   -0.4727    1.9544 C   0  0  0  0  0  0  0  0  0  0  0  0
    1.3858   -0.4946    2.1485 C   0  0  0  0  0  0  0  0  0  0  0  0
   -2.3813    4.2125   -2.2537 H   0  0  0  0  0  0  0  0  0  0  0  0
   -4.1140    3.8550   -1.8791 H   0  0  0  0  0  0  0  0  0  0  0  0
   -3.5531    5.5738   -1.9428 H   0  0  0  0  0  0  0  0  0  0  0  0
   -1.8519    4.6454   -0.0062 H   0  0  0  0  0  0  0  0  0  0  0  0
   -3.5541    5.1547    0.3968 H   0  0  0  0  0  0  0  0  0  0  0  0
   -2.9365    2.9996    1.3636 H   0  0  0  0  0  0  0  0  0  0  0  0
   -4.2088    2.6893    0.0570 H   0  0  0  0  0  0  0  0  0  0  0  0
   -2.6812    2.3081   -1.6064 H   0  0  0  0  0  0  0  0  0  0  0  0
   -1.2776    2.5833   -0.5899 H   0  0  0  0  0  0  0  0  0  0  0  0
   -2.5451   -2.3876   -2.8793 H   0  0  0  0  0  0  0  0  0  0  0  0
   -3.6856   -4.3263   -3.9673 H   0  0  0  0  0  0  0  0  0  0  0  0
   -5.4925   -5.4802   -2.7856 H   0  0  0  0  0  0  0  0  0  0  0  0
   -5.0632   -2.8018    0.5588 H   0  0  0  0  0  0  0  0  0  0  0  0
   -0.7740   -3.2865    2.9192 H   0  0  0  0  0  0  0  0  0  0  0  0
   -1.3117    1.4587    2.1669 H   0  0  0  0  0  0  0  0  0  0  0  0
   -1.1654   -0.2156    2.7635 H   0  0  0  0  0  0  0  0  0  0  0  0
    0.5656    2.2357    0.4346 H   0  0  0  0  0  0  0  0  0  0  0  0
    2.9676    2.2568    0.0764 H   0  0  0  0  0  0  0  0  0  0  0  0
    5.2202    1.5021    2.8558 H   0  0  0  0  0  0  0  0  0  0  0  0
    7.6218    1.6115    2.5454 H   0  0  0  0  0  0  0  0  0  0  0  0
    8.6313    0.6847    0.4412 H   0  0  0  0  0  0  0  0  0  0  0  0
    7.1496   -0.3267   -1.2842 H   0  0  0  0  0  0  0  0  0  0  0  0
    5.8655   -1.0823   -2.7531 H   0  0  0  0  0  0  0  0  0  0  0  0
    3.3979   -1.2396    2.3878 H   0  0  0  0  0  0  0  0  0  0  0  0
    0.9290   -1.2603    2.7493 H   0  0  0  0  0  0  0  0  0  0  0  0
  1  2  1  0
  2  3  1  0
  3  4  1  0
  4  5  1  0
  5  6  2  0
  6  7  1  0
  7  8  1  0
  8  9  2  0
  9 10  1  0
 10 11  2  0
 11 12  1  0
 12 13  1  0
 12 14  2  0
  7 15  1  0
 15 16  1  0
 16 17  2  0
 16 18  1  0
 15 19  2  0
 19 20  1  0
 20 21  1  0
 21 22  2  0
 22 23  1  0
 23 24  2  0
 24 25  1  0
 25 26  2  0
 26 27  1  0
 27 28  2  0
 28 29  1  0
 29 30  2  0
 30 31  1  0
 31 32  2  0
 32 33  1  0
 33 34  2  0
 34 35  1  0
 24 36  1  0
 36 37  2  0
 19  5  1  0
 37 21  1  0
 14  8  1  0
 30 25  1  0
 35 31  1  0
  1 38  1  0
  1 39  1  0
  1 40  1  0
  2 41  1  0
  2 42  1  0
  3 43  1  0
  3 44  1  0
  4 45  1  0
  4 46  1  0
  9 47  1  0
 10 48  1  0
 11 49  1  0
 14 50  1  0
 18 51  1  0
 20 52  1  0
 20 53  1  0
 22 54  1  0
 23 55  1  0
 26 56  1  0
 27 57  1  0
 28 58  1  0
 29 59  1  0
 35 60  1  0
 36 61  1  0
 37 62  1  0
M  END
$$$$
