
     RDKit          3D

 40 43  0  0  0  0  0  0  0  0999 V2000
    4.5642   -1.8008   -1.5578 O   0  0  0  0  0  0  0  0  0  0  0  0
    4.9004   -1.9685   -0.3691 C   0  0  0  0  0  0  0  0  0  0  0  0
    5.9107   -2.9019   -0.1285 O   0  0  0  0  0  0  0  0  0  0  0  0
    4.3389   -1.2869    0.7908 C   0  0  0  0  0  0  0  0  0  0  0  0
    3.2696   -0.3687    0.5254 N   0  0  0  0  0  0  0  0  0  0  0  0
    1.9667   -0.7173    0.5581 C   0  0  0  0  0  0  0  0  0  0  0  0
    1.1803    0.3773    0.2851 C   0  0  0  0  0  0  0  0  0  0  0  0
   -0.3008    0.4649    0.2516 C   0  0  0  0  0  0  0  0  0  0  0  0
   -0.8891   -0.8829   -0.0706 C   0  0  0  0  0  0  0  0  0  0  0  0
   -2.3615   -0.8408   -0.0497 C   0  0  0  0  0  0  0  0  0  0  0  0
   -3.3436   -0.6485   -0.7225 N   0  0  0  0  0  0  0  0  0  0  0  0
   -4.5897   -0.6510   -0.4200 C   0  0  0  0  0  0  0  0  0  0  0  0
   -5.7136   -0.4157   -1.2277 C   0  0  0  0  0  0  0  0  0  0  0  0
   -5.5840   -0.1415   -2.5536 F   0  0  0  0  0  0  0  0  0  0  0  0
   -6.9666   -0.4560   -0.7134 C   0  0  0  0  0  0  0  0  0  0  0  0
   -8.0240   -0.2178   -1.5469 F   0  0  0  0  0  0  0  0  0  0  0  0
   -7.2482   -0.7226    0.6041 C   0  0  0  0  0  0  0  0  0  0  0  0
   -6.1452   -0.9625    1.4367 C   0  0  0  0  0  0  0  0  0  0  0  0
   -6.3018   -1.2343    2.7505 F   0  0  0  0  0  0  0  0  0  0  0  0
   -4.9238   -0.9190    0.9157 C   0  0  0  0  0  0  0  0  0  0  0  0
   -3.2383   -1.1516    1.6028 S   0  0  0  0  0  0  0  0  0  0  0  0
    2.0498    1.4567    0.0706 C   0  0  0  0  0  0  0  0  0  0  0  0
    1.8387    2.7655   -0.2242 C   0  0  0  0  0  0  0  0  0  0  0  0
    2.9478    3.6017   -0.3654 C   0  0  0  0  0  0  0  0  0  0  0  0
    4.2435    3.0929   -0.2051 C   0  0  0  0  0  0  0  0  0  0  0  0
    4.4275    1.7655    0.0926 C   0  0  0  0  0  0  0  0  0  0  0  0
    3.3261    0.9497    0.2295 C   0  0  0  0  0  0  0  0  0  0  0  0
    6.6925   -3.0461   -0.7684 H   0  0  0  0  0  0  0  0  0  0  0  0
    5.1168   -0.8180    1.4690 H   0  0  0  0  0  0  0  0  0  0  0  0
    3.9188   -2.1002    1.4559 H   0  0  0  0  0  0  0  0  0  0  0  0
    1.5558   -1.7147    0.7703 H   0  0  0  0  0  0  0  0  0  0  0  0
   -0.6046    1.1335   -0.6110 H   0  0  0  0  0  0  0  0  0  0  0  0
   -0.7360    0.9240    1.1473 H   0  0  0  0  0  0  0  0  0  0  0  0
   -0.5424   -1.6312    0.6381 H   0  0  0  0  0  0  0  0  0  0  0  0
   -0.5987   -1.1425   -1.1060 H   0  0  0  0  0  0  0  0  0  0  0  0
   -8.2235   -0.7634    1.0431 H   0  0  0  0  0  0  0  0  0  0  0  0
    0.8337    3.1613   -0.3498 H   0  0  0  0  0  0  0  0  0  0  0  0
    2.7857    4.6283   -0.5945 H   0  0  0  0  0  0  0  0  0  0  0  0
    5.0543    3.8111   -0.3295 H   0  0  0  0  0  0  0  0  0  0  0  0
    5.4139    1.3720    0.2155 H   0  0  0  0  0  0  0  0  0  0  0  0
  1  2  2  0
  2  3  1  0
  2  4  1  0
  4  5  1  0
  5  6  1  0
  6  7  2  0
  7  8  1  0
  8  9  1  0
  9 10  1  0
 10 11  2  0
 11 12  1  0
 12 13  2  0
 13 14  1  0
 13 15  1  0
 15 16  1  0
 15 17  2  0
 17 18  1  0
 18 19  1  0
 18 20  2  0
 20 21  1  0
  7 22  1  0
 22 23  2  0
 23 24  1  0
 24 25  2  0
 25 26  1  0
 26 27  2  0
 27  5  1  0
 21 10  1  0
 27 22  1  0
 20 12  1  0
  3 28  1  0
  4 29  1  0
  4 30  1  0
  6 31  1  0
  8 32  1  0
  8 33  1  0
  9 34  1  0
  9 35  1  0
 17 36  1  0
 23 37  1  0
 24 38  1  0
 25 39  1  0
 26 40  1  0
M  END
$$$$
