
     RDKit          3D

 50 53  0  0  0  0  0  0  0  0999 V2000
   -2.3912    0.6036   -1.9933 C   0  0  2  0  0  0  0  0  0  0  0  0
   -3.7422    0.4835   -2.5097 N   0  0  0  0  0  0  0  0  0  0  0  0
   -1.6087   -0.6778   -2.2091 C   0  0  0  0  0  0  0  0  0  0  0  0
   -0.3323   -0.5989   -1.7244 O   0  0  0  0  0  0  0  0  0  0  0  0
    0.7321    0.1642   -2.0075 C   0  0  0  0  0  0  0  0  0  0  0  0
    0.9901    1.1593   -2.8930 C   0  0  0  0  0  0  0  0  0  0  0  0
    2.1482    1.8014   -3.0077 N   0  0  0  0  0  0  0  0  0  0  0  0
    3.1825    1.4853   -2.2121 C   0  0  0  0  0  0  0  0  0  0  0  0
    3.0491    0.4738   -1.2529 C   0  0  0  0  0  0  0  0  0  0  0  0
    4.1904    0.1522   -0.4040 C   0  0  0  0  0  0  0  0  0  0  0  0
    4.3081   -0.7406    0.5423 C   0  0  0  0  0  0  0  0  0  0  0  0
    5.4793   -1.0212    1.3644 C   0  0  0  0  0  0  0  0  0  0  0  0
    6.6746   -0.3445    1.2499 C   0  0  0  0  0  0  0  0  0  0  0  0
    7.7951   -0.5942    2.0151 C   0  0  0  0  0  0  0  0  0  0  0  0
    7.7214   -1.5700    2.9441 N   0  0  0  0  0  0  0  0  0  0  0  0
    6.5583   -2.2559    3.0826 C   0  0  0  0  0  0  0  0  0  0  0  0
    5.4346   -2.0110    2.3207 C   0  0  0  0  0  0  0  0  0  0  0  0
    1.8166   -0.1443   -1.1970 C   0  0  0  0  0  0  0  0  0  0  0  0
   -2.3172    1.0742   -0.5728 C   0  0  0  0  0  0  0  0  0  0  0  0
   -2.9843    0.2319    0.4144 C   0  0  0  0  0  0  0  0  0  0  0  0
   -2.3412   -0.6659    1.2513 C   0  0  0  0  0  0  0  0  0  0  0  0
   -3.2353   -1.3109    2.0504 N   0  0  0  0  0  0  0  0  0  0  0  0
   -4.4812   -0.8502    1.7549 C   0  0  0  0  0  0  0  0  0  0  0  0
   -4.3096    0.0895    0.7558 C   0  0  0  0  0  0  0  0  0  0  0  0
   -5.4399    0.7163    0.2782 C   0  0  0  0  0  0  0  0  0  0  0  0
   -6.7153    0.4562    0.7400 C   0  0  0  0  0  0  0  0  0  0  0  0
   -6.8731   -0.4840    1.7370 C   0  0  0  0  0  0  0  0  0  0  0  0
   -5.7506   -1.1372    2.2442 C   0  0  0  0  0  0  0  0  0  0  0  0
   -1.9150    1.3912   -2.6085 H   0  0  0  0  0  0  0  0  0  0  0  0
   -3.9126    1.0688   -3.3307 H   0  0  0  0  0  0  0  0  0  0  0  0
   -4.0554   -0.5035   -2.6042 H   0  0  0  0  0  0  0  0  0  0  0  0
   -1.6471   -0.9159   -3.3173 H   0  0  0  0  0  0  0  0  0  0  0  0
   -2.1722   -1.5565   -1.7685 H   0  0  0  0  0  0  0  0  0  0  0  0
    0.1924    1.4307   -3.5503 H   0  0  0  0  0  0  0  0  0  0  0  0
    4.1229    2.0094   -2.3083 H   0  0  0  0  0  0  0  0  0  0  0  0
    5.1117    0.7343   -0.5589 H   0  0  0  0  0  0  0  0  0  0  0  0
    3.4139   -1.3274    0.7162 H   0  0  0  0  0  0  0  0  0  0  0  0
    6.7910    0.4449    0.5250 H   0  0  0  0  0  0  0  0  0  0  0  0
    8.7150   -0.0511    1.9053 H   0  0  0  0  0  0  0  0  0  0  0  0
    6.5486   -3.0417    3.8549 H   0  0  0  0  0  0  0  0  0  0  0  0
    4.5412   -2.5865    2.4743 H   0  0  0  0  0  0  0  0  0  0  0  0
    1.8095   -0.9213   -0.4170 H   0  0  0  0  0  0  0  0  0  0  0  0
   -1.2637    1.2863   -0.3525 H   0  0  0  0  0  0  0  0  0  0  0  0
   -2.8184    2.0875   -0.5576 H   0  0  0  0  0  0  0  0  0  0  0  0
   -1.2978   -0.8958    1.3366 H   0  0  0  0  0  0  0  0  0  0  0  0
   -3.0466   -2.0379    2.7757 H   0  0  0  0  0  0  0  0  0  0  0  0
   -5.3593    1.4534   -0.4892 H   0  0  0  0  0  0  0  0  0  0  0  0
   -7.5985    0.9467    0.3651 H   0  0  0  0  0  0  0  0  0  0  0  0
   -7.8756   -0.7059    2.1192 H   0  0  0  0  0  0  0  0  0  0  0  0
   -5.8424   -1.8805    3.0288 H   0  0  0  0  0  0  0  0  0  0  0  0
  1  2  1  0
  1  3  1  0
  3  4  1  0
  4  5  1  0
  5  6  2  0
  6  7  1  0
  7  8  2  0
  8  9  1  0
  9 10  1  0
 10 11  2  0
 11 12  1  0
 12 13  2  0
 13 14  1  0
 14 15  2  0
 15 16  1  0
 16 17  2  0
  9 18  2  0
  1 19  1  0
 19 20  1  0
 20 21  2  0
 21 22  1  0
 22 23  1  0
 23 24  2  0
 24 25  1  0
 25 26  2  0
 26 27  1  0
 27 28  2  0
 18  5  1  0
 24 20  1  0
 17 12  1  0
 28 23  1  0
  1 29  1  6
  2 30  1  0
  2 31  1  0
  3 32  1  0
  3 33  1  0
  6 34  1  0
  8 35  1  0
 10 36  1  0
 11 37  1  0
 13 38  1  0
 14 39  1  0
 16 40  1  0
 17 41  1  0
 18 42  1  0
 19 43  1  0
 19 44  1  0
 21 45  1  0
 22 46  1  0
 25 47  1  0
 26 48  1  0
 27 49  1  0
 28 50  1  0
M  END
$$$$
