
     RDKit          3D

 28 29  0  0  0  0  0  0  0  0999 V2000
   -2.1940   -0.0544    0.3914 C   0  0  1  0  0  0  0  0  0  0  0  0
   -2.4852    0.3278   -0.9557 N   0  0  0  0  0  0  0  0  0  0  0  0
   -0.8154    0.4443    0.7385 C   0  0  0  0  0  0  0  0  0  0  0  0
    0.1522   -0.1744   -0.2012 C   0  0  0  0  0  0  0  0  0  0  0  0
    0.0593   -1.0566   -1.2609 C   0  0  0  0  0  0  0  0  0  0  0  0
    1.2873   -1.2846   -1.7730 N   0  0  0  0  0  0  0  0  0  0  0  0
    2.1721   -0.5752   -1.0749 C   0  0  0  0  0  0  0  0  0  0  0  0
    1.5039    0.1292   -0.0876 C   0  0  0  0  0  0  0  0  0  0  0  0
    2.2682    0.9233    0.7368 C   0  0  0  0  0  0  0  0  0  0  0  0
    3.6430    1.0309    0.6066 C   0  0  0  0  0  0  0  0  0  0  0  0
    4.3157    0.3303   -0.3770 C   0  0  0  0  0  0  0  0  0  0  0  0
    3.5419   -0.4698   -1.2069 C   0  0  0  0  0  0  0  0  0  0  0  0
   -3.2090    0.3302    1.3770 C   0  0  0  0  0  0  0  0  0  0  0  0
   -4.4540    1.0177    1.2914 N   0  0  0  0  0  0  0  0  0  0  0  0
   -2.9612   -0.0039    2.5766 O   0  0  0  0  0  0  0  0  0  0  0  0
   -2.1257   -1.1763    0.4073 H   0  0  0  0  0  0  0  0  0  0  0  0
   -3.1558   -0.3073   -1.4387 H   0  0  0  0  0  0  0  0  0  0  0  0
   -2.7063    1.3314   -1.0781 H   0  0  0  0  0  0  0  0  0  0  0  0
   -0.7796    1.5526    0.7064 H   0  0  0  0  0  0  0  0  0  0  0  0
   -0.6143    0.1505    1.8064 H   0  0  0  0  0  0  0  0  0  0  0  0
   -0.9223   -1.4308   -1.5311 H   0  0  0  0  0  0  0  0  0  0  0  0
    1.4080   -1.9333   -2.5883 H   0  0  0  0  0  0  0  0  0  0  0  0
    1.7791    1.4822    1.5124 H   0  0  0  0  0  0  0  0  0  0  0  0
    4.1708    1.6858    1.3060 H   0  0  0  0  0  0  0  0  0  0  0  0
    5.3737    0.4256   -0.4619 H   0  0  0  0  0  0  0  0  0  0  0  0
    4.0685   -1.0169   -1.9752 H   0  0  0  0  0  0  0  0  0  0  0  0
   -5.1753    0.2848    1.2656 H   0  0  0  0  0  0  0  0  0  0  0  0
   -4.1455    2.0146    1.2881 H   0  0  0  0  0  0  0  0  0  0  0  0
  1  2  1  0
  1  3  1  0
  3  4  1  0
  4  5  2  0
  5  6  1  0
  6  7  1  0
  7  8  2  0
  8  9  1  0
  9 10  2  0
 10 11  1  0
 11 12  2  0
  1 13  1  0
 13 14  1  0
 13 15  2  0
  8  4  1  0
 12  7  1  0
  1 16  1  6
  2 17  1  0
  2 18  1  0
  3 19  1  0
  3 20  1  0
  5 21  1  0
  6 22  1  0
  9 23  1  0
 10 24  1  0
 11 25  1  0
 12 26  1  0
 14 27  1  0
 14 28  1  0
M  END
$$$$
