
     RDKit          3D

 48 50  0  0  0  0  0  0  0  0999 V2000
   -7.3866   -0.7068   -1.0568 O   0  0  0  0  0  0  0  0  0  0  0  0
   -6.2497   -1.1384   -0.4192 N   0  0  0  0  0  0  0  0  0  0  0  0
   -5.0219   -0.3856   -0.5214 C   0  0  0  0  0  0  0  0  0  0  0  0
   -5.3050    0.5986   -1.2490 O   0  0  0  0  0  0  0  0  0  0  0  0
   -3.9635   -1.0484    0.2414 C   0  0  0  0  0  0  0  0  0  0  0  0
   -2.6212   -0.3292    0.1915 C   0  0  0  0  0  0  0  0  0  0  0  0
   -2.0585   -0.1889   -1.1780 C   0  0  0  0  0  0  0  0  0  0  0  0
   -2.2993    1.0988   -1.8739 C   0  0  0  0  0  0  0  0  0  0  0  0
   -2.6387    2.1694   -1.0900 O   0  0  0  0  0  0  0  0  0  0  0  0
   -2.0594    2.1048    0.1741 C   0  0  0  0  0  0  0  0  0  0  0  0
   -2.6958    0.9749    0.9138 C   0  0  0  0  0  0  0  0  0  0  0  0
   -1.5422   -1.3777    1.1775 S   0  0  0  0  0  0  0  0  0  0  0  0
   -2.1579   -1.4647    2.5364 O   0  0  0  0  0  0  0  0  0  0  0  0
   -1.5269   -2.7387    0.5786 O   0  0  0  0  0  0  0  0  0  0  0  0
    0.0677   -0.7783    1.2823 C   0  0  0  0  0  0  0  0  0  0  0  0
    0.5360    0.0894    2.2497 C   0  0  0  0  0  0  0  0  0  0  0  0
    1.8077    0.5775    2.3536 C   0  0  0  0  0  0  0  0  0  0  0  0
    2.7326    0.1782    1.4105 C   0  0  0  0  0  0  0  0  0  0  0  0
    4.0233    0.6625    1.5009 O   0  0  0  0  0  0  0  0  0  0  0  0
    5.0377    0.3428    0.6259 C   0  0  0  0  0  0  0  0  0  0  0  0
    5.9065   -0.7109    0.7611 C   0  0  0  0  0  0  0  0  0  0  0  0
    6.8590   -0.8711   -0.2191 C   0  0  0  0  0  0  0  0  0  0  0  0
    6.9343   -0.0088   -1.2892 C   0  0  0  0  0  0  0  0  0  0  0  0
    8.2101   -0.3730   -2.4325 Cl  0  0  0  0  0  0  0  0  0  0  0  0
    6.0651    1.0545   -1.4349 C   0  0  0  0  0  0  0  0  0  0  0  0
    5.1010    1.2203   -0.4466 C   0  0  0  0  0  0  0  0  0  0  0  0
    2.3558   -0.6883    0.4048 C   0  0  0  0  0  0  0  0  0  0  0  0
    1.0542   -1.1435    0.3584 C   0  0  0  0  0  0  0  0  0  0  0  0
   -7.4388    0.2737   -0.8847 H   0  0  0  0  0  0  0  0  0  0  0  0
   -6.5246   -2.0281    0.0715 H   0  0  0  0  0  0  0  0  0  0  0  0
   -4.2150   -1.1338    1.3156 H   0  0  0  0  0  0  0  0  0  0  0  0
   -3.7872   -2.1010   -0.1253 H   0  0  0  0  0  0  0  0  0  0  0  0
   -0.9453   -0.3460   -1.0950 H   0  0  0  0  0  0  0  0  0  0  0  0
   -2.3930   -1.0008   -1.8614 H   0  0  0  0  0  0  0  0  0  0  0  0
   -1.3511    1.3945   -2.4160 H   0  0  0  0  0  0  0  0  0  0  0  0
   -3.0350    0.9927   -2.7266 H   0  0  0  0  0  0  0  0  0  0  0  0
   -0.9523    2.0091    0.1235 H   0  0  0  0  0  0  0  0  0  0  0  0
   -2.2889    3.0446    0.7002 H   0  0  0  0  0  0  0  0  0  0  0  0
   -3.7667    1.2523    1.1000 H   0  0  0  0  0  0  0  0  0  0  0  0
   -2.2387    0.9602    1.9397 H   0  0  0  0  0  0  0  0  0  0  0  0
   -0.1591    0.4242    3.0059 H   0  0  0  0  0  0  0  0  0  0  0  0
    2.0920    1.2605    3.1518 H   0  0  0  0  0  0  0  0  0  0  0  0
    5.7466   -1.3190    1.6460 H   0  0  0  0  0  0  0  0  0  0  0  0
    7.5271   -1.7274   -0.0630 H   0  0  0  0  0  0  0  0  0  0  0  0
    6.2006    1.6755   -2.3045 H   0  0  0  0  0  0  0  0  0  0  0  0
    4.4467    2.0660   -0.6076 H   0  0  0  0  0  0  0  0  0  0  0  0
    3.0852   -0.9978   -0.3317 H   0  0  0  0  0  0  0  0  0  0  0  0
    0.8328   -1.8191   -0.4560 H   0  0  0  0  0  0  0  0  0  0  0  0
  1  2  1  0
  2  3  1  0
  3  4  2  0
  3  5  1  0
  5  6  1  0
  6  7  1  0
  7  8  1  0
  8  9  1  0
  9 10  1  0
 10 11  1  0
  6 12  1  0
 12 13  2  0
 12 14  2  0
 12 15  1  0
 15 16  2  0
 16 17  1  0
 17 18  2  0
 18 19  1  0
 19 20  1  0
 20 21  2  0
 21 22  1  0
 22 23  2  0
 23 24  1  0
 23 25  1  0
 25 26  2  0
 18 27  1  0
 27 28  2  0
 11  6  1  0
 28 15  1  0
 26 20  1  0
  1 29  1  0
  2 30  1  0
  5 31  1  0
  5 32  1  0
  7 33  1  0
  7 34  1  0
  8 35  1  0
  8 36  1  0
 10 37  1  0
 10 38  1  0
 11 39  1  0
 11 40  1  0
 16 41  1  0
 17 42  1  0
 21 43  1  0
 22 44  1  0
 25 45  1  0
 26 46  1  0
 27 47  1  0
 28 48  1  0
M  END
$$$$
