
     RDKit          3D

 68 72  0  0  0  0  0  0  0  0999 V2000
   -4.1687    2.9336    3.7128 C   0  0  0  0  0  0  0  0  0  0  0  0
   -3.5145    1.6156    3.3655 C   0  0  0  0  0  0  0  0  0  0  0  0
   -1.9979    1.7557    3.3484 C   0  0  0  0  0  0  0  0  0  0  0  0
   -1.3406    0.4384    3.0097 C   0  0  0  0  0  0  0  0  0  0  0  0
   -1.7875   -0.0118    1.6695 C   0  0  0  0  0  0  0  0  0  0  0  0
   -2.7684   -0.9543    1.4862 N   0  0  0  0  0  0  0  0  0  0  0  0
   -2.9842   -1.1564    0.2050 N   0  0  0  0  0  0  0  0  0  0  0  0
   -3.9419   -2.0778   -0.3567 C   0  0  0  0  0  0  0  0  0  0  0  0
   -3.5599   -3.3080   -0.8408 C   0  0  0  0  0  0  0  0  0  0  0  0
   -4.4561   -4.1868   -1.3666 C   0  0  0  0  0  0  0  0  0  0  0  0
   -5.7949   -3.8022   -1.4025 C   0  0  0  0  0  0  0  0  0  0  0  0
   -6.9336   -4.9338   -2.0759 Cl  0  0  0  0  0  0  0  0  0  0  0  0
   -6.1962   -2.5806   -0.9254 C   0  0  0  0  0  0  0  0  0  0  0  0
   -5.2687   -1.7230   -0.4046 C   0  0  0  0  0  0  0  0  0  0  0  0
   -5.8413   -0.1735    0.1918 Cl  0  0  0  0  0  0  0  0  0  0  0  0
   -2.1726   -0.3735   -0.5243 C   0  0  0  0  0  0  0  0  0  0  0  0
   -2.1129   -0.3091   -1.9750 C   0  0  0  0  0  0  0  0  0  0  0  0
   -2.9025   -1.0681   -2.6307 O   0  0  0  0  0  0  0  0  0  0  0  0
   -1.2955    0.4829   -2.7242 O   0  0  0  0  0  0  0  0  0  0  0  0
   -1.2554    0.5256   -4.1382 C   0  0  0  0  0  0  0  0  0  0  0  0
   -2.6298    0.9344   -4.6194 C   0  0  0  0  0  0  0  0  0  0  0  0
   -1.4129    0.3524    0.4021 C   0  0  0  0  0  0  0  0  0  0  0  0
   -0.3777    1.3263    0.0599 C   0  0  0  0  0  0  0  0  0  0  0  0
    1.0086    0.8696    0.1992 C   0  0  0  0  0  0  0  0  0  0  0  0
    1.6250    0.0210   -0.7080 C   0  0  0  0  0  0  0  0  0  0  0  0
    2.9353   -0.3700   -0.5405 C   0  0  0  0  0  0  0  0  0  0  0  0
    3.7048    0.0511    0.5230 C   0  0  0  0  0  0  0  0  0  0  0  0
    5.0846   -0.3838    0.6980 C   0  0  0  0  0  0  0  0  0  0  0  0
    5.4220   -1.2104    1.7784 C   0  0  0  0  0  0  0  0  0  0  0  0
    6.6971   -1.6543    1.9766 C   0  0  0  0  0  0  0  0  0  0  0  0
    7.7059   -1.2823    1.0858 C   0  0  0  0  0  0  0  0  0  0  0  0
    7.3662   -0.4746    0.0347 C   0  0  0  0  0  0  0  0  0  0  0  0
    6.0600   -0.0075   -0.1858 C   0  0  0  0  0  0  0  0  0  0  0  0
    5.7647    0.8602   -1.3008 C   0  0  0  0  0  0  0  0  0  0  0  0
    4.6328    1.4648   -1.6440 N   0  0  0  0  0  0  0  0  0  0  0  0
    4.7997    2.1874   -2.7421 N   0  0  0  0  0  0  0  0  0  0  0  0
    6.0631    2.0433   -3.1104 N   0  0  0  0  0  0  0  0  0  0  0  0
    6.6702    1.2301   -2.2340 N   0  0  0  0  0  0  0  0  0  0  0  0
    3.0987    0.8948    1.4274 C   0  0  0  0  0  0  0  0  0  0  0  0
    1.7909    1.2829    1.2575 C   0  0  0  0  0  0  0  0  0  0  0  0
   -3.3884    3.5536    4.2333 H   0  0  0  0  0  0  0  0  0  0  0  0
   -4.9694    2.7896    4.4661 H   0  0  0  0  0  0  0  0  0  0  0  0
   -4.5507    3.4695    2.8264 H   0  0  0  0  0  0  0  0  0  0  0  0
   -3.8089    0.8579    4.1084 H   0  0  0  0  0  0  0  0  0  0  0  0
   -3.9094    1.2804    2.3762 H   0  0  0  0  0  0  0  0  0  0  0  0
   -1.7336    2.5839    2.7093 H   0  0  0  0  0  0  0  0  0  0  0  0
   -1.7347    2.0744    4.3986 H   0  0  0  0  0  0  0  0  0  0  0  0
   -0.2560    0.5790    3.0852 H   0  0  0  0  0  0  0  0  0  0  0  0
   -1.6503   -0.3490    3.7428 H   0  0  0  0  0  0  0  0  0  0  0  0
   -2.4890   -3.5791   -0.7967 H   0  0  0  0  0  0  0  0  0  0  0  0
   -4.1272   -5.1489   -1.7399 H   0  0  0  0  0  0  0  0  0  0  0  0
   -7.2310   -2.3021   -0.9611 H   0  0  0  0  0  0  0  0  0  0  0  0
   -0.4761    1.2293   -4.5027 H   0  0  0  0  0  0  0  0  0  0  0  0
   -1.0548   -0.4942   -4.5443 H   0  0  0  0  0  0  0  0  0  0  0  0
   -2.5655    1.5455   -5.5576 H   0  0  0  0  0  0  0  0  0  0  0  0
   -3.2191    0.0134   -4.7739 H   0  0  0  0  0  0  0  0  0  0  0  0
   -3.1270    1.5392   -3.8157 H   0  0  0  0  0  0  0  0  0  0  0  0
   -0.4737    1.7145   -0.9869 H   0  0  0  0  0  0  0  0  0  0  0  0
   -0.4995    2.2121    0.7503 H   0  0  0  0  0  0  0  0  0  0  0  0
    1.0336   -0.3150   -1.5451 H   0  0  0  0  0  0  0  0  0  0  0  0
    3.4038   -1.0410   -1.2723 H   0  0  0  0  0  0  0  0  0  0  0  0
    4.6318   -1.4830    2.4478 H   0  0  0  0  0  0  0  0  0  0  0  0
    6.8849   -2.2920    2.8351 H   0  0  0  0  0  0  0  0  0  0  0  0
    8.7010   -1.6487    1.2695 H   0  0  0  0  0  0  0  0  0  0  0  0
    8.1441   -0.1739   -0.6712 H   0  0  0  0  0  0  0  0  0  0  0  0
    7.6705    0.9796   -2.3334 H   0  0  0  0  0  0  0  0  0  0  0  0
    3.7223    1.2188    2.2645 H   0  0  0  0  0  0  0  0  0  0  0  0
    1.3565    1.9580    2.0056 H   0  0  0  0  0  0  0  0  0  0  0  0
  1  2  1  0
  2  3  1  0
  3  4  1  0
  4  5  1  0
  5  6  2  0
  6  7  1  0
  7  8  1  0
  8  9  2  0
  9 10  1  0
 10 11  2  0
 11 12  1  0
 11 13  1  0
 13 14  2  0
 14 15  1  0
  7 16  1  0
 16 17  1  0
 17 18  2  0
 17 19  1  0
 19 20  1  0
 20 21  1  0
 16 22  2  0
 22 23  1  0
 23 24  1  0
 24 25  2  0
 25 26  1  0
 26 27  2  0
 27 28  1  0
 28 29  2  0
 29 30  1  0
 30 31  2  0
 31 32  1  0
 32 33  2  0
 33 34  1  0
 34 35  2  0
 35 36  1  0
 36 37  2  0
 37 38  1  0
 27 39  1  0
 39 40  2  0
 22  5  1  0
 40 24  1  0
 14  8  1  0
 33 28  1  0
 38 34  1  0
  1 41  1  0
  1 42  1  0
  1 43  1  0
  2 44  1  0
  2 45  1  0
  3 46  1  0
  3 47  1  0
  4 48  1  0
  4 49  1  0
  9 50  1  0
 10 51  1  0
 13 52  1  0
 20 53  1  0
 20 54  1  0
 21 55  1  0
 21 56  1  0
 21 57  1  0
 23 58  1  0
 23 59  1  0
 25 60  1  0
 26 61  1  0
 29 62  1  0
 30 63  1  0
 31 64  1  0
 32 65  1  0
 38 66  1  0
 39 67  1  0
 40 68  1  0
M  END
$$$$
