
     RDKit          3D

 37 39  0  0  0  0  0  0  0  0999 V2000
   -5.5056   -0.0173   -2.3313 O   0  0  0  0  0  0  0  0  0  0  0  0
   -4.3008    0.2143   -2.0913 C   0  0  0  0  0  0  0  0  0  0  0  0
   -3.4586    0.5269   -3.1383 O   0  0  0  0  0  0  0  0  0  0  0  0
   -3.8439    0.1423   -0.7134 C   0  0  0  0  0  0  0  0  0  0  0  0
   -4.6967   -0.1716    0.3240 C   0  0  0  0  0  0  0  0  0  0  0  0
   -4.2395   -0.2359    1.6404 C   0  0  0  0  0  0  0  0  0  0  0  0
   -2.9137    0.0162    1.9270 C   0  0  0  0  0  0  0  0  0  0  0  0
   -2.0361    0.3336    0.9050 C   0  0  0  0  0  0  0  0  0  0  0  0
   -0.3388    0.6635    1.2268 S   0  0  0  0  0  6  0  0  0  0  0  0
   -0.2061    1.3649    2.5692 O   0  0  0  0  0  0  0  0  0  0  0  0
    0.1072    1.6739    0.1957 O   0  0  0  0  0  0  0  0  0  0  0  0
    0.6157   -0.7589    1.1737 N   0  0  0  0  0  0  0  0  0  0  0  0
    0.5413   -1.3259   -0.1309 C   0  0  0  0  0  0  0  0  0  0  0  0
    1.8798   -1.7873   -0.6643 C   0  0  0  0  0  0  0  0  0  0  0  0
    2.8215   -0.6120   -0.6069 C   0  0  0  0  0  0  0  0  0  0  0  0
    3.6046   -0.2367   -1.6548 C   0  0  0  0  0  0  0  0  0  0  0  0
    4.4446    0.8714   -1.4976 C   0  0  0  0  0  0  0  0  0  0  0  0
    5.5522    1.4278   -2.9332 Br  0  0  0  0  0  0  0  0  0  0  0  0
    4.4442    1.5390   -0.2845 C   0  0  0  0  0  0  0  0  0  0  0  0
    3.6474    1.1398    0.7505 C   0  0  0  0  0  0  0  0  0  0  0  0
    2.8272    0.0635    0.6074 C   0  0  0  0  0  0  0  0  0  0  0  0
    1.9247   -0.4584    1.6556 C   0  0  0  0  0  0  0  0  0  0  0  0
   -2.5119    0.3888   -0.3709 C   0  0  0  0  0  0  0  0  0  0  0  0
   -3.7806    0.7979   -4.0601 H   0  0  0  0  0  0  0  0  0  0  0  0
   -5.7379   -0.3675    0.0817 H   0  0  0  0  0  0  0  0  0  0  0  0
   -4.9680   -0.4894    2.4084 H   0  0  0  0  0  0  0  0  0  0  0  0
   -2.5675   -0.0332    2.9298 H   0  0  0  0  0  0  0  0  0  0  0  0
   -0.1535   -2.1708   -0.1344 H   0  0  0  0  0  0  0  0  0  0  0  0
    0.1575   -0.5756   -0.8640 H   0  0  0  0  0  0  0  0  0  0  0  0
    2.2701   -2.6169   -0.0758 H   0  0  0  0  0  0  0  0  0  0  0  0
    1.7471   -2.0040   -1.7430 H   0  0  0  0  0  0  0  0  0  0  0  0
    3.5661   -0.7932   -2.5805 H   0  0  0  0  0  0  0  0  0  0  0  0
    5.1117    2.3904   -0.2125 H   0  0  0  0  0  0  0  0  0  0  0  0
    3.6518    1.6685    1.7008 H   0  0  0  0  0  0  0  0  0  0  0  0
    2.3810   -1.4270    2.0070 H   0  0  0  0  0  0  0  0  0  0  0  0
    1.8390    0.2236    2.5246 H   0  0  0  0  0  0  0  0  0  0  0  0
   -1.8754    0.6350   -1.2345 H   0  0  0  0  0  0  0  0  0  0  0  0
  1  2  2  0
  2  3  1  0
  2  4  1  0
  4  5  2  0
  5  6  1  0
  6  7  2  0
  7  8  1  0
  8  9  1  0
  9 10  2  0
  9 11  2  0
  9 12  1  0
 12 13  1  0
 13 14  1  0
 14 15  1  0
 15 16  2  0
 16 17  1  0
 17 18  1  0
 17 19  2  0
 19 20  1  0
 20 21  2  0
 21 22  1  0
  8 23  2  0
 23  4  1  0
 22 12  1  0
 21 15  1  0
  3 24  1  0
  5 25  1  0
  6 26  1  0
  7 27  1  0
 13 28  1  0
 13 29  1  0
 14 30  1  0
 14 31  1  0
 16 32  1  0
 19 33  1  0
 20 34  1  0
 22 35  1  0
 22 36  1  0
 23 37  1  0
M  END
$$$$
