
     RDKit          3D

 45 49  0  0  0  0  0  0  0  0999 V2000
   -3.3993   -2.4995   -3.0275 N   0  0  0  0  0  0  0  0  0  0  0  0
   -4.0791   -1.7115   -2.5228 C   0  0  0  0  0  0  0  0  0  0  0  0
   -4.9377   -0.7242   -1.8810 C   0  0  0  0  0  0  0  0  0  0  0  0
   -5.9547   -0.1815   -2.6207 C   0  0  0  0  0  0  0  0  0  0  0  0
   -6.7971    0.7527   -2.0692 C   0  0  0  0  0  0  0  0  0  0  0  0
   -6.6094    1.1434   -0.7546 C   0  0  0  0  0  0  0  0  0  0  0  0
   -5.5939    0.6109    0.0056 C   0  0  0  0  0  0  0  0  0  0  0  0
   -4.7625   -0.3271   -0.5758 C   0  0  0  0  0  0  0  0  0  0  0  0
   -3.6795   -0.9036    0.2209 C   0  0  0  0  0  0  0  0  0  0  0  0
   -2.3973   -1.0268   -0.2664 C   0  0  0  0  0  0  0  0  0  0  0  0
   -1.3681   -1.5690    0.4616 C   0  0  0  0  0  0  0  0  0  0  0  0
   -1.5744   -2.0228    1.7366 C   0  0  0  0  0  0  0  0  0  0  0  0
   -0.4749   -2.6294    2.5454 C   0  0  0  0  0  0  0  0  0  0  0  0
    0.3635   -1.2718    3.4075 S   0  0  0  0  0  0  0  0  0  0  0  0
    1.2317   -0.2207    2.2419 C   0  0  0  0  0  0  0  0  0  0  0  0
    0.7724    0.8593    1.5945 N   0  0  0  0  0  0  0  0  0  0  0  0
    1.7636    1.3139    0.8392 N   0  0  0  0  0  0  0  0  0  0  0  0
    2.8477    0.5368    0.9981 C   0  0  0  0  0  0  0  0  0  0  0  0
    4.1570    0.6623    0.3677 C   0  0  0  0  0  0  0  0  0  0  0  0
    5.1172   -0.2670    0.7087 C   0  0  0  0  0  0  0  0  0  0  0  0
    6.3619   -0.1792    0.1313 C   0  0  0  0  0  0  0  0  0  0  0  0
    6.6769    0.8099   -0.7776 C   0  0  0  0  0  0  0  0  0  0  0  0
    5.7079    1.7534   -1.1264 C   0  0  0  0  0  0  0  0  0  0  0  0
    4.4598    1.6508   -0.5357 C   0  0  0  0  0  0  0  0  0  0  0  0
    6.3197    2.5909   -2.0372 O   0  0  0  0  0  0  0  0  0  0  0  0
    7.7355    2.4264   -1.8876 C   0  0  0  0  0  0  0  0  0  0  0  0
    7.8624    1.0685   -1.4657 O   0  0  0  0  0  0  0  0  0  0  0  0
    2.4765   -0.3938    1.8687 O   0  0  0  0  0  0  0  0  0  0  0  0
   -2.8581   -1.9121    2.2574 C   0  0  0  0  0  0  0  0  0  0  0  0
   -3.8734   -1.3648    1.5077 C   0  0  0  0  0  0  0  0  0  0  0  0
   -6.0898   -0.5025   -3.6623 H   0  0  0  0  0  0  0  0  0  0  0  0
   -7.6072    1.1770   -2.6798 H   0  0  0  0  0  0  0  0  0  0  0  0
   -7.2745    1.8821   -0.3147 H   0  0  0  0  0  0  0  0  0  0  0  0
   -5.4563    0.9318    1.0487 H   0  0  0  0  0  0  0  0  0  0  0  0
   -2.2418   -0.6590   -1.2810 H   0  0  0  0  0  0  0  0  0  0  0  0
   -0.3868   -1.6417    0.0353 H   0  0  0  0  0  0  0  0  0  0  0  0
   -0.9103   -3.3536    3.2286 H   0  0  0  0  0  0  0  0  0  0  0  0
    0.2630   -3.1583    1.8884 H   0  0  0  0  0  0  0  0  0  0  0  0
    4.8906   -1.0659    1.4317 H   0  0  0  0  0  0  0  0  0  0  0  0
    7.0865   -0.9462    0.4406 H   0  0  0  0  0  0  0  0  0  0  0  0
    3.6980    2.3657   -0.7878 H   0  0  0  0  0  0  0  0  0  0  0  0
    8.1279    3.0736   -1.0734 H   0  0  0  0  0  0  0  0  0  0  0  0
    8.2830    2.5193   -2.8284 H   0  0  0  0  0  0  0  0  0  0  0  0
   -3.0101   -2.2768    3.2730 H   0  0  0  0  0  0  0  0  0  0  0  0
   -4.8662   -1.2897    1.9366 H   0  0  0  0  0  0  0  0  0  0  0  0
  1  2  3  0
  2  3  1  0
  3  4  2  0
  4  5  1  0
  5  6  2  0
  6  7  1  0
  7  8  2  0
  8  9  1  0
  9 10  2  0
 10 11  1  0
 11 12  2  0
 12 13  1  0
 13 14  1  0
 14 15  1  0
 15 16  2  0
 16 17  1  0
 17 18  2  0
 18 19  1  0
 19 20  2  0
 20 21  1  0
 21 22  2  0
 22 23  1  0
 23 24  2  0
 23 25  1  0
 25 26  1  0
 26 27  1  0
 18 28  1  0
 12 29  1  0
 29 30  2  0
  8  3  1  0
 30  9  1  0
 28 15  1  0
 24 19  1  0
 27 22  1  0
  4 31  1  0
  5 32  1  0
  6 33  1  0
  7 34  1  0
 10 35  1  0
 11 36  1  0
 13 37  1  0
 13 38  1  0
 20 39  1  0
 21 40  1  0
 24 41  1  0
 26 42  1  0
 26 43  1  0
 29 44  1  0
 30 45  1  0
M  END
$$$$
