
     RDKit          3D

 44 47  0  0  0  0  0  0  0  0999 V2000
   -2.3909    1.0449   -2.8691 O   0  0  0  0  0  0  0  0  0  0  0  0
   -1.0975    1.1382   -2.3741 C   0  0  0  0  0  0  0  0  0  0  0  0
   -0.3418    2.2237   -2.7971 C   0  0  0  0  0  0  0  0  0  0  0  0
    0.9551    2.4372   -2.3839 C   0  0  0  0  0  0  0  0  0  0  0  0
    1.5298    1.5212   -1.5027 C   0  0  0  0  0  0  0  0  0  0  0  0
    2.7546    1.4902   -0.9524 N   0  0  0  0  0  0  0  0  0  0  0  0
    2.7773    0.3758   -0.1732 C   0  0  0  0  0  0  0  0  0  0  0  0
    3.9222   -0.0464    0.6133 C   0  0  0  0  0  0  0  0  0  0  0  0
    3.8458   -1.2025    1.3830 C   0  0  0  0  0  0  0  0  0  0  0  0
    4.9629   -1.5637    2.1141 C   0  0  0  0  0  0  0  0  0  0  0  0
    6.1320   -0.8361    2.1120 C   0  0  0  0  0  0  0  0  0  0  0  0
    6.1861    0.3048    1.3433 C   0  0  0  0  0  0  0  0  0  0  0  0
    5.0701    0.6749    0.6062 C   0  0  0  0  0  0  0  0  0  0  0  0
    1.5786   -0.2401   -0.2657 N   0  0  0  0  0  0  0  0  0  0  0  0
    0.7698    0.4455   -1.0882 C   0  0  0  0  0  0  0  0  0  0  0  0
   -0.5363    0.2296   -1.5039 C   0  0  0  0  0  0  0  0  0  0  0  0
   -1.3358   -0.9219   -1.0558 C   0  0  0  0  0  0  0  0  0  0  0  0
   -2.2994   -0.6840   -0.1000 N   0  0  0  0  0  0  0  0  0  0  0  0
   -3.0949   -1.7586    0.3745 C   0  0  0  0  0  0  0  0  0  0  0  0
   -4.5446   -1.3099    0.6102 C   0  0  0  0  0  0  0  0  0  0  0  0
   -4.6574   -0.1541    1.5361 C   0  0  0  0  0  0  0  0  0  0  0  0
   -3.3590    0.6122    1.5484 C   0  0  0  0  0  0  0  0  0  0  0  0
   -2.8454    0.6107    0.1007 C   0  0  0  0  0  0  0  0  0  0  0  0
   -2.5443    0.2909   -3.5454 H   0  0  0  0  0  0  0  0  0  0  0  0
   -0.7473    2.9736   -3.4901 H   0  0  0  0  0  0  0  0  0  0  0  0
    1.5540    3.2779   -2.7059 H   0  0  0  0  0  0  0  0  0  0  0  0
    2.9295   -1.7751    1.3857 H   0  0  0  0  0  0  0  0  0  0  0  0
    4.8986   -2.4588    2.7072 H   0  0  0  0  0  0  0  0  0  0  0  0
    6.9746   -1.1859    2.7161 H   0  0  0  0  0  0  0  0  0  0  0  0
    7.0944    0.9020    1.3208 H   0  0  0  0  0  0  0  0  0  0  0  0
    5.1647    1.5924    0.0091 H   0  0  0  0  0  0  0  0  0  0  0  0
    1.3329   -1.1125    0.2303 H   0  0  0  0  0  0  0  0  0  0  0  0
   -1.7781   -1.3816   -1.9816 H   0  0  0  0  0  0  0  0  0  0  0  0
   -0.6070   -1.6937   -0.6897 H   0  0  0  0  0  0  0  0  0  0  0  0
   -2.6743   -2.1360    1.3285 H   0  0  0  0  0  0  0  0  0  0  0  0
   -3.1071   -2.5781   -0.3403 H   0  0  0  0  0  0  0  0  0  0  0  0
   -4.9646   -1.0354   -0.4010 H   0  0  0  0  0  0  0  0  0  0  0  0
   -5.1229   -2.1610    1.0274 H   0  0  0  0  0  0  0  0  0  0  0  0
   -4.9878   -0.4297    2.5597 H   0  0  0  0  0  0  0  0  0  0  0  0
   -5.4315    0.5443    1.1420 H   0  0  0  0  0  0  0  0  0  0  0  0
   -2.5936    0.1403    2.2202 H   0  0  0  0  0  0  0  0  0  0  0  0
   -3.4839    1.6495    1.9148 H   0  0  0  0  0  0  0  0  0  0  0  0
   -3.7701    0.7682   -0.5170 H   0  0  0  0  0  0  0  0  0  0  0  0
   -2.1174    1.4171   -0.0538 H   0  0  0  0  0  0  0  0  0  0  0  0
  1  2  1  0
  2  3  2  0
  3  4  1  0
  4  5  2  0
  5  6  1  0
  6  7  2  0
  7  8  1  0
  8  9  2  0
  9 10  1  0
 10 11  2  0
 11 12  1  0
 12 13  2  0
  7 14  1  0
 14 15  1  0
 15 16  2  0
 16 17  1  0
 17 18  1  0
 18 19  1  0
 19 20  1  0
 20 21  1  0
 21 22  1  0
 22 23  1  0
 16  2  1  0
 23 18  1  0
 15  5  1  0
 13  8  1  0
  1 24  1  0
  3 25  1  0
  4 26  1  0
  9 27  1  0
 10 28  1  0
 11 29  1  0
 12 30  1  0
 13 31  1  0
 14 32  1  0
 17 33  1  0
 17 34  1  0
 19 35  1  0
 19 36  1  0
 20 37  1  0
 20 38  1  0
 21 39  1  0
 21 40  1  0
 22 41  1  0
 22 42  1  0
 23 43  1  0
 23 44  1  0
M  END
$$$$
