
     RDKit          3D

 40 42  0  0  0  0  0  0  0  0999 V2000
   -1.2242   -2.5758   -2.7499 C   0  0  0  0  0  0  0  0  0  0  0  0
   -1.6132   -1.5280   -1.7789 C   0  0  0  0  0  0  0  0  0  0  0  0
   -2.8113   -1.4736   -1.4241 O   0  0  0  0  0  0  0  0  0  0  0  0
   -0.6625   -0.6129   -1.2645 N   0  0  0  0  0  0  0  0  0  0  0  0
    0.7035   -0.5332   -1.5514 N   0  0  0  0  0  0  0  0  0  0  0  0
    1.3599    0.1355   -0.7022 C   0  0  0  0  0  0  0  0  0  0  0  0
    2.8188    0.3937   -0.7383 C   0  0  0  0  0  0  0  0  0  0  0  0
    3.6320   -0.0879   -1.7382 C   0  0  0  0  0  0  0  0  0  0  0  0
    4.9894    0.1487   -1.7774 C   0  0  0  0  0  0  0  0  0  0  0  0
    5.5899    0.8983   -0.7849 C   0  0  0  0  0  0  0  0  0  0  0  0
    6.9601    1.1627   -0.7845 O   0  0  0  0  0  0  0  0  0  0  0  0
    4.7844    1.3854    0.2213 C   0  0  0  0  0  0  0  0  0  0  0  0
    3.4155    1.1426    0.2543 C   0  0  0  0  0  0  0  0  0  0  0  0
    0.4306    0.6182    0.3412 C   0  0  0  0  0  0  0  0  0  0  0  0
   -0.9179    0.4518   -0.3141 C   0  0  0  0  0  0  0  0  0  0  0  0
   -1.8929    0.0620    0.7201 C   0  0  0  0  0  0  0  0  0  0  0  0
   -1.7780   -1.1613    1.3231 C   0  0  0  0  0  0  0  0  0  0  0  0
   -2.7153   -1.4989    2.2961 C   0  0  0  0  0  0  0  0  0  0  0  0
   -3.7124   -0.6167    2.6222 C   0  0  0  0  0  0  0  0  0  0  0  0
   -3.8494    0.6184    2.0308 C   0  0  0  0  0  0  0  0  0  0  0  0
   -4.9250    1.5853    2.3737 C   0  0  0  0  0  0  0  0  0  0  0  0
   -2.8947    0.9327    1.0566 C   0  0  0  0  0  0  0  0  0  0  0  0
   -0.2192   -3.0011   -2.5107 H   0  0  0  0  0  0  0  0  0  0  0  0
   -1.9914   -3.3619   -2.8253 H   0  0  0  0  0  0  0  0  0  0  0  0
   -1.1072   -2.1287   -3.7804 H   0  0  0  0  0  0  0  0  0  0  0  0
    3.1771   -0.6753   -2.5208 H   0  0  0  0  0  0  0  0  0  0  0  0
    5.6243   -0.2413   -2.5800 H   0  0  0  0  0  0  0  0  0  0  0  0
    7.5280    1.1147   -1.6129 H   0  0  0  0  0  0  0  0  0  0  0  0
    5.2391    1.9720    1.0026 H   0  0  0  0  0  0  0  0  0  0  0  0
    2.7968    1.5305    1.0487 H   0  0  0  0  0  0  0  0  0  0  0  0
    0.5008    0.0299    1.2802 H   0  0  0  0  0  0  0  0  0  0  0  0
    0.6258    1.7003    0.5600 H   0  0  0  0  0  0  0  0  0  0  0  0
   -1.2198    1.3795   -0.8512 H   0  0  0  0  0  0  0  0  0  0  0  0
   -1.0032   -1.8880    1.0933 H   0  0  0  0  0  0  0  0  0  0  0  0
   -2.6601   -2.4598    2.7991 H   0  0  0  0  0  0  0  0  0  0  0  0
   -4.4449   -0.8781    3.3812 H   0  0  0  0  0  0  0  0  0  0  0  0
   -5.6175    1.1138    3.0730 H   0  0  0  0  0  0  0  0  0  0  0  0
   -4.4596    2.5148    2.7849 H   0  0  0  0  0  0  0  0  0  0  0  0
   -5.4421    1.9230    1.4288 H   0  0  0  0  0  0  0  0  0  0  0  0
   -3.0144    1.9089    0.5986 H   0  0  0  0  0  0  0  0  0  0  0  0
  1  2  1  0
  2  3  2  0
  2  4  1  0
  4  5  1  0
  5  6  2  0
  6  7  1  0
  7  8  2  0
  8  9  1  0
  9 10  2  0
 10 11  1  0
 10 12  1  0
 12 13  2  0
  6 14  1  0
 14 15  1  0
 15 16  1  0
 16 17  2  0
 17 18  1  0
 18 19  2  0
 19 20  1  0
 20 21  1  0
 20 22  2  0
 15  4  1  0
 22 16  1  0
 13  7  1  0
  1 23  1  0
  1 24  1  0
  1 25  1  0
  8 26  1  0
  9 27  1  0
 11 28  1  0
 12 29  1  0
 13 30  1  0
 14 31  1  0
 14 32  1  0
 15 33  1  0
 17 34  1  0
 18 35  1  0
 19 36  1  0
 21 37  1  0
 21 38  1  0
 21 39  1  0
 22 40  1  0
M  END
$$$$
