
     RDKit          3D

 46 49  0  0  0  0  0  0  0  0999 V2000
    4.2033   -2.1990   -0.3460 C   0  0  0  0  0  0  0  0  0  0  0  0
    4.4244   -0.7835   -0.7784 C   0  0  0  0  0  0  0  0  0  0  0  0
    5.7412   -0.3232   -0.8170 C   0  0  0  0  0  0  0  0  0  0  0  0
    5.9578    0.9771   -1.2128 C   0  0  0  0  0  0  0  0  0  0  0  0
    7.3085    1.4689   -1.2558 C   0  0  0  0  0  0  0  0  0  0  0  0
    8.4028    1.8888   -1.2879 N   0  0  0  0  0  0  0  0  0  0  0  0
    4.8802    1.7848   -1.5580 C   0  0  0  0  0  0  0  0  0  0  0  0
    3.6504    1.3125   -1.5085 N   0  0  0  0  0  0  0  0  0  0  0  0
    3.4018    0.0548   -1.1289 C   0  0  0  0  0  0  0  0  0  0  0  0
    2.0091   -0.4469   -1.0826 C   0  0  0  0  0  0  0  0  0  0  0  0
    1.7536   -1.6192   -0.7292 O   0  0  0  0  0  0  0  0  0  0  0  0
    0.9142    0.3777   -1.4350 N   0  0  0  0  0  0  0  0  0  0  0  0
   -0.4126   -0.1610   -1.3707 C   0  0  0  0  0  0  0  0  0  0  0  0
   -1.0139   -0.7873   -2.4406 C   0  0  0  0  0  0  0  0  0  0  0  0
   -2.2694   -1.2737   -2.2835 C   0  0  0  0  0  0  0  0  0  0  0  0
   -2.9360   -1.1444   -1.0710 C   0  0  0  0  0  0  0  0  0  0  0  0
   -4.5436   -1.7819   -0.9773 Cl  0  0  0  0  0  0  0  0  0  0  0  0
   -2.3876   -0.5355    0.0162 C   0  0  0  0  0  0  0  0  0  0  0  0
   -3.0300   -0.3886    1.3362 C   0  0  1  0  0  0  0  0  0  0  0  0
   -3.1084   -1.8209    1.9298 C   0  0  0  0  0  0  0  0  0  0  0  0
   -1.8073   -2.3039    2.0305 F   0  0  0  0  0  0  0  0  0  0  0  0
   -2.1075    0.3397    2.1857 N   0  0  0  0  0  0  0  0  0  0  0  0
   -2.1107    1.6186    2.1948 C   0  0  0  0  0  0  0  0  0  0  0  0
   -1.1993    2.3729    3.0267 N   0  0  0  0  0  0  0  0  0  0  0  0
   -3.0431    2.2146    1.3589 O   0  0  0  0  0  0  0  0  0  0  0  0
   -4.3459    1.6691    1.2647 C   0  0  2  0  0  0  0  0  0  0  0  0
   -4.8879    1.0106    2.5585 C   0  0  0  0  0  0  0  0  0  0  0  0
   -4.3617    0.2175    1.3469 C   0  0  2  0  0  0  0  0  0  0  0  0
   -1.0856   -0.0396   -0.1733 C   0  0  0  0  0  0  0  0  0  0  0  0
    3.5690   -2.2551    0.5411 H   0  0  0  0  0  0  0  0  0  0  0  0
    5.1912   -2.6890   -0.1515 H   0  0  0  0  0  0  0  0  0  0  0  0
    3.7129   -2.7512   -1.1730 H   0  0  0  0  0  0  0  0  0  0  0  0
    6.5719   -0.9828   -0.5395 H   0  0  0  0  0  0  0  0  0  0  0  0
    5.1226    2.8119   -1.8648 H   0  0  0  0  0  0  0  0  0  0  0  0
    1.0900    1.3583   -1.7346 H   0  0  0  0  0  0  0  0  0  0  0  0
   -0.4343   -0.8533   -3.3617 H   0  0  0  0  0  0  0  0  0  0  0  0
   -2.7663   -1.7739   -3.1159 H   0  0  0  0  0  0  0  0  0  0  0  0
   -3.6179   -1.8068    2.9095 H   0  0  0  0  0  0  0  0  0  0  0  0
   -3.6492   -2.4320    1.2072 H   0  0  0  0  0  0  0  0  0  0  0  0
   -0.4885    1.8391    3.5431 H   0  0  0  0  0  0  0  0  0  0  0  0
   -1.2863    3.3776    3.0734 H   0  0  0  0  0  0  0  0  0  0  0  0
   -5.0756    2.1729    0.6050 H   0  0  0  0  0  0  0  0  0  0  0  0
   -5.9509    1.1595    2.7003 H   0  0  0  0  0  0  0  0  0  0  0  0
   -4.1952    1.0733    3.4404 H   0  0  0  0  0  0  0  0  0  0  0  0
   -5.2027   -0.4078    0.9588 H   0  0  0  0  0  0  0  0  0  0  0  0
   -0.5875    0.4604    0.6617 H   0  0  0  0  0  0  0  0  0  0  0  0
  1  2  1  0
  2  3  2  0
  3  4  1  0
  4  5  1  0
  5  6  3  0
  4  7  2  0
  7  8  1  0
  8  9  2  0
  9 10  1  0
 10 11  2  0
 10 12  1  0
 12 13  1  0
 13 14  2  0
 14 15  1  0
 15 16  2  0
 16 17  1  0
 16 18  1  0
 18 19  1  0
 19 20  1  1
 20 21  1  0
 19 22  1  0
 22 23  2  0
 23 24  1  0
 23 25  1  0
 25 26  1  0
 26 27  1  0
 27 28  1  0
 18 29  2  0
  9  2  1  0
 29 13  1  0
 28 19  1  0
 28 26  1  0
  1 30  1  0
  1 31  1  0
  1 32  1  0
  3 33  1  0
  7 34  1  0
 12 35  1  0
 14 36  1  0
 15 37  1  0
 20 38  1  0
 20 39  1  0
 24 40  1  0
 24 41  1  0
 26 42  1  6
 27 43  1  0
 27 44  1  0
 28 45  1  6
 29 46  1  0
M  END
$$$$
