
     RDKit          3D

 57 62  0  0  0  0  0  0  0  0999 V2000
   -4.8796   -0.7607    1.4813 O   0  0  0  0  0  0  0  0  0  0  0  0
   -4.9927   -0.7626    0.2280 C   0  0  0  0  0  0  0  0  0  0  0  0
   -6.2929   -0.8758   -0.3129 N   0  0  0  0  0  0  0  0  0  0  0  0
   -7.5169   -0.9894    0.4529 C   0  0  0  0  0  0  0  0  0  0  0  0
   -8.0151    0.2461    1.0313 C   0  0  0  0  0  0  0  0  0  0  0  0
   -7.6769    0.6209    2.3084 C   0  0  0  0  0  0  0  0  0  0  0  0
   -8.1543    1.8150    2.8629 C   0  0  0  0  0  0  0  0  0  0  0  0
   -8.9574    2.5984    2.1206 N   0  0  0  0  0  0  0  0  0  0  0  0
   -9.2970    2.2355    0.8577 C   0  0  0  0  0  0  0  0  0  0  0  0
   -8.8366    1.0675    0.2993 C   0  0  0  0  0  0  0  0  0  0  0  0
   -3.7645   -0.6478   -0.5368 C   0  0  0  0  0  0  0  0  0  0  0  0
   -3.7570   -0.6137   -1.9103 C   0  0  0  0  0  0  0  0  0  0  0  0
   -2.5934   -0.5091   -2.6578 C   0  0  0  0  0  0  0  0  0  0  0  0
   -1.3831   -0.4352   -2.0090 C   0  0  0  0  0  0  0  0  0  0  0  0
   -1.3496   -0.4661   -0.6316 C   0  0  0  0  0  0  0  0  0  0  0  0
   -2.5353   -0.5714    0.0809 C   0  0  0  0  0  0  0  0  0  0  0  0
    0.0713   -0.3729   -0.1506 C   0  0  0  0  0  0  0  0  0  0  0  0
    0.8562   -0.2886   -1.3802 C   0  0  0  0  0  0  0  0  0  0  0  0
    2.1632   -0.1845   -1.8655 C   0  0  0  0  0  0  0  0  0  0  0  0
    3.3747   -0.1177   -1.0652 C   0  0  0  0  0  0  0  0  0  0  0  0
    4.4833   -0.8811   -1.4009 C   0  0  0  0  0  0  0  0  0  0  0  0
    5.6477   -0.8469   -0.6676 C   0  0  0  0  0  0  0  0  0  0  0  0
    5.7543   -0.0386    0.4449 C   0  0  0  0  0  0  0  0  0  0  0  0
    6.9927    0.0068    1.2365 C   0  0  0  0  0  0  0  0  0  0  0  0
    7.7744   -1.1177    1.3386 C   0  0  0  0  0  0  0  0  0  0  0  0
    8.9315   -1.0499    2.0835 C   0  0  0  0  0  0  0  0  0  0  0  0
    9.3337    0.0930    2.7263 C   0  0  0  0  0  0  0  0  0  0  0  0
   10.5142    0.1594    3.4857 O   0  0  0  0  0  0  0  0  0  0  0  0
    8.5254    1.1971    2.6006 C   0  0  0  0  0  0  0  0  0  0  0  0
    7.3728    1.1578    1.8682 C   0  0  0  0  0  0  0  0  0  0  0  0
    4.6487    0.7232    0.7799 C   0  0  0  0  0  0  0  0  0  0  0  0
    3.4800    0.6923    0.0488 C   0  0  0  0  0  0  0  0  0  0  0  0
    2.0426   -0.1618   -3.2005 N   0  0  0  0  0  0  0  0  0  0  0  0
    0.7659   -0.2443   -3.5483 N   0  0  0  0  0  0  0  0  0  0  0  0
    0.0065   -0.3242   -2.4468 C   0  0  0  0  0  0  0  0  0  0  0  0
   -6.3376   -0.8744   -1.3737 H   0  0  0  0  0  0  0  0  0  0  0  0
   -7.2637   -1.6827    1.3069 H   0  0  0  0  0  0  0  0  0  0  0  0
   -8.2623   -1.5250   -0.1724 H   0  0  0  0  0  0  0  0  0  0  0  0
   -7.0445   -0.0008    2.9032 H   0  0  0  0  0  0  0  0  0  0  0  0
   -7.8893    2.1091    3.8630 H   0  0  0  0  0  0  0  0  0  0  0  0
   -9.9408    2.9031    0.3178 H   0  0  0  0  0  0  0  0  0  0  0  0
   -9.1007    0.7627   -0.7154 H   0  0  0  0  0  0  0  0  0  0  0  0
   -4.6934   -0.6694   -2.4751 H   0  0  0  0  0  0  0  0  0  0  0  0
   -2.5924   -0.4821   -3.7398 H   0  0  0  0  0  0  0  0  0  0  0  0
   -2.5186   -0.5964    1.1725 H   0  0  0  0  0  0  0  0  0  0  0  0
    0.3089   -1.2207    0.4985 H   0  0  0  0  0  0  0  0  0  0  0  0
    0.1172    0.5821    0.4495 H   0  0  0  0  0  0  0  0  0  0  0  0
    4.3804   -1.5093   -2.2766 H   0  0  0  0  0  0  0  0  0  0  0  0
    6.4925   -1.4566   -0.9596 H   0  0  0  0  0  0  0  0  0  0  0  0
    7.4863   -2.0589    0.8364 H   0  0  0  0  0  0  0  0  0  0  0  0
    9.5694   -1.9395    2.1761 H   0  0  0  0  0  0  0  0  0  0  0  0
   11.2464    0.7390    3.0499 H   0  0  0  0  0  0  0  0  0  0  0  0
    8.8307    2.1116    3.1048 H   0  0  0  0  0  0  0  0  0  0  0  0
    6.7708    2.0495    1.7983 H   0  0  0  0  0  0  0  0  0  0  0  0
    4.7160    1.3609    1.6483 H   0  0  0  0  0  0  0  0  0  0  0  0
    2.6051    1.2933    0.3119 H   0  0  0  0  0  0  0  0  0  0  0  0
    0.3829   -0.2488   -4.5237 H   0  0  0  0  0  0  0  0  0  0  0  0
  1  2  2  0
  2  3  1  0
  3  4  1  0
  4  5  1  0
  5  6  2  0
  6  7  1  0
  7  8  2  0
  8  9  1  0
  9 10  2  0
  2 11  1  0
 11 12  2  0
 12 13  1  0
 13 14  2  0
 14 15  1  0
 15 16  2  0
 15 17  1  0
 17 18  1  0
 18 19  1  0
 19 20  1  0
 20 21  2  0
 21 22  1  0
 22 23  2  0
 23 24  1  0
 24 25  2  0
 25 26  1  0
 26 27  2  0
 27 28  1  0
 27 29  1  0
 29 30  2  0
 23 31  1  0
 31 32  2  0
 19 33  2  0
 33 34  1  0
 34 35  1  0
 10  5  1  0
 16 11  1  0
 35 18  2  0
 35 14  1  0
 32 20  1  0
 30 24  1  0
  3 36  1  0
  4 37  1  0
  4 38  1  0
  6 39  1  0
  7 40  1  0
  9 41  1  0
 10 42  1  0
 12 43  1  0
 13 44  1  0
 16 45  1  0
 17 46  1  0
 17 47  1  0
 21 48  1  0
 22 49  1  0
 25 50  1  0
 26 51  1  0
 28 52  1  0
 29 53  1  0
 30 54  1  0
 31 55  1  0
 32 56  1  0
 34 57  1  0
M  END
$$$$
