
     RDKit          3D

 43 45  0  0  0  0  0  0  0  0999 V2000
   -0.6611    3.9985    0.6320 C   0  0  0  0  0  0  0  0  0  0  0  0
   -0.8471    2.8617   -0.1882 O   0  0  0  0  0  0  0  0  0  0  0  0
   -1.5212    1.7213    0.2424 C   0  0  0  0  0  0  0  0  0  0  0  0
   -1.9686    1.7408    1.4148 O   0  0  0  0  0  0  0  0  0  0  0  0
   -1.7196    0.5250   -0.6143 C   0  0  2  0  0  0  0  0  0  0  0  0
   -2.4784   -0.4919    0.1621 C   0  0  0  0  0  0  0  0  0  0  0  0
   -3.6474   -0.9978   -0.6751 C   0  0  0  0  0  0  0  0  0  0  0  0
   -2.8674   -1.7566   -1.7521 C   0  0  0  0  0  0  0  0  0  0  0  0
   -1.6239   -2.1731   -1.0386 C   0  0  0  0  0  0  0  0  0  0  0  0
   -0.4116   -1.4056   -1.5726 C   0  0  0  0  0  0  0  0  0  0  0  0
   -0.4392    0.0397   -1.2252 C   0  0  2  0  0  0  0  0  0  0  0  0
    0.7369    0.3222   -0.3457 C   0  0  0  0  0  0  0  0  0  0  0  0
    0.6223    0.8967    0.7650 O   0  0  0  0  0  0  0  0  0  0  0  0
    2.0134   -0.0503   -0.7406 O   0  0  0  0  0  0  0  0  0  0  0  0
    3.1472    0.1785    0.0207 C   0  0  0  0  0  0  0  0  0  0  0  0
    3.8293    1.3623   -0.1607 C   0  0  0  0  0  0  0  0  0  0  0  0
    4.9821    1.6500    0.5797 C   0  0  0  0  0  0  0  0  0  0  0  0
    5.4398    0.7493    1.4941 C   0  0  0  0  0  0  0  0  0  0  0  0
    4.7814   -0.4376    1.6963 C   0  0  0  0  0  0  0  0  0  0  0  0
    3.6439   -0.7039    0.9549 C   0  0  0  0  0  0  0  0  0  0  0  0
   -1.7292   -1.7115    0.3363 N   0  0  0  0  0  0  0  0  0  0  0  0
   -2.3331   -2.6498    1.2061 C   0  0  0  0  0  0  0  0  0  0  0  0
   -0.7645    3.7760    1.7072 H   0  0  0  0  0  0  0  0  0  0  0  0
   -1.4946    4.6987    0.3813 H   0  0  0  0  0  0  0  0  0  0  0  0
    0.2702    4.5386    0.3743 H   0  0  0  0  0  0  0  0  0  0  0  0
   -2.3645    0.8650   -1.4575 H   0  0  0  0  0  0  0  0  0  0  0  0
   -2.8214   -0.1153    1.1518 H   0  0  0  0  0  0  0  0  0  0  0  0
   -4.3142   -1.6506   -0.1152 H   0  0  0  0  0  0  0  0  0  0  0  0
   -4.1962   -0.1449   -1.0853 H   0  0  0  0  0  0  0  0  0  0  0  0
   -3.4495   -2.5645   -2.1929 H   0  0  0  0  0  0  0  0  0  0  0  0
   -2.6098   -0.9695   -2.5205 H   0  0  0  0  0  0  0  0  0  0  0  0
   -1.4175   -3.2550   -1.0976 H   0  0  0  0  0  0  0  0  0  0  0  0
    0.4683   -1.9224   -1.1220 H   0  0  0  0  0  0  0  0  0  0  0  0
   -0.3018   -1.5827   -2.6726 H   0  0  0  0  0  0  0  0  0  0  0  0
   -0.2294    0.6072   -2.1681 H   0  0  0  0  0  0  0  0  0  0  0  0
    3.5321    2.1216   -0.8611 H   0  0  0  0  0  0  0  0  0  0  0  0
    5.5244    2.5747    0.4456 H   0  0  0  0  0  0  0  0  0  0  0  0
    6.3345    0.9249    2.0979 H   0  0  0  0  0  0  0  0  0  0  0  0
    5.1339   -1.1639    2.4205 H   0  0  0  0  0  0  0  0  0  0  0  0
    3.1353   -1.6382    1.1217 H   0  0  0  0  0  0  0  0  0  0  0  0
   -2.6692   -2.1370    2.1249 H   0  0  0  0  0  0  0  0  0  0  0  0
   -3.1555   -3.2411    0.7563 H   0  0  0  0  0  0  0  0  0  0  0  0
   -1.5590   -3.3893    1.5198 H   0  0  0  0  0  0  0  0  0  0  0  0
  1  2  1  0
  2  3  1  0
  3  4  2  0
  3  5  1  0
  5  6  1  0
  6  7  1  0
  7  8  1  0
  8  9  1  0
  9 10  1  0
 10 11  1  0
 11 12  1  0
 12 13  2  0
 12 14  1  0
 14 15  1  0
 15 16  2  0
 16 17  1  0
 17 18  2  0
 18 19  1  0
 19 20  2  0
  9 21  1  0
 21 22  1  0
 11  5  1  0
 20 15  1  0
 21  6  1  0
  1 23  1  0
  1 24  1  0
  1 25  1  0
  5 26  1  6
  6 27  1  0
  7 28  1  0
  7 29  1  0
  8 30  1  0
  8 31  1  0
  9 32  1  0
 10 33  1  0
 10 34  1  0
 11 35  1  6
 16 36  1  0
 17 37  1  0
 18 38  1  0
 19 39  1  0
 20 40  1  0
 22 41  1  0
 22 42  1  0
 22 43  1  0
M  END
$$$$
