
     RDKit          3D

 61 65  0  0  0  0  0  0  0  0999 V2000
    8.8428   -2.2980   -1.0073 C   0  0  0  0  0  0  0  0  0  0  0  0
    7.4468   -2.5975   -0.9223 O   0  0  0  0  0  0  0  0  0  0  0  0
    6.5527   -1.5219   -0.8650 C   0  0  0  0  0  0  0  0  0  0  0  0
    5.2151   -1.7822   -0.7831 C   0  0  0  0  0  0  0  0  0  0  0  0
    4.2710   -0.7365   -0.7228 C   0  0  0  0  0  0  0  0  0  0  0  0
    2.9027   -1.0528   -0.6528 N   0  0  0  0  0  0  0  0  0  0  0  0
    1.8147   -0.1931   -0.3630 C   0  0  0  0  0  0  0  0  0  0  0  0
    1.9851    1.1003   -0.0514 N   0  0  0  0  0  0  0  0  0  0  0  0
    0.9895    1.9386    0.2221 C   0  0  0  0  0  0  0  0  0  0  0  0
   -0.3503    1.4861    0.1954 C   0  0  0  0  0  0  0  0  0  0  0  0
   -1.4066    2.4870    0.2597 C   0  0  0  0  0  0  0  0  0  0  0  0
   -2.6914    2.3480   -0.1394 C   0  0  0  0  0  0  0  0  0  0  0  0
   -3.5441    3.4652   -0.0999 C   0  0  0  0  0  0  0  0  0  0  0  0
   -3.0873    4.6841    0.3327 C   0  0  0  0  0  0  0  0  0  0  0  0
   -3.8875    5.8102    0.3889 C   0  0  0  0  0  0  0  0  0  0  0  0
   -3.4461    7.0431    0.8206 C   0  0  0  0  0  0  0  0  0  0  0  0
   -2.1268    7.1573    1.2198 C   0  0  0  0  0  0  0  0  0  0  0  0
   -1.3177    6.0447    1.1694 C   0  0  0  0  0  0  0  0  0  0  0  0
   -1.7739    4.8109    0.7333 C   0  0  0  0  0  0  0  0  0  0  0  0
   -1.0153    3.7357    0.6796 N   0  0  0  0  0  0  0  0  0  0  0  0
   -0.5001    0.1772   -0.1127 C   0  0  0  0  0  0  0  0  0  0  0  0
   -1.7833   -0.4283    0.0819 N   0  0  0  0  0  0  0  0  0  0  0  0
   -2.0483   -1.7723   -0.3992 C   0  0  2  0  0  0  0  0  0  0  0  0
   -3.4947   -2.1566   -0.1682 C   0  0  0  0  0  0  0  0  0  0  0  0
   -3.4278   -3.6461    0.1975 C   0  0  2  0  0  0  0  0  0  0  0  0
   -4.6445   -4.0685    0.9850 C   0  0  0  0  0  0  0  0  0  0  0  0
   -4.5204   -5.4186    1.2806 O   0  0  0  0  0  0  0  0  0  0  0  0
   -2.1770   -3.6413    1.0478 C   0  0  1  0  0  0  0  0  0  0  0  0
   -1.7055   -4.9373    1.2602 O   0  0  0  0  0  0  0  0  0  0  0  0
   -1.2148   -2.8350    0.2113 C   0  0  1  0  0  0  0  0  0  0  0  0
   -0.7850   -3.7074   -0.8146 O   0  0  0  0  0  0  0  0  0  0  0  0
    0.5426   -0.6756   -0.3969 N   0  0  0  0  0  0  0  0  0  0  0  0
    4.7329    0.5514   -0.7489 C   0  0  0  0  0  0  0  0  0  0  0  0
    6.1079    0.7792   -0.8329 C   0  0  0  0  0  0  0  0  0  0  0  0
    6.9508   -0.2583   -0.8868 N   0  0  0  0  0  0  0  0  0  0  0  0
    8.9869   -1.8266   -2.0110 H   0  0  0  0  0  0  0  0  0  0  0  0
    9.1190   -1.5975   -0.2025 H   0  0  0  0  0  0  0  0  0  0  0  0
    9.4438   -3.2114   -0.9805 H   0  0  0  0  0  0  0  0  0  0  0  0
    4.8347   -2.8168   -0.7613 H   0  0  0  0  0  0  0  0  0  0  0  0
    2.6435   -2.0572   -0.8409 H   0  0  0  0  0  0  0  0  0  0  0  0
    1.1694    2.9676    0.4677 H   0  0  0  0  0  0  0  0  0  0  0  0
   -3.0832    1.4297   -0.5520 H   0  0  0  0  0  0  0  0  0  0  0  0
   -4.5612    3.3361   -0.4175 H   0  0  0  0  0  0  0  0  0  0  0  0
   -4.9230    5.6955    0.0694 H   0  0  0  0  0  0  0  0  0  0  0  0
   -4.0968    7.9048    0.8528 H   0  0  0  0  0  0  0  0  0  0  0  0
   -1.7436    8.1259    1.5692 H   0  0  0  0  0  0  0  0  0  0  0  0
   -0.2914    6.1584    1.4860 H   0  0  0  0  0  0  0  0  0  0  0  0
   -2.5095    0.0289    0.6265 H   0  0  0  0  0  0  0  0  0  0  0  0
   -1.8461   -1.7232   -1.5097 H   0  0  0  0  0  0  0  0  0  0  0  0
   -4.0495   -2.0137   -1.1075 H   0  0  0  0  0  0  0  0  0  0  0  0
   -3.8817   -1.5738    0.6759 H   0  0  0  0  0  0  0  0  0  0  0  0
   -3.2827   -4.2572   -0.7106 H   0  0  0  0  0  0  0  0  0  0  0  0
   -5.5355   -3.9214    0.3422 H   0  0  0  0  0  0  0  0  0  0  0  0
   -4.7443   -3.4599    1.8912 H   0  0  0  0  0  0  0  0  0  0  0  0
   -4.4864   -5.9128    0.4230 H   0  0  0  0  0  0  0  0  0  0  0  0
   -2.4007   -3.1221    2.0067 H   0  0  0  0  0  0  0  0  0  0  0  0
   -0.9738   -5.1453    0.6024 H   0  0  0  0  0  0  0  0  0  0  0  0
   -0.3472   -2.4798    0.8065 H   0  0  0  0  0  0  0  0  0  0  0  0
   -1.3701   -3.6400   -1.6060 H   0  0  0  0  0  0  0  0  0  0  0  0
    4.0713    1.4099   -0.7148 H   0  0  0  0  0  0  0  0  0  0  0  0
    6.4520    1.8104   -0.8518 H   0  0  0  0  0  0  0  0  0  0  0  0
  1  2  1  0
  2  3  1  0
  3  4  2  0
  4  5  1  0
  5  6  1  0
  6  7  1  0
  7  8  2  0
  8  9  1  0
  9 10  2  0
 10 11  1  0
 11 12  2  0
 12 13  1  0
 13 14  2  0
 14 15  1  0
 15 16  2  0
 16 17  1  0
 17 18  2  0
 18 19  1  0
 19 20  2  0
 10 21  1  0
 21 22  1  0
 22 23  1  0
 23 24  1  0
 24 25  1  0
 25 26  1  0
 26 27  1  0
 25 28  1  0
 28 29  1  0
 28 30  1  0
 30 31  1  0
 21 32  2  0
  5 33  2  0
 33 34  1  0
 34 35  2  0
 35  3  1  0
 32  7  1  0
 20 11  1  0
 30 23  1  0
 19 14  1  0
  1 36  1  0
  1 37  1  0
  1 38  1  0
  4 39  1  0
  6 40  1  0
  9 41  1  0
 12 42  1  0
 13 43  1  0
 15 44  1  0
 16 45  1  0
 17 46  1  0
 18 47  1  0
 22 48  1  0
 23 49  1  6
 24 50  1  0
 24 51  1  0
 25 52  1  6
 26 53  1  0
 26 54  1  0
 27 55  1  0
 28 56  1  1
 29 57  1  0
 30 58  1  1
 31 59  1  0
 33 60  1  0
 34 61  1  0
M  END
$$$$
