
     RDKit          3D

 50 53  0  0  0  0  0  0  0  0999 V2000
   -5.3951    2.8383    1.8396 C   0  0  0  0  0  0  0  0  0  0  0  0
   -4.1703    2.0261    1.6364 C   0  0  0  0  0  0  0  0  0  0  0  0
   -4.0289    0.6844    1.8693 C   0  0  0  0  0  0  0  0  0  0  0  0
   -2.7539    0.2723    1.5650 N   0  0  0  0  0  0  0  0  0  0  0  0
   -2.3165   -1.0958    1.6586 C   0  0  0  0  0  0  0  0  0  0  0  0
   -2.6796   -1.8628    0.4378 C   0  0  0  0  0  0  0  0  0  0  0  0
   -1.9231   -1.9184   -0.7085 C   0  0  0  0  0  0  0  0  0  0  0  0
   -2.3548   -2.6034   -1.8572 C   0  0  0  0  0  0  0  0  0  0  0  0
   -3.5583   -3.2578   -1.9014 C   0  0  0  0  0  0  0  0  0  0  0  0
   -4.0986   -4.1138   -3.3357 Cl  0  0  0  0  0  0  0  0  0  0  0  0
   -4.3251   -3.2148   -0.7669 C   0  0  0  0  0  0  0  0  0  0  0  0
   -3.8964   -2.5387    0.3676 C   0  0  0  0  0  0  0  0  0  0  0  0
   -4.9165   -2.6580    1.7735 Cl  0  0  0  0  0  0  0  0  0  0  0  0
   -2.0538    1.3431    1.1360 C   0  0  0  0  0  0  0  0  0  0  0  0
   -0.7586    1.5458    0.7172 C   0  0  0  0  0  0  0  0  0  0  0  0
    0.2230    0.4799    0.7190 C   0  0  0  0  0  0  0  0  0  0  0  0
    1.4662    0.6527    0.2472 C   0  0  0  0  0  0  0  0  0  0  0  0
    2.4246   -0.4475    0.2694 C   0  0  0  0  0  0  0  0  0  0  0  0
    2.1009   -1.5633    0.7344 O   0  0  0  0  0  0  0  0  0  0  0  0
    3.7251   -0.2496   -0.2383 N   0  0  0  0  0  0  0  0  0  0  0  0
    4.9348   -1.4737   -0.2615 S   0  0  0  0  0  6  0  0  0  0  0  0
    4.4285   -2.6025   -1.0921 O   0  0  0  0  0  0  0  0  0  0  0  0
    5.2929   -1.9315    1.1214 O   0  0  0  0  0  0  0  0  0  0  0  0
    6.4051   -0.9066   -1.0085 C   0  0  0  0  0  0  0  0  0  0  0  0
    7.1067   -1.3388   -2.1061 C   0  0  0  0  0  0  0  0  0  0  0  0
    8.2244   -0.7016   -2.4612 C   0  0  0  0  0  0  0  0  0  0  0  0
    9.2002   -1.1967   -3.8760 Cl  0  0  0  0  0  0  0  0  0  0  0  0
    8.6375    0.3657   -1.7179 C   0  0  0  0  0  0  0  0  0  0  0  0
    9.9838    1.4158   -1.8485 Cl  0  0  0  0  0  0  0  0  0  0  0  0
    7.3467    0.4855   -0.4082 S   0  0  0  0  0  0  0  0  0  0  0  0
   -0.3794    2.8336    0.3458 C   0  0  0  0  0  0  0  0  0  0  0  0
   -1.2580    3.8943    0.3895 C   0  0  0  0  0  0  0  0  0  0  0  0
   -0.7963    5.1318    0.0035 F   0  0  0  0  0  0  0  0  0  0  0  0
   -2.5361    3.7076    0.8038 C   0  0  0  0  0  0  0  0  0  0  0  0
   -2.9410    2.4361    1.1795 C   0  0  0  0  0  0  0  0  0  0  0  0
   -5.3470    3.4250    2.7852 H   0  0  0  0  0  0  0  0  0  0  0  0
   -6.2904    2.1683    1.9426 H   0  0  0  0  0  0  0  0  0  0  0  0
   -5.5639    3.4942    0.9738 H   0  0  0  0  0  0  0  0  0  0  0  0
   -4.7753    0.0159    2.2514 H   0  0  0  0  0  0  0  0  0  0  0  0
   -1.3497   -1.2861    2.0351 H   0  0  0  0  0  0  0  0  0  0  0  0
   -2.9863   -1.5797    2.5018 H   0  0  0  0  0  0  0  0  0  0  0  0
   -0.9639   -1.4355   -0.7503 H   0  0  0  0  0  0  0  0  0  0  0  0
   -1.7162   -2.6157   -2.7369 H   0  0  0  0  0  0  0  0  0  0  0  0
   -5.2768   -3.7355   -0.8080 H   0  0  0  0  0  0  0  0  0  0  0  0
    0.0657   -0.5047    1.0868 H   0  0  0  0  0  0  0  0  0  0  0  0
    1.7677    1.5873   -0.1517 H   0  0  0  0  0  0  0  0  0  0  0  0
    3.9862    0.6934   -0.6274 H   0  0  0  0  0  0  0  0  0  0  0  0
    6.6788   -2.2343   -2.6554 H   0  0  0  0  0  0  0  0  0  0  0  0
    0.6231    3.0274    0.0149 H   0  0  0  0  0  0  0  0  0  0  0  0
   -3.2121    4.5426    0.8345 H   0  0  0  0  0  0  0  0  0  0  0  0
  1  2  1  0
  2  3  2  0
  3  4  1  0
  4  5  1  0
  5  6  1  0
  6  7  2  0
  7  8  1  0
  8  9  2  0
  9 10  1  0
  9 11  1  0
 11 12  2  0
 12 13  1  0
  4 14  1  0
 14 15  2  0
 15 16  1  0
 16 17  2  0
 17 18  1  0
 18 19  2  0
 18 20  1  0
 20 21  1  0
 21 22  2  0
 21 23  2  0
 21 24  1  0
 24 25  2  0
 25 26  1  0
 26 27  1  0
 26 28  2  0
 28 29  1  0
 28 30  1  0
 15 31  1  0
 31 32  2  0
 32 33  1  0
 32 34  1  0
 34 35  2  0
 35  2  1  0
 12  6  1  0
 35 14  1  0
 30 24  1  0
  1 36  1  0
  1 37  1  0
  1 38  1  0
  3 39  1  0
  5 40  1  0
  5 41  1  0
  7 42  1  0
  8 43  1  0
 11 44  1  0
 16 45  1  0
 17 46  1  0
 20 47  1  0
 25 48  1  0
 31 49  1  0
 34 50  1  0
M  END
$$$$
