
     RDKit          3D

 57 61  0  0  0  0  0  0  0  0999 V2000
   -8.6077    1.7106    1.5545 C   0  0  0  0  0  0  0  0  0  0  0  0
   -7.2636    1.1971    1.4587 O   0  0  0  0  0  0  0  0  0  0  0  0
   -6.6528    1.1346    0.2156 C   0  0  0  0  0  0  0  0  0  0  0  0
   -7.3305    1.5391   -0.7678 O   0  0  0  0  0  0  0  0  0  0  0  0
   -5.2829    0.6335   -0.0251 C   0  0  2  0  0  0  0  0  0  0  0  0
   -4.7808    0.6792   -1.4247 C   0  0  0  0  0  0  0  0  0  0  0  0
   -5.0162   -0.6190   -0.7111 C   0  0  1  0  0  0  0  0  0  0  0  0
   -3.8818   -1.4800   -0.3202 C   0  0  1  0  0  0  0  0  0  0  0  0
   -4.2952   -2.9520   -0.5914 C   0  0  0  0  0  0  0  0  0  0  0  0
   -2.6817   -1.2639   -1.2084 C   0  0  0  0  0  0  0  0  0  0  0  0
   -1.4200   -1.1218   -0.6869 C   0  0  0  0  0  0  0  0  0  0  0  0
   -0.3249   -0.9292   -1.5153 C   0  0  0  0  0  0  0  0  0  0  0  0
    0.9870   -0.7965   -0.9231 C   0  0  0  0  0  0  0  0  0  0  0  0
    1.8794    0.0981   -1.3643 C   0  0  0  0  0  0  0  0  0  0  0  0
    1.4863    0.8782   -2.4005 F   0  0  0  0  0  0  0  0  0  0  0  0
    3.2053    0.2216   -0.7686 C   0  0  0  0  0  0  0  0  0  0  0  0
    4.1277    1.1332   -1.1734 C   0  0  0  0  0  0  0  0  0  0  0  0
    5.3353    1.1997   -0.5892 N   0  0  0  0  0  0  0  0  0  0  0  0
    5.6895    0.3667    0.4244 C   0  0  0  0  0  0  0  0  0  0  0  0
    6.9473    0.4335    1.0333 O   0  0  0  0  0  0  0  0  0  0  0  0
    7.8428    1.4259    0.5452 C   0  0  0  0  0  0  0  0  0  0  0  0
    9.1340    1.3344    1.3131 C   0  0  0  0  0  0  0  0  0  0  0  0
    9.3847    1.9801    2.4539 N   0  0  0  0  0  0  0  0  0  0  0  0
   10.6269    1.6690    2.8557 C   0  0  0  0  0  0  0  0  0  0  0  0
   11.1121    0.8036    1.9010 C   0  0  0  0  0  0  0  0  0  0  0  0
   10.1777    0.6301    0.9892 O   0  0  0  0  0  0  0  0  0  0  0  0
    4.7634   -0.5609    0.8432 C   0  0  0  0  0  0  0  0  0  0  0  0
    3.5545   -0.6077    0.2392 N   0  0  0  0  0  0  0  0  0  0  0  0
   -0.5634   -0.8876   -2.8665 C   0  0  0  0  0  0  0  0  0  0  0  0
   -1.8246   -1.0288   -3.3980 C   0  0  0  0  0  0  0  0  0  0  0  0
   -2.9142   -1.2204   -2.5767 C   0  0  0  0  0  0  0  0  0  0  0  0
   -4.1213   -1.3501   -3.1401 F   0  0  0  0  0  0  0  0  0  0  0  0
   -3.4776   -1.4847    1.0515 N   0  0  0  0  0  0  0  0  0  0  0  0
   -3.5044   -0.5273    1.8850 C   0  0  0  0  0  0  0  0  0  0  0  0
   -3.0683   -0.6948    3.2038 N   0  0  0  0  0  0  0  0  0  0  0  0
   -4.1229    1.0403    1.3280 S   0  0  0  0  0  0  0  0  0  0  0  0
   -9.2384    1.0896    2.2201 H   0  0  0  0  0  0  0  0  0  0  0  0
   -8.5376    2.7644    1.8850 H   0  0  0  0  0  0  0  0  0  0  0  0
   -9.0880    1.7021    0.5289 H   0  0  0  0  0  0  0  0  0  0  0  0
   -5.4631    0.9778   -2.2248 H   0  0  0  0  0  0  0  0  0  0  0  0
   -3.7493    1.0871   -1.5061 H   0  0  0  0  0  0  0  0  0  0  0  0
   -5.9502   -1.1509   -1.0829 H   0  0  0  0  0  0  0  0  0  0  0  0
   -3.5025   -3.5716   -0.1107 H   0  0  0  0  0  0  0  0  0  0  0  0
   -5.2763   -3.1064   -0.0868 H   0  0  0  0  0  0  0  0  0  0  0  0
   -4.4313   -3.1440   -1.6532 H   0  0  0  0  0  0  0  0  0  0  0  0
   -1.2789   -1.1614    0.4058 H   0  0  0  0  0  0  0  0  0  0  0  0
    1.3261   -1.4132   -0.0858 H   0  0  0  0  0  0  0  0  0  0  0  0
    3.8688    1.8216   -1.9947 H   0  0  0  0  0  0  0  0  0  0  0  0
    7.4413    2.4657    0.7206 H   0  0  0  0  0  0  0  0  0  0  0  0
    8.0733    1.2670   -0.5194 H   0  0  0  0  0  0  0  0  0  0  0  0
   11.1436    2.0295    3.7566 H   0  0  0  0  0  0  0  0  0  0  0  0
   12.1066    0.3296    1.8872 H   0  0  0  0  0  0  0  0  0  0  0  0
    4.9476   -1.2604    1.6336 H   0  0  0  0  0  0  0  0  0  0  0  0
    0.2585   -0.7412   -3.5445 H   0  0  0  0  0  0  0  0  0  0  0  0
   -1.9527   -0.9867   -4.4771 H   0  0  0  0  0  0  0  0  0  0  0  0
   -3.0921   -1.6719    3.6199 H   0  0  0  0  0  0  0  0  0  0  0  0
   -2.7245    0.0895    3.7840 H   0  0  0  0  0  0  0  0  0  0  0  0
  1  2  1  0
  2  3  1  0
  3  4  2  0
  5  3  1  6
  5  6  1  0
  6  7  1  0
  7  8  1  0
  8  9  1  6
  8 10  1  0
 10 11  2  0
 11 12  1  0
 12 13  1  0
 13 14  2  0
 14 15  1  0
 14 16  1  0
 16 17  2  0
 17 18  1  0
 18 19  2  0
 19 20  1  0
 20 21  1  0
 21 22  1  0
 22 23  2  0
 23 24  1  0
 24 25  2  0
 25 26  1  0
 19 27  1  0
 27 28  2  0
 12 29  2  0
 29 30  1  0
 30 31  2  0
 31 32  1  0
  8 33  1  0
 33 34  2  0
 34 35  1  0
 34 36  1  0
  7  5  1  0
 31 10  1  0
 36  5  1  0
 28 16  1  0
 26 22  1  0
  1 37  1  0
  1 38  1  0
  1 39  1  0
  6 40  1  0
  6 41  1  0
  7 42  1  6
  9 43  1  0
  9 44  1  0
  9 45  1  0
 11 46  1  0
 13 47  1  0
 17 48  1  0
 21 49  1  0
 21 50  1  0
 24 51  1  0
 25 52  1  0
 27 53  1  0
 29 54  1  0
 30 55  1  0
 35 56  1  0
 35 57  1  0
M  END
$$$$
