
     RDKit          3D

 29 29  0  0  0  0  0  0  0  0999 V2000
    4.4452   -0.4257   -0.1736 C   0  0  0  0  0  0  0  0  0  0  0  0
    3.0411   -0.9011   -0.2736 C   0  0  0  0  0  0  0  0  0  0  0  0
    2.6878   -1.7005   -1.1209 O   0  0  0  0  0  0  0  0  0  0  0  0
    2.0164   -0.3990    0.6803 C   0  0  1  0  0  0  0  0  0  0  0  0
    2.6165    0.5278    1.5983 N   0  0  0  0  0  0  0  0  0  0  0  0
    0.7994    0.1910   -0.0423 C   0  0  0  0  0  0  0  0  0  0  0  0
    0.3353   -0.7948   -0.8764 O   0  0  0  0  0  0  0  0  0  0  0  0
   -0.7628   -0.4709   -1.6246 C   0  0  0  0  0  0  0  0  0  0  0  0
   -1.9610   -0.1033   -0.8484 C   0  0  0  0  0  0  0  0  0  0  0  0
   -2.9051   -1.0272   -0.4436 C   0  0  0  0  0  0  0  0  0  0  0  0
   -4.0268   -0.7101    0.2784 C   0  0  0  0  0  0  0  0  0  0  0  0
   -4.1778    0.6373    0.5980 C   0  0  0  0  0  0  0  0  0  0  0  0
   -3.2628    1.5938    0.2160 C   0  0  0  0  0  0  0  0  0  0  0  0
   -2.1508    1.2350   -0.5073 C   0  0  0  0  0  0  0  0  0  0  0  0
    4.5507    0.6299   -0.4661 H   0  0  0  0  0  0  0  0  0  0  0  0
    4.8014   -0.6332    0.8618 H   0  0  0  0  0  0  0  0  0  0  0  0
    5.1052   -1.0439   -0.8265 H   0  0  0  0  0  0  0  0  0  0  0  0
    1.7002   -1.2977    1.2757 H   0  0  0  0  0  0  0  0  0  0  0  0
    2.8914    1.4231    1.1733 H   0  0  0  0  0  0  0  0  0  0  0  0
    2.0350    0.7227    2.4337 H   0  0  0  0  0  0  0  0  0  0  0  0
    0.1027    0.4877    0.7525 H   0  0  0  0  0  0  0  0  0  0  0  0
    1.1379    1.1103   -0.5331 H   0  0  0  0  0  0  0  0  0  0  0  0
   -1.0341   -1.3891   -2.2055 H   0  0  0  0  0  0  0  0  0  0  0  0
   -0.5501    0.3077   -2.4032 H   0  0  0  0  0  0  0  0  0  0  0  0
   -2.7806   -2.0816   -0.6975 H   0  0  0  0  0  0  0  0  0  0  0  0
   -4.7559   -1.4412    0.5880 H   0  0  0  0  0  0  0  0  0  0  0  0
   -5.0509    0.9374    1.1691 H   0  0  0  0  0  0  0  0  0  0  0  0
   -3.4269    2.6315    0.4906 H   0  0  0  0  0  0  0  0  0  0  0  0
   -1.4206    1.9840   -0.8145 H   0  0  0  0  0  0  0  0  0  0  0  0
  1  2  1  0
  2  3  2  0
  2  4  1  0
  4  5  1  0
  4  6  1  0
  6  7  1  0
  7  8  1  0
  8  9  1  0
  9 10  2  0
 10 11  1  0
 11 12  2  0
 12 13  1  0
 13 14  2  0
 14  9  1  0
  1 15  1  0
  1 16  1  0
  1 17  1  0
  4 18  1  1
  5 19  1  0
  5 20  1  0
  6 21  1  0
  6 22  1  0
  8 23  1  0
  8 24  1  0
 10 25  1  0
 11 26  1  0
 12 27  1  0
 13 28  1  0
 14 29  1  0
M  END
$$$$
