
     RDKit          3D

 39 40  0  0  0  0  0  0  0  0999 V2000
   -1.9531    0.8008    3.5841 C   0  0  0  0  0  0  0  0  0  0  0  0
   -2.6698    0.4862    2.3855 O   0  0  0  0  0  0  0  0  0  0  0  0
   -1.9045   -0.1404    1.3849 C   0  0  0  0  0  0  0  0  0  0  0  0
   -0.5508   -0.4472    1.5139 C   0  0  0  0  0  0  0  0  0  0  0  0
    0.1002   -1.0703    0.4493 C   0  0  0  0  0  0  0  0  0  0  0  0
    1.5427   -1.3709    0.6578 C   0  0  0  0  0  0  0  0  0  0  0  0
    2.4422   -0.2686    0.3128 C   0  0  0  0  0  0  0  0  0  0  0  0
    3.0154    0.5029    1.3274 C   0  0  0  0  0  0  0  0  0  0  0  0
    3.8467    1.5322    1.1351 N   0  0  0  0  0  0  0  0  0  0  0  0
    4.1622    1.8585   -0.1321 C   0  0  0  0  0  0  0  0  0  0  0  0
    5.0370    2.9365   -0.4291 N   0  0  0  0  0  0  0  0  0  0  0  0
    3.6414    1.1532   -1.1362 N   0  0  0  0  0  0  0  0  0  0  0  0
    2.8078    0.1211   -0.9419 C   0  0  0  0  0  0  0  0  0  0  0  0
    2.2962   -0.5807   -2.0455 N   0  0  0  0  0  0  0  0  0  0  0  0
   -0.6270   -1.3509   -0.6753 C   0  0  0  0  0  0  0  0  0  0  0  0
   -1.9665   -1.0455   -0.7985 C   0  0  0  0  0  0  0  0  0  0  0  0
   -2.6708   -1.3494   -1.9636 O   0  0  0  0  0  0  0  0  0  0  0  0
   -2.0836   -1.9754   -3.0769 C   0  0  0  0  0  0  0  0  0  0  0  0
   -2.6251   -0.4300    0.2432 C   0  0  0  0  0  0  0  0  0  0  0  0
   -3.9740   -0.1338    0.0920 O   0  0  0  0  0  0  0  0  0  0  0  0
   -4.2571    1.1465   -0.4605 C   0  0  0  0  0  0  0  0  0  0  0  0
   -2.6495    1.1879    4.3606 H   0  0  0  0  0  0  0  0  0  0  0  0
   -1.4597   -0.1039    3.9990 H   0  0  0  0  0  0  0  0  0  0  0  0
   -1.2398    1.6166    3.3459 H   0  0  0  0  0  0  0  0  0  0  0  0
   -0.1112   -0.1609    2.4704 H   0  0  0  0  0  0  0  0  0  0  0  0
    1.6925   -1.6269    1.7365 H   0  0  0  0  0  0  0  0  0  0  0  0
    1.7756   -2.3165    0.1241 H   0  0  0  0  0  0  0  0  0  0  0  0
    2.7918    0.2794    2.3739 H   0  0  0  0  0  0  0  0  0  0  0  0
    4.7752    3.9545   -0.5477 H   0  0  0  0  0  0  0  0  0  0  0  0
    5.9490    2.4049   -0.4823 H   0  0  0  0  0  0  0  0  0  0  0  0
    1.7434   -0.2520   -2.8934 H   0  0  0  0  0  0  0  0  0  0  0  0
    2.2251   -1.5127   -2.4634 H   0  0  0  0  0  0  0  0  0  0  0  0
   -0.1314   -1.8260   -1.4832 H   0  0  0  0  0  0  0  0  0  0  0  0
   -1.0984   -1.5482   -3.3425 H   0  0  0  0  0  0  0  0  0  0  0  0
   -2.0172   -3.0635   -2.8515 H   0  0  0  0  0  0  0  0  0  0  0  0
   -2.8137   -1.8754   -3.9066 H   0  0  0  0  0  0  0  0  0  0  0  0
   -4.3893    1.0009   -1.5527 H   0  0  0  0  0  0  0  0  0  0  0  0
   -3.4555    1.8862   -0.2502 H   0  0  0  0  0  0  0  0  0  0  0  0
   -5.1963    1.5805   -0.0630 H   0  0  0  0  0  0  0  0  0  0  0  0
  1  2  1  0
  2  3  1  0
  3  4  2  0
  4  5  1  0
  5  6  1  0
  6  7  1  0
  7  8  2  0
  8  9  1  0
  9 10  2  0
 10 11  1  0
 10 12  1  0
 12 13  2  0
 13 14  1  0
  5 15  2  0
 15 16  1  0
 16 17  1  0
 17 18  1  0
 16 19  2  0
 19 20  1  0
 20 21  1  0
 19  3  1  0
 13  7  1  0
  1 22  1  0
  1 23  1  0
  1 24  1  0
  4 25  1  0
  6 26  1  0
  6 27  1  0
  8 28  1  0
 11 29  1  0
 11 30  1  0
 14 31  1  0
 14 32  1  0
 15 33  1  0
 18 34  1  0
 18 35  1  0
 18 36  1  0
 21 37  1  0
 21 38  1  0
 21 39  1  0
M  END
$$$$
