
     RDKit          3D

 55 58  0  0  0  0  0  0  0  0999 V2000
   -5.2574   -1.3585    1.6198 C   0  0  0  0  0  0  0  0  0  0  0  0
   -5.6831   -0.8775    0.2414 C   0  0  0  0  0  0  0  0  0  0  0  0
   -5.4771   -2.0026   -0.7631 C   0  0  0  0  0  0  0  0  0  0  0  0
   -7.0788   -0.5259    0.2298 N   0  0  0  0  0  0  0  0  0  0  0  0
   -7.5780    0.5935   -0.1201 C   0  0  0  0  0  0  0  0  0  0  0  0
   -8.9784    0.8366   -0.0938 N   0  0  0  0  0  0  0  0  0  0  0  0
   -6.7308    1.6336   -0.5483 N   0  0  0  0  0  0  0  0  0  0  0  0
   -5.4710    1.4628   -0.5878 C   0  0  0  0  0  0  0  0  0  0  0  0
   -4.6142    2.5354   -1.0282 N   0  0  0  0  0  0  0  0  0  0  0  0
   -4.8856    0.2269   -0.2029 N   0  0  0  0  0  0  0  0  0  0  0  0
   -3.4600    0.1621   -0.2889 C   0  0  0  0  0  0  0  0  0  0  0  0
   -2.8073   -0.2512   -1.4245 C   0  0  0  0  0  0  0  0  0  0  0  0
   -1.4341   -0.3080   -1.4924 C   0  0  0  0  0  0  0  0  0  0  0  0
   -0.6564    0.0543   -0.4040 C   0  0  0  0  0  0  0  0  0  0  0  0
    0.7305    0.0050   -0.4492 O   0  0  0  0  0  0  0  0  0  0  0  0
    1.4450    0.3922    0.7071 C   0  0  0  0  0  0  0  0  0  0  0  0
    2.9217    0.2676    0.4512 C   0  0  0  0  0  0  0  0  0  0  0  0
    3.5073   -0.9297    0.7434 C   0  0  0  0  0  0  0  0  0  0  0  0
    4.8677   -1.0707    0.5175 C   0  0  0  0  0  0  0  0  0  0  0  0
    5.6266   -0.0376    0.0107 C   0  0  0  0  0  0  0  0  0  0  0  0
    7.0448   -0.1409   -0.2386 C   0  0  0  0  0  0  0  0  0  0  0  0
    7.8109   -0.9471    0.5646 C   0  0  0  0  0  0  0  0  0  0  0  0
    9.1711   -1.0360    0.3133 C   0  0  0  0  0  0  0  0  0  0  0  0
    9.7181   -0.3213   -0.7255 C   0  0  0  0  0  0  0  0  0  0  0  0
    8.9528    0.4935   -1.5396 C   0  0  0  0  0  0  0  0  0  0  0  0
    7.5940    0.5725   -1.2762 C   0  0  0  0  0  0  0  0  0  0  0  0
    5.0023    1.1592   -0.2736 C   0  0  0  0  0  0  0  0  0  0  0  0
    3.6489    1.3072   -0.0515 C   0  0  0  0  0  0  0  0  0  0  0  0
   -1.3371    0.4652    0.7230 C   0  0  0  0  0  0  0  0  0  0  0  0
   -2.7083    0.5253    0.8003 C   0  0  0  0  0  0  0  0  0  0  0  0
   -6.1559   -1.9101    2.0243 H   0  0  0  0  0  0  0  0  0  0  0  0
   -4.4631   -2.1082    1.5238 H   0  0  0  0  0  0  0  0  0  0  0  0
   -5.0268   -0.5362    2.3103 H   0  0  0  0  0  0  0  0  0  0  0  0
   -6.2334   -2.7927   -0.6551 H   0  0  0  0  0  0  0  0  0  0  0  0
   -5.5418   -1.6077   -1.7986 H   0  0  0  0  0  0  0  0  0  0  0  0
   -4.4445   -2.3785   -0.6079 H   0  0  0  0  0  0  0  0  0  0  0  0
   -9.5462    0.9294    0.7592 H   0  0  0  0  0  0  0  0  0  0  0  0
   -9.4585    0.9263   -1.0085 H   0  0  0  0  0  0  0  0  0  0  0  0
   -4.7316    2.8692   -1.9912 H   0  0  0  0  0  0  0  0  0  0  0  0
   -3.9095    2.9577   -0.4113 H   0  0  0  0  0  0  0  0  0  0  0  0
   -3.3719   -0.5427   -2.2964 H   0  0  0  0  0  0  0  0  0  0  0  0
   -0.8953   -0.6294   -2.3730 H   0  0  0  0  0  0  0  0  0  0  0  0
    1.2688    1.4614    0.9522 H   0  0  0  0  0  0  0  0  0  0  0  0
    1.1710   -0.2139    1.5866 H   0  0  0  0  0  0  0  0  0  0  0  0
    2.9444   -1.7844    1.1497 H   0  0  0  0  0  0  0  0  0  0  0  0
    5.3446   -2.0125    0.7440 H   0  0  0  0  0  0  0  0  0  0  0  0
    7.4055   -1.5199    1.3881 H   0  0  0  0  0  0  0  0  0  0  0  0
    9.7615   -1.6771    0.9569 H   0  0  0  0  0  0  0  0  0  0  0  0
   10.7950   -0.4303   -0.8761 H   0  0  0  0  0  0  0  0  0  0  0  0
    9.4182    1.0475   -2.3557 H   0  0  0  0  0  0  0  0  0  0  0  0
    7.0054    1.2133   -1.9203 H   0  0  0  0  0  0  0  0  0  0  0  0
    5.5647    2.0114   -0.6788 H   0  0  0  0  0  0  0  0  0  0  0  0
    3.1184    2.2297   -0.2603 H   0  0  0  0  0  0  0  0  0  0  0  0
   -0.7358    0.7571    1.5982 H   0  0  0  0  0  0  0  0  0  0  0  0
   -3.1674    0.8547    1.7090 H   0  0  0  0  0  0  0  0  0  0  0  0
  1  2  1  0
  2  3  1  0
  2  4  1  0
  4  5  2  0
  5  6  1  0
  5  7  1  0
  7  8  2  0
  8  9  1  0
  8 10  1  0
 10 11  1  0
 11 12  2  0
 12 13  1  0
 13 14  2  0
 14 15  1  0
 15 16  1  0
 16 17  1  0
 17 18  2  0
 18 19  1  0
 19 20  2  0
 20 21  1  0
 21 22  2  0
 22 23  1  0
 23 24  2  0
 24 25  1  0
 25 26  2  0
 20 27  1  0
 27 28  2  0
 14 29  1  0
 29 30  2  0
 10  2  1  0
 30 11  1  0
 28 17  1  0
 26 21  1  0
  1 31  1  0
  1 32  1  0
  1 33  1  0
  3 34  1  0
  3 35  1  0
  3 36  1  0
  6 37  1  0
  6 38  1  0
  9 39  1  0
  9 40  1  0
 12 41  1  0
 13 42  1  0
 16 43  1  0
 16 44  1  0
 18 45  1  0
 19 46  1  0
 22 47  1  0
 23 48  1  0
 24 49  1  0
 25 50  1  0
 26 51  1  0
 27 52  1  0
 28 53  1  0
 29 54  1  0
 30 55  1  0
M  END
$$$$
