
     RDKit          3D

 46 49  0  0  0  0  0  0  0  0999 V2000
   -4.6636   -0.7370    3.1996 N   0  0  0  0  0  0  0  0  0  0  0  0
   -4.5715   -0.3230    2.1020 C   0  0  0  0  0  0  0  0  0  0  0  0
   -4.4674    0.1810    0.7186 C   0  0  1  0  0  0  0  0  0  0  0  0
   -5.5237    1.2519    0.5272 C   0  0  0  0  0  0  0  0  0  0  0  0
   -5.2601    2.0374   -0.7417 C   0  0  0  0  0  0  0  0  0  0  0  0
   -4.1168    1.5373   -1.4033 O   0  0  0  0  0  0  0  0  0  0  0  0
   -3.0472    1.8337   -0.5417 C   0  0  0  0  0  0  0  0  0  0  0  0
   -3.1274    0.8312    0.5893 C   0  0  2  0  0  0  0  0  0  0  0  0
   -2.0984   -0.1754    0.3116 N   0  0  0  0  0  0  0  0  0  0  0  0
   -2.0175   -1.0243   -0.7024 C   0  0  0  0  0  0  0  0  0  0  0  0
   -0.8812   -1.7849   -0.5594 C   0  0  0  0  0  0  0  0  0  0  0  0
   -0.3786   -2.8455   -1.4252 C   0  0  0  0  0  0  0  0  0  0  0  0
   -1.0518   -3.2477   -2.6061 N   0  0  0  0  0  0  0  0  0  0  0  0
    0.6882   -3.4417   -1.1369 O   0  0  0  0  0  0  0  0  0  0  0  0
   -0.2877   -1.3482    0.5901 C   0  0  0  0  0  0  0  0  0  0  0  0
    0.9388   -1.8209    1.1862 N   0  0  0  0  0  0  0  0  0  0  0  0
    2.1049   -1.0886    0.9107 C   0  0  0  0  0  0  0  0  0  0  0  0
    3.3058   -1.5569    1.3961 C   0  0  0  0  0  0  0  0  0  0  0  0
    4.4579   -0.8765    1.1669 C   0  0  0  0  0  0  0  0  0  0  0  0
    4.4923    0.3028    0.4471 C   0  0  0  0  0  0  0  0  0  0  0  0
    5.7058    1.0078    0.2220 N   0  0  0  0  0  0  0  0  0  0  0  0
    6.5033    1.0645   -0.8555 C   0  0  0  0  0  0  0  0  0  0  0  0
    7.5856    1.8924   -0.5979 C   0  0  0  0  0  0  0  0  0  0  0  0
    7.3914    2.3176    0.6701 N   0  0  0  0  0  0  0  0  0  0  0  0
    6.2749    1.7813    1.1319 N   0  0  0  0  0  0  0  0  0  0  0  0
    3.2934    0.7771   -0.0423 C   0  0  0  0  0  0  0  0  0  0  0  0
    2.1142    0.0831    0.1906 C   0  0  0  0  0  0  0  0  0  0  0  0
   -1.0589   -0.3712    1.0864 N   0  0  0  0  0  0  0  0  0  0  0  0
   -4.5804   -0.6497   -0.0126 H   0  0  0  0  0  0  0  0  0  0  0  0
   -5.4187    1.9345    1.4217 H   0  0  0  0  0  0  0  0  0  0  0  0
   -6.5341    0.7904    0.5146 H   0  0  0  0  0  0  0  0  0  0  0  0
   -5.0403    3.0997   -0.4703 H   0  0  0  0  0  0  0  0  0  0  0  0
   -6.1167    1.9823   -1.4566 H   0  0  0  0  0  0  0  0  0  0  0  0
   -3.1561    2.8679   -0.1899 H   0  0  0  0  0  0  0  0  0  0  0  0
   -2.0632    1.7858   -1.0756 H   0  0  0  0  0  0  0  0  0  0  0  0
   -2.9174    1.3500    1.5455 H   0  0  0  0  0  0  0  0  0  0  0  0
   -2.7387   -1.0965   -1.5066 H   0  0  0  0  0  0  0  0  0  0  0  0
   -0.4863   -3.4841   -3.4421 H   0  0  0  0  0  0  0  0  0  0  0  0
   -2.1032   -3.3010   -2.6226 H   0  0  0  0  0  0  0  0  0  0  0  0
    0.9389   -2.6632    1.7866 H   0  0  0  0  0  0  0  0  0  0  0  0
    3.3362   -2.4910    1.9734 H   0  0  0  0  0  0  0  0  0  0  0  0
    5.3889   -1.2555    1.5520 H   0  0  0  0  0  0  0  0  0  0  0  0
    6.2902    0.5241   -1.7678 H   0  0  0  0  0  0  0  0  0  0  0  0
    8.4045    2.1467   -1.2549 H   0  0  0  0  0  0  0  0  0  0  0  0
    3.3079    1.7047   -0.6097 H   0  0  0  0  0  0  0  0  0  0  0  0
    1.1835    0.4980   -0.2191 H   0  0  0  0  0  0  0  0  0  0  0  0
  1  2  3  0
  2  3  1  0
  3  4  1  0
  4  5  1  0
  5  6  1  0
  6  7  1  0
  7  8  1  0
  8  9  1  0
  9 10  1  0
 10 11  2  0
 11 12  1  0
 12 13  1  0
 12 14  2  0
 11 15  1  0
 15 16  1  0
 16 17  1  0
 17 18  2  0
 18 19  1  0
 19 20  2  0
 20 21  1  0
 21 22  1  0
 22 23  2  0
 23 24  1  0
 24 25  2  0
 20 26  1  0
 26 27  2  0
 15 28  2  0
  8  3  1  0
 28  9  1  0
 27 17  1  0
 25 21  1  0
  3 29  1  6
  4 30  1  0
  4 31  1  0
  5 32  1  0
  5 33  1  0
  7 34  1  0
  7 35  1  0
  8 36  1  1
 10 37  1  0
 13 38  1  0
 13 39  1  0
 16 40  1  0
 18 41  1  0
 19 42  1  0
 22 43  1  0
 23 44  1  0
 26 45  1  0
 27 46  1  0
M  END
$$$$
