
     RDKit          3D

 77 81  0  0  0  0  0  0  0  0999 V2000
   -4.8779    2.0329   -0.9297 C   0  0  0  0  0  0  0  0  0  0  0  0
   -4.3664    0.6139   -0.9939 C   0  0  0  0  0  0  0  0  0  0  0  0
   -3.6504    0.2798    0.3769 C   0  0  2  0  0  0  0  0  0  0  0  0
   -4.7764    0.6104    1.2919 N   0  0  0  0  0  0  0  0  0  0  0  0
   -5.9586   -0.1697    1.1330 C   0  0  0  0  0  0  0  0  0  0  0  0
   -5.9284   -1.3349    0.3283 N   0  0  0  0  0  0  0  0  0  0  0  0
   -7.0721   -2.0707    0.2291 C   0  0  0  0  0  0  0  0  0  0  0  0
   -7.1233   -3.2886   -0.4956 N   0  0  0  0  0  0  0  0  0  0  0  0
   -8.2006   -1.7062    0.8610 N   0  0  0  0  0  0  0  0  0  0  0  0
   -8.2611   -0.6234    1.6116 C   0  0  0  0  0  0  0  0  0  0  0  0
   -9.4889   -0.1678    2.1455 N   0  0  0  0  0  0  0  0  0  0  0  0
   -7.1086    0.1328    1.7394 C   0  0  0  0  0  0  0  0  0  0  0  0
   -7.1950    1.2009    2.7301 C   0  0  0  0  0  0  0  0  0  0  0  0
   -7.2779    2.0557    3.5425 N   0  0  0  0  0  0  0  0  0  0  0  0
   -2.4516    1.1011    0.4924 C   0  0  0  0  0  0  0  0  0  0  0  0
   -2.5916    2.4721    0.7654 N   0  0  0  0  0  0  0  0  0  0  0  0
   -1.4923    3.2913    0.7933 C   0  0  0  0  0  0  0  0  0  0  0  0
   -1.5647    4.6912    0.9168 C   0  0  0  0  0  0  0  0  0  0  0  0
   -0.4169    5.4387    0.8072 C   0  0  0  0  0  0  0  0  0  0  0  0
    0.8404    4.8781    0.5837 C   0  0  0  0  0  0  0  0  0  0  0  0
    0.9361    3.5176    0.4544 C   0  0  0  0  0  0  0  0  0  0  0  0
    2.0417    2.8928    0.0229 C   0  0  0  0  0  0  0  0  0  0  0  0
    3.1800    2.2360   -0.4286 C   0  0  0  0  0  0  0  0  0  0  0  0
    4.3829    1.5255   -0.9236 C   0  0  0  0  0  0  0  0  0  0  0  0
    3.8457    0.2000   -1.4907 C   0  0  0  0  0  0  0  0  0  0  0  0
    4.9509   -0.7601   -1.7924 C   0  0  0  0  0  0  0  0  0  0  0  0
    5.6064   -1.2505   -0.5974 C   0  0  0  0  0  0  0  0  0  0  0  0
    4.9576   -0.9850    0.5700 O   0  0  0  0  0  0  0  0  0  0  0  0
    6.7695   -1.9373   -0.3937 N   0  0  0  0  0  0  0  0  0  0  0  0
    7.2579   -2.4298    0.9169 C   0  0  0  0  0  0  0  0  0  0  0  0
    8.7210   -2.1174    1.0067 C   0  0  0  0  0  0  0  0  0  0  0  0
    9.0175   -1.0737    0.1625 O   0  0  0  0  0  0  0  0  0  0  0  0
    8.9851   -1.5155   -1.1472 C   0  0  0  0  0  0  0  0  0  0  0  0
    7.7433   -2.2896   -1.4771 C   0  0  0  0  0  0  0  0  0  0  0  0
   -0.2426    2.7742    0.5594 C   0  0  0  0  0  0  0  0  0  0  0  0
   -0.2356    1.4287    0.3170 C   0  0  0  0  0  0  0  0  0  0  0  0
    0.9128    0.9070    0.0977 O   0  0  0  0  0  0  0  0  0  0  0  0
   -1.2619    0.5809    0.2656 N   0  0  0  0  0  0  0  0  0  0  0  0
   -0.9364   -0.7133   -0.2332 C   0  0  0  0  0  0  0  0  0  0  0  0
   -0.3989   -1.7726    0.4102 C   0  0  0  0  0  0  0  0  0  0  0  0
    0.1140   -2.9066   -0.2416 C   0  0  0  0  0  0  0  0  0  0  0  0
    0.0924   -2.9797   -1.6504 C   0  0  0  0  0  0  0  0  0  0  0  0
   -0.4490   -1.9072   -2.2641 C   0  0  0  0  0  0  0  0  0  0  0  0
   -0.9622   -0.8122   -1.6885 C   0  0  0  0  0  0  0  0  0  0  0  0
   -4.0950    2.7949   -0.9661 H   0  0  0  0  0  0  0  0  0  0  0  0
   -5.6469    2.1859   -1.7418 H   0  0  0  0  0  0  0  0  0  0  0  0
   -5.4564    2.1295    0.0282 H   0  0  0  0  0  0  0  0  0  0  0  0
   -3.5924    0.5955   -1.7772 H   0  0  0  0  0  0  0  0  0  0  0  0
   -5.1416   -0.0791   -1.1530 H   0  0  0  0  0  0  0  0  0  0  0  0
   -3.4646   -0.7752    0.3938 H   0  0  0  0  0  0  0  0  0  0  0  0
   -4.6694    1.3181    1.9985 H   0  0  0  0  0  0  0  0  0  0  0  0
   -6.3112   -3.9233   -0.5211 H   0  0  0  0  0  0  0  0  0  0  0  0
   -8.0290   -3.5056   -1.0008 H   0  0  0  0  0  0  0  0  0  0  0  0
   -9.8395   -0.3174    3.0852 H   0  0  0  0  0  0  0  0  0  0  0  0
  -10.0749    0.4287    1.4475 H   0  0  0  0  0  0  0  0  0  0  0  0
   -2.5311    5.1456    1.0689 H   0  0  0  0  0  0  0  0  0  0  0  0
   -0.4958    6.5515    0.8599 H   0  0  0  0  0  0  0  0  0  0  0  0
    1.6944    5.4735    0.4801 H   0  0  0  0  0  0  0  0  0  0  0  0
    5.0261    1.2644   -0.0722 H   0  0  0  0  0  0  0  0  0  0  0  0
    4.9134    2.1332   -1.6391 H   0  0  0  0  0  0  0  0  0  0  0  0
    3.2137   -0.3212   -0.7221 H   0  0  0  0  0  0  0  0  0  0  0  0
    3.1800    0.3678   -2.3678 H   0  0  0  0  0  0  0  0  0  0  0  0
    5.6452   -0.1982   -2.4781 H   0  0  0  0  0  0  0  0  0  0  0  0
    4.5899   -1.6406   -2.4075 H   0  0  0  0  0  0  0  0  0  0  0  0
    7.1333   -3.5591    0.9186 H   0  0  0  0  0  0  0  0  0  0  0  0
    6.6250   -2.0146    1.7103 H   0  0  0  0  0  0  0  0  0  0  0  0
    9.0229   -1.9296    2.0734 H   0  0  0  0  0  0  0  0  0  0  0  0
    9.3090   -3.0213    0.6565 H   0  0  0  0  0  0  0  0  0  0  0  0
    8.9881   -0.5652   -1.7737 H   0  0  0  0  0  0  0  0  0  0  0  0
    9.9443   -2.0197   -1.4249 H   0  0  0  0  0  0  0  0  0  0  0  0
    7.8827   -3.3726   -1.4413 H   0  0  0  0  0  0  0  0  0  0  0  0
    7.3025   -1.9929   -2.4312 H   0  0  0  0  0  0  0  0  0  0  0  0
   -0.3759   -1.7362    1.5083 H   0  0  0  0  0  0  0  0  0  0  0  0
    0.5275   -3.7065    0.3127 H   0  0  0  0  0  0  0  0  0  0  0  0
    0.5059   -3.8142   -2.1597 H   0  0  0  0  0  0  0  0  0  0  0  0
   -0.4576   -1.9816   -3.4059 H   0  0  0  0  0  0  0  0  0  0  0  0
   -1.3890    0.0353   -2.1686 H   0  0  0  0  0  0  0  0  0  0  0  0
  1  2  1  0
  2  3  1  0
  3  4  1  0
  4  5  1  0
  5  6  2  0
  6  7  1  0
  7  8  1  0
  7  9  2  0
  9 10  1  0
 10 11  1  0
 10 12  2  0
 12 13  1  0
 13 14  3  0
  3 15  1  0
 15 16  2  0
 16 17  1  0
 17 18  2  0
 18 19  1  0
 19 20  2  0
 20 21  1  0
 21 22  1  0
 22 23  3  0
 23 24  1  0
 24 25  1  0
 25 26  1  0
 26 27  1  0
 27 28  2  0
 27 29  1  0
 29 30  1  0
 30 31  1  0
 31 32  1  0
 32 33  1  0
 33 34  1  0
 21 35  2  0
 35 36  1  0
 36 37  2  0
 36 38  1  0
 38 39  1  0
 39 40  2  0
 40 41  1  0
 41 42  2  0
 42 43  1  0
 43 44  2  0
 12  5  1  0
 38 15  1  0
 44 39  1  0
 35 17  1  0
 34 29  1  0
  1 45  1  0
  1 46  1  0
  1 47  1  0
  2 48  1  0
  2 49  1  0
  3 50  1  6
  4 51  1  0
  8 52  1  0
  8 53  1  0
 11 54  1  0
 11 55  1  0
 18 56  1  0
 19 57  1  0
 20 58  1  0
 24 59  1  0
 24 60  1  0
 25 61  1  0
 25 62  1  0
 26 63  1  0
 26 64  1  0
 30 65  1  0
 30 66  1  0
 31 67  1  0
 31 68  1  0
 33 69  1  0
 33 70  1  0
 34 71  1  0
 34 72  1  0
 40 73  1  0
 41 74  1  0
 42 75  1  0
 43 76  1  0
 44 77  1  0
M  END
$$$$
