
     RDKit          3D

 33 34  0  0  0  0  0  0  0  0999 V2000
   -5.0910    2.9733    0.0028 O   0  0  0  0  0  0  0  0  0  0  0  0
   -5.2042    1.7753    0.1876 N   0  0  0  0  0  0  0  0  0  0  0  0
   -4.2563    0.8210    0.0128 C   0  0  0  0  0  0  0  0  0  0  0  0
   -3.0184    1.1583   -0.1208 O   0  0  0  0  0  0  0  0  0  0  0  0
   -4.5783   -0.6801    0.0381 C   0  0  0  0  0  0  0  0  0  0  0  0
   -3.4350   -1.2491   -0.4730 N   0  0  0  0  0  0  0  0  0  0  0  0
   -2.6926   -2.2401    0.7017 S   0  0  0  0  0  0  0  0  0  0  0  0
   -2.4890   -3.5492    0.6970 O   0  0  0  0  0  0  0  0  0  0  0  0
   -3.1206   -1.6084    2.1012 O   0  0  0  0  0  0  0  0  0  0  0  0
   -1.0262   -1.3457    0.5559 C   0  0  0  0  0  0  0  0  0  0  0  0
   -0.5323   -0.2342    1.2629 C   0  0  0  0  0  0  0  0  0  0  0  0
    0.5585    0.2891    0.9307 C   0  0  0  0  0  0  0  0  0  0  0  0
    1.4283   -0.0781    0.0274 C   0  0  0  0  0  0  0  0  0  0  0  0
    1.0284   -1.2068   -0.7674 C   0  0  0  0  0  0  0  0  0  0  0  0
   -0.2068   -1.7333   -0.4746 C   0  0  0  0  0  0  0  0  0  0  0  0
    2.7815    0.5959   -0.1270 C   0  0  0  0  0  0  0  0  0  0  0  0
    2.8054    1.8157   -0.3695 C   0  0  0  0  0  0  0  0  0  0  0  0
    4.0639    2.4102   -0.6130 C   0  0  0  0  0  0  0  0  0  0  0  0
    5.1714    1.5594   -0.5186 C   0  0  0  0  0  0  0  0  0  0  0  0
    5.0874    0.2174   -0.2007 C   0  0  0  0  0  0  0  0  0  0  0  0
    3.7609   -0.2720    0.0006 C   0  0  0  0  0  0  0  0  0  0  0  0
   -5.3771   -0.6395   -0.9041 H   0  0  0  0  0  0  0  0  0  0  0  0
   -5.0845   -0.9670    0.8350 H   0  0  0  0  0  0  0  0  0  0  0  0
   -3.1196   -1.3170   -1.4071 H   0  0  0  0  0  0  0  0  0  0  0  0
   -1.1422   -0.0021    2.1555 H   0  0  0  0  0  0  0  0  0  0  0  0
    0.6965    1.4027    1.2700 H   0  0  0  0  0  0  0  0  0  0  0  0
    1.7139   -1.6707   -1.4518 H   0  0  0  0  0  0  0  0  0  0  0  0
   -0.6529   -2.4145   -1.2735 H   0  0  0  0  0  0  0  0  0  0  0  0
    1.9540    2.4678   -0.4133 H   0  0  0  0  0  0  0  0  0  0  0  0
    4.1363    3.4275   -0.8506 H   0  0  0  0  0  0  0  0  0  0  0  0
    6.1223    1.9221   -1.0360 H   0  0  0  0  0  0  0  0  0  0  0  0
    5.9961   -0.2951    0.0065 H   0  0  0  0  0  0  0  0  0  0  0  0
    3.7224   -1.3328    0.1860 H   0  0  0  0  0  0  0  0  0  0  0  0
  1  2  2  0
  2  3  1  0
  3  4  2  0
  3  5  1  0
  5  6  1  0
  6  7  1  0
  7  8  2  0
  7  9  2  0
  7 10  1  0
 10 11  2  0
 11 12  1  0
 12 13  2  0
 13 14  1  0
 14 15  2  0
 13 16  1  0
 16 17  2  0
 17 18  1  0
 18 19  2  0
 19 20  1  0
 20 21  2  0
 15 10  1  0
 21 16  1  0
  5 22  1  0
  5 23  1  0
  6 24  1  0
 11 25  1  0
 12 26  1  0
 14 27  1  0
 15 28  1  0
 17 29  1  0
 18 30  1  0
 19 31  1  0
 20 32  1  0
 21 33  1  0
M  END
$$$$
