
     RDKit          3D

 66 71  0  0  0  0  0  0  0  0999 V2000
   -6.4400    1.1456   -1.0530 C   0  0  0  0  0  0  0  0  0  0  0  0
   -5.9915    1.6586    0.2632 C   0  0  0  0  0  0  0  0  0  0  0  0
   -6.5263    2.7865    0.8595 C   0  0  0  0  0  0  0  0  0  0  0  0
   -6.0755    3.2328    2.0944 C   0  0  0  0  0  0  0  0  0  0  0  0
   -5.0736    2.4918    2.6828 C   0  0  0  0  0  0  0  0  0  0  0  0
   -4.5660    1.4025    2.0934 N   0  0  0  0  0  0  0  0  0  0  0  0
   -4.9912    0.9507    0.8909 C   0  0  0  0  0  0  0  0  0  0  0  0
   -4.3662   -0.2446    0.3472 C   0  0  0  0  0  0  0  0  0  0  0  0
   -3.4290   -0.0348   -0.6997 N   0  0  0  0  0  0  0  0  0  0  0  0
   -2.8789   -1.3134   -1.1529 C   0  0  0  0  0  0  0  0  0  0  0  0
   -1.5235   -1.0901   -1.8198 C   0  0  0  0  0  0  0  0  0  0  0  0
   -0.5252   -0.8908   -0.6977 C   0  0  0  0  0  0  0  0  0  0  0  0
   -1.2415   -0.2094    0.4337 C   0  0  0  0  0  0  0  0  0  0  0  0
   -2.2977    0.6987   -0.1582 C   0  0  0  0  0  0  0  0  0  0  0  0
    0.6119   -0.0427   -1.1185 C   0  0  0  0  0  0  0  0  0  0  0  0
    0.6227    0.9066   -1.9568 O   0  0  0  0  0  0  0  0  0  0  0  0
    1.7521   -0.4800   -0.3993 N   0  0  0  0  0  0  0  0  0  0  0  0
    3.0029    0.2172   -0.2015 C   0  0  0  0  0  0  0  0  0  0  0  0
    3.2339    1.0550    0.8596 C   0  0  0  0  0  0  0  0  0  0  0  0
    4.4332    1.7025    1.0237 C   0  0  0  0  0  0  0  0  0  0  0  0
    5.4409    1.5218    0.1147 C   0  0  0  0  0  0  0  0  0  0  0  0
    6.6975    2.2130    0.3109 C   0  0  0  0  0  0  0  0  0  0  0  0
    7.8650    1.6047   -0.1375 C   0  0  0  0  0  0  0  0  0  0  0  0
    9.0378    2.2533    0.0461 N   0  0  0  0  0  0  0  0  0  0  0  0
    9.0618    3.4537    0.6472 C   0  0  0  0  0  0  0  0  0  0  0  0
   10.1637    4.0317    0.8036 O   0  0  0  0  0  0  0  0  0  0  0  0
    7.9377    4.0508    1.0847 N   0  0  0  0  0  0  0  0  0  0  0  0
    6.7433    3.4410    0.9232 C   0  0  0  0  0  0  0  0  0  0  0  0
    5.2367    0.6889   -0.9571 C   0  0  0  0  0  0  0  0  0  0  0  0
    4.0278    0.0371   -1.1210 C   0  0  0  0  0  0  0  0  0  0  0  0
    1.4218   -1.7760    0.1008 C   0  0  0  0  0  0  0  0  0  0  0  0
    2.2326   -2.4668    0.8022 O   0  0  0  0  0  0  0  0  0  0  0  0
    0.1051   -2.1211   -0.3081 N   0  0  0  0  0  0  0  0  0  0  0  0
   -0.3689   -3.4610   -0.2870 C   0  0  0  0  0  0  0  0  0  0  0  0
   -0.2431   -4.3162   -1.3601 C   0  0  0  0  0  0  0  0  0  0  0  0
   -0.6947   -5.6178   -1.3581 C   0  0  0  0  0  0  0  0  0  0  0  0
   -0.5528   -6.3502   -2.3641 O   0  0  0  0  0  0  0  0  0  0  0  0
   -1.2980   -6.0725   -0.2245 N   0  0  0  0  0  0  0  0  0  0  0  0
   -1.4308   -5.2555    0.8326 C   0  0  0  0  0  0  0  0  0  0  0  0
   -0.9820   -3.9818    0.8131 N   0  0  0  0  0  0  0  0  0  0  0  0
   -5.7030    1.3367   -1.8611 H   0  0  0  0  0  0  0  0  0  0  0  0
   -7.3485    1.7408   -1.3457 H   0  0  0  0  0  0  0  0  0  0  0  0
   -6.7773    0.0981   -1.0106 H   0  0  0  0  0  0  0  0  0  0  0  0
   -7.3121    3.3405    0.3638 H   0  0  0  0  0  0  0  0  0  0  0  0
   -6.4794    4.1114    2.5769 H   0  0  0  0  0  0  0  0  0  0  0  0
   -4.6992    2.8199    3.6582 H   0  0  0  0  0  0  0  0  0  0  0  0
   -5.2052   -0.8793   -0.0728 H   0  0  0  0  0  0  0  0  0  0  0  0
   -3.9738   -0.8637    1.1847 H   0  0  0  0  0  0  0  0  0  0  0  0
   -2.7383   -2.0163   -0.3258 H   0  0  0  0  0  0  0  0  0  0  0  0
   -3.5208   -1.7815   -1.9224 H   0  0  0  0  0  0  0  0  0  0  0  0
   -1.2774   -1.9871   -2.3923 H   0  0  0  0  0  0  0  0  0  0  0  0
   -1.5432   -0.2273   -2.5080 H   0  0  0  0  0  0  0  0  0  0  0  0
   -1.7706   -0.9319    1.1051 H   0  0  0  0  0  0  0  0  0  0  0  0
   -0.5811    0.3802    1.0895 H   0  0  0  0  0  0  0  0  0  0  0  0
   -1.7918    1.2749   -0.9748 H   0  0  0  0  0  0  0  0  0  0  0  0
   -2.6271    1.4655    0.5758 H   0  0  0  0  0  0  0  0  0  0  0  0
    2.4020    1.1752    1.5689 H   0  0  0  0  0  0  0  0  0  0  0  0
    4.5803    2.3492    1.8636 H   0  0  0  0  0  0  0  0  0  0  0  0
    7.8369    0.6327   -0.6228 H   0  0  0  0  0  0  0  0  0  0  0  0
    7.9693    4.9898    1.5539 H   0  0  0  0  0  0  0  0  0  0  0  0
    5.8281    3.8986    1.2641 H   0  0  0  0  0  0  0  0  0  0  0  0
    6.0574    0.5719   -1.6526 H   0  0  0  0  0  0  0  0  0  0  0  0
    3.8579   -0.6231   -1.9647 H   0  0  0  0  0  0  0  0  0  0  0  0
    0.2349   -3.9540   -2.2575 H   0  0  0  0  0  0  0  0  0  0  0  0
   -1.6272   -7.0582   -0.2529 H   0  0  0  0  0  0  0  0  0  0  0  0
   -1.9232   -5.6826    1.7073 H   0  0  0  0  0  0  0  0  0  0  0  0
  1  2  1  0
  2  3  2  0
  3  4  1  0
  4  5  2  0
  5  6  1  0
  6  7  2  0
  7  8  1  0
  8  9  1  0
  9 10  1  0
 10 11  1  0
 11 12  1  0
 12 13  1  0
 13 14  1  0
 12 15  1  0
 15 16  2  0
 15 17  1  0
 17 18  1  0
 18 19  2  0
 19 20  1  0
 20 21  2  0
 21 22  1  0
 22 23  1  0
 23 24  2  0
 24 25  1  0
 25 26  2  0
 25 27  1  0
 27 28  1  0
 21 29  1  0
 29 30  2  0
 17 31  1  0
 31 32  2  0
 31 33  1  0
 33 34  1  0
 34 35  2  0
 35 36  1  0
 36 37  2  0
 36 38  1  0
 38 39  1  0
 39 40  2  0
  7  2  1  0
 14  9  1  0
 30 18  1  0
 40 34  1  0
 33 12  1  0
 28 22  2  0
  1 41  1  0
  1 42  1  0
  1 43  1  0
  3 44  1  0
  4 45  1  0
  5 46  1  0
  8 47  1  0
  8 48  1  0
 10 49  1  0
 10 50  1  0
 11 51  1  0
 11 52  1  0
 13 53  1  0
 13 54  1  0
 14 55  1  0
 14 56  1  0
 19 57  1  0
 20 58  1  0
 23 59  1  0
 27 60  1  0
 28 61  1  0
 29 62  1  0
 30 63  1  0
 35 64  1  0
 38 65  1  0
 39 66  1  0
M  END
$$$$
