
     RDKit          3D

 30 31  0  0  0  0  0  0  0  0999 V2000
    4.1459   -0.1442    1.2430 C   0  0  0  0  0  0  0  0  0  0  0  0
    3.1114    0.3167    0.2748 C   0  0  0  0  0  0  0  0  0  0  0  0
    3.3370    1.4452   -0.5079 C   0  0  0  0  0  0  0  0  0  0  0  0
    2.4081    1.9058   -1.4151 C   0  0  0  0  0  0  0  0  0  0  0  0
    1.2152    1.2442   -1.5669 C   0  0  0  0  0  0  0  0  0  0  0  0
   -0.0262    1.7488   -2.6897 Cl  0  0  0  0  0  0  0  0  0  0  0  0
    0.9884    0.1176   -0.7865 C   0  0  0  0  0  0  0  0  0  0  0  0
   -0.2552   -0.6128   -0.9119 N   0  0  0  0  0  0  0  0  0  0  0  0
   -1.3433   -0.2470   -0.0945 C   0  0  0  0  0  0  0  0  0  0  0  0
   -1.1618    0.8222    0.8119 C   0  0  0  0  0  0  0  0  0  0  0  0
   -2.1853    1.2219    1.6321 C   0  0  0  0  0  0  0  0  0  0  0  0
   -3.3800    0.5541    1.5428 C   0  0  0  0  0  0  0  0  0  0  0  0
   -3.5809   -0.4922    0.6660 C   0  0  0  0  0  0  0  0  0  0  0  0
   -2.5398   -0.8984   -0.1680 C   0  0  0  0  0  0  0  0  0  0  0  0
   -2.7986   -1.9957   -1.0664 C   0  0  0  0  0  0  0  0  0  0  0  0
   -2.0078   -2.5070   -1.8871 O   0  0  0  0  0  0  0  0  0  0  0  0
   -4.0748   -2.6226   -1.0820 O   0  0  0  0  0  0  0  0  0  0  0  0
    1.9011   -0.3417    0.1104 C   0  0  0  0  0  0  0  0  0  0  0  0
    1.6001   -1.7707    1.0926 Cl  0  0  0  0  0  0  0  0  0  0  0  0
    3.7244   -0.9685    1.8290 H   0  0  0  0  0  0  0  0  0  0  0  0
    4.9884   -0.5325    0.6377 H   0  0  0  0  0  0  0  0  0  0  0  0
    4.4756    0.7121    1.8723 H   0  0  0  0  0  0  0  0  0  0  0  0
    4.2553    1.9779   -0.4099 H   0  0  0  0  0  0  0  0  0  0  0  0
    2.5668    2.7807   -2.0312 H   0  0  0  0  0  0  0  0  0  0  0  0
   -0.2193   -1.3588   -1.6161 H   0  0  0  0  0  0  0  0  0  0  0  0
   -0.2052    1.3236    0.8528 H   0  0  0  0  0  0  0  0  0  0  0  0
   -2.0164    2.0545    2.3259 H   0  0  0  0  0  0  0  0  0  0  0  0
   -4.2061    0.8428    2.1735 H   0  0  0  0  0  0  0  0  0  0  0  0
   -4.5241   -1.0113    0.6030 H   0  0  0  0  0  0  0  0  0  0  0  0
   -4.1930   -3.5646   -1.4348 H   0  0  0  0  0  0  0  0  0  0  0  0
  1  2  1  0
  2  3  2  0
  3  4  1  0
  4  5  2  0
  5  6  1  0
  5  7  1  0
  7  8  1  0
  8  9  1  0
  9 10  2  0
 10 11  1  0
 11 12  2  0
 12 13  1  0
 13 14  2  0
 14 15  1  0
 15 16  2  0
 15 17  1  0
  7 18  2  0
 18 19  1  0
 18  2  1  0
 14  9  1  0
  1 20  1  0
  1 21  1  0
  1 22  1  0
  3 23  1  0
  4 24  1  0
  8 25  1  0
 10 26  1  0
 11 27  1  0
 12 28  1  0
 13 29  1  0
 17 30  1  0
M  END
$$$$
