
     RDKit          3D

 35 38  0  0  0  0  0  0  0  0999 V2000
   -1.0357   -3.4393   -0.6796 C   0  0  0  0  0  0  0  0  0  0  0  0
    0.1983   -2.6660   -0.6881 N   0  0  0  0  0  0  0  0  0  0  0  0
    1.3940   -3.2129   -0.9051 C   0  0  0  0  0  0  0  0  0  0  0  0
    2.2711   -2.2094   -0.8381 N   0  0  0  0  0  0  0  0  0  0  0  0
    1.6433   -1.0312   -0.5807 C   0  0  0  0  0  0  0  0  0  0  0  0
    2.2641    0.2810   -0.4350 C   0  0  0  0  0  0  0  0  0  0  0  0
    2.1110    1.2951   -1.3513 C   0  0  0  0  0  0  0  0  0  0  0  0
    2.7353    2.5312   -1.1386 C   0  0  0  0  0  0  0  0  0  0  0  0
    3.5024    2.7454   -0.0222 C   0  0  0  0  0  0  0  0  0  0  0  0
    4.0881    3.9299    0.1611 F   0  0  0  0  0  0  0  0  0  0  0  0
    3.6612    1.7412    0.8966 C   0  0  0  0  0  0  0  0  0  0  0  0
    4.6410    1.9807    2.3443 Cl  0  0  0  0  0  0  0  0  0  0  0  0
    3.0435    0.5328    0.6768 C   0  0  0  0  0  0  0  0  0  0  0  0
    0.3159   -1.3302   -0.4858 C   0  0  0  0  0  0  0  0  0  0  0  0
   -0.8198   -0.4340   -0.2205 C   0  0  0  0  0  0  0  0  0  0  0  0
   -1.2320    0.4524   -1.1815 C   0  0  0  0  0  0  0  0  0  0  0  0
   -2.3001    1.3082   -0.9402 C   0  0  0  0  0  0  0  0  0  0  0  0
   -2.9365    1.2509    0.2779 C   0  0  0  0  0  0  0  0  0  0  0  0
   -3.9927    1.9673    0.7620 N   0  0  0  0  0  0  0  0  0  0  0  0
   -4.2574    1.5502    2.0128 C   0  0  0  0  0  0  0  0  0  0  0  0
   -3.3360    0.5610    2.2806 C   0  0  0  0  0  0  0  0  0  0  0  0
   -2.5157    0.3682    1.2163 N   0  0  0  0  0  0  0  0  0  0  0  0
   -1.4832   -0.4583    0.9817 C   0  0  0  0  0  0  0  0  0  0  0  0
   -1.0860   -3.9389   -1.6796 H   0  0  0  0  0  0  0  0  0  0  0  0
   -0.9847   -4.2604    0.0771 H   0  0  0  0  0  0  0  0  0  0  0  0
   -1.8889   -2.7697   -0.5375 H   0  0  0  0  0  0  0  0  0  0  0  0
    1.5994   -4.2545   -1.0950 H   0  0  0  0  0  0  0  0  0  0  0  0
    1.5152    1.1473   -2.2400 H   0  0  0  0  0  0  0  0  0  0  0  0
    2.5804    3.2979   -1.8949 H   0  0  0  0  0  0  0  0  0  0  0  0
    3.1858   -0.2473    1.4219 H   0  0  0  0  0  0  0  0  0  0  0  0
   -0.7650    0.5233   -2.1452 H   0  0  0  0  0  0  0  0  0  0  0  0
   -2.6489    2.0165   -1.6737 H   0  0  0  0  0  0  0  0  0  0  0  0
   -5.0386    1.9131    2.6862 H   0  0  0  0  0  0  0  0  0  0  0  0
   -3.2660    0.0081    3.2056 H   0  0  0  0  0  0  0  0  0  0  0  0
   -1.1626   -1.1496    1.7319 H   0  0  0  0  0  0  0  0  0  0  0  0
  1  2  1  0
  2  3  1  0
  3  4  2  0
  4  5  1  0
  5  6  1  0
  6  7  2  0
  7  8  1  0
  8  9  2  0
  9 10  1  0
  9 11  1  0
 11 12  1  0
 11 13  2  0
  5 14  2  0
 14 15  1  0
 15 16  1  0
 16 17  2  0
 17 18  1  0
 18 19  2  0
 19 20  1  0
 20 21  2  0
 21 22  1  0
 22 23  1  0
 14  2  1  0
 23 15  2  0
 13  6  1  0
 22 18  1  0
  1 24  1  0
  1 25  1  0
  1 26  1  0
  3 27  1  0
  7 28  1  0
  8 29  1  0
 13 30  1  0
 16 31  1  0
 17 32  1  0
 20 33  1  0
 21 34  1  0
 23 35  1  0
M  END
$$$$
