
     RDKit          3D

 42 44  0  0  0  0  0  0  0  0999 V2000
   -0.7752   -0.2253   -1.4332 C   0  0  2  0  0  0  0  0  0  0  0  0
   -0.9314   -1.5167   -1.9792 O   0  0  0  0  0  0  0  0  0  0  0  0
    0.6618    0.2222   -1.6255 C   0  0  0  0  0  0  0  0  0  0  0  0
    1.2794   -0.6272   -0.5058 C   0  0  2  0  0  0  0  0  0  0  0  0
    0.4834   -0.2525    0.5470 O   0  0  0  0  0  0  0  0  0  0  0  0
   -0.8084   -0.3782    0.0748 C   0  0  1  0  0  0  0  0  0  0  0  0
   -1.7560    0.6619    0.5980 C   0  0  0  0  0  0  0  0  0  0  0  0
   -3.0775    0.4367    0.0407 N   0  0  0  0  0  0  0  0  0  0  0  0
   -3.9906    1.4431    0.5481 C   0  0  0  0  0  0  0  0  0  0  0  0
   -5.3483    0.7504    0.4442 C   0  0  0  0  0  0  0  0  0  0  0  0
   -5.0207   -0.6325    0.9270 C   0  0  0  0  0  0  0  0  0  0  0  0
   -3.6064   -0.8419    0.4647 C   0  0  0  0  0  0  0  0  0  0  0  0
    2.6739   -0.3499   -0.3418 N   0  0  0  0  0  0  0  0  0  0  0  0
    3.2913    0.4065    0.5671 C   0  0  0  0  0  0  0  0  0  0  0  0
    4.6587    0.5614    0.5735 C   0  0  0  0  0  0  0  0  0  0  0  0
    5.2975    1.4167    1.6099 C   0  0  0  0  0  0  0  0  0  0  0  0
    5.4248   -0.0733   -0.3754 C   0  0  0  0  0  0  0  0  0  0  0  0
    6.6865    0.0474   -0.3990 O   0  0  0  0  0  0  0  0  0  0  0  0
    4.7900   -0.8227   -1.2727 N   0  0  0  0  0  0  0  0  0  0  0  0
    3.4427   -0.9764   -1.2802 C   0  0  0  0  0  0  0  0  0  0  0  0
    2.9914   -1.7266   -2.2053 O   0  0  0  0  0  0  0  0  0  0  0  0
   -1.5147    0.4882   -1.8089 H   0  0  0  0  0  0  0  0  0  0  0  0
   -0.8728   -2.2272   -1.2752 H   0  0  0  0  0  0  0  0  0  0  0  0
    0.7395    1.2701   -1.3162 H   0  0  0  0  0  0  0  0  0  0  0  0
    1.0763   -0.0339   -2.6036 H   0  0  0  0  0  0  0  0  0  0  0  0
    1.0584   -1.6763   -0.7640 H   0  0  0  0  0  0  0  0  0  0  0  0
   -1.1757   -1.3822    0.3696 H   0  0  0  0  0  0  0  0  0  0  0  0
   -1.4250    1.6828    0.3631 H   0  0  0  0  0  0  0  0  0  0  0  0
   -1.8873    0.5005    1.7080 H   0  0  0  0  0  0  0  0  0  0  0  0
   -3.9527    2.3772   -0.0102 H   0  0  0  0  0  0  0  0  0  0  0  0
   -3.7815    1.5630    1.6232 H   0  0  0  0  0  0  0  0  0  0  0  0
   -5.6576    0.6846   -0.6282 H   0  0  0  0  0  0  0  0  0  0  0  0
   -6.1125    1.2205    1.0918 H   0  0  0  0  0  0  0  0  0  0  0  0
   -5.7404   -1.3304    0.4192 H   0  0  0  0  0  0  0  0  0  0  0  0
   -5.0928   -0.7216    2.0293 H   0  0  0  0  0  0  0  0  0  0  0  0
   -3.6027   -1.6202   -0.3025 H   0  0  0  0  0  0  0  0  0  0  0  0
   -2.9813   -1.2189    1.3049 H   0  0  0  0  0  0  0  0  0  0  0  0
    2.6291    0.8702    1.2752 H   0  0  0  0  0  0  0  0  0  0  0  0
    4.8736    1.2929    2.6085 H   0  0  0  0  0  0  0  0  0  0  0  0
    5.2806    2.4708    1.2562 H   0  0  0  0  0  0  0  0  0  0  0  0
    6.3749    1.1136    1.6723 H   0  0  0  0  0  0  0  0  0  0  0  0
    5.3977   -1.2988   -1.9892 H   0  0  0  0  0  0  0  0  0  0  0  0
  1  2  1  0
  1  3  1  0
  3  4  1  0
  4  5  1  0
  5  6  1  0
  6  7  1  0
  7  8  1  0
  8  9  1  0
  9 10  1  0
 10 11  1  0
 11 12  1  0
  4 13  1  0
 13 14  1  0
 14 15  2  0
 15 16  1  0
 15 17  1  0
 17 18  2  0
 17 19  1  0
 19 20  1  0
 20 21  2  0
  6  1  1  0
 12  8  1  0
 20 13  1  0
  1 22  1  6
  2 23  1  0
  3 24  1  0
  3 25  1  0
  4 26  1  6
  6 27  1  6
  7 28  1  0
  7 29  1  0
  9 30  1  0
  9 31  1  0
 10 32  1  0
 10 33  1  0
 11 34  1  0
 11 35  1  0
 12 36  1  0
 12 37  1  0
 14 38  1  0
 16 39  1  0
 16 40  1  0
 16 41  1  0
 19 42  1  0
M  END
$$$$
