
     RDKit          3D

 58 62  0  0  0  0  0  0  0  0999 V2000
   -5.0196    0.0461   -2.1883 C   0  0  0  0  0  0  0  0  0  0  0  0
   -4.2096    0.7644   -1.1635 C   0  0  0  0  0  0  0  0  0  0  0  0
   -4.1472    2.2335   -1.3559 C   0  0  0  0  0  0  0  0  0  0  0  0
   -4.6872    0.5237    0.1545 O   0  0  0  0  0  0  0  0  0  0  0  0
   -3.5953    0.9685    0.9724 C   0  0  0  0  0  0  0  0  0  0  0  0
   -3.6495    1.5622    2.0427 O   0  0  0  0  0  0  0  0  0  0  0  0
   -2.4381    0.5766    0.2860 N   0  0  0  0  0  0  0  0  0  0  0  0
   -1.0546    0.5611    0.7933 C   0  0  1  0  0  0  0  0  0  0  0  0
   -0.4750   -0.7703    0.9811 C   0  0  0  0  0  0  0  0  0  0  0  0
    0.9618   -0.7950    1.2913 C   0  0  0  0  0  0  0  0  0  0  0  0
    1.7663    0.0914    0.4088 C   0  0  2  0  0  0  0  0  0  0  0  0
    2.9265    0.6469    1.0908 N   0  0  0  0  0  0  0  0  0  0  0  0
    2.7705    1.5177    2.1733 C   0  0  0  0  0  0  0  0  0  0  0  0
    1.6514    1.8620    2.6000 O   0  0  0  0  0  0  0  0  0  0  0  0
    3.9729    1.8881    2.6312 N   0  0  0  0  0  0  0  0  0  0  0  0
    4.8797    1.2321    1.8128 C   0  0  0  0  0  0  0  0  0  0  0  0
    6.2529    1.3113    1.8946 C   0  0  0  0  0  0  0  0  0  0  0  0
    6.9476    0.5416    0.9267 C   0  0  0  0  0  0  0  0  0  0  0  0
    8.3661    0.6524    0.9967 C   0  0  0  0  0  0  0  0  0  0  0  0
    9.5519    0.7392    1.0742 N   0  0  0  0  0  0  0  0  0  0  0  0
    6.2600   -0.1935    0.0220 C   0  0  0  0  0  0  0  0  0  0  0  0
    6.9718   -0.9330   -0.8789 F   0  0  0  0  0  0  0  0  0  0  0  0
    4.8785   -0.2641   -0.0509 C   0  0  0  0  0  0  0  0  0  0  0  0
    4.2238    0.5153    0.9249 C   0  0  0  0  0  0  0  0  0  0  0  0
    1.0666    1.0414   -0.4671 C   0  0  0  0  0  0  0  0  0  0  0  0
   -0.2736    1.5383    0.0213 C   0  0  0  0  0  0  0  0  0  0  0  0
   -2.7881    0.1929   -1.0612 C   0  0  1  0  0  0  0  0  0  0  0  0
   -2.7981   -1.2782   -1.2027 C   0  0  0  0  0  0  0  0  0  0  0  0
   -2.0111   -1.8275   -2.2606 C   0  0  0  0  0  0  0  0  0  0  0  0
   -1.9677   -3.2286   -2.3781 C   0  0  0  0  0  0  0  0  0  0  0  0
   -2.6637   -4.0288   -1.4976 C   0  0  0  0  0  0  0  0  0  0  0  0
   -3.4075   -3.5165   -0.4991 C   0  0  0  0  0  0  0  0  0  0  0  0
   -3.4564   -2.1282   -0.3797 C   0  0  0  0  0  0  0  0  0  0  0  0
   -5.6072    0.7463   -2.7658 H   0  0  0  0  0  0  0  0  0  0  0  0
   -5.7036   -0.6931   -1.7244 H   0  0  0  0  0  0  0  0  0  0  0  0
   -4.2869   -0.4479   -2.8746 H   0  0  0  0  0  0  0  0  0  0  0  0
   -3.0904    2.5833   -1.1793 H   0  0  0  0  0  0  0  0  0  0  0  0
   -4.4273    2.5661   -2.3856 H   0  0  0  0  0  0  0  0  0  0  0  0
   -4.8321    2.7309   -0.6246 H   0  0  0  0  0  0  0  0  0  0  0  0
   -1.1718    0.9615    1.8530 H   0  0  0  0  0  0  0  0  0  0  0  0
   -0.9750   -1.3375    1.8499 H   0  0  0  0  0  0  0  0  0  0  0  0
   -0.6804   -1.4793    0.1485 H   0  0  0  0  0  0  0  0  0  0  0  0
    1.1293   -0.5141    2.3577 H   0  0  0  0  0  0  0  0  0  0  0  0
    1.3138   -1.8663    1.1392 H   0  0  0  0  0  0  0  0  0  0  0  0
    2.2774   -0.6500   -0.3191 H   0  0  0  0  0  0  0  0  0  0  0  0
    4.1812    2.5195    3.4189 H   0  0  0  0  0  0  0  0  0  0  0  0
    6.7672    1.9007    2.6220 H   0  0  0  0  0  0  0  0  0  0  0  0
    4.3025   -0.8280   -0.7369 H   0  0  0  0  0  0  0  0  0  0  0  0
    0.8517    0.5972   -1.4924 H   0  0  0  0  0  0  0  0  0  0  0  0
    1.7577    1.8709   -0.7254 H   0  0  0  0  0  0  0  0  0  0  0  0
   -0.0676    2.4642    0.5818 H   0  0  0  0  0  0  0  0  0  0  0  0
   -0.8540    1.9015   -0.8806 H   0  0  0  0  0  0  0  0  0  0  0  0
   -2.1345    0.6706   -1.8299 H   0  0  0  0  0  0  0  0  0  0  0  0
   -1.4865   -1.1652   -2.9261 H   0  0  0  0  0  0  0  0  0  0  0  0
   -1.3860   -3.6767   -3.1502 H   0  0  0  0  0  0  0  0  0  0  0  0
   -2.6217   -5.1267   -1.5954 H   0  0  0  0  0  0  0  0  0  0  0  0
   -3.9904   -4.0858    0.2306 H   0  0  0  0  0  0  0  0  0  0  0  0
   -4.0713   -1.6852    0.4211 H   0  0  0  0  0  0  0  0  0  0  0  0
  1  2  1  0
  2  3  1  0
  2  4  1  0
  4  5  1  0
  5  6  2  0
  5  7  1  0
  7  8  1  0
  8  9  1  0
  9 10  1  0
 10 11  1  0
 11 12  1  0
 12 13  1  0
 13 14  2  0
 13 15  1  0
 15 16  1  0
 16 17  2  0
 17 18  1  0
 18 19  1  0
 19 20  3  0
 18 21  2  0
 21 22  1  0
 21 23  1  0
 23 24  2  0
 11 25  1  0
 25 26  1  0
  7 27  1  0
 27 28  1  0
 28 29  2  0
 29 30  1  0
 30 31  2  0
 31 32  1  0
 32 33  2  0
 27  2  1  0
 33 28  1  0
 26  8  1  0
 24 12  1  0
 24 16  1  0
  1 34  1  0
  1 35  1  0
  1 36  1  0
  3 37  1  0
  3 38  1  0
  3 39  1  0
  8 40  1  1
  9 41  1  0
  9 42  1  0
 10 43  1  0
 10 44  1  0
 11 45  1  6
 15 46  1  0
 17 47  1  0
 23 48  1  0
 25 49  1  0
 25 50  1  0
 26 51  1  0
 26 52  1  0
 27 53  1  6
 29 54  1  0
 30 55  1  0
 31 56  1  0
 32 57  1  0
 33 58  1  0
M  END
$$$$
