
     RDKit          3D

 48 51  0  0  0  0  0  0  0  0999 V2000
    7.0002   -0.0464    2.8238 C   0  0  0  0  0  0  0  0  0  0  0  0
    6.7412   -0.6080    1.4413 C   0  0  0  0  0  0  0  0  0  0  0  0
    5.2908   -0.8066    1.3291 N   0  0  0  0  0  0  0  0  0  0  0  0
    4.3949    0.0887    0.8831 C   0  0  0  0  0  0  0  0  0  0  0  0
    3.1360   -0.4511    0.9192 C   0  0  0  0  0  0  0  0  0  0  0  0
    1.8666    0.2028    0.5156 C   0  0  0  0  0  0  0  0  0  0  0  0
    1.8777    1.4928    0.0481 C   0  0  0  0  0  0  0  0  0  0  0  0
    0.6759    2.0729   -0.3167 C   0  0  0  0  0  0  0  0  0  0  0  0
    0.3853    3.3099   -0.8039 N   0  0  0  0  0  0  0  0  0  0  0  0
   -0.9040    3.4249   -1.0114 N   0  0  0  0  0  0  0  0  0  0  0  0
   -1.6164    4.6113   -1.5356 C   0  0  0  0  0  0  0  0  0  0  0  0
   -1.4986    2.2716   -0.6682 C   0  0  0  0  0  0  0  0  0  0  0  0
   -0.5187    1.4044   -0.2269 C   0  0  0  0  0  0  0  0  0  0  0  0
   -0.5150    0.1017    0.2470 C   0  0  0  0  0  0  0  0  0  0  0  0
   -1.6109   -0.6126    0.3662 O   0  0  0  0  0  0  0  0  0  0  0  0
   -2.9051   -0.8258    0.2777 C   0  0  2  0  0  0  0  0  0  0  0  0
   -3.6212   -1.1774    1.5805 C   0  0  0  0  0  0  0  0  0  0  0  0
   -3.3248   -1.9189   -0.7216 C   0  0  1  0  0  0  0  0  0  0  0  0
   -4.8117   -2.0577   -0.7174 C   0  0  0  0  0  0  0  0  0  0  0  0
   -5.2180   -2.2997   -2.1031 N   0  0  0  0  0  0  0  0  0  0  0  0
   -4.2100   -1.7733   -2.9235 C   0  0  0  0  0  0  0  0  0  0  0  0
   -4.2385   -1.6512   -4.1599 O   0  0  0  0  0  0  0  0  0  0  0  0
   -3.0421   -1.3571   -2.0911 C   0  0  0  0  0  0  0  0  0  0  0  0
    0.7118   -0.4178    0.5932 N   0  0  0  0  0  0  0  0  0  0  0  0
    3.2910   -1.7278    1.4100 C   0  0  0  0  0  0  0  0  0  0  0  0
    4.6053   -1.8956    1.6420 N   0  0  0  0  0  0  0  0  0  0  0  0
    6.9089    1.0575    2.7645 H   0  0  0  0  0  0  0  0  0  0  0  0
    6.1953   -0.3875    3.5013 H   0  0  0  0  0  0  0  0  0  0  0  0
    8.0133   -0.3722    3.1357 H   0  0  0  0  0  0  0  0  0  0  0  0
    7.0891    0.1478    0.7105 H   0  0  0  0  0  0  0  0  0  0  0  0
    7.2986   -1.5502    1.2618 H   0  0  0  0  0  0  0  0  0  0  0  0
    4.6187    1.0893    0.5430 H   0  0  0  0  0  0  0  0  0  0  0  0
    2.7947    2.0443   -0.0348 H   0  0  0  0  0  0  0  0  0  0  0  0
   -1.8533    4.3842   -2.5970 H   0  0  0  0  0  0  0  0  0  0  0  0
   -1.0186    5.5168   -1.4498 H   0  0  0  0  0  0  0  0  0  0  0  0
   -2.5995    4.7069   -1.0145 H   0  0  0  0  0  0  0  0  0  0  0  0
   -2.5600    2.0409   -0.7204 H   0  0  0  0  0  0  0  0  0  0  0  0
   -3.4757    0.0726   -0.0965 H   0  0  0  0  0  0  0  0  0  0  0  0
   -3.9409   -2.2369    1.5596 H   0  0  0  0  0  0  0  0  0  0  0  0
   -4.5352   -0.5756    1.7465 H   0  0  0  0  0  0  0  0  0  0  0  0
   -2.8890   -1.0833    2.4365 H   0  0  0  0  0  0  0  0  0  0  0  0
   -2.8196   -2.8584   -0.5010 H   0  0  0  0  0  0  0  0  0  0  0  0
   -5.3565   -1.1760   -0.3749 H   0  0  0  0  0  0  0  0  0  0  0  0
   -5.1615   -2.9339   -0.1116 H   0  0  0  0  0  0  0  0  0  0  0  0
   -6.0857   -2.7698   -2.4128 H   0  0  0  0  0  0  0  0  0  0  0  0
   -2.0902   -1.7650   -2.4386 H   0  0  0  0  0  0  0  0  0  0  0  0
   -2.9562   -0.2538   -2.0671 H   0  0  0  0  0  0  0  0  0  0  0  0
    2.4815   -2.4515    1.5723 H   0  0  0  0  0  0  0  0  0  0  0  0
  1  2  1  0
  2  3  1  0
  3  4  1  0
  4  5  2  0
  5  6  1  0
  6  7  2  0
  7  8  1  0
  8  9  2  0
  9 10  1  0
 10 11  1  0
 10 12  1  0
 12 13  2  0
 13 14  1  0
 14 15  1  0
 15 16  1  0
 16 17  1  0
 16 18  1  0
 18 19  1  0
 19 20  1  0
 20 21  1  0
 21 22  2  0
 21 23  1  0
 14 24  2  0
  5 25  1  0
 25 26  2  0
 26  3  1  0
 24  6  1  0
 13  8  1  0
 23 18  1  0
  1 27  1  0
  1 28  1  0
  1 29  1  0
  2 30  1  0
  2 31  1  0
  4 32  1  0
  7 33  1  0
 11 34  1  0
 11 35  1  0
 11 36  1  0
 12 37  1  0
 16 38  1  6
 17 39  1  0
 17 40  1  0
 17 41  1  0
 18 42  1  1
 19 43  1  0
 19 44  1  0
 20 45  1  0
 23 46  1  0
 23 47  1  0
 25 48  1  0
M  END
$$$$
