
     RDKit          3D

 41 43  0  0  0  0  0  0  0  0999 V2000
    1.8130   -0.6034    0.3498 O   0  0  0  0  0  0  0  0  0  0  0  0
    1.9751    0.0386   -0.6993 C   0  0  0  0  0  0  0  0  0  0  0  0
    0.9275   -0.0324   -1.7881 C   0  0  0  0  0  0  0  0  0  0  0  0
   -0.1749   -0.9267   -1.3524 C   0  0  0  0  0  0  0  0  0  0  0  0
   -1.1968   -0.4027   -0.6962 N   0  0  0  0  0  0  0  0  0  0  0  0
   -2.2626   -1.1165   -0.2469 C   0  0  0  0  0  0  0  0  0  0  0  0
   -3.2917   -0.4589    0.4377 N   0  0  0  0  0  0  0  0  0  0  0  0
   -4.4675   -1.0801    0.9739 C   0  0  0  0  0  0  0  0  0  0  0  0
   -5.6513   -0.5435    0.1636 C   0  0  0  0  0  0  0  0  0  0  0  0
   -5.3402    0.7092   -0.3613 O   0  0  0  0  0  0  0  0  0  0  0  0
   -4.6313    1.5080    0.5086 C   0  0  0  0  0  0  0  0  0  0  0  0
   -3.1963    0.9939    0.6446 C   0  0  0  0  0  0  0  0  0  0  0  0
   -2.2325   -2.4589   -0.5138 C   0  0  0  0  0  0  0  0  0  0  0  0
   -1.1606   -2.9898   -1.1986 C   0  0  0  0  0  0  0  0  0  0  0  0
   -1.1020   -4.2270   -1.4613 O   0  0  0  0  0  0  0  0  0  0  0  0
   -0.1214   -2.2401   -1.6267 N   0  0  0  0  0  0  0  0  0  0  0  0
    3.1082    0.8470   -0.9337 N   0  0  0  0  0  0  0  0  0  0  0  0
    4.1617    1.0132   -0.0218 C   0  0  0  0  0  0  0  0  0  0  0  0
    4.2784    0.4486    1.2049 C   0  0  0  0  0  0  0  0  0  0  0  0
    5.3505    0.6568    2.0576 C   0  0  0  0  0  0  0  0  0  0  0  0
    6.3717    1.4768    1.6694 C   0  0  0  0  0  0  0  0  0  0  0  0
    6.2992    2.0751    0.4295 C   0  0  0  0  0  0  0  0  0  0  0  0
    7.7360    3.2097   -0.0797 Br  0  0  0  0  0  0  0  0  0  0  0  0
    5.2217    1.8508   -0.3983 C   0  0  0  0  0  0  0  0  0  0  0  0
    1.4512   -0.4414   -2.6845 H   0  0  0  0  0  0  0  0  0  0  0  0
    0.5680    0.9895   -2.0194 H   0  0  0  0  0  0  0  0  0  0  0  0
   -4.6110   -0.7220    2.0351 H   0  0  0  0  0  0  0  0  0  0  0  0
   -4.4441   -2.1662    0.9623 H   0  0  0  0  0  0  0  0  0  0  0  0
   -6.5535   -0.5058    0.7790 H   0  0  0  0  0  0  0  0  0  0  0  0
   -5.7938   -1.2331   -0.6789 H   0  0  0  0  0  0  0  0  0  0  0  0
   -4.5579    2.5118    0.0639 H   0  0  0  0  0  0  0  0  0  0  0  0
   -5.1199    1.5521    1.5245 H   0  0  0  0  0  0  0  0  0  0  0  0
   -2.8874    1.2239    1.6737 H   0  0  0  0  0  0  0  0  0  0  0  0
   -2.5788    1.4362   -0.1370 H   0  0  0  0  0  0  0  0  0  0  0  0
   -3.0463   -3.0832   -0.1857 H   0  0  0  0  0  0  0  0  0  0  0  0
    0.6789   -2.6575   -2.1418 H   0  0  0  0  0  0  0  0  0  0  0  0
    3.1469    1.3656   -1.8892 H   0  0  0  0  0  0  0  0  0  0  0  0
    3.5216   -0.1982    1.5682 H   0  0  0  0  0  0  0  0  0  0  0  0
    5.3774    0.1815    3.0067 H   0  0  0  0  0  0  0  0  0  0  0  0
    7.2431    1.6664    2.3231 H   0  0  0  0  0  0  0  0  0  0  0  0
    5.1916    2.3327   -1.3640 H   0  0  0  0  0  0  0  0  0  0  0  0
  1  2  2  0
  2  3  1  0
  3  4  1  0
  4  5  2  0
  5  6  1  0
  6  7  1  0
  7  8  1  0
  8  9  1  0
  9 10  1  0
 10 11  1  0
 11 12  1  0
  6 13  2  0
 13 14  1  0
 14 15  2  0
 14 16  1  0
  2 17  1  0
 17 18  1  0
 18 19  2  0
 19 20  1  0
 20 21  2  0
 21 22  1  0
 22 23  1  0
 22 24  2  0
 16  4  1  0
 24 18  1  0
 12  7  1  0
  3 25  1  0
  3 26  1  0
  8 27  1  0
  8 28  1  0
  9 29  1  0
  9 30  1  0
 11 31  1  0
 11 32  1  0
 12 33  1  0
 12 34  1  0
 13 35  1  0
 16 36  1  0
 17 37  1  0
 19 38  1  0
 20 39  1  0
 21 40  1  0
 24 41  1  0
M  END
$$$$
