
     RDKit          3D

 44 46  0  0  0  0  0  0  0  0999 V2000
    2.4554   -1.5508    0.5337 C   0  0  0  0  0  0  0  0  0  0  0  0
    2.6956   -0.0276    0.4571 C   0  0  1  0  0  0  0  0  0  0  0  0
    1.3244    0.5843    0.4400 C   0  0  0  0  0  0  0  0  0  0  0  0
    0.1576   -0.1220    0.4872 C   0  0  0  0  0  0  0  0  0  0  0  0
   -1.1234    0.5214    0.2820 C   0  0  0  0  0  0  0  0  0  0  0  0
   -2.2707   -0.2714    0.2063 N   0  0  0  0  0  0  0  0  0  0  0  0
   -3.5772   -0.2753    0.1086 C   0  0  0  0  0  0  0  0  0  0  0  0
   -3.6105    1.4139    0.0727 O   0  0  0  0  0  0  0  0  0  0  0  0
   -4.9430   -0.2716    0.0063 C   0  0  0  0  0  0  0  0  0  0  0  0
   -5.4012   -0.5510   -1.2861 C   0  0  0  0  0  0  0  0  0  0  0  0
   -6.6040   -1.0538   -1.5528 C   0  0  0  0  0  0  0  0  0  0  0  0
   -7.4936   -1.3434   -0.5146 C   0  0  0  0  0  0  0  0  0  0  0  0
   -8.6241   -1.9670   -0.7419 C   0  0  0  0  0  0  0  0  0  0  0  0
   -9.8611   -2.6362   -0.9878 N   0  0  0  0  0  0  0  0  0  0  0  0
   -7.0649   -1.0357    0.7532 C   0  0  0  0  0  0  0  0  0  0  0  0
   -5.8181   -0.4864    1.0833 N   0  0  0  0  0  0  0  0  0  0  0  0
   -1.0190    1.8384    0.0754 C   0  0  0  0  0  0  0  0  0  0  0  0
    0.0975    2.5803    0.0173 N   0  0  0  0  0  0  0  0  0  0  0  0
    1.2604    1.9892    0.1867 C   0  0  0  0  0  0  0  0  0  0  0  0
    2.4543    2.6677    0.0933 F   0  0  0  0  0  0  0  0  0  0  0  0
    3.6138    0.4759    1.4725 C   0  0  0  0  0  0  0  0  0  0  0  0
    4.9372    1.0008    1.1430 C   0  0  1  0  0  0  0  0  0  0  0  0
    6.0788    0.1478    1.7282 C   0  0  0  0  0  0  0  0  0  0  0  0
    7.3104    0.6787    1.4372 F   0  0  0  0  0  0  0  0  0  0  0  0
    5.8943   -0.0917    3.0350 F   0  0  0  0  0  0  0  0  0  0  0  0
    6.0598   -1.0850    1.0175 F   0  0  0  0  0  0  0  0  0  0  0  0
    5.3036    1.1285   -0.2413 O   0  0  0  0  0  0  0  0  0  0  0  0
    4.3134    0.6637   -1.1121 C   0  0  0  0  0  0  0  0  0  0  0  0
    4.7135    0.8726   -2.5446 N   0  0  0  0  0  0  0  0  0  0  0  0
    3.2397    0.1772   -0.9273 N   0  0  0  0  0  0  0  0  0  0  0  0
    1.8659   -1.7963    1.4199 H   0  0  0  0  0  0  0  0  0  0  0  0
    1.9279   -1.8928   -0.3647 H   0  0  0  0  0  0  0  0  0  0  0  0
    3.4030   -2.0994    0.5636 H   0  0  0  0  0  0  0  0  0  0  0  0
    0.1232   -1.1558    0.7305 H   0  0  0  0  0  0  0  0  0  0  0  0
   -1.9736   -1.4228    0.1601 H   0  0  0  0  0  0  0  0  0  0  0  0
   -4.6914   -0.3715   -2.1386 H   0  0  0  0  0  0  0  0  0  0  0  0
   -6.9609   -1.3447   -2.5431 H   0  0  0  0  0  0  0  0  0  0  0  0
   -7.7387   -1.1441    1.5885 H   0  0  0  0  0  0  0  0  0  0  0  0
   -1.9505    2.4215   -0.0909 H   0  0  0  0  0  0  0  0  0  0  0  0
    3.0425    1.1131    2.2470 H   0  0  0  0  0  0  0  0  0  0  0  0
    3.8298   -0.4260    2.1454 H   0  0  0  0  0  0  0  0  0  0  0  0
    5.0678    2.0420    1.5826 H   0  0  0  0  0  0  0  0  0  0  0  0
    4.5309    1.9074   -2.7702 H   0  0  0  0  0  0  0  0  0  0  0  0
    5.0255    0.1980   -3.1630 H   0  0  0  0  0  0  0  0  0  0  0  0
  2  1  1  1
  2  3  1  0
  3  4  2  0
  4  5  1  0
  5  6  1  0
  6  7  1  0
  7  8  2  0
  7  9  1  0
  9 10  2  0
 10 11  1  0
 11 12  2  0
 12 13  1  0
 13 14  3  0
 12 15  1  0
 15 16  2  0
  5 17  2  0
 17 18  1  0
 18 19  2  0
 19 20  1  0
  2 21  1  0
 21 22  1  0
 22 23  1  0
 23 24  1  0
 23 25  1  0
 23 26  1  0
 22 27  1  0
 27 28  1  0
 28 29  1  0
 28 30  2  0
 30  2  1  0
 19  3  1  0
 16  9  1  0
  1 31  1  0
  1 32  1  0
  1 33  1  0
  4 34  1  0
  6 35  1  0
 10 36  1  0
 11 37  1  0
 15 38  1  0
 17 39  1  0
 21 40  1  0
 21 41  1  0
 22 42  1  1
 29 43  1  0
 29 44  1  0
M  END
$$$$
