
     RDKit          3D

 55 57  0  0  0  0  0  0  0  0999 V2000
   -4.3054   -0.0508    2.2259 C   0  0  0  0  0  0  0  0  0  0  0  0
   -3.2905    1.0579    2.0838 C   0  0  0  0  0  0  0  0  0  0  0  0
   -3.3772    1.5704    0.6928 C   0  0  0  0  0  0  0  0  0  0  0  0
   -3.9940    2.7096    0.3323 N   0  0  0  0  0  0  0  0  0  0  0  0
   -4.0601    3.1495   -0.9370 C   0  0  0  0  0  0  0  0  0  0  0  0
   -4.7255    4.3633   -1.2624 N   0  0  0  0  0  0  0  0  0  0  0  0
   -3.4706    2.3994   -1.9040 N   0  0  0  0  0  0  0  0  0  0  0  0
   -2.8390    1.2508   -1.6035 C   0  0  0  0  0  0  0  0  0  0  0  0
   -2.2515    0.5364   -2.6949 N   0  0  0  0  0  0  0  0  0  0  0  0
   -2.7750    0.8005   -0.2792 C   0  0  0  0  0  0  0  0  0  0  0  0
   -2.0563   -0.4462   -0.1274 C   0  0  0  0  0  0  0  0  0  0  0  0
   -2.5215   -1.7483   -0.1896 C   0  0  0  0  0  0  0  0  0  0  0  0
   -1.6571   -2.8084   -0.0126 C   0  0  0  0  0  0  0  0  0  0  0  0
   -0.3425   -2.5959    0.2241 C   0  0  0  0  0  0  0  0  0  0  0  0
    0.6404   -4.0744    0.4316 S   0  0  0  0  0  0  0  0  0  0  0  0
    2.3355   -3.5123    0.0889 C   0  0  0  0  0  0  0  0  0  0  0  0
    2.4860   -3.4667   -1.4063 C   0  0  0  0  0  0  0  0  0  0  0  0
    3.3185   -4.4971    0.6628 C   0  0  0  0  0  0  0  0  0  0  0  0
    2.4676   -2.1788    0.7203 C   0  0  0  0  0  0  0  0  0  0  0  0
    3.4654   -2.0018    1.5014 O   0  0  0  0  0  0  0  0  0  0  0  0
    1.6043   -1.0795    0.5490 N   0  0  0  0  0  0  0  0  0  0  0  0
    2.1089    0.3010    0.6176 C   0  0  0  0  0  0  0  0  0  0  0  0
    2.5455    0.8280   -0.7103 C   0  0  0  0  0  0  0  0  0  0  0  0
    3.0159    2.1864   -0.5244 N   0  0  0  0  0  0  0  0  0  0  0  0
    4.0738    2.6254    0.2863 C   0  0  0  0  0  0  0  0  0  0  0  0
    4.4689    4.0539    0.4007 C   0  0  0  0  0  0  0  0  0  0  0  0
    4.7327    1.7923    0.9562 O   0  0  0  0  0  0  0  0  0  0  0  0
    0.2095   -1.3250    0.3028 C   0  0  0  0  0  0  0  0  0  0  0  0
   -0.6868   -0.2922    0.1205 C   0  0  0  0  0  0  0  0  0  0  0  0
   -5.1774    0.3683    2.8073 H   0  0  0  0  0  0  0  0  0  0  0  0
   -3.8941   -0.8625    2.8333 H   0  0  0  0  0  0  0  0  0  0  0  0
   -4.6514   -0.4222    1.2361 H   0  0  0  0  0  0  0  0  0  0  0  0
   -3.5575    1.8322    2.8297 H   0  0  0  0  0  0  0  0  0  0  0  0
   -2.3034    0.5947    2.2951 H   0  0  0  0  0  0  0  0  0  0  0  0
   -4.0587    5.0808   -0.8530 H   0  0  0  0  0  0  0  0  0  0  0  0
   -5.6323    4.3813   -1.7767 H   0  0  0  0  0  0  0  0  0  0  0  0
   -2.4998   -0.4417   -2.9931 H   0  0  0  0  0  0  0  0  0  0  0  0
   -1.5018    0.9808   -3.2825 H   0  0  0  0  0  0  0  0  0  0  0  0
   -3.5831   -1.8116   -0.3845 H   0  0  0  0  0  0  0  0  0  0  0  0
   -2.1143   -3.7856   -0.0786 H   0  0  0  0  0  0  0  0  0  0  0  0
    1.5404   -3.0860   -1.8792 H   0  0  0  0  0  0  0  0  0  0  0  0
    2.5163   -4.5424   -1.7460 H   0  0  0  0  0  0  0  0  0  0  0  0
    3.3363   -2.8796   -1.7623 H   0  0  0  0  0  0  0  0  0  0  0  0
    4.0078   -4.0035    1.4035 H   0  0  0  0  0  0  0  0  0  0  0  0
    2.7649   -5.3191    1.1502 H   0  0  0  0  0  0  0  0  0  0  0  0
    3.9698   -4.8959   -0.1541 H   0  0  0  0  0  0  0  0  0  0  0  0
    1.4805    0.9748    1.1906 H   0  0  0  0  0  0  0  0  0  0  0  0
    3.0568    0.2060    1.2317 H   0  0  0  0  0  0  0  0  0  0  0  0
    3.4411    0.2398   -1.0433 H   0  0  0  0  0  0  0  0  0  0  0  0
    1.7529    0.7973   -1.4567 H   0  0  0  0  0  0  0  0  0  0  0  0
    2.5277    2.9735   -1.0473 H   0  0  0  0  0  0  0  0  0  0  0  0
    5.4964    4.2505    0.0354 H   0  0  0  0  0  0  0  0  0  0  0  0
    3.7837    4.7177   -0.1663 H   0  0  0  0  0  0  0  0  0  0  0  0
    4.4162    4.3983    1.4536 H   0  0  0  0  0  0  0  0  0  0  0  0
   -0.2370    0.7068    0.1830 H   0  0  0  0  0  0  0  0  0  0  0  0
  1  2  1  0
  2  3  1  0
  3  4  2  0
  4  5  1  0
  5  6  1  0
  5  7  2  0
  7  8  1  0
  8  9  1  0
  8 10  2  0
 10 11  1  0
 11 12  2  0
 12 13  1  0
 13 14  2  0
 14 15  1  0
 15 16  1  0
 16 17  1  0
 16 18  1  0
 16 19  1  0
 19 20  2  0
 19 21  1  0
 21 22  1  0
 22 23  1  0
 23 24  1  0
 24 25  1  0
 25 26  1  0
 25 27  2  0
 21 28  1  0
 28 29  2  0
 10  3  1  0
 29 11  1  0
 28 14  1  0
  1 30  1  0
  1 31  1  0
  1 32  1  0
  2 33  1  0
  2 34  1  0
  6 35  1  0
  6 36  1  0
  9 37  1  0
  9 38  1  0
 12 39  1  0
 13 40  1  0
 17 41  1  0
 17 42  1  0
 17 43  1  0
 18 44  1  0
 18 45  1  0
 18 46  1  0
 22 47  1  0
 22 48  1  0
 23 49  1  0
 23 50  1  0
 24 51  1  0
 26 52  1  0
 26 53  1  0
 26 54  1  0
 29 55  1  0
M  END
$$$$
