
     RDKit          3D

 38 39  0  0  0  0  0  0  0  0999 V2000
    3.4462   -1.2893   -0.4906 C   0  0  0  0  0  0  0  0  0  0  0  0
    2.7989   -0.0460   -0.3693 N   0  0  0  0  0  0  0  0  0  0  0  0
    2.9685    0.7067    0.8072 C   0  0  0  0  0  0  0  0  0  0  0  0
    1.8620    0.3540   -1.3315 C   0  0  0  0  0  0  0  0  0  0  0  0
    0.5833   -0.4519   -1.3486 C   0  0  0  0  0  0  0  0  0  0  0  0
   -0.1360   -0.3672   -0.0204 C   0  0  0  0  0  0  0  0  0  0  0  0
   -1.3854   -1.1437   -0.0110 C   0  0  0  0  0  0  0  0  0  0  0  0
   -1.7519   -1.8786    1.1175 C   0  0  0  0  0  0  0  0  0  0  0  0
   -2.9176   -2.6315    1.1904 C   0  0  0  0  0  0  0  0  0  0  0  0
   -3.7573   -2.6617    0.1064 C   0  0  0  0  0  0  0  0  0  0  0  0
   -5.3664   -3.6619    0.1209 Br  0  0  0  0  0  0  0  0  0  0  0  0
   -3.4393   -1.9541   -1.0285 C   0  0  0  0  0  0  0  0  0  0  0  0
   -2.2680   -1.2156   -1.0617 C   0  0  0  0  0  0  0  0  0  0  0  0
   -0.3359    1.0340    0.4398 C   0  0  0  0  0  0  0  0  0  0  0  0
   -0.2611    1.5310    1.7278 C   0  0  0  0  0  0  0  0  0  0  0  0
   -0.4853    2.8876    1.9254 C   0  0  0  0  0  0  0  0  0  0  0  0
   -0.7745    3.6826    0.8192 C   0  0  0  0  0  0  0  0  0  0  0  0
   -0.8456    3.1815   -0.4448 C   0  0  0  0  0  0  0  0  0  0  0  0
   -0.6210    1.8470   -0.6077 N   0  0  0  0  0  0  0  0  0  0  0  0
    3.1052   -2.0732    0.2019 H   0  0  0  0  0  0  0  0  0  0  0  0
    3.4503   -1.5900   -1.5620 H   0  0  0  0  0  0  0  0  0  0  0  0
    4.5402   -1.1449   -0.2545 H   0  0  0  0  0  0  0  0  0  0  0  0
    2.7220    0.1657    1.7504 H   0  0  0  0  0  0  0  0  0  0  0  0
    2.4708    1.6731    0.7668 H   0  0  0  0  0  0  0  0  0  0  0  0
    4.0715    0.9386    0.8912 H   0  0  0  0  0  0  0  0  0  0  0  0
    2.3133    0.2501   -2.3549 H   0  0  0  0  0  0  0  0  0  0  0  0
    1.6468    1.4199   -1.2194 H   0  0  0  0  0  0  0  0  0  0  0  0
    0.7509   -1.5129   -1.5562 H   0  0  0  0  0  0  0  0  0  0  0  0
   -0.1209   -0.0842   -2.1226 H   0  0  0  0  0  0  0  0  0  0  0  0
    0.5556   -0.8417    0.7206 H   0  0  0  0  0  0  0  0  0  0  0  0
   -1.0874   -1.8517    1.9696 H   0  0  0  0  0  0  0  0  0  0  0  0
   -3.1335   -3.1718    2.0946 H   0  0  0  0  0  0  0  0  0  0  0  0
   -4.0843   -1.9666   -1.8853 H   0  0  0  0  0  0  0  0  0  0  0  0
   -2.0593   -0.6817   -1.9596 H   0  0  0  0  0  0  0  0  0  0  0  0
   -0.0260    0.7747    2.4713 H   0  0  0  0  0  0  0  0  0  0  0  0
   -0.4151    3.2197    2.9412 H   0  0  0  0  0  0  0  0  0  0  0  0
   -0.9411    4.7330    1.0259 H   0  0  0  0  0  0  0  0  0  0  0  0
   -1.0725    3.8210   -1.2922 H   0  0  0  0  0  0  0  0  0  0  0  0
  1  2  1  0
  2  3  1  0
  2  4  1  0
  4  5  1  0
  5  6  1  0
  6  7  1  0
  7  8  2  0
  8  9  1  0
  9 10  2  0
 10 11  1  0
 10 12  1  0
 12 13  2  0
  6 14  1  0
 14 15  2  0
 15 16  1  0
 16 17  2  0
 17 18  1  0
 18 19  2  0
 13  7  1  0
 19 14  1  0
  1 20  1  0
  1 21  1  0
  1 22  1  0
  3 23  1  0
  3 24  1  0
  3 25  1  0
  4 26  1  0
  4 27  1  0
  5 28  1  0
  5 29  1  0
  6 30  1  0
  8 31  1  0
  9 32  1  0
 12 33  1  0
 13 34  1  0
 15 35  1  0
 16 36  1  0
 17 37  1  0
 18 38  1  0
M  END
$$$$
