
     RDKit          3D

 35 37  0  0  0  0  0  0  0  0999 V2000
   -5.0574   -1.2866    0.0864 C   0  0  0  0  0  0  0  0  0  0  0  0
   -4.5008    0.0545    0.4103 C   0  0  0  0  0  0  0  0  0  0  0  0
   -3.1830    0.2469    0.3513 C   0  0  0  0  0  0  0  0  0  0  0  0
   -3.0568    1.9683    0.8215 S   0  0  0  0  0  0  0  0  0  0  0  0
   -4.9263    2.1629    1.0355 C   0  0  0  0  0  0  0  0  0  0  0  0
   -5.5746    3.3578    1.4245 N   0  0  0  0  0  0  0  0  0  0  0  0
   -5.2262    1.0992    0.7640 N   0  0  0  0  0  0  0  0  0  0  0  0
   -1.9653   -0.4829    0.0455 C   0  0  0  0  0  0  0  0  0  0  0  0
   -0.7662    0.0830    0.1304 N   0  0  0  0  0  0  0  0  0  0  0  0
    0.4216   -0.4696   -0.1149 C   0  0  0  0  0  0  0  0  0  0  0  0
    1.5618    0.3555    0.0518 N   0  0  0  0  0  0  0  0  0  0  0  0
    2.9013   -0.0067   -0.1456 C   0  0  0  0  0  0  0  0  0  0  0  0
    3.3997   -1.2263   -0.5427 C   0  0  0  0  0  0  0  0  0  0  0  0
    4.7270   -1.5418   -0.7250 C   0  0  0  0  0  0  0  0  0  0  0  0
    5.6730   -0.5864   -0.5027 C   0  0  0  0  0  0  0  0  0  0  0  0
    5.2505    0.6470   -0.1065 C   0  0  0  0  0  0  0  0  0  0  0  0
    3.9307    0.9137    0.0607 C   0  0  0  0  0  0  0  0  0  0  0  0
    6.2388    1.6488    0.1269 N   0  0  0  0  0  4  0  0  0  0  0  0
    7.5781    1.4068   -0.0342 O   0  0  0  0  0  1  0  0  0  0  0  0
    5.9364    2.8125    0.4943 O   0  0  0  0  0  0  0  0  0  0  0  0
    0.4452   -1.7507   -0.4958 N   0  0  0  0  0  0  0  0  0  0  0  0
   -0.6809   -2.4646   -0.6297 C   0  0  0  0  0  0  0  0  0  0  0  0
   -1.8444   -1.7928   -0.3507 C   0  0  0  0  0  0  0  0  0  0  0  0
   -4.6613   -2.0842    0.7815 H   0  0  0  0  0  0  0  0  0  0  0  0
   -4.8784   -1.6225   -0.9369 H   0  0  0  0  0  0  0  0  0  0  0  0
   -6.1617   -1.3195    0.2986 H   0  0  0  0  0  0  0  0  0  0  0  0
   -5.7295    3.6355    2.4209 H   0  0  0  0  0  0  0  0  0  0  0  0
   -5.9994    4.1480    0.8600 H   0  0  0  0  0  0  0  0  0  0  0  0
    1.4191    1.3619    0.3586 H   0  0  0  0  0  0  0  0  0  0  0  0
    2.7115   -2.0287   -0.7366 H   0  0  0  0  0  0  0  0  0  0  0  0
    5.0399   -2.5202   -1.0378 H   0  0  0  0  0  0  0  0  0  0  0  0
    6.7089   -0.7822   -0.6299 H   0  0  0  0  0  0  0  0  0  0  0  0
    3.6871    1.9371    0.3823 H   0  0  0  0  0  0  0  0  0  0  0  0
   -0.6819   -3.5012   -0.9366 H   0  0  0  0  0  0  0  0  0  0  0  0
   -2.7366   -2.3723   -0.4634 H   0  0  0  0  0  0  0  0  0  0  0  0
  1  2  1  0
  2  3  2  0
  3  4  1  0
  4  5  1  0
  5  6  1  0
  5  7  2  0
  3  8  1  0
  8  9  2  0
  9 10  1  0
 10 11  1  0
 11 12  1  0
 12 13  2  0
 13 14  1  0
 14 15  2  0
 15 16  1  0
 16 17  2  0
 16 18  1  0
 18 19  1  0
 18 20  2  0
 10 21  2  0
 21 22  1  0
 22 23  2  0
  7  2  1  0
 23  8  1  0
 17 12  1  0
  1 24  1  0
  1 25  1  0
  1 26  1  0
  6 27  1  0
  6 28  1  0
 11 29  1  0
 13 30  1  0
 14 31  1  0
 15 32  1  0
 17 33  1  0
 22 34  1  0
 23 35  1  0
M  CHG  2  18   1  19  -1
M  END
$$$$
