
     RDKit          3D

 46 49  0  0  0  0  0  0  0  0999 V2000
   -4.9805   -1.2451    2.0416 N   0  0  0  0  0  0  0  0  0  0  0  0
   -5.1264   -0.7465    0.6922 C   0  0  0  0  0  0  0  0  0  0  0  0
   -4.0324   -1.3685   -0.1561 C   0  0  0  0  0  0  0  0  0  0  0  0
   -3.6792   -0.4031   -1.2897 C   0  0  0  0  0  0  0  0  0  0  0  0
   -3.0368    0.8485   -0.8061 C   0  0  0  0  0  0  0  0  0  0  0  0
   -1.6602    1.0229   -1.0148 N   0  0  0  0  0  0  0  0  0  0  0  0
   -0.7210    0.1982   -0.3699 C   0  0  1  0  0  0  0  0  0  0  0  0
   -0.5429   -1.2542   -0.5481 C   0  0  0  0  0  0  0  0  0  0  0  0
    0.3535   -0.3629   -1.3236 C   0  0  2  0  0  0  0  0  0  0  0  0
    1.7651   -0.1684   -0.9041 C   0  0  0  0  0  0  0  0  0  0  0  0
    2.7440    0.1233   -1.8294 C   0  0  0  0  0  0  0  0  0  0  0  0
    4.0668    0.3091   -1.4633 C   0  0  0  0  0  0  0  0  0  0  0  0
    4.4618    0.2087   -0.1455 C   0  0  0  0  0  0  0  0  0  0  0  0
    5.8534    0.4017    0.2585 C   0  0  0  0  0  0  0  0  0  0  0  0
    6.8955    0.6946   -0.5904 C   0  0  0  0  0  0  0  0  0  0  0  0
    8.0367    0.7961    0.1814 C   0  0  0  0  0  0  0  0  0  0  0  0
    7.6548    0.5679    1.4301 N   0  0  0  0  0  0  0  0  0  0  0  0
    6.3720    0.3340    1.4925 N   0  0  0  0  0  0  0  0  0  0  0  0
    3.4858   -0.0836    0.7882 C   0  0  0  0  0  0  0  0  0  0  0  0
    2.1671   -0.2675    0.4131 C   0  0  0  0  0  0  0  0  0  0  0  0
   -3.4545    1.0546    0.6486 C   0  0  0  0  0  0  0  0  0  0  0  0
   -4.9396    0.7712    0.7178 C   0  0  0  0  0  0  0  0  0  0  0  0
   -5.2420   -0.5356    2.7474 H   0  0  0  0  0  0  0  0  0  0  0  0
   -5.5075   -2.1280    2.1198 H   0  0  0  0  0  0  0  0  0  0  0  0
   -6.1407   -1.0199    0.3407 H   0  0  0  0  0  0  0  0  0  0  0  0
   -3.1895   -1.5670    0.5055 H   0  0  0  0  0  0  0  0  0  0  0  0
   -4.4661   -2.2646   -0.6373 H   0  0  0  0  0  0  0  0  0  0  0  0
   -3.1465   -0.9293   -2.0754 H   0  0  0  0  0  0  0  0  0  0  0  0
   -4.6998   -0.1744   -1.7513 H   0  0  0  0  0  0  0  0  0  0  0  0
   -3.5557    1.7023   -1.3486 H   0  0  0  0  0  0  0  0  0  0  0  0
   -1.3847    1.9981   -1.1710 H   0  0  0  0  0  0  0  0  0  0  0  0
   -0.2937    0.5671    0.6251 H   0  0  0  0  0  0  0  0  0  0  0  0
   -0.1083   -1.8594    0.2883 H   0  0  0  0  0  0  0  0  0  0  0  0
   -1.2213   -1.8638   -1.1665 H   0  0  0  0  0  0  0  0  0  0  0  0
    0.1867   -0.2516   -2.4134 H   0  0  0  0  0  0  0  0  0  0  0  0
    2.4268    0.2014   -2.8687 H   0  0  0  0  0  0  0  0  0  0  0  0
    4.8321    0.5385   -2.1970 H   0  0  0  0  0  0  0  0  0  0  0  0
    6.8557    0.8267   -1.6693 H   0  0  0  0  0  0  0  0  0  0  0  0
    9.0214    1.0214   -0.2218 H   0  0  0  0  0  0  0  0  0  0  0  0
    5.7902    0.1204    2.3548 H   0  0  0  0  0  0  0  0  0  0  0  0
    3.7935   -0.1630    1.8249 H   0  0  0  0  0  0  0  0  0  0  0  0
    1.4133   -0.4935    1.1370 H   0  0  0  0  0  0  0  0  0  0  0  0
   -2.9123    0.3779    1.3253 H   0  0  0  0  0  0  0  0  0  0  0  0
   -3.2953    2.1029    0.9759 H   0  0  0  0  0  0  0  0  0  0  0  0
   -5.4083    1.2204    1.6129 H   0  0  0  0  0  0  0  0  0  0  0  0
   -5.4310    1.1422   -0.2164 H   0  0  0  0  0  0  0  0  0  0  0  0
  1  2  1  0
  2  3  1  0
  3  4  1  0
  4  5  1  0
  5  6  1  0
  6  7  1  0
  7  8  1  0
  8  9  1  0
  9 10  1  0
 10 11  2  0
 11 12  1  0
 12 13  2  0
 13 14  1  0
 14 15  2  0
 15 16  1  0
 16 17  2  0
 17 18  1  0
 13 19  1  0
 19 20  2  0
  5 21  1  0
 21 22  1  0
 22  2  1  0
  9  7  1  0
 20 10  1  0
 18 14  1  0
  1 23  1  0
  1 24  1  0
  2 25  1  0
  3 26  1  0
  3 27  1  0
  4 28  1  0
  4 29  1  0
  5 30  1  0
  6 31  1  0
  7 32  1  1
  8 33  1  0
  8 34  1  0
  9 35  1  6
 11 36  1  0
 12 37  1  0
 15 38  1  0
 16 39  1  0
 18 40  1  0
 19 41  1  0
 20 42  1  0
 21 43  1  0
 21 44  1  0
 22 45  1  0
 22 46  1  0
M  END
$$$$
