
     RDKit          3D

 48 52  0  0  0  0  0  0  0  0999 V2000
    2.7319   -0.2634   -0.9329 O   0  0  0  0  0  0  0  0  0  0  0  0
    3.1163   -0.6425    0.2037 C   0  0  0  0  0  0  0  0  0  0  0  0
    4.5006   -0.8073    0.3979 N   0  0  0  0  0  0  0  0  0  0  0  0
    5.5083   -0.5715   -0.6190 C   0  0  0  0  0  0  0  0  0  0  0  0
    6.8549   -0.1050   -0.3259 C   0  0  0  0  0  0  0  0  0  0  0  0
    6.6377   -1.5284   -0.7771 C   0  0  0  0  0  0  0  0  0  0  0  0
    2.1177   -0.8866    1.2416 C   0  0  0  0  0  0  0  0  0  0  0  0
    2.3408   -1.2983    2.5388 C   0  0  0  0  0  0  0  0  0  0  0  0
    1.1725   -1.4164    3.1952 N   0  0  0  0  0  0  0  0  0  0  0  0
    0.2017   -1.0786    2.3127 C   0  0  0  0  0  0  0  0  0  0  0  0
   -1.1704   -1.0200    2.4360 C   0  0  0  0  0  0  0  0  0  0  0  0
   -1.8856   -0.6279    1.3154 C   0  0  0  0  0  0  0  0  0  0  0  0
   -1.2735   -0.3071    0.1241 C   0  0  0  0  0  0  0  0  0  0  0  0
   -2.0876    0.0955   -1.0156 C   0  0  0  0  0  0  0  0  0  0  0  0
   -2.9110    1.1880   -1.0391 C   0  0  0  0  0  0  0  0  0  0  0  0
   -3.1530    2.1342    0.0076 C   0  0  0  0  0  0  0  0  0  0  0  0
   -2.1478    2.9123    0.5207 C   0  0  0  0  0  0  0  0  0  0  0  0
   -2.4000    3.8311    1.5432 C   0  0  0  0  0  0  0  0  0  0  0  0
   -3.6751    3.9504    2.0354 C   0  0  0  0  0  0  0  0  0  0  0  0
   -3.9846    4.8307    3.0346 F   0  0  0  0  0  0  0  0  0  0  0  0
   -4.6960    3.1714    1.5259 C   0  0  0  0  0  0  0  0  0  0  0  0
   -4.4183    2.2747    0.5190 C   0  0  0  0  0  0  0  0  0  0  0  0
   -3.4967    1.2496   -2.2465 N   0  0  0  0  0  0  0  0  0  0  0  0
   -3.0554    0.2254   -2.9634 C   0  0  0  0  0  0  0  0  0  0  0  0
   -2.1954   -0.4846   -2.2214 N   0  0  0  0  0  0  0  0  0  0  0  0
   -1.4977   -1.6817   -2.6546 C   0  0  0  0  0  0  0  0  0  0  0  0
   -2.3066   -2.9267   -2.3372 C   0  0  0  0  0  0  0  0  0  0  0  0
   -2.4923   -2.9680   -0.9847 F   0  0  0  0  0  0  0  0  0  0  0  0
   -3.4839   -2.9775   -3.0371 F   0  0  0  0  0  0  0  0  0  0  0  0
    0.0702   -0.3847    0.0698 N   0  0  0  0  0  0  0  0  0  0  0  0
    0.7852   -0.7574    1.1262 N   0  0  0  0  0  0  0  0  0  0  0  0
    4.8180   -1.1213    1.3419 H   0  0  0  0  0  0  0  0  0  0  0  0
    5.0461   -0.2336   -1.5865 H   0  0  0  0  0  0  0  0  0  0  0  0
    7.2791   -0.0033    0.6799 H   0  0  0  0  0  0  0  0  0  0  0  0
    7.3486    0.6010   -1.0571 H   0  0  0  0  0  0  0  0  0  0  0  0
    6.6629   -2.3241    0.0136 H   0  0  0  0  0  0  0  0  0  0  0  0
    6.9463   -1.8330   -1.7982 H   0  0  0  0  0  0  0  0  0  0  0  0
    3.3514   -1.4898    2.9328 H   0  0  0  0  0  0  0  0  0  0  0  0
   -1.6545   -1.2713    3.3712 H   0  0  0  0  0  0  0  0  0  0  0  0
   -2.9444   -0.5714    1.3743 H   0  0  0  0  0  0  0  0  0  0  0  0
   -1.1277    2.8635    0.1752 H   0  0  0  0  0  0  0  0  0  0  0  0
   -1.6168    4.4546    1.9610 H   0  0  0  0  0  0  0  0  0  0  0  0
   -5.6909    3.2918    1.9380 H   0  0  0  0  0  0  0  0  0  0  0  0
   -5.2394    1.6767    0.1386 H   0  0  0  0  0  0  0  0  0  0  0  0
   -3.3821    0.0474   -3.9897 H   0  0  0  0  0  0  0  0  0  0  0  0
   -1.2857   -1.6226   -3.7501 H   0  0  0  0  0  0  0  0  0  0  0  0
   -0.5301   -1.7948   -2.1072 H   0  0  0  0  0  0  0  0  0  0  0  0
   -1.6877   -3.7993   -2.6311 H   0  0  0  0  0  0  0  0  0  0  0  0
  1  2  2  0
  2  3  1  0
  3  4  1  0
  4  5  1  0
  5  6  1  0
  2  7  1  0
  7  8  2  0
  8  9  1  0
  9 10  2  0
 10 11  1  0
 11 12  2  0
 12 13  1  0
 13 14  1  0
 14 15  2  0
 15 16  1  0
 16 17  2  0
 17 18  1  0
 18 19  2  0
 19 20  1  0
 19 21  1  0
 21 22  2  0
 15 23  1  0
 23 24  2  0
 24 25  1  0
 25 26  1  0
 26 27  1  0
 27 28  1  0
 27 29  1  0
 13 30  2  0
 30 31  1  0
  6  4  1  0
 31  7  1  0
 31 10  1  0
 25 14  1  0
 22 16  1  0
  3 32  1  0
  4 33  1  0
  5 34  1  0
  5 35  1  0
  6 36  1  0
  6 37  1  0
  8 38  1  0
 11 39  1  0
 12 40  1  0
 17 41  1  0
 18 42  1  0
 21 43  1  0
 22 44  1  0
 24 45  1  0
 26 46  1  0
 26 47  1  0
 27 48  1  0
M  END
$$$$
