
     RDKit          3D

 71 78  0  0  0  0  0  0  0  0999 V2000
    7.0306    0.7039   -2.1787 C   0  0  0  0  0  0  0  0  0  0  0  0
    6.2087   -0.3823   -1.5502 C   0  0  0  0  0  0  0  0  0  0  0  0
    5.9462   -0.1201   -0.0732 C   0  0  0  0  0  0  0  0  0  0  0  0
    5.2072    1.1793    0.0226 C   0  0  0  0  0  0  0  0  0  0  0  0
    4.8420    1.6245    1.3667 C   0  0  0  0  0  0  0  0  0  0  0  0
    3.9650    0.8395    2.2430 C   0  0  0  0  0  0  0  0  0  0  0  0
    2.6613    0.5812    1.8745 O   0  0  0  0  0  0  0  0  0  0  0  0
    2.0696   -0.1096    0.8924 C   0  0  0  0  0  0  0  0  0  0  0  0
    2.7874   -0.7101    0.0589 O   0  0  0  0  0  0  0  0  0  0  0  0
    0.5996   -0.2362    0.6899 C   0  0  2  0  0  0  0  0  0  0  0  0
   -0.0140    0.4804    1.7029 O   0  0  0  0  0  0  0  0  0  0  0  0
    0.2247   -1.6815    0.7945 C   0  0  0  0  0  0  0  0  0  0  0  0
   -0.3133   -2.0008   -0.5559 C   0  0  2  0  0  0  0  0  0  0  0  0
   -0.0782   -0.9628   -1.4208 O   0  0  0  0  0  0  0  0  0  0  0  0
    0.1534    0.2132   -0.6843 C   0  0  2  0  0  0  0  0  0  0  0  0
    1.2539    0.9894   -1.3421 C   0  0  0  0  0  0  0  0  0  0  0  0
   -1.1126    0.8867   -0.5266 N   0  0  0  0  0  0  0  0  0  0  0  0
   -1.3528    2.2214   -0.5141 C   0  0  0  0  0  0  0  0  0  0  0  0
   -0.5237    3.3120   -0.6063 C   0  0  0  0  0  0  0  0  0  0  0  0
   -1.0514    4.5776   -0.5522 C   0  0  0  0  0  0  0  0  0  0  0  0
   -2.4242    4.7792   -0.4034 C   0  0  0  0  0  0  0  0  0  0  0  0
   -3.2164    3.6631   -0.3140 C   0  0  0  0  0  0  0  0  0  0  0  0
   -2.7250    2.3811   -0.3642 C   0  0  0  0  0  0  0  0  0  0  0  0
   -3.3214    1.1512   -0.2814 C   0  0  0  0  0  0  0  0  0  0  0  0
   -4.6092    0.6784   -0.1173 C   0  0  0  0  0  0  0  0  0  0  0  0
   -4.9253   -0.6761   -0.0482 C   0  0  0  0  0  0  0  0  0  0  0  0
   -3.9021   -1.5836   -0.1483 C   0  0  0  0  0  0  0  0  0  0  0  0
   -3.8003   -2.9539   -0.1158 C   0  0  0  0  0  0  0  0  0  0  0  0
   -4.7302   -3.9592    0.0249 C   0  0  0  0  0  0  0  0  0  0  0  0
   -4.3119   -5.2882    0.0200 C   0  0  0  0  0  0  0  0  0  0  0  0
   -2.9823   -5.5889   -0.1243 C   0  0  0  0  0  0  0  0  0  0  0  0
   -2.0402   -4.6104   -0.2655 C   0  0  0  0  0  0  0  0  0  0  0  0
   -2.4603   -3.2847   -0.2603 C   0  0  0  0  0  0  0  0  0  0  0  0
   -1.7768   -2.1642   -0.3762 N   0  0  0  0  0  0  0  0  0  0  0  0
   -2.5949   -1.1103   -0.3158 C   0  0  0  0  0  0  0  0  0  0  0  0
   -2.3024    0.2332   -0.3832 C   0  0  0  0  0  0  0  0  0  0  0  0
   -6.3506   -0.8272    0.1236 C   0  0  0  0  0  0  0  0  0  0  0  0
   -7.0647   -1.8715    0.2322 O   0  0  0  0  0  0  0  0  0  0  0  0
   -6.8983    0.5078    0.1570 N   0  0  0  0  0  0  0  0  0  0  0  0
   -5.8569    1.4668    0.0128 C   0  0  0  0  0  0  0  0  0  0  0  0
    6.3835    1.4890   -2.6440 H   0  0  0  0  0  0  0  0  0  0  0  0
    7.6496    1.1674   -1.3649 H   0  0  0  0  0  0  0  0  0  0  0  0
    7.6762    0.2433   -2.9424 H   0  0  0  0  0  0  0  0  0  0  0  0
    6.7444   -1.3448   -1.6310 H   0  0  0  0  0  0  0  0  0  0  0  0
    5.2227   -0.5089   -2.0353 H   0  0  0  0  0  0  0  0  0  0  0  0
    6.9743   -0.0253    0.3785 H   0  0  0  0  0  0  0  0  0  0  0  0
    5.4565   -0.9999    0.3223 H   0  0  0  0  0  0  0  0  0  0  0  0
    4.4125    1.1999   -0.7433 H   0  0  0  0  0  0  0  0  0  0  0  0
    5.9591    1.9388   -0.4170 H   0  0  0  0  0  0  0  0  0  0  0  0
    5.8013    1.9283    1.9093 H   0  0  0  0  0  0  0  0  0  0  0  0
    4.3480    2.6494    1.2484 H   0  0  0  0  0  0  0  0  0  0  0  0
    4.4770   -0.0865    2.6578 H   0  0  0  0  0  0  0  0  0  0  0  0
    3.8659    1.4519    3.2071 H   0  0  0  0  0  0  0  0  0  0  0  0
    0.5455    0.5664    2.5078 H   0  0  0  0  0  0  0  0  0  0  0  0
    1.1080   -2.3186    1.0090 H   0  0  0  0  0  0  0  0  0  0  0  0
   -0.4956   -1.8781    1.6211 H   0  0  0  0  0  0  0  0  0  0  0  0
    0.0625   -2.9309   -0.9871 H   0  0  0  0  0  0  0  0  0  0  0  0
    1.9523    0.2459   -1.8975 H   0  0  0  0  0  0  0  0  0  0  0  0
    1.9725    1.4692   -0.6652 H   0  0  0  0  0  0  0  0  0  0  0  0
    0.9008    1.5765   -2.2063 H   0  0  0  0  0  0  0  0  0  0  0  0
    0.5307    3.2055   -0.7012 H   0  0  0  0  0  0  0  0  0  0  0  0
   -0.4448    5.4557   -0.6205 H   0  0  0  0  0  0  0  0  0  0  0  0
   -2.8602    5.7657   -0.3588 H   0  0  0  0  0  0  0  0  0  0  0  0
   -4.2840    3.8014   -0.1977 H   0  0  0  0  0  0  0  0  0  0  0  0
   -5.7650   -3.7711    0.1388 H   0  0  0  0  0  0  0  0  0  0  0  0
   -5.0479   -6.0693    0.1309 H   0  0  0  0  0  0  0  0  0  0  0  0
   -2.6543   -6.6383   -0.1279 H   0  0  0  0  0  0  0  0  0  0  0  0
   -0.9655   -4.8053   -0.3836 H   0  0  0  0  0  0  0  0  0  0  0  0
   -7.9280    0.6996    0.2732 H   0  0  0  0  0  0  0  0  0  0  0  0
   -6.0045    1.9741   -0.9738 H   0  0  0  0  0  0  0  0  0  0  0  0
   -5.8039    2.2006    0.8429 H   0  0  0  0  0  0  0  0  0  0  0  0
  1  2  1  0
  2  3  1  0
  3  4  1  0
  4  5  1  0
  5  6  1  0
  6  7  1  0
  7  8  1  0
  8  9  2  0
  8 10  1  0
 10 11  1  1
 10 12  1  0
 12 13  1  0
 13 14  1  0
 14 15  1  0
 15 16  1  6
 15 17  1  0
 17 18  1  0
 18 19  2  0
 19 20  1  0
 20 21  2  0
 21 22  1  0
 22 23  2  0
 23 24  1  0
 24 25  2  0
 25 26  1  0
 26 27  2  0
 27 28  1  0
 28 29  2  0
 29 30  1  0
 30 31  2  0
 31 32  1  0
 32 33  2  0
 33 34  1  0
 34 35  1  0
 35 36  2  0
 26 37  1  0
 37 38  2  0
 37 39  1  0
 39 40  1  0
 15 10  1  0
 36 17  1  0
 34 13  1  0
 23 18  1  0
 36 24  1  0
 40 25  1  0
 35 27  1  0
 33 28  1  0
  1 41  1  0
  1 42  1  0
  1 43  1  0
  2 44  1  0
  2 45  1  0
  3 46  1  0
  3 47  1  0
  4 48  1  0
  4 49  1  0
  5 50  1  0
  5 51  1  0
  6 52  1  0
  6 53  1  0
 11 54  1  0
 12 55  1  0
 12 56  1  0
 13 57  1  6
 16 58  1  0
 16 59  1  0
 16 60  1  0
 19 61  1  0
 20 62  1  0
 21 63  1  0
 22 64  1  0
 29 65  1  0
 30 66  1  0
 31 67  1  0
 32 68  1  0
 39 69  1  0
 40 70  1  0
 40 71  1  0
M  END
$$$$
