
     RDKit          3D

 56 58  0  0  0  0  0  0  0  0999 V2000
    9.2310   -3.3673    0.2272 C   0  0  0  0  0  0  0  0  0  0  0  0
    8.1379   -2.5501   -0.0738 O   0  0  0  0  0  0  0  0  0  0  0  0
    7.7595   -1.4333    0.6581 C   0  0  0  0  0  0  0  0  0  0  0  0
    8.4352   -1.1349    1.6500 O   0  0  0  0  0  0  0  0  0  0  0  0
    6.6039   -0.6287    0.2804 C   0  0  0  0  0  0  0  0  0  0  0  0
    6.2597    0.4742    1.0331 C   0  0  0  0  0  0  0  0  0  0  0  0
    5.1774    1.2627    0.7144 C   0  0  0  0  0  0  0  0  0  0  0  0
    4.3795    0.9701   -0.3965 C   0  0  0  0  0  0  0  0  0  0  0  0
    3.3004    1.7784   -0.6921 C   0  0  0  0  0  0  0  0  0  0  0  0
    2.5193    1.4892   -1.7816 C   0  0  0  0  0  0  0  0  0  0  0  0
    1.3268    2.2880   -2.1797 C   0  0  0  0  0  0  0  0  0  0  0  0
    0.1333    1.7746   -1.6842 O   0  0  0  0  0  0  0  0  0  0  0  0
   -0.2466    1.5825   -0.3885 C   0  0  0  0  0  0  0  0  0  0  0  0
    0.5594    1.8988    0.5137 O   0  0  0  0  0  0  0  0  0  0  0  0
   -1.5081    1.0426   -0.0037 N   0  0  0  0  0  0  0  0  0  0  0  0
   -2.5067    0.6476   -0.9814 C   0  0  0  0  0  0  0  0  0  0  0  0
   -3.4482   -0.3522   -0.3465 C   0  0  0  0  0  0  0  0  0  0  0  0
   -4.0715    0.2281    0.8303 N   0  0  0  0  0  0  0  0  0  0  0  0
   -5.4022   -0.0947    1.1936 C   0  0  0  0  0  0  0  0  0  0  0  0
   -5.8905    0.4367    2.2213 O   0  0  0  0  0  0  0  0  0  0  0  0
   -6.1518   -1.0477    0.3370 C   0  0  0  0  0  0  0  0  0  0  0  0
   -7.4912   -1.2711    0.8424 N   0  0  0  0  0  0  0  0  0  0  0  0
   -8.3666   -0.1683    0.9535 C   0  0  0  0  0  0  0  0  0  0  0  0
   -7.9848    0.9784    0.6195 O   0  0  0  0  0  0  0  0  0  0  0  0
   -9.7463   -0.3582    1.4670 C   0  0  0  0  0  0  0  0  0  0  0  0
  -10.0447   -2.2159    1.8967 Br  0  0  0  0  0  0  0  0  0  0  0  0
   -3.2884    1.1455    1.6167 C   0  0  0  0  0  0  0  0  0  0  0  0
   -1.8211    0.8761    1.3888 C   0  0  0  0  0  0  0  0  0  0  0  0
    2.8543    0.3792   -2.5513 C   0  0  0  0  0  0  0  0  0  0  0  0
    3.9278   -0.4138   -2.2464 C   0  0  0  0  0  0  0  0  0  0  0  0
    4.7193   -0.1321   -1.1530 C   0  0  0  0  0  0  0  0  0  0  0  0
    5.8151   -0.9090   -0.8087 C   0  0  0  0  0  0  0  0  0  0  0  0
   10.1981   -2.9842   -0.1127 H   0  0  0  0  0  0  0  0  0  0  0  0
    9.3264   -3.5819    1.3119 H   0  0  0  0  0  0  0  0  0  0  0  0
    9.0688   -4.3452   -0.3139 H   0  0  0  0  0  0  0  0  0  0  0  0
    6.8740    0.7221    1.9110 H   0  0  0  0  0  0  0  0  0  0  0  0
    4.8984    2.1320    1.2998 H   0  0  0  0  0  0  0  0  0  0  0  0
    3.0804    2.6384   -0.0724 H   0  0  0  0  0  0  0  0  0  0  0  0
    1.5179    3.3444   -1.8225 H   0  0  0  0  0  0  0  0  0  0  0  0
    1.3371    2.3540   -3.2870 H   0  0  0  0  0  0  0  0  0  0  0  0
   -3.0257    1.5565   -1.3189 H   0  0  0  0  0  0  0  0  0  0  0  0
   -1.9673    0.1509   -1.8077 H   0  0  0  0  0  0  0  0  0  0  0  0
   -4.1700   -0.7586   -1.0559 H   0  0  0  0  0  0  0  0  0  0  0  0
   -2.8187   -1.2149   -0.0045 H   0  0  0  0  0  0  0  0  0  0  0  0
   -5.5938   -2.0077    0.2558 H   0  0  0  0  0  0  0  0  0  0  0  0
   -6.2393   -0.6476   -0.7079 H   0  0  0  0  0  0  0  0  0  0  0  0
   -7.7675   -2.2400    1.1086 H   0  0  0  0  0  0  0  0  0  0  0  0
  -10.5059   -0.0246    0.7089 H   0  0  0  0  0  0  0  0  0  0  0  0
   -9.9371    0.2328    2.3845 H   0  0  0  0  0  0  0  0  0  0  0  0
   -3.5575    0.9748    2.6852 H   0  0  0  0  0  0  0  0  0  0  0  0
   -3.5450    2.2131    1.4185 H   0  0  0  0  0  0  0  0  0  0  0  0
   -1.6596   -0.2095    1.6242 H   0  0  0  0  0  0  0  0  0  0  0  0
   -1.1664    1.4510    2.0538 H   0  0  0  0  0  0  0  0  0  0  0  0
    2.2472    0.1328   -3.4203 H   0  0  0  0  0  0  0  0  0  0  0  0
    4.1661   -1.2851   -2.8758 H   0  0  0  0  0  0  0  0  0  0  0  0
    6.0684   -1.7785   -1.4206 H   0  0  0  0  0  0  0  0  0  0  0  0
  1  2  1  0
  2  3  1  0
  3  4  2  0
  3  5  1  0
  5  6  2  0
  6  7  1  0
  7  8  2  0
  8  9  1  0
  9 10  2  0
 10 11  1  0
 11 12  1  0
 12 13  1  0
 13 14  2  0
 13 15  1  0
 15 16  1  0
 16 17  1  0
 17 18  1  0
 18 19  1  0
 19 20  2  0
 19 21  1  0
 21 22  1  0
 22 23  1  0
 23 24  2  0
 23 25  1  0
 25 26  1  0
 18 27  1  0
 27 28  1  0
 10 29  1  0
 29 30  2  0
 30 31  1  0
 31 32  2  0
 32  5  1  0
 31  8  1  0
 28 15  1  0
  1 33  1  0
  1 34  1  0
  1 35  1  0
  6 36  1  0
  7 37  1  0
  9 38  1  0
 11 39  1  0
 11 40  1  0
 16 41  1  0
 16 42  1  0
 17 43  1  0
 17 44  1  0
 21 45  1  0
 21 46  1  0
 22 47  1  0
 25 48  1  0
 25 49  1  0
 27 50  1  0
 27 51  1  0
 28 52  1  0
 28 53  1  0
 29 54  1  0
 30 55  1  0
 32 56  1  0
M  END
$$$$
