
     RDKit          3D

 33 33  0  0  0  0  0  0  0  0999 V2000
   -4.6487   -0.6248    0.4410 C   0  0  0  0  0  0  0  0  0  0  0  0
   -3.2659   -0.0690    0.1662 C   0  0  0  0  0  0  0  0  0  0  0  0
   -2.9776    1.1405    0.9702 C   0  0  0  0  0  0  0  0  0  0  0  0
   -2.2594   -1.1700    0.2995 C   0  0  0  0  0  0  0  0  0  0  0  0
   -0.8601   -0.7787    0.0595 C   0  0  0  0  0  0  0  0  0  0  0  0
   -0.0108   -0.3248    1.0760 C   0  0  0  0  0  0  0  0  0  0  0  0
    1.2918    0.0281    0.7906 C   0  0  0  0  0  0  0  0  0  0  0  0
    1.8253   -0.0415   -0.4767 C   0  0  0  0  0  0  0  0  0  0  0  0
    0.9774   -0.4895   -1.4641 C   0  0  0  0  0  0  0  0  0  0  0  0
   -0.3346   -0.8562   -1.2374 C   0  0  0  0  0  0  0  0  0  0  0  0
    3.2113    0.3207   -0.8519 C   0  0  0  0  0  0  0  0  0  0  0  0
    3.3973    1.7947   -0.6063 C   0  0  0  0  0  0  0  0  0  0  0  0
    4.1965   -0.4951   -0.0990 C   0  0  0  0  0  0  0  0  0  0  0  0
    5.5180   -0.1569   -0.4502 O   0  0  0  0  0  0  0  0  0  0  0  0
    4.0859   -1.4021    0.7653 O   0  0  0  0  0  0  0  0  0  0  0  0
   -5.3775    0.2273    0.4895 H   0  0  0  0  0  0  0  0  0  0  0  0
   -4.6492   -1.1402    1.4234 H   0  0  0  0  0  0  0  0  0  0  0  0
   -4.9570   -1.3335   -0.3543 H   0  0  0  0  0  0  0  0  0  0  0  0
   -3.3070    0.2557   -0.9105 H   0  0  0  0  0  0  0  0  0  0  0  0
   -1.9232    1.3429    1.1683 H   0  0  0  0  0  0  0  0  0  0  0  0
   -3.4885    1.0636    1.9523 H   0  0  0  0  0  0  0  0  0  0  0  0
   -3.4130    2.0662    0.4994 H   0  0  0  0  0  0  0  0  0  0  0  0
   -2.3605   -1.6731    1.2908 H   0  0  0  0  0  0  0  0  0  0  0  0
   -2.4895   -1.9638   -0.4411 H   0  0  0  0  0  0  0  0  0  0  0  0
   -0.3842   -0.2536    2.0843 H   0  0  0  0  0  0  0  0  0  0  0  0
    1.9658    0.3834    1.5709 H   0  0  0  0  0  0  0  0  0  0  0  0
    1.3433   -0.5642   -2.4783 H   0  0  0  0  0  0  0  0  0  0  0  0
   -0.9513   -1.2046   -2.0766 H   0  0  0  0  0  0  0  0  0  0  0  0
    3.3974    0.1733   -1.9559 H   0  0  0  0  0  0  0  0  0  0  0  0
    2.9202    2.3340   -1.4574 H   0  0  0  0  0  0  0  0  0  0  0  0
    4.4496    2.0727   -0.4353 H   0  0  0  0  0  0  0  0  0  0  0  0
    2.7736    2.0420    0.2895 H   0  0  0  0  0  0  0  0  0  0  0  0
    6.3047   -0.7034   -0.0710 H   0  0  0  0  0  0  0  0  0  0  0  0
  1  2  1  0
  2  3  1  0
  2  4  1  0
  4  5  1  0
  5  6  2  0
  6  7  1  0
  7  8  2  0
  8  9  1  0
  9 10  2  0
  8 11  1  0
 11 12  1  0
 11 13  1  0
 13 14  1  0
 13 15  2  0
 10  5  1  0
  1 16  1  0
  1 17  1  0
  1 18  1  0
  2 19  1  0
  3 20  1  0
  3 21  1  0
  3 22  1  0
  4 23  1  0
  4 24  1  0
  6 25  1  0
  7 26  1  0
  9 27  1  0
 10 28  1  0
 11 29  1  0
 12 30  1  0
 12 31  1  0
 12 32  1  0
 14 33  1  0
M  END
$$$$
