
     RDKit          3D

 76 79  0  0  0  0  0  0  0  0999 V2000
   -2.2488    7.3734   -0.3034 C   0  0  0  0  0  0  0  0  0  0  0  0
   -1.1890    6.3112   -0.3851 C   0  0  0  0  0  0  0  0  0  0  0  0
   -0.0161    6.6410   -0.4216 O   0  0  0  0  0  0  0  0  0  0  0  0
   -1.5339    4.8698   -0.4225 C   0  0  0  0  0  0  0  0  0  0  0  0
   -0.3588    4.0645   -0.4084 N   0  0  0  0  0  0  0  0  0  0  0  0
    0.3922    4.0488    0.7944 C   0  0  0  0  0  0  0  0  0  0  0  0
    1.7522    3.4494    0.4942 C   0  0  0  0  0  0  0  0  0  0  0  0
    1.5547    2.0170    0.0436 C   0  0  1  0  0  0  0  0  0  0  0  0
    2.1372    1.0801    0.9750 N   0  0  0  0  0  0  0  0  0  0  0  0
    3.2121    0.2483    0.5608 C   0  0  0  0  0  0  0  0  0  0  0  0
    3.6747    0.3146   -0.6289 O   0  0  0  0  0  0  0  0  0  0  0  0
    3.7820   -0.6687    1.4775 N   0  0  0  0  0  0  0  0  0  0  0  0
    4.8832   -1.4768    0.9576 C   0  0  0  0  0  0  0  0  0  0  0  0
    5.5272   -1.6879    0.0271 N   0  0  0  0  0  0  0  0  0  0  0  0
    6.5172   -2.5330   -0.1520 C   0  0  0  0  0  0  0  0  0  0  0  0
    7.2641   -2.6804   -1.4621 C   0  0  0  0  0  0  0  0  0  0  0  0
    6.8336   -3.2879    0.9558 C   0  0  0  0  0  0  0  0  0  0  0  0
    7.8320   -4.3102    1.1986 C   0  0  0  0  0  0  0  0  0  0  0  0
    8.7977   -4.7719    0.1928 C   0  0  0  0  0  0  0  0  0  0  0  0
    7.8556   -4.8278    2.3665 O   0  0  0  0  0  0  0  0  0  0  0  0
    5.6543   -2.7004    2.1760 S   0  0  0  0  0  0  0  0  0  0  0  0
    0.0940    1.7156   -0.2211 C   0  0  2  0  0  0  0  0  0  0  0  0
    0.0172    0.3614   -0.8726 C   0  0  0  0  0  0  0  0  0  0  0  0
   -1.3090   -0.0600   -1.1843 N   0  0  0  0  0  0  0  0  0  0  0  0
   -1.2282   -1.3707   -1.7980 C   0  0  0  0  0  0  0  0  0  0  0  0
   -1.4284   -2.4894   -0.7770 C   0  0  0  0  0  0  0  0  0  0  0  0
   -2.8762   -2.5161   -0.3033 C   0  0  0  0  0  0  0  0  0  0  0  0
   -3.3512   -1.0936   -0.3019 C   0  0  1  0  0  0  0  0  0  0  0  0
   -4.3986   -0.7934    0.7174 C   0  0  0  0  0  0  0  0  0  0  0  0
   -5.6290   -1.5904    0.5579 C   0  0  0  0  0  0  0  0  0  0  0  0
   -6.6364   -1.1253   -0.2449 C   0  0  0  0  0  0  0  0  0  0  0  0
   -7.8153   -1.8045   -0.4434 C   0  0  0  0  0  0  0  0  0  0  0  0
   -8.0068   -3.0111    0.1889 C   0  0  0  0  0  0  0  0  0  0  0  0
   -9.1567   -3.7220    0.0248 F   0  0  0  0  0  0  0  0  0  0  0  0
   -7.0038   -3.4895    0.9978 C   0  0  0  0  0  0  0  0  0  0  0  0
   -5.8152   -2.7969    1.1930 C   0  0  0  0  0  0  0  0  0  0  0  0
   -2.1726   -0.1519   -0.0248 C   0  0  0  0  0  0  0  0  0  0  0  0
   -0.4476    2.8141   -1.0894 C   0  0  0  0  0  0  0  0  0  0  0  0
   -3.2257    6.8673   -0.4444 H   0  0  0  0  0  0  0  0  0  0  0  0
   -2.1810    7.8831    0.7003 H   0  0  0  0  0  0  0  0  0  0  0  0
   -2.0465    8.1117   -1.0934 H   0  0  0  0  0  0  0  0  0  0  0  0
   -2.1636    4.7145   -1.3161 H   0  0  0  0  0  0  0  0  0  0  0  0
   -2.2078    4.6550    0.4602 H   0  0  0  0  0  0  0  0  0  0  0  0
   -0.1102    3.5101    1.6266 H   0  0  0  0  0  0  0  0  0  0  0  0
    0.5626    5.0800    1.1507 H   0  0  0  0  0  0  0  0  0  0  0  0
    2.4449    3.4987    1.3436 H   0  0  0  0  0  0  0  0  0  0  0  0
    2.1866    4.0726   -0.3147 H   0  0  0  0  0  0  0  0  0  0  0  0
    2.0710    1.9241   -0.9433 H   0  0  0  0  0  0  0  0  0  0  0  0
    1.7921    0.9922    1.9513 H   0  0  0  0  0  0  0  0  0  0  0  0
    3.4333   -0.7442    2.4338 H   0  0  0  0  0  0  0  0  0  0  0  0
    7.3955   -3.7209   -1.7485 H   0  0  0  0  0  0  0  0  0  0  0  0
    8.2041   -2.1168   -1.3755 H   0  0  0  0  0  0  0  0  0  0  0  0
    6.6848   -2.2032   -2.3033 H   0  0  0  0  0  0  0  0  0  0  0  0
    9.3078   -3.9490   -0.3494 H   0  0  0  0  0  0  0  0  0  0  0  0
    8.3028   -5.5090   -0.4830 H   0  0  0  0  0  0  0  0  0  0  0  0
    9.6258   -5.3157    0.7365 H   0  0  0  0  0  0  0  0  0  0  0  0
   -0.4259    1.6958    0.7582 H   0  0  0  0  0  0  0  0  0  0  0  0
    0.5167   -0.3585   -0.1806 H   0  0  0  0  0  0  0  0  0  0  0  0
    0.6143    0.3269   -1.8076 H   0  0  0  0  0  0  0  0  0  0  0  0
   -0.2169   -1.4954   -2.2309 H   0  0  0  0  0  0  0  0  0  0  0  0
   -1.9367   -1.4832   -2.6419 H   0  0  0  0  0  0  0  0  0  0  0  0
   -0.7173   -2.3916    0.0404 H   0  0  0  0  0  0  0  0  0  0  0  0
   -1.2505   -3.4363   -1.3133 H   0  0  0  0  0  0  0  0  0  0  0  0
   -3.5121   -3.0907   -1.0352 H   0  0  0  0  0  0  0  0  0  0  0  0
   -2.9903   -3.0203    0.6554 H   0  0  0  0  0  0  0  0  0  0  0  0
   -3.7930   -0.8701   -1.3012 H   0  0  0  0  0  0  0  0  0  0  0  0
   -4.0001   -0.8816    1.7661 H   0  0  0  0  0  0  0  0  0  0  0  0
   -4.6800    0.2755    0.5996 H   0  0  0  0  0  0  0  0  0  0  0  0
   -6.5281   -0.1715   -0.7676 H   0  0  0  0  0  0  0  0  0  0  0  0
   -8.5885   -1.4169   -1.0785 H   0  0  0  0  0  0  0  0  0  0  0  0
   -7.1371   -4.4291    1.4984 H   0  0  0  0  0  0  0  0  0  0  0  0
   -5.0547   -3.1909    1.8283 H   0  0  0  0  0  0  0  0  0  0  0  0
   -2.6298    0.8478    0.1283 H   0  0  0  0  0  0  0  0  0  0  0  0
   -1.6623   -0.5453    0.8621 H   0  0  0  0  0  0  0  0  0  0  0  0
    0.2238    2.8727   -1.9875 H   0  0  0  0  0  0  0  0  0  0  0  0
   -1.4673    2.6629   -1.4365 H   0  0  0  0  0  0  0  0  0  0  0  0
  1  2  1  0
  2  3  2  0
  2  4  1  0
  4  5  1  0
  5  6  1  0
  6  7  1  0
  7  8  1  0
  8  9  1  0
  9 10  1  0
 10 11  2  0
 10 12  1  0
 12 13  1  0
 13 14  2  0
 14 15  1  0
 15 16  1  0
 15 17  2  0
 17 18  1  0
 18 19  1  0
 18 20  2  0
 17 21  1  0
  8 22  1  0
 22 23  1  0
 23 24  1  0
 24 25  1  0
 25 26  1  0
 26 27  1  0
 27 28  1  0
 28 29  1  0
 29 30  1  0
 30 31  2  0
 31 32  1  0
 32 33  2  0
 33 34  1  0
 33 35  1  0
 35 36  2  0
 28 37  1  0
 22 38  1  0
 38  5  1  0
 21 13  1  0
 37 24  1  0
 36 30  1  0
  1 39  1  0
  1 40  1  0
  1 41  1  0
  4 42  1  0
  4 43  1  0
  6 44  1  0
  6 45  1  0
  7 46  1  0
  7 47  1  0
  8 48  1  6
  9 49  1  0
 12 50  1  0
 16 51  1  0
 16 52  1  0
 16 53  1  0
 19 54  1  0
 19 55  1  0
 19 56  1  0
 22 57  1  1
 23 58  1  0
 23 59  1  0
 25 60  1  0
 25 61  1  0
 26 62  1  0
 26 63  1  0
 27 64  1  0
 27 65  1  0
 28 66  1  6
 29 67  1  0
 29 68  1  0
 31 69  1  0
 32 70  1  0
 35 71  1  0
 36 72  1  0
 37 73  1  0
 37 74  1  0
 38 75  1  0
 38 76  1  0
M  END
$$$$
