
     RDKit          3D

 26 27  0  0  0  0  0  0  0  0999 V2000
    4.8785    1.2402    0.1438 O   0  0  0  0  0  0  0  0  0  0  0  0
    4.2001   -0.0606    0.1874 B   0  0  0  0  0  0  0  0  0  0  0  0
    4.8560   -1.2763   -0.2917 O   0  0  0  0  0  0  0  0  0  0  0  0
    2.6351   -0.0444    0.1554 C   0  0  0  0  0  0  0  0  0  0  0  0
    1.9429   -0.4697    1.2715 C   0  0  0  0  0  0  0  0  0  0  0  0
    0.5587   -0.4444    1.2145 C   0  0  0  0  0  0  0  0  0  0  0  0
   -0.1333   -0.0206    0.1106 C   0  0  0  0  0  0  0  0  0  0  0  0
   -1.6051   -0.0141    0.1038 C   0  0  0  0  0  0  0  0  0  0  0  0
   -2.2996   -0.2241   -1.0824 C   0  0  0  0  0  0  0  0  0  0  0  0
   -3.6920   -0.2281   -1.1445 C   0  0  0  0  0  0  0  0  0  0  0  0
   -4.4100   -0.0169    0.0078 C   0  0  0  0  0  0  0  0  0  0  0  0
   -3.7286    0.1918    1.1862 C   0  0  0  0  0  0  0  0  0  0  0  0
   -2.3432    0.1932    1.2339 C   0  0  0  0  0  0  0  0  0  0  0  0
    0.6114    0.3938   -0.9777 C   0  0  0  0  0  0  0  0  0  0  0  0
    1.9890    0.3889   -0.9736 C   0  0  0  0  0  0  0  0  0  0  0  0
    4.2488    1.9918    0.0260 H   0  0  0  0  0  0  0  0  0  0  0  0
    4.7504   -1.4021   -1.2685 H   0  0  0  0  0  0  0  0  0  0  0  0
    2.5012   -0.7972    2.1248 H   0  0  0  0  0  0  0  0  0  0  0  0
    0.0225   -0.7786    2.0915 H   0  0  0  0  0  0  0  0  0  0  0  0
   -1.7347   -0.3900   -1.9893 H   0  0  0  0  0  0  0  0  0  0  0  0
   -4.2271   -0.3927   -2.0720 H   0  0  0  0  0  0  0  0  0  0  0  0
   -5.4798   -0.0154   -0.0150 H   0  0  0  0  0  0  0  0  0  0  0  0
   -4.2501    0.3630    2.1238 H   0  0  0  0  0  0  0  0  0  0  0  0
   -1.8457    0.3591    2.1689 H   0  0  0  0  0  0  0  0  0  0  0  0
    0.0462    0.7325   -1.8592 H   0  0  0  0  0  0  0  0  0  0  0  0
    2.5081    0.7210   -1.8453 H   0  0  0  0  0  0  0  0  0  0  0  0
  1  2  1  0
  2  3  1  0
  2  4  1  0
  4  5  2  0
  5  6  1  0
  6  7  2  0
  7  8  1  0
  8  9  2  0
  9 10  1  0
 10 11  2  0
 11 12  1  0
 12 13  2  0
  7 14  1  0
 14 15  2  0
 15  4  1  0
 13  8  1  0
  1 16  1  0
  3 17  1  0
  5 18  1  0
  6 19  1  0
  9 20  1  0
 10 21  1  0
 11 22  1  0
 12 23  1  0
 13 24  1  0
 14 25  1  0
 15 26  1  0
M  END
$$$$
