
     RDKit          3D

 49 53  0  0  0  0  0  0  0  0999 V2000
    7.5238   -1.0430   -2.1099 C   0  0  0  0  0  0  0  0  0  0  0  0
    6.7123    0.0406   -1.4069 C   0  0  0  0  0  0  0  0  0  0  0  0
    7.6361    1.1687   -0.9591 C   0  0  0  0  0  0  0  0  0  0  0  0
    6.0668   -0.4310   -0.2803 O   0  0  0  0  0  0  0  0  0  0  0  0
    4.7064   -0.3704   -0.0768 C   0  0  0  0  0  0  0  0  0  0  0  0
    4.1631   -0.8876    1.1158 C   0  0  0  0  0  0  0  0  0  0  0  0
    2.8224   -0.8673    1.3975 C   0  0  0  0  0  0  0  0  0  0  0  0
    1.9536   -0.3294    0.5031 C   0  0  0  0  0  0  0  0  0  0  0  0
    0.5169   -0.2863    0.7584 C   0  0  0  0  0  0  0  0  0  0  0  0
   -0.2570    0.7352    0.2546 C   0  0  0  0  0  0  0  0  0  0  0  0
   -1.5730    0.7307    0.5153 N   0  0  0  0  0  0  0  0  0  0  0  0
   -2.2017   -0.2000    1.2354 C   0  0  0  0  0  0  0  0  0  0  0  0
   -3.5210   -0.3606    1.5965 C   0  0  0  0  0  0  0  0  0  0  0  0
   -4.6584    0.4919    1.2728 C   0  0  0  0  0  0  0  0  0  0  0  0
   -5.0659    1.5491    2.0606 C   0  0  0  0  0  0  0  0  0  0  0  0
   -6.1520    2.3352    1.7184 C   0  0  0  0  0  0  0  0  0  0  0  0
   -6.8428    2.0745    0.5865 N   0  0  0  0  0  0  0  0  0  0  0  0
   -6.4831    1.0579   -0.2093 C   0  0  0  0  0  0  0  0  0  0  0  0
   -7.1899    0.7999   -1.3564 C   0  0  0  0  0  0  0  0  0  0  0  0
   -6.8186   -0.2469   -2.1745 C   0  0  0  0  0  0  0  0  0  0  0  0
   -5.7389   -1.0276   -1.8337 C   0  0  0  0  0  0  0  0  0  0  0  0
   -5.0059   -0.7998   -0.6916 C   0  0  0  0  0  0  0  0  0  0  0  0
   -5.3888    0.2592    0.1274 C   0  0  0  0  0  0  0  0  0  0  0  0
   -3.5256   -1.5365    2.3517 C   0  0  0  0  0  0  0  0  0  0  0  0
   -2.2766   -1.9968    2.4026 N   0  0  0  0  0  0  0  0  0  0  0  0
   -1.4393   -1.2074    1.7324 N   0  0  0  0  0  0  0  0  0  0  0  0
   -0.1153   -1.2575    1.5052 C   0  0  0  0  0  0  0  0  0  0  0  0
    2.4398    0.1820   -0.6636 C   0  0  0  0  0  0  0  0  0  0  0  0
    3.8039    0.1683   -0.9646 C   0  0  0  0  0  0  0  0  0  0  0  0
    6.8413   -1.7330   -2.6071 H   0  0  0  0  0  0  0  0  0  0  0  0
    8.2400   -0.5292   -2.7527 H   0  0  0  0  0  0  0  0  0  0  0  0
    8.0861   -1.5961   -1.3257 H   0  0  0  0  0  0  0  0  0  0  0  0
    6.0589    0.4804   -2.1686 H   0  0  0  0  0  0  0  0  0  0  0  0
    8.1705    0.8298   -0.0717 H   0  0  0  0  0  0  0  0  0  0  0  0
    6.9520    2.0143   -0.6658 H   0  0  0  0  0  0  0  0  0  0  0  0
    8.2705    1.5259   -1.7844 H   0  0  0  0  0  0  0  0  0  0  0  0
    4.8568   -1.3062    1.8083 H   0  0  0  0  0  0  0  0  0  0  0  0
    2.4323   -1.2737    2.3262 H   0  0  0  0  0  0  0  0  0  0  0  0
    0.1417    1.5330   -0.3353 H   0  0  0  0  0  0  0  0  0  0  0  0
   -4.5235    1.7686    2.9670 H   0  0  0  0  0  0  0  0  0  0  0  0
   -6.4929    3.1697    2.3175 H   0  0  0  0  0  0  0  0  0  0  0  0
   -8.0268    1.4382   -1.5804 H   0  0  0  0  0  0  0  0  0  0  0  0
   -7.4169   -0.4032   -3.0707 H   0  0  0  0  0  0  0  0  0  0  0  0
   -5.4651   -1.8403   -2.4856 H   0  0  0  0  0  0  0  0  0  0  0  0
   -4.1624   -1.3949   -0.4085 H   0  0  0  0  0  0  0  0  0  0  0  0
   -4.3873   -1.9893    2.8108 H   0  0  0  0  0  0  0  0  0  0  0  0
    0.4310   -2.0775    1.9244 H   0  0  0  0  0  0  0  0  0  0  0  0
    1.7699    0.6210   -1.4028 H   0  0  0  0  0  0  0  0  0  0  0  0
    4.1327    0.5865   -1.9023 H   0  0  0  0  0  0  0  0  0  0  0  0
  1  2  1  0
  2  3  1  0
  2  4  1  0
  4  5  1  0
  5  6  2  0
  6  7  1  0
  7  8  2  0
  8  9  1  0
  9 10  1  0
 10 11  2  0
 11 12  1  0
 12 13  2  0
 13 14  1  0
 14 15  2  0
 15 16  1  0
 16 17  2  0
 17 18  1  0
 18 19  2  0
 19 20  1  0
 20 21  2  0
 21 22  1  0
 22 23  2  0
 13 24  1  0
 24 25  2  0
 25 26  1  0
 26 27  1  0
  8 28  1  0
 28 29  2  0
 29  5  1  0
 27  9  2  0
 26 12  1  0
 23 14  1  0
 23 18  1  0
  1 30  1  0
  1 31  1  0
  1 32  1  0
  2 33  1  0
  3 34  1  0
  3 35  1  0
  3 36  1  0
  6 37  1  0
  7 38  1  0
 10 39  1  0
 15 40  1  0
 16 41  1  0
 19 42  1  0
 20 43  1  0
 21 44  1  0
 22 45  1  0
 24 46  1  0
 27 47  1  0
 28 48  1  0
 29 49  1  0
M  END
$$$$
