
     RDKit          3D

 56 59  0  0  0  0  0  0  0  0999 V2000
    6.2933    0.9453    3.7675 C   0  0  0  0  0  0  0  0  0  0  0  0
    6.9341    0.5527    2.5682 O   0  0  0  0  0  0  0  0  0  0  0  0
    6.1326    0.3302    1.4577 C   0  0  0  0  0  0  0  0  0  0  0  0
    4.7587    0.4796    1.4976 C   0  0  0  0  0  0  0  0  0  0  0  0
    4.0343    0.2373    0.3429 C   0  0  0  0  0  0  0  0  0  0  0  0
    2.6414    0.3757    0.3352 C   0  0  0  0  0  0  0  0  0  0  0  0
    1.9048    0.1390   -0.8030 C   0  0  0  0  0  0  0  0  0  0  0  0
    0.4576    0.2947   -0.7672 C   0  0  0  0  0  0  0  0  0  0  0  0
   -0.3200   -0.1990    0.2542 C   0  0  0  0  0  0  0  0  0  0  0  0
   -1.7071   -0.0262    0.2480 C   0  0  0  0  0  0  0  0  0  0  0  0
   -2.3370    0.6414   -0.7772 C   0  0  0  0  0  0  0  0  0  0  0  0
   -3.8204    0.8542   -0.8322 C   0  0  0  0  0  0  0  0  0  0  0  0
   -4.5038   -0.1871   -1.4972 N   0  0  0  0  0  0  0  0  0  0  0  0
   -4.1413   -0.4391   -2.8473 C   0  0  0  0  0  0  0  0  0  0  0  0
   -4.9606   -1.2955   -0.7495 C   0  0  0  0  0  0  0  0  0  0  0  0
   -5.9392   -0.8598    0.2753 C   0  0  0  0  0  0  0  0  0  0  0  0
   -5.5649   -0.5647    1.5439 C   0  0  0  0  0  0  0  0  0  0  0  0
   -6.4665   -0.1437    2.5235 C   0  0  0  0  0  0  0  0  0  0  0  0
   -7.7850   -0.0297    2.1687 C   0  0  0  0  0  0  0  0  0  0  0  0
   -8.2109   -0.3213    0.8844 C   0  0  0  0  0  0  0  0  0  0  0  0
   -7.2942   -0.7331   -0.0543 C   0  0  0  0  0  0  0  0  0  0  0  0
   -1.5425    1.1338   -1.7999 C   0  0  0  0  0  0  0  0  0  0  0  0
   -0.1796    0.9606   -1.7879 C   0  0  0  0  0  0  0  0  0  0  0  0
    2.5972   -0.2393   -1.9320 C   0  0  0  0  0  0  0  0  0  0  0  0
    1.9228   -0.4568   -2.9774 O   0  0  0  0  0  0  0  0  0  0  0  0
    3.9125   -0.3722   -1.9329 O   0  0  0  0  0  0  0  0  0  0  0  0
    4.6288   -0.1458   -0.8398 C   0  0  0  0  0  0  0  0  0  0  0  0
    6.0079   -0.2881   -0.8512 C   0  0  0  0  0  0  0  0  0  0  0  0
    6.7500   -0.0523    0.2857 C   0  0  0  0  0  0  0  0  0  0  0  0
    8.1187   -0.1972    0.2608 O   0  0  0  0  0  0  0  0  0  0  0  0
    8.8655   -0.5771   -0.8537 C   0  0  0  0  0  0  0  0  0  0  0  0
    5.6820    0.1070    4.1948 H   0  0  0  0  0  0  0  0  0  0  0  0
    5.5852    1.7801    3.5920 H   0  0  0  0  0  0  0  0  0  0  0  0
    7.0101    1.3072    4.5313 H   0  0  0  0  0  0  0  0  0  0  0  0
    4.2534    0.7784    2.4043 H   0  0  0  0  0  0  0  0  0  0  0  0
    2.1782    0.6721    1.2495 H   0  0  0  0  0  0  0  0  0  0  0  0
    0.1707   -0.7187    1.0520 H   0  0  0  0  0  0  0  0  0  0  0  0
   -2.2995   -0.4243    1.0641 H   0  0  0  0  0  0  0  0  0  0  0  0
   -4.1653    0.9991    0.2040 H   0  0  0  0  0  0  0  0  0  0  0  0
   -4.0562    1.8128   -1.3520 H   0  0  0  0  0  0  0  0  0  0  0  0
   -3.0368   -0.6446   -2.9473 H   0  0  0  0  0  0  0  0  0  0  0  0
   -4.6342   -1.3621   -3.2094 H   0  0  0  0  0  0  0  0  0  0  0  0
   -4.4110    0.4215   -3.4938 H   0  0  0  0  0  0  0  0  0  0  0  0
   -5.4395   -2.0247   -1.4526 H   0  0  0  0  0  0  0  0  0  0  0  0
   -4.0782   -1.7941   -0.2948 H   0  0  0  0  0  0  0  0  0  0  0  0
   -4.5390   -0.6522    1.8530 H   0  0  0  0  0  0  0  0  0  0  0  0
   -6.1053    0.0808    3.5318 H   0  0  0  0  0  0  0  0  0  0  0  0
   -8.4893    0.2968    2.9254 H   0  0  0  0  0  0  0  0  0  0  0  0
   -9.2722   -0.2234    0.6216 H   0  0  0  0  0  0  0  0  0  0  0  0
   -7.5880   -0.9737   -1.0808 H   0  0  0  0  0  0  0  0  0  0  0  0
   -2.0191    1.6517   -2.5977 H   0  0  0  0  0  0  0  0  0  0  0  0
    0.3884    1.3648   -2.6094 H   0  0  0  0  0  0  0  0  0  0  0  0
    6.4681   -0.5946   -1.8032 H   0  0  0  0  0  0  0  0  0  0  0  0
    8.6056   -1.5720   -1.2513 H   0  0  0  0  0  0  0  0  0  0  0  0
    9.9415   -0.5070   -0.5844 H   0  0  0  0  0  0  0  0  0  0  0  0
    8.6629    0.1824   -1.6576 H   0  0  0  0  0  0  0  0  0  0  0  0
  1  2  1  0
  2  3  1  0
  3  4  2  0
  4  5  1  0
  5  6  1  0
  6  7  2  0
  7  8  1  0
  8  9  2  0
  9 10  1  0
 10 11  2  0
 11 12  1  0
 12 13  1  0
 13 14  1  0
 13 15  1  0
 15 16  1  0
 16 17  2  0
 17 18  1  0
 18 19  2  0
 19 20  1  0
 20 21  2  0
 11 22  1  0
 22 23  2  0
  7 24  1  0
 24 25  2  0
 24 26  1  0
 26 27  1  0
 27 28  1  0
 28 29  2  0
 29 30  1  0
 30 31  1  0
 29  3  1  0
 27  5  2  0
 23  8  1  0
 21 16  1  0
  1 32  1  0
  1 33  1  0
  1 34  1  0
  4 35  1  0
  6 36  1  0
  9 37  1  0
 10 38  1  0
 12 39  1  0
 12 40  1  0
 14 41  1  0
 14 42  1  0
 14 43  1  0
 15 44  1  0
 15 45  1  0
 17 46  1  0
 18 47  1  0
 19 48  1  0
 20 49  1  0
 21 50  1  0
 22 51  1  0
 23 52  1  0
 28 53  1  0
 31 54  1  0
 31 55  1  0
 31 56  1  0
M  END
$$$$
