
     RDKit          3D

 76 80  0  0  0  0  0  0  0  0999 V2000
   -4.1443    3.6563   -2.9344 C   0  0  0  0  0  0  0  0  0  0  0  0
   -3.5793    4.0498   -1.5908 C   0  0  0  0  0  0  0  0  0  0  0  0
   -4.2137    3.3717   -0.4877 N   0  0  0  0  0  0  0  0  0  0  0  0
   -5.2620    3.7903    0.1697 N   0  0  0  0  0  0  0  0  0  0  0  0
   -5.5851    2.9226    1.1287 N   0  0  0  0  0  0  0  0  0  0  0  0
   -4.7171    1.8901    1.1049 C   0  0  0  0  0  0  0  0  0  0  0  0
   -4.5890    0.7437    1.8580 C   0  0  0  0  0  0  0  0  0  0  0  0
   -5.4795    0.4287    2.9181 N   0  0  0  0  0  0  0  0  0  0  0  0
   -6.6486    1.1717    3.3962 C   0  0  0  0  0  0  0  0  0  0  0  0
   -7.6413    0.0086    3.5475 C   0  0  0  0  0  0  0  0  0  0  0  0
   -6.8323   -1.1158    4.1346 C   0  0  0  0  0  0  0  0  0  0  0  0
   -5.4353   -0.7146    3.7746 C   0  0  0  0  0  0  0  0  0  0  0  0
   -4.3785   -1.2916    4.1632 O   0  0  0  0  0  0  0  0  0  0  0  0
   -3.5582   -0.0949    1.5380 C   0  0  0  0  0  0  0  0  0  0  0  0
   -2.6631    0.1510    0.5190 C   0  0  0  0  0  0  0  0  0  0  0  0
   -1.5725   -0.7483    0.1996 C   0  0  0  0  0  0  0  0  0  0  0  0
   -1.4275   -1.7676    0.9236 O   0  0  0  0  0  0  0  0  0  0  0  0
   -0.6750   -0.5494   -0.8634 N   0  0  0  0  0  0  0  0  0  0  0  0
    0.4238   -1.5491   -1.0992 C   0  0  1  0  0  0  0  0  0  0  0  0
    0.1260   -2.1587   -2.4238 C   0  0  0  0  0  0  0  0  0  0  0  0
    1.0154   -3.1858   -2.9531 C   0  0  0  0  0  0  0  0  0  0  0  0
    0.9021   -4.5028   -2.5365 C   0  0  0  0  0  0  0  0  0  0  0  0
    1.7079   -5.4697   -3.0880 C   0  0  0  0  0  0  0  0  0  0  0  0
    2.6430   -5.1548   -4.0632 C   0  0  0  0  0  0  0  0  0  0  0  0
    2.7538   -3.8502   -4.4744 C   0  0  0  0  0  0  0  0  0  0  0  0
    1.9507   -2.9042   -3.9205 C   0  0  0  0  0  0  0  0  0  0  0  0
    1.6747   -0.7132   -1.0837 C   0  0  2  0  0  0  0  0  0  0  0  0
    1.7574    0.1951   -2.1152 O   0  0  0  0  0  0  0  0  0  0  0  0
    2.9426   -1.4319   -0.8620 C   0  0  0  0  0  0  0  0  0  0  0  0
    4.0064   -0.5097   -0.5260 N   0  0  0  0  0  0  0  0  0  0  0  0
    3.9106    0.1076    0.7493 C   0  0  0  0  0  0  0  0  0  0  0  0
    5.0849    1.0129    1.0019 C   0  0  0  0  0  0  0  0  0  0  0  0
    5.0073    2.3293    0.6188 C   0  0  0  0  0  0  0  0  0  0  0  0
    6.0880    3.1666    0.8552 C   0  0  0  0  0  0  0  0  0  0  0  0
    7.2079    2.6631    1.4652 C   0  0  0  0  0  0  0  0  0  0  0  0
    7.2686    1.3412    1.8427 C   0  0  0  0  0  0  0  0  0  0  0  0
    8.5188    0.8677    2.5014 C   0  0  0  0  0  0  0  0  0  0  0  0
    9.4575    0.4958    1.5420 F   0  0  0  0  0  0  0  0  0  0  0  0
    8.2968   -0.2093    3.3250 F   0  0  0  0  0  0  0  0  0  0  0  0
    9.0815    1.8859    3.2515 F   0  0  0  0  0  0  0  0  0  0  0  0
    6.1938    0.4960    1.6107 C   0  0  0  0  0  0  0  0  0  0  0  0
   -2.8163    1.3020   -0.2144 C   0  0  0  0  0  0  0  0  0  0  0  0
   -3.8514    2.2016    0.0632 C   0  0  0  0  0  0  0  0  0  0  0  0
   -4.4313    2.6002   -2.9648 H   0  0  0  0  0  0  0  0  0  0  0  0
   -5.0633    4.2629   -3.0895 H   0  0  0  0  0  0  0  0  0  0  0  0
   -3.4329    3.9450   -3.7300 H   0  0  0  0  0  0  0  0  0  0  0  0
   -3.7049    5.1677   -1.5108 H   0  0  0  0  0  0  0  0  0  0  0  0
   -2.4730    3.8386   -1.6179 H   0  0  0  0  0  0  0  0  0  0  0  0
   -6.4683    1.5473    4.4271 H   0  0  0  0  0  0  0  0  0  0  0  0
   -7.0144    1.9228    2.7048 H   0  0  0  0  0  0  0  0  0  0  0  0
   -8.5207    0.2790    4.1308 H   0  0  0  0  0  0  0  0  0  0  0  0
   -7.8850   -0.2864    2.4878 H   0  0  0  0  0  0  0  0  0  0  0  0
   -6.9735   -1.2295    5.2198 H   0  0  0  0  0  0  0  0  0  0  0  0
   -7.0215   -2.0876    3.5919 H   0  0  0  0  0  0  0  0  0  0  0  0
   -3.4124   -0.9954    2.0855 H   0  0  0  0  0  0  0  0  0  0  0  0
   -0.7291    0.2616   -1.5047 H   0  0  0  0  0  0  0  0  0  0  0  0
    0.3733   -2.3149   -0.3255 H   0  0  0  0  0  0  0  0  0  0  0  0
    0.1572   -1.2923   -3.1670 H   0  0  0  0  0  0  0  0  0  0  0  0
   -0.9117   -2.6004   -2.4535 H   0  0  0  0  0  0  0  0  0  0  0  0
    0.1757   -4.7923   -1.7687 H   0  0  0  0  0  0  0  0  0  0  0  0
    1.6157   -6.5131   -2.7560 H   0  0  0  0  0  0  0  0  0  0  0  0
    3.2914   -5.8978   -4.5158 H   0  0  0  0  0  0  0  0  0  0  0  0
    3.4803   -3.5640   -5.2418 H   0  0  0  0  0  0  0  0  0  0  0  0
    2.0510   -1.8816   -4.2556 H   0  0  0  0  0  0  0  0  0  0  0  0
    1.5625    0.0082   -0.1611 H   0  0  0  0  0  0  0  0  0  0  0  0
    2.1014    1.0726   -1.8809 H   0  0  0  0  0  0  0  0  0  0  0  0
    3.2926   -2.0033   -1.7464 H   0  0  0  0  0  0  0  0  0  0  0  0
    2.8596   -2.1184    0.0273 H   0  0  0  0  0  0  0  0  0  0  0  0
    4.9600   -0.9324   -0.6177 H   0  0  0  0  0  0  0  0  0  0  0  0
    2.9853    0.6788    0.9165 H   0  0  0  0  0  0  0  0  0  0  0  0
    3.9171   -0.7035    1.5370 H   0  0  0  0  0  0  0  0  0  0  0  0
    4.1157    2.7001    0.1410 H   0  0  0  0  0  0  0  0  0  0  0  0
    6.0261    4.2013    0.5534 H   0  0  0  0  0  0  0  0  0  0  0  0
    8.0434    3.3531    1.6368 H   0  0  0  0  0  0  0  0  0  0  0  0
    6.2538   -0.5375    1.9109 H   0  0  0  0  0  0  0  0  0  0  0  0
   -2.1699    1.5833   -1.0288 H   0  0  0  0  0  0  0  0  0  0  0  0
  1  2  1  0
  2  3  1  0
  3  4  1  0
  4  5  2  0
  5  6  1  0
  6  7  2  0
  7  8  1  0
  8  9  1  0
  9 10  1  0
 10 11  1  0
 11 12  1  0
 12 13  2  0
  7 14  1  0
 14 15  2  0
 15 16  1  0
 16 17  2  0
 16 18  1  0
 18 19  1  0
 19 20  1  0
 20 21  1  0
 21 22  2  0
 22 23  1  0
 23 24  2  0
 24 25  1  0
 25 26  2  0
 19 27  1  0
 27 28  1  0
 27 29  1  0
 29 30  1  0
 30 31  1  0
 31 32  1  0
 32 33  2  0
 33 34  1  0
 34 35  2  0
 35 36  1  0
 36 37  1  0
 37 38  1  0
 37 39  1  0
 37 40  1  0
 36 41  2  0
 15 42  1  0
 42 43  2  0
 43  3  1  0
 43  6  1  0
 12  8  1  0
 26 21  1  0
 41 32  1  0
  1 44  1  0
  1 45  1  0
  1 46  1  0
  2 47  1  0
  2 48  1  0
  9 49  1  0
  9 50  1  0
 10 51  1  0
 10 52  1  0
 11 53  1  0
 11 54  1  0
 14 55  1  0
 18 56  1  0
 19 57  1  1
 20 58  1  0
 20 59  1  0
 22 60  1  0
 23 61  1  0
 24 62  1  0
 25 63  1  0
 26 64  1  0
 27 65  1  1
 28 66  1  0
 29 67  1  0
 29 68  1  0
 30 69  1  0
 31 70  1  0
 31 71  1  0
 33 72  1  0
 34 73  1  0
 35 74  1  0
 41 75  1  0
 42 76  1  0
M  END
$$$$
