
     RDKit          3D

 28 29  0  0  0  0  0  0  0  0999 V2000
    4.6519    0.6148    1.0301 O   0  0  0  0  0  0  0  0  0  0  0  0
    3.6715    0.2878    0.1343 C   0  0  0  0  0  0  0  0  0  0  0  0
    4.0729    0.1022   -1.0392 O   0  0  0  0  0  0  0  0  0  0  0  0
    2.2562    0.1773    0.5848 C   0  0  0  0  0  0  0  0  0  0  0  0
    1.3464   -0.1938   -0.5661 C   0  0  0  0  0  0  0  0  0  0  0  0
   -0.0639   -0.3301   -0.2189 C   0  0  0  0  0  0  0  0  0  0  0  0
   -0.6490   -1.4216    0.4089 C   0  0  0  0  0  0  0  0  0  0  0  0
   -1.9605   -1.2465    0.6016 N   0  0  0  0  0  0  0  0  0  0  0  0
   -2.2477   -0.0334    0.0995 C   0  0  0  0  0  0  0  0  0  0  0  0
   -1.1075    0.5406   -0.4043 C   0  0  0  0  0  0  0  0  0  0  0  0
   -1.2215    1.7788   -0.9519 C   0  0  0  0  0  0  0  0  0  0  0  0
    0.1778    2.5958   -1.6113 Cl  0  0  0  0  0  0  0  0  0  0  0  0
   -2.3985    2.4776   -1.0286 C   0  0  0  0  0  0  0  0  0  0  0  0
   -3.5434    1.9063   -0.5257 C   0  0  0  0  0  0  0  0  0  0  0  0
   -5.0782    2.7307   -0.5857 Cl  0  0  0  0  0  0  0  0  0  0  0  0
   -3.4513    0.6555    0.0328 C   0  0  0  0  0  0  0  0  0  0  0  0
   -0.0282   -2.6497    0.8418 C   0  0  0  0  0  0  0  0  0  0  0  0
    1.2647   -3.1360    0.7924 O   0  0  0  0  0  0  0  0  0  0  0  0
   -0.6762   -3.5702    1.4008 O   0  0  0  0  0  0  0  0  0  0  0  0
    5.5888    0.9188    0.8291 H   0  0  0  0  0  0  0  0  0  0  0  0
    2.2159   -0.6394    1.3313 H   0  0  0  0  0  0  0  0  0  0  0  0
    2.0040    1.1520    1.0238 H   0  0  0  0  0  0  0  0  0  0  0  0
    1.5076    0.5427   -1.3669 H   0  0  0  0  0  0  0  0  0  0  0  0
    1.6474   -1.2139   -0.9768 H   0  0  0  0  0  0  0  0  0  0  0  0
   -2.6789   -1.8644    1.0380 H   0  0  0  0  0  0  0  0  0  0  0  0
   -2.4988    3.4784   -1.4693 H   0  0  0  0  0  0  0  0  0  0  0  0
   -4.3625    0.2136    0.4275 H   0  0  0  0  0  0  0  0  0  0  0  0
    1.5610   -3.8738    0.1680 H   0  0  0  0  0  0  0  0  0  0  0  0
  1  2  1  0
  2  3  2  0
  2  4  1  0
  4  5  1  0
  5  6  1  0
  6  7  2  0
  7  8  1  0
  8  9  1  0
  9 10  2  0
 10 11  1  0
 11 12  1  0
 11 13  2  0
 13 14  1  0
 14 15  1  0
 14 16  2  0
  7 17  1  0
 17 18  1  0
 17 19  2  0
 10  6  1  0
 16  9  1  0
  1 20  1  0
  4 21  1  0
  4 22  1  0
  5 23  1  0
  5 24  1  0
  8 25  1  0
 13 26  1  0
 16 27  1  0
 18 28  1  0
M  END
$$$$
