
     RDKit          3D

 39 41  0  0  0  0  0  0  0  0999 V2000
    0.1216    0.1716   -0.5466 C   0  0  0  0  0  0  0  0  0  0  0  0
    1.4857   -0.0237   -0.9208 C   0  0  0  0  0  0  0  0  0  0  0  0
    2.4647    0.7301    0.0003 C   0  0  0  0  0  0  0  0  0  0  0  0
    3.8051    0.4859   -0.4357 N   0  0  0  0  0  0  0  0  0  0  0  0
    4.7349    1.1910    0.4248 C   0  0  0  0  0  0  0  0  0  0  0  0
    4.1968   -0.8930   -0.4267 C   0  0  0  0  0  0  0  0  0  0  0  0
   -1.1215   -0.0051   -0.1658 C   0  0  0  0  0  0  0  0  0  0  0  0
   -2.0455    1.1202   -0.0223 C   0  0  0  0  0  0  0  0  0  0  0  0
   -1.6361    2.4170   -0.2694 C   0  0  0  0  0  0  0  0  0  0  0  0
   -2.4113    3.5456   -0.1646 C   0  0  0  0  0  0  0  0  0  0  0  0
   -1.8602    5.1763   -0.4857 Cl  0  0  0  0  0  0  0  0  0  0  0  0
   -3.7293    3.4069    0.2220 C   0  0  0  0  0  0  0  0  0  0  0  0
   -4.1891    2.1349    0.4809 C   0  0  0  0  0  0  0  0  0  0  0  0
   -3.3425    1.0683    0.3496 C   0  0  0  0  0  0  0  0  0  0  0  0
   -4.0536   -0.4990    0.7084 S   0  0  0  0  0  0  0  0  0  0  0  0
   -2.8133   -1.7480    0.4954 C   0  0  0  0  0  0  0  0  0  0  0  0
   -1.5708   -1.3569    0.1030 C   0  0  0  0  0  0  0  0  0  0  0  0
   -0.7579   -2.4628   -0.0097 C   0  0  0  0  0  0  0  0  0  0  0  0
   -1.0922   -3.7765    0.2239 C   0  0  0  0  0  0  0  0  0  0  0  0
   -2.3842   -4.0532    0.6183 C   0  0  0  0  0  0  0  0  0  0  0  0
   -3.2676   -3.0096    0.7574 C   0  0  0  0  0  0  0  0  0  0  0  0
    0.3137    1.2116   -0.7415 H   0  0  0  0  0  0  0  0  0  0  0  0
    1.7777    0.2434   -1.9718 H   0  0  0  0  0  0  0  0  0  0  0  0
    1.8897   -1.0859   -0.8505 H   0  0  0  0  0  0  0  0  0  0  0  0
    2.2797    1.8031    0.0201 H   0  0  0  0  0  0  0  0  0  0  0  0
    2.3103    0.3224    1.0212 H   0  0  0  0  0  0  0  0  0  0  0  0
    4.9899    0.5784    1.3290 H   0  0  0  0  0  0  0  0  0  0  0  0
    4.3892    2.1610    0.7818 H   0  0  0  0  0  0  0  0  0  0  0  0
    5.6941    1.2471   -0.1610 H   0  0  0  0  0  0  0  0  0  0  0  0
    3.8450   -1.4919   -1.2672 H   0  0  0  0  0  0  0  0  0  0  0  0
    4.0102   -1.3715    0.5615 H   0  0  0  0  0  0  0  0  0  0  0  0
    5.3232   -0.8895   -0.5136 H   0  0  0  0  0  0  0  0  0  0  0  0
   -0.6408    2.6838   -0.5762 H   0  0  0  0  0  0  0  0  0  0  0  0
   -4.3839    4.2561    0.3210 H   0  0  0  0  0  0  0  0  0  0  0  0
   -5.2065    2.0366    0.7784 H   0  0  0  0  0  0  0  0  0  0  0  0
    0.2581   -2.3747   -0.3076 H   0  0  0  0  0  0  0  0  0  0  0  0
   -0.4287   -4.6184    0.1255 H   0  0  0  0  0  0  0  0  0  0  0  0
   -2.6865   -5.0660    0.8110 H   0  0  0  0  0  0  0  0  0  0  0  0
   -4.2682   -3.2658    1.0673 H   0  0  0  0  0  0  0  0  0  0  0  0
  1  2  1  0
  2  3  1  0
  3  4  1  0
  4  5  1  0
  4  6  1  0
  1  7  2  3
  7  8  1  0
  8  9  2  0
  9 10  1  0
 10 11  1  0
 10 12  2  0
 12 13  1  0
 13 14  2  0
 14 15  1  0
 15 16  1  0
 16 17  2  0
 17 18  1  0
 18 19  2  0
 19 20  1  0
 20 21  2  0
 17  7  1  0
 14  8  1  0
 21 16  1  0
  1 22  1  0
  2 23  1  0
  2 24  1  0
  3 25  1  0
  3 26  1  0
  5 27  1  0
  5 28  1  0
  5 29  1  0
  6 30  1  0
  6 31  1  0
  6 32  1  0
  9 33  1  0
 12 34  1  0
 13 35  1  0
 18 36  1  0
 19 37  1  0
 20 38  1  0
 21 39  1  0
M  END
$$$$
