
     RDKit          3D

 58 62  0  0  0  0  0  0  0  0999 V2000
   -4.8488    0.1739   -2.3673 C   0  0  0  0  0  0  0  0  0  0  0  0
   -4.4162    0.0573   -0.8793 C   0  0  1  0  0  0  0  0  0  0  0  0
   -3.1205    0.0456   -0.6891 O   0  0  0  0  0  0  0  0  0  0  0  0
   -1.9779   -0.4921   -0.2751 C   0  0  0  0  0  0  0  0  0  0  0  0
   -0.7937    0.2148   -0.4365 N   0  0  0  0  0  0  0  0  0  0  0  0
    0.3798   -0.2506   -0.0519 C   0  0  0  0  0  0  0  0  0  0  0  0
    1.6342    0.5047   -0.2259 C   0  0  0  0  0  0  0  0  0  0  0  0
    1.7661    1.7408   -0.7844 C   0  0  0  0  0  0  0  0  0  0  0  0
    3.0957    2.0407   -0.7350 N   0  0  0  0  0  0  0  0  0  0  0  0
    3.7799    1.0604   -0.1796 N   0  0  0  0  0  0  0  0  0  0  0  0
    5.2030    1.0146    0.0446 C   0  0  0  0  0  0  0  0  0  0  0  0
    5.8051   -0.2601   -0.4935 C   0  0  0  0  0  0  0  0  0  0  0  0
    7.2848   -0.0895   -0.8208 C   0  0  0  0  0  0  0  0  0  0  0  0
    7.8336    0.9504    0.1162 C   0  0  0  0  0  0  0  0  0  0  0  0
    7.3055    2.3191   -0.2695 C   0  0  0  0  0  0  0  0  0  0  0  0
    5.8475    2.1741   -0.6639 C   0  0  0  0  0  0  0  0  0  0  0  0
    2.9046    0.1162    0.1366 C   0  0  0  0  0  0  0  0  0  0  0  0
    0.4056   -1.4950    0.5330 C   0  0  0  0  0  0  0  0  0  0  0  0
   -0.7328   -2.2475    0.7221 C   0  0  0  0  0  0  0  0  0  0  0  0
   -0.9785   -3.4662    1.2564 N   0  0  0  0  0  0  0  0  0  0  0  0
   -2.2654   -3.7342    1.1981 N   0  0  0  0  0  0  0  0  0  0  0  0
   -2.9428   -4.9315    1.6608 C   0  0  0  0  0  0  0  0  0  0  0  0
   -2.9301   -2.6954    0.6182 C   0  0  0  0  0  0  0  0  0  0  0  0
   -1.9555   -1.7596    0.3200 C   0  0  0  0  0  0  0  0  0  0  0  0
   -5.1723    1.2216   -0.2171 C   0  0  1  0  0  0  0  0  0  0  0  0
   -6.6428    0.9768   -0.4430 C   0  0  0  0  0  0  0  0  0  0  0  0
   -7.2417    1.8320    0.5769 N   0  0  0  0  0  0  0  0  0  0  0  0
   -6.3618    1.7998    1.6936 C   0  0  0  0  0  0  0  0  0  0  0  0
   -6.6702    2.2485    2.8264 O   0  0  0  0  0  0  0  0  0  0  0  0
   -5.0642    1.1618    1.2825 C   0  0  0  0  0  0  0  0  0  0  0  0
   -4.7621    1.2550   -2.6014 H   0  0  0  0  0  0  0  0  0  0  0  0
   -4.1220   -0.4122   -2.9528 H   0  0  0  0  0  0  0  0  0  0  0  0
   -5.8920   -0.1170   -2.4951 H   0  0  0  0  0  0  0  0  0  0  0  0
   -4.9670   -0.8438   -0.5380 H   0  0  0  0  0  0  0  0  0  0  0  0
    0.9928    2.3912   -1.1984 H   0  0  0  0  0  0  0  0  0  0  0  0
    5.4410    1.0577    1.1286 H   0  0  0  0  0  0  0  0  0  0  0  0
    5.7318   -1.0849    0.2526 H   0  0  0  0  0  0  0  0  0  0  0  0
    5.3240   -0.6080   -1.4229 H   0  0  0  0  0  0  0  0  0  0  0  0
    7.8402   -1.0443   -0.6756 H   0  0  0  0  0  0  0  0  0  0  0  0
    7.4363    0.2534   -1.8459 H   0  0  0  0  0  0  0  0  0  0  0  0
    7.4524    0.7017    1.1387 H   0  0  0  0  0  0  0  0  0  0  0  0
    8.9389    0.9681    0.0884 H   0  0  0  0  0  0  0  0  0  0  0  0
    7.8836    2.7269   -1.1078 H   0  0  0  0  0  0  0  0  0  0  0  0
    7.3401    2.9912    0.6083 H   0  0  0  0  0  0  0  0  0  0  0  0
    5.2733    3.0958   -0.4303 H   0  0  0  0  0  0  0  0  0  0  0  0
    5.8247    1.9919   -1.7760 H   0  0  0  0  0  0  0  0  0  0  0  0
    3.1129   -0.8330    0.6097 H   0  0  0  0  0  0  0  0  0  0  0  0
    1.3499   -1.9010    0.8572 H   0  0  0  0  0  0  0  0  0  0  0  0
   -2.2981   -5.3739    2.4694 H   0  0  0  0  0  0  0  0  0  0  0  0
   -3.9609   -4.6986    2.0241 H   0  0  0  0  0  0  0  0  0  0  0  0
   -2.9720   -5.7026    0.8444 H   0  0  0  0  0  0  0  0  0  0  0  0
   -3.9755   -2.6129    0.4307 H   0  0  0  0  0  0  0  0  0  0  0  0
   -4.8447    2.1911   -0.5916 H   0  0  0  0  0  0  0  0  0  0  0  0
   -6.8502   -0.0793   -0.1768 H   0  0  0  0  0  0  0  0  0  0  0  0
   -6.9876    1.2506   -1.4509 H   0  0  0  0  0  0  0  0  0  0  0  0
   -8.1393    2.3423    0.4577 H   0  0  0  0  0  0  0  0  0  0  0  0
   -5.0981    0.1264    1.6625 H   0  0  0  0  0  0  0  0  0  0  0  0
   -4.2023    1.7367    1.6802 H   0  0  0  0  0  0  0  0  0  0  0  0
  1  2  1  0
  2  3  1  0
  3  4  1  0
  4  5  2  0
  5  6  1  0
  6  7  1  0
  7  8  1  0
  8  9  2  0
  9 10  1  0
 10 11  1  0
 11 12  1  0
 12 13  1  0
 13 14  1  0
 14 15  1  0
 15 16  1  0
 10 17  1  0
  6 18  2  0
 18 19  1  0
 19 20  2  0
 20 21  1  0
 21 22  1  0
 21 23  1  0
 23 24  2  0
  2 25  1  0
 25 26  1  0
 26 27  1  0
 27 28  1  0
 28 29  2  0
 28 30  1  0
 24  4  1  0
 30 25  1  0
 17  7  2  0
 24 19  1  0
 16 11  1  0
  1 31  1  0
  1 32  1  0
  1 33  1  0
  2 34  1  1
  8 35  1  0
 11 36  1  0
 12 37  1  0
 12 38  1  0
 13 39  1  0
 13 40  1  0
 14 41  1  0
 14 42  1  0
 15 43  1  0
 15 44  1  0
 16 45  1  0
 16 46  1  0
 17 47  1  0
 18 48  1  0
 22 49  1  0
 22 50  1  0
 22 51  1  0
 23 52  1  0
 25 53  1  6
 26 54  1  0
 26 55  1  0
 27 56  1  0
 30 57  1  0
 30 58  1  0
M  END
$$$$
