
     RDKit          3D

 56 60  0  0  0  0  0  0  0  0999 V2000
    9.5499    0.1927   -3.0004 O   0  0  0  0  0  0  0  0  0  0  0  0
    8.8394    1.0798   -2.4677 C   0  0  0  0  0  0  0  0  0  0  0  0
    9.2857    2.3920   -2.4406 O   0  0  0  0  0  0  0  0  0  0  0  0
    7.5579    0.7370   -1.8827 C   0  0  0  0  0  0  0  0  0  0  0  0
    6.7542    1.6893   -1.2905 C   0  0  0  0  0  0  0  0  0  0  0  0
    5.5428    1.3232   -0.7458 C   0  0  0  0  0  0  0  0  0  0  0  0
    5.0838    0.0239   -0.7632 C   0  0  0  0  0  0  0  0  0  0  0  0
    3.7938   -0.3514   -0.1796 C   0  0  0  0  0  0  0  0  0  0  0  0
    2.5677   -0.2993   -0.7349 N   0  0  0  0  0  0  0  0  0  0  0  0
    1.6986   -0.7246    0.1325 O   0  0  0  0  0  0  0  0  0  0  0  0
    2.2669   -1.0682    1.2616 C   0  0  0  0  0  0  0  0  0  0  0  0
    1.6442   -1.5987    2.5002 C   0  0  0  0  0  0  0  0  0  0  0  0
    0.9069   -2.8602    2.2182 C   0  0  0  0  0  0  0  0  0  0  0  0
   -0.5686   -2.7492    2.2009 C   0  0  0  0  0  0  0  0  0  0  0  0
   -1.0698   -1.4153    1.9754 N   0  0  0  0  0  0  0  0  0  0  0  0
   -2.3838   -1.2992    1.4427 C   0  0  0  0  0  0  0  0  0  0  0  0
   -3.0968   -2.3282    1.1750 O   0  0  0  0  0  0  0  0  0  0  0  0
   -2.9587   -0.0154    1.1856 N   0  0  0  0  0  0  0  0  0  0  0  0
   -4.2811    0.1243    0.6501 C   0  0  0  0  0  0  0  0  0  0  0  0
   -5.0872    1.2594    1.2487 C   0  0  0  0  0  0  0  0  0  0  0  0
   -4.6487    1.2914   -0.1763 C   0  0  0  0  0  0  0  0  0  0  0  0
   -5.7430    1.2324   -1.1603 C   0  0  0  0  0  0  0  0  0  0  0  0
   -6.8301    0.3875   -1.0287 C   0  0  0  0  0  0  0  0  0  0  0  0
   -7.8224    0.3775   -1.9787 C   0  0  0  0  0  0  0  0  0  0  0  0
   -7.7793    1.1959   -3.0877 C   0  0  0  0  0  0  0  0  0  0  0  0
   -6.6981    2.0426   -3.2273 C   0  0  0  0  0  0  0  0  0  0  0  0
   -5.7064    2.0473   -2.2701 C   0  0  0  0  0  0  0  0  0  0  0  0
   -0.3432   -0.2155    2.2501 C   0  0  0  0  0  0  0  0  0  0  0  0
    0.8120   -0.5280    3.1603 C   0  0  0  0  0  0  0  0  0  0  0  0
    3.5888   -0.8331    1.0656 N   0  0  0  0  0  0  0  0  0  0  0  0
    5.8800   -0.9239   -1.3507 C   0  0  0  0  0  0  0  0  0  0  0  0
    7.0925   -0.5686   -1.8982 C   0  0  0  0  0  0  0  0  0  0  0  0
   10.2752    2.5908   -2.3280 H   0  0  0  0  0  0  0  0  0  0  0  0
    7.1060    2.7331   -1.2664 H   0  0  0  0  0  0  0  0  0  0  0  0
    4.9207    2.0767   -0.2844 H   0  0  0  0  0  0  0  0  0  0  0  0
    2.4915   -1.8017    3.2192 H   0  0  0  0  0  0  0  0  0  0  0  0
    1.3318   -3.3014    1.2689 H   0  0  0  0  0  0  0  0  0  0  0  0
    1.1840   -3.6098    3.0047 H   0  0  0  0  0  0  0  0  0  0  0  0
   -1.0524   -3.1363    3.1230 H   0  0  0  0  0  0  0  0  0  0  0  0
   -0.9532   -3.3988    1.3625 H   0  0  0  0  0  0  0  0  0  0  0  0
   -2.3978    0.8357    1.3945 H   0  0  0  0  0  0  0  0  0  0  0  0
   -4.8536   -0.8217    0.4447 H   0  0  0  0  0  0  0  0  0  0  0  0
   -4.5952    1.9343    1.9761 H   0  0  0  0  0  0  0  0  0  0  0  0
   -6.1653    1.0808    1.4750 H   0  0  0  0  0  0  0  0  0  0  0  0
   -3.8268    1.9994   -0.4083 H   0  0  0  0  0  0  0  0  0  0  0  0
   -6.8341   -0.2469   -0.1417 H   0  0  0  0  0  0  0  0  0  0  0  0
   -8.6678   -0.2882   -1.8637 H   0  0  0  0  0  0  0  0  0  0  0  0
   -8.5796    1.1802   -3.8412 H   0  0  0  0  0  0  0  0  0  0  0  0
   -6.6700    2.6884   -4.1066 H   0  0  0  0  0  0  0  0  0  0  0  0
   -4.8474    2.7211   -2.3847 H   0  0  0  0  0  0  0  0  0  0  0  0
    0.0100    0.3241    1.3489 H   0  0  0  0  0  0  0  0  0  0  0  0
   -0.9706    0.5404    2.8099 H   0  0  0  0  0  0  0  0  0  0  0  0
    1.4609    0.3921    3.1884 H   0  0  0  0  0  0  0  0  0  0  0  0
    0.4901   -0.8431    4.1571 H   0  0  0  0  0  0  0  0  0  0  0  0
    5.5484   -1.9643   -1.3822 H   0  0  0  0  0  0  0  0  0  0  0  0
    7.7472   -1.3018   -2.3726 H   0  0  0  0  0  0  0  0  0  0  0  0
  1  2  2  0
  2  3  1  0
  2  4  1  0
  4  5  2  0
  5  6  1  0
  6  7  2  0
  7  8  1  0
  8  9  2  0
  9 10  1  0
 10 11  1  0
 11 12  1  0
 12 13  1  0
 13 14  1  0
 14 15  1  0
 15 16  1  0
 16 17  2  0
 16 18  1  0
 18 19  1  0
 19 20  1  0
 20 21  1  0
 21 22  1  0
 22 23  2  0
 23 24  1  0
 24 25  2  0
 25 26  1  0
 26 27  2  0
 15 28  1  0
 28 29  1  0
 11 30  2  0
  7 31  1  0
 31 32  2  0
 32  4  1  0
 30  8  1  0
 29 12  1  0
 21 19  1  0
 27 22  1  0
  3 33  1  0
  5 34  1  0
  6 35  1  0
 12 36  1  0
 13 37  1  0
 13 38  1  0
 14 39  1  0
 14 40  1  0
 18 41  1  0
 19 42  1  0
 20 43  1  0
 20 44  1  0
 21 45  1  0
 23 46  1  0
 24 47  1  0
 25 48  1  0
 26 49  1  0
 27 50  1  0
 28 51  1  0
 28 52  1  0
 29 53  1  0
 29 54  1  0
 31 55  1  0
 32 56  1  0
M  END
$$$$
