
     RDKit          3D

 50 53  0  0  0  0  0  0  0  0999 V2000
   -1.9537   -1.0222   -1.4490 O   0  0  0  0  0  0  0  0  0  0  0  0
   -1.3110   -1.1557   -0.3808 C   0  0  0  0  0  0  0  0  0  0  0  0
    0.0606   -1.7197   -0.3923 C   0  0  0  0  0  0  0  0  0  0  0  0
    1.0428   -0.6828   -0.7034 N   0  0  0  0  0  0  0  0  0  0  0  0
    1.5837    0.0488    0.3176 C   0  0  0  0  0  0  0  0  0  0  0  0
    1.2084   -0.2375    1.4791 O   0  0  0  0  0  0  0  0  0  0  0  0
    2.4913    1.0528    0.1343 C   0  0  0  0  0  0  0  0  0  0  0  0
    3.1135    1.8508    1.2320 C   0  0  0  0  0  0  0  0  0  0  0  0
    4.2277    1.1434    1.8967 C   0  0  0  0  0  0  0  0  0  0  0  0
    4.0093    0.3778    2.9895 C   0  0  0  0  0  0  0  0  0  0  0  0
    5.0331   -0.3184    3.6489 C   0  0  0  0  0  0  0  0  0  0  0  0
    6.3022   -0.2004    3.1427 C   0  0  0  0  0  0  0  0  0  0  0  0
    6.5428    0.5750    2.0307 C   0  0  0  0  0  0  0  0  0  0  0  0
    5.5138    1.2546    1.3951 C   0  0  0  0  0  0  0  0  0  0  0  0
    2.8520    1.3076   -1.1583 N   0  0  0  0  0  0  0  0  0  0  0  0
    2.3477    0.6138   -2.1934 C   0  0  0  0  0  0  0  0  0  0  0  0
    2.7166    0.8634   -3.5011 C   0  0  0  0  0  0  0  0  0  0  0  0
    2.2104    0.1512   -4.5763 C   0  0  0  0  0  0  0  0  0  0  0  0
    1.2965   -0.8544   -4.3368 C   0  0  0  0  0  0  0  0  0  0  0  0
    0.9178   -1.1126   -3.0112 C   0  0  0  0  0  0  0  0  0  0  0  0
    1.4254   -0.4009   -1.9578 C   0  0  0  0  0  0  0  0  0  0  0  0
   -1.9859   -0.7305    0.8154 N   0  0  0  0  0  0  0  0  0  0  0  0
   -3.2644   -0.1892    0.7891 N   0  0  0  0  0  0  0  0  0  0  0  0
   -4.2993   -0.9433    0.8885 C   0  0  0  0  0  0  0  0  0  0  0  0
   -5.6505   -0.3763    0.8602 C   0  0  0  0  0  0  0  0  0  0  0  0
   -6.7390   -1.1723    0.9628 C   0  0  0  0  0  0  0  0  0  0  0  0
   -8.0023   -0.6163    0.9337 C   0  0  0  0  0  0  0  0  0  0  0  0
   -8.1410    0.7427    0.8008 C   0  0  0  0  0  0  0  0  0  0  0  0
   -7.0203    1.5243    0.6992 C   0  0  0  0  0  0  0  0  0  0  0  0
   -5.7743    0.9779    0.7274 C   0  0  0  0  0  0  0  0  0  0  0  0
    0.1769   -2.6391   -0.9813 H   0  0  0  0  0  0  0  0  0  0  0  0
    0.3219   -2.0562    0.6585 H   0  0  0  0  0  0  0  0  0  0  0  0
    2.3583    2.1311    1.9883 H   0  0  0  0  0  0  0  0  0  0  0  0
    3.4843    2.8208    0.8171 H   0  0  0  0  0  0  0  0  0  0  0  0
    3.0044    0.2661    3.4266 H   0  0  0  0  0  0  0  0  0  0  0  0
    4.7917   -0.9178    4.5214 H   0  0  0  0  0  0  0  0  0  0  0  0
    7.1143   -0.7371    3.6439 H   0  0  0  0  0  0  0  0  0  0  0  0
    7.5653    0.6413    1.6619 H   0  0  0  0  0  0  0  0  0  0  0  0
    5.7510    1.8630    0.5103 H   0  0  0  0  0  0  0  0  0  0  0  0
    3.4437    1.6695   -3.6403 H   0  0  0  0  0  0  0  0  0  0  0  0
    2.5361    0.3872   -5.5980 H   0  0  0  0  0  0  0  0  0  0  0  0
    0.8888   -1.4242   -5.1582 H   0  0  0  0  0  0  0  0  0  0  0  0
    0.2129   -1.8933   -2.8443 H   0  0  0  0  0  0  0  0  0  0  0  0
   -1.4468   -0.8638    1.6900 H   0  0  0  0  0  0  0  0  0  0  0  0
   -4.2129   -2.0128    0.9955 H   0  0  0  0  0  0  0  0  0  0  0  0
   -6.6782   -2.2544    1.0697 H   0  0  0  0  0  0  0  0  0  0  0  0
   -8.9069   -1.1981    1.0108 H   0  0  0  0  0  0  0  0  0  0  0  0
   -9.1091    1.2256    0.7717 H   0  0  0  0  0  0  0  0  0  0  0  0
   -7.1389    2.6027    0.5938 H   0  0  0  0  0  0  0  0  0  0  0  0
   -4.9106    1.6381    0.6427 H   0  0  0  0  0  0  0  0  0  0  0  0
  1  2  2  0
  2  3  1  0
  3  4  1  0
  4  5  1  0
  5  6  2  0
  5  7  1  0
  7  8  1  0
  8  9  1  0
  9 10  2  0
 10 11  1  0
 11 12  2  0
 12 13  1  0
 13 14  2  0
  7 15  2  0
 15 16  1  0
 16 17  2  0
 17 18  1  0
 18 19  2  0
 19 20  1  0
 20 21  2  0
  2 22  1  0
 22 23  1  0
 23 24  2  0
 24 25  1  0
 25 26  2  0
 26 27  1  0
 27 28  2  0
 28 29  1  0
 29 30  2  0
 21  4  1  0
 30 25  1  0
 14  9  1  0
 21 16  1  0
  3 31  1  0
  3 32  1  0
  8 33  1  0
  8 34  1  0
 10 35  1  0
 11 36  1  0
 12 37  1  0
 13 38  1  0
 14 39  1  0
 17 40  1  0
 18 41  1  0
 19 42  1  0
 20 43  1  0
 22 44  1  0
 24 45  1  0
 26 46  1  0
 27 47  1  0
 28 48  1  0
 29 49  1  0
 30 50  1  0
M  END
$$$$
