
     RDKit          3D

 67 69  0  0  0  0  0  0  0  0999 V2000
    0.7801    1.2819    2.9178 C   0  0  0  0  0  0  0  0  0  0  0  0
    0.2960    2.0776    1.7301 C   0  0  0  0  0  0  0  0  0  0  0  0
    1.2262    3.2510    1.4401 C   0  0  0  0  0  0  0  0  0  0  0  0
    0.0561    1.2762    0.5732 N   0  0  0  0  0  0  0  0  0  0  0  0
    1.0214    0.4778   -0.1635 C   0  0  0  0  0  0  0  0  0  0  0  0
    1.5562   -0.7059    0.5210 C   0  0  0  0  0  0  0  0  0  0  0  0
    2.5151   -1.4579   -0.3569 C   0  0  0  0  0  0  0  0  0  0  0  0
    3.7157   -0.6365   -0.7704 C   0  0  0  0  0  0  0  0  0  0  0  0
    4.3493   -0.2452    0.3741 O   0  0  0  0  0  0  0  0  0  0  0  0
    5.4750    0.4920    0.1590 C   0  0  0  0  0  0  0  0  0  0  0  0
    6.5580   -0.2827   -0.4501 C   0  0  0  0  0  0  0  0  0  0  0  0
    7.5131    0.5724   -0.5884 O   0  0  0  0  0  0  0  0  0  0  0  0
    6.9363   -1.5627   -0.9220 N   0  0  0  0  0  0  0  0  0  0  0  0
    8.4735   -1.9119   -1.6079 S   0  0  0  0  0  0  0  0  0  0  0  0
    9.5136   -0.4782   -1.6529 C   0  0  0  0  0  0  0  0  0  0  0  0
    8.2437   -2.3402   -3.0319 O   0  0  0  0  0  0  0  0  0  0  0  0
    9.2012   -2.9627   -0.8196 O   0  0  0  0  0  0  0  0  0  0  0  0
   -1.2858    1.2200    0.0304 C   0  0  0  0  0  0  0  0  0  0  0  0
   -2.0550    0.2559    0.5984 N   0  0  0  0  0  0  0  0  0  0  0  0
   -3.3339    0.1416    0.1416 C   0  0  0  0  0  0  0  0  0  0  0  0
   -4.1765   -0.8953    0.7500 C   0  0  0  0  0  0  0  0  0  0  0  0
   -4.6497   -1.8888   -0.1070 C   0  0  0  0  0  0  0  0  0  0  0  0
   -5.4508   -2.9137    0.3599 C   0  0  0  0  0  0  0  0  0  0  0  0
   -5.7698   -2.9246    1.7083 C   0  0  0  0  0  0  0  0  0  0  0  0
   -5.3127   -1.9518    2.5755 C   0  0  0  0  0  0  0  0  0  0  0  0
   -4.5087   -0.9238    2.1043 C   0  0  0  0  0  0  0  0  0  0  0  0
   -3.8639    0.9522   -0.8551 C   0  0  0  0  0  0  0  0  0  0  0  0
   -3.0461    1.8871   -1.3743 N   0  0  0  0  0  0  0  0  0  0  0  0
   -1.7698    2.0358   -0.9509 C   0  0  0  0  0  0  0  0  0  0  0  0
   -5.2461    0.7344   -1.2583 C   0  0  0  0  0  0  0  0  0  0  0  0
   -5.7706    0.3429   -2.4816 C   0  0  0  0  0  0  0  0  0  0  0  0
   -7.1375    0.2086   -2.5974 C   0  0  0  0  0  0  0  0  0  0  0  0
   -8.0212    0.4345   -1.5881 C   0  0  0  0  0  0  0  0  0  0  0  0
   -7.4958    0.8278   -0.3585 C   0  0  0  0  0  0  0  0  0  0  0  0
   -6.1316    0.9738   -0.2012 C   0  0  0  0  0  0  0  0  0  0  0  0
    1.8782    1.2798    3.0493 H   0  0  0  0  0  0  0  0  0  0  0  0
    0.3272    0.2697    2.9160 H   0  0  0  0  0  0  0  0  0  0  0  0
    0.3987    1.7358    3.8846 H   0  0  0  0  0  0  0  0  0  0  0  0
   -0.6532    2.5543    2.0555 H   0  0  0  0  0  0  0  0  0  0  0  0
    0.9753    3.7020    0.4639 H   0  0  0  0  0  0  0  0  0  0  0  0
    2.3058    2.9553    1.5326 H   0  0  0  0  0  0  0  0  0  0  0  0
    1.0939    4.0581    2.1966 H   0  0  0  0  0  0  0  0  0  0  0  0
    0.6764    0.2086   -1.1794 H   0  0  0  0  0  0  0  0  0  0  0  0
    1.8707    1.2077   -0.3570 H   0  0  0  0  0  0  0  0  0  0  0  0
    2.0655   -0.5069    1.4861 H   0  0  0  0  0  0  0  0  0  0  0  0
    0.7113   -1.4095    0.7875 H   0  0  0  0  0  0  0  0  0  0  0  0
    2.8380   -2.4085    0.1217 H   0  0  0  0  0  0  0  0  0  0  0  0
    2.0466   -1.7748   -1.3213 H   0  0  0  0  0  0  0  0  0  0  0  0
    3.3138    0.2954   -1.2779 H   0  0  0  0  0  0  0  0  0  0  0  0
    4.3229   -1.1666   -1.5114 H   0  0  0  0  0  0  0  0  0  0  0  0
    5.8408    0.9702    1.1277 H   0  0  0  0  0  0  0  0  0  0  0  0
    5.1606    1.3474   -0.5290 H   0  0  0  0  0  0  0  0  0  0  0  0
    6.1585   -2.2160   -0.7622 H   0  0  0  0  0  0  0  0  0  0  0  0
    9.7514   -0.0896   -0.6364 H   0  0  0  0  0  0  0  0  0  0  0  0
    9.0729    0.3139   -2.2952 H   0  0  0  0  0  0  0  0  0  0  0  0
   10.4803   -0.8178   -2.0892 H   0  0  0  0  0  0  0  0  0  0  0  0
   -4.4223   -1.9183   -1.1730 H   0  0  0  0  0  0  0  0  0  0  0  0
   -5.8362   -3.7018   -0.2857 H   0  0  0  0  0  0  0  0  0  0  0  0
   -6.3959   -3.6958    2.1630 H   0  0  0  0  0  0  0  0  0  0  0  0
   -5.5431   -1.9275    3.6419 H   0  0  0  0  0  0  0  0  0  0  0  0
   -4.0912   -0.1026    2.6974 H   0  0  0  0  0  0  0  0  0  0  0  0
   -1.1071    2.7832   -1.3613 H   0  0  0  0  0  0  0  0  0  0  0  0
   -5.0074    0.1879   -3.2119 H   0  0  0  0  0  0  0  0  0  0  0  0
   -7.4845   -0.1005   -3.5820 H   0  0  0  0  0  0  0  0  0  0  0  0
   -9.0872    0.3146   -1.7284 H   0  0  0  0  0  0  0  0  0  0  0  0
   -8.2105    1.0053    0.4409 H   0  0  0  0  0  0  0  0  0  0  0  0
   -5.8553    1.2855    0.8021 H   0  0  0  0  0  0  0  0  0  0  0  0
  1  2  1  0
  2  3  1  0
  2  4  1  0
  4  5  1  0
  5  6  1  0
  6  7  1  0
  7  8  1  0
  8  9  1  0
  9 10  1  0
 10 11  1  0
 11 12  2  0
 11 13  1  0
 13 14  1  0
 14 15  1  0
 14 16  2  0
 14 17  2  0
  4 18  1  0
 18 19  2  0
 19 20  1  0
 20 21  1  0
 21 22  2  0
 22 23  1  0
 23 24  2  0
 24 25  1  0
 25 26  2  0
 20 27  2  0
 27 28  1  0
 28 29  2  0
 27 30  1  0
 30 31  2  0
 31 32  1  0
 32 33  2  0
 33 34  1  0
 34 35  2  0
 29 18  1  0
 35 30  1  0
 26 21  1  0
  1 36  1  0
  1 37  1  0
  1 38  1  0
  2 39  1  0
  3 40  1  0
  3 41  1  0
  3 42  1  0
  5 43  1  0
  5 44  1  0
  6 45  1  0
  6 46  1  0
  7 47  1  0
  7 48  1  0
  8 49  1  0
  8 50  1  0
 10 51  1  0
 10 52  1  0
 13 53  1  0
 15 54  1  0
 15 55  1  0
 15 56  1  0
 22 57  1  0
 23 58  1  0
 24 59  1  0
 25 60  1  0
 26 61  1  0
 29 62  1  0
 31 63  1  0
 32 64  1  0
 33 65  1  0
 34 66  1  0
 35 67  1  0
M  END
$$$$
