
     RDKit          3D

 29 31  0  0  0  0  0  0  0  0999 V2000
    0.3126   -1.7672    1.7846 N   0  0  0  0  0  0  0  0  0  0  0  0
    0.4032   -0.7203    0.8302 C   0  0  0  0  0  0  0  0  0  0  0  0
   -0.7090    0.0398    0.5367 C   0  0  0  0  0  0  0  0  0  0  0  0
   -0.6619    1.0716   -0.3894 C   0  0  0  0  0  0  0  0  0  0  0  0
    0.4751    1.3474   -1.0180 N   0  0  0  0  0  0  0  0  0  0  0  0
    1.5945    0.6417   -0.7748 C   0  0  0  0  0  0  0  0  0  0  0  0
    2.7670    0.9401   -1.4353 C   0  0  0  0  0  0  0  0  0  0  0  0
    3.9026    0.2042   -1.1709 C   0  0  0  0  0  0  0  0  0  0  0  0
    3.8597   -0.8374   -0.2376 C   0  0  0  0  0  0  0  0  0  0  0  0
    2.6936   -1.1438    0.4278 C   0  0  0  0  0  0  0  0  0  0  0  0
    1.5631   -0.4032    0.1575 C   0  0  0  0  0  0  0  0  0  0  0  0
   -1.9435    1.8048   -0.6021 C   0  0  0  0  0  0  0  0  0  0  0  0
   -3.0015    0.7414   -0.8977 C   0  0  0  0  0  0  0  0  0  0  0  0
   -3.0579   -0.3234    0.1394 C   0  0  0  0  0  0  0  0  0  0  0  0
   -1.9908   -0.2213    1.2013 C   0  0  0  0  0  0  0  0  0  0  0  0
   -0.4421   -2.4821    1.7779 H   0  0  0  0  0  0  0  0  0  0  0  0
    1.0194   -1.8632    2.5515 H   0  0  0  0  0  0  0  0  0  0  0  0
    2.8513    1.7344   -2.1645 H   0  0  0  0  0  0  0  0  0  0  0  0
    4.8290    0.4054   -1.6624 H   0  0  0  0  0  0  0  0  0  0  0  0
    4.7500   -1.4324   -0.0144 H   0  0  0  0  0  0  0  0  0  0  0  0
    2.6884   -1.9532    1.1435 H   0  0  0  0  0  0  0  0  0  0  0  0
   -1.8231    2.4772   -1.4488 H   0  0  0  0  0  0  0  0  0  0  0  0
   -2.2276    2.3320    0.3501 H   0  0  0  0  0  0  0  0  0  0  0  0
   -2.7147    0.3336   -1.9115 H   0  0  0  0  0  0  0  0  0  0  0  0
   -3.9827    1.2471   -1.0276 H   0  0  0  0  0  0  0  0  0  0  0  0
   -4.0851   -0.3746    0.5750 H   0  0  0  0  0  0  0  0  0  0  0  0
   -2.8803   -1.3110   -0.3780 H   0  0  0  0  0  0  0  0  0  0  0  0
   -2.1938    0.6653    1.8692 H   0  0  0  0  0  0  0  0  0  0  0  0
   -1.9956   -1.1530    1.7881 H   0  0  0  0  0  0  0  0  0  0  0  0
  1  2  1  0
  2  3  2  0
  3  4  1  0
  4  5  2  0
  5  6  1  0
  6  7  2  0
  7  8  1  0
  8  9  2  0
  9 10  1  0
 10 11  2  0
  4 12  1  0
 12 13  1  0
 13 14  1  0
 14 15  1  0
 11  2  1  0
 15  3  1  0
 11  6  1  0
  1 16  1  0
  1 17  1  0
  7 18  1  0
  8 19  1  0
  9 20  1  0
 10 21  1  0
 12 22  1  0
 12 23  1  0
 13 24  1  0
 13 25  1  0
 14 26  1  0
 14 27  1  0
 15 28  1  0
 15 29  1  0
M  END
$$$$
