
     RDKit          3D

 55 56  0  0  0  0  0  0  0  0999 V2000
   -4.2799    1.9077   -2.7457 C   0  0  0  0  0  0  0  0  0  0  0  0
   -3.1275    0.9749   -2.4358 C   0  0  0  0  0  0  0  0  0  0  0  0
   -2.8980    0.8884   -0.9693 C   0  0  0  0  0  0  0  0  0  0  0  0
   -3.6003    1.5219   -0.1243 O   0  0  0  0  0  0  0  0  0  0  0  0
   -1.9268    0.1418   -0.2579 N   0  0  0  0  0  0  0  0  0  0  0  0
   -2.3469    0.5926    1.0458 C   0  0  0  0  0  0  0  0  0  0  0  0
   -3.3359   -0.1325    1.7099 C   0  0  0  0  0  0  0  0  0  0  0  0
   -3.8473    0.1635    2.9656 C   0  0  0  0  0  0  0  0  0  0  0  0
   -3.3075    1.2868    3.5925 C   0  0  0  0  0  0  0  0  0  0  0  0
   -2.3243    2.0269    2.9584 C   0  0  0  0  0  0  0  0  0  0  0  0
   -1.8368    1.6931    1.6908 C   0  0  0  0  0  0  0  0  0  0  0  0
   -0.8205   -0.7978   -0.4988 C   0  0  0  0  0  0  0  0  0  0  0  0
   -0.1467   -1.2067    0.7594 C   0  0  0  0  0  0  0  0  0  0  0  0
    1.1979   -0.5317    0.9961 C   0  0  0  0  0  0  0  0  0  0  0  0
    2.0425   -0.5751   -0.1301 N   0  0  0  0  0  0  0  0  0  0  0  0
    3.4313   -0.5320    0.0173 C   0  0  0  0  0  0  0  0  0  0  0  0
    3.8171    0.8636    0.5180 C   0  0  0  0  0  0  0  0  0  0  0  0
    5.2930    0.9226    0.6692 C   0  0  0  0  0  0  0  0  0  0  0  0
    5.9573   -0.1242    0.3808 O   0  0  0  0  0  0  0  0  0  0  0  0
    5.9860    2.0393    1.1000 O   0  0  0  0  0  0  0  0  0  0  0  0
    7.4169    2.0229    1.2184 C   0  0  0  0  0  0  0  0  0  0  0  0
    1.4646   -1.0447   -1.3298 C   0  0  0  0  0  0  0  0  0  0  0  0
    0.1466   -0.2745   -1.4978 C   0  0  0  0  0  0  0  0  0  0  0  0
   -1.4763   -2.0313   -1.0586 C   0  0  0  0  0  0  0  0  0  0  0  0
   -2.7181   -2.1529   -1.2449 O   0  0  0  0  0  0  0  0  0  0  0  0
   -0.8574   -3.1852   -1.4459 O   0  0  0  0  0  0  0  0  0  0  0  0
   -1.5640   -4.2922   -1.9622 C   0  0  0  0  0  0  0  0  0  0  0  0
   -3.9028    2.9290   -2.9137 H   0  0  0  0  0  0  0  0  0  0  0  0
   -4.7608    1.5942   -3.7031 H   0  0  0  0  0  0  0  0  0  0  0  0
   -5.0412    1.8887   -1.9523 H   0  0  0  0  0  0  0  0  0  0  0  0
   -2.2451    1.3157   -2.9964 H   0  0  0  0  0  0  0  0  0  0  0  0
   -3.4139   -0.0126   -2.8138 H   0  0  0  0  0  0  0  0  0  0  0  0
   -3.7459   -0.9941    1.2187 H   0  0  0  0  0  0  0  0  0  0  0  0
   -4.6211   -0.4732    3.3925 H   0  0  0  0  0  0  0  0  0  0  0  0
   -3.6828    1.5482    4.5736 H   0  0  0  0  0  0  0  0  0  0  0  0
   -1.9017    2.9094    3.4572 H   0  0  0  0  0  0  0  0  0  0  0  0
   -1.0825    2.2526    1.1938 H   0  0  0  0  0  0  0  0  0  0  0  0
   -0.7447   -0.9962    1.6659 H   0  0  0  0  0  0  0  0  0  0  0  0
    0.0625   -2.3095    0.7776 H   0  0  0  0  0  0  0  0  0  0  0  0
    0.9534    0.5559    1.1778 H   0  0  0  0  0  0  0  0  0  0  0  0
    1.6092   -0.9711    1.9257 H   0  0  0  0  0  0  0  0  0  0  0  0
    3.9101   -0.6150   -0.9690 H   0  0  0  0  0  0  0  0  0  0  0  0
    3.8763   -1.3141    0.6654 H   0  0  0  0  0  0  0  0  0  0  0  0
    3.3624    1.1022    1.4826 H   0  0  0  0  0  0  0  0  0  0  0  0
    3.5057    1.5684   -0.3054 H   0  0  0  0  0  0  0  0  0  0  0  0
    7.7249    0.9971    1.5118 H   0  0  0  0  0  0  0  0  0  0  0  0
    7.6735    2.7539    2.0061 H   0  0  0  0  0  0  0  0  0  0  0  0
    7.8440    2.3178    0.2261 H   0  0  0  0  0  0  0  0  0  0  0  0
    2.1218   -0.8740   -2.2023 H   0  0  0  0  0  0  0  0  0  0  0  0
    1.2071   -2.1135   -1.2327 H   0  0  0  0  0  0  0  0  0  0  0  0
   -0.1905   -0.2765   -2.5418 H   0  0  0  0  0  0  0  0  0  0  0  0
    0.4316    0.7849   -1.2444 H   0  0  0  0  0  0  0  0  0  0  0  0
   -1.1471   -5.2605   -1.6118 H   0  0  0  0  0  0  0  0  0  0  0  0
   -2.6274   -4.2674   -1.6428 H   0  0  0  0  0  0  0  0  0  0  0  0
   -1.5142   -4.2053   -3.0662 H   0  0  0  0  0  0  0  0  0  0  0  0
  1  2  1  0
  2  3  1  0
  3  4  2  0
  3  5  1  0
  5  6  1  0
  6  7  2  0
  7  8  1  0
  8  9  2  0
  9 10  1  0
 10 11  2  0
  5 12  1  0
 12 13  1  0
 13 14  1  0
 14 15  1  0
 15 16  1  0
 16 17  1  0
 17 18  1  0
 18 19  2  0
 18 20  1  0
 20 21  1  0
 15 22  1  0
 22 23  1  0
 12 24  1  0
 24 25  2  0
 24 26  1  0
 26 27  1  0
 11  6  1  0
 23 12  1  0
  1 28  1  0
  1 29  1  0
  1 30  1  0
  2 31  1  0
  2 32  1  0
  7 33  1  0
  8 34  1  0
  9 35  1  0
 10 36  1  0
 11 37  1  0
 13 38  1  0
 13 39  1  0
 14 40  1  0
 14 41  1  0
 16 42  1  0
 16 43  1  0
 17 44  1  0
 17 45  1  0
 21 46  1  0
 21 47  1  0
 21 48  1  0
 22 49  1  0
 22 50  1  0
 23 51  1  0
 23 52  1  0
 27 53  1  0
 27 54  1  0
 27 55  1  0
M  END
$$$$
