
     RDKit          3D

 25 26  0  0  0  0  0  0  0  0999 V2000
    3.7481    1.2408    0.2854 N   0  0  0  0  0  0  0  0  0  0  0  0
    3.5717   -0.1690    0.4113 C   0  0  0  0  0  0  0  0  0  0  0  0
    4.5286   -1.0815    0.5977 N   0  0  0  0  0  0  0  0  0  0  0  0
    3.9737   -2.2373    0.6600 O   0  0  0  0  0  0  0  0  0  0  0  0
    2.7038   -2.1585    0.5270 N   0  0  0  0  0  0  0  0  0  0  0  0
    2.3681   -0.8464    0.3613 C   0  0  0  0  0  0  0  0  0  0  0  0
    1.0351   -0.3020    0.1739 C   0  0  0  0  0  0  0  0  0  0  0  0
    0.0423   -1.1055    0.1546 N   0  0  0  0  0  0  0  0  0  0  0  0
   -1.3032   -0.7317   -0.0171 C   0  0  0  0  0  0  0  0  0  0  0  0
   -1.8299   -0.7619   -1.2958 C   0  0  0  0  0  0  0  0  0  0  0  0
   -3.1403   -0.3976   -1.4606 C   0  0  0  0  0  0  0  0  0  0  0  0
   -3.8918   -0.0141   -0.3573 C   0  0  0  0  0  0  0  0  0  0  0  0
   -5.1836    0.3416   -0.5435 F   0  0  0  0  0  0  0  0  0  0  0  0
   -3.3523    0.0089    0.8984 C   0  0  0  0  0  0  0  0  0  0  0  0
   -4.2831    0.4874    2.2895 Cl  0  0  0  0  0  0  0  0  0  0  0  0
   -2.0398   -0.3525    1.0874 C   0  0  0  0  0  0  0  0  0  0  0  0
    0.7760    1.0758    0.0134 N   0  0  0  0  0  0  0  0  0  0  0  0
   -0.3399    1.5146   -0.6354 O   0  0  0  0  0  0  0  0  0  0  0  0
    3.9523    1.8141    1.1162 H   0  0  0  0  0  0  0  0  0  0  0  0
    3.6778    1.7303   -0.6342 H   0  0  0  0  0  0  0  0  0  0  0  0
   -1.2391   -1.0637   -2.1653 H   0  0  0  0  0  0  0  0  0  0  0  0
   -3.5815   -0.4124   -2.4597 H   0  0  0  0  0  0  0  0  0  0  0  0
   -1.5717   -0.3488    2.0656 H   0  0  0  0  0  0  0  0  0  0  0  0
    1.4495    1.7805    0.3976 H   0  0  0  0  0  0  0  0  0  0  0  0
   -0.0707    1.9891   -1.4703 H   0  0  0  0  0  0  0  0  0  0  0  0
  1  2  1  0
  2  3  2  0
  3  4  1  0
  4  5  1  0
  5  6  2  0
  6  7  1  0
  7  8  2  3
  8  9  1  0
  9 10  2  0
 10 11  1  0
 11 12  2  0
 12 13  1  0
 12 14  1  0
 14 15  1  0
 14 16  2  0
  7 17  1  0
 17 18  1  0
  6  2  1  0
 16  9  1  0
  1 19  1  0
  1 20  1  0
 10 21  1  0
 11 22  1  0
 16 23  1  0
 17 24  1  0
 18 25  1  0
M  END
$$$$
