
     RDKit          3D

 80 85  0  0  0  0  0  0  0  0999 V2000
    1.9416   -1.0278   -3.0906 C   0  0  0  0  0  0  0  0  0  0  0  0
    2.9814   -0.4631   -2.1994 C   0  0  0  0  0  0  0  0  0  0  0  0
    4.2146   -1.0379   -2.2949 N   0  0  0  0  0  0  0  0  0  0  0  0
    5.2664   -0.6276   -1.5889 C   0  0  0  0  0  0  0  0  0  0  0  0
    6.4856   -1.2706   -1.7482 O   0  0  0  0  0  0  0  0  0  0  0  0
    7.6374   -0.9419   -1.0807 C   0  0  0  0  0  0  0  0  0  0  0  0
    8.5287   -0.0221   -1.5893 C   0  0  0  0  0  0  0  0  0  0  0  0
    9.6901    0.2966   -0.8966 C   0  0  0  0  0  0  0  0  0  0  0  0
    9.9820   -0.2952    0.3127 C   0  0  0  0  0  0  0  0  0  0  0  0
   11.1986    0.0453    1.0270 C   0  0  0  0  0  0  0  0  0  0  0  0
   11.4447   -0.4984    2.1189 O   0  0  0  0  0  0  0  0  0  0  0  0
   12.0711    0.9617    0.4997 O   0  0  0  0  0  0  0  0  0  0  0  0
    9.0909   -1.2214    0.8313 C   0  0  0  0  0  0  0  0  0  0  0  0
    7.9395   -1.5353    0.1414 C   0  0  0  0  0  0  0  0  0  0  0  0
    5.1059    0.4271   -0.7199 C   0  0  0  0  0  0  0  0  0  0  0  0
    3.8638    1.0282   -0.6035 C   0  0  0  0  0  0  0  0  0  0  0  0
    2.7749    0.5835   -1.3508 C   0  0  0  0  0  0  0  0  0  0  0  0
    1.4857    1.2295   -1.1600 C   0  0  0  0  0  0  0  0  0  0  0  0
    0.5599    0.6827   -0.2768 N   0  0  0  0  0  0  0  0  0  0  0  0
    0.1019   -0.6231   -0.4394 C   0  0  0  0  0  0  0  0  0  0  0  0
   -0.8511   -1.1008    0.6274 C   0  0  0  0  0  0  0  0  0  0  0  0
   -1.5548   -0.0414    1.4002 C   0  0  0  0  0  0  0  0  0  0  0  0
   -2.8646    0.2748    0.9184 N   0  0  0  0  0  0  0  0  0  0  0  0
   -3.1616    0.8134   -0.3931 C   0  0  0  0  0  0  0  0  0  0  0  0
   -2.3569    1.5331   -1.0331 O   0  0  0  0  0  0  0  0  0  0  0  0
   -4.4724    0.3772   -0.7673 N   0  0  0  0  0  0  0  0  0  0  0  0
   -5.1918    0.7268   -1.9807 C   0  0  0  0  0  0  0  0  0  0  0  0
   -5.4309   -0.4940   -2.8520 C   0  0  0  0  0  0  0  0  0  0  0  0
   -6.9188   -0.7006   -3.0836 C   0  0  0  0  0  0  0  0  0  0  0  0
   -7.5254   -0.6861   -1.8296 O   0  0  0  0  0  0  0  0  0  0  0  0
   -7.6403    0.6270   -1.3888 C   0  0  0  0  0  0  0  0  0  0  0  0
   -6.4575    1.4799   -1.6946 C   0  0  0  0  0  0  0  0  0  0  0  0
   -4.9136   -0.4861    0.3318 C   0  0  0  0  0  0  0  0  0  0  0  0
   -4.1849    0.1618    1.5020 C   0  0  1  0  0  0  0  0  0  0  0  0
   -4.3027   -0.5152    2.7662 C   0  0  0  0  0  0  0  0  0  0  0  0
   -3.6316   -0.0585    3.8744 C   0  0  0  0  0  0  0  0  0  0  0  0
   -3.7112   -0.6994    5.0988 C   0  0  0  0  0  0  0  0  0  0  0  0
   -4.4850   -1.8284    5.2161 C   0  0  0  0  0  0  0  0  0  0  0  0
   -5.1717   -2.3148    4.1294 C   0  0  0  0  0  0  0  0  0  0  0  0
   -5.0713   -1.6505    2.9163 C   0  0  0  0  0  0  0  0  0  0  0  0
   -0.7505    1.2219    1.6004 C   0  0  0  0  0  0  0  0  0  0  0  0
    0.6942    1.0074    1.1206 C   0  0  0  0  0  0  0  0  0  0  0  0
    1.1239   -0.3183   -3.2880 H   0  0  0  0  0  0  0  0  0  0  0  0
    1.4909   -1.9625   -2.7006 H   0  0  0  0  0  0  0  0  0  0  0  0
    2.4101   -1.3047   -4.0578 H   0  0  0  0  0  0  0  0  0  0  0  0
    8.3454    0.4810   -2.5516 H   0  0  0  0  0  0  0  0  0  0  0  0
   10.3883    1.0273   -1.3107 H   0  0  0  0  0  0  0  0  0  0  0  0
   12.9812    1.1768    0.9145 H   0  0  0  0  0  0  0  0  0  0  0  0
    9.3558   -1.6663    1.7864 H   0  0  0  0  0  0  0  0  0  0  0  0
    7.2612   -2.2671    0.5779 H   0  0  0  0  0  0  0  0  0  0  0  0
    5.9209    0.7995   -0.1260 H   0  0  0  0  0  0  0  0  0  0  0  0
    3.7695    1.8545    0.0878 H   0  0  0  0  0  0  0  0  0  0  0  0
    0.9645    1.3707   -2.1694 H   0  0  0  0  0  0  0  0  0  0  0  0
    1.6223    2.3262   -0.8529 H   0  0  0  0  0  0  0  0  0  0  0  0
    1.0003   -1.3104   -0.4475 H   0  0  0  0  0  0  0  0  0  0  0  0
   -0.3568   -0.7394   -1.4498 H   0  0  0  0  0  0  0  0  0  0  0  0
   -1.6355   -1.7332    0.1190 H   0  0  0  0  0  0  0  0  0  0  0  0
   -0.3063   -1.7970    1.2966 H   0  0  0  0  0  0  0  0  0  0  0  0
   -1.6821   -0.4551    2.4380 H   0  0  0  0  0  0  0  0  0  0  0  0
   -4.5386    1.3996   -2.5739 H   0  0  0  0  0  0  0  0  0  0  0  0
   -4.9689   -0.4009   -3.8562 H   0  0  0  0  0  0  0  0  0  0  0  0
   -4.9967   -1.4114   -2.3996 H   0  0  0  0  0  0  0  0  0  0  0  0
   -7.3423    0.0249   -3.7786 H   0  0  0  0  0  0  0  0  0  0  0  0
   -7.0390   -1.7178   -3.5305 H   0  0  0  0  0  0  0  0  0  0  0  0
   -8.5350    1.0473   -1.9363 H   0  0  0  0  0  0  0  0  0  0  0  0
   -7.9490    0.6486   -0.3140 H   0  0  0  0  0  0  0  0  0  0  0  0
   -6.2325    2.1806   -0.8491 H   0  0  0  0  0  0  0  0  0  0  0  0
   -6.6680    2.1298   -2.5800 H   0  0  0  0  0  0  0  0  0  0  0  0
   -4.5410   -1.5114    0.1734 H   0  0  0  0  0  0  0  0  0  0  0  0
   -5.9932   -0.5101    0.4517 H   0  0  0  0  0  0  0  0  0  0  0  0
   -4.6161    1.1992    1.5958 H   0  0  0  0  0  0  0  0  0  0  0  0
   -3.0178    0.8558    3.8057 H   0  0  0  0  0  0  0  0  0  0  0  0
   -3.1553   -0.2959    5.9561 H   0  0  0  0  0  0  0  0  0  0  0  0
   -4.5527   -2.3438    6.1890 H   0  0  0  0  0  0  0  0  0  0  0  0
   -5.7683   -3.2061    4.2697 H   0  0  0  0  0  0  0  0  0  0  0  0
   -5.6426   -2.0892    2.0907 H   0  0  0  0  0  0  0  0  0  0  0  0
   -0.6623    1.5343    2.6603 H   0  0  0  0  0  0  0  0  0  0  0  0
   -1.1618    2.0290    0.9593 H   0  0  0  0  0  0  0  0  0  0  0  0
    1.2361    1.9565    1.2936 H   0  0  0  0  0  0  0  0  0  0  0  0
    1.0808    0.1726    1.7358 H   0  0  0  0  0  0  0  0  0  0  0  0
  1  2  1  0
  2  3  2  0
  3  4  1  0
  4  5  1  0
  5  6  1  0
  6  7  2  0
  7  8  1  0
  8  9  2  0
  9 10  1  0
 10 11  2  0
 10 12  1  0
  9 13  1  0
 13 14  2  0
  4 15  2  0
 15 16  1  0
 16 17  2  0
 17 18  1  0
 18 19  1  0
 19 20  1  0
 20 21  1  0
 21 22  1  0
 22 23  1  0
 23 24  1  0
 24 25  2  0
 24 26  1  0
 26 27  1  0
 27 28  1  0
 28 29  1  0
 29 30  1  0
 30 31  1  0
 31 32  1  0
 26 33  1  0
 33 34  1  0
 34 35  1  0
 35 36  2  0
 36 37  1  0
 37 38  2  0
 38 39  1  0
 39 40  2  0
 22 41  1  0
 41 42  1  0
 17  2  1  0
 42 19  1  0
 14  6  1  0
 34 23  1  0
 40 35  1  0
 32 27  1  0
  1 43  1  0
  1 44  1  0
  1 45  1  0
  7 46  1  0
  8 47  1  0
 12 48  1  0
 13 49  1  0
 14 50  1  0
 15 51  1  0
 16 52  1  0
 18 53  1  0
 18 54  1  0
 20 55  1  0
 20 56  1  0
 21 57  1  0
 21 58  1  0
 22 59  1  0
 27 60  1  0
 28 61  1  0
 28 62  1  0
 29 63  1  0
 29 64  1  0
 31 65  1  0
 31 66  1  0
 32 67  1  0
 32 68  1  0
 33 69  1  0
 33 70  1  0
 34 71  1  1
 36 72  1  0
 37 73  1  0
 38 74  1  0
 39 75  1  0
 40 76  1  0
 41 77  1  0
 41 78  1  0
 42 79  1  0
 42 80  1  0
M  END
$$$$
