
     RDKit          3D

 62 66  0  0  0  0  0  0  0  0999 V2000
   -1.6123   -2.4638   -4.0643 C   0  0  0  0  0  0  0  0  0  0  0  0
   -3.0725   -2.2297   -3.7367 C   0  0  0  0  0  0  0  0  0  0  0  0
   -3.2451   -1.8039   -2.3016 C   0  0  0  0  0  0  0  0  0  0  0  0
   -2.4789   -0.5020   -2.0759 C   0  0  0  0  0  0  0  0  0  0  0  0
   -2.6276   -0.0667   -0.6545 C   0  0  0  0  0  0  0  0  0  0  0  0
   -3.5761    0.8132   -0.1943 N   0  0  0  0  0  0  0  0  0  0  0  0
   -3.4723    0.8908    1.1257 N   0  0  0  0  0  0  0  0  0  0  0  0
   -4.2358    1.6649    2.0313 C   0  0  0  0  0  0  0  0  0  0  0  0
   -3.6986    2.7298    2.7157 C   0  0  0  0  0  0  0  0  0  0  0  0
   -4.4552    3.4850    3.6000 C   0  0  0  0  0  0  0  0  0  0  0  0
   -5.7780    3.1760    3.8108 C   0  0  0  0  0  0  0  0  0  0  0  0
   -6.3329    2.1161    3.1370 C   0  0  0  0  0  0  0  0  0  0  0  0
   -8.0154    1.7440    3.4243 Cl  0  0  0  0  0  0  0  0  0  0  0  0
   -5.5577    1.3694    2.2529 C   0  0  0  0  0  0  0  0  0  0  0  0
   -6.3301    0.0474    1.4394 Cl  0  0  0  0  0  0  0  0  0  0  0  0
   -2.4558    0.0625    1.5182 C   0  0  0  0  0  0  0  0  0  0  0  0
   -2.0089   -0.1540    2.8762 C   0  0  0  0  0  0  0  0  0  0  0  0
   -2.5862    0.4616    3.8179 O   0  0  0  0  0  0  0  0  0  0  0  0
   -0.9817   -0.9939    3.2511 O   0  0  0  0  0  0  0  0  0  0  0  0
   -1.9077   -0.5503    0.4033 C   0  0  0  0  0  0  0  0  0  0  0  0
   -0.7541   -1.4362    0.3480 C   0  0  0  0  0  0  0  0  0  0  0  0
    0.5631   -0.8370    0.2455 C   0  0  0  0  0  0  0  0  0  0  0  0
    0.9835    0.0385   -0.7095 C   0  0  0  0  0  0  0  0  0  0  0  0
    2.2966    0.5366   -0.7424 C   0  0  0  0  0  0  0  0  0  0  0  0
    3.2199    0.1564    0.1994 C   0  0  0  0  0  0  0  0  0  0  0  0
    4.5955    0.6389    0.2115 C   0  0  0  0  0  0  0  0  0  0  0  0
    5.0102    1.5171    1.2203 C   0  0  0  0  0  0  0  0  0  0  0  0
    6.2818    2.0120    1.2909 C   0  0  0  0  0  0  0  0  0  0  0  0
    7.2091    1.6239    0.3130 C   0  0  0  0  0  0  0  0  0  0  0  0
    6.8137    0.7623   -0.6827 C   0  0  0  0  0  0  0  0  0  0  0  0
    5.5019    0.2683   -0.7326 C   0  0  0  0  0  0  0  0  0  0  0  0
    5.1523   -0.6409   -1.7956 C   0  0  0  0  0  0  0  0  0  0  0  0
    3.9744   -1.2321   -2.0041 N   0  0  0  0  0  0  0  0  0  0  0  0
    4.0326   -2.0119   -3.0896 N   0  0  0  0  0  0  0  0  0  0  0  0
    5.2531   -1.8937   -3.5437 N   0  0  0  0  0  0  0  0  0  0  0  0
    5.9503   -1.0669   -2.7744 N   0  0  0  0  0  0  0  0  0  0  0  0
    2.8018   -0.7388    1.1830 C   0  0  0  0  0  0  0  0  0  0  0  0
    1.5272   -1.2029    1.1882 C   0  0  0  0  0  0  0  0  0  0  0  0
   -1.0195   -1.5447   -4.0742 H   0  0  0  0  0  0  0  0  0  0  0  0
   -1.5196   -2.9587   -5.0486 H   0  0  0  0  0  0  0  0  0  0  0  0
   -1.1641   -3.1133   -3.2556 H   0  0  0  0  0  0  0  0  0  0  0  0
   -3.4412   -1.4329   -4.3897 H   0  0  0  0  0  0  0  0  0  0  0  0
   -3.6167   -3.1887   -3.8677 H   0  0  0  0  0  0  0  0  0  0  0  0
   -4.3179   -1.6859   -2.0769 H   0  0  0  0  0  0  0  0  0  0  0  0
   -2.8601   -2.6082   -1.6582 H   0  0  0  0  0  0  0  0  0  0  0  0
   -1.4231   -0.7946   -2.2218 H   0  0  0  0  0  0  0  0  0  0  0  0
   -2.7754    0.2482   -2.8044 H   0  0  0  0  0  0  0  0  0  0  0  0
   -2.6628    3.0065    2.5787 H   0  0  0  0  0  0  0  0  0  0  0  0
   -3.9528    4.3050    4.0966 H   0  0  0  0  0  0  0  0  0  0  0  0
   -6.3620    3.7884    4.5161 H   0  0  0  0  0  0  0  0  0  0  0  0
   -0.4991   -0.8272    4.1396 H   0  0  0  0  0  0  0  0  0  0  0  0
   -0.8281   -2.1763   -0.5169 H   0  0  0  0  0  0  0  0  0  0  0  0
   -0.8317   -2.1246    1.2390 H   0  0  0  0  0  0  0  0  0  0  0  0
    0.3112    0.3996   -1.4831 H   0  0  0  0  0  0  0  0  0  0  0  0
    2.6202    1.2372   -1.5122 H   0  0  0  0  0  0  0  0  0  0  0  0
    4.2894    1.8153    1.9746 H   0  0  0  0  0  0  0  0  0  0  0  0
    6.6205    2.6900    2.0623 H   0  0  0  0  0  0  0  0  0  0  0  0
    8.2148    1.9934    0.3377 H   0  0  0  0  0  0  0  0  0  0  0  0
    7.5088    0.4459   -1.4532 H   0  0  0  0  0  0  0  0  0  0  0  0
    6.9531   -0.8343   -2.9622 H   0  0  0  0  0  0  0  0  0  0  0  0
    3.5437   -1.0258    1.9156 H   0  0  0  0  0  0  0  0  0  0  0  0
    1.2287   -1.9041    1.9628 H   0  0  0  0  0  0  0  0  0  0  0  0
  1  2  1  0
  2  3  1  0
  3  4  1  0
  4  5  1  0
  5  6  2  0
  6  7  1  0
  7  8  1  0
  8  9  2  0
  9 10  1  0
 10 11  2  0
 11 12  1  0
 12 13  1  0
 12 14  2  0
 14 15  1  0
  7 16  1  0
 16 17  1  0
 17 18  2  0
 17 19  1  0
 16 20  2  0
 20 21  1  0
 21 22  1  0
 22 23  2  0
 23 24  1  0
 24 25  2  0
 25 26  1  0
 26 27  2  0
 27 28  1  0
 28 29  2  0
 29 30  1  0
 30 31  2  0
 31 32  1  0
 32 33  2  0
 33 34  1  0
 34 35  2  0
 35 36  1  0
 25 37  1  0
 37 38  2  0
 20  5  1  0
 38 22  1  0
 14  8  1  0
 31 26  1  0
 36 32  1  0
  1 39  1  0
  1 40  1  0
  1 41  1  0
  2 42  1  0
  2 43  1  0
  3 44  1  0
  3 45  1  0
  4 46  1  0
  4 47  1  0
  9 48  1  0
 10 49  1  0
 11 50  1  0
 19 51  1  0
 21 52  1  0
 21 53  1  0
 23 54  1  0
 24 55  1  0
 27 56  1  0
 28 57  1  0
 29 58  1  0
 30 59  1  0
 36 60  1  0
 37 61  1  0
 38 62  1  0
M  END
$$$$
