
     RDKit          3D

 41 43  0  0  0  0  0  0  0  0999 V2000
    7.2696    1.0752   -0.5492 C   0  0  0  0  0  0  0  0  0  0  0  0
    5.8953    1.3057   -0.4326 O   0  0  0  0  0  0  0  0  0  0  0  0
    4.9946    0.2991   -0.2946 C   0  0  0  0  0  0  0  0  0  0  0  0
    5.3393   -1.0211   -0.2594 C   0  0  0  0  0  0  0  0  0  0  0  0
    4.3532   -2.0069   -0.1127 C   0  0  0  0  0  0  0  0  0  0  0  0
    3.0318   -1.6131   -0.0055 C   0  0  0  0  0  0  0  0  0  0  0  0
    2.6590   -0.2993   -0.0366 C   0  0  0  0  0  0  0  0  0  0  0  0
    3.6528    0.6443   -0.1824 C   0  0  0  0  0  0  0  0  0  0  0  0
    1.1640   -0.1733    0.1385 C   0  0  0  0  0  0  0  0  0  0  0  0
    0.6777   -1.5508    0.1537 C   0  0  0  0  0  0  0  0  0  0  0  0
   -0.5646   -1.9994    0.1756 C   0  0  0  0  0  0  0  0  0  0  0  0
   -1.7079   -1.1109    0.1890 C   0  0  0  0  0  0  0  0  0  0  0  0
   -1.8432   -0.0297    1.0112 C   0  0  0  0  0  0  0  0  0  0  0  0
   -2.9638    0.8083    0.9662 C   0  0  0  0  0  0  0  0  0  0  0  0
   -3.9769    0.5566    0.0746 C   0  0  0  0  0  0  0  0  0  0  0  0
   -5.1368    1.3627   -0.0198 N   0  0  0  0  0  0  0  0  0  0  0  0
   -6.1613    1.0555   -0.9749 C   0  0  0  0  0  0  0  0  0  0  0  0
   -5.2892    2.4935    0.8496 C   0  0  0  0  0  0  0  0  0  0  0  0
   -3.8497   -0.5400   -0.7649 C   0  0  0  0  0  0  0  0  0  0  0  0
   -2.7380   -1.3585   -0.7099 C   0  0  0  0  0  0  0  0  0  0  0  0
    1.8410   -2.4635    0.1163 C   0  0  0  0  0  0  0  0  0  0  0  0
    1.8073   -3.7258    0.1779 O   0  0  0  0  0  0  0  0  0  0  0  0
    7.7794    1.9408   -0.0402 H   0  0  0  0  0  0  0  0  0  0  0  0
    7.5290    1.0815   -1.6482 H   0  0  0  0  0  0  0  0  0  0  0  0
    7.5730    0.1232   -0.0971 H   0  0  0  0  0  0  0  0  0  0  0  0
    6.3388   -1.3942   -0.3396 H   0  0  0  0  0  0  0  0  0  0  0  0
    4.6326   -3.0396   -0.0862 H   0  0  0  0  0  0  0  0  0  0  0  0
    3.3416    1.6991   -0.2081 H   0  0  0  0  0  0  0  0  0  0  0  0
    0.8150    0.4078   -0.7543 H   0  0  0  0  0  0  0  0  0  0  0  0
    1.0481    0.3976    1.0688 H   0  0  0  0  0  0  0  0  0  0  0  0
   -0.7234   -3.1038    0.1837 H   0  0  0  0  0  0  0  0  0  0  0  0
   -1.1213    0.2503    1.7561 H   0  0  0  0  0  0  0  0  0  0  0  0
   -3.0505    1.6723    1.6354 H   0  0  0  0  0  0  0  0  0  0  0  0
   -6.5373    0.0128   -0.9032 H   0  0  0  0  0  0  0  0  0  0  0  0
   -5.7252    1.2163   -1.9993 H   0  0  0  0  0  0  0  0  0  0  0  0
   -7.0504    1.7214   -0.8539 H   0  0  0  0  0  0  0  0  0  0  0  0
   -6.1808    3.0665    0.5314 H   0  0  0  0  0  0  0  0  0  0  0  0
   -4.3815    3.1412    0.8115 H   0  0  0  0  0  0  0  0  0  0  0  0
   -5.4274    2.0887    1.8828 H   0  0  0  0  0  0  0  0  0  0  0  0
   -4.6193   -0.7923   -1.4940 H   0  0  0  0  0  0  0  0  0  0  0  0
   -2.6944   -2.1980   -1.3884 H   0  0  0  0  0  0  0  0  0  0  0  0
  1  2  1  0
  2  3  1  0
  3  4  2  0
  4  5  1  0
  5  6  2  0
  6  7  1  0
  7  8  2  0
  7  9  1  0
  9 10  1  0
 10 11  2  0
 11 12  1  0
 12 13  2  0
 13 14  1  0
 14 15  2  0
 15 16  1  0
 16 17  1  0
 16 18  1  0
 15 19  1  0
 19 20  2  0
 10 21  1  0
 21 22  2  0
  8  3  1  0
 20 12  1  0
 21  6  1  0
  1 23  1  0
  1 24  1  0
  1 25  1  0
  4 26  1  0
  5 27  1  0
  8 28  1  0
  9 29  1  0
  9 30  1  0
 11 31  1  0
 13 32  1  0
 14 33  1  0
 17 34  1  0
 17 35  1  0
 17 36  1  0
 18 37  1  0
 18 38  1  0
 18 39  1  0
 19 40  1  0
 20 41  1  0
M  END
$$$$
