
     RDKit          3D

 38 40  0  0  0  0  0  0  0  0999 V2000
    5.8544   -0.1109    1.8838 C   0  0  0  0  0  0  0  0  0  0  0  0
    5.6997    1.2588    1.4654 N   0  0  0  0  0  0  0  0  0  0  0  0
    5.1666    1.2797   -0.1744 S   0  0  0  0  0  0  0  0  0  0  0  0
    6.1796    0.7045   -1.1009 O   0  0  0  0  0  0  0  0  0  0  0  0
    4.9769    2.7417   -0.5433 O   0  0  0  0  0  0  0  0  0  0  0  0
    3.6214    0.5044   -0.3819 C   0  0  0  0  0  0  0  0  0  0  0  0
    3.4234   -0.8497   -0.6171 C   0  0  0  0  0  0  0  0  0  0  0  0
    2.1937   -1.4242   -0.7792 C   0  0  0  0  0  0  0  0  0  0  0  0
    1.0781   -0.6039   -0.7043 C   0  0  0  0  0  0  0  0  0  0  0  0
   -0.2584   -1.0695   -0.8505 N   0  0  0  0  0  0  0  0  0  0  0  0
   -1.4860   -1.0793   -0.1386 C   0  0  0  0  0  0  0  0  0  0  0  0
   -2.5538   -0.4328   -0.5778 C   0  0  0  0  0  0  0  0  0  0  0  0
   -2.7307    0.3608   -1.7595 C   0  0  0  0  0  0  0  0  0  0  0  0
   -1.7956    0.5422   -2.5752 O   0  0  0  0  0  0  0  0  0  0  0  0
   -4.0643    0.8403   -1.7880 N   0  0  0  0  0  0  0  0  0  0  0  0
   -4.7341    0.3431   -0.6118 C   0  0  0  0  0  0  0  0  0  0  0  0
   -3.8528   -0.4205    0.1277 C   0  0  0  0  0  0  0  0  0  0  0  0
   -4.2671   -1.0079    1.3063 C   0  0  0  0  0  0  0  0  0  0  0  0
   -5.5765   -0.8467    1.7764 C   0  0  0  0  0  0  0  0  0  0  0  0
   -6.4648   -0.0822    1.0387 C   0  0  0  0  0  0  0  0  0  0  0  0
   -6.0436    0.5054   -0.1431 C   0  0  0  0  0  0  0  0  0  0  0  0
    1.1808    0.7549   -0.4738 C   0  0  0  0  0  0  0  0  0  0  0  0
    2.4593    1.2415   -0.3232 C   0  0  0  0  0  0  0  0  0  0  0  0
    6.7795   -0.1453    2.5008 H   0  0  0  0  0  0  0  0  0  0  0  0
    4.9466   -0.3947    2.4629 H   0  0  0  0  0  0  0  0  0  0  0  0
    5.9975   -0.7950    1.0155 H   0  0  0  0  0  0  0  0  0  0  0  0
    5.0918    1.8318    2.0612 H   0  0  0  0  0  0  0  0  0  0  0  0
    4.3231   -1.4639   -0.6706 H   0  0  0  0  0  0  0  0  0  0  0  0
    2.0582   -2.4800   -0.9583 H   0  0  0  0  0  0  0  0  0  0  0  0
   -0.3603   -1.5552   -1.7744 H   0  0  0  0  0  0  0  0  0  0  0  0
   -1.5535   -1.6350    0.7969 H   0  0  0  0  0  0  0  0  0  0  0  0
   -4.4838    1.4463   -2.5294 H   0  0  0  0  0  0  0  0  0  0  0  0
   -3.6165   -1.6115    1.9146 H   0  0  0  0  0  0  0  0  0  0  0  0
   -5.9147   -1.3131    2.7157 H   0  0  0  0  0  0  0  0  0  0  0  0
   -7.4935    0.0671    1.3723 H   0  0  0  0  0  0  0  0  0  0  0  0
   -6.7140    1.1204   -0.7626 H   0  0  0  0  0  0  0  0  0  0  0  0
    0.3525    1.4573   -0.4022 H   0  0  0  0  0  0  0  0  0  0  0  0
    2.5808    2.3211   -0.1385 H   0  0  0  0  0  0  0  0  0  0  0  0
  1  2  1  0
  2  3  1  0
  3  4  2  0
  3  5  2  0
  3  6  1  0
  6  7  2  0
  7  8  1  0
  8  9  2  0
  9 10  1  0
 10 11  1  0
 11 12  2  0
 12 13  1  0
 13 14  2  0
 13 15  1  0
 15 16  1  0
 16 17  2  0
 17 18  1  0
 18 19  2  0
 19 20  1  0
 20 21  2  0
  9 22  1  0
 22 23  2  0
 23  6  1  0
 17 12  1  0
 21 16  1  0
  1 24  1  0
  1 25  1  0
  1 26  1  0
  2 27  1  0
  7 28  1  0
  8 29  1  0
 10 30  1  0
 11 31  1  0
 15 32  1  0
 18 33  1  0
 19 34  1  0
 20 35  1  0
 21 36  1  0
 22 37  1  0
 23 38  1  0
M  END
$$$$
