
     RDKit          3D

 56 59  0  0  0  0  0  0  0  0999 V2000
   -5.4490    0.0811   -1.8075 C   0  0  0  0  0  0  0  0  0  0  0  0
   -5.5127   -0.3959   -0.4041 C   0  0  0  0  0  0  0  0  0  0  0  0
   -6.7025   -1.0681   -0.0606 C   0  0  0  0  0  0  0  0  0  0  0  0
   -6.8674   -1.4955    1.2128 C   0  0  0  0  0  0  0  0  0  0  0  0
   -8.1031   -2.2115    1.6344 C   0  0  0  0  0  0  0  0  0  0  0  0
   -8.2364   -3.3854    0.9245 F   0  0  0  0  0  0  0  0  0  0  0  0
   -9.2118   -1.4285    1.4003 F   0  0  0  0  0  0  0  0  0  0  0  0
   -5.8687   -1.2634    2.1437 C   0  0  0  0  0  0  0  0  0  0  0  0
   -4.7543   -0.6236    1.7814 N   0  0  0  0  0  0  0  0  0  0  0  0
   -4.5312   -0.1681    0.5040 C   0  0  0  0  0  0  0  0  0  0  0  0
   -3.2718    0.4440    0.2290 C   0  0  0  0  0  0  0  0  0  0  0  0
   -2.6669    0.9689    1.2551 O   0  0  0  0  0  0  0  0  0  0  0  0
   -2.5714    0.5696   -0.9706 N   0  0  0  0  0  0  0  0  0  0  0  0
   -1.2956    1.2510   -1.0069 C   0  0  0  0  0  0  0  0  0  0  0  0
   -1.2652    2.6095   -1.2435 C   0  0  0  0  0  0  0  0  0  0  0  0
   -0.0524    3.2985   -1.2852 C   0  0  0  0  0  0  0  0  0  0  0  0
    1.1113    2.5853   -1.0839 C   0  0  0  0  0  0  0  0  0  0  0  0
    2.3306    3.2196   -1.1156 F   0  0  0  0  0  0  0  0  0  0  0  0
    1.1201    1.2172   -0.8431 C   0  0  0  0  0  0  0  0  0  0  0  0
    2.3885    0.4975   -0.6337 C   0  0  2  0  0  0  0  0  0  0  0  0
    3.2762    0.6885   -1.8476 C   0  0  0  0  0  0  0  0  0  0  0  0
    2.1012   -0.9626   -0.3726 C   0  0  0  0  0  0  0  0  0  0  0  0
    3.6319   -1.7767   -0.0424 S   0  0  0  0  0  6  0  0  0  0  0  0
    3.4021   -2.8175    1.0206 O   0  0  0  0  0  0  0  0  0  0  0  0
    4.1664   -2.4940   -1.2452 O   0  0  0  0  0  0  0  0  0  0  0  0
    4.7666   -0.5849    0.5898 C   0  0  0  0  0  0  0  0  0  0  0  0
    5.6867   -1.2247    1.6059 C   0  0  0  0  0  0  0  0  0  0  0  0
    6.8288   -0.4564    0.9918 C   0  0  0  0  0  0  0  0  0  0  0  0
    5.9817   -0.3361   -0.2749 C   0  0  0  0  0  0  0  0  0  0  0  0
    4.0823    0.6173    1.0724 C   0  0  0  0  0  0  0  0  0  0  0  0
    4.6062    1.2999    2.2049 N   0  0  0  0  0  0  0  0  0  0  0  0
    3.0366    1.0766    0.5188 N   0  0  0  0  0  0  0  0  0  0  0  0
   -0.1115    0.5983   -0.8149 C   0  0  0  0  0  0  0  0  0  0  0  0
   -4.9927    1.0665   -1.8839 H   0  0  0  0  0  0  0  0  0  0  0  0
   -4.9599   -0.6368   -2.4818 H   0  0  0  0  0  0  0  0  0  0  0  0
   -6.5212    0.2528   -2.1886 H   0  0  0  0  0  0  0  0  0  0  0  0
   -7.4779   -1.2452   -0.7947 H   0  0  0  0  0  0  0  0  0  0  0  0
   -8.0384   -2.4753    2.7166 H   0  0  0  0  0  0  0  0  0  0  0  0
   -6.0148   -1.6119    3.1631 H   0  0  0  0  0  0  0  0  0  0  0  0
   -2.9326    0.1606   -1.8420 H   0  0  0  0  0  0  0  0  0  0  0  0
   -2.1676    3.1691   -1.4007 H   0  0  0  0  0  0  0  0  0  0  0  0
   -0.0216    4.3492   -1.4677 H   0  0  0  0  0  0  0  0  0  0  0  0
    2.6088    0.9640   -2.7164 H   0  0  0  0  0  0  0  0  0  0  0  0
    3.7744   -0.2459   -2.1534 H   0  0  0  0  0  0  0  0  0  0  0  0
    4.0057    1.5183   -1.6707 H   0  0  0  0  0  0  0  0  0  0  0  0
    1.4931   -1.0056    0.5541 H   0  0  0  0  0  0  0  0  0  0  0  0
    1.5457   -1.4188   -1.2147 H   0  0  0  0  0  0  0  0  0  0  0  0
    5.4660   -1.0294    2.6532 H   0  0  0  0  0  0  0  0  0  0  0  0
    5.8338   -2.3219    1.4072 H   0  0  0  0  0  0  0  0  0  0  0  0
    6.9726    0.4968    1.5343 H   0  0  0  0  0  0  0  0  0  0  0  0
    7.7472   -1.0396    0.7947 H   0  0  0  0  0  0  0  0  0  0  0  0
    6.0004    0.7325   -0.5920 H   0  0  0  0  0  0  0  0  0  0  0  0
    6.1914   -1.0831   -1.0391 H   0  0  0  0  0  0  0  0  0  0  0  0
    4.6700    0.8564    3.1538 H   0  0  0  0  0  0  0  0  0  0  0  0
    4.9342    2.2801    2.0625 H   0  0  0  0  0  0  0  0  0  0  0  0
   -0.1619   -0.4701   -0.6305 H   0  0  0  0  0  0  0  0  0  0  0  0
  1  2  1  0
  2  3  2  0
  3  4  1  0
  4  5  1  0
  5  6  1  0
  5  7  1  0
  4  8  2  0
  8  9  1  0
  9 10  2  0
 10 11  1  0
 11 12  2  0
 11 13  1  0
 13 14  1  0
 14 15  2  0
 15 16  1  0
 16 17  2  0
 17 18  1  0
 17 19  1  0
 19 20  1  0
 20 21  1  6
 20 22  1  0
 22 23  1  0
 23 24  2  0
 23 25  2  0
 23 26  1  0
 26 27  1  0
 27 28  1  0
 28 29  1  0
 26 30  1  0
 30 31  1  0
 30 32  2  0
 19 33  2  0
 10  2  1  0
 33 14  1  0
 32 20  1  0
 29 26  1  0
  1 34  1  0
  1 35  1  0
  1 36  1  0
  3 37  1  0
  5 38  1  0
  8 39  1  0
 13 40  1  0
 15 41  1  0
 16 42  1  0
 21 43  1  0
 21 44  1  0
 21 45  1  0
 22 46  1  0
 22 47  1  0
 27 48  1  0
 27 49  1  0
 28 50  1  0
 28 51  1  0
 29 52  1  0
 29 53  1  0
 31 54  1  0
 31 55  1  0
 33 56  1  0
M  END
$$$$
