
     RDKit          3D

 67 70  0  0  0  0  0  0  0  0999 V2000
   -1.9933    0.7896   -1.1800 C   0  0  2  0  0  0  0  0  0  0  0  0
   -2.5164    1.4472   -2.4002 C   0  0  0  0  0  0  0  0  0  0  0  0
   -3.4577    0.5996   -3.2126 C   0  0  0  0  0  0  0  0  0  0  0  0
   -3.8700    1.4669   -4.4110 C   0  0  0  0  0  0  0  0  0  0  0  0
   -2.7338   -0.5836   -3.8226 C   0  0  0  0  0  0  0  0  0  0  0  0
   -2.9228    0.3743   -0.2158 N   0  0  0  0  0  0  0  0  0  0  0  0
   -3.8582    0.9595    0.3871 C   0  0  0  0  0  0  0  0  0  0  0  0
   -3.9969    2.3099    0.0137 O   0  0  0  0  0  0  0  0  0  0  0  0
   -4.6017    0.1386    1.3372 C   0  0  0  0  0  0  0  0  0  0  0  0
   -5.7388   -0.4937    0.8981 C   0  0  0  0  0  0  0  0  0  0  0  0
   -6.2611   -1.2002    1.9593 C   0  0  0  0  0  0  0  0  0  0  0  0
   -7.3391   -2.0202    2.2127 C   0  0  0  0  0  0  0  0  0  0  0  0
   -7.5863   -2.5952    3.4449 C   0  0  0  0  0  0  0  0  0  0  0  0
   -6.7056   -2.3330    4.4752 C   0  0  0  0  0  0  0  0  0  0  0  0
   -5.6090   -1.5126    4.2594 C   0  0  0  0  0  0  0  0  0  0  0  0
   -5.3880   -0.9525    3.0181 C   0  0  0  0  0  0  0  0  0  0  0  0
   -4.4217   -0.1545    2.5998 O   0  0  0  0  0  0  0  0  0  0  0  0
   -1.0073    1.7107   -0.5462 C   0  0  0  0  0  0  0  0  0  0  0  0
   -0.4805    2.8373    0.0530 O   0  0  0  0  0  0  0  0  0  0  0  0
    0.2248    1.5772   -0.2821 N   0  0  0  0  0  0  0  0  0  0  0  0
    1.0658    0.4497   -0.5280 C   0  0  1  0  0  0  0  0  0  0  0  0
    2.1504    0.7418   -1.5477 C   0  0  0  0  0  0  0  0  0  0  0  0
    3.2834   -0.2184   -1.2811 C   0  0  0  0  0  0  0  0  0  0  0  0
    4.3200    0.3157   -0.3809 C   0  0  0  0  0  0  0  0  0  0  0  0
    4.2246    0.0167    0.9889 N   0  0  0  0  0  0  0  0  0  0  0  0
    2.9769   -0.1214    1.5985 C   0  0  0  0  0  0  0  0  0  0  0  0
    1.7902    0.1016    0.7495 C   0  0  0  0  0  0  0  0  0  0  0  0
    0.8276   -0.1128    1.4767 O   0  0  0  0  0  0  0  0  0  0  0  0
    5.5281    0.5210    1.9481 S   0  0  0  0  0  0  0  0  0  0  0  0
    5.2982    0.0208    3.3524 O   0  0  0  0  0  0  0  0  0  0  0  0
    5.6706    1.9981    1.8821 O   0  0  0  0  0  0  0  0  0  0  0  0
    6.9784   -0.3005    1.3786 C   0  0  0  0  0  0  0  0  0  0  0  0
    8.0989    0.3788    0.8987 C   0  0  0  0  0  0  0  0  0  0  0  0
    9.2087   -0.3366    0.4653 C   0  0  0  0  0  0  0  0  0  0  0  0
    9.1860   -1.7103    0.5160 C   0  0  0  0  0  0  0  0  0  0  0  0
    8.0637   -2.3520    0.9955 C   0  0  0  0  0  0  0  0  0  0  0  0
    7.0036   -1.6379    1.4085 N   0  0  0  0  0  0  0  0  0  0  0  0
   -1.3770   -0.1130   -1.4669 H   0  0  0  0  0  0  0  0  0  0  0  0
   -2.9434    2.4383   -2.1507 H   0  0  0  0  0  0  0  0  0  0  0  0
   -1.6417    1.6806   -3.0524 H   0  0  0  0  0  0  0  0  0  0  0  0
   -4.3128    0.2054   -2.6669 H   0  0  0  0  0  0  0  0  0  0  0  0
   -2.8997    1.8029   -4.8699 H   0  0  0  0  0  0  0  0  0  0  0  0
   -4.4089    2.3681   -4.1243 H   0  0  0  0  0  0  0  0  0  0  0  0
   -4.4225    0.8774   -5.1604 H   0  0  0  0  0  0  0  0  0  0  0  0
   -2.4776   -1.3435   -3.0552 H   0  0  0  0  0  0  0  0  0  0  0  0
   -1.8381   -0.2428   -4.3884 H   0  0  0  0  0  0  0  0  0  0  0  0
   -3.4151   -1.0623   -4.5744 H   0  0  0  0  0  0  0  0  0  0  0  0
   -3.2251    2.9423    0.1769 H   0  0  0  0  0  0  0  0  0  0  0  0
   -6.2307   -0.5121   -0.0657 H   0  0  0  0  0  0  0  0  0  0  0  0
   -7.9822   -2.1756    1.3503 H   0  0  0  0  0  0  0  0  0  0  0  0
   -8.4755   -3.2145    3.4812 H   0  0  0  0  0  0  0  0  0  0  0  0
   -6.9683   -2.8199    5.4077 H   0  0  0  0  0  0  0  0  0  0  0  0
   -4.9517   -1.3425    5.1054 H   0  0  0  0  0  0  0  0  0  0  0  0
   -0.9594    3.7280    0.1001 H   0  0  0  0  0  0  0  0  0  0  0  0
    0.5476   -0.4568   -0.8965 H   0  0  0  0  0  0  0  0  0  0  0  0
    2.5139    1.7907   -1.4869 H   0  0  0  0  0  0  0  0  0  0  0  0
    1.7398    0.5903   -2.5757 H   0  0  0  0  0  0  0  0  0  0  0  0
    3.7478   -0.5685   -2.2253 H   0  0  0  0  0  0  0  0  0  0  0  0
    2.8773   -1.1647   -0.8168 H   0  0  0  0  0  0  0  0  0  0  0  0
    5.3180   -0.0147   -0.7351 H   0  0  0  0  0  0  0  0  0  0  0  0
    4.3308    1.4418   -0.4764 H   0  0  0  0  0  0  0  0  0  0  0  0
    2.8931    0.5400    2.4849 H   0  0  0  0  0  0  0  0  0  0  0  0
    2.9007   -1.1715    1.9948 H   0  0  0  0  0  0  0  0  0  0  0  0
    7.9750    1.4540    0.9173 H   0  0  0  0  0  0  0  0  0  0  0  0
   10.0402    0.2867    0.1055 H   0  0  0  0  0  0  0  0  0  0  0  0
   10.0847   -2.2009    0.1624 H   0  0  0  0  0  0  0  0  0  0  0  0
    8.1493   -3.4304    0.9927 H   0  0  0  0  0  0  0  0  0  0  0  0
  1  2  1  0
  2  3  1  0
  3  4  1  0
  3  5  1  0
  1  6  1  0
  6  7  2  3
  7  8  1  0
  7  9  1  0
  9 10  2  0
 10 11  1  0
 11 12  2  0
 12 13  1  0
 13 14  2  0
 14 15  1  0
 15 16  2  0
 16 17  1  0
  1 18  1  0
 18 19  1  0
 18 20  2  3
 20 21  1  0
 21 22  1  0
 22 23  1  0
 23 24  1  0
 24 25  1  0
 25 26  1  0
 26 27  1  0
 27 28  2  0
 25 29  1  0
 29 30  2  0
 29 31  2  0
 29 32  1  0
 32 33  2  0
 33 34  1  0
 34 35  2  0
 35 36  1  0
 36 37  2  0
 17  9  1  0
 27 21  1  0
 37 32  1  0
 16 11  1  0
  1 38  1  6
  2 39  1  0
  2 40  1  0
  3 41  1  0
  4 42  1  0
  4 43  1  0
  4 44  1  0
  5 45  1  0
  5 46  1  0
  5 47  1  0
  8 48  1  0
 10 49  1  0
 12 50  1  0
 13 51  1  0
 14 52  1  0
 15 53  1  0
 19 54  1  0
 21 55  1  6
 22 56  1  0
 22 57  1  0
 23 58  1  0
 23 59  1  0
 24 60  1  0
 24 61  1  0
 26 62  1  0
 26 63  1  0
 33 64  1  0
 34 65  1  0
 35 66  1  0
 36 67  1  0
M  END
$$$$
