
     RDKit          3D

 18 17  0  0  0  0  0  0  0  0999 V2000
    3.8145   -1.0079   -0.3985 O   0  0  0  0  0  0  0  0  0  0  0  0
    2.6940    0.1774   -0.7829 P   0  0  0  0  0  0  0  0  0  0  0  0
    2.6840    1.3504    0.4377 O   0  0  0  0  0  0  0  0  0  0  0  0
    3.1363    0.8891   -2.0540 O   0  0  0  0  0  0  0  0  0  0  0  0
    1.1705   -0.4475   -1.0902 O   0  0  0  0  0  0  0  0  0  0  0  0
    0.0369   -0.0903    0.0837 P   0  0  0  0  0  0  0  0  0  0  0  0
   -0.6968   -1.5543    0.5419 O   0  0  0  0  0  0  0  0  0  0  0  0
    0.6113    0.5767    1.2964 O   0  0  0  0  0  0  0  0  0  0  0  0
   -1.1280    0.9279   -0.5850 O   0  0  0  0  0  0  0  0  0  0  0  0
   -2.6464    0.5487    0.0408 P   0  0  0  0  0  0  0  0  0  0  0  0
   -2.6933    1.0106    1.6614 O   0  0  0  0  0  0  0  0  0  0  0  0
   -2.9983   -1.0898   -0.0581 O   0  0  0  0  0  0  0  0  0  0  0  0
   -3.7152    1.2852   -0.7424 O   0  0  0  0  0  0  0  0  0  0  0  0
    3.4199   -1.8693   -0.1383 H   0  0  0  0  0  0  0  0  0  0  0  0
    2.9227    0.9474    1.3233 H   0  0  0  0  0  0  0  0  0  0  0  0
   -0.7092   -2.1569   -0.2460 H   0  0  0  0  0  0  0  0  0  0  0  0
   -3.0142    1.9465    1.6764 H   0  0  0  0  0  0  0  0  0  0  0  0
   -2.8887   -1.4440   -0.9661 H   0  0  0  0  0  0  0  0  0  0  0  0
  1  2  1  0
  2  3  1  0
  2  4  2  0
  2  5  1  0
  5  6  1  0
  6  7  1  0
  6  8  2  0
  6  9  1  0
  9 10  1  0
 10 11  1  0
 10 12  1  0
 10 13  2  0
  1 14  1  0
  3 15  1  0
  7 16  1  0
 11 17  1  0
 12 18  1  0
M  END
$$$$
