
     RDKit          3D

 46 49  0  0  0  0  0  0  0  0999 V2000
   -3.2141    2.8047    1.9658 C   0  0  0  0  0  0  0  0  0  0  0  0
   -3.1638    1.4127    1.7652 O   0  0  0  0  0  0  0  0  0  0  0  0
   -2.2956    0.7810    0.8992 C   0  0  0  0  0  0  0  0  0  0  0  0
   -1.3969    1.5344    0.1520 C   0  0  0  0  0  0  0  0  0  0  0  0
   -0.5162    0.9328   -0.7193 C   0  0  0  0  0  0  0  0  0  0  0  0
    0.4371    1.6916   -1.5190 C   0  0  0  0  0  0  0  0  0  0  0  0
    1.7273    1.3651   -1.7083 C   0  0  0  0  0  0  0  0  0  0  0  0
    2.3504    0.1913   -1.1212 C   0  0  0  0  0  0  0  0  0  0  0  0
    3.0599   -0.7989   -1.7826 C   0  0  0  0  0  0  0  0  0  0  0  0
    3.5098   -1.7207   -0.9171 N   0  0  0  0  0  0  0  0  0  0  0  0
    3.1172   -1.3670    0.3092 C   0  0  0  0  0  0  0  0  0  0  0  0
    3.3028   -1.9310    1.5469 C   0  0  0  0  0  0  0  0  0  0  0  0
    2.7904   -1.3431    2.6785 C   0  0  0  0  0  0  0  0  0  0  0  0
    2.0829   -0.1776    2.5811 C   0  0  0  0  0  0  0  0  0  0  0  0
    1.8869    0.4002    1.3507 C   0  0  0  0  0  0  0  0  0  0  0  0
    2.3976   -0.1887    0.2238 C   0  0  0  0  0  0  0  0  0  0  0  0
    2.3525    2.3625   -2.5683 C   0  0  0  0  0  0  0  0  0  0  0  0
    3.5438    2.3988   -2.9671 O   0  0  0  0  0  0  0  0  0  0  0  0
    1.3805    3.3411   -2.9129 N   0  0  0  0  0  0  0  0  0  0  0  0
    0.1903    2.9188   -2.2573 C   0  0  0  0  0  0  0  0  0  0  0  0
   -0.9445    3.4992   -2.2858 O   0  0  0  0  0  0  0  0  0  0  0  0
   -0.5797   -0.4576   -0.8066 C   0  0  0  0  0  0  0  0  0  0  0  0
   -1.4661   -1.2104   -0.0710 C   0  0  0  0  0  0  0  0  0  0  0  0
   -1.5079   -2.5918   -0.1785 O   0  0  0  0  0  0  0  0  0  0  0  0
   -0.6555   -3.3153   -1.0472 C   0  0  0  0  0  0  0  0  0  0  0  0
   -2.3387   -0.5883    0.7957 C   0  0  0  0  0  0  0  0  0  0  0  0
   -3.2293   -1.3677    1.5345 O   0  0  0  0  0  0  0  0  0  0  0  0
   -4.5184   -1.7026    1.0827 C   0  0  0  0  0  0  0  0  0  0  0  0
   -4.0166    3.0377    2.7051 H   0  0  0  0  0  0  0  0  0  0  0  0
   -3.4938    3.2861    1.0111 H   0  0  0  0  0  0  0  0  0  0  0  0
   -2.2309    3.1975    2.3137 H   0  0  0  0  0  0  0  0  0  0  0  0
   -1.3611    2.6313    0.2317 H   0  0  0  0  0  0  0  0  0  0  0  0
    3.2189   -0.8110   -2.8528 H   0  0  0  0  0  0  0  0  0  0  0  0
    4.0721   -2.5638   -1.1878 H   0  0  0  0  0  0  0  0  0  0  0  0
    3.8711   -2.8610    1.5854 H   0  0  0  0  0  0  0  0  0  0  0  0
    2.9425   -1.7976    3.6543 H   0  0  0  0  0  0  0  0  0  0  0  0
    1.6584    0.3216    3.4680 H   0  0  0  0  0  0  0  0  0  0  0  0
    1.3478    1.3115    1.3215 H   0  0  0  0  0  0  0  0  0  0  0  0
    1.5040    4.2036   -3.5250 H   0  0  0  0  0  0  0  0  0  0  0  0
    0.1149   -0.9152   -1.4935 H   0  0  0  0  0  0  0  0  0  0  0  0
   -1.0836   -3.1584   -2.0818 H   0  0  0  0  0  0  0  0  0  0  0  0
    0.3691   -2.9013   -1.0794 H   0  0  0  0  0  0  0  0  0  0  0  0
   -0.6893   -4.3892   -0.8645 H   0  0  0  0  0  0  0  0  0  0  0  0
   -4.3693   -2.4019    0.2236 H   0  0  0  0  0  0  0  0  0  0  0  0
   -5.0910   -2.2417    1.8441 H   0  0  0  0  0  0  0  0  0  0  0  0
   -5.0660   -0.8214    0.7030 H   0  0  0  0  0  0  0  0  0  0  0  0
  1  2  1  0
  2  3  1  0
  3  4  2  0
  4  5  1  0
  5  6  1  0
  6  7  2  0
  7  8  1  0
  8  9  2  0
  9 10  1  0
 10 11  1  0
 11 12  2  0
 12 13  1  0
 13 14  2  0
 14 15  1  0
 15 16  2  0
  7 17  1  0
 17 18  2  0
 17 19  1  0
 19 20  1  0
 20 21  2  0
  5 22  2  0
 22 23  1  0
 23 24  1  0
 24 25  1  0
 23 26  2  0
 26 27  1  0
 27 28  1  0
 26  3  1  0
 20  6  1  0
 16  8  1  0
 16 11  1  0
  1 29  1  0
  1 30  1  0
  1 31  1  0
  4 32  1  0
  9 33  1  0
 10 34  1  0
 12 35  1  0
 13 36  1  0
 14 37  1  0
 15 38  1  0
 19 39  1  0
 22 40  1  0
 25 41  1  0
 25 42  1  0
 25 43  1  0
 28 44  1  0
 28 45  1  0
 28 46  1  0
M  END
$$$$
