
     RDKit          3D

 27 28  0  0  0  0  0  0  0  0999 V2000
   -2.5943   -2.2948    0.0548 C   0  0  0  0  0  0  0  0  0  0  0  0
   -1.8155   -1.1614    0.5198 N   0  0  0  0  0  0  0  0  0  0  0  0
   -1.4912   -0.3323   -0.6352 C   0  0  0  0  0  0  0  0  0  0  0  0
   -0.7298    0.8738   -0.3196 C   0  0  0  0  0  0  0  0  0  0  0  0
   -1.3450    2.1355   -0.3086 C   0  0  0  0  0  0  0  0  0  0  0  0
   -0.7337    3.3260   -0.0314 C   0  0  0  0  0  0  0  0  0  0  0  0
    0.6083    3.2846    0.2644 C   0  0  0  0  0  0  0  0  0  0  0  0
    1.2797    2.1030    0.2755 C   0  0  0  0  0  0  0  0  0  0  0  0
    0.5908    0.9744   -0.0119 C   0  0  0  0  0  0  0  0  0  0  0  0
    1.3506   -0.3057    0.0120 C   0  0  0  0  0  0  0  0  0  0  0  0
    2.7567   -0.4225    0.3079 C   0  0  0  0  0  0  0  0  0  0  0  0
    3.2538   -1.6812    0.2761 C   0  0  0  0  0  0  0  0  0  0  0  0
    2.4105   -2.7773   -0.0319 C   0  0  0  0  0  0  0  0  0  0  0  0
    0.8545   -1.9775   -0.2841 S   0  0  0  0  0  0  0  0  0  0  0  0
   -3.2924   -1.9245   -0.7167 H   0  0  0  0  0  0  0  0  0  0  0  0
   -1.9863   -3.0871   -0.3775 H   0  0  0  0  0  0  0  0  0  0  0  0
   -3.2352   -2.6898    0.8912 H   0  0  0  0  0  0  0  0  0  0  0  0
   -2.2474   -0.6320    1.2781 H   0  0  0  0  0  0  0  0  0  0  0  0
   -1.0955   -0.9263   -1.4789 H   0  0  0  0  0  0  0  0  0  0  0  0
   -2.5083    0.0093   -1.0010 H   0  0  0  0  0  0  0  0  0  0  0  0
   -2.4218    2.2021   -0.5422 H   0  0  0  0  0  0  0  0  0  0  0  0
   -1.2870    4.2545   -0.0458 H   0  0  0  0  0  0  0  0  0  0  0  0
    1.0999    4.2159    0.4841 H   0  0  0  0  0  0  0  0  0  0  0  0
    2.3237    2.1549    0.5155 H   0  0  0  0  0  0  0  0  0  0  0  0
    3.3823    0.4260    0.5404 H   0  0  0  0  0  0  0  0  0  0  0  0
    4.2813   -1.9527    0.4713 H   0  0  0  0  0  0  0  0  0  0  0  0
    2.5913   -3.7949   -0.1062 H   0  0  0  0  0  0  0  0  0  0  0  0
  1  2  1  0
  2  3  1  0
  3  4  1  0
  4  5  2  0
  5  6  1  0
  6  7  2  0
  7  8  1  0
  8  9  2  0
  9 10  1  0
 10 11  2  0
 11 12  1  0
 12 13  2  0
 13 14  1  0
  9  4  1  0
 14 10  1  0
  1 15  1  0
  1 16  1  0
  1 17  1  0
  2 18  1  0
  3 19  1  0
  3 20  1  0
  5 21  1  0
  6 22  1  0
  7 23  1  0
  8 24  1  0
 11 25  1  0
 12 26  1  0
 13 27  1  0
M  END
$$$$
