
     RDKit          3D

 75 78  0  0  0  0  0  0  0  0999 V2000
    2.1963   -1.8381    1.1022 C   0  0  2  0  0  0  0  0  0  0  0  0
    3.1739   -1.5635    2.2559 C   0  0  0  0  0  0  0  0  0  0  0  0
    4.3744   -0.8898    1.7225 C   0  0  0  0  0  0  0  0  0  0  0  0
    4.5725    0.4883    1.6804 C   0  0  0  0  0  0  0  0  0  0  0  0
    5.7094    1.0691    1.1612 C   0  0  0  0  0  0  0  0  0  0  0  0
    6.7214    0.3053    0.6511 C   0  0  0  0  0  0  0  0  0  0  0  0
    7.8574    0.8754    0.1311 O   0  0  0  0  0  0  0  0  0  0  0  0
    8.9656   -0.0096   -0.8238 P   0  0  0  0  0  0  0  0  0  0  0  0
    9.8990   -1.0778    0.0997 O   0  0  0  0  0  0  0  0  0  0  0  0
   10.0296    1.0366   -1.6105 O   0  0  0  0  0  0  0  0  0  0  0  0
    8.1620   -0.7929   -1.8639 O   0  0  0  0  0  0  0  0  0  0  0  0
    6.5307   -1.0762    0.6906 C   0  0  0  0  0  0  0  0  0  0  0  0
    5.3980   -1.6734    1.2068 C   0  0  0  0  0  0  0  0  0  0  0  0
    2.8857   -2.6780    0.1850 N   0  0  0  0  0  0  0  0  0  0  0  0
    2.8262   -2.8059   -1.0560 C   0  0  0  0  0  0  0  0  0  0  0  0
    3.7949   -3.8553   -1.5034 C   0  0  0  0  0  0  0  0  0  0  0  0
    1.8770   -1.9275   -1.5914 O   0  0  0  0  0  0  0  0  0  0  0  0
    1.7814   -0.5185    0.5709 C   0  0  0  0  0  0  0  0  0  0  0  0
    2.5776    0.3013   -0.1951 O   0  0  0  0  0  0  0  0  0  0  0  0
    0.6173   -0.1594    0.8635 N   0  0  0  0  0  0  0  0  0  0  0  0
   -0.1515    0.9861    0.5746 C   0  0  1  0  0  0  0  0  0  0  0  0
    0.5785    2.2909    0.4872 C   0  0  0  0  0  0  0  0  0  0  0  0
    0.3927    2.9742   -0.8631 C   0  0  0  0  0  0  0  0  0  0  0  0
   -0.7541    3.9530   -0.7869 C   0  0  0  0  0  0  0  0  0  0  0  0
   -2.0465    3.1869   -0.7106 C   0  0  0  0  0  0  0  0  0  0  0  0
   -1.8697    1.7973   -1.1622 N   0  0  0  0  0  0  0  0  0  0  0  0
   -2.8356    1.4243   -2.2016 C   0  0  0  0  0  0  0  0  0  0  0  0
   -4.0148    0.8814   -1.4607 C   0  0  0  0  0  0  0  0  0  0  0  0
   -4.1465   -0.4633   -1.1433 C   0  0  0  0  0  0  0  0  0  0  0  0
   -5.2302   -0.9755   -0.4574 C   0  0  0  0  0  0  0  0  0  0  0  0
   -6.2449   -0.1307   -0.0569 C   0  0  0  0  0  0  0  0  0  0  0  0
   -6.1468    1.2125   -0.3552 C   0  0  0  0  0  0  0  0  0  0  0  0
   -5.0539    1.7073   -1.0430 C   0  0  0  0  0  0  0  0  0  0  0  0
   -7.4059   -0.6484    0.6726 C   0  0  0  0  0  0  0  0  0  0  0  0
   -8.6457   -0.0487    0.5277 C   0  0  0  0  0  0  0  0  0  0  0  0
   -9.7480   -0.5314    1.2146 C   0  0  0  0  0  0  0  0  0  0  0  0
   -9.6399   -1.6250    2.0633 C   0  0  0  0  0  0  0  0  0  0  0  0
   -8.4044   -2.2209    2.2066 C   0  0  0  0  0  0  0  0  0  0  0  0
   -7.2979   -1.7500    1.5280 C   0  0  0  0  0  0  0  0  0  0  0  0
   -0.9106    0.8403   -0.7131 C   0  0  0  0  0  0  0  0  0  0  0  0
   -0.8824   -0.0670   -1.6061 O   0  0  0  0  0  0  0  0  0  0  0  0
    1.3241   -2.4068    1.5310 H   0  0  0  0  0  0  0  0  0  0  0  0
    3.4450   -2.4938    2.7965 H   0  0  0  0  0  0  0  0  0  0  0  0
    2.7103   -0.8373    2.9817 H   0  0  0  0  0  0  0  0  0  0  0  0
    3.7800    1.1210    2.0896 H   0  0  0  0  0  0  0  0  0  0  0  0
    5.8177    2.1477    1.1520 H   0  0  0  0  0  0  0  0  0  0  0  0
   10.0113   -1.9189   -0.3709 H   0  0  0  0  0  0  0  0  0  0  0  0
   10.6743    0.4641   -2.1255 H   0  0  0  0  0  0  0  0  0  0  0  0
    7.3696   -1.6455    0.2715 H   0  0  0  0  0  0  0  0  0  0  0  0
    5.3842   -2.7379    1.1717 H   0  0  0  0  0  0  0  0  0  0  0  0
    4.8381   -3.5148   -1.3637 H   0  0  0  0  0  0  0  0  0  0  0  0
    3.5710   -4.8311   -1.0267 H   0  0  0  0  0  0  0  0  0  0  0  0
    3.6575   -3.9602   -2.6177 H   0  0  0  0  0  0  0  0  0  0  0  0
    0.8722   -2.1181   -1.4430 H   0  0  0  0  0  0  0  0  0  0  0  0
    2.2002    0.7257   -1.0579 H   0  0  0  0  0  0  0  0  0  0  0  0
   -0.9640    1.1187    1.3601 H   0  0  0  0  0  0  0  0  0  0  0  0
    1.6543    2.2506    0.6865 H   0  0  0  0  0  0  0  0  0  0  0  0
    0.1786    3.0204    1.2562 H   0  0  0  0  0  0  0  0  0  0  0  0
    0.2305    2.2172   -1.6543 H   0  0  0  0  0  0  0  0  0  0  0  0
    1.3002    3.5526   -1.1413 H   0  0  0  0  0  0  0  0  0  0  0  0
   -0.7330    4.6481   -1.6547 H   0  0  0  0  0  0  0  0  0  0  0  0
   -0.6307    4.5464    0.1685 H   0  0  0  0  0  0  0  0  0  0  0  0
   -2.4706    3.1840    0.3160 H   0  0  0  0  0  0  0  0  0  0  0  0
   -2.7722    3.7188   -1.3359 H   0  0  0  0  0  0  0  0  0  0  0  0
   -2.4152    0.6791   -2.9017 H   0  0  0  0  0  0  0  0  0  0  0  0
   -3.1622    2.2921   -2.7799 H   0  0  0  0  0  0  0  0  0  0  0  0
   -3.3794   -1.1667   -1.4350 H   0  0  0  0  0  0  0  0  0  0  0  0
   -5.2799   -2.0210   -0.2386 H   0  0  0  0  0  0  0  0  0  0  0  0
   -6.9738    1.8536   -0.0197 H   0  0  0  0  0  0  0  0  0  0  0  0
   -5.0267    2.7770   -1.2526 H   0  0  0  0  0  0  0  0  0  0  0  0
   -8.7944    0.8081   -0.1201 H   0  0  0  0  0  0  0  0  0  0  0  0
  -10.7573   -0.1336    1.1702 H   0  0  0  0  0  0  0  0  0  0  0  0
  -10.4875   -2.0411    2.6285 H   0  0  0  0  0  0  0  0  0  0  0  0
   -8.3180   -3.0815    2.8742 H   0  0  0  0  0  0  0  0  0  0  0  0
   -6.3460   -2.2203    1.6480 H   0  0  0  0  0  0  0  0  0  0  0  0
  1  2  1  0
  2  3  1  0
  3  4  2  0
  4  5  1  0
  5  6  2  0
  6  7  1  0
  7  8  1  0
  8  9  1  0
  8 10  1  0
  8 11  2  0
  6 12  1  0
 12 13  2  0
  1 14  1  0
 14 15  2  3
 15 16  1  0
 15 17  1  0
  1 18  1  0
 18 19  1  0
 18 20  2  3
 20 21  1  0
 21 22  1  0
 22 23  1  0
 23 24  1  0
 24 25  1  0
 25 26  1  0
 26 27  1  0
 27 28  1  0
 28 29  2  0
 29 30  1  0
 30 31  2  0
 31 32  1  0
 32 33  2  0
 31 34  1  0
 34 35  2  0
 35 36  1  0
 36 37  2  0
 37 38  1  0
 38 39  2  0
 26 40  1  0
 40 41  2  0
 13  3  1  0
 40 21  1  0
 33 28  1  0
 39 34  1  0
  1 42  1  1
  2 43  1  0
  2 44  1  0
  4 45  1  0
  5 46  1  0
  9 47  1  0
 10 48  1  0
 12 49  1  0
 13 50  1  0
 16 51  1  0
 16 52  1  0
 16 53  1  0
 17 54  1  0
 19 55  1  0
 21 56  1  1
 22 57  1  0
 22 58  1  0
 23 59  1  0
 23 60  1  0
 24 61  1  0
 24 62  1  0
 25 63  1  0
 25 64  1  0
 27 65  1  0
 27 66  1  0
 29 67  1  0
 30 68  1  0
 32 69  1  0
 33 70  1  0
 35 71  1  0
 36 72  1  0
 37 73  1  0
 38 74  1  0
 39 75  1  0
M  END
$$$$
