
     RDKit          3D

 48 49  0  0  0  0  0  0  0  0999 V2000
   -0.0709    2.8598    0.8325 C   0  0  0  0  0  0  0  0  0  0  0  0
    1.1266    2.3631    0.9165 C   0  0  0  0  0  0  0  0  0  0  0  0
    1.7357    1.0796    0.6163 C   0  0  0  0  0  0  0  0  0  0  0  0
    2.9344    1.3834   -0.0010 C   0  0  0  0  0  0  0  0  0  0  0  0
    3.8978    0.5081   -0.4637 C   0  0  0  0  0  0  0  0  0  0  0  0
    5.0829    0.8819   -1.0787 O   0  0  0  0  0  0  0  0  0  0  0  0
    5.9767   -0.1137   -1.5034 C   0  0  0  0  0  0  0  0  0  0  0  0
    3.6012   -0.8215   -0.2711 C   0  0  0  0  0  0  0  0  0  0  0  0
    2.3969   -1.1311    0.3490 C   0  0  0  0  0  0  0  0  0  0  0  0
    2.2729   -2.5324    0.4655 O   0  0  0  0  0  0  0  0  0  0  0  0
    1.4087   -0.2407    0.8194 C   0  0  0  0  0  0  0  0  0  0  0  0
    0.4539   -1.2585    1.2906 C   0  0  0  0  0  0  0  0  0  0  0  0
    0.6715   -1.3888    2.5028 O   0  0  0  0  0  0  0  0  0  0  0  0
   -0.3614   -1.7649    0.3229 O   0  0  0  0  0  0  0  0  0  0  0  0
   -1.3410   -2.7569    0.4681 C   0  0  2  0  0  0  0  0  0  0  0  0
   -0.9602   -3.9961   -0.3650 C   0  0  0  0  0  0  0  0  0  0  0  0
   -2.6677   -2.2385   -0.0749 C   0  0  0  0  0  0  0  0  0  0  0  0
   -3.1966   -1.1508    0.7437 C   0  0  0  0  0  0  0  0  0  0  0  0
   -3.1680   -0.1027    0.0181 C   0  0  0  0  0  0  0  0  0  0  0  0
   -2.8973    0.6177   -1.1807 C   0  0  0  0  0  0  0  0  0  0  0  0
   -2.4645   -0.1704   -2.0101 O   0  0  0  0  0  0  0  0  0  0  0  0
   -3.1553    2.1053   -1.2155 C   0  0  1  0  0  0  0  0  0  0  0  0
   -4.0199    2.4167   -0.1324 O   0  0  0  0  0  0  0  0  0  0  0  0
   -1.8269    2.7945   -0.8560 C   0  0  1  0  0  0  0  0  0  0  0  0
   -2.0739    4.1184   -0.6469 O   0  0  0  0  0  0  0  0  0  0  0  0
   -1.2320    2.1350    0.3566 C   0  0  0  0  0  0  0  0  0  0  0  0
   -0.3472    3.8622    1.0952 H   0  0  0  0  0  0  0  0  0  0  0  0
    1.7250    3.1944    1.3464 H   0  0  0  0  0  0  0  0  0  0  0  0
    3.2847    2.4139   -0.2136 H   0  0  0  0  0  0  0  0  0  0  0  0
    6.8722    0.3097   -1.9962 H   0  0  0  0  0  0  0  0  0  0  0  0
    5.4729   -0.8481   -2.1979 H   0  0  0  0  0  0  0  0  0  0  0  0
    6.3355   -0.7506   -0.6588 H   0  0  0  0  0  0  0  0  0  0  0  0
    4.3573   -1.5294   -0.6329 H   0  0  0  0  0  0  0  0  0  0  0  0
    2.6935   -2.9398    1.2947 H   0  0  0  0  0  0  0  0  0  0  0  0
   -1.4902   -3.1270    1.4734 H   0  0  0  0  0  0  0  0  0  0  0  0
    0.0596   -4.3027   -0.0623 H   0  0  0  0  0  0  0  0  0  0  0  0
   -1.6988   -4.7649   -0.0748 H   0  0  0  0  0  0  0  0  0  0  0  0
   -1.0851   -3.7793   -1.4309 H   0  0  0  0  0  0  0  0  0  0  0  0
   -3.4080   -3.1085    0.1030 H   0  0  0  0  0  0  0  0  0  0  0  0
   -2.6391   -2.1577   -1.1448 H   0  0  0  0  0  0  0  0  0  0  0  0
   -3.4889   -1.4030    1.7277 H   0  0  0  0  0  0  0  0  0  0  0  0
   -3.5945    0.5614    0.7135 H   0  0  0  0  0  0  0  0  0  0  0  0
   -3.5284    2.4165   -2.1386 H   0  0  0  0  0  0  0  0  0  0  0  0
   -4.8943    2.0420   -0.3653 H   0  0  0  0  0  0  0  0  0  0  0  0
   -1.1242    2.7195   -1.7172 H   0  0  0  0  0  0  0  0  0  0  0  0
   -2.5719    4.3033    0.1898 H   0  0  0  0  0  0  0  0  0  0  0  0
   -2.0256    2.2336    1.1482 H   0  0  0  0  0  0  0  0  0  0  0  0
   -1.0281    1.0578    0.1432 H   0  0  0  0  0  0  0  0  0  0  0  0
  1  2  2  0
  2  3  1  0
  3  4  2  0
  4  5  1  0
  5  6  1  0
  6  7  1  0
  5  8  2  0
  8  9  1  0
  9 10  1  0
  9 11  2  0
 11 12  1  0
 12 13  2  0
 12 14  1  0
 14 15  1  0
 15 16  1  0
 15 17  1  0
 17 18  1  0
 18 19  2  0
 19 20  1  0
 20 21  2  0
 20 22  1  0
 22 23  1  0
 22 24  1  0
 24 25  1  0
 24 26  1  0
 26  1  1  0
 11  3  1  0
  1 27  1  0
  2 28  1  0
  4 29  1  0
  7 30  1  0
  7 31  1  0
  7 32  1  0
  8 33  1  0
 10 34  1  0
 15 35  1  1
 16 36  1  0
 16 37  1  0
 16 38  1  0
 17 39  1  0
 17 40  1  0
 18 41  1  0
 19 42  1  0
 22 43  1  6
 23 44  1  0
 24 45  1  6
 25 46  1  0
 26 47  1  0
 26 48  1  0
M  END
$$$$
