
     RDKit          3D

 40 43  0  0  0  0  0  0  0  0999 V2000
   -2.0126   -0.8428   -1.8054 C   0  0  0  0  0  0  0  0  0  0  0  0
   -0.9050    0.0650   -1.4552 C   0  0  2  0  0  0  0  0  0  0  0  0
    0.3530   -0.7048   -1.1748 C   0  0  0  0  0  0  0  0  0  0  0  0
    0.7155   -1.9891   -1.1147 N   0  0  0  0  0  0  0  0  0  0  0  0
    1.9867   -2.0389   -0.8274 N   0  0  0  0  0  0  0  0  0  0  0  0
    2.4712   -0.7910   -0.6972 C   0  0  0  0  0  0  0  0  0  0  0  0
    3.8767   -0.4545   -0.4046 C   0  0  0  0  0  0  0  0  0  0  0  0
    4.6833   -0.4441    0.4647 N   0  0  0  0  0  0  0  0  0  0  0  0
    5.9122   -0.1174    0.4875 C   0  0  0  0  0  0  0  0  0  0  0  0
    6.9477   -0.1074    1.5687 C   0  0  0  0  0  0  0  0  0  0  0  0
    7.0552    1.1496    2.1136 F   0  0  0  0  0  0  0  0  0  0  0  0
    6.5388   -0.9842    2.5384 F   0  0  0  0  0  0  0  0  0  0  0  0
    8.1625   -0.5834    1.0674 F   0  0  0  0  0  0  0  0  0  0  0  0
    6.4008    0.3261   -0.8030 N   0  0  0  0  0  0  0  0  0  0  0  0
    4.8749    0.1539   -1.8180 S   0  0  0  0  0  0  0  0  0  0  0  0
    1.4549    0.0394   -0.9121 N   0  0  0  0  0  0  0  0  0  0  0  0
    1.2925    1.4789   -0.9127 C   0  0  0  0  0  0  0  0  0  0  0  0
    0.0312    1.9643   -0.2606 C   0  0  0  0  0  0  0  0  0  0  0  0
   -1.0596    0.9585   -0.3415 N   0  0  0  0  0  0  0  0  0  0  0  0
   -2.0271    0.9652    0.6443 C   0  0  0  0  0  0  0  0  0  0  0  0
   -1.8364    1.8722    1.5869 O   0  0  0  0  0  0  0  0  0  0  0  0
   -3.2136    0.1887    0.8639 C   0  0  0  0  0  0  0  0  0  0  0  0
   -4.3072    0.2751    0.0403 C   0  0  0  0  0  0  0  0  0  0  0  0
   -5.4826   -0.4372    0.2589 C   0  0  0  0  0  0  0  0  0  0  0  0
   -5.5528   -1.2711    1.3555 C   0  0  0  0  0  0  0  0  0  0  0  0
   -6.7201   -1.9590    1.5475 F   0  0  0  0  0  0  0  0  0  0  0  0
   -4.4793   -1.4032    2.2248 C   0  0  0  0  0  0  0  0  0  0  0  0
   -3.3328   -0.6734    1.9647 C   0  0  0  0  0  0  0  0  0  0  0  0
   -2.3703   -1.4912   -0.9762 H   0  0  0  0  0  0  0  0  0  0  0  0
   -2.8446   -0.2993   -2.2635 H   0  0  0  0  0  0  0  0  0  0  0  0
   -1.6277   -1.4961   -2.6553 H   0  0  0  0  0  0  0  0  0  0  0  0
   -0.6485    0.6839   -2.3575 H   0  0  0  0  0  0  0  0  0  0  0  0
    2.1386    1.9924   -0.4025 H   0  0  0  0  0  0  0  0  0  0  0  0
    1.2188    1.7671   -1.9973 H   0  0  0  0  0  0  0  0  0  0  0  0
    0.2485    2.2412    0.7793 H   0  0  0  0  0  0  0  0  0  0  0  0
   -0.2767    2.9094   -0.7726 H   0  0  0  0  0  0  0  0  0  0  0  0
   -4.2790    0.9129   -0.8297 H   0  0  0  0  0  0  0  0  0  0  0  0
   -6.3314   -0.3479   -0.4086 H   0  0  0  0  0  0  0  0  0  0  0  0
   -4.5946   -2.0660    3.0650 H   0  0  0  0  0  0  0  0  0  0  0  0
   -2.4609   -0.7476    2.6189 H   0  0  0  0  0  0  0  0  0  0  0  0
  1  2  1  0
  2  3  1  0
  3  4  2  0
  4  5  1  0
  5  6  2  0
  6  7  1  0
  7  8  2  0
  8  9  1  0
  9 10  1  0
 10 11  1  0
 10 12  1  0
 10 13  1  0
  9 14  2  0
 14 15  1  0
  6 16  1  0
 16 17  1  0
 17 18  1  0
 18 19  1  0
 19 20  1  0
 20 21  2  0
 20 22  1  0
 22 23  2  0
 23 24  1  0
 24 25  2  0
 25 26  1  0
 25 27  1  0
 27 28  2  0
 19  2  1  0
 28 22  1  0
 16  3  1  0
 15  7  1  0
  1 29  1  0
  1 30  1  0
  1 31  1  0
  2 32  1  6
 17 33  1  0
 17 34  1  0
 18 35  1  0
 18 36  1  0
 23 37  1  0
 24 38  1  0
 27 39  1  0
 28 40  1  0
M  END
$$$$
