
     RDKit          3D

 47 49  0  0  0  0  0  0  0  0999 V2000
   -2.8935    1.3425   -3.0861 C   0  0  0  0  0  0  0  0  0  0  0  0
   -2.6819    1.6875   -1.6284 C   0  0  0  0  0  0  0  0  0  0  0  0
   -1.5783    0.8924   -1.0337 C   0  0  0  0  0  0  0  0  0  0  0  0
   -0.2228    1.0594   -1.2318 C   0  0  0  0  0  0  0  0  0  0  0  0
    0.3353    2.0923   -2.0947 C   0  0  0  0  0  0  0  0  0  0  0  0
    0.3043    3.4988   -1.5664 C   0  0  0  0  0  0  0  0  0  0  0  0
    1.0016    3.7600   -0.3204 C   0  0  0  0  0  0  0  0  0  0  0  0
    1.6169    2.9042    0.3306 O   0  0  0  0  0  0  0  0  0  0  0  0
    1.0189    5.0562    0.2432 O   0  0  0  0  0  0  0  0  0  0  0  0
    0.4692    0.1270   -0.5210 N   0  0  0  0  0  0  0  0  0  0  0  0
    1.8606   -0.0638   -0.5669 C   0  0  0  0  0  0  0  0  0  0  0  0
    2.5397    0.4942   -1.5449 O   0  0  0  0  0  0  0  0  0  0  0  0
    2.7330   -0.7908    0.3111 C   0  0  0  0  0  0  0  0  0  0  0  0
    3.8143   -1.5112   -0.1676 C   0  0  0  0  0  0  0  0  0  0  0  0
    4.7323   -2.1220    0.6559 C   0  0  0  0  0  0  0  0  0  0  0  0
    4.6081   -2.0383    2.0231 C   0  0  0  0  0  0  0  0  0  0  0  0
    5.7779   -2.8181    3.0996 Cl  0  0  0  0  0  0  0  0  0  0  0  0
    3.5427   -1.3283    2.5272 C   0  0  0  0  0  0  0  0  0  0  0  0
    2.6365   -0.7252    1.6809 C   0  0  0  0  0  0  0  0  0  0  0  0
   -0.4206   -0.6580    0.1457 C   0  0  0  0  0  0  0  0  0  0  0  0
   -0.3009   -1.7492    0.9692 C   0  0  0  0  0  0  0  0  0  0  0  0
   -1.4396   -2.3510    1.4739 C   0  0  0  0  0  0  0  0  0  0  0  0
   -2.6836   -1.8806    1.1662 C   0  0  0  0  0  0  0  0  0  0  0  0
   -3.8038   -2.5043    1.6892 O   0  0  0  0  0  0  0  0  0  0  0  0
   -3.6526   -3.6152    2.5320 C   0  0  0  0  0  0  0  0  0  0  0  0
   -2.8314   -0.7840    0.3347 C   0  0  0  0  0  0  0  0  0  0  0  0
   -1.7056   -0.1788   -0.1730 C   0  0  0  0  0  0  0  0  0  0  0  0
   -2.5714    2.1809   -3.7602 H   0  0  0  0  0  0  0  0  0  0  0  0
   -2.3862    0.3945   -3.3786 H   0  0  0  0  0  0  0  0  0  0  0  0
   -3.9689    1.2023   -3.3167 H   0  0  0  0  0  0  0  0  0  0  0  0
   -2.6492    2.7535   -1.4640 H   0  0  0  0  0  0  0  0  0  0  0  0
   -3.6503    1.3562   -1.1194 H   0  0  0  0  0  0  0  0  0  0  0  0
   -0.2807    2.1540   -3.0631 H   0  0  0  0  0  0  0  0  0  0  0  0
    1.3502    1.9372   -2.4885 H   0  0  0  0  0  0  0  0  0  0  0  0
    0.8359    4.1318   -2.3619 H   0  0  0  0  0  0  0  0  0  0  0  0
   -0.7032    3.9666   -1.5505 H   0  0  0  0  0  0  0  0  0  0  0  0
    1.8080    5.3387    0.8132 H   0  0  0  0  0  0  0  0  0  0  0  0
    3.8900   -1.5622   -1.2649 H   0  0  0  0  0  0  0  0  0  0  0  0
    5.5618   -2.6750    0.2232 H   0  0  0  0  0  0  0  0  0  0  0  0
    3.4597   -1.2721    3.6189 H   0  0  0  0  0  0  0  0  0  0  0  0
    1.8111   -0.1704    2.1309 H   0  0  0  0  0  0  0  0  0  0  0  0
    0.6474   -2.1699    1.1986 H   0  0  0  0  0  0  0  0  0  0  0  0
   -1.3139   -3.2101    2.1226 H   0  0  0  0  0  0  0  0  0  0  0  0
   -3.1647   -4.4661    2.0004 H   0  0  0  0  0  0  0  0  0  0  0  0
   -3.0161   -3.3434    3.4212 H   0  0  0  0  0  0  0  0  0  0  0  0
   -4.6280   -3.9475    2.9144 H   0  0  0  0  0  0  0  0  0  0  0  0
   -3.8082   -0.3948    0.0770 H   0  0  0  0  0  0  0  0  0  0  0  0
  1  2  1  0
  2  3  1  0
  3  4  2  0
  4  5  1  0
  5  6  1  0
  6  7  1  0
  7  8  2  0
  7  9  1  0
  4 10  1  0
 10 11  1  0
 11 12  2  0
 11 13  1  0
 13 14  2  0
 14 15  1  0
 15 16  2  0
 16 17  1  0
 16 18  1  0
 18 19  2  0
 10 20  1  0
 20 21  2  0
 21 22  1  0
 22 23  2  0
 23 24  1  0
 24 25  1  0
 23 26  1  0
 26 27  2  0
 27  3  1  0
 19 13  1  0
 27 20  1  0
  1 28  1  0
  1 29  1  0
  1 30  1  0
  2 31  1  0
  2 32  1  0
  5 33  1  0
  5 34  1  0
  6 35  1  0
  6 36  1  0
  9 37  1  0
 14 38  1  0
 15 39  1  0
 18 40  1  0
 19 41  1  0
 21 42  1  0
 22 43  1  0
 25 44  1  0
 25 45  1  0
 25 46  1  0
 26 47  1  0
M  END
$$$$
