
     RDKit          3D

 30 32  0  0  0  0  0  0  0  0999 V2000
   -0.5089   -3.2419   -1.0965 C   0  0  0  0  0  0  0  0  0  0  0  0
    0.5253   -2.2292   -0.7180 C   0  0  0  0  0  0  0  0  0  0  0  0
    2.0726   -2.5730    0.0769 S   0  0  0  0  0  0  0  0  0  0  0  0
    2.6413   -0.8878    0.1453 C   0  0  0  0  0  0  0  0  0  0  0  0
    3.7856   -0.3657    0.6315 N   0  0  0  0  0  0  0  0  0  0  0  0
    3.9856    0.9598    0.5575 C   0  0  0  0  0  0  0  0  0  0  0  0
    5.1768    1.5697    1.0563 N   0  0  0  0  0  0  0  0  0  0  0  0
    3.0055    1.6808   -0.0096 N   0  0  0  0  0  0  0  0  0  0  0  0
    1.8612    1.1919   -0.5001 C   0  0  0  0  0  0  0  0  0  0  0  0
    1.0333    1.9828   -1.0046 O   0  0  0  0  0  0  0  0  0  0  0  0
    1.6347   -0.2084   -0.4281 C   0  0  0  0  0  0  0  0  0  0  0  0
    0.5441   -0.8664   -0.8766 C   0  0  0  0  0  0  0  0  0  0  0  0
   -0.9189   -0.0999   -1.6869 S   0  0  0  0  0  0  0  0  0  0  0  0
   -2.1709    0.2847   -0.4917 C   0  0  0  0  0  0  0  0  0  0  0  0
   -2.2067    1.5062    0.1038 C   0  0  0  0  0  0  0  0  0  0  0  0
   -3.1828    1.8390    1.0570 C   0  0  0  0  0  0  0  0  0  0  0  0
   -3.2393    3.3985    1.8272 Cl  0  0  0  0  0  0  0  0  0  0  0  0
   -4.1425    0.9089    1.4112 C   0  0  0  0  0  0  0  0  0  0  0  0
   -4.1007   -0.3227    0.8060 C   0  0  0  0  0  0  0  0  0  0  0  0
   -5.3172   -1.5059    1.2525 Cl  0  0  0  0  0  0  0  0  0  0  0  0
   -3.1239   -0.6446   -0.1428 C   0  0  0  0  0  0  0  0  0  0  0  0
   -1.3027   -3.1695   -0.3324 H   0  0  0  0  0  0  0  0  0  0  0  0
   -0.0371   -4.2385   -0.9602 H   0  0  0  0  0  0  0  0  0  0  0  0
   -0.9035   -3.0809   -2.1161 H   0  0  0  0  0  0  0  0  0  0  0  0
    5.6219    2.3347    0.5178 H   0  0  0  0  0  0  0  0  0  0  0  0
    5.6110    1.2681    1.9452 H   0  0  0  0  0  0  0  0  0  0  0  0
    3.1758    2.7291   -0.0627 H   0  0  0  0  0  0  0  0  0  0  0  0
   -1.5004    2.2549   -0.1325 H   0  0  0  0  0  0  0  0  0  0  0  0
   -4.9104    1.1387    2.1463 H   0  0  0  0  0  0  0  0  0  0  0  0
   -3.1090   -1.6137   -0.6042 H   0  0  0  0  0  0  0  0  0  0  0  0
  1  2  1  0
  2  3  1  0
  3  4  1  0
  4  5  1  0
  5  6  2  0
  6  7  1  0
  6  8  1  0
  8  9  1  0
  9 10  2  0
  9 11  1  0
 11 12  1  0
 12 13  1  0
 13 14  1  0
 14 15  2  0
 15 16  1  0
 16 17  1  0
 16 18  2  0
 18 19  1  0
 19 20  1  0
 19 21  2  0
 12  2  2  0
 21 14  1  0
 11  4  2  0
  1 22  1  0
  1 23  1  0
  1 24  1  0
  7 25  1  0
  7 26  1  0
  8 27  1  0
 15 28  1  0
 18 29  1  0
 21 30  1  0
M  END
$$$$
