
     RDKit          3D

 57 61  0  0  0  0  0  0  0  0999 V2000
   -8.5376   -0.0193   -1.9491 C   0  0  0  0  0  0  0  0  0  0  0  0
   -7.3627    0.4044   -1.2937 O   0  0  0  0  0  0  0  0  0  0  0  0
   -6.9413   -0.2790   -0.1508 C   0  0  0  0  0  0  0  0  0  0  0  0
   -7.6497   -1.3552    0.3459 C   0  0  0  0  0  0  0  0  0  0  0  0
   -7.2374   -2.0289    1.4695 C   0  0  0  0  0  0  0  0  0  0  0  0
   -6.0908   -1.6239    2.1184 C   0  0  0  0  0  0  0  0  0  0  0  0
   -5.3811   -0.5668    1.6439 C   0  0  0  0  0  0  0  0  0  0  0  0
   -5.7999    0.1038    0.5173 C   0  0  0  0  0  0  0  0  0  0  0  0
   -5.0101    1.2374    0.0362 C   0  0  0  0  0  0  0  0  0  0  0  0
   -5.4986    2.4531   -0.3742 C   0  0  0  0  0  0  0  0  0  0  0  0
   -4.4358    3.2413   -0.7499 C   0  0  0  0  0  0  0  0  0  0  0  0
   -3.2923    2.5142   -0.5721 C   0  0  0  0  0  0  0  0  0  0  0  0
   -1.9332    2.7716   -0.7753 C   0  0  0  0  0  0  0  0  0  0  0  0
   -1.0941    1.7775   -0.4748 N   0  0  0  0  0  0  0  0  0  0  0  0
   -1.4559    0.5797   -0.0035 C   0  0  0  0  0  0  0  0  0  0  0  0
   -0.5277   -0.4453    0.3007 N   0  0  0  0  0  0  0  0  0  0  0  0
    0.8660   -0.3939    0.1760 C   0  0  0  0  0  0  0  0  0  0  0  0
    1.6012   -1.5409    0.5019 C   0  0  0  0  0  0  0  0  0  0  0  0
    2.9680   -1.5309    0.3946 C   0  0  0  0  0  0  0  0  0  0  0  0
    3.6911   -0.4411   -0.0232 C   0  0  0  0  0  0  0  0  0  0  0  0
    5.0981   -0.5580   -0.0912 N   0  0  0  0  0  0  0  0  0  0  0  0
    5.7670   -1.8129    0.2928 C   0  0  0  0  0  0  0  0  0  0  0  0
    7.2575   -1.5746    0.3166 C   0  0  0  0  0  0  0  0  0  0  0  0
    7.6236   -0.4137    1.0743 N   0  0  0  0  0  0  0  0  0  0  0  0
    9.0519   -0.2047    0.9247 C   0  0  0  0  0  0  0  0  0  0  0  0
    6.9370    0.7827    0.6355 C   0  0  0  0  0  0  0  0  0  0  0  0
    5.9998    0.4901   -0.5257 C   0  0  0  0  0  0  0  0  0  0  0  0
    2.9753    0.6844   -0.3434 C   0  0  0  0  0  0  0  0  0  0  0  0
    1.5753    0.6994   -0.2418 C   0  0  0  0  0  0  0  0  0  0  0  0
   -2.7965    0.3527    0.1870 N   0  0  0  0  0  0  0  0  0  0  0  0
   -3.6603    1.3119   -0.0986 N   0  0  0  0  0  0  0  0  0  0  0  0
   -9.4510    0.2196   -1.3606 H   0  0  0  0  0  0  0  0  0  0  0  0
   -8.5264   -1.0967   -2.2022 H   0  0  0  0  0  0  0  0  0  0  0  0
   -8.6210    0.5480   -2.9148 H   0  0  0  0  0  0  0  0  0  0  0  0
   -8.5638   -1.6776   -0.1719 H   0  0  0  0  0  0  0  0  0  0  0  0
   -7.7821   -2.8607    1.8561 H   0  0  0  0  0  0  0  0  0  0  0  0
   -5.7193   -2.1228    3.0135 H   0  0  0  0  0  0  0  0  0  0  0  0
   -4.4717   -0.2437    2.1565 H   0  0  0  0  0  0  0  0  0  0  0  0
   -6.5510    2.7565   -0.4027 H   0  0  0  0  0  0  0  0  0  0  0  0
   -4.4352    4.2628   -1.1273 H   0  0  0  0  0  0  0  0  0  0  0  0
   -1.6403    3.7355   -1.1547 H   0  0  0  0  0  0  0  0  0  0  0  0
   -0.9524   -1.3573    0.6673 H   0  0  0  0  0  0  0  0  0  0  0  0
    1.0962   -2.4566    0.8452 H   0  0  0  0  0  0  0  0  0  0  0  0
    3.4872   -2.4568    0.6631 H   0  0  0  0  0  0  0  0  0  0  0  0
    5.5224   -2.5399   -0.5066 H   0  0  0  0  0  0  0  0  0  0  0  0
    5.4133   -2.1808    1.2679 H   0  0  0  0  0  0  0  0  0  0  0  0
    7.7027   -2.4592    0.8474 H   0  0  0  0  0  0  0  0  0  0  0  0
    7.7043   -1.5260   -0.6811 H   0  0  0  0  0  0  0  0  0  0  0  0
    9.3785   -0.1887   -0.1298 H   0  0  0  0  0  0  0  0  0  0  0  0
    9.5744   -1.0916    1.3869 H   0  0  0  0  0  0  0  0  0  0  0  0
    9.4079    0.6694    1.5069 H   0  0  0  0  0  0  0  0  0  0  0  0
    6.3052    1.1527    1.4689 H   0  0  0  0  0  0  0  0  0  0  0  0
    7.6352    1.5997    0.3602 H   0  0  0  0  0  0  0  0  0  0  0  0
    6.6333    0.0798   -1.3393 H   0  0  0  0  0  0  0  0  0  0  0  0
    5.5184    1.4272   -0.7948 H   0  0  0  0  0  0  0  0  0  0  0  0
    3.5110    1.5558   -0.6742 H   0  0  0  0  0  0  0  0  0  0  0  0
    1.1170    1.6363   -0.5174 H   0  0  0  0  0  0  0  0  0  0  0  0
  1  2  1  0
  2  3  1  0
  3  4  2  0
  4  5  1  0
  5  6  2  0
  6  7  1  0
  7  8  2  0
  8  9  1  0
  9 10  2  0
 10 11  1  0
 11 12  2  0
 12 13  1  0
 13 14  2  0
 14 15  1  0
 15 16  1  0
 16 17  1  0
 17 18  2  0
 18 19  1  0
 19 20  2  0
 20 21  1  0
 21 22  1  0
 22 23  1  0
 23 24  1  0
 24 25  1  0
 24 26  1  0
 26 27  1  0
 20 28  1  0
 28 29  2  0
 15 30  2  0
 30 31  1  0
  8  3  1  0
 31  9  1  0
 31 12  1  0
 29 17  1  0
 27 21  1  0
  1 32  1  0
  1 33  1  0
  1 34  1  0
  4 35  1  0
  5 36  1  0
  6 37  1  0
  7 38  1  0
 10 39  1  0
 11 40  1  0
 13 41  1  0
 16 42  1  0
 18 43  1  0
 19 44  1  0
 22 45  1  0
 22 46  1  0
 23 47  1  0
 23 48  1  0
 25 49  1  0
 25 50  1  0
 25 51  1  0
 26 52  1  0
 26 53  1  0
 27 54  1  0
 27 55  1  0
 28 56  1  0
 29 57  1  0
M  END
$$$$
