
     RDKit          3D

 98101  0  0  0  0  0  0  0  0999 V2000
    9.0789    0.6424    1.7113 C   0  0  0  0  0  0  0  0  0  0  0  0
    8.6830    1.5352    2.8984 C   0  0  0  0  0  0  0  0  0  0  0  0
    8.7961    0.7888    4.1902 C   0  0  0  0  0  0  0  0  0  0  0  0
    7.2563    1.8876    2.7189 C   0  0  0  0  0  0  0  0  0  0  0  0
    6.1416    1.3620    2.8386 N   0  0  0  0  0  0  0  0  0  0  0  0
    4.9881    1.9013    2.6029 C   0  0  0  0  0  0  0  0  0  0  0  0
    3.6880    1.1265    2.7934 C   0  0  0  0  0  0  0  0  0  0  0  0
    3.3407    0.4934    1.5639 N   0  0  0  0  0  0  0  0  0  0  0  0
    3.7819   -0.8292    1.2134 C   0  0  0  0  0  0  0  0  0  0  0  0
    2.5132    1.2199    0.6344 C   0  0  0  0  0  0  0  0  0  0  0  0
    2.0914    2.3704    0.9102 O   0  0  0  0  0  0  0  0  0  0  0  0
    2.1411    0.6848   -0.6162 N   0  0  0  0  0  0  0  0  0  0  0  0
    1.3215    1.3456   -1.6063 C   0  0  2  0  0  0  0  0  0  0  0  0
    0.2555    0.4572   -2.0879 C   0  0  0  0  0  0  0  0  0  0  0  0
   -0.4795    0.9018   -3.0342 O   0  0  0  0  0  0  0  0  0  0  0  0
    0.0342   -0.8250   -1.5555 N   0  0  0  0  0  0  0  0  0  0  0  0
   -1.0113   -1.6487   -2.0917 C   0  0  1  0  0  0  0  0  0  0  0  0
   -0.4766   -3.0086   -2.5291 C   0  0  0  0  0  0  0  0  0  0  0  0
    0.1241   -3.6574   -1.3175 C   0  0  0  0  0  0  0  0  0  0  0  0
    1.4726   -3.4496   -1.0570 C   0  0  0  0  0  0  0  0  0  0  0  0
    2.0084   -4.0310    0.0751 C   0  0  0  0  0  0  0  0  0  0  0  0
    1.2167   -4.7896    0.9090 C   0  0  0  0  0  0  0  0  0  0  0  0
   -0.1354   -4.9787    0.6169 C   0  0  0  0  0  0  0  0  0  0  0  0
   -0.6807   -4.4074   -0.5041 C   0  0  0  0  0  0  0  0  0  0  0  0
   -2.2306   -1.8088   -1.2259 C   0  0  0  0  0  0  0  0  0  0  0  0
   -2.9269   -0.5066   -0.9205 C   0  0  2  0  0  0  0  0  0  0  0  0
   -2.0221    0.2627   -0.2086 O   0  0  0  0  0  0  0  0  0  0  0  0
   -4.2750   -0.6383   -0.3645 C   0  0  2  0  0  0  0  0  0  0  0  0
   -5.2208   -1.4483   -1.2444 C   0  0  0  0  0  0  0  0  0  0  0  0
   -5.4667   -0.8984   -2.5610 C   0  0  0  0  0  0  0  0  0  0  0  0
   -6.4703   -0.0114   -2.7787 C   0  0  0  0  0  0  0  0  0  0  0  0
   -6.7123    0.5176   -4.0232 C   0  0  0  0  0  0  0  0  0  0  0  0
   -5.9217    0.1502   -5.1085 C   0  0  0  0  0  0  0  0  0  0  0  0
   -4.9157   -0.7378   -4.8952 C   0  0  0  0  0  0  0  0  0  0  0  0
   -4.6817   -1.2657   -3.6287 C   0  0  0  0  0  0  0  0  0  0  0  0
   -4.8710    0.7002   -0.1752 N   0  0  0  0  0  0  0  0  0  0  0  0
   -5.5949    1.0092    1.0075 C   0  0  0  0  0  0  0  0  0  0  0  0
   -5.7157    0.1326    1.8747 O   0  0  0  0  0  0  0  0  0  0  0  0
   -6.1530    2.2409    1.1921 O   0  0  0  0  0  0  0  0  0  0  0  0
   -6.9044    2.6263    2.3083 C   0  0  0  0  0  0  0  0  0  0  0  0
   -6.2677    2.5684    3.6031 C   0  0  0  0  0  0  0  0  0  0  0  0
   -6.1573    1.6229    4.5634 C   0  0  0  0  0  0  0  0  0  0  0  0
   -5.5049    1.9264    5.6490 N   0  0  0  0  0  0  0  0  0  0  0  0
   -4.9724    2.9719    5.9135 C   0  0  0  0  0  0  0  0  0  0  0  0
   -5.3935    3.9210    4.3196 S   0  0  0  0  0  0  0  0  0  0  0  0
    2.2520    1.7277   -2.7619 C   0  0  0  0  0  0  0  0  0  0  0  0
    2.8921    0.4668   -3.3297 C   0  0  0  0  0  0  0  0  0  0  0  0
    1.5343    2.4966   -3.8415 C   0  0  0  0  0  0  0  0  0  0  0  0
    4.9657    3.1900    2.1739 C   0  0  0  0  0  0  0  0  0  0  0  0
    6.7798    3.5465    2.1449 S   0  0  0  0  0  0  0  0  0  0  0  0
    8.8199   -0.4098    1.9079 H   0  0  0  0  0  0  0  0  0  0  0  0
   10.1476    0.8095    1.4971 H   0  0  0  0  0  0  0  0  0  0  0  0
    8.4787    0.9861    0.8440 H   0  0  0  0  0  0  0  0  0  0  0  0
    9.2852    2.4465    2.8227 H   0  0  0  0  0  0  0  0  0  0  0  0
    9.7882    0.3483    4.3828 H   0  0  0  0  0  0  0  0  0  0  0  0
    8.4972    1.4720    5.0147 H   0  0  0  0  0  0  0  0  0  0  0  0
    7.9966    0.0014    4.1624 H   0  0  0  0  0  0  0  0  0  0  0  0
    2.9529    1.8397    3.1539 H   0  0  0  0  0  0  0  0  0  0  0  0
    3.8129    0.3560    3.5725 H   0  0  0  0  0  0  0  0  0  0  0  0
    4.1857   -0.8463    0.1797 H   0  0  0  0  0  0  0  0  0  0  0  0
    3.0049   -1.6013    1.3814 H   0  0  0  0  0  0  0  0  0  0  0  0
    4.6446   -1.1183    1.8709 H   0  0  0  0  0  0  0  0  0  0  0  0
    2.5038   -0.2880   -0.8337 H   0  0  0  0  0  0  0  0  0  0  0  0
    0.8759    2.2851   -1.2111 H   0  0  0  0  0  0  0  0  0  0  0  0
    0.6552   -1.1451   -0.7666 H   0  0  0  0  0  0  0  0  0  0  0  0
   -1.3931   -1.1538   -3.0412 H   0  0  0  0  0  0  0  0  0  0  0  0
    0.3021   -2.8595   -3.2997 H   0  0  0  0  0  0  0  0  0  0  0  0
   -1.2945   -3.6140   -2.9480 H   0  0  0  0  0  0  0  0  0  0  0  0
    2.0738   -2.8530   -1.7200 H   0  0  0  0  0  0  0  0  0  0  0  0
    3.0508   -3.9089    0.3371 H   0  0  0  0  0  0  0  0  0  0  0  0
    1.5943   -5.2613    1.8044 H   0  0  0  0  0  0  0  0  0  0  0  0
   -0.7489   -5.5634    1.2596 H   0  0  0  0  0  0  0  0  0  0  0  0
   -1.7411   -4.5605   -0.7312 H   0  0  0  0  0  0  0  0  0  0  0  0
   -2.8421   -2.6130   -1.6011 H   0  0  0  0  0  0  0  0  0  0  0  0
   -1.8077   -2.2188   -0.2440 H   0  0  0  0  0  0  0  0  0  0  0  0
   -2.9987    0.0132   -1.9267 H   0  0  0  0  0  0  0  0  0  0  0  0
   -1.6221   -0.3299    0.4911 H   0  0  0  0  0  0  0  0  0  0  0  0
   -4.2903   -1.1155    0.6095 H   0  0  0  0  0  0  0  0  0  0  0  0
   -6.1912   -1.4805   -0.6873 H   0  0  0  0  0  0  0  0  0  0  0  0
   -4.8398   -2.4905   -1.2142 H   0  0  0  0  0  0  0  0  0  0  0  0
   -7.0867    0.2846   -1.9547 H   0  0  0  0  0  0  0  0  0  0  0  0
   -7.5051    1.2252   -4.2221 H   0  0  0  0  0  0  0  0  0  0  0  0
   -6.1117    0.5724   -6.1048 H   0  0  0  0  0  0  0  0  0  0  0  0
   -4.2787   -1.0358   -5.7443 H   0  0  0  0  0  0  0  0  0  0  0  0
   -3.8620   -1.9625   -3.5838 H   0  0  0  0  0  0  0  0  0  0  0  0
   -4.7559    1.4214   -0.9163 H   0  0  0  0  0  0  0  0  0  0  0  0
   -7.8246    1.9921    2.3249 H   0  0  0  0  0  0  0  0  0  0  0  0
   -7.3029    3.6643    2.0859 H   0  0  0  0  0  0  0  0  0  0  0  0
   -6.6113    0.6151    4.4234 H   0  0  0  0  0  0  0  0  0  0  0  0
   -4.3951    3.5212    6.6622 H   0  0  0  0  0  0  0  0  0  0  0  0
    3.0612    2.3309   -2.3155 H   0  0  0  0  0  0  0  0  0  0  0  0
    3.9108    0.3076   -2.8934 H   0  0  0  0  0  0  0  0  0  0  0  0
    3.0189    0.5122   -4.4257 H   0  0  0  0  0  0  0  0  0  0  0  0
    2.2984   -0.4340   -3.0852 H   0  0  0  0  0  0  0  0  0  0  0  0
    0.6317    2.9456   -3.3984 H   0  0  0  0  0  0  0  0  0  0  0  0
    2.1708    3.3090   -4.2390 H   0  0  0  0  0  0  0  0  0  0  0  0
    1.3255    1.8264   -4.7075 H   0  0  0  0  0  0  0  0  0  0  0  0
    4.2209    3.9238    1.8939 H   0  0  0  0  0  0  0  0  0  0  0  0
  1  2  1  0
  2  3  1  0
  2  4  1  0
  4  5  2  0
  5  6  1  0
  6  7  1  0
  7  8  1  0
  8  9  1  0
  8 10  1  0
 10 11  2  0
 10 12  1  0
 12 13  1  0
 13 14  1  0
 14 15  2  0
 14 16  1  0
 16 17  1  0
 17 18  1  0
 18 19  1  0
 19 20  2  0
 20 21  1  0
 21 22  2  0
 22 23  1  0
 23 24  2  0
 17 25  1  0
 25 26  1  0
 26 27  1  0
 26 28  1  0
 28 29  1  0
 29 30  1  0
 30 31  2  0
 31 32  1  0
 32 33  2  0
 33 34  1  0
 34 35  2  0
 28 36  1  0
 36 37  1  0
 37 38  2  0
 37 39  1  0
 39 40  1  0
 40 41  1  0
 41 42  2  0
 42 43  1  0
 43 44  2  0
 44 45  1  0
 13 46  1  0
 46 47  1  0
 46 48  1  0
  6 49  2  0
 49 50  1  0
 50  4  1  0
 24 19  1  0
 35 30  1  0
 45 41  1  0
  1 51  1  0
  1 52  1  0
  1 53  1  0
  2 54  1  0
  3 55  1  0
  3 56  1  0
  3 57  1  0
  7 58  1  0
  7 59  1  0
  9 60  1  0
  9 61  1  0
  9 62  1  0
 12 63  1  0
 13 64  1  1
 16 65  1  0
 17 66  1  6
 18 67  1  0
 18 68  1  0
 20 69  1  0
 21 70  1  0
 22 71  1  0
 23 72  1  0
 24 73  1  0
 25 74  1  0
 25 75  1  0
 26 76  1  6
 27 77  1  0
 28 78  1  1
 29 79  1  0
 29 80  1  0
 31 81  1  0
 32 82  1  0
 33 83  1  0
 34 84  1  0
 35 85  1  0
 36 86  1  0
 40 87  1  0
 40 88  1  0
 42 89  1  0
 44 90  1  0
 46 91  1  0
 47 92  1  0
 47 93  1  0
 47 94  1  0
 48 95  1  0
 48 96  1  0
 48 97  1  0
 49 98  1  0
M  END
$$$$
