
     RDKit          3D

 27 28  0  0  0  0  0  0  0  0999 V2000
   -1.6634   -0.2545    2.3423 O   0  0  0  0  0  0  0  0  0  0  0  0
   -1.4398   -0.1899    1.0253 C   0  0  0  0  0  0  0  0  0  0  0  0
   -0.0459   -0.0196    0.7651 C   0  0  0  0  0  0  0  0  0  0  0  0
    0.6319    0.0437   -0.3447 C   0  0  0  0  0  0  0  0  0  0  0  0
    2.0686    0.2286   -0.3658 C   0  0  0  0  0  0  0  0  0  0  0  0
    2.7130    0.2866   -1.6122 C   0  0  0  0  0  0  0  0  0  0  0  0
    4.0689    0.4587   -1.7402 C   0  0  0  0  0  0  0  0  0  0  0  0
    4.8528    0.5821   -0.6189 C   0  0  0  0  0  0  0  0  0  0  0  0
    6.5752    0.8012   -0.7585 Cl  0  0  0  0  0  0  0  0  0  0  0  0
    4.2816    0.5333    0.6171 C   0  0  0  0  0  0  0  0  0  0  0  0
    5.2173    0.6834    2.0897 Cl  0  0  0  0  0  0  0  0  0  0  0  0
    2.8941    0.3566    0.7140 C   0  0  0  0  0  0  0  0  0  0  0  0
   -2.5903   -0.3027    0.1957 C   0  0  0  0  0  0  0  0  0  0  0  0
   -3.8168   -0.7089    0.7625 C   0  0  0  0  0  0  0  0  0  0  0  0
   -4.9333   -0.7760    0.0057 C   0  0  0  0  0  0  0  0  0  0  0  0
   -4.9426   -0.4592   -1.3350 C   0  0  0  0  0  0  0  0  0  0  0  0
   -3.8056   -0.0784   -1.8748 N   0  0  0  0  0  0  0  0  0  0  0  0
   -2.6434    0.0023   -1.1295 C   0  0  0  0  0  0  0  0  0  0  0  0
    0.6272    0.0853    1.6732 H   0  0  0  0  0  0  0  0  0  0  0  0
    0.1324   -0.0716   -1.2869 H   0  0  0  0  0  0  0  0  0  0  0  0
    2.1054    0.1906   -2.5043 H   0  0  0  0  0  0  0  0  0  0  0  0
    4.5443    0.5002   -2.7232 H   0  0  0  0  0  0  0  0  0  0  0  0
    2.4765    0.3230    1.7235 H   0  0  0  0  0  0  0  0  0  0  0  0
   -3.8269   -0.9601    1.8038 H   0  0  0  0  0  0  0  0  0  0  0  0
   -5.8731   -1.0932    0.4651 H   0  0  0  0  0  0  0  0  0  0  0  0
   -5.8387   -0.5200   -1.9158 H   0  0  0  0  0  0  0  0  0  0  0  0
   -1.7693    0.3585   -1.6573 H   0  0  0  0  0  0  0  0  0  0  0  0
  1  2  2  0
  2  3  1  0
  3  4  2  0
  4  5  1  0
  5  6  2  0
  6  7  1  0
  7  8  2  0
  8  9  1  0
  8 10  1  0
 10 11  1  0
 10 12  2  0
  2 13  1  0
 13 14  2  0
 14 15  1  0
 15 16  2  0
 16 17  1  0
 17 18  2  0
 12  5  1  0
 18 13  1  0
  3 19  1  0
  4 20  1  0
  6 21  1  0
  7 22  1  0
 12 23  1  0
 14 24  1  0
 15 25  1  0
 16 26  1  0
 18 27  1  0
M  END
$$$$
