
     RDKit          3D

 73 77  0  0  0  0  0  0  0  0999 V2000
    9.4841    1.3644    3.6521 C   0  0  0  0  0  0  0  0  0  0  0  0
    8.4151    1.1205    2.7619 O   0  0  0  0  0  0  0  0  0  0  0  0
    8.6621    0.6503    1.4682 C   0  0  0  0  0  0  0  0  0  0  0  0
    9.8490    0.3746    0.9051 N   0  0  0  0  0  0  0  0  0  0  0  0
    9.7079   -0.0514   -0.3358 N   0  0  0  0  0  0  0  0  0  0  0  0
   10.7080   -0.4577   -1.3035 C   0  0  0  0  0  0  0  0  0  0  0  0
    8.3643   -0.0536   -0.5937 C   0  0  0  0  0  0  0  0  0  0  0  0
    7.6836    0.3773    0.5068 C   0  0  0  0  0  0  0  0  0  0  0  0
    6.3032    0.5501    0.7478 N   0  0  0  0  0  0  0  0  0  0  0  0
    5.3526    0.2886   -0.2638 C   0  0  0  0  0  0  0  0  0  0  0  0
    5.6506   -0.1451   -1.4966 N   0  0  0  0  0  0  0  0  0  0  0  0
    4.7435   -0.3831   -2.4668 C   0  0  0  0  0  0  0  0  0  0  0  0
    3.4054   -0.1476   -2.1219 C   0  0  0  0  0  0  0  0  0  0  0  0
    2.3408   -0.3742   -3.1040 C   0  0  0  0  0  0  0  0  0  0  0  0
    3.0718    0.2980   -0.8632 C   0  0  0  0  0  0  0  0  0  0  0  0
    1.6831    0.5338   -0.5265 C   0  0  0  0  0  0  0  0  0  0  0  0
    0.7710    1.3567   -1.1915 C   0  0  0  0  0  0  0  0  0  0  0  0
   -0.4180    1.3041   -0.5677 N   0  0  0  0  0  0  0  0  0  0  0  0
   -0.3420    0.4772    0.4918 C   0  0  0  0  0  0  0  0  0  0  0  0
   -1.2447    0.0597    1.4576 C   0  0  0  0  0  0  0  0  0  0  0  0
   -2.5565    0.5913    1.3672 N   0  0  0  0  0  0  0  0  0  0  0  0
   -3.5535   -0.0345    0.6080 C   0  0  0  0  0  0  0  0  0  0  0  0
   -3.2805   -1.0916   -0.0060 O   0  0  0  0  0  0  0  0  0  0  0  0
   -4.9515    0.5192    0.4996 C   0  0  1  0  0  0  0  0  0  0  0  0
   -4.7783    1.9452    0.0411 C   0  0  0  0  0  0  0  0  0  0  0  0
   -5.6870   -0.3230   -0.3800 N   0  0  0  0  0  0  0  0  0  0  0  0
   -5.7410   -1.6442    0.2207 C   0  0  0  0  0  0  0  0  0  0  0  0
   -7.1182   -2.1885    0.3898 C   0  0  0  0  0  0  0  0  0  0  0  0
   -8.0878   -1.3141    0.9550 N   0  0  0  0  0  0  0  0  0  0  0  0
   -9.3890   -1.6820    0.3699 C   0  0  0  0  0  0  0  0  0  0  0  0
   -7.8535    0.0522    0.5497 C   0  0  0  0  0  0  0  0  0  0  0  0
   -7.0211    0.0526   -0.6935 C   0  0  1  0  0  0  0  0  0  0  0  0
   -7.1832    1.2706   -1.5512 C   0  0  0  0  0  0  0  0  0  0  0  0
   -0.8196   -0.8221    2.4211 C   0  0  0  0  0  0  0  0  0  0  0  0
    0.4704   -1.3095    2.4664 C   0  0  0  0  0  0  0  0  0  0  0  0
    1.3723   -0.8885    1.4960 C   0  0  0  0  0  0  0  0  0  0  0  0
    0.9437   -0.0032    0.5295 C   0  0  0  0  0  0  0  0  0  0  0  0
    4.0322    0.5070    0.0355 N   0  0  0  0  0  0  0  0  0  0  0  0
    9.4811    2.4274    4.0211 H   0  0  0  0  0  0  0  0  0  0  0  0
    9.4159    0.6618    4.5156 H   0  0  0  0  0  0  0  0  0  0  0  0
   10.4340    1.1938    3.1093 H   0  0  0  0  0  0  0  0  0  0  0  0
   10.3531   -1.2661   -1.9749 H   0  0  0  0  0  0  0  0  0  0  0  0
   11.5869   -0.8183   -0.7152 H   0  0  0  0  0  0  0  0  0  0  0  0
   10.9973    0.3934   -1.9680 H   0  0  0  0  0  0  0  0  0  0  0  0
    7.9351   -0.3603   -1.5473 H   0  0  0  0  0  0  0  0  0  0  0  0
    5.9447    0.8769    1.6845 H   0  0  0  0  0  0  0  0  0  0  0  0
    5.0181   -0.7337   -3.4524 H   0  0  0  0  0  0  0  0  0  0  0  0
    2.5788   -1.2766   -3.7285 H   0  0  0  0  0  0  0  0  0  0  0  0
    1.3625   -0.5415   -2.6454 H   0  0  0  0  0  0  0  0  0  0  0  0
    2.2881    0.4965   -3.8055 H   0  0  0  0  0  0  0  0  0  0  0  0
    1.0242    1.9220   -2.0591 H   0  0  0  0  0  0  0  0  0  0  0  0
   -1.3031    1.8233   -0.8427 H   0  0  0  0  0  0  0  0  0  0  0  0
   -2.7529    1.4701    1.8890 H   0  0  0  0  0  0  0  0  0  0  0  0
   -5.3356    0.5002    1.5500 H   0  0  0  0  0  0  0  0  0  0  0  0
   -4.7878    2.0299   -1.0507 H   0  0  0  0  0  0  0  0  0  0  0  0
   -3.7536    2.3295    0.3397 H   0  0  0  0  0  0  0  0  0  0  0  0
   -5.4687    2.6401    0.5720 H   0  0  0  0  0  0  0  0  0  0  0  0
   -5.1843   -2.3503   -0.4319 H   0  0  0  0  0  0  0  0  0  0  0  0
   -5.2460   -1.6575    1.2296 H   0  0  0  0  0  0  0  0  0  0  0  0
   -7.0241   -3.0637    1.0859 H   0  0  0  0  0  0  0  0  0  0  0  0
   -7.4449   -2.6535   -0.5854 H   0  0  0  0  0  0  0  0  0  0  0  0
   -9.8535   -2.5292    0.8959 H   0  0  0  0  0  0  0  0  0  0  0  0
   -9.2800   -1.9739   -0.6970 H   0  0  0  0  0  0  0  0  0  0  0  0
  -10.0927   -0.8232    0.3901 H   0  0  0  0  0  0  0  0  0  0  0  0
   -7.3508    0.5585    1.4137 H   0  0  0  0  0  0  0  0  0  0  0  0
   -8.8322    0.5807    0.3444 H   0  0  0  0  0  0  0  0  0  0  0  0
   -7.4326   -0.7992   -1.3296 H   0  0  0  0  0  0  0  0  0  0  0  0
   -7.1745    2.2190   -1.0195 H   0  0  0  0  0  0  0  0  0  0  0  0
   -8.2293    1.1956   -1.9864 H   0  0  0  0  0  0  0  0  0  0  0  0
   -6.5253    1.1813   -2.4245 H   0  0  0  0  0  0  0  0  0  0  0  0
   -1.5158   -1.1493    3.1722 H   0  0  0  0  0  0  0  0  0  0  0  0
    0.8020   -2.0022    3.2247 H   0  0  0  0  0  0  0  0  0  0  0  0
    2.3767   -1.2809    1.5490 H   0  0  0  0  0  0  0  0  0  0  0  0
  1  2  1  0
  2  3  1  0
  3  4  2  0
  4  5  1  0
  5  6  1  0
  5  7  1  0
  7  8  2  0
  8  9  1  0
  9 10  1  0
 10 11  2  0
 11 12  1  0
 12 13  2  0
 13 14  1  0
 13 15  1  0
 15 16  1  0
 16 17  2  0
 17 18  1  0
 18 19  1  0
 19 20  2  0
 20 21  1  0
 21 22  1  0
 22 23  2  0
 22 24  1  0
 24 25  1  0
 24 26  1  0
 26 27  1  0
 27 28  1  0
 28 29  1  0
 29 30  1  0
 29 31  1  0
 31 32  1  0
 32 33  1  0
 20 34  1  0
 34 35  2  0
 35 36  1  0
 36 37  2  0
 15 38  2  0
  8  3  1  0
 38 10  1  0
 37 16  1  0
 37 19  1  0
 32 26  1  0
  1 39  1  0
  1 40  1  0
  1 41  1  0
  6 42  1  0
  6 43  1  0
  6 44  1  0
  7 45  1  0
  9 46  1  0
 12 47  1  0
 14 48  1  0
 14 49  1  0
 14 50  1  0
 17 51  1  0
 18 52  1  0
 21 53  1  0
 24 54  1  1
 25 55  1  0
 25 56  1  0
 25 57  1  0
 27 58  1  0
 27 59  1  0
 28 60  1  0
 28 61  1  0
 30 62  1  0
 30 63  1  0
 30 64  1  0
 31 65  1  0
 31 66  1  0
 32 67  1  6
 33 68  1  0
 33 69  1  0
 33 70  1  0
 34 71  1  0
 35 72  1  0
 36 73  1  0
M  END
$$$$
