
     RDKit          3D

 70 75  0  0  0  0  0  0  0  0999 V2000
    8.4919   -0.2679    2.9737 C   0  0  0  0  0  0  0  0  0  0  0  0
    7.2683   -0.2298    2.1795 N   0  0  0  0  0  0  0  0  0  0  0  0
    7.0700   -1.4712    1.4631 C   0  0  0  0  0  0  0  0  0  0  0  0
    5.9079   -1.3397    0.5330 C   0  0  0  0  0  0  0  0  0  0  0  0
    5.2574   -0.0686    0.5408 N   0  0  0  0  0  0  0  0  0  0  0  0
    4.3301   -0.0282   -0.5853 C   0  0  1  0  0  0  0  0  0  0  0  0
    3.3208   -1.1311   -0.4339 C   0  0  0  0  0  0  0  0  0  0  0  0
    2.1694   -1.0139   -1.3895 C   0  0  0  0  0  0  0  0  0  0  0  0
    1.6085    0.3564   -1.5253 C   0  0  1  0  0  0  0  0  0  0  0  0
    0.1699    0.4129   -1.5535 N   0  0  0  0  0  0  0  0  0  0  0  0
   -0.7337   -0.2925   -0.8642 C   0  0  0  0  0  0  0  0  0  0  0  0
   -2.0208    0.0771   -1.1936 C   0  0  0  0  0  0  0  0  0  0  0  0
   -3.2785   -0.4144   -0.6584 C   0  0  0  0  0  0  0  0  0  0  0  0
   -3.5977   -1.7749   -0.7222 C   0  0  0  0  0  0  0  0  0  0  0  0
   -4.7759   -2.2587   -0.1974 C   0  0  0  0  0  0  0  0  0  0  0  0
   -5.6906   -1.4292    0.4119 C   0  0  0  0  0  0  0  0  0  0  0  0
   -6.8874   -1.9133    0.9457 O   0  0  0  0  0  0  0  0  0  0  0  0
   -7.7682   -1.0298    1.5459 C   0  0  0  0  0  0  0  0  0  0  0  0
   -8.7407   -0.4207    0.7877 C   0  0  0  0  0  0  0  0  0  0  0  0
   -9.6338    0.4619    1.3453 C   0  0  0  0  0  0  0  0  0  0  0  0
   -9.5633    0.7528    2.7001 C   0  0  0  0  0  0  0  0  0  0  0  0
   -8.6036    0.1566    3.4673 C   0  0  0  0  0  0  0  0  0  0  0  0
   -7.6998   -0.7401    2.8897 C   0  0  0  0  0  0  0  0  0  0  0  0
   -5.3920   -0.0882    0.4835 C   0  0  0  0  0  0  0  0  0  0  0  0
   -4.1979    0.4038   -0.0477 C   0  0  0  0  0  0  0  0  0  0  0  0
   -1.9128    1.0666   -2.1414 C   0  0  0  0  0  0  0  0  0  0  0  0
   -2.8430    1.8123   -2.8485 C   0  0  0  0  0  0  0  0  0  0  0  0
   -4.2355    1.6007   -2.6508 N   0  0  0  0  0  0  0  0  0  0  0  0
   -2.3756    2.7160   -3.7272 N   0  0  0  0  0  0  0  0  0  0  0  0
   -1.0666    2.9180   -3.9410 C   0  0  0  0  0  0  0  0  0  0  0  0
   -0.1848    2.1845   -3.2468 N   0  0  0  0  0  0  0  0  0  0  0  0
   -0.5461    1.2512   -2.3413 C   0  0  0  0  0  0  0  0  0  0  0  0
    2.2021    1.2117   -0.4128 C   0  0  0  0  0  0  0  0  0  0  0  0
    3.6930    1.3139   -0.7398 C   0  0  0  0  0  0  0  0  0  0  0  0
    6.1445    1.0691    0.5260 C   0  0  0  0  0  0  0  0  0  0  0  0
    7.4914    0.7937    1.1592 C   0  0  0  0  0  0  0  0  0  0  0  0
    9.3991   -0.2853    2.3392 H   0  0  0  0  0  0  0  0  0  0  0  0
    8.4547   -1.0600    3.7264 H   0  0  0  0  0  0  0  0  0  0  0  0
    8.5303    0.7105    3.5212 H   0  0  0  0  0  0  0  0  0  0  0  0
    7.0353   -2.3567    2.1185 H   0  0  0  0  0  0  0  0  0  0  0  0
    7.9957   -1.6060    0.8302 H   0  0  0  0  0  0  0  0  0  0  0  0
    6.1916   -1.6153   -0.5235 H   0  0  0  0  0  0  0  0  0  0  0  0
    5.1501   -2.0994    0.8595 H   0  0  0  0  0  0  0  0  0  0  0  0
    4.9579   -0.3013   -1.4839 H   0  0  0  0  0  0  0  0  0  0  0  0
    2.9685   -1.2631    0.6122 H   0  0  0  0  0  0  0  0  0  0  0  0
    3.8429   -2.0972   -0.7014 H   0  0  0  0  0  0  0  0  0  0  0  0
    2.4921   -1.4178   -2.3937 H   0  0  0  0  0  0  0  0  0  0  0  0
    1.3881   -1.7442   -1.0434 H   0  0  0  0  0  0  0  0  0  0  0  0
    2.0206    0.7929   -2.4772 H   0  0  0  0  0  0  0  0  0  0  0  0
   -0.5029   -1.0514   -0.1444 H   0  0  0  0  0  0  0  0  0  0  0  0
   -2.8713   -2.4077   -1.2017 H   0  0  0  0  0  0  0  0  0  0  0  0
   -5.0125   -3.3106   -0.2520 H   0  0  0  0  0  0  0  0  0  0  0  0
   -8.7790   -0.6652   -0.2834 H   0  0  0  0  0  0  0  0  0  0  0  0
  -10.4005    0.9376    0.7302 H   0  0  0  0  0  0  0  0  0  0  0  0
  -10.2793    1.4542    3.1235 H   0  0  0  0  0  0  0  0  0  0  0  0
   -8.5449    0.3785    4.5172 H   0  0  0  0  0  0  0  0  0  0  0  0
   -6.9358   -1.2196    3.4814 H   0  0  0  0  0  0  0  0  0  0  0  0
   -6.0971    0.5703    0.9564 H   0  0  0  0  0  0  0  0  0  0  0  0
   -4.0098    1.4600    0.0515 H   0  0  0  0  0  0  0  0  0  0  0  0
   -4.6933    0.7258   -2.9933 H   0  0  0  0  0  0  0  0  0  0  0  0
   -4.8521    2.2867   -2.1689 H   0  0  0  0  0  0  0  0  0  0  0  0
   -0.7174    3.6675   -4.6689 H   0  0  0  0  0  0  0  0  0  0  0  0
    2.0632    0.7298    0.5826 H   0  0  0  0  0  0  0  0  0  0  0  0
    1.7216    2.2072   -0.4773 H   0  0  0  0  0  0  0  0  0  0  0  0
    3.7276    1.5697   -1.8334 H   0  0  0  0  0  0  0  0  0  0  0  0
    4.1722    2.1276   -0.2009 H   0  0  0  0  0  0  0  0  0  0  0  0
    5.6889    1.8984    1.1435 H   0  0  0  0  0  0  0  0  0  0  0  0
    6.3596    1.4229   -0.5124 H   0  0  0  0  0  0  0  0  0  0  0  0
    8.2334    0.4491    0.3955 H   0  0  0  0  0  0  0  0  0  0  0  0
    7.9253    1.6914    1.6392 H   0  0  0  0  0  0  0  0  0  0  0  0
  1  2  1  0
  2  3  1  0
  3  4  1  0
  4  5  1  0
  5  6  1  0
  6  7  1  0
  7  8  1  0
  8  9  1  0
  9 10  1  0
 10 11  1  0
 11 12  2  0
 12 13  1  0
 13 14  2  0
 14 15  1  0
 15 16  2  0
 16 17  1  0
 17 18  1  0
 18 19  2  0
 19 20  1  0
 20 21  2  0
 21 22  1  0
 22 23  2  0
 16 24  1  0
 24 25  2  0
 12 26  1  0
 26 27  2  0
 27 28  1  0
 27 29  1  0
 29 30  2  0
 30 31  1  0
 31 32  2  0
  9 33  1  0
 33 34  1  0
  5 35  1  0
 35 36  1  0
 36  2  1  0
 34  6  1  0
 32 10  1  0
 25 13  1  0
 32 26  1  0
 23 18  1  0
  1 37  1  0
  1 38  1  0
  1 39  1  0
  3 40  1  0
  3 41  1  0
  4 42  1  0
  4 43  1  0
  6 44  1  6
  7 45  1  0
  7 46  1  0
  8 47  1  0
  8 48  1  0
  9 49  1  6
 11 50  1  0
 14 51  1  0
 15 52  1  0
 19 53  1  0
 20 54  1  0
 21 55  1  0
 22 56  1  0
 23 57  1  0
 24 58  1  0
 25 59  1  0
 28 60  1  0
 28 61  1  0
 30 62  1  0
 33 63  1  0
 33 64  1  0
 34 65  1  0
 34 66  1  0
 35 67  1  0
 35 68  1  0
 36 69  1  0
 36 70  1  0
M  END
$$$$
