
     RDKit          3D

 48 51  0  0  0  0  0  0  0  0999 V2000
   -5.0994    2.7479    1.7319 C   0  0  0  0  0  0  0  0  0  0  0  0
   -5.6579    1.8606    0.8607 O   0  0  0  0  0  0  0  0  0  0  0  0
   -4.8866    1.3667   -0.1519 C   0  0  0  0  0  0  0  0  0  0  0  0
   -3.6247    0.6634    0.2110 C   0  0  2  0  0  0  0  0  0  0  0  0
   -2.4971    1.3761    0.9299 C   0  0  0  0  0  0  0  0  0  0  0  0
   -2.3623    0.8909   -0.4831 C   0  0  1  0  0  0  0  0  0  0  0  0
   -1.5718   -0.3258   -0.8198 C   0  0  1  0  0  0  0  0  0  0  0  0
   -2.3920   -1.1624   -1.8012 C   0  0  0  0  0  0  0  0  0  0  0  0
   -0.3206    0.0642   -1.5606 C   0  0  0  0  0  0  0  0  0  0  0  0
    0.9142   -0.3546   -1.0357 C   0  0  0  0  0  0  0  0  0  0  0  0
    2.1152   -0.0308   -1.6187 C   0  0  0  0  0  0  0  0  0  0  0  0
    3.4064   -0.4594   -1.0695 C   0  0  0  0  0  0  0  0  0  0  0  0
    3.6555   -0.4726    0.2267 C   0  0  0  0  0  0  0  0  0  0  0  0
    2.6252   -0.0573    1.0300 F   0  0  0  0  0  0  0  0  0  0  0  0
    4.9138   -0.8884    0.8294 C   0  0  0  0  0  0  0  0  0  0  0  0
    6.0082   -1.3249    0.1266 C   0  0  0  0  0  0  0  0  0  0  0  0
    7.1586   -1.7004    0.7322 N   0  0  0  0  0  0  0  0  0  0  0  0
    7.2634   -1.6544    2.0736 C   0  0  0  0  0  0  0  0  0  0  0  0
    8.7521   -2.1387    2.8808 Cl  0  0  0  0  0  0  0  0  0  0  0  0
    6.1723   -1.2176    2.7956 C   0  0  0  0  0  0  0  0  0  0  0  0
    5.0420   -0.8510    2.1680 N   0  0  0  0  0  0  0  0  0  0  0  0
    2.0515    0.7367   -2.7624 C   0  0  0  0  0  0  0  0  0  0  0  0
    0.8817    1.1741   -3.3215 C   0  0  0  0  0  0  0  0  0  0  0  0
   -0.3233    0.8215   -2.6952 C   0  0  0  0  0  0  0  0  0  0  0  0
   -1.5051    1.2153   -3.2288 F   0  0  0  0  0  0  0  0  0  0  0  0
   -1.2009   -1.1494    0.3071 N   0  0  0  0  0  0  0  0  0  0  0  0
   -2.0746   -1.5921    1.1137 C   0  0  0  0  0  0  0  0  0  0  0  0
   -1.8308   -2.4004    2.2376 N   0  0  0  0  0  0  0  0  0  0  0  0
   -3.7781   -1.0875    0.7765 S   0  0  0  0  0  0  0  0  0  0  0  0
   -5.8636    3.1256    2.4761 H   0  0  0  0  0  0  0  0  0  0  0  0
   -4.3539    2.1479    2.3554 H   0  0  0  0  0  0  0  0  0  0  0  0
   -4.6071    3.6254    1.3036 H   0  0  0  0  0  0  0  0  0  0  0  0
   -5.4910    0.7771   -0.8939 H   0  0  0  0  0  0  0  0  0  0  0  0
   -4.5726    2.2733   -0.7768 H   0  0  0  0  0  0  0  0  0  0  0  0
   -2.5181    2.4789    1.0788 H   0  0  0  0  0  0  0  0  0  0  0  0
   -1.8684    0.8557    1.6584 H   0  0  0  0  0  0  0  0  0  0  0  0
   -2.3957    1.6646   -1.2901 H   0  0  0  0  0  0  0  0  0  0  0  0
   -2.0634   -0.9719   -2.8421 H   0  0  0  0  0  0  0  0  0  0  0  0
   -2.3405   -2.2392   -1.5378 H   0  0  0  0  0  0  0  0  0  0  0  0
   -3.4634   -0.8766   -1.7624 H   0  0  0  0  0  0  0  0  0  0  0  0
    0.9134   -0.9609   -0.1374 H   0  0  0  0  0  0  0  0  0  0  0  0
    4.2159   -0.7857   -1.7137 H   0  0  0  0  0  0  0  0  0  0  0  0
    5.9784   -1.3810   -0.9450 H   0  0  0  0  0  0  0  0  0  0  0  0
    6.2355   -1.1733    3.8635 H   0  0  0  0  0  0  0  0  0  0  0  0
    3.0010    0.9944   -3.2249 H   0  0  0  0  0  0  0  0  0  0  0  0
    0.8296    1.7794   -4.2227 H   0  0  0  0  0  0  0  0  0  0  0  0
   -1.7469   -3.4397    2.2101 H   0  0  0  0  0  0  0  0  0  0  0  0
   -1.7240   -1.9438    3.1687 H   0  0  0  0  0  0  0  0  0  0  0  0
  1  2  1  0
  2  3  1  0
  4  3  1  6
  4  5  1  0
  5  6  1  0
  6  7  1  0
  7  8  1  6
  7  9  1  0
  9 10  2  0
 10 11  1  0
 11 12  1  0
 12 13  2  0
 13 14  1  0
 13 15  1  0
 15 16  2  0
 16 17  1  0
 17 18  2  0
 18 19  1  0
 18 20  1  0
 20 21  2  0
 11 22  2  0
 22 23  1  0
 23 24  2  0
 24 25  1  0
  7 26  1  0
 26 27  2  0
 27 28  1  0
 27 29  1  0
  6  4  1  0
 24  9  1  0
 29  4  1  0
 21 15  1  0
  1 30  1  0
  1 31  1  0
  1 32  1  0
  3 33  1  0
  3 34  1  0
  5 35  1  0
  5 36  1  0
  6 37  1  6
  8 38  1  0
  8 39  1  0
  8 40  1  0
 10 41  1  0
 12 42  1  0
 16 43  1  0
 20 44  1  0
 22 45  1  0
 23 46  1  0
 28 47  1  0
 28 48  1  0
M  END
$$$$
