
     RDKit          3D

 44 46  0  0  0  0  0  0  0  0999 V2000
    6.0469    1.2420   -0.0934 C   0  0  0  0  0  0  0  0  0  0  0  0
    5.2349    0.0988    0.5334 C   0  0  0  0  0  0  0  0  0  0  0  0
    3.8685    0.2028   -0.1010 C   0  0  0  0  0  0  0  0  0  0  0  0
    2.9215   -0.8614    0.4060 C   0  0  0  0  0  0  0  0  0  0  0  0
    1.6133   -0.6789   -0.2709 C   0  0  0  0  0  0  0  0  0  0  0  0
    0.5645   -1.6725    0.1262 C   0  0  0  0  0  0  0  0  0  0  0  0
    0.9502   -2.7729    0.5841 O   0  0  0  0  0  0  0  0  0  0  0  0
   -0.7198   -1.1095   -0.1204 N   0  0  0  0  0  0  0  0  0  0  0  0
   -0.4938    0.2584   -0.0697 N   0  0  0  0  0  0  0  0  0  0  0  0
    0.8946    0.5627    0.2011 C   0  0  0  0  0  0  0  0  0  0  0  0
    1.2856    1.6519    0.7167 O   0  0  0  0  0  0  0  0  0  0  0  0
   -1.4445    1.2881   -0.2484 C   0  0  0  0  0  0  0  0  0  0  0  0
   -1.6805    1.7953   -1.5343 C   0  0  0  0  0  0  0  0  0  0  0  0
   -2.6121    2.8101   -1.6254 C   0  0  0  0  0  0  0  0  0  0  0  0
   -3.2825    3.3097   -0.5265 C   0  0  0  0  0  0  0  0  0  0  0  0
   -4.2088    4.3189   -0.6183 O   0  0  0  0  0  0  0  0  0  0  0  0
   -3.0151    2.7735    0.7358 C   0  0  0  0  0  0  0  0  0  0  0  0
   -2.0958    1.7570    0.9019 C   0  0  0  0  0  0  0  0  0  0  0  0
   -1.8619   -1.8726   -0.3481 C   0  0  0  0  0  0  0  0  0  0  0  0
   -1.8091   -3.2512   -0.3633 C   0  0  0  0  0  0  0  0  0  0  0  0
   -2.8968   -4.0682   -0.5795 C   0  0  0  0  0  0  0  0  0  0  0  0
   -4.1457   -3.5208   -0.8009 C   0  0  0  0  0  0  0  0  0  0  0  0
   -4.2697   -2.1572   -0.7992 C   0  0  0  0  0  0  0  0  0  0  0  0
   -3.1364   -1.4052   -0.5757 C   0  0  0  0  0  0  0  0  0  0  0  0
    6.2094    1.0636   -1.1756 H   0  0  0  0  0  0  0  0  0  0  0  0
    5.5072    2.1910    0.0882 H   0  0  0  0  0  0  0  0  0  0  0  0
    7.0460    1.3304    0.3843 H   0  0  0  0  0  0  0  0  0  0  0  0
    5.7036   -0.8608    0.3205 H   0  0  0  0  0  0  0  0  0  0  0  0
    5.1289    0.3476    1.6043 H   0  0  0  0  0  0  0  0  0  0  0  0
    3.9977    0.0021   -1.2017 H   0  0  0  0  0  0  0  0  0  0  0  0
    3.4313    1.1936   -0.0322 H   0  0  0  0  0  0  0  0  0  0  0  0
    2.8464   -0.6945    1.5147 H   0  0  0  0  0  0  0  0  0  0  0  0
    3.3346   -1.8696    0.2504 H   0  0  0  0  0  0  0  0  0  0  0  0
    1.6992   -0.5999   -1.3624 H   0  0  0  0  0  0  0  0  0  0  0  0
   -1.1326    1.3740   -2.3667 H   0  0  0  0  0  0  0  0  0  0  0  0
   -2.8221    3.2282   -2.6018 H   0  0  0  0  0  0  0  0  0  0  0  0
   -3.9164    5.2863   -0.4734 H   0  0  0  0  0  0  0  0  0  0  0  0
   -3.5381    3.1605    1.6069 H   0  0  0  0  0  0  0  0  0  0  0  0
   -1.8576    1.3127    1.8586 H   0  0  0  0  0  0  0  0  0  0  0  0
   -0.9184   -3.8262   -0.2108 H   0  0  0  0  0  0  0  0  0  0  0  0
   -2.8668   -5.1428   -0.5934 H   0  0  0  0  0  0  0  0  0  0  0  0
   -5.0102   -4.1326   -0.9720 H   0  0  0  0  0  0  0  0  0  0  0  0
   -5.2360   -1.7212   -0.9703 H   0  0  0  0  0  0  0  0  0  0  0  0
   -3.3137   -0.3416   -0.5893 H   0  0  0  0  0  0  0  0  0  0  0  0
  1  2  1  0
  2  3  1  0
  3  4  1  0
  4  5  1  0
  5  6  1  0
  6  7  2  0
  6  8  1  0
  8  9  1  0
  9 10  1  0
 10 11  2  0
  9 12  1  0
 12 13  2  0
 13 14  1  0
 14 15  2  0
 15 16  1  0
 15 17  1  0
 17 18  2  0
  8 19  1  0
 19 20  2  0
 20 21  1  0
 21 22  2  0
 22 23  1  0
 23 24  2  0
 10  5  1  0
 18 12  1  0
 24 19  1  0
  1 25  1  0
  1 26  1  0
  1 27  1  0
  2 28  1  0
  2 29  1  0
  3 30  1  0
  3 31  1  0
  4 32  1  0
  4 33  1  0
  5 34  1  0
 13 35  1  0
 14 36  1  0
 16 37  1  0
 17 38  1  0
 18 39  1  0
 20 40  1  0
 21 41  1  0
 22 42  1  0
 23 43  1  0
 24 44  1  0
M  END
$$$$
