
     RDKit          3D

 53 57  0  0  0  0  0  0  0  0999 V2000
    1.1022   -3.7974    0.9965 C   0  0  0  0  0  0  0  0  0  0  0  0
    0.0963   -2.8915    0.6463 O   0  0  0  0  0  0  0  0  0  0  0  0
    0.3324   -1.5683    0.3183 C   0  0  0  0  0  0  0  0  0  0  0  0
    1.6550   -1.0923    0.3330 C   0  0  0  0  0  0  0  0  0  0  0  0
    1.9146    0.2216    0.0102 C   0  0  0  0  0  0  0  0  0  0  0  0
    3.2523    0.6732    0.0310 C   0  0  0  0  0  0  0  0  0  0  0  0
    4.3139   -0.1761    0.3879 N   0  0  0  0  0  0  0  0  0  0  0  0
    5.6872    0.1699    0.3712 C   0  0  0  0  0  0  0  0  0  0  0  0
    6.1538    1.3990   -0.0200 C   0  0  0  0  0  0  0  0  0  0  0  0
    7.5249    1.6908   -0.0131 C   0  0  0  0  0  0  0  0  0  0  0  0
    8.4125    0.7439    0.3869 C   0  0  0  0  0  0  0  0  0  0  0  0
   10.2866    1.1473    0.3946 Br  0  0  0  0  0  0  0  0  0  0  0  0
    7.9607   -0.5015    0.7848 C   0  0  0  0  0  0  0  0  0  0  0  0
    9.1159   -1.7381    1.3068 Cl  0  0  0  0  0  0  0  0  0  0  0  0
    6.6271   -0.7917    0.7803 C   0  0  0  0  0  0  0  0  0  0  0  0
    6.0737   -2.3928    1.2943 Cl  0  0  0  0  0  0  0  0  0  0  0  0
    3.4308    1.9484   -0.2928 N   0  0  0  0  0  0  0  0  0  0  0  0
    2.4574    2.7924   -0.6228 C   0  0  0  0  0  0  0  0  0  0  0  0
    1.1725    2.3554   -0.6416 N   0  0  0  0  0  0  0  0  0  0  0  0
    0.8859    1.0876   -0.3315 C   0  0  0  0  0  0  0  0  0  0  0  0
   -0.4079    0.6000   -0.3400 C   0  0  0  0  0  0  0  0  0  0  0  0
   -0.6878   -0.7067   -0.0210 C   0  0  0  0  0  0  0  0  0  0  0  0
   -1.9671   -1.1978   -0.0269 O   0  0  0  0  0  0  0  0  0  0  0  0
   -3.1444   -0.5398   -0.3289 C   0  0  1  0  0  0  0  0  0  0  0  0
   -3.8657   -1.1353   -1.5239 C   0  0  0  0  0  0  0  0  0  0  0  0
   -5.2098   -1.0840   -1.2758 O   0  0  0  0  0  0  0  0  0  0  0  0
   -5.4528   -0.6569   -0.0014 C   0  0  2  0  0  0  0  0  0  0  0  0
   -5.8499    0.8248    0.0573 C   0  0  1  0  0  0  0  0  0  0  0  0
   -7.2020    1.0111   -0.0640 O   0  0  0  0  0  0  0  0  0  0  0  0
   -7.4122    1.9052   -1.1352 C   0  0  0  0  0  0  0  0  0  0  0  0
   -5.3583    1.1362    1.4782 C   0  0  0  0  0  0  0  0  0  0  0  0
   -4.1233    0.5404    1.4901 O   0  0  0  0  0  0  0  0  0  0  0  0
   -4.1769   -0.6311    0.7805 C   0  0  2  0  0  0  0  0  0  0  0  0
    1.6200   -3.5387    1.9392 H   0  0  0  0  0  0  0  0  0  0  0  0
    0.7165   -4.8217    1.0900 H   0  0  0  0  0  0  0  0  0  0  0  0
    1.8880   -3.7626    0.1862 H   0  0  0  0  0  0  0  0  0  0  0  0
    2.4383   -1.7885    0.6004 H   0  0  0  0  0  0  0  0  0  0  0  0
    4.1230   -1.1586    0.7044 H   0  0  0  0  0  0  0  0  0  0  0  0
    5.5095    2.2140   -0.3590 H   0  0  0  0  0  0  0  0  0  0  0  0
    7.8393    2.6840   -0.3341 H   0  0  0  0  0  0  0  0  0  0  0  0
    2.6369    3.8132   -0.8780 H   0  0  0  0  0  0  0  0  0  0  0  0
   -1.1629    1.3224   -0.6138 H   0  0  0  0  0  0  0  0  0  0  0  0
   -2.9597    0.5164   -0.5931 H   0  0  0  0  0  0  0  0  0  0  0  0
   -3.5378   -2.2034   -1.6766 H   0  0  0  0  0  0  0  0  0  0  0  0
   -3.6571   -0.5824   -2.4628 H   0  0  0  0  0  0  0  0  0  0  0  0
   -6.1848   -1.2664    0.5495 H   0  0  0  0  0  0  0  0  0  0  0  0
   -5.2369    1.3818   -0.6685 H   0  0  0  0  0  0  0  0  0  0  0  0
   -6.8708    2.8410   -0.8319 H   0  0  0  0  0  0  0  0  0  0  0  0
   -8.4743    2.1299   -1.2757 H   0  0  0  0  0  0  0  0  0  0  0  0
   -6.8996    1.5542   -2.0590 H   0  0  0  0  0  0  0  0  0  0  0  0
   -6.0364    0.5872    2.1778 H   0  0  0  0  0  0  0  0  0  0  0  0
   -5.3209    2.2099    1.6725 H   0  0  0  0  0  0  0  0  0  0  0  0
   -4.0277   -1.4776    1.4486 H   0  0  0  0  0  0  0  0  0  0  0  0
  1  2  1  0
  2  3  1  0
  3  4  2  0
  4  5  1  0
  5  6  2  0
  6  7  1  0
  7  8  1  0
  8  9  2  0
  9 10  1  0
 10 11  2  0
 11 12  1  0
 11 13  1  0
 13 14  1  0
 13 15  2  0
 15 16  1  0
  6 17  1  0
 17 18  2  0
 18 19  1  0
 19 20  2  0
 20 21  1  0
 21 22  2  0
 22 23  1  0
 23 24  1  0
 24 25  1  0
 25 26  1  0
 26 27  1  0
 27 28  1  0
 28 29  1  0
 29 30  1  0
 28 31  1  0
 31 32  1  0
 32 33  1  0
 22  3  1  0
 33 24  1  0
 20  5  1  0
 33 27  1  0
 15  8  1  0
  1 34  1  0
  1 35  1  0
  1 36  1  0
  4 37  1  0
  7 38  1  0
  9 39  1  0
 10 40  1  0
 18 41  1  0
 21 42  1  0
 24 43  1  6
 25 44  1  0
 25 45  1  0
 27 46  1  1
 28 47  1  6
 30 48  1  0
 30 49  1  0
 30 50  1  0
 31 51  1  0
 31 52  1  0
 33 53  1  1
M  END
$$$$
