
     RDKit          3D

 56 58  0  0  0  0  0  0  0  0999 V2000
    9.6607   -1.6211    0.3961 C   0  0  0  0  0  0  0  0  0  0  0  0
    9.4604   -0.6199   -0.4192 C   0  0  0  0  0  0  0  0  0  0  0  0
    8.1990    0.0332   -0.6838 C   0  0  0  0  0  0  0  0  0  0  0  0
    8.1174    1.0034   -1.5008 O   0  0  0  0  0  0  0  0  0  0  0  0
    7.0294   -0.4133   -0.0224 N   0  0  0  0  0  0  0  0  0  0  0  0
    5.7445    0.1839   -0.2334 C   0  0  0  0  0  0  0  0  0  0  0  0
    5.2713    1.2326    0.5084 C   0  0  0  0  0  0  0  0  0  0  0  0
    4.0139    1.7872    0.2730 C   0  0  0  0  0  0  0  0  0  0  0  0
    3.2047    1.2885   -0.7242 C   0  0  0  0  0  0  0  0  0  0  0  0
    1.6158    1.9669   -1.0419 S   0  0  0  0  0  6  0  0  0  0  0  0
    1.3106    1.7549   -2.4974 O   0  0  0  0  0  0  0  0  0  0  0  0
    1.5904    3.4407   -0.7764 O   0  0  0  0  0  0  0  0  0  0  0  0
    0.4123    1.1406   -0.0874 N   0  0  0  0  0  0  0  0  0  0  0  0
    0.4447   -0.2428   -0.5134 C   0  0  0  0  0  0  0  0  0  0  0  0
   -0.7889   -0.9989   -0.0764 C   0  0  0  0  0  0  0  0  0  0  0  0
   -1.9624   -0.3215   -0.6129 N   0  0  0  0  0  0  0  0  0  0  0  0
   -3.2605   -0.9219   -0.5287 C   0  0  0  0  0  0  0  0  0  0  0  0
   -3.3683   -2.0320    0.0114 O   0  0  0  0  0  0  0  0  0  0  0  0
   -4.3362   -0.2708   -1.0366 O   0  0  0  0  0  0  0  0  0  0  0  0
   -5.6304   -0.7965   -0.9890 C   0  0  0  0  0  0  0  0  0  0  0  0
   -6.0114   -1.0041    0.4295 C   0  0  0  0  0  0  0  0  0  0  0  0
   -6.0640   -2.2766    0.9658 C   0  0  0  0  0  0  0  0  0  0  0  0
   -6.4195   -2.5285    2.2690 C   0  0  0  0  0  0  0  0  0  0  0  0
   -6.7371   -1.4542    3.0706 C   0  0  0  0  0  0  0  0  0  0  0  0
   -6.6982   -0.1503    2.5720 C   0  0  0  0  0  0  0  0  0  0  0  0
   -6.3360    0.0546    1.2591 C   0  0  0  0  0  0  0  0  0  0  0  0
   -6.2897    1.4349    0.7154 C   0  0  0  0  0  0  0  0  0  0  0  0
   -1.7535    0.9711   -1.2265 C   0  0  0  0  0  0  0  0  0  0  0  0
   -0.8412    1.7783   -0.3301 C   0  0  0  0  0  0  0  0  0  0  0  0
    3.6939    0.2263   -1.4695 C   0  0  0  0  0  0  0  0  0  0  0  0
    4.9382   -0.3204   -1.2345 C   0  0  0  0  0  0  0  0  0  0  0  0
    8.8514   -2.0502    0.9572 H   0  0  0  0  0  0  0  0  0  0  0  0
   10.6529   -2.0230    0.5078 H   0  0  0  0  0  0  0  0  0  0  0  0
   10.3328   -0.2226   -0.9676 H   0  0  0  0  0  0  0  0  0  0  0  0
    7.0608   -1.2009    0.6489 H   0  0  0  0  0  0  0  0  0  0  0  0
    5.8666    1.6474    1.2895 H   0  0  0  0  0  0  0  0  0  0  0  0
    3.6947    2.6148    0.8923 H   0  0  0  0  0  0  0  0  0  0  0  0
    1.3169   -0.7165   -0.0179 H   0  0  0  0  0  0  0  0  0  0  0  0
    0.5724   -0.3620   -1.5989 H   0  0  0  0  0  0  0  0  0  0  0  0
   -0.7612   -2.0019   -0.5255 H   0  0  0  0  0  0  0  0  0  0  0  0
   -0.8940   -1.0584    1.0117 H   0  0  0  0  0  0  0  0  0  0  0  0
   -6.3482   -0.1136   -1.4911 H   0  0  0  0  0  0  0  0  0  0  0  0
   -5.7172   -1.7734   -1.5228 H   0  0  0  0  0  0  0  0  0  0  0  0
   -5.8267   -3.1331    0.3604 H   0  0  0  0  0  0  0  0  0  0  0  0
   -6.4604   -3.5163    2.6860 H   0  0  0  0  0  0  0  0  0  0  0  0
   -7.0214   -1.6081    4.0997 H   0  0  0  0  0  0  0  0  0  0  0  0
   -6.9481    0.6896    3.2037 H   0  0  0  0  0  0  0  0  0  0  0  0
   -5.2712    1.8288    0.7385 H   0  0  0  0  0  0  0  0  0  0  0  0
   -6.9680    2.1013    1.3265 H   0  0  0  0  0  0  0  0  0  0  0  0
   -6.6852    1.5115   -0.3164 H   0  0  0  0  0  0  0  0  0  0  0  0
   -2.7107    1.4651   -1.3898 H   0  0  0  0  0  0  0  0  0  0  0  0
   -1.2006    0.8164   -2.1790 H   0  0  0  0  0  0  0  0  0  0  0  0
   -1.3763    1.8396    0.6626 H   0  0  0  0  0  0  0  0  0  0  0  0
   -0.6960    2.7748   -0.7438 H   0  0  0  0  0  0  0  0  0  0  0  0
    3.0429   -0.1518   -2.2490 H   0  0  0  0  0  0  0  0  0  0  0  0
    5.2838   -1.1597   -1.8489 H   0  0  0  0  0  0  0  0  0  0  0  0
  1  2  2  3
  2  3  1  0
  3  4  2  0
  3  5  1  0
  5  6  1  0
  6  7  2  0
  7  8  1  0
  8  9  2  0
  9 10  1  0
 10 11  2  0
 10 12  2  0
 10 13  1  0
 13 14  1  0
 14 15  1  0
 15 16  1  0
 16 17  1  0
 17 18  2  0
 17 19  1  0
 19 20  1  0
 20 21  1  0
 21 22  2  0
 22 23  1  0
 23 24  2  0
 24 25  1  0
 25 26  2  0
 26 27  1  0
 16 28  1  0
 28 29  1  0
  9 30  1  0
 30 31  2  0
 31  6  1  0
 29 13  1  0
 26 21  1  0
  1 32  1  0
  1 33  1  0
  2 34  1  0
  5 35  1  0
  7 36  1  0
  8 37  1  0
 14 38  1  0
 14 39  1  0
 15 40  1  0
 15 41  1  0
 20 42  1  0
 20 43  1  0
 22 44  1  0
 23 45  1  0
 24 46  1  0
 25 47  1  0
 27 48  1  0
 27 49  1  0
 27 50  1  0
 28 51  1  0
 28 52  1  0
 29 53  1  0
 29 54  1  0
 30 55  1  0
 31 56  1  0
M  END
$$$$
