
     RDKit          3D

 22 21  0  0  0  0  0  0  0  0999 V2000
   -0.4195   -2.0559    0.1747 O   0  0  0  0  0  0  0  0  0  0  0  0
   -0.7387   -0.7054    0.4343 C   0  0  1  0  0  0  0  0  0  0  0  0
    0.4688    0.0891    0.0139 C   0  0  0  0  0  0  0  0  0  0  0  0
    1.5256   -0.3918    0.8108 O   0  0  0  0  0  0  0  0  0  0  0  0
    2.9691    0.3845    0.4800 P   0  0  0  0  0  0  0  0  0  0  0  0
    4.0079   -0.5494   -0.4729 O   0  0  0  0  0  0  0  0  0  0  0  0
    2.6422    1.8158   -0.3390 O   0  0  0  0  0  0  0  0  0  0  0  0
    3.6962    0.6539    1.7878 O   0  0  0  0  0  0  0  0  0  0  0  0
   -1.9685   -0.4216   -0.3764 C   0  0  1  0  0  0  0  0  0  0  0  0
   -2.9504   -1.3191    0.0890 O   0  0  0  0  0  0  0  0  0  0  0  0
   -2.4399    0.9778   -0.2861 C   0  0  0  0  0  0  0  0  0  0  0  0
   -3.7087    1.2649    0.2102 O   0  0  0  0  0  0  0  0  0  0  0  0
   -1.8651    2.0678   -0.5996 O   0  0  0  0  0  0  0  0  0  0  0  0
    0.0278   -2.1513   -0.7056 H   0  0  0  0  0  0  0  0  0  0  0  0
   -0.8989   -0.5803    1.5058 H   0  0  0  0  0  0  0  0  0  0  0  0
    0.7628   -0.1285   -1.0414 H   0  0  0  0  0  0  0  0  0  0  0  0
    0.3636    1.1734    0.2061 H   0  0  0  0  0  0  0  0  0  0  0  0
    3.6420   -1.4513   -0.6788 H   0  0  0  0  0  0  0  0  0  0  0  0
    3.5121    2.1689   -0.6503 H   0  0  0  0  0  0  0  0  0  0  0  0
   -1.7538   -0.6630   -1.4315 H   0  0  0  0  0  0  0  0  0  0  0  0
   -2.5435   -2.1523    0.4563 H   0  0  0  0  0  0  0  0  0  0  0  0
   -4.3312    1.9737   -0.1913 H   0  0  0  0  0  0  0  0  0  0  0  0
  1  2  1  0
  2  3  1  0
  3  4  1  0
  4  5  1  0
  5  6  1  0
  5  7  1  0
  5  8  2  0
  2  9  1  0
  9 10  1  0
  9 11  1  0
 11 12  1  0
 11 13  2  0
  1 14  1  0
  2 15  1  1
  3 16  1  0
  3 17  1  0
  6 18  1  0
  7 19  1  0
  9 20  1  6
 10 21  1  0
 12 22  1  0
M  END
$$$$
