
     RDKit          3D

 49 53  0  0  0  0  0  0  0  0999 V2000
   -5.3911    1.3837    0.3197 C   0  0  0  0  0  0  0  0  0  0  0  0
   -4.3012    0.8096   -0.3581 O   0  0  0  0  0  0  0  0  0  0  0  0
   -3.3436    0.1066    0.3909 C   0  0  0  0  0  0  0  0  0  0  0  0
   -3.4822   -0.0103    1.7669 C   0  0  0  0  0  0  0  0  0  0  0  0
   -2.5388   -0.7023    2.5137 C   0  0  0  0  0  0  0  0  0  0  0  0
   -1.4538   -1.2812    1.8937 C   0  0  0  0  0  0  0  0  0  0  0  0
   -1.3427   -1.1492    0.5244 C   0  0  0  0  0  0  0  0  0  0  0  0
   -0.2688   -1.7328   -0.0488 F   0  0  0  0  0  0  0  0  0  0  0  0
   -2.2597   -0.4707   -0.2408 C   0  0  0  0  0  0  0  0  0  0  0  0
   -2.1725   -0.3227   -1.7115 C   0  0  2  0  0  0  0  0  0  0  0  0
   -2.7887   -1.4261   -2.4631 C   0  0  0  0  0  0  0  0  0  0  0  0
   -1.6874   -2.1515   -3.1667 C   0  0  2  0  0  0  0  0  0  0  0  0
   -1.5214   -3.4517   -2.6920 F   0  0  0  0  0  0  0  0  0  0  0  0
   -0.4610   -1.4190   -2.7651 C   0  0  0  0  0  0  0  0  0  0  0  0
    0.7436   -1.8398   -2.8927 O   0  0  0  0  0  0  0  0  0  0  0  0
   -0.8315   -0.1674   -2.2119 N   0  0  0  0  0  0  0  0  0  0  0  0
    0.0133    1.0150   -2.1780 C   0  0  0  0  0  0  0  0  0  0  0  0
    0.8107    1.1339   -0.9313 C   0  0  0  0  0  0  0  0  0  0  0  0
    0.2709    1.8420    0.1226 C   0  0  0  0  0  0  0  0  0  0  0  0
    0.9322    2.0057    1.3198 C   0  0  0  0  0  0  0  0  0  0  0  0
    2.1819    1.4560    1.5099 C   0  0  0  0  0  0  0  0  0  0  0  0
    3.0487    1.4273    2.4931 O   0  0  0  0  0  0  0  0  0  0  0  0
    4.1251    0.7511    2.1675 C   0  0  0  0  0  0  0  0  0  0  0  0
    5.3008    0.4334    2.8315 C   0  0  0  0  0  0  0  0  0  0  0  0
    6.2615   -0.3109    2.2015 C   0  0  0  0  0  0  0  0  0  0  0  0
    6.0736   -0.7510    0.9112 C   0  0  0  0  0  0  0  0  0  0  0  0
    4.9203   -0.4575    0.2188 C   0  0  0  0  0  0  0  0  0  0  0  0
    3.9576    0.2980    0.8716 C   0  0  0  0  0  0  0  0  0  0  0  0
    2.7202    0.7452    0.4492 C   0  0  0  0  0  0  0  0  0  0  0  0
    2.0552    0.5761   -0.7656 C   0  0  0  0  0  0  0  0  0  0  0  0
   -5.9858    2.0454   -0.3688 H   0  0  0  0  0  0  0  0  0  0  0  0
   -6.0526    0.6367    0.7853 H   0  0  0  0  0  0  0  0  0  0  0  0
   -4.9572    2.0393    1.1109 H   0  0  0  0  0  0  0  0  0  0  0  0
   -4.3487    0.4548    2.2285 H   0  0  0  0  0  0  0  0  0  0  0  0
   -2.6822   -0.7724    3.6028 H   0  0  0  0  0  0  0  0  0  0  0  0
   -0.7449   -1.8109    2.5196 H   0  0  0  0  0  0  0  0  0  0  0  0
   -2.7652    0.6093   -1.9456 H   0  0  0  0  0  0  0  0  0  0  0  0
   -3.5115   -1.0909   -3.2453 H   0  0  0  0  0  0  0  0  0  0  0  0
   -3.2754   -2.1928   -1.7929 H   0  0  0  0  0  0  0  0  0  0  0  0
   -1.8157   -2.1546   -4.2752 H   0  0  0  0  0  0  0  0  0  0  0  0
    0.6844    1.0217   -3.0470 H   0  0  0  0  0  0  0  0  0  0  0  0
   -0.6402    1.9222   -2.2993 H   0  0  0  0  0  0  0  0  0  0  0  0
   -0.7075    2.2807   -0.0078 H   0  0  0  0  0  0  0  0  0  0  0  0
    0.4934    2.5666    2.1443 H   0  0  0  0  0  0  0  0  0  0  0  0
    5.4783    0.7674    3.8462 H   0  0  0  0  0  0  0  0  0  0  0  0
    7.2011   -0.5686    2.7185 H   0  0  0  0  0  0  0  0  0  0  0  0
    6.8414   -1.3428    0.4126 H   0  0  0  0  0  0  0  0  0  0  0  0
    4.7097   -0.7668   -0.7869 H   0  0  0  0  0  0  0  0  0  0  0  0
    2.5075    0.0164   -1.5669 H   0  0  0  0  0  0  0  0  0  0  0  0
  1  2  1  0
  2  3  1  0
  3  4  2  0
  4  5  1  0
  5  6  2  0
  6  7  1  0
  7  8  1  0
  7  9  2  0
  9 10  1  0
 10 11  1  0
 11 12  1  0
 12 13  1  0
 12 14  1  0
 14 15  2  0
 14 16  1  0
 16 17  1  0
 17 18  1  0
 18 19  2  0
 19 20  1  0
 20 21  2  0
 21 22  1  0
 22 23  1  0
 23 24  2  0
 24 25  1  0
 25 26  2  0
 26 27  1  0
 27 28  2  0
 28 29  1  0
 29 30  2  0
  9  3  1  0
 16 10  1  0
 30 18  1  0
 29 21  1  0
 28 23  1  0
  1 31  1  0
  1 32  1  0
  1 33  1  0
  4 34  1  0
  5 35  1  0
  6 36  1  0
 10 37  1  6
 11 38  1  0
 11 39  1  0
 12 40  1  6
 17 41  1  0
 17 42  1  0
 19 43  1  0
 20 44  1  0
 24 45  1  0
 25 46  1  0
 26 47  1  0
 27 48  1  0
 30 49  1  0
M  END
$$$$
