
     RDKit          3D

 65 69  0  0  0  0  0  0  0  0999 V2000
   11.1024    1.2909   -1.4496 C   0  0  0  0  0  0  0  0  0  0  0  0
    9.8231    1.4677   -1.9996 O   0  0  0  0  0  0  0  0  0  0  0  0
    8.7282    0.8558   -1.4384 C   0  0  0  0  0  0  0  0  0  0  0  0
    8.8850    0.0571   -0.3201 C   0  0  0  0  0  0  0  0  0  0  0  0
    7.7921   -0.5521    0.2379 C   0  0  0  0  0  0  0  0  0  0  0  0
    6.4863   -0.4145   -0.2660 C   0  0  0  0  0  0  0  0  0  0  0  0
    5.4593   -1.1016    0.4136 N   0  0  0  0  0  0  0  0  0  0  0  0
    4.1157   -1.0636    0.0331 C   0  0  0  0  0  0  0  0  0  0  0  0
    3.6936   -0.4187   -0.9452 O   0  0  0  0  0  0  0  0  0  0  0  0
    3.1133   -1.7614    0.7339 O   0  0  0  0  0  0  0  0  0  0  0  0
    1.7857   -1.7153    0.3454 C   0  0  0  0  0  0  0  0  0  0  0  0
    1.2080   -2.6090   -0.5320 C   0  0  0  0  0  0  0  0  0  0  0  0
   -0.1222   -2.5277   -0.8952 C   0  0  0  0  0  0  0  0  0  0  0  0
   -0.9307   -1.5071   -0.3634 C   0  0  0  0  0  0  0  0  0  0  0  0
   -0.3747   -0.6105    0.5098 C   0  0  0  0  0  0  0  0  0  0  0  0
    0.9845   -0.7214    0.8591 C   0  0  0  0  0  0  0  0  0  0  0  0
   -1.4275    0.3499    0.9167 C   0  0  2  0  0  0  0  0  0  0  0  0
   -0.8932    1.7611    0.9946 C   0  0  0  0  0  0  0  0  0  0  0  0
   -2.0186   -0.1105    2.2153 C   0  0  0  0  0  0  0  0  0  0  0  0
   -3.4300   -0.4732    1.8709 C   0  0  0  0  0  0  0  0  0  0  0  0
   -3.7328    0.2138    0.6461 N   0  0  0  0  0  0  0  0  0  0  0  0
   -4.2608    1.5371    0.8140 C   0  0  0  0  0  0  0  0  0  0  0  0
   -5.6399    1.5331    1.4094 C   0  0  0  0  0  0  0  0  0  0  0  0
   -6.5606    0.7764    0.5187 C   0  0  0  0  0  0  0  0  0  0  0  0
   -6.7894   -0.5773    0.6306 C   0  0  0  0  0  0  0  0  0  0  0  0
   -7.6473   -1.2338   -0.2164 C   0  0  0  0  0  0  0  0  0  0  0  0
   -8.3140   -0.5508   -1.2164 C   0  0  0  0  0  0  0  0  0  0  0  0
   -8.0819    0.8030   -1.3243 C   0  0  0  0  0  0  0  0  0  0  0  0
   -7.2211    1.4632   -0.4749 C   0  0  0  0  0  0  0  0  0  0  0  0
   -2.5110    0.1938   -0.1036 C   0  0  2  0  0  0  0  0  0  0  0  0
   -2.3039   -1.1895   -0.5610 N   0  0  0  0  0  0  0  0  0  0  0  0
   -3.3252   -2.0672   -1.1145 C   0  0  0  0  0  0  0  0  0  0  0  0
    6.3463    0.3733   -1.3654 C   0  0  0  0  0  0  0  0  0  0  0  0
    7.4550    0.9951   -1.9366 C   0  0  0  0  0  0  0  0  0  0  0  0
   11.2955    0.2035   -1.3737 H   0  0  0  0  0  0  0  0  0  0  0  0
   11.1878    1.7091   -0.4221 H   0  0  0  0  0  0  0  0  0  0  0  0
   11.8821    1.8031   -2.0564 H   0  0  0  0  0  0  0  0  0  0  0  0
    9.8713   -0.0858    0.1130 H   0  0  0  0  0  0  0  0  0  0  0  0
    7.9083   -1.1908    1.1307 H   0  0  0  0  0  0  0  0  0  0  0  0
    5.7052   -1.6772    1.2535 H   0  0  0  0  0  0  0  0  0  0  0  0
    1.8667   -3.3850   -0.9221 H   0  0  0  0  0  0  0  0  0  0  0  0
   -0.5490   -3.2377   -1.5825 H   0  0  0  0  0  0  0  0  0  0  0  0
    1.3541    0.0197    1.5516 H   0  0  0  0  0  0  0  0  0  0  0  0
   -1.2016    2.3525    0.1317 H   0  0  0  0  0  0  0  0  0  0  0  0
    0.2147    1.6734    1.0311 H   0  0  0  0  0  0  0  0  0  0  0  0
   -1.1851    2.1989    1.9789 H   0  0  0  0  0  0  0  0  0  0  0  0
   -1.4997   -1.0285    2.5983 H   0  0  0  0  0  0  0  0  0  0  0  0
   -1.9434    0.6503    3.0082 H   0  0  0  0  0  0  0  0  0  0  0  0
   -3.4638   -1.5747    1.6304 H   0  0  0  0  0  0  0  0  0  0  0  0
   -4.1177   -0.2333    2.7050 H   0  0  0  0  0  0  0  0  0  0  0  0
   -4.3071    2.0795   -0.1435 H   0  0  0  0  0  0  0  0  0  0  0  0
   -3.6089    2.1371    1.5157 H   0  0  0  0  0  0  0  0  0  0  0  0
   -5.5954    1.1150    2.4247 H   0  0  0  0  0  0  0  0  0  0  0  0
   -5.9923    2.6032    1.4632 H   0  0  0  0  0  0  0  0  0  0  0  0
   -6.2712   -1.1319    1.4149 H   0  0  0  0  0  0  0  0  0  0  0  0
   -7.7998   -2.2930   -0.0972 H   0  0  0  0  0  0  0  0  0  0  0  0
   -9.0035   -1.0549   -1.9044 H   0  0  0  0  0  0  0  0  0  0  0  0
   -8.5808    1.4009   -2.0977 H   0  0  0  0  0  0  0  0  0  0  0  0
   -7.0482    2.5428   -0.5758 H   0  0  0  0  0  0  0  0  0  0  0  0
   -2.4645    0.9159   -0.9275 H   0  0  0  0  0  0  0  0  0  0  0  0
   -3.4738   -2.9122   -0.4420 H   0  0  0  0  0  0  0  0  0  0  0  0
   -3.0115   -2.4641   -2.1114 H   0  0  0  0  0  0  0  0  0  0  0  0
   -4.2422   -1.4615   -1.2975 H   0  0  0  0  0  0  0  0  0  0  0  0
    5.3683    0.5246   -1.8083 H   0  0  0  0  0  0  0  0  0  0  0  0
    7.3120    1.6190   -2.8156 H   0  0  0  0  0  0  0  0  0  0  0  0
  1  2  1  0
  2  3  1  0
  3  4  2  0
  4  5  1  0
  5  6  2  0
  6  7  1  0
  7  8  1  0
  8  9  2  0
  8 10  1  0
 10 11  1  0
 11 12  2  0
 12 13  1  0
 13 14  2  0
 14 15  1  0
 15 16  2  0
 15 17  1  0
 17 18  1  1
 17 19  1  0
 19 20  1  0
 20 21  1  0
 21 22  1  0
 22 23  1  0
 23 24  1  0
 24 25  2  0
 25 26  1  0
 26 27  2  0
 27 28  1  0
 28 29  2  0
 21 30  1  0
 30 31  1  0
 31 32  1  0
  6 33  1  0
 33 34  2  0
 34  3  1  0
 16 11  1  0
 30 17  1  0
 31 14  1  0
 29 24  1  0
  1 35  1  0
  1 36  1  0
  1 37  1  0
  4 38  1  0
  5 39  1  0
  7 40  1  0
 12 41  1  0
 13 42  1  0
 16 43  1  0
 18 44  1  0
 18 45  1  0
 18 46  1  0
 19 47  1  0
 19 48  1  0
 20 49  1  0
 20 50  1  0
 22 51  1  0
 22 52  1  0
 23 53  1  0
 23 54  1  0
 25 55  1  0
 26 56  1  0
 27 57  1  0
 28 58  1  0
 29 59  1  0
 30 60  1  6
 32 61  1  0
 32 62  1  0
 32 63  1  0
 33 64  1  0
 34 65  1  0
M  END
$$$$
