
     RDKit          3D

 43 44  0  0  0  0  0  0  0  0999 V2000
    1.0208    0.2574   -1.5515 C   0  0  2  0  0  0  0  0  0  0  0  0
    0.8725   -0.3753   -2.9442 C   0  0  0  0  0  0  0  0  0  0  0  0
    2.3885    0.3482   -1.2516 O   0  0  0  0  0  0  0  0  0  0  0  0
    0.2681   -0.5953   -0.5770 C   0  0  1  0  0  0  0  0  0  0  0  0
    0.2997   -0.0809    0.8086 C   0  0  0  0  0  0  0  0  0  0  0  0
    1.6599    0.0298    1.4004 C   0  0  0  0  0  0  0  0  0  0  0  0
    1.5671    0.5008    2.8505 C   0  0  0  0  0  0  0  0  0  0  0  0
    0.9036    1.8479    2.9400 C   0  0  0  0  0  0  0  0  0  0  0  0
    1.6653    2.8789    2.1386 C   0  0  0  0  0  0  0  0  0  0  0  0
    3.0778    3.0592    2.6085 C   0  0  0  0  0  0  0  0  0  0  0  0
   -1.1246   -0.7915   -1.0296 N   0  0  0  0  0  0  0  0  0  0  0  0
   -2.0195    0.1833   -0.7788 C   0  0  0  0  0  0  0  0  0  0  0  0
   -3.1789   -0.2569   -1.2911 N   0  0  0  0  0  0  0  0  0  0  0  0
   -3.0350   -1.4530   -1.8425 C   0  0  0  0  0  0  0  0  0  0  0  0
   -3.7889   -2.4018   -2.5014 C   0  0  0  0  0  0  0  0  0  0  0  0
   -5.1619   -2.0919   -2.6980 N   0  0  0  0  0  0  0  0  0  0  0  0
   -3.2536   -3.5568   -2.9328 N   0  0  0  0  0  0  0  0  0  0  0  0
   -1.9431   -3.8689   -2.7520 C   0  0  0  0  0  0  0  0  0  0  0  0
   -1.1593   -2.9692   -2.1097 N   0  0  0  0  0  0  0  0  0  0  0  0
   -1.6952   -1.8187   -1.6805 C   0  0  0  0  0  0  0  0  0  0  0  0
    0.6303    1.2880   -1.5982 H   0  0  0  0  0  0  0  0  0  0  0  0
    1.4520    0.2150   -3.6646 H   0  0  0  0  0  0  0  0  0  0  0  0
   -0.1896   -0.3299   -3.2576 H   0  0  0  0  0  0  0  0  0  0  0  0
    1.2806   -1.4071   -2.9011 H   0  0  0  0  0  0  0  0  0  0  0  0
    2.7664    0.9502   -1.9560 H   0  0  0  0  0  0  0  0  0  0  0  0
    0.6825   -1.6349   -0.5785 H   0  0  0  0  0  0  0  0  0  0  0  0
   -0.2934   -0.7567    1.4923 H   0  0  0  0  0  0  0  0  0  0  0  0
   -0.1812    0.9359    0.8241 H   0  0  0  0  0  0  0  0  0  0  0  0
    2.1900   -0.9407    1.3451 H   0  0  0  0  0  0  0  0  0  0  0  0
    2.2806    0.7922    0.8778 H   0  0  0  0  0  0  0  0  0  0  0  0
    2.5850    0.4650    3.2765 H   0  0  0  0  0  0  0  0  0  0  0  0
    0.8927   -0.2271    3.4022 H   0  0  0  0  0  0  0  0  0  0  0  0
   -0.1478    1.8072    2.5955 H   0  0  0  0  0  0  0  0  0  0  0  0
    0.9294    2.1935    4.0173 H   0  0  0  0  0  0  0  0  0  0  0  0
    1.5891    2.6796    1.0480 H   0  0  0  0  0  0  0  0  0  0  0  0
    1.1280    3.8641    2.2714 H   0  0  0  0  0  0  0  0  0  0  0  0
    3.6332    3.6019    1.8037 H   0  0  0  0  0  0  0  0  0  0  0  0
    3.6123    2.1257    2.8000 H   0  0  0  0  0  0  0  0  0  0  0  0
    3.1025    3.7189    3.5211 H   0  0  0  0  0  0  0  0  0  0  0  0
   -1.9492    1.1445   -0.2882 H   0  0  0  0  0  0  0  0  0  0  0  0
   -5.6534   -2.3851   -1.8117 H   0  0  0  0  0  0  0  0  0  0  0  0
   -6.0875   -2.1403   -2.2200 H   0  0  0  0  0  0  0  0  0  0  0  0
   -1.6154   -4.8058   -3.1290 H   0  0  0  0  0  0  0  0  0  0  0  0
  1  2  1  0
  1  3  1  0
  1  4  1  0
  4  5  1  0
  5  6  1  0
  6  7  1  0
  7  8  1  0
  8  9  1  0
  9 10  1  0
  4 11  1  0
 11 12  1  0
 12 13  2  0
 13 14  1  0
 14 15  2  0
 15 16  1  0
 15 17  1  0
 17 18  2  0
 18 19  1  0
 19 20  2  0
 20 11  1  0
 20 14  1  0
  1 21  1  6
  2 22  1  0
  2 23  1  0
  2 24  1  0
  3 25  1  0
  4 26  1  1
  5 27  1  0
  5 28  1  0
  6 29  1  0
  6 30  1  0
  7 31  1  0
  7 32  1  0
  8 33  1  0
  8 34  1  0
  9 35  1  0
  9 36  1  0
 10 37  1  0
 10 38  1  0
 10 39  1  0
 12 40  1  0
 16 41  1  0
 16 42  1  0
 18 43  1  0
M  END
$$$$
