
     RDKit          3D

 55 59  0  0  0  0  0  0  0  0999 V2000
    8.6792    1.8757   -0.1601 C   0  0  0  0  0  0  0  0  0  0  0  0
    7.5187    1.1327   -0.0236 C   0  0  0  0  0  0  0  0  0  0  0  0
    7.3340   -0.0539   -0.6893 C   0  0  0  0  0  0  0  0  0  0  0  0
    6.1088   -0.8097   -0.5281 C   0  0  0  0  0  0  0  0  0  0  0  0
    5.9983   -2.1658   -0.2999 C   0  0  0  0  0  0  0  0  0  0  0  0
    4.6998   -2.4438   -0.2119 N   0  0  0  0  0  0  0  0  0  0  0  0
    3.9646   -1.3599   -0.3678 N   0  0  0  0  0  0  0  0  0  0  0  0
    2.6440   -1.1193   -0.3664 C   0  0  0  0  0  0  0  0  0  0  0  0
    2.1192    0.1421   -0.5601 C   0  0  0  0  0  0  0  0  0  0  0  0
    0.6914    0.3950   -0.5587 C   0  0  0  0  0  0  0  0  0  0  0  0
    0.1702    1.6199   -0.1202 C   0  0  0  0  0  0  0  0  0  0  0  0
   -1.2118    1.7755   -0.1509 C   0  0  0  0  0  0  0  0  0  0  0  0
   -2.0537    0.7815   -0.5899 C   0  0  0  0  0  0  0  0  0  0  0  0
   -3.4097    0.8853   -0.6387 O   0  0  0  0  0  0  0  0  0  0  0  0
   -4.1820    2.0055   -0.2588 C   0  0  0  0  0  0  0  0  0  0  0  0
   -5.6552    1.7333   -0.4513 C   0  0  0  0  0  0  0  0  0  0  0  0
   -6.1601    0.6349    0.3115 N   0  0  0  0  0  0  0  0  0  0  0  0
   -6.1885    0.8640    1.7261 C   0  0  0  0  0  0  0  0  0  0  0  0
   -6.7615   -0.3655    2.3881 C   0  0  0  0  0  0  0  0  0  0  0  0
   -5.7956   -1.5074    2.2522 C   0  0  0  0  0  0  0  0  0  0  0  0
   -4.9670   -1.4185    0.9993 C   0  0  0  0  0  0  0  0  0  0  0  0
   -5.7107   -0.6623   -0.0743 C   0  0  0  0  0  0  0  0  0  0  0  0
   -1.4826   -0.4095   -1.0122 C   0  0  0  0  0  0  0  0  0  0  0  0
   -0.1339   -0.6266   -1.0076 C   0  0  0  0  0  0  0  0  0  0  0  0
    3.0051    1.1639   -0.7580 C   0  0  0  0  0  0  0  0  0  0  0  0
    4.3008    0.8850   -0.7523 N   0  0  0  0  0  0  0  0  0  0  0  0
    4.8146   -0.3427   -0.5639 C   0  0  0  0  0  0  0  0  0  0  0  0
    8.3489   -0.4856   -1.5045 C   0  0  0  0  0  0  0  0  0  0  0  0
    9.4872    0.2414   -1.6397 C   0  0  0  0  0  0  0  0  0  0  0  0
    9.6387    1.4032   -0.9724 N   0  0  0  0  0  0  0  0  0  0  0  0
    8.8589    2.7968    0.3380 H   0  0  0  0  0  0  0  0  0  0  0  0
    6.7647    1.5375    0.6370 H   0  0  0  0  0  0  0  0  0  0  0  0
    6.8205   -2.8588   -0.2121 H   0  0  0  0  0  0  0  0  0  0  0  0
    1.9473   -1.9370   -0.2087 H   0  0  0  0  0  0  0  0  0  0  0  0
    0.8333    2.4016    0.2251 H   0  0  0  0  0  0  0  0  0  0  0  0
   -1.6074    2.7219    0.1885 H   0  0  0  0  0  0  0  0  0  0  0  0
   -3.9215    2.8228   -0.9673 H   0  0  0  0  0  0  0  0  0  0  0  0
   -3.9433    2.3664    0.7510 H   0  0  0  0  0  0  0  0  0  0  0  0
   -5.8363    1.5800   -1.5185 H   0  0  0  0  0  0  0  0  0  0  0  0
   -6.1910    2.6439   -0.1330 H   0  0  0  0  0  0  0  0  0  0  0  0
   -5.2466    1.1613    2.1845 H   0  0  0  0  0  0  0  0  0  0  0  0
   -6.9242    1.6901    1.9100 H   0  0  0  0  0  0  0  0  0  0  0  0
   -7.7309   -0.6354    1.9249 H   0  0  0  0  0  0  0  0  0  0  0  0
   -6.9139   -0.1331    3.4441 H   0  0  0  0  0  0  0  0  0  0  0  0
   -5.1497   -1.5111    3.1746 H   0  0  0  0  0  0  0  0  0  0  0  0
   -6.3954   -2.4608    2.3053 H   0  0  0  0  0  0  0  0  0  0  0  0
   -4.8163   -2.4599    0.5855 H   0  0  0  0  0  0  0  0  0  0  0  0
   -3.9595   -1.0479    1.2125 H   0  0  0  0  0  0  0  0  0  0  0  0
   -5.1645   -0.6047   -1.0138 H   0  0  0  0  0  0  0  0  0  0  0  0
   -6.6298   -1.2836   -0.2941 H   0  0  0  0  0  0  0  0  0  0  0  0
   -2.1141   -1.2293   -1.3704 H   0  0  0  0  0  0  0  0  0  0  0  0
    0.2917   -1.5656   -1.3421 H   0  0  0  0  0  0  0  0  0  0  0  0
    2.6431    2.1547   -0.9113 H   0  0  0  0  0  0  0  0  0  0  0  0
    8.2463   -1.4212   -2.0523 H   0  0  0  0  0  0  0  0  0  0  0  0
   10.3271   -0.0521   -2.2741 H   0  0  0  0  0  0  0  0  0  0  0  0
  1  2  2  0
  2  3  1  0
  3  4  1  0
  4  5  1  0
  5  6  2  0
  6  7  1  0
  7  8  1  0
  8  9  2  0
  9 10  1  0
 10 11  2  0
 11 12  1  0
 12 13  2  0
 13 14  1  0
 14 15  1  0
 15 16  1  0
 16 17  1  0
 17 18  1  0
 18 19  1  0
 19 20  1  0
 20 21  1  0
 21 22  1  0
 13 23  1  0
 23 24  2  0
  9 25  1  0
 25 26  2  0
 26 27  1  0
  3 28  2  0
 28 29  1  0
 29 30  2  0
 30  1  1  0
 27  4  2  0
 27  7  1  0
 24 10  1  0
 22 17  1  0
  1 31  1  0
  2 32  1  0
  5 33  1  0
  8 34  1  0
 11 35  1  0
 12 36  1  0
 15 37  1  0
 15 38  1  0
 16 39  1  0
 16 40  1  0
 18 41  1  0
 18 42  1  0
 19 43  1  0
 19 44  1  0
 20 45  1  0
 20 46  1  0
 21 47  1  0
 21 48  1  0
 22 49  1  0
 22 50  1  0
 23 51  1  0
 24 52  1  0
 25 53  1  0
 28 54  1  0
 29 55  1  0
M  END
$$$$
