
     RDKit          3D

109112  0  0  0  0  0  0  0  0999 V2000
   -0.1048   -1.0855   -3.4208 C   0  0  0  0  0  0  0  0  0  0  0  0
   -0.6655   -1.7660   -2.1891 C   0  0  0  0  0  0  0  0  0  0  0  0
   -0.8046   -3.2570   -2.6050 C   0  0  0  0  0  0  0  0  0  0  0  0
    0.3867   -1.6597   -1.1243 C   0  0  0  0  0  0  0  0  0  0  0  0
    0.6824   -0.1918   -0.8197 C   0  0  2  0  0  0  0  0  0  0  0  0
    1.7501   -0.2020    0.2209 N   0  0  0  0  0  0  0  0  0  0  0  0
    3.0740   -0.4951   -0.1842 C   0  0  0  0  0  0  0  0  0  0  0  0
    3.2624   -0.7448   -1.3979 O   0  0  0  0  0  0  0  0  0  0  0  0
    4.1708   -0.5034    0.8213 C   0  0  2  0  0  0  0  0  0  0  0  0
    4.6194    0.9302    1.0431 C   0  0  0  0  0  0  0  0  0  0  0  0
    3.5060    1.8080    1.5094 C   0  0  0  0  0  0  0  0  0  0  0  0
    3.9576    3.2113    1.7465 C   0  0  0  0  0  0  0  0  0  0  0  0
    4.3837    3.5982    3.0099 C   0  0  0  0  0  0  0  0  0  0  0  0
    4.8181    4.8678    3.2609 C   0  0  0  0  0  0  0  0  0  0  0  0
    4.8379    5.7875    2.2500 C   0  0  0  0  0  0  0  0  0  0  0  0
    4.4240    5.4418    0.9874 C   0  0  0  0  0  0  0  0  0  0  0  0
    3.9830    4.1625    0.7256 C   0  0  0  0  0  0  0  0  0  0  0  0
    5.2713   -1.2417    0.1803 N   0  0  0  0  0  0  0  0  0  0  0  0
    6.0396   -2.1652    0.9201 C   0  0  0  0  0  0  0  0  0  0  0  0
    5.7354   -2.2891    2.1619 O   0  0  0  0  0  0  0  0  0  0  0  0
    7.1411   -2.9735    0.3751 C   0  0  0  0  0  0  0  0  0  0  0  0
    7.2828   -2.7879   -1.0550 N   0  0  0  0  0  0  0  0  0  0  0  0
    8.5361   -3.4179   -1.4787 C   0  0  0  0  0  0  0  0  0  0  0  0
    8.6288   -4.7670   -0.8233 C   0  0  0  0  0  0  0  0  0  0  0  0
    7.5650   -5.5653   -1.0982 O   0  0  0  0  0  0  0  0  0  0  0  0
    6.3337   -5.0277   -1.2408 C   0  0  0  0  0  0  0  0  0  0  0  0
    6.2589   -3.6098   -1.7447 C   0  0  0  0  0  0  0  0  0  0  0  0
   -0.4461    0.5835   -0.3584 C   0  0  0  0  0  0  0  0  0  0  0  0
   -0.4033    0.9059    0.9012 O   0  0  0  0  0  0  0  0  0  0  0  0
   -1.5886    1.0446   -1.0363 N   0  0  0  0  0  0  0  0  0  0  0  0
   -2.6471    1.7926   -0.3085 C   0  0  1  0  0  0  0  0  0  0  0  0
   -3.0321    2.9957   -1.0371 C   0  0  0  0  0  0  0  0  0  0  0  0
   -3.5255    2.8427   -2.4245 C   0  0  0  0  0  0  0  0  0  0  0  0
   -2.5213    2.9446   -3.4092 C   0  0  0  0  0  0  0  0  0  0  0  0
   -2.8442    2.8417   -4.7349 C   0  0  0  0  0  0  0  0  0  0  0  0
   -4.1674    2.6383   -5.1010 C   0  0  0  0  0  0  0  0  0  0  0  0
   -5.1578    2.5389   -4.1346 C   0  0  0  0  0  0  0  0  0  0  0  0
   -4.8326    2.6419   -2.7777 C   0  0  0  0  0  0  0  0  0  0  0  0
   -3.6785    0.8161    0.1177 C   0  0  0  0  0  0  0  0  0  0  0  0
   -3.8243   -0.2724   -0.5551 O   0  0  0  0  0  0  0  0  0  0  0  0
   -4.4735    1.0160    1.2243 N   0  0  0  0  0  0  0  0  0  0  0  0
   -5.4703   -0.0473    1.6728 C   0  0  1  0  0  0  0  0  0  0  0  0
   -4.6440   -0.9751    2.5093 C   0  0  0  0  0  0  0  0  0  0  0  0
   -5.1509   -2.1797    3.1102 C   0  0  0  0  0  0  0  0  0  0  0  0
   -6.2149   -2.2354    4.1205 C   0  0  0  0  0  0  0  0  0  0  0  0
   -5.4764   -3.2292    2.0024 C   0  0  0  0  0  0  0  0  0  0  0  0
   -6.6140    0.5982    2.2042 C   0  0  0  0  0  0  0  0  0  0  0  0
   -7.3724   -0.0636    2.9548 O   0  0  0  0  0  0  0  0  0  0  0  0
   -7.0873    1.9839    2.0158 C   0  0  1  0  0  0  0  0  0  0  0  0
   -6.6318    2.8569    0.8859 C   0  0  0  0  0  0  0  0  0  0  0  0
   -8.2924    2.4390    2.7655 C   0  0  0  0  0  0  0  0  0  0  0  0
   -7.0705    2.7511    3.3041 O   0  0  0  0  0  0  0  0  0  0  0  0
    0.8785   -1.5684   -3.7036 H   0  0  0  0  0  0  0  0  0  0  0  0
   -0.7555   -1.2697   -4.3226 H   0  0  0  0  0  0  0  0  0  0  0  0
    0.0369   -0.0156   -3.3494 H   0  0  0  0  0  0  0  0  0  0  0  0
   -1.6266   -1.3911   -1.8586 H   0  0  0  0  0  0  0  0  0  0  0  0
   -1.4733   -3.7850   -1.8888 H   0  0  0  0  0  0  0  0  0  0  0  0
   -1.1461   -3.2551   -3.6428 H   0  0  0  0  0  0  0  0  0  0  0  0
    0.2322   -3.6234   -2.5980 H   0  0  0  0  0  0  0  0  0  0  0  0
    0.1748   -2.2647   -0.2437 H   0  0  0  0  0  0  0  0  0  0  0  0
    1.3388   -2.0227   -1.6423 H   0  0  0  0  0  0  0  0  0  0  0  0
    1.1469    0.1963   -1.7135 H   0  0  0  0  0  0  0  0  0  0  0  0
    1.4579    0.0096    1.1876 H   0  0  0  0  0  0  0  0  0  0  0  0
    3.9185   -1.0336    1.7366 H   0  0  0  0  0  0  0  0  0  0  0  0
    5.4008    0.9646    1.8400 H   0  0  0  0  0  0  0  0  0  0  0  0
    5.1061    1.2795    0.1310 H   0  0  0  0  0  0  0  0  0  0  0  0
    2.9909    1.4910    2.4137 H   0  0  0  0  0  0  0  0  0  0  0  0
    2.7836    1.8943    0.6387 H   0  0  0  0  0  0  0  0  0  0  0  0
    4.3810    2.8838    3.8297 H   0  0  0  0  0  0  0  0  0  0  0  0
    5.1500    5.1644    4.2559 H   0  0  0  0  0  0  0  0  0  0  0  0
    5.1873    6.7878    2.4928 H   0  0  0  0  0  0  0  0  0  0  0  0
    4.4603    6.2057    0.2117 H   0  0  0  0  0  0  0  0  0  0  0  0
    3.6589    3.8825   -0.2618 H   0  0  0  0  0  0  0  0  0  0  0  0
    5.4836   -1.0659   -0.8225 H   0  0  0  0  0  0  0  0  0  0  0  0
    8.0956   -2.5710    0.8222 H   0  0  0  0  0  0  0  0  0  0  0  0
    7.0161   -4.0593    0.6508 H   0  0  0  0  0  0  0  0  0  0  0  0
    9.3841   -2.7742   -1.1285 H   0  0  0  0  0  0  0  0  0  0  0  0
    8.5149   -3.4853   -2.5911 H   0  0  0  0  0  0  0  0  0  0  0  0
    8.8607   -4.6066    0.2538 H   0  0  0  0  0  0  0  0  0  0  0  0
    9.5309   -5.2699   -1.2741 H   0  0  0  0  0  0  0  0  0  0  0  0
    5.6909   -5.1662   -0.3220 H   0  0  0  0  0  0  0  0  0  0  0  0
    5.7890   -5.6372   -2.0270 H   0  0  0  0  0  0  0  0  0  0  0  0
    6.5008   -3.5538   -2.8151 H   0  0  0  0  0  0  0  0  0  0  0  0
    5.2416   -3.2519   -1.5452 H   0  0  0  0  0  0  0  0  0  0  0  0
   -1.6688    0.8709   -2.0451 H   0  0  0  0  0  0  0  0  0  0  0  0
   -2.1428    2.1167    0.6514 H   0  0  0  0  0  0  0  0  0  0  0  0
   -3.8014    3.5840   -0.4464 H   0  0  0  0  0  0  0  0  0  0  0  0
   -2.1347    3.6947   -1.0384 H   0  0  0  0  0  0  0  0  0  0  0  0
   -1.4733    3.1075   -3.1295 H   0  0  0  0  0  0  0  0  0  0  0  0
   -2.0598    2.9155   -5.5169 H   0  0  0  0  0  0  0  0  0  0  0  0
   -4.4473    2.5577   -6.1587 H   0  0  0  0  0  0  0  0  0  0  0  0
   -6.2023    2.3820   -4.3961 H   0  0  0  0  0  0  0  0  0  0  0  0
   -5.5934    2.5532   -2.0214 H   0  0  0  0  0  0  0  0  0  0  0  0
   -4.4536    1.8306    1.8556 H   0  0  0  0  0  0  0  0  0  0  0  0
   -5.6729   -0.6175    0.7189 H   0  0  0  0  0  0  0  0  0  0  0  0
   -4.1522   -0.3578    3.3587 H   0  0  0  0  0  0  0  0  0  0  0  0
   -3.7729   -1.2691    1.8262 H   0  0  0  0  0  0  0  0  0  0  0  0
   -4.2168   -2.6937    3.5982 H   0  0  0  0  0  0  0  0  0  0  0  0
   -5.9145   -3.1065    4.8365 H   0  0  0  0  0  0  0  0  0  0  0  0
   -6.2364   -1.3930    4.8103 H   0  0  0  0  0  0  0  0  0  0  0  0
   -7.1843   -2.5182    3.6796 H   0  0  0  0  0  0  0  0  0  0  0  0
   -5.6312   -4.1820    2.5384 H   0  0  0  0  0  0  0  0  0  0  0  0
   -4.5561   -3.2405    1.3811 H   0  0  0  0  0  0  0  0  0  0  0  0
   -6.3588   -2.8631    1.4804 H   0  0  0  0  0  0  0  0  0  0  0  0
   -5.6976    3.3793    0.9723 H   0  0  0  0  0  0  0  0  0  0  0  0
   -7.4174    3.6677    0.7756 H   0  0  0  0  0  0  0  0  0  0  0  0
   -6.7243    2.2860   -0.0720 H   0  0  0  0  0  0  0  0  0  0  0  0
   -8.9233    3.2215    2.3196 H   0  0  0  0  0  0  0  0  0  0  0  0
   -8.8810    1.6994    3.3656 H   0  0  0  0  0  0  0  0  0  0  0  0
  1  2  1  0
  2  3  1  0
  2  4  1  0
  4  5  1  0
  5  6  1  0
  6  7  1  0
  7  8  2  0
  7  9  1  0
  9 10  1  0
 10 11  1  0
 11 12  1  0
 12 13  2  0
 13 14  1  0
 14 15  2  0
 15 16  1  0
 16 17  2  0
  9 18  1  0
 18 19  1  0
 19 20  2  0
 19 21  1  0
 21 22  1  0
 22 23  1  0
 23 24  1  0
 24 25  1  0
 25 26  1  0
 26 27  1  0
  5 28  1  0
 28 29  2  0
 28 30  1  0
 30 31  1  0
 31 32  1  0
 32 33  1  0
 33 34  2  0
 34 35  1  0
 35 36  2  0
 36 37  1  0
 37 38  2  0
 31 39  1  0
 39 40  2  0
 39 41  1  0
 41 42  1  0
 42 43  1  0
 43 44  1  0
 44 45  1  0
 44 46  1  0
 42 47  1  0
 47 48  2  0
 47 49  1  0
 49 50  1  6
 49 51  1  0
 51 52  1  0
 17 12  1  0
 27 22  1  0
 38 33  1  0
 52 49  1  0
  1 53  1  0
  1 54  1  0
  1 55  1  0
  2 56  1  0
  3 57  1  0
  3 58  1  0
  3 59  1  0
  4 60  1  0
  4 61  1  0
  5 62  1  6
  6 63  1  0
  9 64  1  1
 10 65  1  0
 10 66  1  0
 11 67  1  0
 11 68  1  0
 13 69  1  0
 14 70  1  0
 15 71  1  0
 16 72  1  0
 17 73  1  0
 18 74  1  0
 21 75  1  0
 21 76  1  0
 23 77  1  0
 23 78  1  0
 24 79  1  0
 24 80  1  0
 26 81  1  0
 26 82  1  0
 27 83  1  0
 27 84  1  0
 30 85  1  0
 31 86  1  1
 32 87  1  0
 32 88  1  0
 34 89  1  0
 35 90  1  0
 36 91  1  0
 37 92  1  0
 38 93  1  0
 41 94  1  0
 42 95  1  6
 43 96  1  0
 43 97  1  0
 44 98  1  0
 45 99  1  0
 45100  1  0
 45101  1  0
 46102  1  0
 46103  1  0
 46104  1  0
 50105  1  0
 50106  1  0
 50107  1  0
 51108  1  0
 51109  1  0
M  END
$$$$
