
     RDKit          3D

 92 98  0  0  0  0  0  0  0  0999 V2000
   -5.2036    4.2769    1.1018 C   0  0  0  0  0  0  0  0  0  0  0  0
   -3.7491    4.5792    1.1744 C   0  0  0  0  0  0  0  0  0  0  0  0
   -2.8097    3.5662    1.3707 C   0  0  0  0  0  0  0  0  0  0  0  0
   -1.4664    3.8585    1.4242 C   0  0  0  0  0  0  0  0  0  0  0  0
   -0.4839    2.7857    1.6454 C   0  0  0  0  0  0  0  0  0  0  0  0
   -0.0415    2.1331    0.3013 C   0  0  1  0  0  0  0  0  0  0  0  0
    0.9002    1.1006    0.5682 N   0  0  0  0  0  0  0  0  0  0  0  0
    2.3036    1.4239    0.7048 C   0  0  0  0  0  0  0  0  0  0  0  0
    2.6475    2.6596    0.5823 O   0  0  0  0  0  0  0  0  0  0  0  0
    3.2518    0.4280    0.9630 N   0  0  0  0  0  0  0  0  0  0  0  0
    4.6370    0.8116    1.1639 C   0  0  0  0  0  0  0  0  0  0  0  0
    5.5221    0.0826    0.1910 C   0  0  0  0  0  0  0  0  0  0  0  0
    5.1805   -1.3725    0.1576 C   0  0  0  0  0  0  0  0  0  0  0  0
    6.0667   -2.1161   -0.7357 N   0  0  0  0  0  0  0  0  0  0  0  0
    6.8588   -3.1396   -0.1539 C   0  0  0  0  0  0  0  0  0  0  0  0
    7.8391   -3.7375   -1.0581 C   0  0  0  0  0  0  0  0  0  0  0  0
    8.7167   -4.6785   -0.5213 C   0  0  0  0  0  0  0  0  0  0  0  0
    9.6336   -5.2693   -1.3466 C   0  0  0  0  0  0  0  0  0  0  0  0
    9.7309   -4.9772   -2.6857 C   0  0  0  0  0  0  0  0  0  0  0  0
    8.8604   -4.0513   -3.1906 C   0  0  0  0  0  0  0  0  0  0  0  0
    8.9018   -3.7067   -4.5137 F   0  0  0  0  0  0  0  0  0  0  0  0
    7.9045   -3.4216   -2.3800 C   0  0  0  0  0  0  0  0  0  0  0  0
    7.0461   -2.4362   -2.9684 N   0  0  0  0  0  0  0  0  0  0  0  0
    6.1280   -1.7974   -2.1143 C   0  0  0  0  0  0  0  0  0  0  0  0
    5.3223   -0.9125   -2.5479 O   0  0  0  0  0  0  0  0  0  0  0  0
    3.7146   -1.5765   -0.1863 C   0  0  0  0  0  0  0  0  0  0  0  0
    2.9675   -0.9734    1.0255 C   0  0  0  0  0  0  0  0  0  0  0  0
   -1.2731    1.7675   -0.3646 C   0  0  0  0  0  0  0  0  0  0  0  0
   -1.8073    2.7559   -1.0688 O   0  0  0  0  0  0  0  0  0  0  0  0
   -2.0126    0.5743   -0.4050 N   0  0  0  0  0  0  0  0  0  0  0  0
   -3.1676    0.5416   -1.3284 C   0  0  0  0  0  0  0  0  0  0  0  0
   -4.3751   -0.0988   -0.7335 C   0  0  0  0  0  0  0  0  0  0  0  0
   -3.9945   -1.4681   -0.2093 C   0  0  0  0  0  0  0  0  0  0  0  0
   -5.1302   -2.1712    0.3157 N   0  0  0  0  0  0  0  0  0  0  0  0
   -5.8018   -1.5442    1.4064 C   0  0  0  0  0  0  0  0  0  0  0  0
   -7.0076   -2.4169    1.7758 C   0  0  0  0  0  0  0  0  0  0  0  0
   -8.0619   -2.3548    0.6903 C   0  0  0  0  0  0  0  0  0  0  0  0
   -7.3952   -1.9189   -0.6168 C   0  0  0  0  0  0  0  0  0  0  0  0
   -6.0349   -2.6203   -0.7247 C   0  0  0  0  0  0  0  0  0  0  0  0
   -2.9950   -1.2763    0.8666 C   0  0  0  0  0  0  0  0  0  0  0  0
   -1.7361   -0.5311    0.4494 C   0  0  0  0  0  0  0  0  0  0  0  0
   -1.0955    5.1728    1.2779 C   0  0  0  0  0  0  0  0  0  0  0  0
   -2.0197    6.1855    1.0832 C   0  0  0  0  0  0  0  0  0  0  0  0
   -1.8778    7.5422    0.9202 C   0  0  0  0  0  0  0  0  0  0  0  0
   -3.1105    8.0407    0.7735 N   0  0  0  0  0  0  0  0  0  0  0  0
   -3.9944    7.0613    0.8384 N   0  0  0  0  0  0  0  0  0  0  0  0
   -3.3475    5.8756    1.0331 C   0  0  0  0  0  0  0  0  0  0  0  0
   -5.7591    5.1520    1.4807 H   0  0  0  0  0  0  0  0  0  0  0  0
   -5.5264    4.1147    0.0436 H   0  0  0  0  0  0  0  0  0  0  0  0
   -5.4812    3.3971    1.7179 H   0  0  0  0  0  0  0  0  0  0  0  0
   -3.1916    2.5567    1.4757 H   0  0  0  0  0  0  0  0  0  0  0  0
    0.4027    3.2036    2.1625 H   0  0  0  0  0  0  0  0  0  0  0  0
   -0.9202    2.0244    2.3131 H   0  0  0  0  0  0  0  0  0  0  0  0
    0.5100    2.9242   -0.2667 H   0  0  0  0  0  0  0  0  0  0  0  0
    0.6457    0.1271    0.6570 H   0  0  0  0  0  0  0  0  0  0  0  0
    4.9438    0.5284    2.2089 H   0  0  0  0  0  0  0  0  0  0  0  0
    4.7635    1.9235    1.0742 H   0  0  0  0  0  0  0  0  0  0  0  0
    6.5608    0.1589    0.6018 H   0  0  0  0  0  0  0  0  0  0  0  0
    5.4194    0.6008   -0.7829 H   0  0  0  0  0  0  0  0  0  0  0  0
    5.3031   -1.7886    1.1720 H   0  0  0  0  0  0  0  0  0  0  0  0
    6.1816   -3.9955    0.1745 H   0  0  0  0  0  0  0  0  0  0  0  0
    7.3467   -2.7903    0.8076 H   0  0  0  0  0  0  0  0  0  0  0  0
    8.6796   -4.9502    0.5466 H   0  0  0  0  0  0  0  0  0  0  0  0
   10.3199   -6.0129   -0.8985 H   0  0  0  0  0  0  0  0  0  0  0  0
   10.4857   -5.4742   -3.3173 H   0  0  0  0  0  0  0  0  0  0  0  0
    7.1187   -2.2259   -3.9825 H   0  0  0  0  0  0  0  0  0  0  0  0
    3.4523   -2.6160   -0.3613 H   0  0  0  0  0  0  0  0  0  0  0  0
    3.4749   -0.9057   -1.0372 H   0  0  0  0  0  0  0  0  0  0  0  0
    1.9338   -1.2811    1.0468 H   0  0  0  0  0  0  0  0  0  0  0  0
    3.5137   -1.4327    1.9034 H   0  0  0  0  0  0  0  0  0  0  0  0
   -3.3918    1.5554   -1.7238 H   0  0  0  0  0  0  0  0  0  0  0  0
   -2.8341   -0.0733   -2.1901 H   0  0  0  0  0  0  0  0  0  0  0  0
   -4.7959    0.5139    0.0921 H   0  0  0  0  0  0  0  0  0  0  0  0
   -5.1173   -0.2107   -1.5581 H   0  0  0  0  0  0  0  0  0  0  0  0
   -3.6247   -2.0644   -1.0693 H   0  0  0  0  0  0  0  0  0  0  0  0
   -5.1365   -1.6317    2.3203 H   0  0  0  0  0  0  0  0  0  0  0  0
   -6.0989   -0.5163    1.2105 H   0  0  0  0  0  0  0  0  0  0  0  0
   -6.6418   -3.4559    1.8727 H   0  0  0  0  0  0  0  0  0  0  0  0
   -7.4154   -2.1163    2.7625 H   0  0  0  0  0  0  0  0  0  0  0  0
   -8.8059   -1.5778    1.0009 H   0  0  0  0  0  0  0  0  0  0  0  0
   -8.5868   -3.3251    0.5745 H   0  0  0  0  0  0  0  0  0  0  0  0
   -8.0114   -2.3095   -1.4506 H   0  0  0  0  0  0  0  0  0  0  0  0
   -7.2557   -0.8253   -0.6223 H   0  0  0  0  0  0  0  0  0  0  0  0
   -5.6432   -2.5082   -1.7394 H   0  0  0  0  0  0  0  0  0  0  0  0
   -6.2393   -3.6933   -0.5475 H   0  0  0  0  0  0  0  0  0  0  0  0
   -2.7462   -2.2462    1.3249 H   0  0  0  0  0  0  0  0  0  0  0  0
   -3.5067   -0.6731    1.6762 H   0  0  0  0  0  0  0  0  0  0  0  0
   -1.3539   -0.1293    1.4317 H   0  0  0  0  0  0  0  0  0  0  0  0
   -1.0915   -1.2612   -0.0395 H   0  0  0  0  0  0  0  0  0  0  0  0
   -0.0615    5.4212    1.3168 H   0  0  0  0  0  0  0  0  0  0  0  0
   -0.9467    8.0765    0.9160 H   0  0  0  0  0  0  0  0  0  0  0  0
   -5.0128    7.1558    0.7573 H   0  0  0  0  0  0  0  0  0  0  0  0
  1  2  1  0
  2  3  2  0
  3  4  1  0
  4  5  1  0
  5  6  1  0
  6  7  1  0
  7  8  1  0
  8  9  2  0
  8 10  1  0
 10 11  1  0
 11 12  1  0
 12 13  1  0
 13 14  1  0
 14 15  1  0
 15 16  1  0
 16 17  2  0
 17 18  1  0
 18 19  2  0
 19 20  1  0
 20 21  1  0
 20 22  2  0
 22 23  1  0
 23 24  1  0
 24 25  2  0
 13 26  1  0
 26 27  1  0
  6 28  1  0
 28 29  2  0
 28 30  1  0
 30 31  1  0
 31 32  1  0
 32 33  1  0
 33 34  1  0
 34 35  1  0
 35 36  1  0
 36 37  1  0
 37 38  1  0
 38 39  1  0
 33 40  1  0
 40 41  1  0
  4 42  2  0
 42 43  1  0
 43 44  1  0
 44 45  2  0
 45 46  1  0
 46 47  1  0
 47  2  1  0
 27 10  1  0
 41 30  1  0
 47 43  2  0
 24 14  1  0
 39 34  1  0
 22 16  1  0
  1 48  1  0
  1 49  1  0
  1 50  1  0
  3 51  1  0
  5 52  1  0
  5 53  1  0
  6 54  1  6
  7 55  1  0
 11 56  1  0
 11 57  1  0
 12 58  1  0
 12 59  1  0
 13 60  1  0
 15 61  1  0
 15 62  1  0
 17 63  1  0
 18 64  1  0
 19 65  1  0
 23 66  1  0
 26 67  1  0
 26 68  1  0
 27 69  1  0
 27 70  1  0
 31 71  1  0
 31 72  1  0
 32 73  1  0
 32 74  1  0
 33 75  1  0
 35 76  1  0
 35 77  1  0
 36 78  1  0
 36 79  1  0
 37 80  1  0
 37 81  1  0
 38 82  1  0
 38 83  1  0
 39 84  1  0
 39 85  1  0
 40 86  1  0
 40 87  1  0
 41 88  1  0
 41 89  1  0
 42 90  1  0
 44 91  1  0
 46 92  1  0
M  END
$$$$
