
     RDKit          3D

 48 52  0  0  0  0  0  0  0  0999 V2000
   -8.2809    0.9225   -0.8846 C   0  0  0  0  0  0  0  0  0  0  0  0
   -7.1302    0.0106   -0.5445 C   0  0  0  0  0  0  0  0  0  0  0  0
   -5.9909    0.3335    0.0874 N   0  0  0  0  0  0  0  0  0  0  0  0
   -5.1997   -0.7462    0.2117 C   0  0  0  0  0  0  0  0  0  0  0  0
   -3.8801   -0.8841    0.8228 C   0  0  0  0  0  0  0  0  0  0  0  0
   -3.5204   -1.7616    1.7866 N   0  0  0  0  0  0  0  0  0  0  0  0
   -2.2431   -1.5804    2.0783 N   0  0  0  0  0  0  0  0  0  0  0  0
   -1.7501   -0.5907    1.3174 C   0  0  0  0  0  0  0  0  0  0  0  0
   -2.7727   -0.1756    0.5519 N   0  0  0  0  0  0  0  0  0  0  0  0
   -2.5916    0.9089   -0.4109 C   0  0  0  0  0  0  0  0  0  0  0  0
   -1.6185    1.8657    0.2458 C   0  0  0  0  0  0  0  0  0  0  0  0
   -0.3483    1.1196    0.3588 N   0  0  0  0  0  0  0  0  0  0  0  0
    0.7271    1.5765   -0.4024 C   0  0  0  0  0  0  0  0  0  0  0  0
    0.5797    2.6001   -1.1563 O   0  0  0  0  0  0  0  0  0  0  0  0
    2.0689    0.9996   -0.4459 C   0  0  0  0  0  0  0  0  0  0  0  0
    2.9645    1.4359    0.4932 C   0  0  0  0  0  0  0  0  0  0  0  0
    4.2469    0.9383    0.5061 C   0  0  0  0  0  0  0  0  0  0  0  0
    4.6431    0.0029   -0.4174 C   0  0  0  0  0  0  0  0  0  0  0  0
    5.9994   -0.5271   -0.4094 C   0  0  0  0  0  0  0  0  0  0  0  0
    7.0732   -0.2658    0.4020 C   0  0  0  0  0  0  0  0  0  0  0  0
    8.2244   -0.8884    0.2031 C   0  0  0  0  0  0  0  0  0  0  0  0
    8.3448   -1.8047   -0.8250 C   0  0  0  0  0  0  0  0  0  0  0  0
    6.6555   -1.7455   -1.5445 S   0  0  0  0  0  0  0  0  0  0  0  0
    3.7311   -0.4229   -1.3520 C   0  0  0  0  0  0  0  0  0  0  0  0
    2.4556    0.0713   -1.3658 C   0  0  0  0  0  0  0  0  0  0  0  0
   -0.3715    0.0072    1.2466 C   0  0  2  0  0  0  0  0  0  0  0  0
    0.5491   -1.1209    0.9301 C   0  0  0  0  0  0  0  0  0  0  0  0
   -5.9077   -1.7766   -0.3814 C   0  0  0  0  0  0  0  0  0  0  0  0
   -7.0404   -1.2720   -0.8102 O   0  0  0  0  0  0  0  0  0  0  0  0
   -8.1425    1.3748   -1.8754 H   0  0  0  0  0  0  0  0  0  0  0  0
   -9.2026    0.3385   -0.7588 H   0  0  0  0  0  0  0  0  0  0  0  0
   -8.2886    1.7157   -0.1057 H   0  0  0  0  0  0  0  0  0  0  0  0
   -2.0795    0.4856   -1.3034 H   0  0  0  0  0  0  0  0  0  0  0  0
   -3.5506    1.4061   -0.6541 H   0  0  0  0  0  0  0  0  0  0  0  0
   -1.9978    2.1462    1.2481 H   0  0  0  0  0  0  0  0  0  0  0  0
   -1.4932    2.7915   -0.3490 H   0  0  0  0  0  0  0  0  0  0  0  0
    2.6881    2.1748    1.2408 H   0  0  0  0  0  0  0  0  0  0  0  0
    4.9817    1.2787    1.2556 H   0  0  0  0  0  0  0  0  0  0  0  0
    6.9151    0.4936    1.2260 H   0  0  0  0  0  0  0  0  0  0  0  0
    9.1322   -0.6839    0.8703 H   0  0  0  0  0  0  0  0  0  0  0  0
    9.1422   -2.4265   -1.1891 H   0  0  0  0  0  0  0  0  0  0  0  0
    4.0299   -1.1712   -2.1022 H   0  0  0  0  0  0  0  0  0  0  0  0
    1.7601   -0.2726   -2.1026 H   0  0  0  0  0  0  0  0  0  0  0  0
   -0.1164    0.3558    2.2891 H   0  0  0  0  0  0  0  0  0  0  0  0
    0.1895   -1.9965    1.5560 H   0  0  0  0  0  0  0  0  0  0  0  0
    0.3603   -1.4570   -0.1103 H   0  0  0  0  0  0  0  0  0  0  0  0
    1.5925   -0.9945    1.2068 H   0  0  0  0  0  0  0  0  0  0  0  0
   -5.5377   -2.7892   -0.4462 H   0  0  0  0  0  0  0  0  0  0  0  0
  1  2  1  0
  2  3  2  0
  3  4  1  0
  4  5  1  0
  5  6  2  0
  6  7  1  0
  7  8  2  0
  8  9  1  0
  9 10  1  0
 10 11  1  0
 11 12  1  0
 12 13  1  0
 13 14  2  0
 13 15  1  0
 15 16  2  0
 16 17  1  0
 17 18  2  0
 18 19  1  0
 19 20  2  0
 20 21  1  0
 21 22  2  0
 22 23  1  0
 18 24  1  0
 24 25  2  0
 12 26  1  0
 26 27  1  0
  4 28  2  0
 28 29  1  0
 29  2  1  0
  9  5  1  0
 25 15  1  0
 26  8  1  0
 23 19  1  0
  1 30  1  0
  1 31  1  0
  1 32  1  0
 10 33  1  0
 10 34  1  0
 11 35  1  0
 11 36  1  0
 16 37  1  0
 17 38  1  0
 20 39  1  0
 21 40  1  0
 22 41  1  0
 24 42  1  0
 25 43  1  0
 26 44  1  1
 27 45  1  0
 27 46  1  0
 27 47  1  0
 28 48  1  0
M  END
$$$$
