
     RDKit          3D

 63 65  0  0  0  0  0  0  0  0999 V2000
   -8.2528    0.3843    1.8668 C   0  0  0  0  0  0  0  0  0  0  0  0
   -6.8432    0.5465    1.4510 C   0  0  0  0  0  0  0  0  0  0  0  0
   -6.5133    0.6825    0.1232 C   0  0  0  0  0  0  0  0  0  0  0  0
   -5.2072    0.8350   -0.2876 C   0  0  0  0  0  0  0  0  0  0  0  0
   -4.2066    0.8486    0.6937 C   0  0  0  0  0  0  0  0  0  0  0  0
   -2.9069    0.9996    0.2912 O   0  0  0  0  0  0  0  0  0  0  0  0
   -2.1199   -0.0920   -0.0444 C   0  0  0  0  0  0  0  0  0  0  0  0
   -1.9121   -1.0939    1.0564 C   0  0  0  0  0  0  0  0  0  0  0  0
   -2.7871   -0.8409   -1.1861 C   0  0  0  0  0  0  0  0  0  0  0  0
   -0.7464    0.3217   -0.5777 C   0  0  0  0  0  0  0  0  0  0  0  0
   -0.0611    1.0552    0.4040 O   0  0  0  0  0  0  0  0  0  0  0  0
    0.9793    1.6728   -0.3309 C   0  0  0  0  0  0  0  0  0  0  0  0
    1.9435    0.5779   -0.7076 C   0  0  0  0  0  0  0  0  0  0  0  0
    2.8922    0.4479    0.4936 C   0  0  0  0  0  0  0  0  0  0  0  0
    3.9231   -0.5597    0.3318 C   0  0  0  0  0  0  0  0  0  0  0  0
    5.1976   -0.2691    0.3476 C   0  0  0  0  0  0  0  0  0  0  0  0
    5.7177    1.0706    0.5290 C   0  0  0  0  0  0  0  0  0  0  0  0
    6.6156    1.1146    1.7433 C   0  0  0  0  0  0  0  0  0  0  0  0
    6.0109    0.7566    3.0090 C   0  0  0  0  0  0  0  0  0  0  0  0
    6.7161    0.7917    4.0563 O   0  0  0  0  0  0  0  0  0  0  0  0
    4.6942    0.3786    3.1101 O   0  0  0  0  0  0  0  0  0  0  0  0
    1.2999   -0.7007   -1.0879 C   0  0  0  0  0  0  0  0  0  0  0  0
    1.6047   -1.1397   -2.4783 C   0  0  0  0  0  0  0  0  0  0  0  0
    2.6203   -2.0147   -2.8146 C   0  0  0  0  0  0  0  0  0  0  0  0
    2.8638   -2.3882   -4.1178 C   0  0  0  0  0  0  0  0  0  0  0  0
    2.0866   -1.8890   -5.1336 C   0  0  0  0  0  0  0  0  0  0  0  0
    1.1005   -1.0387   -4.8030 N   0  0  0  0  0  0  0  0  0  0  0  0
    0.8550   -0.6682   -3.5353 C   0  0  0  0  0  0  0  0  0  0  0  0
   -0.0562   -0.8116   -0.8405 O   0  0  0  0  0  0  0  0  0  0  0  0
   -4.5615    0.7109    2.0261 C   0  0  0  0  0  0  0  0  0  0  0  0
   -3.5846    0.7349    3.0478 C   0  0  0  0  0  0  0  0  0  0  0  0
   -2.7602    0.7368    3.9240 N   0  0  0  0  0  0  0  0  0  0  0  0
   -5.8850    0.5571    2.4273 C   0  0  0  0  0  0  0  0  0  0  0  0
   -8.3206   -0.2278    2.7930 H   0  0  0  0  0  0  0  0  0  0  0  0
   -8.7319    1.3635    2.0837 H   0  0  0  0  0  0  0  0  0  0  0  0
   -8.8833   -0.1117    1.0984 H   0  0  0  0  0  0  0  0  0  0  0  0
   -7.2847    0.6745   -0.6572 H   0  0  0  0  0  0  0  0  0  0  0  0
   -4.9135    0.9459   -1.3238 H   0  0  0  0  0  0  0  0  0  0  0  0
   -1.2348   -1.9073    0.6689 H   0  0  0  0  0  0  0  0  0  0  0  0
   -1.3297   -0.6058    1.8740 H   0  0  0  0  0  0  0  0  0  0  0  0
   -2.8437   -1.5263    1.4369 H   0  0  0  0  0  0  0  0  0  0  0  0
   -3.8093   -1.1470   -0.9446 H   0  0  0  0  0  0  0  0  0  0  0  0
   -2.1899   -1.7587   -1.3394 H   0  0  0  0  0  0  0  0  0  0  0  0
   -2.7389   -0.2447   -2.1246 H   0  0  0  0  0  0  0  0  0  0  0  0
   -0.8776    1.0178   -1.4315 H   0  0  0  0  0  0  0  0  0  0  0  0
    0.4900    2.1557   -1.1923 H   0  0  0  0  0  0  0  0  0  0  0  0
    1.4442    2.3936    0.3813 H   0  0  0  0  0  0  0  0  0  0  0  0
    2.5461    0.9431   -1.5640 H   0  0  0  0  0  0  0  0  0  0  0  0
    3.1677    1.4147    0.8978 H   0  0  0  0  0  0  0  0  0  0  0  0
    2.1829    0.0259    1.2918 H   0  0  0  0  0  0  0  0  0  0  0  0
    3.6553   -1.6254    0.1959 H   0  0  0  0  0  0  0  0  0  0  0  0
    5.9731   -1.0636    0.2177 H   0  0  0  0  0  0  0  0  0  0  0  0
    5.0206    1.9105    0.4848 H   0  0  0  0  0  0  0  0  0  0  0  0
    6.4325    1.2820   -0.3424 H   0  0  0  0  0  0  0  0  0  0  0  0
    7.5032    0.4263    1.6034 H   0  0  0  0  0  0  0  0  0  0  0  0
    7.0908    2.1226    1.8472 H   0  0  0  0  0  0  0  0  0  0  0  0
    4.1422    0.5058    3.9480 H   0  0  0  0  0  0  0  0  0  0  0  0
    1.7541   -1.5112   -0.4398 H   0  0  0  0  0  0  0  0  0  0  0  0
    3.2215   -2.4003   -1.9939 H   0  0  0  0  0  0  0  0  0  0  0  0
    3.6530   -3.0682   -4.3669 H   0  0  0  0  0  0  0  0  0  0  0  0
    2.2599   -2.1728   -6.1852 H   0  0  0  0  0  0  0  0  0  0  0  0
    0.0380    0.0206   -3.3781 H   0  0  0  0  0  0  0  0  0  0  0  0
   -6.1342    0.4511    3.4738 H   0  0  0  0  0  0  0  0  0  0  0  0
  1  2  1  0
  2  3  2  0
  3  4  1  0
  4  5  2  0
  5  6  1  0
  6  7  1  0
  7  8  1  0
  7  9  1  0
  7 10  1  0
 10 11  1  0
 11 12  1  0
 12 13  1  0
 13 14  1  0
 14 15  1  0
 15 16  2  0
 16 17  1  0
 17 18  1  0
 18 19  1  0
 19 20  2  0
 19 21  1  0
 13 22  1  0
 22 23  1  0
 23 24  2  0
 24 25  1  0
 25 26  2  0
 26 27  1  0
 27 28  2  0
 22 29  1  0
  5 30  1  0
 30 31  1  0
 31 32  3  0
 30 33  2  0
 33  2  1  0
 29 10  1  0
 28 23  1  0
  1 34  1  0
  1 35  1  0
  1 36  1  0
  3 37  1  0
  4 38  1  0
  8 39  1  0
  8 40  1  0
  8 41  1  0
  9 42  1  0
  9 43  1  0
  9 44  1  0
 10 45  1  0
 12 46  1  0
 12 47  1  0
 13 48  1  0
 14 49  1  0
 14 50  1  0
 15 51  1  0
 16 52  1  0
 17 53  1  0
 17 54  1  0
 18 55  1  0
 18 56  1  0
 21 57  1  0
 22 58  1  0
 24 59  1  0
 25 60  1  0
 26 61  1  0
 28 62  1  0
 33 63  1  0
M  END
$$$$
