
     RDKit          3D

 56 60  0  0  0  0  0  0  0  0999 V2000
    2.5722   -3.0078    1.5165 C   0  0  0  0  0  0  0  0  0  0  0  0
    1.5576   -2.6093    0.6013 O   0  0  0  0  0  0  0  0  0  0  0  0
    1.6768   -1.4354   -0.1272 C   0  0  0  0  0  0  0  0  0  0  0  0
    2.7731   -0.6214    0.0093 C   0  0  0  0  0  0  0  0  0  0  0  0
    2.8464    0.5299   -0.7327 C   0  0  0  0  0  0  0  0  0  0  0  0
    4.0085    1.4134   -0.6021 C   0  0  0  0  0  0  0  0  0  0  0  0
    4.6610    1.9655   -1.6708 C   0  0  0  0  0  0  0  0  0  0  0  0
    5.7479    2.7900   -1.5102 C   0  0  0  0  0  0  0  0  0  0  0  0
    6.2145    3.0851   -0.2457 C   0  0  0  0  0  0  0  0  0  0  0  0
    7.2779    3.8904   -0.0629 F   0  0  0  0  0  0  0  0  0  0  0  0
    5.5691    2.5373    0.8467 C   0  0  0  0  0  0  0  0  0  0  0  0
    6.0958    2.8744    2.1935 C   0  0  0  0  0  0  0  0  0  0  0  0
    4.4810    1.7134    0.6562 C   0  0  0  0  0  0  0  0  0  0  0  0
    1.8533    0.9006   -1.6152 C   0  0  0  0  0  0  0  0  0  0  0  0
    1.9166    2.0356   -2.3524 F   0  0  0  0  0  0  0  0  0  0  0  0
    0.7888    0.0666   -1.7179 C   0  0  0  0  0  0  0  0  0  0  0  0
    0.6574   -1.1166   -0.9908 C   0  0  0  0  0  0  0  0  0  0  0  0
   -0.4946   -1.9475   -1.1511 N   0  0  0  0  0  0  0  0  0  0  0  0
   -0.4861   -3.0096   -1.9709 C   0  0  0  0  0  0  0  0  0  0  0  0
    0.5884   -3.2674   -2.6151 O   0  0  0  0  0  0  0  0  0  0  0  0
   -1.5663   -3.8186   -2.1441 C   0  0  0  0  0  0  0  0  0  0  0  0
   -2.7342   -3.5670   -1.4659 C   0  0  0  0  0  0  0  0  0  0  0  0
   -2.7662   -2.4826   -0.6192 C   0  0  0  0  0  0  0  0  0  0  0  0
   -3.9066   -2.1713    0.0933 C   0  0  0  0  0  0  0  0  0  0  0  0
   -3.9403   -1.0801    0.9459 C   0  0  0  0  0  0  0  0  0  0  0  0
   -5.4126   -0.7707    1.8196 S   0  0  0  0  0  6  0  0  0  0  0  0
   -5.9884   -2.1310    2.1777 O   0  0  0  0  0  0  0  0  0  0  0  0
   -5.1511   -0.0433    3.1104 O   0  0  0  0  0  0  0  0  0  0  0  0
   -6.5109    0.0541    0.8288 N   0  0  0  0  0  0  0  0  0  0  0  0
   -6.3582    1.3199    0.2440 C   0  0  0  0  0  0  0  0  0  0  0  0
   -5.3022    2.1753    0.3596 C   0  0  0  0  0  0  0  0  0  0  0  0
   -5.6071    3.3149   -0.3899 C   0  0  0  0  0  0  0  0  0  0  0  0
   -6.7876    3.1142   -0.9089 O   0  0  0  0  0  0  0  0  0  0  0  0
   -7.2553    1.9662   -0.5628 N   0  0  0  0  0  0  0  0  0  0  0  0
   -2.8112   -0.3277    1.0558 C   0  0  0  0  0  0  0  0  0  0  0  0
   -1.6494   -0.6148    0.3528 C   0  0  0  0  0  0  0  0  0  0  0  0
   -1.6274   -1.6925   -0.4848 C   0  0  0  0  0  0  0  0  0  0  0  0
    3.5072   -3.2550    0.9626 H   0  0  0  0  0  0  0  0  0  0  0  0
    2.8378   -2.1580    2.2058 H   0  0  0  0  0  0  0  0  0  0  0  0
    2.2025   -3.8463    2.1319 H   0  0  0  0  0  0  0  0  0  0  0  0
    3.5765   -0.8960    0.7060 H   0  0  0  0  0  0  0  0  0  0  0  0
    4.3241    1.7569   -2.6741 H   0  0  0  0  0  0  0  0  0  0  0  0
    6.2196    3.1942   -2.3867 H   0  0  0  0  0  0  0  0  0  0  0  0
    5.7385    2.1616    2.9605 H   0  0  0  0  0  0  0  0  0  0  0  0
    5.8507    3.9227    2.4584 H   0  0  0  0  0  0  0  0  0  0  0  0
    7.2121    2.7471    2.1637 H   0  0  0  0  0  0  0  0  0  0  0  0
    4.0020    1.3038    1.5263 H   0  0  0  0  0  0  0  0  0  0  0  0
   -0.0530    0.2756   -2.3939 H   0  0  0  0  0  0  0  0  0  0  0  0
   -1.5413   -4.6661   -2.8058 H   0  0  0  0  0  0  0  0  0  0  0  0
   -3.6303   -4.1622   -1.5513 H   0  0  0  0  0  0  0  0  0  0  0  0
   -4.7828   -2.7930   -0.0208 H   0  0  0  0  0  0  0  0  0  0  0  0
   -7.4374   -0.4322    0.6122 H   0  0  0  0  0  0  0  0  0  0  0  0
   -4.3788    2.0763    0.9026 H   0  0  0  0  0  0  0  0  0  0  0  0
   -5.0254    4.1994   -0.5398 H   0  0  0  0  0  0  0  0  0  0  0  0
   -2.7930    0.5205    1.7089 H   0  0  0  0  0  0  0  0  0  0  0  0
   -0.7594    0.0183    0.4698 H   0  0  0  0  0  0  0  0  0  0  0  0
  1  2  1  0
  2  3  1  0
  3  4  2  0
  4  5  1  0
  5  6  1  0
  6  7  2  0
  7  8  1  0
  8  9  2  0
  9 10  1  0
  9 11  1  0
 11 12  1  0
 11 13  2  0
  5 14  2  0
 14 15  1  0
 14 16  1  0
 16 17  2  0
 17 18  1  0
 18 19  1  0
 19 20  2  0
 19 21  1  0
 21 22  2  0
 22 23  1  0
 23 24  2  0
 24 25  1  0
 25 26  1  0
 26 27  2  0
 26 28  2  0
 26 29  1  0
 29 30  1  0
 30 31  1  0
 31 32  2  0
 32 33  1  0
 33 34  1  0
 25 35  2  0
 35 36  1  0
 36 37  2  0
 17  3  1  0
 37 18  1  0
 13  6  1  0
 37 23  1  0
 34 30  2  0
  1 38  1  0
  1 39  1  0
  1 40  1  0
  4 41  1  0
  7 42  1  0
  8 43  1  0
 12 44  1  0
 12 45  1  0
 12 46  1  0
 13 47  1  0
 16 48  1  0
 21 49  1  0
 22 50  1  0
 24 51  1  0
 29 52  1  0
 31 53  1  0
 32 54  1  0
 35 55  1  0
 36 56  1  0
M  END
$$$$
