
     RDKit          3D

 65 69  0  0  0  0  0  0  0  0999 V2000
   -5.3440   -0.6754    2.6017 C   0  0  0  0  0  0  0  0  0  0  0  0
   -6.5577   -0.2665    1.8589 C   0  0  0  0  0  0  0  0  0  0  0  0
   -7.7868   -0.3571    2.5112 C   0  0  0  0  0  0  0  0  0  0  0  0
   -8.9323    0.0098    1.8609 C   0  0  0  0  0  0  0  0  0  0  0  0
   -8.8587    0.4631    0.5731 C   0  0  0  0  0  0  0  0  0  0  0  0
   -7.6229    0.5545   -0.0834 C   0  0  0  0  0  0  0  0  0  0  0  0
   -7.5525    1.0455   -1.4743 C   0  0  0  0  0  0  0  0  0  0  0  0
   -6.4654    0.1882    0.5613 C   0  0  0  0  0  0  0  0  0  0  0  0
   -5.1634    0.2638   -0.0675 C   0  0  0  0  0  0  0  0  0  0  0  0
   -4.3738    1.4042   -0.0026 C   0  0  0  0  0  0  0  0  0  0  0  0
   -3.1343    1.4580   -0.6017 C   0  0  0  0  0  0  0  0  0  0  0  0
   -2.3087    2.6916   -0.5168 C   0  0  0  0  0  0  0  0  0  0  0  0
   -2.6131    0.3861   -1.2954 C   0  0  0  0  0  0  0  0  0  0  0  0
   -1.4041    0.4194   -1.8831 N   0  0  0  0  0  0  0  0  0  0  0  0
   -0.9046   -0.6325   -2.5535 C   0  0  0  0  0  0  0  0  0  0  0  0
    0.3685   -0.5280   -3.1381 N   0  0  0  0  0  0  0  0  0  0  0  0
    1.5101   -0.8613   -2.3627 C   0  0  0  0  0  0  0  0  0  0  0  0
    1.3388   -1.2481   -1.0339 C   0  0  0  0  0  0  0  0  0  0  0  0
    2.4162   -1.5659   -0.2923 C   0  0  0  0  0  0  0  0  0  0  0  0
    3.7211   -1.5182   -0.8251 C   0  0  0  0  0  0  0  0  0  0  0  0
    4.7394   -1.8604    0.0058 O   0  0  0  0  0  0  0  0  0  0  0  0
    6.0915   -1.9234   -0.0990 C   0  0  0  0  0  0  0  0  0  0  0  0
    6.7830   -0.6244   -0.3432 C   0  0  0  0  0  0  0  0  0  0  0  0
    6.5127    0.3220    0.7232 N   0  0  0  0  0  0  0  0  0  0  0  0
    7.1506    1.6096    0.4294 C   0  0  0  0  0  0  0  0  0  0  0  0
    8.5516    1.4713    1.0135 C   0  0  0  0  0  0  0  0  0  0  0  0
    8.5365    0.2494    1.8739 C   0  0  0  0  0  0  0  0  0  0  0  0
    7.0671   -0.0701    2.0002 C   0  0  0  0  0  0  0  0  0  0  0  0
    3.8945   -1.1394   -2.1319 C   0  0  0  0  0  0  0  0  0  0  0  0
    2.7848   -0.8124   -2.8928 C   0  0  0  0  0  0  0  0  0  0  0  0
   -1.6668   -1.7417   -2.6199 N   0  0  0  0  0  0  0  0  0  0  0  0
   -2.8606   -1.8011   -2.0503 N   0  0  0  0  0  0  0  0  0  0  0  0
   -3.3843   -0.7491   -1.3676 C   0  0  0  0  0  0  0  0  0  0  0  0
   -4.6192   -0.8072   -0.7727 C   0  0  0  0  0  0  0  0  0  0  0  0
   -5.0465    0.0646    3.3717 H   0  0  0  0  0  0  0  0  0  0  0  0
   -5.5816   -1.6219    3.1500 H   0  0  0  0  0  0  0  0  0  0  0  0
   -4.5003   -0.8922    1.8859 H   0  0  0  0  0  0  0  0  0  0  0  0
   -7.8555   -0.7127    3.5269 H   0  0  0  0  0  0  0  0  0  0  0  0
   -9.9207   -0.0465    2.3394 H   0  0  0  0  0  0  0  0  0  0  0  0
   -9.7862    0.7523    0.0682 H   0  0  0  0  0  0  0  0  0  0  0  0
   -7.6488    0.1792   -2.1887 H   0  0  0  0  0  0  0  0  0  0  0  0
   -8.4489    1.6841   -1.6780 H   0  0  0  0  0  0  0  0  0  0  0  0
   -6.6754    1.6697   -1.6740 H   0  0  0  0  0  0  0  0  0  0  0  0
   -4.7867    2.2451    0.5431 H   0  0  0  0  0  0  0  0  0  0  0  0
   -1.2601    2.4660   -0.1674 H   0  0  0  0  0  0  0  0  0  0  0  0
   -2.7500    3.3960    0.2028 H   0  0  0  0  0  0  0  0  0  0  0  0
   -2.2137    3.0944   -1.5375 H   0  0  0  0  0  0  0  0  0  0  0  0
    0.5167   -0.2174   -4.1135 H   0  0  0  0  0  0  0  0  0  0  0  0
    0.3522   -1.2944   -0.5973 H   0  0  0  0  0  0  0  0  0  0  0  0
    2.3088   -1.8700    0.7453 H   0  0  0  0  0  0  0  0  0  0  0  0
    6.3483   -2.6543   -0.9355 H   0  0  0  0  0  0  0  0  0  0  0  0
    6.5041   -2.4038    0.8262 H   0  0  0  0  0  0  0  0  0  0  0  0
    7.9003   -0.7780   -0.3117 H   0  0  0  0  0  0  0  0  0  0  0  0
    6.4942   -0.1923   -1.3021 H   0  0  0  0  0  0  0  0  0  0  0  0
    6.5842    2.4345    0.8818 H   0  0  0  0  0  0  0  0  0  0  0  0
    7.2097    1.7038   -0.6594 H   0  0  0  0  0  0  0  0  0  0  0  0
    8.8058    2.3552    1.6581 H   0  0  0  0  0  0  0  0  0  0  0  0
    9.2911    1.3571    0.1834 H   0  0  0  0  0  0  0  0  0  0  0  0
    9.0030    0.4213    2.8656 H   0  0  0  0  0  0  0  0  0  0  0  0
    9.0758   -0.5647    1.3442 H   0  0  0  0  0  0  0  0  0  0  0  0
    6.9016   -1.1149    2.2547 H   0  0  0  0  0  0  0  0  0  0  0  0
    6.6396    0.5269    2.8358 H   0  0  0  0  0  0  0  0  0  0  0  0
    4.8827   -1.1097   -2.5792 H   0  0  0  0  0  0  0  0  0  0  0  0
    2.9409   -0.5146   -3.9234 H   0  0  0  0  0  0  0  0  0  0  0  0
   -5.1976   -1.7171   -0.8508 H   0  0  0  0  0  0  0  0  0  0  0  0
  1  2  1  0
  2  3  2  0
  3  4  1  0
  4  5  2  0
  5  6  1  0
  6  7  1  0
  6  8  2  0
  8  9  1  0
  9 10  2  0
 10 11  1  0
 11 12  1  0
 11 13  2  0
 13 14  1  0
 14 15  2  0
 15 16  1  0
 16 17  1  0
 17 18  2  0
 18 19  1  0
 19 20  2  0
 20 21  1  0
 21 22  1  0
 22 23  1  0
 23 24  1  0
 24 25  1  0
 25 26  1  0
 26 27  1  0
 27 28  1  0
 20 29  1  0
 29 30  2  0
 15 31  1  0
 31 32  2  0
 32 33  1  0
 33 34  2  0
  8  2  1  0
 34  9  1  0
 33 13  1  0
 30 17  1  0
 28 24  1  0
  1 35  1  0
  1 36  1  0
  1 37  1  0
  3 38  1  0
  4 39  1  0
  5 40  1  0
  7 41  1  0
  7 42  1  0
  7 43  1  0
 10 44  1  0
 12 45  1  0
 12 46  1  0
 12 47  1  0
 16 48  1  0
 18 49  1  0
 19 50  1  0
 22 51  1  0
 22 52  1  0
 23 53  1  0
 23 54  1  0
 25 55  1  0
 25 56  1  0
 26 57  1  0
 26 58  1  0
 27 59  1  0
 27 60  1  0
 28 61  1  0
 28 62  1  0
 29 63  1  0
 30 64  1  0
 34 65  1  0
M  END
$$$$
