
     RDKit          3D

 66 67  0  0  0  0  0  0  0  0999 V2000
    3.8099    3.9962    0.8355 C   0  0  0  0  0  0  0  0  0  0  0  0
    2.7586    2.9784    1.2771 C   0  0  0  0  0  0  0  0  0  0  0  0
    1.4088    3.4048    0.7926 C   0  0  0  0  0  0  0  0  0  0  0  0
    0.2597    2.5344    1.0700 C   0  0  0  0  0  0  0  0  0  0  0  0
    0.1324    1.2617    0.3628 C   0  0  2  0  0  0  0  0  0  0  0  0
   -1.0821    0.5587    0.8863 N   0  0  0  0  0  0  0  0  0  0  0  0
   -2.2246    0.4211    0.0974 C   0  0  0  0  0  0  0  0  0  0  0  0
   -2.2565    0.8818   -1.0597 O   0  0  0  0  0  0  0  0  0  0  0  0
   -3.3812   -0.2219    0.5305 O   0  0  0  0  0  0  0  0  0  0  0  0
   -4.5140   -0.3324   -0.3127 C   0  0  1  0  0  0  0  0  0  0  0  0
   -4.7591   -1.7939   -0.5580 C   0  0  0  0  0  0  0  0  0  0  0  0
   -6.1591   -2.0775   -1.0320 C   0  0  1  0  0  0  0  0  0  0  0  0
   -6.2948   -3.5781   -1.1835 C   0  0  0  0  0  0  0  0  0  0  0  0
   -7.2126   -1.5640   -0.1009 C   0  0  0  0  0  0  0  0  0  0  0  0
   -6.6686   -0.6293    0.9511 C   0  0  1  0  0  0  0  0  0  0  0  0
   -6.1246   -1.3771    2.1479 C   0  0  0  0  0  0  0  0  0  0  0  0
   -5.6601    0.3411    0.3929 C   0  0  0  0  0  0  0  0  0  0  0  0
    1.2189    0.3188    0.2160 C   0  0  0  0  0  0  0  0  0  0  0  0
    1.2120   -0.7307    0.9523 O   0  0  0  0  0  0  0  0  0  0  0  0
    2.3423    0.4231   -0.7087 C   0  0  0  0  0  0  0  0  0  0  0  0
    2.5024    1.3698   -1.5205 O   0  0  0  0  0  0  0  0  0  0  0  0
    3.3722   -0.5733   -0.7590 N   0  0  0  0  0  0  0  0  0  0  0  0
    4.5006   -0.5030   -1.6613 C   0  0  2  0  0  0  0  0  0  0  0  0
    4.3962   -1.7016   -2.5925 C   0  0  0  0  0  0  0  0  0  0  0  0
    5.7926   -0.5197   -0.9398 C   0  0  0  0  0  0  0  0  0  0  0  0
    6.0434   -1.4003    0.0901 C   0  0  0  0  0  0  0  0  0  0  0  0
    7.2618   -1.4038    0.7600 C   0  0  0  0  0  0  0  0  0  0  0  0
    8.2498   -0.5220    0.4064 C   0  0  0  0  0  0  0  0  0  0  0  0
    8.0202    0.3657   -0.6191 C   0  0  0  0  0  0  0  0  0  0  0  0
    6.7913    0.3568   -1.2822 C   0  0  0  0  0  0  0  0  0  0  0  0
    4.8295    3.6332    1.0723 H   0  0  0  0  0  0  0  0  0  0  0  0
    3.6542    4.1259   -0.2667 H   0  0  0  0  0  0  0  0  0  0  0  0
    3.5847    4.9422    1.3613 H   0  0  0  0  0  0  0  0  0  0  0  0
    2.7133    3.1547    2.4224 H   0  0  0  0  0  0  0  0  0  0  0  0
    3.0780    1.9736    1.1822 H   0  0  0  0  0  0  0  0  0  0  0  0
    1.2018    4.4832    1.1513 H   0  0  0  0  0  0  0  0  0  0  0  0
    1.5493    3.6042   -0.3220 H   0  0  0  0  0  0  0  0  0  0  0  0
    0.2377    2.4030    2.2051 H   0  0  0  0  0  0  0  0  0  0  0  0
   -0.6910    3.1290    0.8113 H   0  0  0  0  0  0  0  0  0  0  0  0
   -0.1885    1.5319   -0.7044 H   0  0  0  0  0  0  0  0  0  0  0  0
   -1.0385    0.1797    1.8556 H   0  0  0  0  0  0  0  0  0  0  0  0
   -4.2798    0.1560   -1.2745 H   0  0  0  0  0  0  0  0  0  0  0  0
   -4.0730   -2.0962   -1.4002 H   0  0  0  0  0  0  0  0  0  0  0  0
   -4.4711   -2.4413    0.2950 H   0  0  0  0  0  0  0  0  0  0  0  0
   -6.2878   -1.6334   -2.0572 H   0  0  0  0  0  0  0  0  0  0  0  0
   -7.1889   -3.9296   -0.6199 H   0  0  0  0  0  0  0  0  0  0  0  0
   -6.4524   -3.8740   -2.2408 H   0  0  0  0  0  0  0  0  0  0  0  0
   -5.3830   -4.1121   -0.8487 H   0  0  0  0  0  0  0  0  0  0  0  0
   -8.0070   -1.0282   -0.6740 H   0  0  0  0  0  0  0  0  0  0  0  0
   -7.7291   -2.3910    0.4313 H   0  0  0  0  0  0  0  0  0  0  0  0
   -7.5308   -0.0238    1.3137 H   0  0  0  0  0  0  0  0  0  0  0  0
   -6.1439   -2.4765    2.0147 H   0  0  0  0  0  0  0  0  0  0  0  0
   -6.7407   -1.1888    3.0748 H   0  0  0  0  0  0  0  0  0  0  0  0
   -5.1135   -0.9770    2.3525 H   0  0  0  0  0  0  0  0  0  0  0  0
   -5.3064    0.9563    1.2603 H   0  0  0  0  0  0  0  0  0  0  0  0
   -6.1771    1.0264   -0.3052 H   0  0  0  0  0  0  0  0  0  0  0  0
    3.2943   -1.3835   -0.1099 H   0  0  0  0  0  0  0  0  0  0  0  0
    4.4648    0.3985   -2.3066 H   0  0  0  0  0  0  0  0  0  0  0  0
    3.4459   -1.5563   -3.1738 H   0  0  0  0  0  0  0  0  0  0  0  0
    4.2923   -2.5915   -1.9729 H   0  0  0  0  0  0  0  0  0  0  0  0
    5.2621   -1.7301   -3.2838 H   0  0  0  0  0  0  0  0  0  0  0  0
    5.3125   -2.1238    0.4236 H   0  0  0  0  0  0  0  0  0  0  0  0
    7.4716   -2.0908    1.5712 H   0  0  0  0  0  0  0  0  0  0  0  0
    9.2182   -0.4812    0.8942 H   0  0  0  0  0  0  0  0  0  0  0  0
    8.7826    1.0703   -0.9158 H   0  0  0  0  0  0  0  0  0  0  0  0
    6.6736    1.0772   -2.0768 H   0  0  0  0  0  0  0  0  0  0  0  0
  1  2  1  0
  2  3  1  0
  3  4  1  0
  4  5  1  0
  5  6  1  0
  6  7  1  0
  7  8  2  0
  7  9  1  0
  9 10  1  0
 10 11  1  0
 11 12  1  0
 12 13  1  0
 12 14  1  0
 14 15  1  0
 15 16  1  0
 15 17  1  0
  5 18  1  0
 18 19  2  0
 18 20  1  0
 20 21  2  0
 20 22  1  0
 22 23  1  0
 23 24  1  0
 23 25  1  0
 25 26  2  0
 26 27  1  0
 27 28  2  0
 28 29  1  0
 29 30  2  0
 17 10  1  0
 30 25  1  0
  1 31  1  0
  1 32  1  0
  1 33  1  0
  2 34  1  0
  2 35  1  0
  3 36  1  0
  3 37  1  0
  4 38  1  0
  4 39  1  0
  5 40  1  6
  6 41  1  0
 10 42  1  6
 11 43  1  0
 11 44  1  0
 12 45  1  6
 13 46  1  0
 13 47  1  0
 13 48  1  0
 14 49  1  0
 14 50  1  0
 15 51  1  1
 16 52  1  0
 16 53  1  0
 16 54  1  0
 17 55  1  0
 17 56  1  0
 22 57  1  0
 23 58  1  6
 24 59  1  0
 24 60  1  0
 24 61  1  0
 26 62  1  0
 27 63  1  0
 28 64  1  0
 29 65  1  0
 30 66  1  0
M  END
$$$$
