
     RDKit          3D

 44 47  0  0  0  0  0  0  0  0999 V2000
   -3.2810    0.9221    0.7117 C   0  0  1  0  0  0  0  0  0  0  0  0
   -3.8103    0.8092    2.1289 C   0  0  0  0  0  0  0  0  0  0  0  0
   -5.1552    1.3533    2.2325 N   0  0  0  0  0  0  0  0  0  0  0  0
   -1.9533    0.3913    0.5806 N   0  0  0  0  0  0  0  0  0  0  0  0
   -0.8590    1.2435    0.2429 C   0  0  0  0  0  0  0  0  0  0  0  0
   -0.9387    2.4871    0.0350 O   0  0  0  0  0  0  0  0  0  0  0  0
    0.4436    0.6314    0.1306 C   0  0  0  0  0  0  0  0  0  0  0  0
    0.8649   -0.6548    0.2881 C   0  0  0  0  0  0  0  0  0  0  0  0
    2.1787   -0.9620    0.1197 C   0  0  0  0  0  0  0  0  0  0  0  0
    3.0514    0.0698   -0.2124 C   0  0  0  0  0  0  0  0  0  0  0  0
    1.9084    1.4676   -0.2672 S   0  0  0  0  0  0  0  0  0  0  0  0
    4.4754    0.2711   -0.4902 C   0  0  0  0  0  0  0  0  0  0  0  0
    5.4696   -0.6672   -0.4919 C   0  0  0  0  0  0  0  0  0  0  0  0
    5.3727   -1.9963   -0.2384 C   0  0  0  0  0  0  0  0  0  0  0  0
    6.6165   -2.5504   -0.3510 C   0  0  0  0  0  0  0  0  0  0  0  0
    7.4789   -1.5743   -0.6716 N   0  0  0  0  0  0  0  0  0  0  0  0
    6.7856   -0.4326   -0.7573 C   0  0  0  0  0  0  0  0  0  0  0  0
    7.1295    0.8273   -1.0403 N   0  0  0  0  0  0  0  0  0  0  0  0
    6.2217    1.8066   -1.0607 C   0  0  0  0  0  0  0  0  0  0  0  0
    4.9111    1.5489   -0.7921 C   0  0  0  0  0  0  0  0  0  0  0  0
   -4.2120    0.3230   -0.2677 C   0  0  0  0  0  0  0  0  0  0  0  0
   -5.1164    1.0636   -1.0096 C   0  0  0  0  0  0  0  0  0  0  0  0
   -5.9743    0.4560   -1.9208 C   0  0  0  0  0  0  0  0  0  0  0  0
   -5.9101   -0.9172   -2.0772 C   0  0  0  0  0  0  0  0  0  0  0  0
   -5.0344   -1.7077   -1.3704 C   0  0  0  0  0  0  0  0  0  0  0  0
   -4.2056   -1.0471   -0.4784 C   0  0  0  0  0  0  0  0  0  0  0  0
   -3.2025    2.0279    0.5014 H   0  0  0  0  0  0  0  0  0  0  0  0
   -3.2034    1.4077    2.8376 H   0  0  0  0  0  0  0  0  0  0  0  0
   -3.8053   -0.2361    2.4738 H   0  0  0  0  0  0  0  0  0  0  0  0
   -5.9072    0.6821    2.0587 H   0  0  0  0  0  0  0  0  0  0  0  0
   -5.2249    2.1912    1.6371 H   0  0  0  0  0  0  0  0  0  0  0  0
   -1.8016   -0.6305    0.7368 H   0  0  0  0  0  0  0  0  0  0  0  0
    0.1082   -1.3824    0.5463 H   0  0  0  0  0  0  0  0  0  0  0  0
    2.5539   -1.9512    0.2321 H   0  0  0  0  0  0  0  0  0  0  0  0
    4.5860   -2.6661    0.0147 H   0  0  0  0  0  0  0  0  0  0  0  0
    6.9594   -3.5640   -0.2286 H   0  0  0  0  0  0  0  0  0  0  0  0
    8.5211   -1.6605   -0.8333 H   0  0  0  0  0  0  0  0  0  0  0  0
    6.5676    2.8001   -1.2966 H   0  0  0  0  0  0  0  0  0  0  0  0
    4.2635    2.4343   -0.8398 H   0  0  0  0  0  0  0  0  0  0  0  0
   -5.1196    2.1217   -0.8452 H   0  0  0  0  0  0  0  0  0  0  0  0
   -6.6762    1.0607   -2.4919 H   0  0  0  0  0  0  0  0  0  0  0  0
   -6.5936   -1.3711   -2.7984 H   0  0  0  0  0  0  0  0  0  0  0  0
   -4.9766   -2.7880   -1.4864 H   0  0  0  0  0  0  0  0  0  0  0  0
   -3.5065   -1.6382    0.0922 H   0  0  0  0  0  0  0  0  0  0  0  0
  1  2  1  0
  2  3  1  0
  1  4  1  0
  4  5  1  0
  5  6  2  0
  5  7  1  0
  7  8  2  0
  8  9  1  0
  9 10  2  0
 10 11  1  0
 10 12  1  0
 12 13  2  0
 13 14  1  0
 14 15  2  0
 15 16  1  0
 16 17  1  0
 17 18  2  0
 18 19  1  0
 19 20  2  0
  1 21  1  0
 21 22  2  0
 22 23  1  0
 23 24  2  0
 24 25  1  0
 25 26  2  0
 11  7  1  0
 20 12  1  0
 26 21  1  0
 17 13  1  0
  1 27  1  6
  2 28  1  0
  2 29  1  0
  3 30  1  0
  3 31  1  0
  4 32  1  0
  8 33  1  0
  9 34  1  0
 14 35  1  0
 15 36  1  0
 16 37  1  0
 19 38  1  0
 20 39  1  0
 22 40  1  0
 23 41  1  0
 24 42  1  0
 25 43  1  0
 26 44  1  0
M  END
$$$$
