
     RDKit          3D

 51 53  0  0  0  0  0  0  0  0999 V2000
    9.3913    1.3611   -0.2884 C   0  0  0  0  0  0  0  0  0  0  0  0
    8.8426    0.0827   -0.3846 O   0  0  0  0  0  0  0  0  0  0  0  0
    7.4947   -0.2002   -0.3407 C   0  0  0  0  0  0  0  0  0  0  0  0
    6.5881    0.8244   -0.1920 C   0  0  0  0  0  0  0  0  0  0  0  0
    5.2177    0.5537   -0.1457 C   0  0  0  0  0  0  0  0  0  0  0  0
    4.7078   -0.7069   -0.2422 C   0  0  0  0  0  0  0  0  0  0  0  0
    3.3479   -1.0831   -0.2068 N   0  0  0  0  0  0  0  0  0  0  0  0
    2.2475   -0.2163   -0.0631 C   0  0  0  0  0  0  0  0  0  0  0  0
    2.4103    0.9993    0.0477 O   0  0  0  0  0  0  0  0  0  0  0  0
    0.9379   -0.7125   -0.0422 O   0  0  0  0  0  0  0  0  0  0  0  0
   -0.1743    0.1528    0.1021 C   0  0  2  0  0  0  0  0  0  0  0  0
   -0.9326   -0.2523    1.3339 C   0  0  0  0  0  0  0  0  0  0  0  0
   -2.4106   -0.3354    0.9423 C   0  0  0  0  0  0  0  0  0  0  0  0
   -2.4531    0.4141   -0.3577 C   0  0  2  0  0  0  0  0  0  0  0  0
   -3.6798    0.1546   -1.1492 C   0  0  2  0  0  0  0  0  0  0  0  0
   -3.6048    0.9150   -2.4209 N   0  0  0  0  0  0  0  0  0  0  0  0
   -4.8623    0.6530   -0.3784 C   0  0  0  0  0  0  0  0  0  0  0  0
   -5.2026    1.8604   -0.6703 O   0  0  0  0  0  0  0  0  0  0  0  0
   -5.5863   -0.0700    0.5861 N   0  0  0  0  0  0  0  0  0  0  0  0
   -6.7052    0.4745    1.3294 C   0  0  0  0  0  0  0  0  0  0  0  0
   -7.9098   -0.4184    1.0407 C   0  0  0  0  0  0  0  0  0  0  0  0
   -7.0739   -2.0563    1.0754 S   0  0  0  0  0  0  0  0  0  0  0  0
   -5.3463   -1.4406    0.9475 C   0  0  0  0  0  0  0  0  0  0  0  0
   -1.1504    0.0229   -1.0239 C   0  0  0  0  0  0  0  0  0  0  0  0
    5.6482   -1.7265   -0.3922 C   0  0  0  0  0  0  0  0  0  0  0  0
    7.0069   -1.4823   -0.4405 C   0  0  0  0  0  0  0  0  0  0  0  0
   10.3881    1.3302   -0.8018 H   0  0  0  0  0  0  0  0  0  0  0  0
    9.6157    1.6642    0.7573 H   0  0  0  0  0  0  0  0  0  0  0  0
    8.8206    2.1564   -0.7720 H   0  0  0  0  0  0  0  0  0  0  0  0
    6.9149    1.8543   -0.1084 H   0  0  0  0  0  0  0  0  0  0  0  0
    4.5690    1.3951   -0.0287 H   0  0  0  0  0  0  0  0  0  0  0  0
    3.0742   -2.1144   -0.2936 H   0  0  0  0  0  0  0  0  0  0  0  0
    0.1615    1.2118    0.1884 H   0  0  0  0  0  0  0  0  0  0  0  0
   -0.8163    0.4855    2.1609 H   0  0  0  0  0  0  0  0  0  0  0  0
   -0.5570   -1.2333    1.6796 H   0  0  0  0  0  0  0  0  0  0  0  0
   -3.0326    0.1118    1.7063 H   0  0  0  0  0  0  0  0  0  0  0  0
   -2.5710   -1.4370    0.7728 H   0  0  0  0  0  0  0  0  0  0  0  0
   -2.3940    1.5219   -0.1936 H   0  0  0  0  0  0  0  0  0  0  0  0
   -3.8147   -0.8947   -1.4031 H   0  0  0  0  0  0  0  0  0  0  0  0
   -3.9076    1.8861   -2.2883 H   0  0  0  0  0  0  0  0  0  0  0  0
   -4.0790    0.3996   -3.1800 H   0  0  0  0  0  0  0  0  0  0  0  0
   -6.4703    0.3116    2.4095 H   0  0  0  0  0  0  0  0  0  0  0  0
   -6.9226    1.5108    1.0855 H   0  0  0  0  0  0  0  0  0  0  0  0
   -8.6362   -0.4055    1.8514 H   0  0  0  0  0  0  0  0  0  0  0  0
   -8.3103   -0.2594    0.0380 H   0  0  0  0  0  0  0  0  0  0  0  0
   -4.8172   -1.9750    0.1299 H   0  0  0  0  0  0  0  0  0  0  0  0
   -4.8635   -1.5416    1.9254 H   0  0  0  0  0  0  0  0  0  0  0  0
   -0.9559    0.7640   -1.8265 H   0  0  0  0  0  0  0  0  0  0  0  0
   -1.1754   -0.9939   -1.4414 H   0  0  0  0  0  0  0  0  0  0  0  0
    5.3084   -2.7495   -0.4744 H   0  0  0  0  0  0  0  0  0  0  0  0
    7.7225   -2.3081   -0.5595 H   0  0  0  0  0  0  0  0  0  0  0  0
  1  2  1  0
  2  3  1  0
  3  4  2  0
  4  5  1  0
  5  6  2  0
  6  7  1  0
  7  8  1  0
  8  9  2  0
  8 10  1  0
 10 11  1  0
 11 12  1  0
 12 13  1  0
 13 14  1  0
 14 15  1  0
 15 16  1  0
 15 17  1  0
 17 18  2  0
 17 19  1  0
 19 20  1  0
 20 21  1  0
 21 22  1  0
 22 23  1  0
 14 24  1  0
  6 25  1  0
 25 26  2  0
 26  3  1  0
 24 11  1  0
 23 19  1  0
  1 27  1  0
  1 28  1  0
  1 29  1  0
  4 30  1  0
  5 31  1  0
  7 32  1  0
 11 33  1  1
 12 34  1  0
 12 35  1  0
 13 36  1  0
 13 37  1  0
 14 38  1  1
 15 39  1  6
 16 40  1  0
 16 41  1  0
 20 42  1  0
 20 43  1  0
 21 44  1  0
 21 45  1  0
 23 46  1  0
 23 47  1  0
 24 48  1  0
 24 49  1  0
 25 50  1  0
 26 51  1  0
M  END
$$$$
