
     RDKit          3D

 59 61  0  0  0  0  0  0  0  0999 V2000
   -4.2346   -2.8823    0.9986 C   0  0  0  0  0  0  0  0  0  0  0  0
   -4.6183   -3.3870   -0.3605 C   0  0  0  0  0  0  0  0  0  0  0  0
   -4.7712   -2.2721   -1.3304 C   0  0  0  0  0  0  0  0  0  0  0  0
   -3.2764   -1.4002   -1.6082 S   0  0  0  0  0  6  0  0  0  0  0  0
   -2.2689   -2.3372   -2.2436 O   0  0  0  0  0  0  0  0  0  0  0  0
   -3.5796   -0.3133   -2.6229 O   0  0  0  0  0  0  0  0  0  0  0  0
   -2.5932   -0.6661   -0.2238 N   0  0  0  0  0  0  0  0  0  0  0  0
   -1.3079   -1.2859    0.0429 C   0  0  0  0  0  0  0  0  0  0  0  0
   -0.4494   -0.2559    0.7875 C   0  0  0  0  0  0  0  0  0  0  0  0
    0.0678    0.7885   -0.1854 C   0  0  0  0  0  0  0  0  0  0  0  0
    1.1553    0.2578   -1.0534 C   0  0  0  0  0  0  0  0  0  0  0  0
    2.3017   -0.2628   -0.3831 N   0  0  0  0  0  0  0  0  0  0  0  0
    3.4456   -0.7737   -1.0674 C   0  0  0  0  0  0  0  0  0  0  0  0
    3.3886   -0.7402   -2.3225 O   0  0  0  0  0  0  0  0  0  0  0  0
    4.6170   -1.3053   -0.4098 C   0  0  0  0  0  0  0  0  0  0  0  0
    5.6540   -1.7648   -1.1855 C   0  0  0  0  0  0  0  0  0  0  0  0
    6.8048   -2.2865   -0.6337 C   0  0  0  0  0  0  0  0  0  0  0  0
    6.9297   -2.3540    0.7224 C   0  0  0  0  0  0  0  0  0  0  0  0
    5.9047   -1.9000    1.5200 C   0  0  0  0  0  0  0  0  0  0  0  0
    4.7445   -1.3740    0.9535 C   0  0  0  0  0  0  0  0  0  0  0  0
    0.2919    2.1113    0.4110 C   0  0  0  0  0  0  0  0  0  0  0  0
    1.5121    2.5626    0.8081 C   0  0  0  0  0  0  0  0  0  0  0  0
    1.6516    3.8361    1.3882 C   0  0  0  0  0  0  0  0  0  0  0  0
    0.5703    4.6282    1.5573 C   0  0  0  0  0  0  0  0  0  0  0  0
   -0.6622    4.1663    1.1529 C   0  0  0  0  0  0  0  0  0  0  0  0
   -1.7488    5.0086    1.3428 O   0  0  0  0  0  0  0  0  0  0  0  0
   -3.0215    4.5378    0.9279 C   0  0  0  0  0  0  0  0  0  0  0  0
   -0.7760    2.9519    0.6032 N   0  0  0  0  0  0  0  0  0  0  0  0
   -1.1346    0.9978   -1.1554 C   0  0  0  0  0  0  0  0  0  0  0  0
   -2.4389    0.7685   -0.4233 C   0  0  0  0  0  0  0  0  0  0  0  0
   -3.3028   -3.3939    1.3347 H   0  0  0  0  0  0  0  0  0  0  0  0
   -4.0878   -1.8057    1.0804 H   0  0  0  0  0  0  0  0  0  0  0  0
   -5.0673   -3.1189    1.7319 H   0  0  0  0  0  0  0  0  0  0  0  0
   -3.8089   -4.0589   -0.7821 H   0  0  0  0  0  0  0  0  0  0  0  0
   -5.5544   -4.0048   -0.2972 H   0  0  0  0  0  0  0  0  0  0  0  0
   -5.1533   -2.6443   -2.3344 H   0  0  0  0  0  0  0  0  0  0  0  0
   -5.5510   -1.5824   -0.9072 H   0  0  0  0  0  0  0  0  0  0  0  0
   -1.4319   -2.1637    0.6737 H   0  0  0  0  0  0  0  0  0  0  0  0
   -0.8541   -1.5236   -0.9410 H   0  0  0  0  0  0  0  0  0  0  0  0
   -1.1291    0.2307    1.5171 H   0  0  0  0  0  0  0  0  0  0  0  0
    0.3648   -0.7571    1.3305 H   0  0  0  0  0  0  0  0  0  0  0  0
    1.5009    1.1223   -1.6946 H   0  0  0  0  0  0  0  0  0  0  0  0
    0.7009   -0.4520   -1.7754 H   0  0  0  0  0  0  0  0  0  0  0  0
    2.3527   -0.3189    0.6561 H   0  0  0  0  0  0  0  0  0  0  0  0
    5.5994   -1.7313   -2.2701 H   0  0  0  0  0  0  0  0  0  0  0  0
    7.5956   -2.6364   -1.2851 H   0  0  0  0  0  0  0  0  0  0  0  0
    7.8492   -2.7704    1.1179 H   0  0  0  0  0  0  0  0  0  0  0  0
    6.0361   -1.9680    2.5936 H   0  0  0  0  0  0  0  0  0  0  0  0
    3.9823   -1.0369    1.6054 H   0  0  0  0  0  0  0  0  0  0  0  0
    2.3808    1.9439    0.6677 H   0  0  0  0  0  0  0  0  0  0  0  0
    2.6295    4.1506    1.6864 H   0  0  0  0  0  0  0  0  0  0  0  0
    0.6951    5.6152    2.0096 H   0  0  0  0  0  0  0  0  0  0  0  0
   -3.4302    3.7674    1.6162 H   0  0  0  0  0  0  0  0  0  0  0  0
   -3.7532    5.3694    0.8365 H   0  0  0  0  0  0  0  0  0  0  0  0
   -2.8646    4.0514   -0.0707 H   0  0  0  0  0  0  0  0  0  0  0  0
   -1.0383    1.9962   -1.5688 H   0  0  0  0  0  0  0  0  0  0  0  0
   -1.0597    0.2394   -1.9393 H   0  0  0  0  0  0  0  0  0  0  0  0
   -3.2415    1.0915   -1.1056 H   0  0  0  0  0  0  0  0  0  0  0  0
   -2.5172    1.3354    0.5063 H   0  0  0  0  0  0  0  0  0  0  0  0
  1  2  1  0
  2  3  1  0
  3  4  1  0
  4  5  2  0
  4  6  2  0
  4  7  1  0
  7  8  1  0
  8  9  1  0
  9 10  1  0
 10 11  1  0
 11 12  1  0
 12 13  1  0
 13 14  2  0
 13 15  1  0
 15 16  2  0
 16 17  1  0
 17 18  2  0
 18 19  1  0
 19 20  2  0
 10 21  1  0
 21 22  2  0
 22 23  1  0
 23 24  2  0
 24 25  1  0
 25 26  1  0
 26 27  1  0
 25 28  2  0
 10 29  1  0
 29 30  1  0
 30  7  1  0
 20 15  1  0
 28 21  1  0
  1 31  1  0
  1 32  1  0
  1 33  1  0
  2 34  1  0
  2 35  1  0
  3 36  1  0
  3 37  1  0
  8 38  1  0
  8 39  1  0
  9 40  1  0
  9 41  1  0
 11 42  1  0
 11 43  1  0
 12 44  1  0
 16 45  1  0
 17 46  1  0
 18 47  1  0
 19 48  1  0
 20 49  1  0
 22 50  1  0
 23 51  1  0
 24 52  1  0
 27 53  1  0
 27 54  1  0
 27 55  1  0
 29 56  1  0
 29 57  1  0
 30 58  1  0
 30 59  1  0
M  END
$$$$
