
     RDKit          3D

 24 26  0  0  0  0  0  0  0  0999 V2000
   -1.4081   -2.2266    0.4984 N   0  0  0  0  0  0  0  0  0  0  0  0
   -0.0916   -2.0669    0.4951 N   0  0  0  0  0  0  0  0  0  0  0  0
    0.2319   -0.7764    0.1933 C   0  0  0  0  0  0  0  0  0  0  0  0
   -0.9987   -0.1396    0.0073 C   0  0  0  0  0  0  0  0  0  0  0  0
   -2.0075   -1.0595    0.2017 C   0  0  0  0  0  0  0  0  0  0  0  0
   -3.3042   -0.5942    0.0552 C   0  0  0  0  0  0  0  0  0  0  0  0
   -3.6063    0.7155   -0.2679 C   0  0  0  0  0  0  0  0  0  0  0  0
   -2.5509    1.5980   -0.4521 C   0  0  0  0  0  0  0  0  0  0  0  0
   -1.2443    1.1770   -0.3159 C   0  0  0  0  0  0  0  0  0  0  0  0
    1.5978   -0.2636    0.1064 C   0  0  0  0  0  0  0  0  0  0  0  0
    1.9578    0.5520   -0.9591 C   0  0  0  0  0  0  0  0  0  0  0  0
    3.2589    1.0153   -1.0033 C   0  0  0  0  0  0  0  0  0  0  0  0
    4.1592    0.6980   -0.0565 N   0  0  0  0  0  0  0  0  0  0  0  0
    3.7895   -0.0982    0.9742 C   0  0  0  0  0  0  0  0  0  0  0  0
    2.5144   -0.6003    1.0913 C   0  0  0  0  0  0  0  0  0  0  0  0
   -1.9375   -3.1129    0.6975 H   0  0  0  0  0  0  0  0  0  0  0  0
   -4.1135   -1.2998    0.2033 H   0  0  0  0  0  0  0  0  0  0  0  0
   -4.6249    1.0653   -0.3792 H   0  0  0  0  0  0  0  0  0  0  0  0
   -2.7482    2.6143   -0.7018 H   0  0  0  0  0  0  0  0  0  0  0  0
   -0.4566    1.8980   -0.4683 H   0  0  0  0  0  0  0  0  0  0  0  0
    1.2781    0.8368   -1.7432 H   0  0  0  0  0  0  0  0  0  0  0  0
    3.5883    1.6506   -1.8082 H   0  0  0  0  0  0  0  0  0  0  0  0
    4.5301   -0.3410    1.7252 H   0  0  0  0  0  0  0  0  0  0  0  0
    2.1865   -1.2419    1.9066 H   0  0  0  0  0  0  0  0  0  0  0  0
  1  2  1  0
  2  3  2  0
  3  4  1  0
  4  5  2  0
  5  6  1  0
  6  7  2  0
  7  8  1  0
  8  9  2  0
  3 10  1  0
 10 11  2  0
 11 12  1  0
 12 13  2  0
 13 14  1  0
 14 15  2  0
  5  1  1  0
 15 10  1  0
  9  4  1  0
  1 16  1  0
  6 17  1  0
  7 18  1  0
  8 19  1  0
  9 20  1  0
 11 21  1  0
 12 22  1  0
 14 23  1  0
 15 24  1  0
M  END
$$$$
