
     RDKit          3D

 32 33  0  0  0  0  0  0  0  0999 V2000
   -3.5049    1.6105    0.3089 C   0  0  0  0  0  0  0  0  0  0  0  0
   -3.1894    0.4000   -0.5241 C   0  0  0  0  0  0  0  0  0  0  0  0
   -2.4529   -0.6700    0.2711 C   0  0  2  0  0  0  0  0  0  0  0  0
   -0.8790   -0.0248    0.9119 S   0  0  0  0  0  0  0  0  0  0  0  0
    0.2138   -0.9963   -0.1669 C   0  0  0  0  0  0  0  0  0  0  0  0
    0.5994   -0.1665   -1.3380 C   0  0  0  0  0  0  0  0  0  0  0  0
    1.4234    1.0049   -0.8205 C   0  0  0  0  0  0  0  0  0  0  0  0
    2.6244    0.4564   -0.2323 N   0  0  0  0  0  0  0  0  0  0  0  0
    3.6947    1.3876   -0.0749 C   0  0  0  0  0  0  0  0  0  0  0  0
    2.3723   -0.3823    0.8981 C   0  0  0  0  0  0  0  0  0  0  0  0
    1.4469   -1.4949    0.5313 C   0  0  0  0  0  0  0  0  0  0  0  0
   -0.6740   -2.0859   -0.4760 N   0  0  0  0  0  0  0  0  0  0  0  0
   -1.9961   -1.6708   -0.7204 C   0  0  0  0  0  0  0  0  0  0  0  0
   -2.7247   -2.0981   -1.6785 O   0  0  0  0  0  0  0  0  0  0  0  0
   -2.5903    2.0712    0.6893 H   0  0  0  0  0  0  0  0  0  0  0  0
   -4.2494    1.3648    1.0984 H   0  0  0  0  0  0  0  0  0  0  0  0
   -3.9896    2.3386   -0.3738 H   0  0  0  0  0  0  0  0  0  0  0  0
   -2.6554    0.6973   -1.4240 H   0  0  0  0  0  0  0  0  0  0  0  0
   -4.1576   -0.0372   -0.8416 H   0  0  0  0  0  0  0  0  0  0  0  0
   -3.1004   -1.0920    1.0431 H   0  0  0  0  0  0  0  0  0  0  0  0
    1.2099   -0.7775   -2.0441 H   0  0  0  0  0  0  0  0  0  0  0  0
   -0.2851    0.2487   -1.8647 H   0  0  0  0  0  0  0  0  0  0  0  0
    1.7309    1.6693   -1.6429 H   0  0  0  0  0  0  0  0  0  0  0  0
    0.8064    1.5411   -0.0661 H   0  0  0  0  0  0  0  0  0  0  0  0
    3.5601    2.1271    0.7151 H   0  0  0  0  0  0  0  0  0  0  0  0
    4.6171    0.7995    0.1267 H   0  0  0  0  0  0  0  0  0  0  0  0
    3.8594    1.8832   -1.0515 H   0  0  0  0  0  0  0  0  0  0  0  0
    3.3605   -0.8758    1.1376 H   0  0  0  0  0  0  0  0  0  0  0  0
    2.1119    0.1639    1.8203 H   0  0  0  0  0  0  0  0  0  0  0  0
    1.2162   -2.1538    1.3841 H   0  0  0  0  0  0  0  0  0  0  0  0
    1.9608   -2.1358   -0.2157 H   0  0  0  0  0  0  0  0  0  0  0  0
   -0.3591   -3.1025   -0.5150 H   0  0  0  0  0  0  0  0  0  0  0  0
  1  2  1  0
  2  3  1  0
  3  4  1  0
  4  5  1  0
  5  6  1  0
  6  7  1  0
  7  8  1  0
  8  9  1  0
  8 10  1  0
 10 11  1  0
  5 12  1  0
 12 13  1  0
 13 14  2  0
 13  3  1  0
 11  5  1  0
  1 15  1  0
  1 16  1  0
  1 17  1  0
  2 18  1  0
  2 19  1  0
  3 20  1  1
  6 21  1  0
  6 22  1  0
  7 23  1  0
  7 24  1  0
  9 25  1  0
  9 26  1  0
  9 27  1  0
 10 28  1  0
 10 29  1  0
 11 30  1  0
 11 31  1  0
 12 32  1  0
M  END
$$$$
