
     RDKit          3D

 47 49  0  0  0  0  0  0  0  0999 V2000
   -4.1855   -2.6208   -1.1811 C   0  0  0  0  0  0  0  0  0  0  0  0
   -4.6884   -1.3013   -0.6953 C   0  0  0  0  0  0  0  0  0  0  0  0
   -3.7981   -0.4426   -0.0892 C   0  0  0  0  0  0  0  0  0  0  0  0
   -4.1941    0.8047    0.3876 C   0  0  0  0  0  0  0  0  0  0  0  0
   -3.2634    1.6789    1.0093 N   0  0  0  0  0  0  0  0  0  0  0  0
   -1.9381    1.1735    1.1131 C   0  0  0  0  0  0  0  0  0  0  0  0
   -1.0313    1.3538    0.1445 N   0  0  0  0  0  0  0  0  0  0  0  0
    0.2348    0.9005    0.1851 C   0  0  0  0  0  0  0  0  0  0  0  0
    1.0934    1.1527   -0.8951 N   0  0  0  0  0  0  0  0  0  0  0  0
    2.4441    0.7609   -1.0448 C   0  0  0  0  0  0  0  0  0  0  0  0
    3.1835    0.0490   -0.1554 C   0  0  0  0  0  0  0  0  0  0  0  0
    4.5006   -0.3205   -0.3255 C   0  0  0  0  0  0  0  0  0  0  0  0
    5.1545    0.0452   -1.4824 C   0  0  0  0  0  0  0  0  0  0  0  0
    6.5640   -0.2876   -1.7847 C   0  0  0  0  0  0  0  0  0  0  0  0
    7.4329    0.8241   -1.2634 C   0  0  0  0  0  0  0  0  0  0  0  0
    8.8133    0.7847   -1.4076 O   0  0  0  0  0  0  0  0  0  0  0  0
    6.9017    1.8087   -0.6858 O   0  0  0  0  0  0  0  0  0  0  0  0
    4.4523    0.7697   -2.4215 C   0  0  0  0  0  0  0  0  0  0  0  0
    3.1392    1.1048   -2.1867 C   0  0  0  0  0  0  0  0  0  0  0  0
    0.5668    0.2259    1.2944 N   0  0  0  0  0  0  0  0  0  0  0  0
   -0.2963    0.0144    2.2952 C   0  0  0  0  0  0  0  0  0  0  0  0
   -1.5892    0.4793    2.2493 C   0  0  0  0  0  0  0  0  0  0  0  0
   -2.5197    0.2435    3.3443 C   0  0  0  0  0  0  0  0  0  0  0  0
   -2.0651   -0.4823    4.4795 N   0  0  0  0  0  0  0  0  0  0  0  0
   -3.6908    0.6401    3.3451 O   0  0  0  0  0  0  0  0  0  0  0  0
   -5.5224    1.1047    0.2078 C   0  0  0  0  0  0  0  0  0  0  0  0
   -6.4331    0.2545   -0.3992 C   0  0  0  0  0  0  0  0  0  0  0  0
   -6.0144   -0.9703   -0.8603 C   0  0  0  0  0  0  0  0  0  0  0  0
   -4.9990   -3.3651   -1.2533 H   0  0  0  0  0  0  0  0  0  0  0  0
   -3.3764   -2.9766   -0.5112 H   0  0  0  0  0  0  0  0  0  0  0  0
   -3.8005   -2.4482   -2.2211 H   0  0  0  0  0  0  0  0  0  0  0  0
   -2.7699   -0.7560    0.0129 H   0  0  0  0  0  0  0  0  0  0  0  0
   -3.6408    2.6084    1.3304 H   0  0  0  0  0  0  0  0  0  0  0  0
    0.6870    1.7073   -1.7084 H   0  0  0  0  0  0  0  0  0  0  0  0
    2.7613   -0.2745    0.7617 H   0  0  0  0  0  0  0  0  0  0  0  0
    5.0535   -0.8886    0.4088 H   0  0  0  0  0  0  0  0  0  0  0  0
    6.6638   -0.4217   -2.8650 H   0  0  0  0  0  0  0  0  0  0  0  0
    6.8466   -1.2434   -1.2618 H   0  0  0  0  0  0  0  0  0  0  0  0
    9.3704    1.6484   -1.4619 H   0  0  0  0  0  0  0  0  0  0  0  0
    4.9533    1.0719   -3.3508 H   0  0  0  0  0  0  0  0  0  0  0  0
    2.6554    1.6812   -2.9847 H   0  0  0  0  0  0  0  0  0  0  0  0
    0.0330   -0.5436    3.1763 H   0  0  0  0  0  0  0  0  0  0  0  0
   -1.7800   -0.2504    5.4546 H   0  0  0  0  0  0  0  0  0  0  0  0
   -1.9216   -1.5354    4.5222 H   0  0  0  0  0  0  0  0  0  0  0  0
   -5.8290    2.0844    0.5835 H   0  0  0  0  0  0  0  0  0  0  0  0
   -7.4571    0.6102   -0.4808 H   0  0  0  0  0  0  0  0  0  0  0  0
   -6.7013   -1.6339   -1.3285 H   0  0  0  0  0  0  0  0  0  0  0  0
  1  2  1  0
  2  3  2  0
  3  4  1  0
  4  5  1  0
  5  6  1  0
  6  7  2  0
  7  8  1  0
  8  9  1  0
  9 10  1  0
 10 11  2  0
 11 12  1  0
 12 13  2  0
 13 14  1  0
 14 15  1  0
 15 16  1  0
 15 17  2  0
 13 18  1  0
 18 19  2  0
  8 20  2  0
 20 21  1  0
 21 22  2  0
 22 23  1  0
 23 24  1  0
 23 25  2  0
  4 26  2  0
 26 27  1  0
 27 28  2  0
 28  2  1  0
 22  6  1  0
 19 10  1  0
  1 29  1  0
  1 30  1  0
  1 31  1  0
  3 32  1  0
  5 33  1  0
  9 34  1  0
 11 35  1  0
 12 36  1  0
 14 37  1  0
 14 38  1  0
 16 39  1  0
 18 40  1  0
 19 41  1  0
 21 42  1  0
 24 43  1  0
 24 44  1  0
 26 45  1  0
 27 46  1  0
 28 47  1  0
M  END
$$$$
