
     RDKit          3D

 51 55  0  0  0  0  0  0  0  0999 V2000
   -5.9645   -0.1057    1.7106 C   0  0  0  0  0  0  0  0  0  0  0  0
   -5.5986   -0.1941    0.3690 O   0  0  0  0  0  0  0  0  0  0  0  0
   -4.2639   -0.3998   -0.0383 C   0  0  0  0  0  0  0  0  0  0  0  0
   -3.2523   -0.5231    0.8867 C   0  0  0  0  0  0  0  0  0  0  0  0
   -1.9249   -0.7252    0.5741 C   0  0  0  0  0  0  0  0  0  0  0  0
   -0.8909   -0.8487    1.6005 C   0  0  0  0  0  0  0  0  0  0  0  0
   -1.1610   -1.4035    2.8346 C   0  0  0  0  0  0  0  0  0  0  0  0
   -0.2282   -1.5279    3.7942 N   0  0  0  0  0  0  0  0  0  0  0  0
    1.0417   -1.1202    3.6233 C   0  0  0  0  0  0  0  0  0  0  0  0
    2.1461   -1.1269    4.4027 N   0  0  0  0  0  0  0  0  0  0  0  0
    3.1760   -0.5879    3.7330 C   0  0  0  0  0  0  0  0  0  0  0  0
    2.7099   -0.2268    2.4861 C   0  0  0  0  0  0  0  0  0  0  0  0
    3.4815    0.3936    1.4166 C   0  0  0  0  0  0  0  0  0  0  0  0
    4.3030    1.4665    1.6963 C   0  0  0  0  0  0  0  0  0  0  0  0
    5.0502    2.0766    0.7104 C   0  0  0  0  0  0  0  0  0  0  0  0
    5.0147    1.6460   -0.6043 C   0  0  0  0  0  0  0  0  0  0  0  0
    5.6237    2.0445   -1.7430 N   0  0  0  0  0  0  0  0  0  0  0  0
    5.2276    1.2661   -2.7635 C   0  0  0  0  0  0  0  0  0  0  0  0
    4.3395    0.3471   -2.2485 C   0  0  0  0  0  0  0  0  0  0  0  0
    4.1991    0.5755   -0.8995 C   0  0  0  0  0  0  0  0  0  0  0  0
    3.4446   -0.0371    0.1081 C   0  0  0  0  0  0  0  0  0  0  0  0
    1.3620   -0.5501    2.3843 C   0  0  0  0  0  0  0  0  0  0  0  0
    0.4043   -0.4228    1.4006 C   0  0  0  0  0  0  0  0  0  0  0  0
   -1.6205   -0.8053   -0.7785 C   0  0  0  0  0  0  0  0  0  0  0  0
   -2.6193   -0.6844   -1.7257 C   0  0  0  0  0  0  0  0  0  0  0  0
   -2.2973   -0.7674   -3.0868 O   0  0  0  0  0  0  0  0  0  0  0  0
   -0.9393   -0.9758   -3.4672 C   0  0  0  0  0  0  0  0  0  0  0  0
   -3.9355   -0.4829   -1.3718 C   0  0  0  0  0  0  0  0  0  0  0  0
   -4.9553   -0.3586   -2.3090 O   0  0  0  0  0  0  0  0  0  0  0  0
   -5.2526    0.9417   -2.7822 C   0  0  0  0  0  0  0  0  0  0  0  0
   -5.4428   -0.8117    2.3807 H   0  0  0  0  0  0  0  0  0  0  0  0
   -7.0577   -0.3246    1.7715 H   0  0  0  0  0  0  0  0  0  0  0  0
   -5.8213    0.9171    2.0688 H   0  0  0  0  0  0  0  0  0  0  0  0
   -3.4800   -0.4617    1.9533 H   0  0  0  0  0  0  0  0  0  0  0  0
   -2.1524   -1.7649    3.0783 H   0  0  0  0  0  0  0  0  0  0  0  0
    2.1998   -1.4920    5.3748 H   0  0  0  0  0  0  0  0  0  0  0  0
    4.1951   -0.4388    4.0545 H   0  0  0  0  0  0  0  0  0  0  0  0
    4.3309    1.8075    2.7381 H   0  0  0  0  0  0  0  0  0  0  0  0
    5.6912    2.9149    0.9324 H   0  0  0  0  0  0  0  0  0  0  0  0
    6.3006    2.8441   -1.7997 H   0  0  0  0  0  0  0  0  0  0  0  0
    5.5252    1.3141   -3.8174 H   0  0  0  0  0  0  0  0  0  0  0  0
    3.8357   -0.4258   -2.8095 H   0  0  0  0  0  0  0  0  0  0  0  0
    2.8200   -0.8733   -0.1600 H   0  0  0  0  0  0  0  0  0  0  0  0
    0.6984    0.0227    0.4676 H   0  0  0  0  0  0  0  0  0  0  0  0
   -0.5708   -0.9659   -1.0526 H   0  0  0  0  0  0  0  0  0  0  0  0
   -0.5095   -1.8379   -2.8980 H   0  0  0  0  0  0  0  0  0  0  0  0
   -0.8617   -1.2132   -4.5444 H   0  0  0  0  0  0  0  0  0  0  0  0
   -0.3495   -0.0631   -3.2853 H   0  0  0  0  0  0  0  0  0  0  0  0
   -4.7940    1.7362   -2.1648 H   0  0  0  0  0  0  0  0  0  0  0  0
   -6.3318    1.1470   -2.8299 H   0  0  0  0  0  0  0  0  0  0  0  0
   -4.8453    1.0858   -3.8159 H   0  0  0  0  0  0  0  0  0  0  0  0
  1  2  1  0
  2  3  1  0
  3  4  2  0
  4  5  1  0
  5  6  1  0
  6  7  2  0
  7  8  1  0
  8  9  2  0
  9 10  1  0
 10 11  1  0
 11 12  2  0
 12 13  1  0
 13 14  2  0
 14 15  1  0
 15 16  2  0
 16 17  1  0
 17 18  1  0
 18 19  2  0
 19 20  1  0
 20 21  2  0
 12 22  1  0
 22 23  2  0
  5 24  2  0
 24 25  1  0
 25 26  1  0
 26 27  1  0
 25 28  2  0
 28 29  1  0
 29 30  1  0
 28  3  1  0
 23  6  1  0
 22  9  1  0
 21 13  1  0
 20 16  1  0
  1 31  1  0
  1 32  1  0
  1 33  1  0
  4 34  1  0
  7 35  1  0
 10 36  1  0
 11 37  1  0
 14 38  1  0
 15 39  1  0
 17 40  1  0
 18 41  1  0
 19 42  1  0
 21 43  1  0
 23 44  1  0
 24 45  1  0
 27 46  1  0
 27 47  1  0
 27 48  1  0
 30 49  1  0
 30 50  1  0
 30 51  1  0
M  END
$$$$
