
     RDKit          3D

 45 48  0  0  0  0  0  0  0  0999 V2000
    5.7188   -1.2522    0.8609 O   0  0  0  0  0  0  0  0  0  0  0  0
    5.5321   -0.2168    0.1561 C   0  0  0  0  0  0  0  0  0  0  0  0
    6.6166    0.5761   -0.4418 C   0  0  0  0  0  0  0  0  0  0  0  0
    6.0021    1.9557   -0.5458 C   0  0  0  0  0  0  0  0  0  0  0  0
    4.5313    1.6904   -0.8182 C   0  0  0  0  0  0  0  0  0  0  0  0
    4.3055    0.4005   -0.2113 N   0  0  0  0  0  0  0  0  0  0  0  0
    3.0416   -0.2326    0.0202 C   0  0  0  0  0  0  0  0  0  0  0  0
    2.3496   -0.0339    1.2062 C   0  0  0  0  0  0  0  0  0  0  0  0
    1.1309   -0.6518    1.4151 C   0  0  0  0  0  0  0  0  0  0  0  0
    0.5548   -1.4799    0.4730 C   0  0  0  0  0  0  0  0  0  0  0  0
   -0.9921   -2.2215    0.8214 S   0  0  0  0  0  6  0  0  0  0  0  0
   -1.0200   -3.5553    0.0898 O   0  0  0  0  0  0  0  0  0  0  0  0
   -1.1460   -2.4593    2.3096 O   0  0  0  0  0  0  0  0  0  0  0  0
   -2.2315   -1.2246    0.2972 N   0  0  0  0  0  0  0  0  0  0  0  0
   -2.3122   -0.9265   -1.0683 C   0  0  0  0  0  0  0  0  0  0  0  0
   -3.7301   -0.8024   -1.5825 C   0  0  0  0  0  0  0  0  0  0  0  0
   -4.4058    0.1843   -0.7073 C   0  0  0  0  0  0  0  0  0  0  0  0
   -5.2043    1.1950   -1.1818 C   0  0  0  0  0  0  0  0  0  0  0  0
   -5.8122    2.0945   -0.2965 C   0  0  0  0  0  0  0  0  0  0  0  0
   -5.6146    1.9750    1.0724 C   0  0  0  0  0  0  0  0  0  0  0  0
   -4.8113    0.9572    1.5398 C   0  0  0  0  0  0  0  0  0  0  0  0
   -4.2051    0.0598    0.6529 C   0  0  0  0  0  0  0  0  0  0  0  0
   -3.3368   -1.0443    1.1372 C   0  0  0  0  0  0  0  0  0  0  0  0
    1.2442   -1.6764   -0.7056 C   0  0  0  0  0  0  0  0  0  0  0  0
    2.4612   -1.0632   -0.9218 C   0  0  0  0  0  0  0  0  0  0  0  0
    7.5445    0.5861    0.1697 H   0  0  0  0  0  0  0  0  0  0  0  0
    6.8032    0.2365   -1.4832 H   0  0  0  0  0  0  0  0  0  0  0  0
    6.4776    2.5039   -1.3592 H   0  0  0  0  0  0  0  0  0  0  0  0
    6.0498    2.5088    0.4137 H   0  0  0  0  0  0  0  0  0  0  0  0
    3.9036    2.4904   -0.3738 H   0  0  0  0  0  0  0  0  0  0  0  0
    4.4197    1.6575   -1.9230 H   0  0  0  0  0  0  0  0  0  0  0  0
    2.8115    0.6136    1.9296 H   0  0  0  0  0  0  0  0  0  0  0  0
    0.6275   -0.4592    2.3711 H   0  0  0  0  0  0  0  0  0  0  0  0
   -1.8440    0.0881   -1.2406 H   0  0  0  0  0  0  0  0  0  0  0  0
   -1.7689   -1.6842   -1.6671 H   0  0  0  0  0  0  0  0  0  0  0  0
   -4.2838   -1.7592   -1.4763 H   0  0  0  0  0  0  0  0  0  0  0  0
   -3.7262   -0.4563   -2.6328 H   0  0  0  0  0  0  0  0  0  0  0  0
   -5.3625    1.2939   -2.2468 H   0  0  0  0  0  0  0  0  0  0  0  0
   -6.4316    2.8729   -0.7178 H   0  0  0  0  0  0  0  0  0  0  0  0
   -6.0885    2.6748    1.7488 H   0  0  0  0  0  0  0  0  0  0  0  0
   -4.6659    0.8744    2.5968 H   0  0  0  0  0  0  0  0  0  0  0  0
   -3.9338   -1.9759    1.3249 H   0  0  0  0  0  0  0  0  0  0  0  0
   -2.9650   -0.7524    2.1640 H   0  0  0  0  0  0  0  0  0  0  0  0
    0.8073   -2.3171   -1.4448 H   0  0  0  0  0  0  0  0  0  0  0  0
    2.9586   -1.2440   -1.8479 H   0  0  0  0  0  0  0  0  0  0  0  0
  1  2  2  0
  2  3  1  0
  3  4  1  0
  4  5  1  0
  5  6  1  0
  6  7  1  0
  7  8  2  0
  8  9  1  0
  9 10  2  0
 10 11  1  0
 11 12  2  0
 11 13  2  0
 11 14  1  0
 14 15  1  0
 15 16  1  0
 16 17  1  0
 17 18  2  0
 18 19  1  0
 19 20  2  0
 20 21  1  0
 21 22  2  0
 22 23  1  0
 10 24  1  0
 24 25  2  0
  6  2  1  0
 25  7  1  0
 23 14  1  0
 22 17  1  0
  3 26  1  0
  3 27  1  0
  4 28  1  0
  4 29  1  0
  5 30  1  0
  5 31  1  0
  8 32  1  0
  9 33  1  0
 15 34  1  0
 15 35  1  0
 16 36  1  0
 16 37  1  0
 18 38  1  0
 19 39  1  0
 20 40  1  0
 21 41  1  0
 23 42  1  0
 23 43  1  0
 24 44  1  0
 25 45  1  0
M  END
$$$$
