
     RDKit          3D

 43 46  0  0  0  0  0  0  0  0999 V2000
    5.2378   -2.0291    2.0494 C   0  0  0  0  0  0  0  0  0  0  0  0
    4.7979   -1.2660    0.9521 O   0  0  0  0  0  0  0  0  0  0  0  0
    3.5083   -0.8616    0.7441 C   0  0  0  0  0  0  0  0  0  0  0  0
    3.2396   -0.1165   -0.3842 C   0  0  0  0  0  0  0  0  0  0  0  0
    4.2565    0.1996   -1.2626 O   0  0  0  0  0  0  0  0  0  0  0  0
    4.0139    0.9611   -2.4272 C   0  0  0  0  0  0  0  0  0  0  0  0
    1.9608    0.3211   -0.6505 C   0  0  0  0  0  0  0  0  0  0  0  0
    0.9019    0.0431    0.1814 C   0  0  0  0  0  0  0  0  0  0  0  0
    1.2370   -0.7156    1.3080 C   0  0  0  0  0  0  0  0  0  0  0  0
    2.4966   -1.1775    1.6203 C   0  0  0  0  0  0  0  0  0  0  0  0
   -0.4910    0.4377    0.0651 C   0  0  0  0  0  0  0  0  0  0  0  0
   -1.4611   -0.5151    0.1969 N   0  0  0  0  0  0  0  0  0  0  0  0
   -2.6529    0.0131    0.0720 N   0  0  0  0  0  0  0  0  0  0  0  0
   -3.9012   -0.7149    0.1569 C   0  0  0  0  0  0  0  0  0  0  0  0
   -3.7706   -2.1890   -0.2521 C   0  0  0  0  0  0  0  0  0  0  0  0
   -4.7586   -2.4873    0.8712 C   0  0  0  0  0  0  0  0  0  0  0  0
   -4.2030   -1.2550    1.5565 C   0  0  0  0  0  0  0  0  0  0  0  0
   -2.5631    1.3372   -0.1484 C   0  0  0  0  0  0  0  0  0  0  0  0
   -3.4053    2.3679   -0.3429 N   0  0  0  0  0  0  0  0  0  0  0  0
   -2.8632    3.6040   -0.5293 C   0  0  0  0  0  0  0  0  0  0  0  0
   -1.5240    3.8632   -0.5312 N   0  0  0  0  0  0  0  0  0  0  0  0
   -0.6734    2.8386   -0.3377 C   0  0  0  0  0  0  0  0  0  0  0  0
    0.7187    3.1095   -0.3252 N   0  0  0  0  0  0  0  0  0  0  0  0
   -1.2112    1.5920   -0.1503 C   0  0  0  0  0  0  0  0  0  0  0  0
    4.7756   -1.6051    2.9761 H   0  0  0  0  0  0  0  0  0  0  0  0
    4.9075   -3.0871    1.9382 H   0  0  0  0  0  0  0  0  0  0  0  0
    6.3425   -2.0036    2.1097 H   0  0  0  0  0  0  0  0  0  0  0  0
    3.9714    2.0382   -2.1077 H   0  0  0  0  0  0  0  0  0  0  0  0
    4.9112    0.8857   -3.0921 H   0  0  0  0  0  0  0  0  0  0  0  0
    3.1305    0.6441   -2.9985 H   0  0  0  0  0  0  0  0  0  0  0  0
    1.7383    0.8876   -1.5275 H   0  0  0  0  0  0  0  0  0  0  0  0
    0.4551   -0.9873    2.0304 H   0  0  0  0  0  0  0  0  0  0  0  0
    2.6726   -1.7592    2.5125 H   0  0  0  0  0  0  0  0  0  0  0  0
   -4.7399   -0.2434   -0.3585 H   0  0  0  0  0  0  0  0  0  0  0  0
   -2.8057   -2.6542   -0.0017 H   0  0  0  0  0  0  0  0  0  0  0  0
   -4.1778   -2.4119   -1.2391 H   0  0  0  0  0  0  0  0  0  0  0  0
   -4.5805   -3.4357    1.4076 H   0  0  0  0  0  0  0  0  0  0  0  0
   -5.8056   -2.2947    0.5423 H   0  0  0  0  0  0  0  0  0  0  0  0
   -3.2362   -1.4247    2.0651 H   0  0  0  0  0  0  0  0  0  0  0  0
   -4.9289   -0.6565    2.1263 H   0  0  0  0  0  0  0  0  0  0  0  0
   -3.5679    4.4088   -0.6827 H   0  0  0  0  0  0  0  0  0  0  0  0
    1.0585    3.1647    0.6591 H   0  0  0  0  0  0  0  0  0  0  0  0
    0.9889    3.1735   -1.3502 H   0  0  0  0  0  0  0  0  0  0  0  0
  1  2  1  0
  2  3  1  0
  3  4  2  0
  4  5  1  0
  5  6  1  0
  4  7  1  0
  7  8  2  0
  8  9  1  0
  9 10  2  0
  8 11  1  0
 11 12  2  0
 12 13  1  0
 13 14  1  0
 14 15  1  0
 15 16  1  0
 16 17  1  0
 13 18  1  0
 18 19  2  0
 19 20  1  0
 20 21  2  0
 21 22  1  0
 22 23  1  0
 22 24  2  0
 10  3  1  0
 24 11  1  0
 17 14  1  0
 24 18  1  0
  1 25  1  0
  1 26  1  0
  1 27  1  0
  6 28  1  0
  6 29  1  0
  6 30  1  0
  7 31  1  0
  9 32  1  0
 10 33  1  0
 14 34  1  0
 15 35  1  0
 15 36  1  0
 16 37  1  0
 16 38  1  0
 17 39  1  0
 17 40  1  0
 20 41  1  0
 23 42  1  0
 23 43  1  0
M  END
$$$$
