
     RDKit          3D

 49 52  0  0  0  0  0  0  0  0999 V2000
   -1.8980   -1.4867   -0.4846 C   0  0  0  0  0  0  0  0  0  0  0  0
   -1.8571   -0.0399   -0.0288 C   0  0  0  0  0  0  0  0  0  0  0  0
   -2.0509   -0.0671    1.4870 C   0  0  0  0  0  0  0  0  0  0  0  0
   -2.9443    0.6460   -0.5698 O   0  0  0  0  0  0  0  0  0  0  0  0
   -4.2647    0.3518   -0.3658 C   0  0  0  0  0  0  0  0  0  0  0  0
   -5.0326    0.8794    0.6611 C   0  0  0  0  0  0  0  0  0  0  0  0
   -6.3598    0.5528    0.8261 C   0  0  0  0  0  0  0  0  0  0  0  0
   -6.9852   -0.3241   -0.0359 C   0  0  0  0  0  0  0  0  0  0  0  0
   -8.6819   -0.7504    0.1636 Cl  0  0  0  0  0  0  0  0  0  0  0  0
   -6.2371   -0.8581   -1.0622 C   0  0  0  0  0  0  0  0  0  0  0  0
   -4.9033   -0.5245   -1.2210 C   0  0  0  0  0  0  0  0  0  0  0  0
   -0.5874    0.5862   -0.4082 C   0  0  0  0  0  0  0  0  0  0  0  0
   -0.5644    1.6130   -1.1345 O   0  0  0  0  0  0  0  0  0  0  0  0
    0.6775    0.0903    0.0072 N   0  0  0  0  0  0  0  0  0  0  0  0
    1.9153    0.6839   -0.3508 C   0  0  0  0  0  0  0  0  0  0  0  0
    2.5702    1.1747    0.9426 C   0  0  0  0  0  0  0  0  0  0  0  0
    3.8046    1.9883    0.6576 C   0  0  0  0  0  0  0  0  0  0  0  0
    4.7905    1.0925   -0.0542 C   0  0  0  0  0  0  0  0  0  0  0  0
    4.1454    0.5980   -1.3171 C   0  0  0  0  0  0  0  0  0  0  0  0
    2.8986   -0.2365   -1.0162 C   0  0  0  0  0  0  0  0  0  0  0  0
    3.3423   -1.3744   -0.1415 C   0  0  0  0  0  0  0  0  0  0  0  0
    4.0390   -0.7760    1.0792 C   0  0  0  0  0  0  0  0  0  0  0  0
    4.4969   -1.7878    1.9140 O   0  0  0  0  0  0  0  0  0  0  0  0
    2.9539    0.0178    1.8150 C   0  0  0  0  0  0  0  0  0  0  0  0
    5.1093    0.0110    0.7345 O   0  0  0  0  0  0  0  0  0  0  0  0
   -2.0379   -1.4739   -1.5840 H   0  0  0  0  0  0  0  0  0  0  0  0
   -2.6816   -2.0573    0.0442 H   0  0  0  0  0  0  0  0  0  0  0  0
   -0.9297   -1.9646   -0.2663 H   0  0  0  0  0  0  0  0  0  0  0  0
   -3.1176   -0.3428    1.6443 H   0  0  0  0  0  0  0  0  0  0  0  0
   -1.8252    0.9016    1.9458 H   0  0  0  0  0  0  0  0  0  0  0  0
   -1.4478   -0.9074    1.8862 H   0  0  0  0  0  0  0  0  0  0  0  0
   -4.5392    1.5667    1.3352 H   0  0  0  0  0  0  0  0  0  0  0  0
   -6.9535    0.9721    1.6347 H   0  0  0  0  0  0  0  0  0  0  0  0
   -6.7319   -1.5578   -1.7517 H   0  0  0  0  0  0  0  0  0  0  0  0
   -4.3832   -0.9832   -2.0481 H   0  0  0  0  0  0  0  0  0  0  0  0
    0.6756   -0.7602    0.6096 H   0  0  0  0  0  0  0  0  0  0  0  0
    1.8176    1.5799   -0.9908 H   0  0  0  0  0  0  0  0  0  0  0  0
    1.8292    1.7854    1.5212 H   0  0  0  0  0  0  0  0  0  0  0  0
    3.5061    2.8333    0.0066 H   0  0  0  0  0  0  0  0  0  0  0  0
    4.1744    2.3871    1.6016 H   0  0  0  0  0  0  0  0  0  0  0  0
    5.7088    1.6217   -0.3264 H   0  0  0  0  0  0  0  0  0  0  0  0
    3.8699    1.4932   -1.9375 H   0  0  0  0  0  0  0  0  0  0  0  0
    4.8657   -0.0088   -1.9044 H   0  0  0  0  0  0  0  0  0  0  0  0
    2.5542   -0.5786   -2.0163 H   0  0  0  0  0  0  0  0  0  0  0  0
    4.0928   -1.9541   -0.7063 H   0  0  0  0  0  0  0  0  0  0  0  0
    2.5135   -1.9895    0.2443 H   0  0  0  0  0  0  0  0  0  0  0  0
    5.1045   -2.3699    1.3862 H   0  0  0  0  0  0  0  0  0  0  0  0
    2.1425   -0.6870    2.0249 H   0  0  0  0  0  0  0  0  0  0  0  0
    3.4154    0.4340    2.7338 H   0  0  0  0  0  0  0  0  0  0  0  0
  1  2  1  0
  2  3  1  0
  2  4  1  0
  4  5  1  0
  5  6  2  0
  6  7  1  0
  7  8  2  0
  8  9  1  0
  8 10  1  0
 10 11  2  0
  2 12  1  0
 12 13  2  0
 12 14  1  0
 14 15  1  0
 15 16  1  0
 16 17  1  0
 17 18  1  0
 18 19  1  0
 19 20  1  0
 20 21  1  0
 21 22  1  0
 22 23  1  0
 22 24  1  0
 22 25  1  0
 11  5  1  0
 20 15  1  0
 24 16  1  0
 25 18  1  0
  1 26  1  0
  1 27  1  0
  1 28  1  0
  3 29  1  0
  3 30  1  0
  3 31  1  0
  6 32  1  0
  7 33  1  0
 10 34  1  0
 11 35  1  0
 14 36  1  0
 15 37  1  0
 16 38  1  0
 17 39  1  0
 17 40  1  0
 18 41  1  0
 19 42  1  0
 19 43  1  0
 20 44  1  0
 21 45  1  0
 21 46  1  0
 23 47  1  0
 24 48  1  0
 24 49  1  0
M  END
$$$$
