
     RDKit          3D

 32 34  0  0  0  0  0  0  0  0999 V2000
    2.4327    0.4695    0.7488 C   0  0  1  0  0  0  0  0  0  0  0  0
    3.1791    1.7414    0.9966 C   0  0  0  0  0  0  0  0  0  0  0  0
    4.5437    1.4611    0.9420 O   0  0  0  0  0  0  0  0  0  0  0  0
    1.0307    0.6580    0.7861 O   0  0  0  0  0  0  0  0  0  0  0  0
    0.6251   -0.5679    0.3078 C   0  0  1  0  0  0  0  0  0  0  0  0
   -0.8240   -0.7370    0.1969 C   0  0  0  0  0  0  0  0  0  0  0  0
   -1.8520    0.1756    0.0801 C   0  0  0  0  0  0  0  0  0  0  0  0
   -1.8109    1.5078    0.0342 N   0  0  0  0  0  0  0  0  0  0  0  0
   -2.9935    2.1800   -0.0862 C   0  0  0  0  0  0  0  0  0  0  0  0
   -4.1770    1.5251   -0.1577 N   0  0  0  0  0  0  0  0  0  0  0  0
   -4.2195    0.1800   -0.1115 C   0  0  0  0  0  0  0  0  0  0  0  0
   -5.4003   -0.6084   -0.1779 N   0  0  0  0  0  0  0  0  0  0  0  0
   -3.0417   -0.5129    0.0093 C   0  0  0  0  0  0  0  0  0  0  0  0
   -2.7140   -1.8002    0.0834 N   0  0  0  0  0  0  0  0  0  0  0  0
   -1.4082   -1.9581    0.1948 N   0  0  0  0  0  0  0  0  0  0  0  0
    1.3071   -0.5535   -1.0628 C   0  0  2  0  0  0  0  0  0  0  0  0
    1.3805   -1.8180   -1.6060 O   0  0  0  0  0  0  0  0  0  0  0  0
    2.6670   -0.0157   -0.6663 C   0  0  2  0  0  0  0  0  0  0  0  0
    3.6306   -1.0244   -0.7342 O   0  0  0  0  0  0  0  0  0  0  0  0
    2.6708   -0.3101    1.4833 H   0  0  0  0  0  0  0  0  0  0  0  0
    2.8659    2.2875    1.8841 H   0  0  0  0  0  0  0  0  0  0  0  0
    3.0052    2.4226    0.1119 H   0  0  0  0  0  0  0  0  0  0  0  0
    4.7080    0.5452    0.6207 H   0  0  0  0  0  0  0  0  0  0  0  0
    1.0555   -1.3306    0.9735 H   0  0  0  0  0  0  0  0  0  0  0  0
   -3.0994    3.2555   -0.1345 H   0  0  0  0  0  0  0  0  0  0  0  0
   -6.1819   -0.3918   -0.8369 H   0  0  0  0  0  0  0  0  0  0  0  0
   -5.5680   -1.4502    0.4205 H   0  0  0  0  0  0  0  0  0  0  0  0
   -0.9456   -2.8906    0.2666 H   0  0  0  0  0  0  0  0  0  0  0  0
    0.7216    0.1406   -1.6882 H   0  0  0  0  0  0  0  0  0  0  0  0
    1.4562   -2.4521   -0.8491 H   0  0  0  0  0  0  0  0  0  0  0  0
    2.8752    0.8246   -1.3443 H   0  0  0  0  0  0  0  0  0  0  0  0
    4.0810   -0.9530   -1.6054 H   0  0  0  0  0  0  0  0  0  0  0  0
  1  2  1  0
  2  3  1  0
  1  4  1  0
  4  5  1  0
  5  6  1  0
  6  7  2  0
  7  8  1  0
  8  9  2  0
  9 10  1  0
 10 11  2  0
 11 12  1  0
 11 13  1  0
 13 14  2  0
 14 15  1  0
  5 16  1  0
 16 17  1  0
 16 18  1  0
 18 19  1  0
 18  1  1  0
 15  6  1  0
 13  7  1  0
  1 20  1  1
  2 21  1  0
  2 22  1  0
  3 23  1  0
  5 24  1  1
  9 25  1  0
 12 26  1  0
 12 27  1  0
 15 28  1  0
 16 29  1  6
 17 30  1  0
 18 31  1  6
 19 32  1  0
M  END
$$$$
