
     RDKit          3D

 66 69  0  0  0  0  0  0  0  0999 V2000
   -9.9564    1.9917   -1.4907 C   0  0  0  0  0  0  0  0  0  0  0  0
   -9.6946    1.7989   -0.1012 O   0  0  0  0  0  0  0  0  0  0  0  0
   -9.3323    0.5030    0.2914 C   0  0  0  0  0  0  0  0  0  0  0  0
  -10.2970   -0.4183    0.6681 C   0  0  0  0  0  0  0  0  0  0  0  0
  -12.1170    0.1579    0.6266 Br  0  0  0  0  0  0  0  0  0  0  0  0
   -9.9290   -1.6939    1.0530 C   0  0  0  0  0  0  0  0  0  0  0  0
   -8.5990   -2.0814    1.0723 C   0  0  0  0  0  0  0  0  0  0  0  0
   -7.6154   -1.1655    0.6959 C   0  0  0  0  0  0  0  0  0  0  0  0
   -6.3086   -1.2400    0.6150 O   0  0  0  0  0  0  0  0  0  0  0  0
   -5.7932   -0.1021    0.2041 C   0  0  0  0  0  0  0  0  0  0  0  0
   -4.3900    0.2193   -0.0137 C   0  0  0  0  0  0  0  0  0  0  0  0
   -4.0221    1.3449   -0.4171 O   0  0  0  0  0  0  0  0  0  0  0  0
   -3.3465   -0.7354    0.2214 N   0  0  0  0  0  0  0  0  0  0  0  0
   -1.9759   -0.4568    0.0208 C   0  0  0  0  0  0  0  0  0  0  0  0
   -1.3420   -0.6717   -1.1797 C   0  0  0  0  0  0  0  0  0  0  0  0
    0.0200   -0.3824   -1.3359 C   0  0  0  0  0  0  0  0  0  0  0  0
    0.7531    0.1222   -0.2946 C   0  0  0  0  0  0  0  0  0  0  0  0
    2.1678    0.4311   -0.4294 C   0  0  0  0  0  0  0  0  0  0  0  0
    2.7081    1.4597    0.3078 C   0  0  0  0  0  0  0  0  0  0  0  0
    4.0388    1.8269    0.2475 C   0  0  0  0  0  0  0  0  0  0  0  0
    4.8519    1.1022   -0.6112 C   0  0  0  0  0  0  0  0  0  0  0  0
    6.5336    1.5889   -0.6712 S   0  0  0  0  0  6  0  0  0  0  0  0
    6.6422    3.0712   -0.3393 O   0  0  0  0  0  0  0  0  0  0  0  0
    7.1005    1.4136   -2.0384 O   0  0  0  0  0  0  0  0  0  0  0  0
    7.4462    0.7610    0.5361 N   0  0  0  0  0  0  0  0  0  0  0  0
    7.4440   -0.6625    0.3632 C   0  0  2  0  0  0  0  0  0  0  0  0
    6.8339   -1.3457    1.5286 C   0  0  0  0  0  0  0  0  0  0  0  0
    6.7588   -2.5929    1.5253 O   0  0  0  0  0  0  0  0  0  0  0  0
    6.3555   -0.6368    2.5995 O   0  0  0  0  0  0  0  0  0  0  0  0
    8.8600   -1.1462    0.1428 C   0  0  0  0  0  0  0  0  0  0  0  0
    9.4266   -0.4921   -1.0883 C   0  0  0  0  0  0  0  0  0  0  0  0
    8.8415   -2.6440   -0.0908 C   0  0  0  0  0  0  0  0  0  0  0  0
    4.3285    0.0689   -1.3573 C   0  0  0  0  0  0  0  0  0  0  0  0
    2.9844   -0.2728   -1.2711 C   0  0  0  0  0  0  0  0  0  0  0  0
    0.1290    0.3409    0.9104 C   0  0  0  0  0  0  0  0  0  0  0  0
   -1.2172    0.0493    1.0470 C   0  0  0  0  0  0  0  0  0  0  0  0
   -6.8429    0.7707    0.0052 C   0  0  0  0  0  0  0  0  0  0  0  0
   -6.8314    2.1849   -0.4512 C   0  0  0  0  0  0  0  0  0  0  0  0
   -8.0199    0.0960    0.3186 C   0  0  0  0  0  0  0  0  0  0  0  0
   -9.2552    2.7082   -1.9541 H   0  0  0  0  0  0  0  0  0  0  0  0
  -10.9738    2.4106   -1.6388 H   0  0  0  0  0  0  0  0  0  0  0  0
   -9.9220    1.0473   -2.0601 H   0  0  0  0  0  0  0  0  0  0  0  0
  -10.7103   -2.4031    1.3463 H   0  0  0  0  0  0  0  0  0  0  0  0
   -8.3124   -3.0721    1.3713 H   0  0  0  0  0  0  0  0  0  0  0  0
   -3.6516   -1.6754    0.5578 H   0  0  0  0  0  0  0  0  0  0  0  0
   -1.9281   -1.0699   -1.9958 H   0  0  0  0  0  0  0  0  0  0  0  0
    0.4785   -0.5709   -2.3109 H   0  0  0  0  0  0  0  0  0  0  0  0
    2.0772    2.0473    0.9956 H   0  0  0  0  0  0  0  0  0  0  0  0
    4.4005    2.6430    0.8513 H   0  0  0  0  0  0  0  0  0  0  0  0
    7.0441    0.9853    1.4611 H   0  0  0  0  0  0  0  0  0  0  0  0
    6.8405   -0.8856   -0.5410 H   0  0  0  0  0  0  0  0  0  0  0  0
    6.3733   -1.0249    3.5525 H   0  0  0  0  0  0  0  0  0  0  0  0
    9.5005   -0.9165    1.0055 H   0  0  0  0  0  0  0  0  0  0  0  0
   10.4518   -0.8600   -1.3248 H   0  0  0  0  0  0  0  0  0  0  0  0
    9.4880    0.5950   -0.9535 H   0  0  0  0  0  0  0  0  0  0  0  0
    8.8085   -0.7360   -1.9675 H   0  0  0  0  0  0  0  0  0  0  0  0
    9.0110   -3.1602    0.8758 H   0  0  0  0  0  0  0  0  0  0  0  0
    9.6283   -2.9060   -0.8285 H   0  0  0  0  0  0  0  0  0  0  0  0
    7.8428   -2.8850   -0.5256 H   0  0  0  0  0  0  0  0  0  0  0  0
    5.0094   -0.4621   -2.0133 H   0  0  0  0  0  0  0  0  0  0  0  0
    2.6105   -1.1069   -1.8872 H   0  0  0  0  0  0  0  0  0  0  0  0
    0.7056    0.7463    1.7575 H   0  0  0  0  0  0  0  0  0  0  0  0
   -1.7046    0.2222    1.9946 H   0  0  0  0  0  0  0  0  0  0  0  0
   -6.9087    2.2960   -1.5359 H   0  0  0  0  0  0  0  0  0  0  0  0
   -7.6242    2.7956    0.0330 H   0  0  0  0  0  0  0  0  0  0  0  0
   -5.8736    2.6754   -0.1449 H   0  0  0  0  0  0  0  0  0  0  0  0
  1  2  1  0
  2  3  1  0
  3  4  2  0
  4  5  1  0
  4  6  1  0
  6  7  2  0
  7  8  1  0
  8  9  1  0
  9 10  1  0
 10 11  1  0
 11 12  2  0
 11 13  1  0
 13 14  1  0
 14 15  2  0
 15 16  1  0
 16 17  2  0
 17 18  1  0
 18 19  2  0
 19 20  1  0
 20 21  2  0
 21 22  1  0
 22 23  2  0
 22 24  2  0
 22 25  1  0
 25 26  1  0
 26 27  1  0
 27 28  2  0
 27 29  1  0
 26 30  1  0
 30 31  1  0
 30 32  1  0
 21 33  1  0
 33 34  2  0
 17 35  1  0
 35 36  2  0
 10 37  2  0
 37 38  1  0
 37 39  1  0
 39  3  1  0
 39  8  2  0
 36 14  1  0
 34 18  1  0
  1 40  1  0
  1 41  1  0
  1 42  1  0
  6 43  1  0
  7 44  1  0
 13 45  1  0
 15 46  1  0
 16 47  1  0
 19 48  1  0
 20 49  1  0
 25 50  1  0
 26 51  1  6
 29 52  1  0
 30 53  1  0
 31 54  1  0
 31 55  1  0
 31 56  1  0
 32 57  1  0
 32 58  1  0
 32 59  1  0
 33 60  1  0
 34 61  1  0
 35 62  1  0
 36 63  1  0
 38 64  1  0
 38 65  1  0
 38 66  1  0
M  END
$$$$
