
     RDKit          3D

 59 62  0  0  0  0  0  0  0  0999 V2000
    3.9467    3.4555    0.6382 C   0  0  0  0  0  0  0  0  0  0  0  0
    4.7455    2.3324    0.3139 O   0  0  0  0  0  0  0  0  0  0  0  0
    4.1796    1.0638    0.1425 C   0  0  0  0  0  0  0  0  0  0  0  0
    2.8130    0.8749    0.2878 C   0  0  0  0  0  0  0  0  0  0  0  0
    2.2345   -0.3669    0.1232 C   0  0  0  0  0  0  0  0  0  0  0  0
    0.7362   -0.5339    0.2839 C   0  0  0  0  0  0  0  0  0  0  0  0
    0.3786   -0.6172    1.7460 C   0  0  0  0  0  0  0  0  0  0  0  0
    0.1329    0.5604   -0.3922 N   0  0  0  0  0  0  0  0  0  0  0  0
   -0.9943    0.7591   -0.8316 N   0  0  0  0  0  0  0  0  0  0  0  0
   -2.0471   -0.1768   -0.7421 C   0  0  0  0  0  0  0  0  0  0  0  0
   -1.8986   -1.4053   -0.2299 N   0  0  0  0  0  0  0  0  0  0  0  0
   -2.8866   -2.3065   -0.1544 C   0  0  0  0  0  0  0  0  0  0  0  0
   -2.6884   -3.5691    0.3837 C   0  0  0  0  0  0  0  0  0  0  0  0
   -3.7337   -4.4585    0.4377 C   0  0  0  0  0  0  0  0  0  0  0  0
   -5.0016   -4.1317   -0.0351 C   0  0  0  0  0  0  0  0  0  0  0  0
   -5.1585   -2.8690   -0.5620 C   0  0  0  0  0  0  0  0  0  0  0  0
   -4.1364   -1.9330   -0.6404 C   0  0  0  0  0  0  0  0  0  0  0  0
   -4.3338   -0.7160   -1.1613 N   0  0  0  0  0  0  0  0  0  0  0  0
   -3.3150    0.1520   -1.2150 C   0  0  0  0  0  0  0  0  0  0  0  0
   -3.5642    1.5044   -1.7800 C   0  0  0  0  0  0  0  0  0  0  0  0
   -3.7303    2.4854   -0.6748 C   0  0  0  0  0  0  0  0  0  0  0  0
   -4.9484    2.5280    0.0097 C   0  0  0  0  0  0  0  0  0  0  0  0
   -5.1241    3.4333    1.0251 C   0  0  0  0  0  0  0  0  0  0  0  0
   -4.1458    4.3179    1.4117 C   0  0  0  0  0  0  0  0  0  0  0  0
   -2.9544    4.2702    0.7353 C   0  0  0  0  0  0  0  0  0  0  0  0
   -2.7418    3.3593   -0.3056 C   0  0  0  0  0  0  0  0  0  0  0  0
    3.0547   -1.4249   -0.1917 C   0  0  0  0  0  0  0  0  0  0  0  0
    4.4260   -1.2731   -0.3449 C   0  0  0  0  0  0  0  0  0  0  0  0
    5.2369   -2.3635   -0.6645 O   0  0  0  0  0  0  0  0  0  0  0  0
    4.6394   -3.6270   -0.8283 C   0  0  0  0  0  0  0  0  0  0  0  0
    4.9787   -0.0118   -0.1732 C   0  0  0  0  0  0  0  0  0  0  0  0
    6.3452    0.1502   -0.3243 O   0  0  0  0  0  0  0  0  0  0  0  0
    7.2046    0.0030    0.7899 C   0  0  0  0  0  0  0  0  0  0  0  0
    4.5390    4.3805    0.4929 H   0  0  0  0  0  0  0  0  0  0  0  0
    3.0753    3.4958   -0.0627 H   0  0  0  0  0  0  0  0  0  0  0  0
    3.6043    3.3747    1.6848 H   0  0  0  0  0  0  0  0  0  0  0  0
    2.2336    1.7356    0.5320 H   0  0  0  0  0  0  0  0  0  0  0  0
    0.4254   -1.4866   -0.1941 H   0  0  0  0  0  0  0  0  0  0  0  0
    1.2455   -0.3684    2.4133 H   0  0  0  0  0  0  0  0  0  0  0  0
    0.0195   -1.6285    2.0335 H   0  0  0  0  0  0  0  0  0  0  0  0
   -0.4118    0.1193    2.0366 H   0  0  0  0  0  0  0  0  0  0  0  0
   -1.7275   -3.8329    0.7495 H   0  0  0  0  0  0  0  0  0  0  0  0
   -3.6392   -5.4600    0.8475 H   0  0  0  0  0  0  0  0  0  0  0  0
   -5.8386   -4.8397    0.0060 H   0  0  0  0  0  0  0  0  0  0  0  0
   -6.1227   -2.5546   -0.9463 H   0  0  0  0  0  0  0  0  0  0  0  0
   -2.7150    1.7971   -2.4055 H   0  0  0  0  0  0  0  0  0  0  0  0
   -4.4838    1.5320   -2.3879 H   0  0  0  0  0  0  0  0  0  0  0  0
   -5.7102    1.8297   -0.3003 H   0  0  0  0  0  0  0  0  0  0  0  0
   -6.0681    3.4604    1.5489 H   0  0  0  0  0  0  0  0  0  0  0  0
   -4.3430    5.0211    2.2339 H   0  0  0  0  0  0  0  0  0  0  0  0
   -2.1500    4.9519    1.0071 H   0  0  0  0  0  0  0  0  0  0  0  0
   -1.8053    3.3635   -0.8112 H   0  0  0  0  0  0  0  0  0  0  0  0
    2.5688   -2.3921   -0.3157 H   0  0  0  0  0  0  0  0  0  0  0  0
    4.0086   -3.6173   -1.7466 H   0  0  0  0  0  0  0  0  0  0  0  0
    3.9611   -3.8667    0.0405 H   0  0  0  0  0  0  0  0  0  0  0  0
    5.4169   -4.4065   -0.8547 H   0  0  0  0  0  0  0  0  0  0  0  0
    6.6241   -0.2019    1.7267 H   0  0  0  0  0  0  0  0  0  0  0  0
    7.7292    0.9679    0.9867 H   0  0  0  0  0  0  0  0  0  0  0  0
    7.9146   -0.8398    0.6709 H   0  0  0  0  0  0  0  0  0  0  0  0
  1  2  1  0
  2  3  1  0
  3  4  2  0
  4  5  1  0
  5  6  1  0
  6  7  1  0
  6  8  1  0
  8  9  2  3
  9 10  1  0
 10 11  2  0
 11 12  1  0
 12 13  2  0
 13 14  1  0
 14 15  2  0
 15 16  1  0
 16 17  2  0
 17 18  1  0
 18 19  2  0
 19 20  1  0
 20 21  1  0
 21 22  2  0
 22 23  1  0
 23 24  2  0
 24 25  1  0
 25 26  2  0
  5 27  2  0
 27 28  1  0
 28 29  1  0
 29 30  1  0
 28 31  2  0
 31 32  1  0
 32 33  1  0
 31  3  1  0
 19 10  1  0
 26 21  1  0
 17 12  1  0
  1 34  1  0
  1 35  1  0
  1 36  1  0
  4 37  1  0
  6 38  1  0
  7 39  1  0
  7 40  1  0
  7 41  1  0
 13 42  1  0
 14 43  1  0
 15 44  1  0
 16 45  1  0
 20 46  1  0
 20 47  1  0
 22 48  1  0
 23 49  1  0
 24 50  1  0
 25 51  1  0
 26 52  1  0
 27 53  1  0
 30 54  1  0
 30 55  1  0
 30 56  1  0
 33 57  1  0
 33 58  1  0
 33 59  1  0
M  END
$$$$
