
     RDKit          3D

 28 29  0  0  0  0  0  0  0  0999 V2000
    4.2971    1.8273    0.1569 C   0  0  0  0  0  0  0  0  0  0  0  0
    4.1596    0.3779    0.3871 C   0  0  0  0  0  0  0  0  0  0  0  0
    2.9999   -0.3508    0.3147 C   0  0  0  0  0  0  0  0  0  0  0  0
    3.3237   -1.6718    0.6040 C   0  0  0  0  0  0  0  0  0  0  0  0
    4.6322   -1.6792    0.8316 N   0  0  0  0  0  0  0  0  0  0  0  0
    5.0890   -0.4887    0.7004 O   0  0  0  0  0  0  0  0  0  0  0  0
    1.6464    0.0833    0.0052 C   0  0  0  0  0  0  0  0  0  0  0  0
    1.4570    1.1382   -0.6435 O   0  0  0  0  0  0  0  0  0  0  0  0
    0.5010   -0.6492    0.4133 N   0  0  0  0  0  0  0  0  0  0  0  0
   -0.8766   -0.3979    0.2156 C   0  0  0  0  0  0  0  0  0  0  0  0
   -1.8003   -1.2798    0.7246 C   0  0  0  0  0  0  0  0  0  0  0  0
   -3.1543   -1.0917    0.5692 C   0  0  0  0  0  0  0  0  0  0  0  0
   -3.6583   -0.0106   -0.1039 C   0  0  0  0  0  0  0  0  0  0  0  0
   -2.7767    0.8841   -0.6212 C   0  0  0  0  0  0  0  0  0  0  0  0
   -1.4160    0.6746   -0.4529 C   0  0  0  0  0  0  0  0  0  0  0  0
   -5.1374    0.1611   -0.2511 C   0  0  0  0  0  0  0  0  0  0  0  0
   -5.5422    1.0020    0.7681 F   0  0  0  0  0  0  0  0  0  0  0  0
   -5.7115   -1.0850   -0.2009 F   0  0  0  0  0  0  0  0  0  0  0  0
   -5.3679    0.7496   -1.4884 F   0  0  0  0  0  0  0  0  0  0  0  0
    5.2724    2.0062   -0.3696 H   0  0  0  0  0  0  0  0  0  0  0  0
    4.3661    2.3693    1.1088 H   0  0  0  0  0  0  0  0  0  0  0  0
    3.5079    2.2452   -0.4800 H   0  0  0  0  0  0  0  0  0  0  0  0
    2.6297   -2.4961    0.6284 H   0  0  0  0  0  0  0  0  0  0  0  0
    0.7613   -1.5153    0.9505 H   0  0  0  0  0  0  0  0  0  0  0  0
   -1.4642   -2.1593    1.2709 H   0  0  0  0  0  0  0  0  0  0  0  0
   -3.8198   -1.8208    0.9945 H   0  0  0  0  0  0  0  0  0  0  0  0
   -3.1382    1.7649   -1.1685 H   0  0  0  0  0  0  0  0  0  0  0  0
   -0.7801    1.4125   -0.8863 H   0  0  0  0  0  0  0  0  0  0  0  0
  1  2  1  0
  2  3  2  0
  3  4  1  0
  4  5  2  0
  5  6  1  0
  3  7  1  0
  7  8  2  0
  7  9  1  0
  9 10  1  0
 10 11  2  0
 11 12  1  0
 12 13  2  0
 13 14  1  0
 14 15  2  0
 13 16  1  0
 16 17  1  0
 16 18  1  0
 16 19  1  0
  6  2  1  0
 15 10  1  0
  1 20  1  0
  1 21  1  0
  1 22  1  0
  4 23  1  0
  9 24  1  0
 11 25  1  0
 12 26  1  0
 14 27  1  0
 15 28  1  0
M  END
$$$$
