
     RDKit          3D

 80 83  0  0  0  0  0  0  0  0999 V2000
  -10.4206   -1.3400    1.0496 C   0  0  0  0  0  0  0  0  0  0  0  0
   -9.1032   -0.9309    0.7452 N   0  0  0  0  0  0  0  0  0  0  0  0
   -8.5357   -1.4325   -0.4703 C   0  0  0  0  0  0  0  0  0  0  0  0
   -8.9205   -2.9101   -0.5526 C   0  0  0  0  0  0  0  0  0  0  0  0
   -9.0078   -0.7506   -1.7008 C   0  0  0  0  0  0  0  0  0  0  0  0
   -7.0361   -1.4029   -0.2782 C   0  0  0  0  0  0  0  0  0  0  0  0
   -6.6217    0.0435   -0.2651 C   0  0  0  0  0  0  0  0  0  0  0  0
   -5.4556    0.1195    0.5135 O   0  0  0  0  0  0  0  0  0  0  0  0
   -4.1987    0.4708    0.1741 C   0  0  0  0  0  0  0  0  0  0  0  0
   -3.8344    0.8466   -1.0841 C   0  0  0  0  0  0  0  0  0  0  0  0
   -2.5053    1.2002   -1.3676 C   0  0  0  0  0  0  0  0  0  0  0  0
   -1.5676    1.1658   -0.3664 C   0  0  0  0  0  0  0  0  0  0  0  0
   -0.1514    1.5449   -0.6663 C   0  0  0  0  0  0  0  0  0  0  0  0
    0.1484    1.8893   -1.8266 O   0  0  0  0  0  0  0  0  0  0  0  0
    0.8112    1.5079    0.3573 N   0  0  0  0  0  0  0  0  0  0  0  0
    2.1745    1.8400    0.2262 C   0  0  0  0  0  0  0  0  0  0  0  0
    2.7592    2.3022   -0.9156 C   0  0  0  0  0  0  0  0  0  0  0  0
    4.1242    2.6120   -1.0004 C   0  0  0  0  0  0  0  0  0  0  0  0
    4.9527    2.4630    0.0787 C   0  0  0  0  0  0  0  0  0  0  0  0
    6.3385    2.7619    0.0535 N   0  0  0  0  0  0  0  0  0  0  0  0
    7.3396    1.8285   -0.3058 C   0  0  0  0  0  0  0  0  0  0  0  0
    7.0066    0.6669   -0.6271 O   0  0  0  0  0  0  0  0  0  0  0  0
    8.7270    2.1469   -0.3212 N   0  0  0  0  0  0  0  0  0  0  0  0
    9.6739    1.1564   -0.7006 C   0  0  0  0  0  0  0  0  0  0  0  0
   10.2937    0.2484    0.1302 C   0  0  0  0  0  0  0  0  0  0  0  0
   11.1428   -0.5218   -0.6673 C   0  0  0  0  0  0  0  0  0  0  0  0
   12.0393   -1.6397   -0.2648 C   0  0  0  0  0  0  0  0  0  0  0  0
   11.9578   -1.9350    1.2029 C   0  0  0  0  0  0  0  0  0  0  0  0
   13.4386   -1.2721   -0.6993 C   0  0  0  0  0  0  0  0  0  0  0  0
   11.5481   -2.8712   -1.0061 C   0  0  0  0  0  0  0  0  0  0  0  0
   11.0065   -0.0707   -1.8796 O   0  0  0  0  0  0  0  0  0  0  0  0
   10.1646    0.9006   -1.9373 N   0  0  0  0  0  0  0  0  0  0  0  0
    4.3614    1.9911    1.2493 C   0  0  0  0  0  0  0  0  0  0  0  0
    3.0317    1.6917    1.3241 C   0  0  0  0  0  0  0  0  0  0  0  0
   -1.9401    0.7951    0.8608 N   0  0  0  0  0  0  0  0  0  0  0  0
   -3.1955    0.4564    1.1498 C   0  0  0  0  0  0  0  0  0  0  0  0
   -7.6700    0.9993    0.2323 C   0  0  0  0  0  0  0  0  0  0  0  0
   -8.7750    0.4283    1.0392 C   0  0  0  0  0  0  0  0  0  0  0  0
   -8.4199    0.4924    2.5135 C   0  0  0  0  0  0  0  0  0  0  0  0
  -10.0171    1.2747    0.8472 C   0  0  0  0  0  0  0  0  0  0  0  0
  -10.7488   -0.8197    1.9750 H   0  0  0  0  0  0  0  0  0  0  0  0
  -11.1527   -1.3044    0.2310 H   0  0  0  0  0  0  0  0  0  0  0  0
  -10.3766   -2.4296    1.3544 H   0  0  0  0  0  0  0  0  0  0  0  0
   -8.4613   -3.3369   -1.4626 H   0  0  0  0  0  0  0  0  0  0  0  0
  -10.0230   -3.0268   -0.6199 H   0  0  0  0  0  0  0  0  0  0  0  0
   -8.5093   -3.4824    0.3158 H   0  0  0  0  0  0  0  0  0  0  0  0
   -9.8039    0.0018   -1.5285 H   0  0  0  0  0  0  0  0  0  0  0  0
   -8.1721   -0.2525   -2.2358 H   0  0  0  0  0  0  0  0  0  0  0  0
   -9.4142   -1.4978   -2.4094 H   0  0  0  0  0  0  0  0  0  0  0  0
   -6.8418   -1.9085    0.6925 H   0  0  0  0  0  0  0  0  0  0  0  0
   -6.5868   -1.9119   -1.1280 H   0  0  0  0  0  0  0  0  0  0  0  0
   -6.3463    0.2945   -1.3084 H   0  0  0  0  0  0  0  0  0  0  0  0
   -4.5566    0.8784   -1.8749 H   0  0  0  0  0  0  0  0  0  0  0  0
   -2.2059    1.4993   -2.3602 H   0  0  0  0  0  0  0  0  0  0  0  0
    0.4469    1.1937    1.3278 H   0  0  0  0  0  0  0  0  0  0  0  0
    2.1818    2.4558   -1.8222 H   0  0  0  0  0  0  0  0  0  0  0  0
    4.5487    2.9776   -1.9334 H   0  0  0  0  0  0  0  0  0  0  0  0
    6.6685    3.7275    0.3116 H   0  0  0  0  0  0  0  0  0  0  0  0
    9.0091    3.1155   -0.0526 H   0  0  0  0  0  0  0  0  0  0  0  0
   10.1690    0.1301    1.1872 H   0  0  0  0  0  0  0  0  0  0  0  0
   11.6702   -1.0911    1.8295 H   0  0  0  0  0  0  0  0  0  0  0  0
   11.3468   -2.8514    1.4083 H   0  0  0  0  0  0  0  0  0  0  0  0
   13.0003   -2.2240    1.5249 H   0  0  0  0  0  0  0  0  0  0  0  0
   14.1620   -1.8218   -0.0601 H   0  0  0  0  0  0  0  0  0  0  0  0
   13.5479   -1.6087   -1.7557 H   0  0  0  0  0  0  0  0  0  0  0  0
   13.6455   -0.1929   -0.5925 H   0  0  0  0  0  0  0  0  0  0  0  0
   10.5413   -3.1336   -0.6129 H   0  0  0  0  0  0  0  0  0  0  0  0
   11.4457   -2.6539   -2.0780 H   0  0  0  0  0  0  0  0  0  0  0  0
   12.2053   -3.7269   -0.7883 H   0  0  0  0  0  0  0  0  0  0  0  0
    5.0213    1.8763    2.0974 H   0  0  0  0  0  0  0  0  0  0  0  0
    2.5782    1.3242    2.2389 H   0  0  0  0  0  0  0  0  0  0  0  0
   -3.4645    0.1665    2.1348 H   0  0  0  0  0  0  0  0  0  0  0  0
   -7.1177    1.7895    0.8201 H   0  0  0  0  0  0  0  0  0  0  0  0
   -8.0708    1.5403   -0.6498 H   0  0  0  0  0  0  0  0  0  0  0  0
   -7.7018    1.3547    2.6428 H   0  0  0  0  0  0  0  0  0  0  0  0
   -7.9356   -0.4518    2.8120 H   0  0  0  0  0  0  0  0  0  0  0  0
   -9.3330    0.7178    3.1325 H   0  0  0  0  0  0  0  0  0  0  0  0
   -9.8431    2.0358    0.0304 H   0  0  0  0  0  0  0  0  0  0  0  0
  -10.9215    0.6824    0.6148 H   0  0  0  0  0  0  0  0  0  0  0  0
  -10.2652    1.8802    1.7478 H   0  0  0  0  0  0  0  0  0  0  0  0
  1  2  1  0
  2  3  1  0
  3  4  1  0
  3  5  1  0
  3  6  1  0
  6  7  1  0
  7  8  1  0
  8  9  1  0
  9 10  2  0
 10 11  1  0
 11 12  2  0
 12 13  1  0
 13 14  2  0
 13 15  1  0
 15 16  1  0
 16 17  2  0
 17 18  1  0
 18 19  2  0
 19 20  1  0
 20 21  1  0
 21 22  2  0
 21 23  1  0
 23 24  1  0
 24 25  1  0
 25 26  2  0
 26 27  1  0
 27 28  1  0
 27 29  1  0
 27 30  1  0
 26 31  1  0
 31 32  1  0
 19 33  1  0
 33 34  2  0
 12 35  1  0
 35 36  2  0
  7 37  1  0
 37 38  1  0
 38 39  1  0
 38 40  1  0
 38  2  1  0
 36  9  1  0
 34 16  1  0
 32 24  2  0
  1 41  1  0
  1 42  1  0
  1 43  1  0
  4 44  1  0
  4 45  1  0
  4 46  1  0
  5 47  1  0
  5 48  1  0
  5 49  1  0
  6 50  1  0
  6 51  1  0
  7 52  1  0
 10 53  1  0
 11 54  1  0
 15 55  1  0
 17 56  1  0
 18 57  1  0
 20 58  1  0
 23 59  1  0
 25 60  1  0
 28 61  1  0
 28 62  1  0
 28 63  1  0
 29 64  1  0
 29 65  1  0
 29 66  1  0
 30 67  1  0
 30 68  1  0
 30 69  1  0
 33 70  1  0
 34 71  1  0
 36 72  1  0
 37 73  1  0
 37 74  1  0
 39 75  1  0
 39 76  1  0
 39 77  1  0
 40 78  1  0
 40 79  1  0
 40 80  1  0
M  END
$$$$
