
     RDKit          3D

 45 47  0  0  0  0  0  0  0  0999 V2000
   -4.8567   -1.2660    0.1944 C   0  0  0  0  0  0  0  0  0  0  0  0
   -3.4976   -0.9205    0.7235 C   0  0  0  0  0  0  0  0  0  0  0  0
   -3.6598   -0.1627    2.0223 C   0  0  0  0  0  0  0  0  0  0  0  0
   -2.6500   -0.1688   -0.2680 C   0  0  0  0  0  0  0  0  0  0  0  0
   -1.3179    0.0876    0.4342 C   0  0  0  0  0  0  0  0  0  0  0  0
   -0.5288    0.9448   -0.4730 N   0  0  0  0  0  0  0  0  0  0  0  0
    0.7242    0.4423   -0.8520 C   0  0  0  0  0  0  0  0  0  0  0  0
    1.6862    0.2274    0.0745 N   0  0  0  0  0  0  0  0  0  0  0  0
    2.9221   -0.2578   -0.2330 C   0  0  0  0  0  0  0  0  0  0  0  0
    3.8855   -0.4672    0.8424 C   0  0  0  0  0  0  0  0  0  0  0  0
    5.1448   -0.9205    0.6210 C   0  0  0  0  0  0  0  0  0  0  0  0
    6.0175   -1.1078    1.6975 C   0  0  0  0  0  0  0  0  0  0  0  0
    5.6354   -0.8458    2.9703 N   0  0  0  0  0  0  0  0  0  0  0  0
    4.3867   -0.3924    3.2226 C   0  0  0  0  0  0  0  0  0  0  0  0
    3.5190   -0.2055    2.1595 C   0  0  0  0  0  0  0  0  0  0  0  0
    2.2549    0.2494    2.3931 F   0  0  0  0  0  0  0  0  0  0  0  0
    3.2052   -0.5397   -1.5315 C   0  0  0  0  0  0  0  0  0  0  0  0
    2.2544   -0.3326   -2.4815 C   0  0  0  0  0  0  0  0  0  0  0  0
    2.4994   -0.5900   -3.6913 O   0  0  0  0  0  0  0  0  0  0  0  0
    1.0319    0.1546   -2.1238 N   0  0  0  0  0  0  0  0  0  0  0  0
    0.0420    0.3724   -3.1495 C   0  0  0  0  0  0  0  0  0  0  0  0
   -1.1659    2.1600   -0.8257 C   0  0  0  0  0  0  0  0  0  0  0  0
   -2.5310    1.8651   -1.3756 C   0  0  0  0  0  0  0  0  0  0  0  0
   -3.2373    1.0702   -0.4960 O   0  0  0  0  0  0  0  0  0  0  0  0
   -4.7558   -1.9389   -0.6817 H   0  0  0  0  0  0  0  0  0  0  0  0
   -5.4069   -1.8489    0.9604 H   0  0  0  0  0  0  0  0  0  0  0  0
   -5.4145   -0.3466   -0.0182 H   0  0  0  0  0  0  0  0  0  0  0  0
   -2.9662   -1.8661    0.9699 H   0  0  0  0  0  0  0  0  0  0  0  0
   -3.5585    0.9158    1.7855 H   0  0  0  0  0  0  0  0  0  0  0  0
   -4.6315   -0.4210    2.4821 H   0  0  0  0  0  0  0  0  0  0  0  0
   -2.8759   -0.4111    2.7712 H   0  0  0  0  0  0  0  0  0  0  0  0
   -2.5283   -0.7883   -1.1611 H   0  0  0  0  0  0  0  0  0  0  0  0
   -0.7949   -0.8076    0.7461 H   0  0  0  0  0  0  0  0  0  0  0  0
   -1.5793    0.7713    1.2908 H   0  0  0  0  0  0  0  0  0  0  0  0
    5.5243   -1.1494   -0.3412 H   0  0  0  0  0  0  0  0  0  0  0  0
    7.0274   -1.4663    1.5615 H   0  0  0  0  0  0  0  0  0  0  0  0
    4.1086   -0.1934    4.2463 H   0  0  0  0  0  0  0  0  0  0  0  0
    4.1906   -0.9316   -1.8031 H   0  0  0  0  0  0  0  0  0  0  0  0
   -0.8663   -0.2218   -3.0117 H   0  0  0  0  0  0  0  0  0  0  0  0
   -0.1405    1.4590   -3.3144 H   0  0  0  0  0  0  0  0  0  0  0  0
    0.4610    0.0262   -4.1410 H   0  0  0  0  0  0  0  0  0  0  0  0
   -1.3543    2.7165    0.1445 H   0  0  0  0  0  0  0  0  0  0  0  0
   -0.5839    2.8638   -1.4307 H   0  0  0  0  0  0  0  0  0  0  0  0
   -2.5197    1.3976   -2.3879 H   0  0  0  0  0  0  0  0  0  0  0  0
   -3.0996    2.8443   -1.4158 H   0  0  0  0  0  0  0  0  0  0  0  0
  1  2  1  0
  2  3  1  0
  2  4  1  0
  4  5  1  0
  5  6  1  0
  6  7  1  0
  7  8  2  0
  8  9  1  0
  9 10  1  0
 10 11  2  0
 11 12  1  0
 12 13  2  0
 13 14  1  0
 14 15  2  0
 15 16  1  0
  9 17  2  0
 17 18  1  0
 18 19  2  0
 18 20  1  0
 20 21  1  0
  6 22  1  0
 22 23  1  0
 23 24  1  0
 24  4  1  0
 20  7  1  0
 15 10  1  0
  1 25  1  0
  1 26  1  0
  1 27  1  0
  2 28  1  0
  3 29  1  0
  3 30  1  0
  3 31  1  0
  4 32  1  0
  5 33  1  0
  5 34  1  0
 11 35  1  0
 12 36  1  0
 14 37  1  0
 17 38  1  0
 21 39  1  0
 21 40  1  0
 21 41  1  0
 22 42  1  0
 22 43  1  0
 23 44  1  0
 23 45  1  0
M  END
$$$$
