
     RDKit          3D

 50 52  0  0  0  0  0  0  0  0999 V2000
    1.6717   -2.1068    1.5889 C   0  0  0  0  0  0  0  0  0  0  0  0
    1.9924   -2.2740    0.1362 C   0  0  2  0  0  0  0  0  0  0  0  0
    3.4932   -2.2389   -0.1314 C   0  0  0  0  0  0  0  0  0  0  0  0
    3.9421   -0.9301   -0.4858 N   0  0  0  0  0  0  0  0  0  0  0  0
    5.1257   -0.4237    0.1084 C   0  0  0  0  0  0  0  0  0  0  0  0
    5.8033   -1.0812    0.9418 O   0  0  0  0  0  0  0  0  0  0  0  0
    5.5795    0.8229   -0.2118 O   0  0  0  0  0  0  0  0  0  0  0  0
    6.7040    1.4833    0.2630 C   0  0  0  0  0  0  0  0  0  0  0  0
    6.7576    1.7338    1.7303 C   0  0  0  0  0  0  0  0  0  0  0  0
    5.6872    2.5120    2.1549 F   0  0  0  0  0  0  0  0  0  0  0  0
    6.9455    0.6174    2.5063 F   0  0  0  0  0  0  0  0  0  0  0  0
    7.8858    2.5382    1.9560 F   0  0  0  0  0  0  0  0  0  0  0  0
    3.2294   -0.1150   -1.4214 C   0  0  0  0  0  0  0  0  0  0  0  0
    1.9839   -0.8354   -1.8735 C   0  0  0  0  0  0  0  0  0  0  0  0
    1.3071   -1.3439   -0.7182 N   0  0  0  0  0  0  0  0  0  0  0  0
   -0.0083   -0.9386   -0.4217 C   0  0  0  0  0  0  0  0  0  0  0  0
   -0.6722   -0.0563   -1.2121 N   0  0  0  0  0  0  0  0  0  0  0  0
   -1.9223    0.3214   -0.9169 C   0  0  0  0  0  0  0  0  0  0  0  0
   -2.5903   -0.1571    0.1862 C   0  0  0  0  0  0  0  0  0  0  0  0
   -3.8661    0.2260    0.4915 O   0  0  0  0  0  0  0  0  0  0  0  0
   -4.5331    1.1464   -0.3477 C   0  0  0  0  0  0  0  0  0  0  0  0
   -5.8770    1.3642    0.2379 C   0  0  0  0  0  0  0  0  0  0  0  0
   -6.1212    2.5297    0.9263 C   0  0  0  0  0  0  0  0  0  0  0  0
   -7.3679    2.7374    1.4755 C   0  0  0  0  0  0  0  0  0  0  0  0
   -8.2975    1.7848    1.3131 N   0  0  0  0  0  0  0  0  0  0  0  0
   -8.0823    0.6353    0.6431 C   0  0  0  0  0  0  0  0  0  0  0  0
   -6.8336    0.4046    0.0813 C   0  0  0  0  0  0  0  0  0  0  0  0
   -6.5955   -0.8234   -0.6384 C   0  0  0  0  0  0  0  0  0  0  0  0
   -6.3937   -1.8130   -1.2091 N   0  0  0  0  0  0  0  0  0  0  0  0
   -1.9061   -1.0506    0.9786 C   0  0  0  0  0  0  0  0  0  0  0  0
   -0.6723   -1.4054    0.6621 N   0  0  0  0  0  0  0  0  0  0  0  0
    0.8306   -2.7899    1.8849 H   0  0  0  0  0  0  0  0  0  0  0  0
    1.4338   -1.0508    1.7962 H   0  0  0  0  0  0  0  0  0  0  0  0
    2.5305   -2.3953    2.2317 H   0  0  0  0  0  0  0  0  0  0  0  0
    1.6572   -3.2992   -0.1577 H   0  0  0  0  0  0  0  0  0  0  0  0
    3.9731   -2.5481    0.8148 H   0  0  0  0  0  0  0  0  0  0  0  0
    3.7644   -3.0017   -0.9013 H   0  0  0  0  0  0  0  0  0  0  0  0
    6.7224    2.4958   -0.2383 H   0  0  0  0  0  0  0  0  0  0  0  0
    7.6637    1.0119   -0.0337 H   0  0  0  0  0  0  0  0  0  0  0  0
    2.8779    0.8136   -0.8965 H   0  0  0  0  0  0  0  0  0  0  0  0
    3.8492    0.1742   -2.3001 H   0  0  0  0  0  0  0  0  0  0  0  0
    1.3293   -0.1651   -2.4867 H   0  0  0  0  0  0  0  0  0  0  0  0
    2.2488   -1.7378   -2.5005 H   0  0  0  0  0  0  0  0  0  0  0  0
   -2.4181    1.0303   -1.5770 H   0  0  0  0  0  0  0  0  0  0  0  0
   -3.9690    2.1168   -0.3828 H   0  0  0  0  0  0  0  0  0  0  0  0
   -4.6111    0.7063   -1.3659 H   0  0  0  0  0  0  0  0  0  0  0  0
   -5.3904    3.3083    1.0694 H   0  0  0  0  0  0  0  0  0  0  0  0
   -7.6094    3.6281    2.0209 H   0  0  0  0  0  0  0  0  0  0  0  0
   -8.8653   -0.0940    0.5439 H   0  0  0  0  0  0  0  0  0  0  0  0
   -2.3869   -1.4675    1.8730 H   0  0  0  0  0  0  0  0  0  0  0  0
  1  2  1  0
  2  3  1  0
  3  4  1  0
  4  5  1  0
  5  6  2  0
  5  7  1  0
  7  8  1  0
  8  9  1  0
  9 10  1  0
  9 11  1  0
  9 12  1  0
  4 13  1  0
 13 14  1  0
 14 15  1  0
 15 16  1  0
 16 17  2  0
 17 18  1  0
 18 19  2  0
 19 20  1  0
 20 21  1  0
 21 22  1  0
 22 23  2  0
 23 24  1  0
 24 25  2  0
 25 26  1  0
 26 27  2  0
 27 28  1  0
 28 29  3  0
 19 30  1  0
 30 31  2  0
 15  2  1  0
 31 16  1  0
 27 22  1  0
  1 32  1  0
  1 33  1  0
  1 34  1  0
  2 35  1  6
  3 36  1  0
  3 37  1  0
  8 38  1  0
  8 39  1  0
 13 40  1  0
 13 41  1  0
 14 42  1  0
 14 43  1  0
 18 44  1  0
 21 45  1  0
 21 46  1  0
 23 47  1  0
 24 48  1  0
 26 49  1  0
 30 50  1  0
M  END
$$$$
