
     RDKit          3D

 58 61  0  0  0  0  0  0  0  0999 V2000
   11.1027   -1.8760    2.9313 Cl  0  0  0  0  0  0  0  0  0  0  0  0
   10.1720   -0.8175    1.8911 C   0  0  0  0  0  0  0  0  0  0  0  0
    8.8341   -1.0097    1.6350 C   0  0  0  0  0  0  0  0  0  0  0  0
    8.1420   -0.1596    0.8160 C   0  0  0  0  0  0  0  0  0  0  0  0
    8.7601    0.9195    0.2183 C   0  0  0  0  0  0  0  0  0  0  0  0
    7.8956    1.6320   -0.5521 N   0  0  0  0  0  0  0  0  0  0  0  0
    6.7160    0.9893   -0.4357 C   0  0  0  0  0  0  0  0  0  0  0  0
    6.8330   -0.1091    0.3931 C   0  0  0  0  0  0  0  0  0  0  0  0
    5.4821    1.4179   -1.1099 C   0  0  0  0  0  0  0  0  0  0  0  0
    5.5294    2.4517   -1.8433 O   0  0  0  0  0  0  0  0  0  0  0  0
    4.2779    0.6822   -0.9334 N   0  0  0  0  0  0  0  0  0  0  0  0
    3.1781    1.2753   -1.6869 C   0  0  0  0  0  0  0  0  0  0  0  0
    1.9516    0.4492   -1.4517 C   0  0  0  0  0  0  0  0  0  0  0  0
    1.6439    0.4385   -0.0764 O   0  0  0  0  0  0  0  0  0  0  0  0
    0.4687   -0.3760   -0.0044 C   0  0  0  0  0  0  0  0  0  0  0  0
    0.0053   -0.4911    1.4048 C   0  0  0  0  0  0  0  0  0  0  0  0
   -1.0539   -1.2306    1.6286 O   0  0  0  0  0  0  0  0  0  0  0  0
   -2.2936   -1.1497    1.2365 C   0  0  0  0  0  0  0  0  0  0  0  0
   -2.7211   -1.2642   -0.1870 C   0  0  0  0  0  0  0  0  0  0  0  0
   -4.2046   -1.1488   -0.2892 N   0  0  0  0  0  0  0  0  0  0  0  0
   -4.9680   -0.0203    0.1101 C   0  0  0  0  0  0  0  0  0  0  0  0
   -4.4310    1.0061    0.5958 O   0  0  0  0  0  0  0  0  0  0  0  0
   -6.4178   -0.0361   -0.0410 C   0  0  0  0  0  0  0  0  0  0  0  0
   -7.1961   -1.0736   -0.5555 C   0  0  0  0  0  0  0  0  0  0  0  0
   -8.5264   -0.7074   -0.5338 C   0  0  0  0  0  0  0  0  0  0  0  0
   -8.5300    0.5639    0.0013 C   0  0  0  0  0  0  0  0  0  0  0  0
   -7.2787    0.9426    0.2854 N   0  0  0  0  0  0  0  0  0  0  0  0
   -9.7422    1.2162    0.1552 C   0  0  0  0  0  0  0  0  0  0  0  0
  -10.8977    0.5835   -0.2263 C   0  0  0  0  0  0  0  0  0  0  0  0
  -10.9294   -0.7033   -0.7714 C   0  0  0  0  0  0  0  0  0  0  0  0
  -12.4189   -1.4907   -1.2514 Cl  0  0  0  0  0  0  0  0  0  0  0  0
   -9.6954   -1.3377   -0.9157 C   0  0  0  0  0  0  0  0  0  0  0  0
   10.1096    1.1679    0.4372 C   0  0  0  0  0  0  0  0  0  0  0  0
   10.7608    0.2791    1.2721 C   0  0  0  0  0  0  0  0  0  0  0  0
    8.3186   -1.8376    2.0814 H   0  0  0  0  0  0  0  0  0  0  0  0
    8.1127    2.4858   -1.1053 H   0  0  0  0  0  0  0  0  0  0  0  0
    6.0110   -0.7894    0.6422 H   0  0  0  0  0  0  0  0  0  0  0  0
    4.2175   -0.1699   -0.3352 H   0  0  0  0  0  0  0  0  0  0  0  0
    2.9558    2.3067   -1.3233 H   0  0  0  0  0  0  0  0  0  0  0  0
    3.3860    1.3078   -2.7741 H   0  0  0  0  0  0  0  0  0  0  0  0
    1.1158    0.8707   -2.0564 H   0  0  0  0  0  0  0  0  0  0  0  0
    2.0837   -0.6031   -1.7958 H   0  0  0  0  0  0  0  0  0  0  0  0
    0.6843   -1.3714   -0.4042 H   0  0  0  0  0  0  0  0  0  0  0  0
   -0.2771    0.1990   -0.5895 H   0  0  0  0  0  0  0  0  0  0  0  0
   -0.1873    0.5706    1.8307 H   0  0  0  0  0  0  0  0  0  0  0  0
    0.9243   -0.8325    2.0150 H   0  0  0  0  0  0  0  0  0  0  0  0
   -2.9151   -1.8768    1.8770 H   0  0  0  0  0  0  0  0  0  0  0  0
   -2.6932   -0.1189    1.5894 H   0  0  0  0  0  0  0  0  0  0  0  0
   -2.4685   -2.2566   -0.5527 H   0  0  0  0  0  0  0  0  0  0  0  0
   -2.3121   -0.4971   -0.8551 H   0  0  0  0  0  0  0  0  0  0  0  0
   -4.7686   -1.9592   -0.6891 H   0  0  0  0  0  0  0  0  0  0  0  0
   -6.8486   -2.0365   -0.9263 H   0  0  0  0  0  0  0  0  0  0  0  0
   -7.0341    1.8567    0.6948 H   0  0  0  0  0  0  0  0  0  0  0  0
   -9.7982    2.2302    0.5767 H   0  0  0  0  0  0  0  0  0  0  0  0
  -11.8605    1.0623   -0.1207 H   0  0  0  0  0  0  0  0  0  0  0  0
   -9.6372   -2.3509   -1.3366 H   0  0  0  0  0  0  0  0  0  0  0  0
   10.6127    1.9971   -0.0138 H   0  0  0  0  0  0  0  0  0  0  0  0
   11.8198    0.5009    1.4244 H   0  0  0  0  0  0  0  0  0  0  0  0
  1  2  1  0
  2  3  2  0
  3  4  1  0
  4  5  2  0
  5  6  1  0
  6  7  1  0
  7  8  2  0
  7  9  1  0
  9 10  2  0
  9 11  1  0
 11 12  1  0
 12 13  1  0
 13 14  1  0
 14 15  1  0
 15 16  1  0
 16 17  1  0
 17 18  1  0
 18 19  1  0
 19 20  1  0
 20 21  1  0
 21 22  2  0
 21 23  1  0
 23 24  2  0
 24 25  1  0
 25 26  2  0
 26 27  1  0
 26 28  1  0
 28 29  2  0
 29 30  1  0
 30 31  1  0
 30 32  2  0
  5 33  1  0
 33 34  2  0
 34  2  1  0
  8  4  1  0
 27 23  1  0
 32 25  1  0
  3 35  1  0
  6 36  1  0
  8 37  1  0
 11 38  1  0
 12 39  1  0
 12 40  1  0
 13 41  1  0
 13 42  1  0
 15 43  1  0
 15 44  1  0
 16 45  1  0
 16 46  1  0
 18 47  1  0
 18 48  1  0
 19 49  1  0
 19 50  1  0
 20 51  1  0
 24 52  1  0
 27 53  1  0
 28 54  1  0
 29 55  1  0
 32 56  1  0
 33 57  1  0
 34 58  1  0
M  END
$$$$
