
     RDKit          3D

 55 54  0  0  0  0  0  0  0  0999 V2000
   -8.6393   -0.2980   -0.3374 C   0  0  0  0  0  0  0  0  0  0  0  0
   -7.8726    0.3884   -1.4361 C   0  0  0  0  0  0  0  0  0  0  0  0
   -6.3973    0.4559   -1.0598 C   0  0  0  0  0  0  0  0  0  0  0  0
   -5.8645   -0.9236   -0.8716 C   0  0  0  0  0  0  0  0  0  0  0  0
   -4.3987   -0.8565   -0.4778 C   0  0  0  0  0  0  0  0  0  0  0  0
   -3.6031   -0.1803   -1.5429 C   0  0  0  0  0  0  0  0  0  0  0  0
   -2.1443   -0.1477   -1.1800 C   0  0  0  0  0  0  0  0  0  0  0  0
   -1.9297    0.6007    0.0827 C   0  0  0  0  0  0  0  0  0  0  0  0
   -0.5817    0.6825    0.4495 O   0  0  0  0  0  0  0  0  0  0  0  0
    0.0325   -0.5217    0.6541 C   0  0  0  0  0  0  0  0  0  0  0  0
    1.4863   -0.1829    1.0455 C   0  0  0  0  0  0  0  0  0  0  0  0
    1.5514    0.5691    2.1650 O   0  0  0  0  0  0  0  0  0  0  0  0
    2.7564    0.9629    2.6383 C   0  0  0  0  0  0  0  0  0  0  0  0
    3.7379   -0.1093    3.0185 C   0  0  0  0  0  0  0  0  0  0  0  0
    4.1495   -0.9561    2.0598 O   0  0  0  0  0  0  0  0  0  0  0  0
    4.8613   -0.4626    0.9906 C   0  0  0  0  0  0  0  0  0  0  0  0
    6.1381    0.1963    1.3182 C   0  0  0  0  0  0  0  0  0  0  0  0
    6.7679    0.6653    0.1973 O   0  0  0  0  0  0  0  0  0  0  0  0
    7.0949   -0.3095   -0.7166 C   0  0  0  0  0  0  0  0  0  0  0  0
    7.8414    0.3258   -1.8993 C   0  0  0  0  0  0  0  0  0  0  0  0
    8.1747   -0.6529   -2.8261 O   0  0  0  0  0  0  0  0  0  0  0  0
   -8.3526    0.1259    0.6426 H   0  0  0  0  0  0  0  0  0  0  0  0
   -8.4006   -1.3791   -0.3923 H   0  0  0  0  0  0  0  0  0  0  0  0
   -9.7240   -0.1481   -0.5436 H   0  0  0  0  0  0  0  0  0  0  0  0
   -7.9796   -0.1595   -2.3868 H   0  0  0  0  0  0  0  0  0  0  0  0
   -8.2361    1.4335   -1.5101 H   0  0  0  0  0  0  0  0  0  0  0  0
   -5.8808    0.9264   -1.9329 H   0  0  0  0  0  0  0  0  0  0  0  0
   -6.2523    1.0731   -0.1644 H   0  0  0  0  0  0  0  0  0  0  0  0
   -5.8935   -1.4889   -1.8260 H   0  0  0  0  0  0  0  0  0  0  0  0
   -6.3716   -1.4623   -0.0587 H   0  0  0  0  0  0  0  0  0  0  0  0
   -4.3355   -0.3603    0.5283 H   0  0  0  0  0  0  0  0  0  0  0  0
   -4.0837   -1.8947   -0.3039 H   0  0  0  0  0  0  0  0  0  0  0  0
   -3.7242   -0.7832   -2.4734 H   0  0  0  0  0  0  0  0  0  0  0  0
   -3.9146    0.8770   -1.7028 H   0  0  0  0  0  0  0  0  0  0  0  0
   -1.8537   -1.2342   -1.0541 H   0  0  0  0  0  0  0  0  0  0  0  0
   -1.5645    0.2907   -2.0439 H   0  0  0  0  0  0  0  0  0  0  0  0
   -2.3009    1.6389   -0.0178 H   0  0  0  0  0  0  0  0  0  0  0  0
   -2.4719    0.0557    0.9092 H   0  0  0  0  0  0  0  0  0  0  0  0
    0.0147   -1.1336   -0.2583 H   0  0  0  0  0  0  0  0  0  0  0  0
   -0.3669   -1.1253    1.4856 H   0  0  0  0  0  0  0  0  0  0  0  0
    2.0695   -1.1458    1.0775 H   0  0  0  0  0  0  0  0  0  0  0  0
    1.8784    0.3917    0.1733 H   0  0  0  0  0  0  0  0  0  0  0  0
    2.5835    1.6587    3.5186 H   0  0  0  0  0  0  0  0  0  0  0  0
    3.2086    1.6750    1.8801 H   0  0  0  0  0  0  0  0  0  0  0  0
    4.5452    0.3557    3.6260 H   0  0  0  0  0  0  0  0  0  0  0  0
    3.1849   -0.7394    3.7836 H   0  0  0  0  0  0  0  0  0  0  0  0
    4.2405    0.2189    0.4114 H   0  0  0  0  0  0  0  0  0  0  0  0
    5.0709   -1.3586    0.3347 H   0  0  0  0  0  0  0  0  0  0  0  0
    6.8750   -0.4689    1.8292 H   0  0  0  0  0  0  0  0  0  0  0  0
    5.9478    1.1149    1.9581 H   0  0  0  0  0  0  0  0  0  0  0  0
    7.7323   -1.0706   -0.2251 H   0  0  0  0  0  0  0  0  0  0  0  0
    6.2027   -0.8582   -1.1345 H   0  0  0  0  0  0  0  0  0  0  0  0
    8.7766    0.7665   -1.5190 H   0  0  0  0  0  0  0  0  0  0  0  0
    7.2124    1.1002   -2.3538 H   0  0  0  0  0  0  0  0  0  0  0  0
    9.0031   -1.0999   -2.5287 H   0  0  0  0  0  0  0  0  0  0  0  0
  1  2  1  0
  2  3  1  0
  3  4  1  0
  4  5  1  0
  5  6  1  0
  6  7  1  0
  7  8  1  0
  8  9  1  0
  9 10  1  0
 10 11  1  0
 11 12  1  0
 12 13  1  0
 13 14  1  0
 14 15  1  0
 15 16  1  0
 16 17  1  0
 17 18  1  0
 18 19  1  0
 19 20  1  0
 20 21  1  0
  1 22  1  0
  1 23  1  0
  1 24  1  0
  2 25  1  0
  2 26  1  0
  3 27  1  0
  3 28  1  0
  4 29  1  0
  4 30  1  0
  5 31  1  0
  5 32  1  0
  6 33  1  0
  6 34  1  0
  7 35  1  0
  7 36  1  0
  8 37  1  0
  8 38  1  0
 10 39  1  0
 10 40  1  0
 11 41  1  0
 11 42  1  0
 13 43  1  0
 13 44  1  0
 14 45  1  0
 14 46  1  0
 16 47  1  0
 16 48  1  0
 17 49  1  0
 17 50  1  0
 19 51  1  0
 19 52  1  0
 20 53  1  0
 20 54  1  0
 21 55  1  0
M  END
$$$$
