
     RDKit          3D

 64 69  0  0  0  0  0  0  0  0999 V2000
   -4.6269   -1.2727   -0.8172 O   0  0  0  0  0  0  0  0  0  0  0  0
   -3.3905   -1.4026   -1.0002 C   0  0  0  0  0  0  0  0  0  0  0  0
   -2.7246   -2.4824   -1.4360 N   0  0  0  0  0  0  0  0  0  0  0  0
   -3.3003   -3.7663   -1.7997 C   0  0  0  0  0  0  0  0  0  0  0  0
   -3.3706   -4.6835   -0.6386 C   0  0  0  0  0  0  0  0  0  0  0  0
   -2.3059   -5.5133   -0.3796 C   0  0  0  0  0  0  0  0  0  0  0  0
   -2.2911   -6.3912    0.6741 C   0  0  0  0  0  0  0  0  0  0  0  0
   -3.3720   -6.4304    1.4797 N   0  0  0  0  0  0  0  0  0  0  0  0
   -4.4258   -5.6269    1.2448 C   0  0  0  0  0  0  0  0  0  0  0  0
   -4.4610   -4.7362    0.1899 C   0  0  0  0  0  0  0  0  0  0  0  0
   -1.4168   -2.1853   -1.4844 N   0  0  0  0  0  0  0  0  0  0  0  0
   -1.2410   -0.9144   -1.0798 C   0  0  0  0  0  0  0  0  0  0  0  0
    0.0309   -0.2253   -0.9933 C   0  0  0  0  0  0  0  0  0  0  0  0
    0.1784    1.0367   -1.5681 C   0  0  0  0  0  0  0  0  0  0  0  0
    1.3735    1.7139   -1.5015 C   0  0  0  0  0  0  0  0  0  0  0  0
    2.3871    1.1179   -0.8660 N   0  0  0  0  0  0  0  0  0  0  0  0
    2.3116   -0.0822   -0.2977 C   0  0  0  0  0  0  0  0  0  0  0  0
    3.4434   -0.6283    0.3528 N   0  0  0  0  0  0  0  0  0  0  0  0
    4.6630    0.1039    0.4046 C   0  0  0  0  0  0  0  0  0  0  0  0
    4.5832    1.4295    1.1141 C   0  0  0  0  0  0  0  0  0  0  0  0
    5.8471    2.1952    0.7740 C   0  0  0  0  0  0  0  0  0  0  0  0
    7.0907    1.4452    1.1900 C   0  0  0  0  0  0  0  0  0  0  0  0
    7.0800    0.0162    0.7106 C   0  0  0  0  0  0  0  0  0  0  0  0
    5.7804   -0.6856    1.0907 C   0  0  0  0  0  0  0  0  0  0  0  0
    1.1158   -0.7907   -0.3491 C   0  0  0  0  0  0  0  0  0  0  0  0
   -2.4658   -0.4480   -0.7858 N   0  0  0  0  0  0  0  0  0  0  0  0
   -2.7129    0.8616   -0.3205 C   0  0  0  0  0  0  0  0  0  0  0  0
   -2.2535    1.2217    0.9278 C   0  0  0  0  0  0  0  0  0  0  0  0
   -2.4555    2.4815    1.4512 C   0  0  0  0  0  0  0  0  0  0  0  0
   -3.1411    3.4165    0.7018 C   0  0  0  0  0  0  0  0  0  0  0  0
   -3.3624    4.6893    1.1943 C   0  0  0  0  0  0  0  0  0  0  0  0
   -4.0507    5.6254    0.4398 C   0  0  0  0  0  0  0  0  0  0  0  0
   -4.5307    5.3125   -0.8164 C   0  0  0  0  0  0  0  0  0  0  0  0
   -4.3016    4.0388   -1.2929 C   0  0  0  0  0  0  0  0  0  0  0  0
   -3.6084    3.0774   -0.5473 C   0  0  0  0  0  0  0  0  0  0  0  0
   -3.3935    1.8111   -1.0483 C   0  0  0  0  0  0  0  0  0  0  0  0
   -4.2978   -3.5698   -2.2440 H   0  0  0  0  0  0  0  0  0  0  0  0
   -2.6509   -4.2425   -2.5665 H   0  0  0  0  0  0  0  0  0  0  0  0
   -1.4196   -5.4905   -1.0288 H   0  0  0  0  0  0  0  0  0  0  0  0
   -1.4239   -7.0359    0.8473 H   0  0  0  0  0  0  0  0  0  0  0  0
   -5.2581   -5.7177    1.9385 H   0  0  0  0  0  0  0  0  0  0  0  0
   -5.3199   -4.0981    0.0188 H   0  0  0  0  0  0  0  0  0  0  0  0
   -0.7011    1.4410   -2.0636 H   0  0  0  0  0  0  0  0  0  0  0  0
    1.4357    2.6890   -1.9629 H   0  0  0  0  0  0  0  0  0  0  0  0
    3.3967   -1.5791    0.8045 H   0  0  0  0  0  0  0  0  0  0  0  0
    5.0478    0.3154   -0.6188 H   0  0  0  0  0  0  0  0  0  0  0  0
    3.7389    2.0572    0.8385 H   0  0  0  0  0  0  0  0  0  0  0  0
    4.6404    1.2123    2.2032 H   0  0  0  0  0  0  0  0  0  0  0  0
    5.8158    3.1326    1.3694 H   0  0  0  0  0  0  0  0  0  0  0  0
    5.8924    2.4893   -0.2943 H   0  0  0  0  0  0  0  0  0  0  0  0
    7.9561    1.9494    0.7113 H   0  0  0  0  0  0  0  0  0  0  0  0
    7.2575    1.5018    2.2803 H   0  0  0  0  0  0  0  0  0  0  0  0
    7.9427   -0.4984    1.1825 H   0  0  0  0  0  0  0  0  0  0  0  0
    7.2314   -0.0419   -0.3800 H   0  0  0  0  0  0  0  0  0  0  0  0
    5.8355   -1.7159    0.7348 H   0  0  0  0  0  0  0  0  0  0  0  0
    5.6575   -0.5715    2.1742 H   0  0  0  0  0  0  0  0  0  0  0  0
    1.0712   -1.7471    0.1090 H   0  0  0  0  0  0  0  0  0  0  0  0
   -1.7080    0.4859    1.5301 H   0  0  0  0  0  0  0  0  0  0  0  0
   -2.0942    2.7499    2.4217 H   0  0  0  0  0  0  0  0  0  0  0  0
   -2.9924    4.9396    2.1698 H   0  0  0  0  0  0  0  0  0  0  0  0
   -4.2392    6.6374    0.8048 H   0  0  0  0  0  0  0  0  0  0  0  0
   -5.0658    6.0453   -1.3992 H   0  0  0  0  0  0  0  0  0  0  0  0
   -4.6606    3.7636   -2.2637 H   0  0  0  0  0  0  0  0  0  0  0  0
   -3.7710    1.5702   -2.0325 H   0  0  0  0  0  0  0  0  0  0  0  0
  1  2  2  0
  2  3  1  0
  3  4  1  0
  4  5  1  0
  5  6  2  0
  6  7  1  0
  7  8  2  0
  8  9  1  0
  9 10  2  0
  3 11  1  0
 11 12  2  0
 12 13  1  0
 13 14  2  0
 14 15  1  0
 15 16  2  0
 16 17  1  0
 17 18  1  0
 18 19  1  0
 19 20  1  0
 20 21  1  0
 21 22  1  0
 22 23  1  0
 23 24  1  0
 17 25  2  0
 12 26  1  0
 26 27  1  0
 27 28  2  0
 28 29  1  0
 29 30  2  0
 30 31  1  0
 31 32  2  0
 32 33  1  0
 33 34  2  0
 34 35  1  0
 35 36  2  0
 26  2  1  0
 36 27  1  0
 10  5  1  0
 25 13  1  0
 35 30  1  0
 24 19  1  0
  4 37  1  0
  4 38  1  0
  6 39  1  0
  7 40  1  0
  9 41  1  0
 10 42  1  0
 14 43  1  0
 15 44  1  0
 18 45  1  0
 19 46  1  0
 20 47  1  0
 20 48  1  0
 21 49  1  0
 21 50  1  0
 22 51  1  0
 22 52  1  0
 23 53  1  0
 23 54  1  0
 24 55  1  0
 24 56  1  0
 25 57  1  0
 28 58  1  0
 29 59  1  0
 31 60  1  0
 32 61  1  0
 33 62  1  0
 34 63  1  0
 36 64  1  0
M  END
$$$$
