
     RDKit          3D

 38 40  0  0  0  0  0  0  0  0999 V2000
    0.1327    5.2923    1.0544 F   0  0  0  0  0  0  0  0  0  0  0  0
   -0.0782    4.2677    0.1990 C   0  0  0  0  0  0  0  0  0  0  0  0
   -0.0455    2.9779    0.6947 C   0  0  0  0  0  0  0  0  0  0  0  0
   -0.2543    1.9249   -0.1429 C   0  0  0  0  0  0  0  0  0  0  0  0
   -0.2194    0.5472    0.3864 C   0  0  0  0  0  0  0  0  0  0  0  0
   -1.6798    0.1089    0.4515 C   0  0  0  0  0  0  0  0  0  0  0  0
   -1.8071   -1.2985    0.9808 C   0  0  0  0  0  0  0  0  0  0  0  0
   -3.2634   -1.7082    1.0351 C   0  0  0  0  0  0  0  0  0  0  0  0
   -2.8815   -3.0132    0.5337 N   0  0  0  0  0  0  0  0  0  0  0  0
   -1.7539   -2.3537   -0.1280 C   0  0  0  0  0  0  0  0  0  0  0  0
    0.5227   -0.2380   -0.4847 O   0  0  0  0  0  0  0  0  0  0  0  0
    1.6587   -0.9028   -0.1341 C   0  0  0  0  0  0  0  0  0  0  0  0
    2.2782   -1.6494   -1.1473 C   0  0  0  0  0  0  0  0  0  0  0  0
    3.4255   -2.3564   -0.9045 C   0  0  0  0  0  0  0  0  0  0  0  0
    4.0061   -2.3564    0.3402 C   0  0  0  0  0  0  0  0  0  0  0  0
    3.4304   -1.6366    1.3632 C   0  0  0  0  0  0  0  0  0  0  0  0
    4.1036   -1.5823    2.9765 Cl  0  0  0  0  0  0  0  0  0  0  0  0
    2.2666   -0.9306    1.0818 C   0  0  0  0  0  0  0  0  0  0  0  0
   -0.4951    2.1359   -1.4661 C   0  0  0  0  0  0  0  0  0  0  0  0
   -0.5322    3.4186   -1.9834 C   0  0  0  0  0  0  0  0  0  0  0  0
   -0.3212    4.4799   -1.1360 C   0  0  0  0  0  0  0  0  0  0  0  0
   -0.3663    6.1073   -1.7822 Cl  0  0  0  0  0  0  0  0  0  0  0  0
    0.1493    2.8528    1.7536 H   0  0  0  0  0  0  0  0  0  0  0  0
    0.2127    0.5797    1.4151 H   0  0  0  0  0  0  0  0  0  0  0  0
   -2.0999    0.1997   -0.5460 H   0  0  0  0  0  0  0  0  0  0  0  0
   -2.2250    0.7896    1.1360 H   0  0  0  0  0  0  0  0  0  0  0  0
   -1.1978   -1.5426    1.8490 H   0  0  0  0  0  0  0  0  0  0  0  0
   -3.8617   -1.1501    0.2741 H   0  0  0  0  0  0  0  0  0  0  0  0
   -3.7017   -1.6993    2.0498 H   0  0  0  0  0  0  0  0  0  0  0  0
   -3.5772   -3.3878   -0.1422 H   0  0  0  0  0  0  0  0  0  0  0  0
   -0.8723   -2.9927   -0.1083 H   0  0  0  0  0  0  0  0  0  0  0  0
   -2.0673   -1.9379   -1.1011 H   0  0  0  0  0  0  0  0  0  0  0  0
    1.8579   -1.6792   -2.1418 H   0  0  0  0  0  0  0  0  0  0  0  0
    3.8845   -2.9259   -1.7064 H   0  0  0  0  0  0  0  0  0  0  0  0
    4.9136   -2.9131    0.5400 H   0  0  0  0  0  0  0  0  0  0  0  0
    1.8508   -0.3825    1.9094 H   0  0  0  0  0  0  0  0  0  0  0  0
   -0.6693    1.3420   -2.1862 H   0  0  0  0  0  0  0  0  0  0  0  0
   -0.7230    3.6123   -3.0381 H   0  0  0  0  0  0  0  0  0  0  0  0
  1  2  1  0
  2  3  2  0
  3  4  1  0
  4  5  1  0
  5  6  1  0
  6  7  1  0
  7  8  1  0
  8  9  1  0
  9 10  1  0
  5 11  1  0
 11 12  1  0
 12 13  2  0
 13 14  1  0
 14 15  2  0
 15 16  1  0
 16 17  1  0
 16 18  2  0
  4 19  2  0
 19 20  1  0
 20 21  2  0
 21 22  1  0
 21  2  1  0
 10  7  1  0
 18 12  1  0
  3 23  1  0
  5 24  1  0
  6 25  1  0
  6 26  1  0
  7 27  1  0
  8 28  1  0
  8 29  1  0
  9 30  1  0
 10 31  1  0
 10 32  1  0
 13 33  1  0
 14 34  1  0
 15 35  1  0
 18 36  1  0
 19 37  1  0
 20 38  1  0
M  END
$$$$
