
     RDKit          3D

 45 47  0  0  0  0  0  0  0  0999 V2000
   -3.2892   -1.8018   -1.0488 C   0  0  0  0  0  0  0  0  0  0  0  0
   -3.7696   -0.8239   -0.0004 C   0  0  0  0  0  0  0  0  0  0  0  0
   -3.6943   -1.4219    1.3913 C   0  0  0  0  0  0  0  0  0  0  0  0
   -5.1350   -0.5155   -0.2802 N   0  0  0  0  0  0  0  0  0  0  0  0
   -5.6464    0.6288   -0.4645 C   0  0  0  0  0  0  0  0  0  0  0  0
   -7.0509    0.7465   -0.7349 N   0  0  0  0  0  0  0  0  0  0  0  0
   -4.8221    1.7766   -0.4201 N   0  0  0  0  0  0  0  0  0  0  0  0
   -3.5339    1.6318   -0.1906 C   0  0  0  0  0  0  0  0  0  0  0  0
   -2.6851    2.7650   -0.1388 N   0  0  0  0  0  0  0  0  0  0  0  0
   -2.9389    0.3618   -0.0102 N   0  0  0  0  0  0  0  0  0  0  0  0
   -1.5197    0.2851    0.1461 C   0  0  0  0  0  0  0  0  0  0  0  0
   -0.9088    0.3424    1.3764 C   0  0  0  0  0  0  0  0  0  0  0  0
    0.4795    0.2650    1.5071 C   0  0  0  0  0  0  0  0  0  0  0  0
    1.2717    0.1287    0.3933 C   0  0  0  0  0  0  0  0  0  0  0  0
    2.6739    0.0497    0.5107 O   0  0  0  0  0  0  0  0  0  0  0  0
    3.4795   -0.0866   -0.6454 C   0  0  0  0  0  0  0  0  0  0  0  0
    4.8921   -0.1482   -0.2270 C   0  0  0  0  0  0  0  0  0  0  0  0
    5.6866    0.9633   -0.3765 C   0  0  0  0  0  0  0  0  0  0  0  0
    7.0163    0.9876   -0.0113 C   0  0  0  0  0  0  0  0  0  0  0  0
    7.5604   -0.1552    0.5241 C   0  0  0  0  0  0  0  0  0  0  0  0
    9.2527   -0.1715    1.0024 Cl  0  0  0  0  0  0  0  0  0  0  0  0
    6.8096   -1.2941    0.6948 C   0  0  0  0  0  0  0  0  0  0  0  0
    5.4716   -1.2687    0.3108 C   0  0  0  0  0  0  0  0  0  0  0  0
    4.5269   -2.7205    0.5292 Cl  0  0  0  0  0  0  0  0  0  0  0  0
    0.6632    0.0713   -0.8374 C   0  0  0  0  0  0  0  0  0  0  0  0
   -0.7015    0.1479   -0.9572 C   0  0  0  0  0  0  0  0  0  0  0  0
   -3.4452   -1.3318   -2.0393 H   0  0  0  0  0  0  0  0  0  0  0  0
   -2.2393   -2.0619   -0.8731 H   0  0  0  0  0  0  0  0  0  0  0  0
   -3.8875   -2.7352   -0.9555 H   0  0  0  0  0  0  0  0  0  0  0  0
   -2.6420   -1.5616    1.6918 H   0  0  0  0  0  0  0  0  0  0  0  0
   -4.2204   -2.4012    1.3591 H   0  0  0  0  0  0  0  0  0  0  0  0
   -4.2406   -0.7483    2.0917 H   0  0  0  0  0  0  0  0  0  0  0  0
   -7.6073    1.4267   -0.1751 H   0  0  0  0  0  0  0  0  0  0  0  0
   -7.4747    0.1597   -1.4741 H   0  0  0  0  0  0  0  0  0  0  0  0
   -2.0848    2.9821   -0.9468 H   0  0  0  0  0  0  0  0  0  0  0  0
   -2.6682    3.3644    0.6987 H   0  0  0  0  0  0  0  0  0  0  0  0
   -1.4968    0.4523    2.2894 H   0  0  0  0  0  0  0  0  0  0  0  0
    0.9434    0.3133    2.5014 H   0  0  0  0  0  0  0  0  0  0  0  0
    3.3359    0.7855   -1.3449 H   0  0  0  0  0  0  0  0  0  0  0  0
    3.2403   -1.0244   -1.1596 H   0  0  0  0  0  0  0  0  0  0  0  0
    5.2784    1.8732   -0.7945 H   0  0  0  0  0  0  0  0  0  0  0  0
    7.6378    1.8630   -0.1313 H   0  0  0  0  0  0  0  0  0  0  0  0
    7.2984   -2.1583    1.1206 H   0  0  0  0  0  0  0  0  0  0  0  0
    1.3267   -0.0382   -1.7033 H   0  0  0  0  0  0  0  0  0  0  0  0
   -1.1428    0.0977   -1.9577 H   0  0  0  0  0  0  0  0  0  0  0  0
  1  2  1  0
  2  3  1  0
  2  4  1  0
  4  5  2  0
  5  6  1  0
  5  7  1  0
  7  8  2  0
  8  9  1  0
  8 10  1  0
 10 11  1  0
 11 12  2  0
 12 13  1  0
 13 14  2  0
 14 15  1  0
 15 16  1  0
 16 17  1  0
 17 18  2  0
 18 19  1  0
 19 20  2  0
 20 21  1  0
 20 22  1  0
 22 23  2  0
 23 24  1  0
 14 25  1  0
 25 26  2  0
 10  2  1  0
 26 11  1  0
 23 17  1  0
  1 27  1  0
  1 28  1  0
  1 29  1  0
  3 30  1  0
  3 31  1  0
  3 32  1  0
  6 33  1  0
  6 34  1  0
  9 35  1  0
  9 36  1  0
 12 37  1  0
 13 38  1  0
 16 39  1  0
 16 40  1  0
 18 41  1  0
 19 42  1  0
 22 43  1  0
 25 44  1  0
 26 45  1  0
M  END
$$$$
