
     RDKit          3D

 55 58  0  0  0  0  0  0  0  0999 V2000
    2.7242   -0.2267    1.5765 C   0  0  0  0  0  0  0  0  0  0  0  0
    2.6168   -0.1568    0.0677 C   0  0  0  0  0  0  0  0  0  0  0  0
    2.8138   -1.5251   -0.5449 C   0  0  0  0  0  0  0  0  0  0  0  0
    3.5784    0.7045   -0.4939 O   0  0  0  0  0  0  0  0  0  0  0  0
    4.9520    0.5451   -0.3648 C   0  0  0  0  0  0  0  0  0  0  0  0
    5.5345   -0.4704    0.3283 C   0  0  0  0  0  0  0  0  0  0  0  0
    6.9007   -0.5671    0.4150 C   0  0  0  0  0  0  0  0  0  0  0  0
    7.6768    0.3844   -0.2134 C   0  0  0  0  0  0  0  0  0  0  0  0
    7.1305    1.4306   -0.9265 C   0  0  0  0  0  0  0  0  0  0  0  0
    5.7533    1.4818   -0.9827 C   0  0  0  0  0  0  0  0  0  0  0  0
    5.0482    2.8240   -1.8977 Cl  0  0  0  0  0  0  0  0  0  0  0  0
    1.2661    0.3451   -0.3109 C   0  0  0  0  0  0  0  0  0  0  0  0
    1.1287    1.3901   -1.0275 O   0  0  0  0  0  0  0  0  0  0  0  0
    0.0608   -0.2896    0.0897 N   0  0  0  0  0  0  0  0  0  0  0  0
   -1.2481    0.1767   -0.2635 C   0  0  1  0  0  0  0  0  0  0  0  0
   -2.0474   -0.8478   -1.0383 C   0  0  0  0  0  0  0  0  0  0  0  0
   -2.4571   -2.0233   -0.1987 C   0  0  0  0  0  0  0  0  0  0  0  0
   -3.2687   -1.5741    1.0062 C   0  0  0  0  0  0  0  0  0  0  0  0
   -2.3769   -0.6560    1.8116 C   0  0  0  0  0  0  0  0  0  0  0  0
   -1.9939    0.5402    1.0015 C   0  0  0  0  0  0  0  0  0  0  0  0
   -3.2664    1.2623    0.5591 C   0  0  0  0  0  0  0  0  0  0  0  0
   -4.0641    0.3468   -0.3114 C   0  0  2  0  0  0  0  0  0  0  0  0
   -5.5327    1.1895   -0.8481 S   0  0  0  0  0  6  0  0  0  0  0  0
   -5.0705    2.6109   -1.7445 N   0  0  0  0  0  0  0  0  0  0  0  0
   -6.3044    0.2797   -1.7864 O   0  0  0  0  0  0  0  0  0  0  0  0
   -6.4045    1.5597    0.3108 O   0  0  0  0  0  0  0  0  0  0  0  0
   -4.4856   -0.8452    0.5404 C   0  0  0  0  0  0  0  0  0  0  0  0
   -3.3125   -0.1559   -1.5113 C   0  0  0  0  0  0  0  0  0  0  0  0
    2.7931   -1.2725    1.9501 H   0  0  0  0  0  0  0  0  0  0  0  0
    3.5564    0.4149    1.9611 H   0  0  0  0  0  0  0  0  0  0  0  0
    1.8003    0.1930    2.0254 H   0  0  0  0  0  0  0  0  0  0  0  0
    3.7074   -1.5475   -1.2344 H   0  0  0  0  0  0  0  0  0  0  0  0
    1.9508   -1.7633   -1.1934 H   0  0  0  0  0  0  0  0  0  0  0  0
    2.8681   -2.3227    0.2234 H   0  0  0  0  0  0  0  0  0  0  0  0
    4.9051   -1.2037    0.8128 H   0  0  0  0  0  0  0  0  0  0  0  0
    7.3784   -1.3935    0.9789 H   0  0  0  0  0  0  0  0  0  0  0  0
    8.7554    0.2915   -0.1338 H   0  0  0  0  0  0  0  0  0  0  0  0
    7.7593    2.1837   -1.4236 H   0  0  0  0  0  0  0  0  0  0  0  0
    0.1257   -1.1483    0.6772 H   0  0  0  0  0  0  0  0  0  0  0  0
   -1.2270    1.0950   -0.8894 H   0  0  0  0  0  0  0  0  0  0  0  0
   -1.4472   -1.2203   -1.8895 H   0  0  0  0  0  0  0  0  0  0  0  0
   -3.1349   -2.6469   -0.8114 H   0  0  0  0  0  0  0  0  0  0  0  0
   -1.6100   -2.6652    0.1042 H   0  0  0  0  0  0  0  0  0  0  0  0
   -3.5777   -2.4497    1.5775 H   0  0  0  0  0  0  0  0  0  0  0  0
   -1.4834   -1.2064    2.1573 H   0  0  0  0  0  0  0  0  0  0  0  0
   -2.9540   -0.3083    2.6837 H   0  0  0  0  0  0  0  0  0  0  0  0
   -1.3569    1.1965    1.6276 H   0  0  0  0  0  0  0  0  0  0  0  0
   -3.8352    1.4805    1.4667 H   0  0  0  0  0  0  0  0  0  0  0  0
   -3.0011    2.2205    0.0733 H   0  0  0  0  0  0  0  0  0  0  0  0
   -4.3109    3.1123   -1.2330 H   0  0  0  0  0  0  0  0  0  0  0  0
   -5.8697    3.2364   -1.9055 H   0  0  0  0  0  0  0  0  0  0  0  0
   -5.1462   -1.5140   -0.0370 H   0  0  0  0  0  0  0  0  0  0  0  0
   -5.0452   -0.4251    1.4041 H   0  0  0  0  0  0  0  0  0  0  0  0
   -2.9791    0.7416   -2.0890 H   0  0  0  0  0  0  0  0  0  0  0  0
   -3.9734   -0.8120   -2.0876 H   0  0  0  0  0  0  0  0  0  0  0  0
  1  2  1  0
  2  3  1  0
  2  4  1  0
  4  5  1  0
  5  6  2  0
  6  7  1  0
  7  8  2  0
  8  9  1  0
  9 10  2  0
 10 11  1  0
  2 12  1  0
 12 13  2  0
 12 14  1  0
 14 15  1  0
 15 16  1  0
 16 17  1  0
 17 18  1  0
 18 19  1  0
 19 20  1  0
 20 21  1  0
 21 22  1  0
 22 23  1  6
 23 24  1  0
 23 25  2  0
 23 26  2  0
 22 27  1  0
 22 28  1  0
 10  5  1  0
 20 15  1  0
 28 16  1  0
 27 18  1  0
  1 29  1  0
  1 30  1  0
  1 31  1  0
  3 32  1  0
  3 33  1  0
  3 34  1  0
  6 35  1  0
  7 36  1  0
  8 37  1  0
  9 38  1  0
 14 39  1  0
 15 40  1  6
 16 41  1  0
 17 42  1  0
 17 43  1  0
 18 44  1  0
 19 45  1  0
 19 46  1  0
 20 47  1  0
 21 48  1  0
 21 49  1  0
 24 50  1  0
 24 51  1  0
 27 52  1  0
 27 53  1  0
 28 54  1  0
 28 55  1  0
M  END
$$$$
