
     RDKit          3D

 72 74  0  0  0  0  0  0  0  0999 V2000
   -3.2793   -3.6570    2.2102 C   0  0  0  0  0  0  0  0  0  0  0  0
   -2.6676   -4.8792    1.5655 C   0  0  0  0  0  0  0  0  0  0  0  0
   -1.2391   -4.5389    0.6209 S   0  0  0  0  0  0  0  0  0  0  0  0
   -0.1408   -4.0906    1.5636 O   0  0  0  0  0  0  0  0  0  0  0  0
   -0.7601   -5.8809    0.0550 O   0  0  0  0  0  0  0  0  0  0  0  0
   -1.3980   -3.4874   -0.6769 N   0  0  0  0  0  0  0  0  0  0  0  0
   -1.7952   -2.1390   -0.4514 C   0  0  2  0  0  0  0  0  0  0  0  0
   -3.0159   -1.8903   -1.3223 C   0  0  0  0  0  0  0  0  0  0  0  0
   -3.5625   -0.5474   -1.2972 C   0  0  0  0  0  0  0  0  0  0  0  0
   -3.3221    0.2925   -2.4059 C   0  0  0  0  0  0  0  0  0  0  0  0
   -3.8852    1.4908   -2.2534 N   0  0  0  0  0  0  0  0  0  0  0  0
   -4.5158    1.5335   -1.0803 C   0  0  0  0  0  0  0  0  0  0  0  0
   -5.2583    2.4300   -0.3521 C   0  0  0  0  0  0  0  0  0  0  0  0
   -5.7866    2.1405    0.8819 C   0  0  0  0  0  0  0  0  0  0  0  0
   -5.5639    0.8722    1.4344 C   0  0  0  0  0  0  0  0  0  0  0  0
   -4.8280   -0.0228    0.7174 C   0  0  0  0  0  0  0  0  0  0  0  0
   -4.3110    0.2925   -0.5138 C   0  0  0  0  0  0  0  0  0  0  0  0
   -0.6593   -1.2901   -0.9954 C   0  0  0  0  0  0  0  0  0  0  0  0
    0.1601   -2.0691   -1.5497 O   0  0  0  0  0  0  0  0  0  0  0  0
   -0.5040    0.1207   -0.9176 N   0  0  0  0  0  0  0  0  0  0  0  0
    0.6412    0.7715   -1.4985 C   0  0  1  0  0  0  0  0  0  0  0  0
    0.2257    1.8540   -2.4406 C   0  0  0  0  0  0  0  0  0  0  0  0
   -0.5909    2.9321   -1.7598 C   0  0  0  0  0  0  0  0  0  0  0  0
   -0.9492    3.9341   -2.7954 C   0  0  0  0  0  0  0  0  0  0  0  0
   -1.7297    4.9340   -2.1065 N   0  0  0  0  0  0  0  0  0  0  0  0
   -1.1211    4.6234   -3.8118 O   0  0  0  0  0  0  0  0  0  0  0  0
    1.5801    1.2693   -0.4519 C   0  0  0  0  0  0  0  0  0  0  0  0
    1.1319    0.9503    0.6847 O   0  0  0  0  0  0  0  0  0  0  0  0
    2.7667    1.9784   -0.7330 N   0  0  0  0  0  0  0  0  0  0  0  0
    3.6387    2.4358    0.3067 C   0  0  0  0  0  0  0  0  0  0  0  0
    4.4884    1.3893    0.8939 C   0  0  0  0  0  0  0  0  0  0  0  0
    4.2106    0.5660    1.9624 C   0  0  0  0  0  0  0  0  0  0  0  0
    5.1244   -0.3764    2.3970 C   0  0  0  0  0  0  0  0  0  0  0  0
    6.3171   -0.4871    1.7543 C   0  0  0  0  0  0  0  0  0  0  0  0
    6.6381    0.3068    0.6905 C   0  0  0  0  0  0  0  0  0  0  0  0
    5.7195    1.2604    0.2461 C   0  0  0  0  0  0  0  0  0  0  0  0
    7.3225   -1.4792    2.1846 C   0  0  0  0  0  0  0  0  0  0  0  0
    7.3957   -1.8691    3.5471 N   0  0  0  0  0  0  0  0  0  0  0  0
    8.1821   -2.0501    1.3957 N   0  0  0  0  0  0  0  0  0  0  0  0
   -3.9377   -4.0093    3.0408 H   0  0  0  0  0  0  0  0  0  0  0  0
   -3.8797   -3.0816    1.4849 H   0  0  0  0  0  0  0  0  0  0  0  0
   -2.4907   -3.0167    2.6028 H   0  0  0  0  0  0  0  0  0  0  0  0
   -2.3631   -5.5498    2.4091 H   0  0  0  0  0  0  0  0  0  0  0  0
   -3.4345   -5.4641    1.0034 H   0  0  0  0  0  0  0  0  0  0  0  0
   -1.8960   -3.9533   -1.4673 H   0  0  0  0  0  0  0  0  0  0  0  0
   -2.0199   -1.8525    0.5755 H   0  0  0  0  0  0  0  0  0  0  0  0
   -2.7834   -2.2536   -2.3455 H   0  0  0  0  0  0  0  0  0  0  0  0
   -3.8520   -2.5830   -0.9871 H   0  0  0  0  0  0  0  0  0  0  0  0
   -2.7601    0.1001   -3.3313 H   0  0  0  0  0  0  0  0  0  0  0  0
   -3.8897    2.3169   -2.8825 H   0  0  0  0  0  0  0  0  0  0  0  0
   -5.4200    3.4060   -0.7938 H   0  0  0  0  0  0  0  0  0  0  0  0
   -6.3747    2.8405    1.4653 H   0  0  0  0  0  0  0  0  0  0  0  0
   -5.9747    0.6169    2.4157 H   0  0  0  0  0  0  0  0  0  0  0  0
   -4.6804   -0.9698    1.1607 H   0  0  0  0  0  0  0  0  0  0  0  0
   -1.2643    0.5901   -0.4207 H   0  0  0  0  0  0  0  0  0  0  0  0
    1.2168    0.0103   -2.0605 H   0  0  0  0  0  0  0  0  0  0  0  0
    1.1454    2.3266   -2.8488 H   0  0  0  0  0  0  0  0  0  0  0  0
   -0.3278    1.4532   -3.3092 H   0  0  0  0  0  0  0  0  0  0  0  0
    0.0462    3.4382   -0.9917 H   0  0  0  0  0  0  0  0  0  0  0  0
   -1.4972    2.5197   -1.2809 H   0  0  0  0  0  0  0  0  0  0  0  0
   -2.6403    5.4453   -1.9022 H   0  0  0  0  0  0  0  0  0  0  0  0
   -1.3152    5.5840   -1.3901 H   0  0  0  0  0  0  0  0  0  0  0  0
    2.9389    2.1319   -1.7587 H   0  0  0  0  0  0  0  0  0  0  0  0
    4.2212    3.2931   -0.0868 H   0  0  0  0  0  0  0  0  0  0  0  0
    2.9607    2.9046    1.0828 H   0  0  0  0  0  0  0  0  0  0  0  0
    3.2456    0.7161    2.4191 H   0  0  0  0  0  0  0  0  0  0  0  0
    4.8886   -1.0127    3.2348 H   0  0  0  0  0  0  0  0  0  0  0  0
    7.5968    0.1806    0.2159 H   0  0  0  0  0  0  0  0  0  0  0  0
    6.0613    1.8401   -0.5995 H   0  0  0  0  0  0  0  0  0  0  0  0
    8.3355   -1.6164    3.9650 H   0  0  0  0  0  0  0  0  0  0  0  0
    7.3365   -2.1962    4.5306 H   0  0  0  0  0  0  0  0  0  0  0  0
    8.1487   -1.7785    0.3871 H   0  0  0  0  0  0  0  0  0  0  0  0
  1  2  1  0
  2  3  1  0
  3  4  2  0
  3  5  2  0
  3  6  1  0
  6  7  1  0
  7  8  1  0
  8  9  1  0
  9 10  2  0
 10 11  1  0
 11 12  1  0
 12 13  2  0
 13 14  1  0
 14 15  2  0
 15 16  1  0
 16 17  2  0
  7 18  1  0
 18 19  2  0
 18 20  1  0
 20 21  1  0
 21 22  1  0
 22 23  1  0
 23 24  1  0
 24 25  1  0
 24 26  2  0
 21 27  1  0
 27 28  2  0
 27 29  1  0
 29 30  1  0
 30 31  1  0
 31 32  2  0
 32 33  1  0
 33 34  2  0
 34 35  1  0
 35 36  2  0
 34 37  1  0
 37 38  1  0
 37 39  2  3
 17  9  1  0
 36 31  1  0
 17 12  1  0
  1 40  1  0
  1 41  1  0
  1 42  1  0
  2 43  1  0
  2 44  1  0
  6 45  1  0
  7 46  1  1
  8 47  1  0
  8 48  1  0
 10 49  1  0
 11 50  1  0
 13 51  1  0
 14 52  1  0
 15 53  1  0
 16 54  1  0
 20 55  1  0
 21 56  1  6
 22 57  1  0
 22 58  1  0
 23 59  1  0
 23 60  1  0
 25 61  1  0
 25 62  1  0
 29 63  1  0
 30 64  1  0
 30 65  1  0
 32 66  1  0
 33 67  1  0
 35 68  1  0
 36 69  1  0
 38 70  1  0
 38 71  1  0
 39 72  1  0
M  END
$$$$
