
     RDKit          3D

 54 57  0  0  0  0  0  0  0  0999 V2000
   -1.8525    3.7071   -4.3805 C   0  0  0  0  0  0  0  0  0  0  0  0
   -1.0751    2.4851   -4.6046 C   0  0  0  0  0  0  0  0  0  0  0  0
   -0.2170    2.5575   -5.5621 O   0  0  0  0  0  0  0  0  0  0  0  0
   -1.1931    1.2795   -3.8759 N   0  0  0  0  0  0  0  0  0  0  0  0
   -0.3276    0.1443   -4.2500 C   0  0  0  0  0  0  0  0  0  0  0  0
    0.3686   -0.4448   -3.0426 C   0  0  0  0  0  0  0  0  0  0  0  0
   -0.5717   -0.6993   -1.9732 N   0  0  0  0  0  0  0  0  0  0  0  0
   -0.2926   -1.4182   -0.7967 C   0  0  0  0  0  0  0  0  0  0  0  0
    0.2058   -0.8652    0.3616 C   0  0  0  0  0  0  0  0  0  0  0  0
    0.4655   -1.6007    1.5097 C   0  0  0  0  0  0  0  0  0  0  0  0
    0.9972   -0.9271    2.7022 C   0  0  0  0  0  0  0  0  0  0  0  0
    0.6361    0.2369    3.3167 C   0  0  0  0  0  0  0  0  0  0  0  0
    1.4468    0.4535    4.4266 C   0  0  0  0  0  0  0  0  0  0  0  0
    1.3745    1.5989    5.3514 C   0  0  0  0  0  0  0  0  0  0  0  0
    0.3392    2.4431    4.9117 F   0  0  0  0  0  0  0  0  0  0  0  0
    1.0273    1.2639    6.6397 F   0  0  0  0  0  0  0  0  0  0  0  0
    2.5225    2.3397    5.2573 F   0  0  0  0  0  0  0  0  0  0  0  0
    2.3103   -0.6208    4.4598 C   0  0  0  0  0  0  0  0  0  0  0  0
    3.3478   -0.9877    5.3123 C   0  0  0  0  0  0  0  0  0  0  0  0
    3.6385   -0.1258    6.4030 N   0  0  0  0  0  0  0  0  0  0  0  0
    4.0330   -2.1166    5.0958 N   0  0  0  0  0  0  0  0  0  0  0  0
    3.7522   -2.9234    4.0691 C   0  0  0  0  0  0  0  0  0  0  0  0
    2.7443   -2.5476    3.2576 N   0  0  0  0  0  0  0  0  0  0  0  0
    2.0316   -1.4415    3.4226 N   0  0  0  0  0  0  0  0  0  0  0  0
    0.2166   -2.9566    1.5069 C   0  0  0  0  0  0  0  0  0  0  0  0
   -0.2779   -3.5358    0.3725 C   0  0  0  0  0  0  0  0  0  0  0  0
   -0.5313   -2.7751   -0.7717 C   0  0  0  0  0  0  0  0  0  0  0  0
   -1.0516   -3.4526   -1.9201 C   0  0  0  0  0  0  0  0  0  0  0  0
   -1.4760   -4.0229   -2.8475 N   0  0  0  0  0  0  0  0  0  0  0  0
   -1.8935   -0.1704   -2.1323 C   0  0  0  0  0  0  0  0  0  0  0  0
   -2.8961   -0.7961   -1.7203 O   0  0  0  0  0  0  0  0  0  0  0  0
   -2.1303    1.1581   -2.7987 C   0  0  0  0  0  0  0  0  0  0  0  0
   -1.8597    2.2719   -1.7947 C   0  0  0  0  0  0  0  0  0  0  0  0
   -3.5640    1.1572   -3.2793 C   0  0  0  0  0  0  0  0  0  0  0  0
   -2.8413    3.5259   -3.9623 H   0  0  0  0  0  0  0  0  0  0  0  0
   -1.3286    4.4738   -3.7570 H   0  0  0  0  0  0  0  0  0  0  0  0
   -2.0310    4.2644   -5.3596 H   0  0  0  0  0  0  0  0  0  0  0  0
    0.3557    0.3950   -5.0595 H   0  0  0  0  0  0  0  0  0  0  0  0
   -1.0185   -0.6400   -4.6304 H   0  0  0  0  0  0  0  0  0  0  0  0
    1.1113    0.2711   -2.6948 H   0  0  0  0  0  0  0  0  0  0  0  0
    0.7710   -1.4270   -3.3626 H   0  0  0  0  0  0  0  0  0  0  0  0
    0.4069    0.2070    0.3794 H   0  0  0  0  0  0  0  0  0  0  0  0
   -0.1482    0.8944    3.0095 H   0  0  0  0  0  0  0  0  0  0  0  0
    4.3515    0.6050    6.2821 H   0  0  0  0  0  0  0  0  0  0  0  0
    3.1211   -0.2573    7.3035 H   0  0  0  0  0  0  0  0  0  0  0  0
    4.2781   -3.8413    3.8570 H   0  0  0  0  0  0  0  0  0  0  0  0
    0.4251   -3.5254    2.4169 H   0  0  0  0  0  0  0  0  0  0  0  0
   -0.4736   -4.6049    0.3731 H   0  0  0  0  0  0  0  0  0  0  0  0
   -0.9763    2.8756   -2.0525 H   0  0  0  0  0  0  0  0  0  0  0  0
   -1.6339    1.8394   -0.7902 H   0  0  0  0  0  0  0  0  0  0  0  0
   -2.7757    2.8565   -1.6924 H   0  0  0  0  0  0  0  0  0  0  0  0
   -3.6007    1.3230   -4.3854 H   0  0  0  0  0  0  0  0  0  0  0  0
   -4.0489    0.1593   -3.1473 H   0  0  0  0  0  0  0  0  0  0  0  0
   -4.1917    1.9370   -2.8156 H   0  0  0  0  0  0  0  0  0  0  0  0
  1  2  1  0
  2  3  2  0
  2  4  1  0
  4  5  1  0
  5  6  1  0
  6  7  1  0
  7  8  1  0
  8  9  2  0
  9 10  1  0
 10 11  1  0
 11 12  2  0
 12 13  1  0
 13 14  1  0
 14 15  1  0
 14 16  1  0
 14 17  1  0
 13 18  2  0
 18 19  1  0
 19 20  1  0
 19 21  2  0
 21 22  1  0
 22 23  2  0
 23 24  1  0
 10 25  2  0
 25 26  1  0
 26 27  2  0
 27 28  1  0
 28 29  3  0
  7 30  1  0
 30 31  2  0
 30 32  1  0
 32 33  1  0
 32 34  1  0
 32  4  1  0
 27  8  1  0
 24 11  1  0
 24 18  1  0
  1 35  1  0
  1 36  1  0
  1 37  1  0
  5 38  1  0
  5 39  1  0
  6 40  1  0
  6 41  1  0
  9 42  1  0
 12 43  1  0
 20 44  1  0
 20 45  1  0
 22 46  1  0
 25 47  1  0
 26 48  1  0
 33 49  1  0
 33 50  1  0
 33 51  1  0
 34 52  1  0
 34 53  1  0
 34 54  1  0
M  END
$$$$
