
     RDKit          3D

 68 71  0  0  0  0  0  0  0  0999 V2000
    0.2975   -3.8007    0.7718 C   0  0  0  0  0  0  0  0  0  0  0  0
    0.2568   -2.3067    1.1033 C   0  0  1  0  0  0  0  0  0  0  0  0
    1.4904   -1.6328    0.5981 C   0  0  0  0  0  0  0  0  0  0  0  0
    2.5368   -1.3960    1.5000 C   0  0  0  0  0  0  0  0  0  0  0  0
    3.7065   -0.7883    1.1128 C   0  0  0  0  0  0  0  0  0  0  0  0
    3.9156   -0.3738   -0.1992 C   0  0  0  0  0  0  0  0  0  0  0  0
    5.1748    0.2701   -0.5793 C   0  0  0  0  0  0  0  0  0  0  0  0
    5.4442    0.6957   -1.8527 C   0  0  0  0  0  0  0  0  0  0  0  0
    6.6498    1.3033   -2.2046 C   0  0  0  0  0  0  0  0  0  0  0  0
    7.5787    1.4673   -1.2191 C   0  0  0  0  0  0  0  0  0  0  0  0
    8.6792    2.0108   -1.4939 O   0  0  0  0  0  0  0  0  0  0  0  0
    7.3078    1.0478    0.0285 N   0  0  0  0  0  0  0  0  0  0  0  0
    8.3416    1.2523    1.0263 C   0  0  0  0  0  0  0  0  0  0  0  0
    8.1740    2.6027    1.6909 C   0  0  0  0  0  0  0  0  0  0  0  0
    6.9353    2.6212    2.2876 F   0  0  0  0  0  0  0  0  0  0  0  0
    8.3032    3.5492    0.6862 F   0  0  0  0  0  0  0  0  0  0  0  0
    9.1827    2.7260    2.6386 F   0  0  0  0  0  0  0  0  0  0  0  0
    6.1472    0.4663    0.3504 N   0  0  0  0  0  0  0  0  0  0  0  0
    2.8966   -0.6025   -1.0836 C   0  0  0  0  0  0  0  0  0  0  0  0
    1.7031   -1.2237   -0.6848 C   0  0  0  0  0  0  0  0  0  0  0  0
   -0.9755   -1.6925    0.7051 N   0  0  0  0  0  0  0  0  0  0  0  0
   -1.4481   -1.6018   -0.6538 C   0  0  0  0  0  0  0  0  0  0  0  0
   -2.9779   -1.7396   -0.5985 C   0  0  0  0  0  0  0  0  0  0  0  0
   -3.5938   -0.4968    0.0821 C   0  0  2  0  0  0  0  0  0  0  0  0
   -5.0065   -0.8492    0.3495 C   0  0  0  0  0  0  0  0  0  0  0  0
   -5.8644    0.1271    1.0480 C   0  0  0  0  0  0  0  0  0  0  0  0
   -6.0679    1.4589    0.3985 C   0  0  0  0  0  0  0  0  0  0  0  0
   -7.2697   -0.5085    1.1182 C   0  0  0  0  0  0  0  0  0  0  0  0
   -5.4658    0.2934    2.3960 O   0  0  0  0  0  0  0  0  0  0  0  0
   -3.3484    0.6780   -0.7650 C   0  0  0  0  0  0  0  0  0  0  0  0
   -2.3650    1.6058   -0.4948 C   0  0  0  0  0  0  0  0  0  0  0  0
   -2.1322    2.6897   -1.3323 C   0  0  0  0  0  0  0  0  0  0  0  0
   -2.8791    2.8740   -2.4637 C   0  0  0  0  0  0  0  0  0  0  0  0
   -3.8687    1.9499   -2.7447 C   0  0  0  0  0  0  0  0  0  0  0  0
   -4.0857    0.8813   -1.9041 C   0  0  0  0  0  0  0  0  0  0  0  0
   -2.9353   -0.3399    1.3306 O   0  0  0  0  0  0  0  0  0  0  0  0
   -1.8584   -1.1371    1.7001 C   0  0  0  0  0  0  0  0  0  0  0  0
   -1.5944   -1.4160    2.8979 O   0  0  0  0  0  0  0  0  0  0  0  0
    1.3147   -4.1309    1.1306 H   0  0  0  0  0  0  0  0  0  0  0  0
    0.2866   -3.9872   -0.2999 H   0  0  0  0  0  0  0  0  0  0  0  0
   -0.4417   -4.3387    1.3645 H   0  0  0  0  0  0  0  0  0  0  0  0
    0.3008   -2.2799    2.2485 H   0  0  0  0  0  0  0  0  0  0  0  0
    2.3939   -1.7124    2.5314 H   0  0  0  0  0  0  0  0  0  0  0  0
    4.5306   -0.5958    1.7980 H   0  0  0  0  0  0  0  0  0  0  0  0
    4.7164    0.5723   -2.6397 H   0  0  0  0  0  0  0  0  0  0  0  0
    6.8420    1.6348   -3.2321 H   0  0  0  0  0  0  0  0  0  0  0  0
    9.3150    1.1263    0.5297 H   0  0  0  0  0  0  0  0  0  0  0  0
    8.2244    0.4223    1.7758 H   0  0  0  0  0  0  0  0  0  0  0  0
    2.9953   -0.3030   -2.1192 H   0  0  0  0  0  0  0  0  0  0  0  0
    0.9465   -1.3746   -1.4362 H   0  0  0  0  0  0  0  0  0  0  0  0
   -1.2545   -0.6057   -1.0407 H   0  0  0  0  0  0  0  0  0  0  0  0
   -1.1002   -2.4472   -1.2845 H   0  0  0  0  0  0  0  0  0  0  0  0
   -3.2762   -2.5947    0.0466 H   0  0  0  0  0  0  0  0  0  0  0  0
   -3.4079   -1.9097   -1.5883 H   0  0  0  0  0  0  0  0  0  0  0  0
   -5.0385   -1.8143    0.9422 H   0  0  0  0  0  0  0  0  0  0  0  0
   -5.5489   -1.1382   -0.5983 H   0  0  0  0  0  0  0  0  0  0  0  0
   -6.8433    2.0676    0.9770 H   0  0  0  0  0  0  0  0  0  0  0  0
   -5.1854    2.1134    0.4001 H   0  0  0  0  0  0  0  0  0  0  0  0
   -6.5522    1.3106   -0.5869 H   0  0  0  0  0  0  0  0  0  0  0  0
   -7.8587   -0.2677    0.2090 H   0  0  0  0  0  0  0  0  0  0  0  0
   -7.8009   -0.1610    2.0284 H   0  0  0  0  0  0  0  0  0  0  0  0
   -7.1636   -1.6147    1.1482 H   0  0  0  0  0  0  0  0  0  0  0  0
   -6.2812    0.4156    2.9353 H   0  0  0  0  0  0  0  0  0  0  0  0
   -1.7375    1.5217    0.3808 H   0  0  0  0  0  0  0  0  0  0  0  0
   -1.3427    3.4186   -1.0980 H   0  0  0  0  0  0  0  0  0  0  0  0
   -2.6986    3.7169   -3.1136 H   0  0  0  0  0  0  0  0  0  0  0  0
   -4.4538    2.1033   -3.6387 H   0  0  0  0  0  0  0  0  0  0  0  0
   -4.8655    0.1876   -2.1629 H   0  0  0  0  0  0  0  0  0  0  0  0
  1  2  1  0
  2  3  1  0
  3  4  2  0
  4  5  1  0
  5  6  2  0
  6  7  1  0
  7  8  1  0
  8  9  2  0
  9 10  1  0
 10 11  2  0
 10 12  1  0
 12 13  1  0
 13 14  1  0
 14 15  1  0
 14 16  1  0
 14 17  1  0
 12 18  1  0
  6 19  1  0
 19 20  2  0
  2 21  1  0
 21 22  1  0
 22 23  1  0
 23 24  1  0
 24 25  1  1
 25 26  1  0
 26 27  1  0
 26 28  1  0
 26 29  1  0
 24 30  1  0
 30 31  2  0
 31 32  1  0
 32 33  2  0
 33 34  1  0
 34 35  2  0
 24 36  1  0
 36 37  1  0
 37 38  2  0
 20  3  1  0
 37 21  1  0
 18  7  2  0
 35 30  1  0
  1 39  1  0
  1 40  1  0
  1 41  1  0
  2 42  1  1
  4 43  1  0
  5 44  1  0
  8 45  1  0
  9 46  1  0
 13 47  1  0
 13 48  1  0
 19 49  1  0
 20 50  1  0
 22 51  1  0
 22 52  1  0
 23 53  1  0
 23 54  1  0
 25 55  1  0
 25 56  1  0
 27 57  1  0
 27 58  1  0
 27 59  1  0
 28 60  1  0
 28 61  1  0
 28 62  1  0
 29 63  1  0
 31 64  1  0
 32 65  1  0
 33 66  1  0
 34 67  1  0
 35 68  1  0
M  END
$$$$
