
     RDKit          3D

 33 35  0  0  0  0  0  0  0  0999 V2000
   -5.3863   -3.1809    0.7985 N   0  0  0  0  0  0  0  0  0  0  0  0
   -4.4742   -2.5159    0.4719 C   0  0  0  0  0  0  0  0  0  0  0  0
   -3.3680   -1.6942    0.0510 C   0  0  0  0  0  0  0  0  0  0  0  0
   -3.3295   -1.1090   -1.1990 C   0  0  0  0  0  0  0  0  0  0  0  0
   -2.2215   -0.3385   -1.5042 C   0  0  0  0  0  0  0  0  0  0  0  0
   -1.1890   -0.1636   -0.5831 C   0  0  0  0  0  0  0  0  0  0  0  0
   -1.2658   -0.7660    0.6568 C   0  0  0  0  0  0  0  0  0  0  0  0
   -2.3582   -1.5406    0.9909 C   0  0  0  0  0  0  0  0  0  0  0  0
    0.0242    0.6580   -0.8682 C   0  0  0  0  0  0  0  0  0  0  0  0
   -0.2218    2.0353   -0.4585 N   0  0  0  0  0  0  0  0  0  0  0  0
    0.7085    2.9372   -0.1669 C   0  0  0  0  0  0  0  0  0  0  0  0
    0.0792    4.0984    0.1695 N   0  0  0  0  0  0  0  0  0  0  0  0
   -1.2344    3.8605    0.0698 C   0  0  0  0  0  0  0  0  0  0  0  0
   -1.4314    2.5916   -0.3167 N   0  0  0  0  0  0  0  0  0  0  0  0
    1.2520    0.0904   -0.2576 C   0  0  0  0  0  0  0  0  0  0  0  0
    1.7401    0.3723    0.9998 C   0  0  0  0  0  0  0  0  0  0  0  0
    2.8951   -0.2078    1.4821 C   0  0  0  0  0  0  0  0  0  0  0  0
    3.5902   -1.1035    0.6795 C   0  0  0  0  0  0  0  0  0  0  0  0
    3.1496   -1.4301   -0.5996 C   0  0  0  0  0  0  0  0  0  0  0  0
    1.9861   -0.8104   -1.0147 C   0  0  0  0  0  0  0  0  0  0  0  0
    4.8052   -1.7324    1.1495 C   0  0  0  0  0  0  0  0  0  0  0  0
    5.7841   -2.2320    1.5068 N   0  0  0  0  0  0  0  0  0  0  0  0
   -4.1376   -1.2554   -1.8990 H   0  0  0  0  0  0  0  0  0  0  0  0
   -2.1336    0.1487   -2.4743 H   0  0  0  0  0  0  0  0  0  0  0  0
   -0.4899   -0.6662    1.4192 H   0  0  0  0  0  0  0  0  0  0  0  0
   -2.4161   -2.0158    1.9722 H   0  0  0  0  0  0  0  0  0  0  0  0
    0.1534    0.6770   -1.9821 H   0  0  0  0  0  0  0  0  0  0  0  0
    1.7839    2.7864   -0.1894 H   0  0  0  0  0  0  0  0  0  0  0  0
   -2.0240    4.5902    0.2728 H   0  0  0  0  0  0  0  0  0  0  0  0
    1.1764    1.0675    1.5883 H   0  0  0  0  0  0  0  0  0  0  0  0
    3.2378    0.0382    2.4611 H   0  0  0  0  0  0  0  0  0  0  0  0
    3.6698   -2.1239   -1.2471 H   0  0  0  0  0  0  0  0  0  0  0  0
    1.6457   -1.0655   -2.0086 H   0  0  0  0  0  0  0  0  0  0  0  0
  1  2  3  0
  2  3  1  0
  3  4  2  0
  4  5  1  0
  5  6  2  0
  6  7  1  0
  7  8  2  0
  6  9  1  0
  9 10  1  0
 10 11  1  0
 11 12  2  0
 12 13  1  0
 13 14  2  0
  9 15  1  0
 15 16  2  0
 16 17  1  0
 17 18  2  0
 18 19  1  0
 19 20  2  0
 18 21  1  0
 21 22  3  0
  8  3  1  0
 14 10  1  0
 20 15  1  0
  4 23  1  0
  5 24  1  0
  7 25  1  0
  8 26  1  0
  9 27  1  0
 11 28  1  0
 13 29  1  0
 16 30  1  0
 17 31  1  0
 19 32  1  0
 20 33  1  0
M  END
$$$$
