
     RDKit          3D

 81 87  0  0  0  0  0  0  0  0999 V2000
   -1.7046    3.5993   -0.4347 C   0  0  0  0  0  0  0  0  0  0  0  0
   -1.4712    2.5999    0.6502 C   0  0  0  0  0  0  0  0  0  0  0  0
   -2.0594    1.3029    0.2596 C   0  0  0  0  0  0  0  0  0  0  0  0
   -3.4477    1.1453    0.3584 C   0  0  0  0  0  0  0  0  0  0  0  0
   -4.4810    2.0985    0.8109 C   0  0  0  0  0  0  0  0  0  0  0  0
   -5.7171    1.3885    0.6861 N   0  0  0  0  0  0  0  0  0  0  0  0
   -5.4781    0.1506    0.2264 C   0  0  0  0  0  0  0  0  0  0  0  0
   -6.5607   -0.6813    0.0438 C   0  0  0  0  0  0  0  0  0  0  0  0
   -7.8423   -0.3165    0.3016 C   0  0  0  0  0  0  0  0  0  0  0  0
   -8.0442    0.9813    0.7789 C   0  0  0  0  0  0  0  0  0  0  0  0
   -9.3927    1.5450    1.1232 C   0  0  0  0  0  0  0  0  0  0  0  0
  -10.1994    0.4849    1.6658 O   0  0  0  0  0  0  0  0  0  0  0  0
   -9.8636   -0.8592    1.4545 C   0  0  0  0  0  0  0  0  0  0  0  0
  -10.2587   -1.6236    2.3712 O   0  0  0  0  0  0  0  0  0  0  0  0
   -9.1142   -1.0287    0.1758 C   0  0  1  0  0  0  0  0  0  0  0  0
   -9.9149   -0.3716   -0.8004 O   0  0  0  0  0  0  0  0  0  0  0  0
   -9.0196   -2.4575   -0.2371 C   0  0  0  0  0  0  0  0  0  0  0  0
   -8.3826   -2.6477   -1.5735 C   0  0  0  0  0  0  0  0  0  0  0  0
   -6.9623    1.8472    0.9739 C   0  0  0  0  0  0  0  0  0  0  0  0
   -7.1418    3.0352    1.4103 O   0  0  0  0  0  0  0  0  0  0  0  0
   -4.0541   -0.0597    0.0010 C   0  0  0  0  0  0  0  0  0  0  0  0
   -3.3424   -1.1165   -0.4502 N   0  0  0  0  0  0  0  0  0  0  0  0
   -2.0095   -0.9702   -0.5468 C   0  0  0  0  0  0  0  0  0  0  0  0
   -1.2362   -2.0279   -1.0124 C   0  0  0  0  0  0  0  0  0  0  0  0
    0.1454   -1.8973   -1.1275 C   0  0  0  0  0  0  0  0  0  0  0  0
    0.7996   -0.7294   -0.7896 C   0  0  0  0  0  0  0  0  0  0  0  0
    2.1694   -0.5491   -0.8873 O   0  0  0  0  0  0  0  0  0  0  0  0
    3.0085   -0.8467    0.1467 C   0  0  0  0  0  0  0  0  0  0  0  0
    2.7252   -1.3095    1.3025 O   0  0  0  0  0  0  0  0  0  0  0  0
    4.4263   -0.6290   -0.0297 N   0  0  0  0  0  0  0  0  0  0  0  0
    5.2859   -0.9577    1.0972 C   0  0  0  0  0  0  0  0  0  0  0  0
    6.4355   -1.7555    0.6068 C   0  0  0  0  0  0  0  0  0  0  0  0
    7.0815   -1.2616   -0.6590 C   0  0  0  0  0  0  0  0  0  0  0  0
    6.1144   -0.8513   -1.7110 C   0  0  0  0  0  0  0  0  0  0  0  0
    4.9157   -0.1021   -1.2863 C   0  0  0  0  0  0  0  0  0  0  0  0
    8.1410   -0.3383   -0.4966 N   0  0  0  0  0  0  0  0  0  0  0  0
    7.9000    0.8808    0.1730 C   0  0  0  0  0  0  0  0  0  0  0  0
    9.1808    1.7179    0.0160 C   0  0  0  0  0  0  0  0  0  0  0  0
   10.3375    1.1088    0.7574 C   0  0  0  0  0  0  0  0  0  0  0  0
   10.0872   -0.3773    0.9009 C   0  0  0  0  0  0  0  0  0  0  0  0
    9.4596   -0.8459   -0.4094 C   0  0  0  0  0  0  0  0  0  0  0  0
    0.0083    0.3250   -0.3225 C   0  0  0  0  0  0  0  0  0  0  0  0
   -1.3540    0.1943   -0.2096 C   0  0  0  0  0  0  0  0  0  0  0  0
   -2.0768    4.5670   -0.0228 H   0  0  0  0  0  0  0  0  0  0  0  0
   -0.8225    3.7499   -1.0910 H   0  0  0  0  0  0  0  0  0  0  0  0
   -2.5002    3.2177   -1.1048 H   0  0  0  0  0  0  0  0  0  0  0  0
   -2.1016    2.9547    1.5278 H   0  0  0  0  0  0  0  0  0  0  0  0
   -0.4572    2.5552    1.0559 H   0  0  0  0  0  0  0  0  0  0  0  0
   -4.2266    2.3206    1.8881 H   0  0  0  0  0  0  0  0  0  0  0  0
   -4.4547    3.0522    0.2707 H   0  0  0  0  0  0  0  0  0  0  0  0
   -6.4454   -1.6726   -0.3101 H   0  0  0  0  0  0  0  0  0  0  0  0
   -9.9168    1.9147    0.2381 H   0  0  0  0  0  0  0  0  0  0  0  0
   -9.3314    2.2914    1.9155 H   0  0  0  0  0  0  0  0  0  0  0  0
  -10.8754   -0.4447   -0.5969 H   0  0  0  0  0  0  0  0  0  0  0  0
   -8.5605   -3.0879    0.5566 H   0  0  0  0  0  0  0  0  0  0  0  0
  -10.0768   -2.8355   -0.3007 H   0  0  0  0  0  0  0  0  0  0  0  0
   -7.5247   -3.3670   -1.5781 H   0  0  0  0  0  0  0  0  0  0  0  0
   -8.0389   -1.7288   -2.0682 H   0  0  0  0  0  0  0  0  0  0  0  0
   -9.1113   -3.1259   -2.2990 H   0  0  0  0  0  0  0  0  0  0  0  0
   -1.7132   -2.9479   -1.2829 H   0  0  0  0  0  0  0  0  0  0  0  0
    0.7389   -2.7324   -1.4929 H   0  0  0  0  0  0  0  0  0  0  0  0
    5.5699   -0.0538    1.6726 H   0  0  0  0  0  0  0  0  0  0  0  0
    4.7291   -1.5926    1.8241 H   0  0  0  0  0  0  0  0  0  0  0  0
    7.2038   -1.8058    1.4096 H   0  0  0  0  0  0  0  0  0  0  0  0
    6.0720   -2.8081    0.4809 H   0  0  0  0  0  0  0  0  0  0  0  0
    7.5876   -2.1953   -1.0647 H   0  0  0  0  0  0  0  0  0  0  0  0
    6.6627   -0.2536   -2.4819 H   0  0  0  0  0  0  0  0  0  0  0  0
    5.7671   -1.7557   -2.2954 H   0  0  0  0  0  0  0  0  0  0  0  0
    5.0253    0.9973   -1.2687 H   0  0  0  0  0  0  0  0  0  0  0  0
    4.1034   -0.2783   -2.0532 H   0  0  0  0  0  0  0  0  0  0  0  0
    7.7723    0.8047    1.2732 H   0  0  0  0  0  0  0  0  0  0  0  0
    7.1090    1.5234   -0.2256 H   0  0  0  0  0  0  0  0  0  0  0  0
    8.9818    2.7764    0.2801 H   0  0  0  0  0  0  0  0  0  0  0  0
    9.4098    1.6758   -1.0686 H   0  0  0  0  0  0  0  0  0  0  0  0
   11.3056    1.3197    0.2260 H   0  0  0  0  0  0  0  0  0  0  0  0
   10.4159    1.6220    1.7364 H   0  0  0  0  0  0  0  0  0  0  0  0
   11.0202   -0.9350    1.1190 H   0  0  0  0  0  0  0  0  0  0  0  0
    9.4208   -0.4994    1.7663 H   0  0  0  0  0  0  0  0  0  0  0  0
   10.0738   -0.3275   -1.1996 H   0  0  0  0  0  0  0  0  0  0  0  0
    9.5773   -1.9090   -0.6022 H   0  0  0  0  0  0  0  0  0  0  0  0
    0.5185    1.2200   -0.0664 H   0  0  0  0  0  0  0  0  0  0  0  0
  1  2  1  0
  2  3  1  0
  3  4  2  0
  4  5  1  0
  5  6  1  0
  6  7  1  0
  7  8  2  0
  8  9  1  0
  9 10  2  0
 10 11  1  0
 11 12  1  0
 12 13  1  0
 13 14  2  0
 13 15  1  0
 15 16  1  6
 15 17  1  0
 17 18  1  0
 10 19  1  0
 19 20  2  0
  7 21  1  0
 21 22  2  0
 22 23  1  0
 23 24  2  0
 24 25  1  0
 25 26  2  0
 26 27  1  0
 27 28  1  0
 28 29  2  0
 28 30  1  0
 30 31  1  0
 31 32  1  0
 32 33  1  0
 33 34  1  0
 34 35  1  0
 33 36  1  0
 36 37  1  0
 37 38  1  0
 38 39  1  0
 39 40  1  0
 40 41  1  0
 26 42  1  0
 42 43  2  0
 43  3  1  0
 21  4  1  0
 43 23  1  0
 19  6  1  0
 35 30  1  0
 41 36  1  0
 15  9  1  0
  1 44  1  0
  1 45  1  0
  1 46  1  0
  2 47  1  0
  2 48  1  0
  5 49  1  0
  5 50  1  0
  8 51  1  0
 11 52  1  0
 11 53  1  0
 16 54  1  0
 17 55  1  0
 17 56  1  0
 18 57  1  0
 18 58  1  0
 18 59  1  0
 24 60  1  0
 25 61  1  0
 31 62  1  0
 31 63  1  0
 32 64  1  0
 32 65  1  0
 33 66  1  0
 34 67  1  0
 34 68  1  0
 35 69  1  0
 35 70  1  0
 37 71  1  0
 37 72  1  0
 38 73  1  0
 38 74  1  0
 39 75  1  0
 39 76  1  0
 40 77  1  0
 40 78  1  0
 41 79  1  0
 41 80  1  0
 42 81  1  0
M  END
$$$$
