
     RDKit          3D

 27 28  0  0  0  0  0  0  0  0999 V2000
   -0.7336   -0.7797    2.2886 O   0  0  0  0  0  0  0  0  0  0  0  0
   -0.8826   -0.2844    1.1448 C   0  0  0  0  0  0  0  0  0  0  0  0
    0.2664   -0.0639    0.2865 C   0  0  0  0  0  0  0  0  0  0  0  0
    1.4927   -0.3694    0.6658 C   0  0  0  0  0  0  0  0  0  0  0  0
    2.6464   -0.1516   -0.1876 C   0  0  0  0  0  0  0  0  0  0  0  0
    3.9161   -0.5085    0.3025 C   0  0  0  0  0  0  0  0  0  0  0  0
    5.0163   -0.3092   -0.4912 C   0  0  0  0  0  0  0  0  0  0  0  0
    4.8871    0.2364   -1.7608 C   0  0  0  0  0  0  0  0  0  0  0  0
    3.6555    0.5593   -2.1804 N   0  0  0  0  0  0  0  0  0  0  0  0
    2.5307    0.3832   -1.4354 C   0  0  0  0  0  0  0  0  0  0  0  0
   -2.2207    0.0653    0.6916 C   0  0  0  0  0  0  0  0  0  0  0  0
   -2.4936    0.6127   -0.5414 C   0  0  0  0  0  0  0  0  0  0  0  0
   -3.7921    0.9151   -0.8927 C   0  0  0  0  0  0  0  0  0  0  0  0
   -4.8374    0.6825   -0.0351 C   0  0  0  0  0  0  0  0  0  0  0  0
   -4.6022    0.1342    1.2111 C   0  0  0  0  0  0  0  0  0  0  0  0
   -6.0486   -0.1965    2.4190 Br  0  0  0  0  0  0  0  0  0  0  0  0
   -3.3142   -0.1587    1.5426 C   0  0  0  0  0  0  0  0  0  0  0  0
    0.1232    0.3584   -0.6842 H   0  0  0  0  0  0  0  0  0  0  0  0
    1.6165   -0.8065    1.6772 H   0  0  0  0  0  0  0  0  0  0  0  0
    4.0146   -0.9393    1.3060 H   0  0  0  0  0  0  0  0  0  0  0  0
    6.0175   -0.5643   -0.1679 H   0  0  0  0  0  0  0  0  0  0  0  0
    5.7598    0.3899   -2.3796 H   0  0  0  0  0  0  0  0  0  0  0  0
    1.5875    0.6829   -1.8822 H   0  0  0  0  0  0  0  0  0  0  0  0
   -1.6868    0.8074   -1.2399 H   0  0  0  0  0  0  0  0  0  0  0  0
   -3.9518    1.3434   -1.8730 H   0  0  0  0  0  0  0  0  0  0  0  0
   -5.8479    0.9184   -0.3098 H   0  0  0  0  0  0  0  0  0  0  0  0
   -3.1191   -0.5922    2.5251 H   0  0  0  0  0  0  0  0  0  0  0  0
  1  2  2  0
  2  3  1  0
  3  4  2  0
  4  5  1  0
  5  6  2  0
  6  7  1  0
  7  8  2  0
  8  9  1  0
  9 10  2  0
  2 11  1  0
 11 12  2  0
 12 13  1  0
 13 14  2  0
 14 15  1  0
 15 16  1  0
 15 17  2  0
 10  5  1  0
 17 11  1  0
  3 18  1  0
  4 19  1  0
  6 20  1  0
  7 21  1  0
  8 22  1  0
 10 23  1  0
 12 24  1  0
 13 25  1  0
 14 26  1  0
 17 27  1  0
M  END
$$$$
