
     RDKit          3D

 34 34  0  0  0  0  0  0  0  0999 V2000
   -2.2729   -1.6910    1.5663 C   0  0  0  0  0  0  0  0  0  0  0  0
   -2.5293   -0.9739    0.2762 C   0  0  0  0  0  0  0  0  0  0  0  0
   -1.9192    0.3221    0.1538 N   0  0  0  0  0  0  0  0  0  0  0  0
   -2.6605    1.0933   -0.8663 C   0  0  0  0  0  0  0  0  0  0  0  0
   -2.0728    2.4551   -0.9606 C   0  0  0  0  0  0  0  0  0  0  0  0
   -0.5169    0.3752   -0.1314 C   0  0  0  0  0  0  0  0  0  0  0  0
   -0.1849    0.6175   -1.5915 C   0  0  0  0  0  0  0  0  0  0  0  0
    0.2591   -0.8760    0.1705 C   0  0  0  0  0  0  0  0  0  0  0  0
    0.0797   -2.1091    0.3300 O   0  0  0  0  0  0  0  0  0  0  0  0
    1.7147   -0.6912    0.3571 C   0  0  0  0  0  0  0  0  0  0  0  0
    2.6028   -1.6852    0.6420 C   0  0  0  0  0  0  0  0  0  0  0  0
    3.9743   -1.5353    0.8235 C   0  0  0  0  0  0  0  0  0  0  0  0
    4.5104   -0.2874    0.7116 C   0  0  0  0  0  0  0  0  0  0  0  0
    3.6810    0.7627    0.4268 C   0  0  0  0  0  0  0  0  0  0  0  0
    2.3332    0.5510    0.2585 C   0  0  0  0  0  0  0  0  0  0  0  0
   -1.5204   -1.1687    2.1937 H   0  0  0  0  0  0  0  0  0  0  0  0
   -3.2277   -1.5426    2.1959 H   0  0  0  0  0  0  0  0  0  0  0  0
   -2.1914   -2.7756    1.5125 H   0  0  0  0  0  0  0  0  0  0  0  0
   -2.2446   -1.6485   -0.5844 H   0  0  0  0  0  0  0  0  0  0  0  0
   -3.6198   -0.8408    0.1501 H   0  0  0  0  0  0  0  0  0  0  0  0
   -2.8673    0.5517   -1.7765 H   0  0  0  0  0  0  0  0  0  0  0  0
   -3.6794    1.2177   -0.3718 H   0  0  0  0  0  0  0  0  0  0  0  0
   -1.2397    2.6713   -0.2647 H   0  0  0  0  0  0  0  0  0  0  0  0
   -1.7800    2.7627   -2.0092 H   0  0  0  0  0  0  0  0  0  0  0  0
   -2.8435    3.2605   -0.7093 H   0  0  0  0  0  0  0  0  0  0  0  0
   -0.0848    1.1865    0.4610 H   0  0  0  0  0  0  0  0  0  0  0  0
   -0.9929    0.5084   -2.2945 H   0  0  0  0  0  0  0  0  0  0  0  0
    0.2722    1.6173   -1.7444 H   0  0  0  0  0  0  0  0  0  0  0  0
    0.6251   -0.0849   -1.9562 H   0  0  0  0  0  0  0  0  0  0  0  0
    2.2598   -2.7010    0.7465 H   0  0  0  0  0  0  0  0  0  0  0  0
    4.6071   -2.3748    1.0469 H   0  0  0  0  0  0  0  0  0  0  0  0
    5.5673   -0.1567    0.8484 H   0  0  0  0  0  0  0  0  0  0  0  0
    4.1542    1.7256    0.3495 H   0  0  0  0  0  0  0  0  0  0  0  0
    1.8072    1.4642    0.0402 H   0  0  0  0  0  0  0  0  0  0  0  0
  1  2  1  0
  2  3  1  0
  3  4  1  0
  4  5  1  0
  3  6  1  0
  6  7  1  0
  6  8  1  0
  8  9  2  0
  8 10  1  0
 10 11  2  0
 11 12  1  0
 12 13  2  0
 13 14  1  0
 14 15  2  0
 15 10  1  0
  1 16  1  0
  1 17  1  0
  1 18  1  0
  2 19  1  0
  2 20  1  0
  4 21  1  0
  4 22  1  0
  5 23  1  0
  5 24  1  0
  5 25  1  0
  6 26  1  0
  7 27  1  0
  7 28  1  0
  7 29  1  0
 11 30  1  0
 12 31  1  0
 13 32  1  0
 14 33  1  0
 15 34  1  0
M  END
$$$$
