
     RDKit          3D

 36 38  0  0  0  0  0  0  0  0999 V2000
    7.3822   -0.7760   -0.6651 C   0  0  0  0  0  0  0  0  0  0  0  0
    6.0126   -0.3097   -0.3912 C   0  0  0  0  0  0  0  0  0  0  0  0
    5.8282    0.8331    0.1014 O   0  0  0  0  0  0  0  0  0  0  0  0
    4.8520   -1.0907   -0.6554 N   0  0  0  0  0  0  0  0  0  0  0  0
    3.5551   -0.5592   -0.3582 C   0  0  0  0  0  0  0  0  0  0  0  0
    2.3318   -1.1592   -0.5433 C   0  0  0  0  0  0  0  0  0  0  0  0
    1.3635   -0.3209   -0.1340 N   0  0  0  0  0  0  0  0  0  0  0  0
    0.0117   -0.3896   -0.0864 C   0  0  0  0  0  0  0  0  0  0  0  0
   -0.7906    0.6239    0.3882 C   0  0  0  0  0  0  0  0  0  0  0  0
   -2.2365    0.5629    0.4453 C   0  0  0  0  0  0  0  0  0  0  0  0
   -2.9352    1.2197    1.4211 C   0  0  0  0  0  0  0  0  0  0  0  0
   -4.2947    1.1759    1.4926 N   0  0  0  0  0  0  0  0  0  0  0  0
   -4.9559    0.4628    0.5714 C   0  0  0  0  0  0  0  0  0  0  0  0
   -6.3623    0.4182    0.6470 N   0  0  0  0  0  0  0  0  0  0  0  0
   -4.3126   -0.2190   -0.4335 C   0  0  0  0  0  0  0  0  0  0  0  0
   -5.0814   -0.9976   -1.4345 C   0  0  0  0  0  0  0  0  0  0  0  0
   -5.9229   -0.1012   -2.0810 F   0  0  0  0  0  0  0  0  0  0  0  0
   -5.8357   -1.9650   -0.8387 F   0  0  0  0  0  0  0  0  0  0  0  0
   -4.1964   -1.5574   -2.3456 F   0  0  0  0  0  0  0  0  0  0  0  0
   -2.9258   -0.1638   -0.4920 C   0  0  0  0  0  0  0  0  0  0  0  0
   -0.1505    1.7782    0.8407 C   0  0  0  0  0  0  0  0  0  0  0  0
    1.2176    1.8843    0.8080 C   0  0  0  0  0  0  0  0  0  0  0  0
    1.9464    0.8209    0.3164 C   0  0  0  0  0  0  0  0  0  0  0  0
    3.2785    0.6460    0.1674 N   0  0  0  0  0  0  0  0  0  0  0  0
    7.7585   -0.4310   -1.6655 H   0  0  0  0  0  0  0  0  0  0  0  0
    8.1046   -0.3617    0.0736 H   0  0  0  0  0  0  0  0  0  0  0  0
    7.4909   -1.8712   -0.6588 H   0  0  0  0  0  0  0  0  0  0  0  0
    4.9477   -2.0430   -1.0627 H   0  0  0  0  0  0  0  0  0  0  0  0
    2.1343   -2.1390   -0.9470 H   0  0  0  0  0  0  0  0  0  0  0  0
   -0.4592   -1.2981   -0.4445 H   0  0  0  0  0  0  0  0  0  0  0  0
   -2.4441    1.8137    2.1950 H   0  0  0  0  0  0  0  0  0  0  0  0
   -6.8895   -0.4497    0.9439 H   0  0  0  0  0  0  0  0  0  0  0  0
   -6.8965    1.2849    0.3971 H   0  0  0  0  0  0  0  0  0  0  0  0
   -2.4113   -0.6987   -1.2817 H   0  0  0  0  0  0  0  0  0  0  0  0
   -0.7786    2.5801    1.2154 H   0  0  0  0  0  0  0  0  0  0  0  0
    1.6642    2.7974    1.1694 H   0  0  0  0  0  0  0  0  0  0  0  0
  1  2  1  0
  2  3  2  0
  2  4  1  0
  4  5  1  0
  5  6  2  0
  6  7  1  0
  7  8  1  0
  8  9  2  0
  9 10  1  0
 10 11  2  0
 11 12  1  0
 12 13  2  0
 13 14  1  0
 13 15  1  0
 15 16  1  0
 16 17  1  0
 16 18  1  0
 16 19  1  0
 15 20  2  0
  9 21  1  0
 21 22  2  0
 22 23  1  0
 23 24  2  0
 24  5  1  0
 23  7  1  0
 20 10  1  0
  1 25  1  0
  1 26  1  0
  1 27  1  0
  4 28  1  0
  6 29  1  0
  8 30  1  0
 11 31  1  0
 14 32  1  0
 14 33  1  0
 20 34  1  0
 21 35  1  0
 22 36  1  0
M  END
$$$$
