
     RDKit          3D

 61 63  0  0  0  0  0  0  0  0999 V2000
    7.2697   -0.1362    1.4830 C   0  0  0  0  0  0  0  0  0  0  0  0
    5.9883   -0.7916    1.9533 C   0  0  0  0  0  0  0  0  0  0  0  0
    4.8119   -0.1931    1.2465 C   0  0  0  0  0  0  0  0  0  0  0  0
    3.3190   -0.9958    1.8320 S   0  0  0  0  0  6  0  0  0  0  0  0
    3.4734   -2.4555    1.5610 O   0  0  0  0  0  0  0  0  0  0  0  0
    3.2584   -0.7898    3.2987 O   0  0  0  0  0  0  0  0  0  0  0  0
    2.0080   -0.2823    1.0003 N   0  0  0  0  0  0  0  0  0  0  0  0
    2.0616   -0.4605   -0.4259 C   0  0  0  0  0  0  0  0  0  0  0  0
    0.6881   -0.4967   -1.0293 C   0  0  0  0  0  0  0  0  0  0  0  0
   -0.2915    0.4836   -0.4200 C   0  0  0  0  0  0  0  0  0  0  0  0
   -1.6387    0.1569   -1.0232 C   0  0  0  0  0  0  0  0  0  0  0  0
   -2.0875   -1.1895   -0.7490 N   0  0  0  0  0  0  0  0  0  0  0  0
   -3.3225   -1.6513   -1.2463 C   0  0  0  0  0  0  0  0  0  0  0  0
   -3.9700   -0.7772   -1.9376 O   0  0  0  0  0  0  0  0  0  0  0  0
   -3.8961   -2.9737   -1.0498 C   0  0  0  0  0  0  0  0  0  0  0  0
   -3.3345   -3.9957   -0.3535 C   0  0  0  0  0  0  0  0  0  0  0  0
   -2.1051   -3.8077    0.2394 F   0  0  0  0  0  0  0  0  0  0  0  0
   -3.9487   -5.2199   -0.2159 C   0  0  0  0  0  0  0  0  0  0  0  0
   -5.1720   -5.4344   -0.7957 C   0  0  0  0  0  0  0  0  0  0  0  0
   -5.7765   -4.4132   -1.5150 C   0  0  0  0  0  0  0  0  0  0  0  0
   -5.1465   -3.2009   -1.6394 C   0  0  0  0  0  0  0  0  0  0  0  0
   -5.9735   -1.9653   -2.5610 Cl  0  0  0  0  0  0  0  0  0  0  0  0
    0.0756    1.8497   -0.8601 C   0  0  0  0  0  0  0  0  0  0  0  0
    1.1220    1.9529   -1.5894 O   0  0  0  0  0  0  0  0  0  0  0  0
   -0.5919    3.0483   -0.5708 N   0  0  0  0  0  0  0  0  0  0  0  0
   -0.0727    4.3100   -1.0816 C   0  0  0  0  0  0  0  0  0  0  0  0
   -1.2605    5.1966   -1.3888 C   0  0  0  0  0  0  0  0  0  0  0  0
   -1.9444    5.5412   -0.2282 O   0  0  0  0  0  0  0  0  0  0  0  0
   -1.7712    4.6117    0.7924 C   0  0  0  0  0  0  0  0  0  0  0  0
   -1.7967    3.1872    0.2016 C   0  0  0  0  0  0  0  0  0  0  0  0
   -0.2705    0.3354    1.0725 C   0  0  0  0  0  0  0  0  0  0  0  0
    0.7127   -0.7420    1.4752 C   0  0  0  0  0  0  0  0  0  0  0  0
    8.1063   -0.6951    1.9809 H   0  0  0  0  0  0  0  0  0  0  0  0
    7.3777   -0.3211    0.3943 H   0  0  0  0  0  0  0  0  0  0  0  0
    7.3257    0.9200    1.7473 H   0  0  0  0  0  0  0  0  0  0  0  0
    6.0147   -1.8711    1.7366 H   0  0  0  0  0  0  0  0  0  0  0  0
    5.8406   -0.6448    3.0390 H   0  0  0  0  0  0  0  0  0  0  0  0
    4.6933    0.8829    1.3761 H   0  0  0  0  0  0  0  0  0  0  0  0
    4.8365   -0.3954    0.1432 H   0  0  0  0  0  0  0  0  0  0  0  0
    2.5677   -1.4014   -0.7265 H   0  0  0  0  0  0  0  0  0  0  0  0
    2.6332    0.3664   -0.8805 H   0  0  0  0  0  0  0  0  0  0  0  0
    0.8340   -0.2003   -2.1127 H   0  0  0  0  0  0  0  0  0  0  0  0
    0.2789   -1.5326   -1.0700 H   0  0  0  0  0  0  0  0  0  0  0  0
   -1.6163    0.3712   -2.1078 H   0  0  0  0  0  0  0  0  0  0  0  0
   -2.3864    0.8256   -0.5758 H   0  0  0  0  0  0  0  0  0  0  0  0
   -1.5055   -1.8140   -0.1853 H   0  0  0  0  0  0  0  0  0  0  0  0
   -3.4358   -6.0003    0.3615 H   0  0  0  0  0  0  0  0  0  0  0  0
   -5.6365   -6.4027   -0.6753 H   0  0  0  0  0  0  0  0  0  0  0  0
   -6.7421   -4.6320   -1.9536 H   0  0  0  0  0  0  0  0  0  0  0  0
    0.4631    4.7909   -0.2243 H   0  0  0  0  0  0  0  0  0  0  0  0
    0.5765    4.1976   -1.9433 H   0  0  0  0  0  0  0  0  0  0  0  0
   -1.9449    4.6344   -2.0477 H   0  0  0  0  0  0  0  0  0  0  0  0
   -0.9385    6.1604   -1.8538 H   0  0  0  0  0  0  0  0  0  0  0  0
   -2.6163    4.7540    1.4994 H   0  0  0  0  0  0  0  0  0  0  0  0
   -0.8370    4.7532    1.3606 H   0  0  0  0  0  0  0  0  0  0  0  0
   -2.7157    3.1739   -0.4197 H   0  0  0  0  0  0  0  0  0  0  0  0
   -1.7940    2.4741    1.0267 H   0  0  0  0  0  0  0  0  0  0  0  0
    0.1675    1.2796    1.4856 H   0  0  0  0  0  0  0  0  0  0  0  0
   -1.2529    0.2084    1.5369 H   0  0  0  0  0  0  0  0  0  0  0  0
    0.7775   -0.8557    2.5707 H   0  0  0  0  0  0  0  0  0  0  0  0
    0.5107   -1.7278    1.0421 H   0  0  0  0  0  0  0  0  0  0  0  0
  1  2  1  0
  2  3  1  0
  3  4  1  0
  4  5  2  0
  4  6  2  0
  4  7  1  0
  7  8  1  0
  8  9  1  0
  9 10  1  0
 10 11  1  0
 11 12  1  0
 12 13  1  0
 13 14  2  0
 13 15  1  0
 15 16  2  0
 16 17  1  0
 16 18  1  0
 18 19  2  0
 19 20  1  0
 20 21  2  0
 21 22  1  0
 10 23  1  0
 23 24  2  0
 23 25  1  0
 25 26  1  0
 26 27  1  0
 27 28  1  0
 28 29  1  0
 29 30  1  0
 10 31  1  0
 31 32  1  0
 32  7  1  0
 21 15  1  0
 30 25  1  0
  1 33  1  0
  1 34  1  0
  1 35  1  0
  2 36  1  0
  2 37  1  0
  3 38  1  0
  3 39  1  0
  8 40  1  0
  8 41  1  0
  9 42  1  0
  9 43  1  0
 11 44  1  0
 11 45  1  0
 12 46  1  0
 18 47  1  0
 19 48  1  0
 20 49  1  0
 26 50  1  0
 26 51  1  0
 27 52  1  0
 27 53  1  0
 29 54  1  0
 29 55  1  0
 30 56  1  0
 30 57  1  0
 31 58  1  0
 31 59  1  0
 32 60  1  0
 32 61  1  0
M  END
$$$$
