
     RDKit          3D

 40 43  0  0  0  0  0  0  0  0999 V2000
    1.9967    3.0949    3.1887 Cl  0  0  0  0  0  0  0  0  0  0  0  0
    0.7734    2.3881    2.1424 C   0  0  0  0  0  0  0  0  0  0  0  0
    0.9172    1.1379    1.7178 N   0  0  0  0  0  0  0  0  0  0  0  0
   -0.0028    0.5292    0.8990 C   0  0  0  0  0  0  0  0  0  0  0  0
    0.3260   -0.7235    0.3588 N   0  0  0  0  0  0  0  0  0  0  0  0
    1.5133   -1.4152    0.9148 C   0  0  0  0  0  0  0  0  0  0  0  0
    2.7364   -0.7083    0.5021 C   0  0  0  0  0  0  0  0  0  0  0  0
    3.3489   -1.0103   -0.7191 C   0  0  0  0  0  0  0  0  0  0  0  0
    4.5030   -0.3843   -1.1332 C   0  0  0  0  0  0  0  0  0  0  0  0
    5.0870    0.5754   -0.3275 C   0  0  0  0  0  0  0  0  0  0  0  0
    4.4649    0.8562    0.8717 C   0  0  0  0  0  0  0  0  0  0  0  0
    3.3380    0.2244    1.2436 N   0  0  0  0  0  0  0  0  0  0  0  0
   -1.0981    1.2619    0.5325 C   0  0  0  0  0  0  0  0  0  0  0  0
   -2.0770    0.7132   -0.2614 C   0  0  0  0  0  0  0  0  0  0  0  0
   -2.1789   -0.6806   -0.6695 C   0  0  0  0  0  0  0  0  0  0  0  0
   -2.1771   -1.0478   -1.9933 C   0  0  0  0  0  0  0  0  0  0  0  0
   -2.3961   -2.3514   -2.3779 C   0  0  0  0  0  0  0  0  0  0  0  0
   -2.6156   -3.2613   -1.3695 C   0  0  0  0  0  0  0  0  0  0  0  0
   -2.6216   -2.9148   -0.0385 C   0  0  0  0  0  0  0  0  0  0  0  0
   -2.4028   -1.6225    0.3101 C   0  0  0  0  0  0  0  0  0  0  0  0
   -3.1672    1.5472   -0.5794 C   0  0  0  0  0  0  0  0  0  0  0  0
   -3.2504    2.8172   -0.1235 C   0  0  0  0  0  0  0  0  0  0  0  0
   -2.2770    3.3644    0.6774 C   0  0  0  0  0  0  0  0  0  0  0  0
   -1.2089    2.5706    0.9972 C   0  0  0  0  0  0  0  0  0  0  0  0
   -0.2837    3.1183    1.7891 N   0  0  0  0  0  0  0  0  0  0  0  0
   -0.0756   -1.2086   -0.4155 H   0  0  0  0  0  0  0  0  0  0  0  0
    1.4926   -2.4430    0.5578 H   0  0  0  0  0  0  0  0  0  0  0  0
    1.4114   -1.3466    2.0289 H   0  0  0  0  0  0  0  0  0  0  0  0
    2.8870   -1.7558   -1.3349 H   0  0  0  0  0  0  0  0  0  0  0  0
    4.9356   -0.6552   -2.0865 H   0  0  0  0  0  0  0  0  0  0  0  0
    5.9857    1.0907   -0.6060 H   0  0  0  0  0  0  0  0  0  0  0  0
    4.9099    1.6159    1.5307 H   0  0  0  0  0  0  0  0  0  0  0  0
   -2.0009   -0.3136   -2.7884 H   0  0  0  0  0  0  0  0  0  0  0  0
   -2.4041   -2.6879   -3.4056 H   0  0  0  0  0  0  0  0  0  0  0  0
   -2.7957   -4.3137   -1.6175 H   0  0  0  0  0  0  0  0  0  0  0  0
   -2.8000   -3.6636    0.7474 H   0  0  0  0  0  0  0  0  0  0  0  0
   -2.4101   -1.3584    1.3790 H   0  0  0  0  0  0  0  0  0  0  0  0
   -3.9358    1.1118   -1.2114 H   0  0  0  0  0  0  0  0  0  0  0  0
   -4.0950    3.4471   -0.3786 H   0  0  0  0  0  0  0  0  0  0  0  0
   -2.3528    4.4017    1.0480 H   0  0  0  0  0  0  0  0  0  0  0  0
  1  2  1  0
  2  3  2  0
  3  4  1  0
  4  5  1  0
  5  6  1  0
  6  7  1  0
  7  8  2  0
  8  9  1  0
  9 10  2  0
 10 11  1  0
 11 12  2  0
  4 13  2  0
 13 14  1  0
 14 15  1  0
 15 16  2  0
 16 17  1  0
 17 18  2  0
 18 19  1  0
 19 20  2  0
 14 21  2  0
 21 22  1  0
 22 23  2  0
 23 24  1  0
 24 25  2  0
 25  2  1  0
 12  7  1  0
 24 13  1  0
 20 15  1  0
  5 26  1  0
  6 27  1  0
  6 28  1  0
  8 29  1  0
  9 30  1  0
 10 31  1  0
 11 32  1  0
 16 33  1  0
 17 34  1  0
 18 35  1  0
 19 36  1  0
 20 37  1  0
 21 38  1  0
 22 39  1  0
 23 40  1  0
M  END
$$$$
