
     RDKit          3D

 47 50  0  0  0  0  0  0  0  0999 V2000
   -7.1630   -0.1327   -1.1145 C   0  0  0  0  0  0  0  0  0  0  0  0
   -6.3884   -0.3657    0.0448 O   0  0  0  0  0  0  0  0  0  0  0  0
   -5.0226   -0.1350   -0.0199 C   0  0  0  0  0  0  0  0  0  0  0  0
   -4.4154    0.3101   -1.1748 C   0  0  0  0  0  0  0  0  0  0  0  0
   -3.0559    0.5413   -1.2444 C   0  0  0  0  0  0  0  0  0  0  0  0
   -2.4656    0.9633   -2.3322 O   0  0  0  0  0  0  0  0  0  0  0  0
   -1.1767    1.1745   -2.3721 C   0  0  0  0  0  0  0  0  0  0  0  0
   -0.3547    0.9716   -1.2874 C   0  0  0  0  0  0  0  0  0  0  0  0
    1.0951    1.2045   -1.3167 C   0  0  0  0  0  0  0  0  0  0  0  0
    1.6326    2.3314   -1.8835 C   0  0  0  0  0  0  0  0  0  0  0  0
    2.9845    2.5500   -1.9116 C   0  0  0  0  0  0  0  0  0  0  0  0
    3.8747    1.6518   -1.3733 C   0  0  0  0  0  0  0  0  0  0  0  0
    3.3539    0.5014   -0.7928 C   0  0  0  0  0  0  0  0  0  0  0  0
    4.2266   -0.4592   -0.2232 N   0  0  0  0  0  0  0  0  0  0  0  0
    3.8061   -1.6851    0.4189 C   0  0  0  0  0  0  0  0  0  0  0  0
    4.8858   -1.9646    1.4192 C   0  0  0  0  0  0  0  0  0  0  0  0
    5.9261   -0.8927    1.2667 C   0  0  0  0  0  0  0  0  0  0  0  0
    5.6563   -0.4276   -0.1652 C   0  0  0  0  0  0  0  0  0  0  0  0
    1.9781    0.2921   -0.7713 C   0  0  0  0  0  0  0  0  0  0  0  0
   -0.9435    0.5266   -0.1231 C   0  0  0  0  0  0  0  0  0  0  0  0
   -0.2519    0.3157    0.9217 O   0  0  0  0  0  0  0  0  0  0  0  0
   -2.3066    0.3137   -0.1157 C   0  0  0  0  0  0  0  0  0  0  0  0
   -2.9015   -0.1384    1.0691 C   0  0  0  0  0  0  0  0  0  0  0  0
   -4.2599   -0.3608    1.1100 C   0  0  0  0  0  0  0  0  0  0  0  0
   -4.8697   -0.8073    2.2685 O   0  0  0  0  0  0  0  0  0  0  0  0
   -4.1614   -1.0581    3.4527 C   0  0  0  0  0  0  0  0  0  0  0  0
   -8.2300   -0.3679   -0.9650 H   0  0  0  0  0  0  0  0  0  0  0  0
   -6.8141   -0.7307   -1.9867 H   0  0  0  0  0  0  0  0  0  0  0  0
   -7.1271    0.9417   -1.4246 H   0  0  0  0  0  0  0  0  0  0  0  0
   -4.9990    0.4915   -2.0679 H   0  0  0  0  0  0  0  0  0  0  0  0
   -0.7349    1.5215   -3.2888 H   0  0  0  0  0  0  0  0  0  0  0  0
    0.9759    3.0602   -2.3159 H   0  0  0  0  0  0  0  0  0  0  0  0
    3.4076    3.4579   -2.3689 H   0  0  0  0  0  0  0  0  0  0  0  0
    4.9403    1.7977   -1.3820 H   0  0  0  0  0  0  0  0  0  0  0  0
    3.8633   -2.4846   -0.3770 H   0  0  0  0  0  0  0  0  0  0  0  0
    2.8013   -1.6509    0.8594 H   0  0  0  0  0  0  0  0  0  0  0  0
    5.3852   -2.9504    1.2486 H   0  0  0  0  0  0  0  0  0  0  0  0
    4.4676   -1.9041    2.4590 H   0  0  0  0  0  0  0  0  0  0  0  0
    5.7658   -0.0477    1.9855 H   0  0  0  0  0  0  0  0  0  0  0  0
    6.9588   -1.2737    1.3424 H   0  0  0  0  0  0  0  0  0  0  0  0
    6.1212   -1.2299   -0.8099 H   0  0  0  0  0  0  0  0  0  0  0  0
    6.1332    0.5238   -0.3817 H   0  0  0  0  0  0  0  0  0  0  0  0
    1.5467   -0.5996   -0.3243 H   0  0  0  0  0  0  0  0  0  0  0  0
   -2.2524   -0.2990    1.9270 H   0  0  0  0  0  0  0  0  0  0  0  0
   -4.7073   -1.7974    4.1057 H   0  0  0  0  0  0  0  0  0  0  0  0
   -3.1894   -1.5611    3.2257 H   0  0  0  0  0  0  0  0  0  0  0  0
   -3.9959   -0.1179    3.9933 H   0  0  0  0  0  0  0  0  0  0  0  0
  1  2  1  0
  2  3  1  0
  3  4  2  0
  4  5  1  0
  5  6  1  0
  6  7  1  0
  7  8  2  0
  8  9  1  0
  9 10  2  0
 10 11  1  0
 11 12  2  0
 12 13  1  0
 13 14  1  0
 14 15  1  0
 15 16  1  0
 16 17  1  0
 17 18  1  0
 13 19  2  0
  8 20  1  0
 20 21  2  0
 20 22  1  0
 22 23  1  0
 23 24  2  0
 24 25  1  0
 25 26  1  0
 24  3  1  0
 22  5  2  0
 19  9  1  0
 18 14  1  0
  1 27  1  0
  1 28  1  0
  1 29  1  0
  4 30  1  0
  7 31  1  0
 10 32  1  0
 11 33  1  0
 12 34  1  0
 15 35  1  0
 15 36  1  0
 16 37  1  0
 16 38  1  0
 17 39  1  0
 17 40  1  0
 18 41  1  0
 18 42  1  0
 19 43  1  0
 23 44  1  0
 26 45  1  0
 26 46  1  0
 26 47  1  0
M  END
$$$$
