
     RDKit          3D

 48 52  0  0  0  0  0  0  0  0999 V2000
   -3.0073    4.4566   -1.5281 C   0  0  0  0  0  0  0  0  0  0  0  0
   -3.0170    3.3389   -0.5177 C   0  0  0  0  0  0  0  0  0  0  0  0
   -4.1020    3.1797    0.3187 C   0  0  0  0  0  0  0  0  0  0  0  0
   -4.1058    2.1480    1.2478 C   0  0  0  0  0  0  0  0  0  0  0  0
   -3.0358    1.2744    1.3489 C   0  0  0  0  0  0  0  0  0  0  0  0
   -1.9739    1.4719    0.4928 C   0  0  0  0  0  0  0  0  0  0  0  0
   -0.8012    0.5833    0.5433 C   0  0  0  0  0  0  0  0  0  0  0  0
    0.4596    0.9359    0.8350 N   0  0  0  0  0  0  0  0  0  0  0  0
    1.2538   -0.1283    0.7839 C   0  0  0  0  0  0  0  0  0  0  0  0
    2.7262   -0.1824    1.0380 C   0  0  0  0  0  0  0  0  0  0  0  0
    3.4314    0.0355   -0.1867 N   0  0  0  0  0  0  0  0  0  0  0  0
    4.8396    0.0377   -0.2670 C   0  0  0  0  0  0  0  0  0  0  0  0
    5.5788   -0.1792    0.8707 C   0  0  0  0  0  0  0  0  0  0  0  0
    6.9651   -0.1898    0.8535 C   0  0  0  0  0  0  0  0  0  0  0  0
    7.6260    0.0194   -0.3186 C   0  0  0  0  0  0  0  0  0  0  0  0
    6.9207    0.2401   -1.4788 C   0  0  0  0  0  0  0  0  0  0  0  0
    5.5210    0.2471   -1.4413 C   0  0  0  0  0  0  0  0  0  0  0  0
    4.8451    0.4647   -2.5856 F   0  0  0  0  0  0  0  0  0  0  0  0
    0.4888   -1.1709    0.4558 N   0  0  0  0  0  0  0  0  0  0  0  0
   -0.7774   -0.7658    0.3013 C   0  0  0  0  0  0  0  0  0  0  0  0
   -1.8709   -1.6346   -0.0542 C   0  0  0  0  0  0  0  0  0  0  0  0
   -2.5471   -1.4332   -1.2247 C   0  0  0  0  0  0  0  0  0  0  0  0
   -3.5916   -2.2721   -1.5554 C   0  0  0  0  0  0  0  0  0  0  0  0
   -3.9121   -3.2940   -0.6746 C   0  0  0  0  0  0  0  0  0  0  0  0
   -4.8616   -4.2702   -0.7013 N   0  0  0  0  0  0  0  0  0  0  0  0
   -4.7571   -5.0160    0.3975 C   0  0  0  0  0  0  0  0  0  0  0  0
   -3.7497   -4.5184    1.1170 N   0  0  0  0  0  0  0  0  0  0  0  0
   -3.2351   -3.4675    0.4611 N   0  0  0  0  0  0  0  0  0  0  0  0
   -2.2260   -2.6506    0.7726 C   0  0  0  0  0  0  0  0  0  0  0  0
   -2.0055    2.4873   -0.3992 N   0  0  0  0  0  0  0  0  0  0  0  0
   -2.6077    5.3902   -1.0358 H   0  0  0  0  0  0  0  0  0  0  0  0
   -4.0341    4.6829   -1.8348 H   0  0  0  0  0  0  0  0  0  0  0  0
   -2.4248    4.1947   -2.4227 H   0  0  0  0  0  0  0  0  0  0  0  0
   -4.9450    3.8611    0.2454 H   0  0  0  0  0  0  0  0  0  0  0  0
   -4.9459    1.9875    1.9289 H   0  0  0  0  0  0  0  0  0  0  0  0
   -3.0460    0.4667    2.0807 H   0  0  0  0  0  0  0  0  0  0  0  0
    0.8019    1.9127    1.0749 H   0  0  0  0  0  0  0  0  0  0  0  0
    3.0033    0.5438    1.8368 H   0  0  0  0  0  0  0  0  0  0  0  0
    2.9488   -1.1905    1.4283 H   0  0  0  0  0  0  0  0  0  0  0  0
    2.8977    0.2053   -1.0885 H   0  0  0  0  0  0  0  0  0  0  0  0
    5.0773   -0.3456    1.8020 H   0  0  0  0  0  0  0  0  0  0  0  0
    7.5354   -0.3628    1.7617 H   0  0  0  0  0  0  0  0  0  0  0  0
    8.7174    0.0094   -0.3239 H   0  0  0  0  0  0  0  0  0  0  0  0
    7.4605    0.4017   -2.3850 H   0  0  0  0  0  0  0  0  0  0  0  0
   -2.3155   -0.6367   -1.9359 H   0  0  0  0  0  0  0  0  0  0  0  0
   -4.1697   -2.1780   -2.4555 H   0  0  0  0  0  0  0  0  0  0  0  0
   -5.3386   -5.8794    0.7223 H   0  0  0  0  0  0  0  0  0  0  0  0
   -1.6939   -2.8108    1.6963 H   0  0  0  0  0  0  0  0  0  0  0  0
  1  2  1  0
  2  3  2  0
  3  4  1  0
  4  5  2  0
  5  6  1  0
  6  7  1  0
  7  8  1  0
  8  9  1  0
  9 10  1  0
 10 11  1  0
 11 12  1  0
 12 13  2  0
 13 14  1  0
 14 15  2  0
 15 16  1  0
 16 17  2  0
 17 18  1  0
  9 19  2  0
 19 20  1  0
 20 21  1  0
 21 22  1  0
 22 23  2  0
 23 24  1  0
 24 25  2  0
 25 26  1  0
 26 27  2  0
 27 28  1  0
 28 29  1  0
  6 30  2  0
 30  2  1  0
 20  7  2  0
 29 21  2  0
 17 12  1  0
 28 24  1  0
  1 31  1  0
  1 32  1  0
  1 33  1  0
  3 34  1  0
  4 35  1  0
  5 36  1  0
  8 37  1  0
 10 38  1  0
 10 39  1  0
 11 40  1  0
 13 41  1  0
 14 42  1  0
 15 43  1  0
 16 44  1  0
 22 45  1  0
 23 46  1  0
 26 47  1  0
 29 48  1  0
M  END
$$$$
