
     RDKit          3D

 23 23  0  0  0  0  0  0  0  0999 V2000
   -4.2582    0.3675   -0.7271 N   0  0  0  0  0  0  0  0  0  0  0  0
   -3.1564   -0.1226    0.0656 C   0  0  0  0  0  0  0  0  0  0  0  0
   -3.1103   -1.3174    0.5340 N   0  0  0  0  0  0  0  0  0  0  0  0
   -2.0857    0.7508    0.3359 N   0  0  0  0  0  0  0  0  0  0  0  0
   -0.7398    0.3795    0.1815 C   0  0  0  0  0  0  0  0  0  0  0  0
   -0.2706   -0.7755   -0.3942 C   0  0  0  0  0  0  0  0  0  0  0  0
    1.0493   -1.1120   -0.5200 C   0  0  0  0  0  0  0  0  0  0  0  0
    2.0176   -0.2507   -0.0444 C   0  0  0  0  0  0  0  0  0  0  0  0
    3.4710   -0.5122   -0.1272 C   0  0  0  0  0  0  0  0  0  0  0  0
    3.9702    0.0119   -1.3354 O   0  0  0  0  0  0  0  0  0  0  0  0
    1.6317    0.9373    0.5507 C   0  0  0  0  0  0  0  0  0  0  0  0
    0.2848    1.2083    0.6422 C   0  0  0  0  0  0  0  0  0  0  0  0
   -4.6287    1.2472   -0.3447 H   0  0  0  0  0  0  0  0  0  0  0  0
   -4.9767    0.4584   -1.4516 H   0  0  0  0  0  0  0  0  0  0  0  0
   -2.3508   -1.6998    1.0977 H   0  0  0  0  0  0  0  0  0  0  0  0
   -2.2933    1.7432    0.6648 H   0  0  0  0  0  0  0  0  0  0  0  0
   -0.9646   -1.4769   -0.7876 H   0  0  0  0  0  0  0  0  0  0  0  0
    1.3664   -2.0508   -0.9899 H   0  0  0  0  0  0  0  0  0  0  0  0
    4.0406   -0.1248    0.7321 H   0  0  0  0  0  0  0  0  0  0  0  0
    3.6901   -1.6181   -0.1750 H   0  0  0  0  0  0  0  0  0  0  0  0
    4.9401    0.1603   -1.2792 H   0  0  0  0  0  0  0  0  0  0  0  0
    2.3564    1.6412    0.9369 H   0  0  0  0  0  0  0  0  0  0  0  0
    0.0172    2.1552    1.1180 H   0  0  0  0  0  0  0  0  0  0  0  0
  1  2  1  0
  2  3  2  3
  2  4  1  0
  4  5  1  0
  5  6  2  0
  6  7  1  0
  7  8  2  0
  8  9  1  0
  9 10  1  0
  8 11  1  0
 11 12  2  0
 12  5  1  0
  1 13  1  0
  1 14  1  0
  3 15  1  0
  4 16  1  0
  6 17  1  0
  7 18  1  0
  9 19  1  0
  9 20  1  0
 10 21  1  0
 11 22  1  0
 12 23  1  0
M  END
$$$$
