
     RDKit          3D

 58 61  0  0  0  0  0  0  0  0999 V2000
   -2.7535    0.1389    1.0658 O   0  0  0  0  0  0  0  0  0  0  0  0
   -2.2936    1.1843    0.5612 C   0  0  0  0  0  0  0  0  0  0  0  0
   -3.1228    2.3075    0.0594 C   0  0  0  0  0  0  0  0  0  0  0  0
   -4.5470    1.9930    0.2506 N   0  0  0  0  0  0  0  0  0  0  0  0
   -5.1151    0.8644   -0.3593 C   0  0  0  0  0  0  0  0  0  0  0  0
   -4.3501    0.1408   -1.0725 O   0  0  0  0  0  0  0  0  0  0  0  0
   -6.5131    0.4640   -0.2343 C   0  0  0  0  0  0  0  0  0  0  0  0
   -7.4256    1.1738    0.5114 C   0  0  0  0  0  0  0  0  0  0  0  0
   -8.7362    0.7609    0.6029 C   0  0  0  0  0  0  0  0  0  0  0  0
   -9.1374   -0.3770   -0.0608 C   0  0  0  0  0  0  0  0  0  0  0  0
   -8.2624   -1.1268   -0.8233 C   0  0  0  0  0  0  0  0  0  0  0  0
   -8.7015   -2.3550   -1.5380 C   0  0  0  0  0  0  0  0  0  0  0  0
   -9.9680   -2.0787   -2.0427 F   0  0  0  0  0  0  0  0  0  0  0  0
   -7.8493   -2.6819   -2.5536 F   0  0  0  0  0  0  0  0  0  0  0  0
   -8.8339   -3.3581   -0.5938 F   0  0  0  0  0  0  0  0  0  0  0  0
   -6.9638   -0.6671   -0.8794 C   0  0  0  0  0  0  0  0  0  0  0  0
   -0.8865    1.2898    0.4686 N   0  0  0  0  0  0  0  0  0  0  0  0
   -0.0079    0.2686    0.9209 C   0  0  0  0  0  0  0  0  0  0  0  0
    1.2237    0.6689    1.6618 C   0  0  0  0  0  0  0  0  0  0  0  0
    2.0182    0.7256    0.4529 N   0  0  0  0  0  0  0  0  0  0  0  0
    3.2455   -0.0354    0.4871 C   0  0  1  0  0  0  0  0  0  0  0  0
    3.9222    0.1551   -0.8612 C   0  0  0  0  0  0  0  0  0  0  0  0
    4.9010   -1.0000   -1.0023 C   0  0  0  0  0  0  0  0  0  0  0  0
    5.8071   -0.9654    0.1941 C   0  0  1  0  0  0  0  0  0  0  0  0
    5.6857   -2.1672    0.8901 O   0  0  0  0  0  0  0  0  0  0  0  0
    7.2013   -0.9134   -0.3273 C   0  0  0  0  0  0  0  0  0  0  0  0
    7.6721   -0.8964   -1.5442 N   0  0  0  0  0  0  0  0  0  0  0  0
    8.9121   -0.8500   -1.8398 C   0  0  0  0  0  0  0  0  0  0  0  0
    9.8094   -0.8160   -0.8089 C   0  0  0  0  0  0  0  0  0  0  0  0
    8.6804   -0.8576    0.6144 S   0  0  0  0  0  0  0  0  0  0  0  0
    5.6011    0.2398    1.0582 C   0  0  0  0  0  0  0  0  0  0  0  0
    4.1941    0.4057    1.5480 C   0  0  0  0  0  0  0  0  0  0  0  0
    0.9807   -0.0897   -0.1953 C   0  0  0  0  0  0  0  0  0  0  0  0
   -3.0090    2.3968   -1.0596 H   0  0  0  0  0  0  0  0  0  0  0  0
   -2.8642    3.2769    0.4835 H   0  0  0  0  0  0  0  0  0  0  0  0
   -5.1309    2.6066    0.8369 H   0  0  0  0  0  0  0  0  0  0  0  0
   -7.0672    2.0645    1.0184 H   0  0  0  0  0  0  0  0  0  0  0  0
   -9.4453    1.3368    1.1991 H   0  0  0  0  0  0  0  0  0  0  0  0
  -10.1634   -0.7036    0.0085 H   0  0  0  0  0  0  0  0  0  0  0  0
   -6.2526   -1.2337   -1.4698 H   0  0  0  0  0  0  0  0  0  0  0  0
   -0.4540    2.1632    0.0455 H   0  0  0  0  0  0  0  0  0  0  0  0
   -0.5359   -0.6085    1.3486 H   0  0  0  0  0  0  0  0  0  0  0  0
    1.2325    1.6359    2.1641 H   0  0  0  0  0  0  0  0  0  0  0  0
    1.5884   -0.1653    2.2963 H   0  0  0  0  0  0  0  0  0  0  0  0
    2.9802   -1.0910    0.6589 H   0  0  0  0  0  0  0  0  0  0  0  0
    4.4948    1.1071   -0.8684 H   0  0  0  0  0  0  0  0  0  0  0  0
    3.1282    0.1321   -1.6215 H   0  0  0  0  0  0  0  0  0  0  0  0
    4.2757   -1.9376   -1.0209 H   0  0  0  0  0  0  0  0  0  0  0  0
    5.4398   -0.9772   -1.9675 H   0  0  0  0  0  0  0  0  0  0  0  0
    4.9366   -2.1800    1.5236 H   0  0  0  0  0  0  0  0  0  0  0  0
    9.2743   -0.8370   -2.9041 H   0  0  0  0  0  0  0  0  0  0  0  0
   10.9343   -0.7738   -0.7428 H   0  0  0  0  0  0  0  0  0  0  0  0
    6.2476    0.1110    1.9606 H   0  0  0  0  0  0  0  0  0  0  0  0
    5.9972    1.1278    0.5309 H   0  0  0  0  0  0  0  0  0  0  0  0
    4.0277   -0.1597    2.5097 H   0  0  0  0  0  0  0  0  0  0  0  0
    4.0536    1.4757    1.8215 H   0  0  0  0  0  0  0  0  0  0  0  0
    1.1798   -1.1666   -0.1959 H   0  0  0  0  0  0  0  0  0  0  0  0
    0.7449    0.3512   -1.1663 H   0  0  0  0  0  0  0  0  0  0  0  0
  1  2  2  0
  2  3  1  0
  3  4  1  0
  4  5  1  0
  5  6  2  0
  5  7  1  0
  7  8  2  0
  8  9  1  0
  9 10  2  0
 10 11  1  0
 11 12  1  0
 12 13  1  0
 12 14  1  0
 12 15  1  0
 11 16  2  0
  2 17  1  0
 17 18  1  0
 18 19  1  0
 19 20  1  0
 20 21  1  0
 21 22  1  0
 22 23  1  0
 23 24  1  0
 24 25  1  1
 24 26  1  0
 26 27  2  0
 27 28  1  0
 28 29  2  0
 29 30  1  0
 24 31  1  0
 31 32  1  0
 20 33  1  0
 16  7  1  0
 33 18  1  0
 32 21  1  0
 30 26  1  0
  3 34  1  0
  3 35  1  0
  4 36  1  0
  8 37  1  0
  9 38  1  0
 10 39  1  0
 16 40  1  0
 17 41  1  0
 18 42  1  0
 19 43  1  0
 19 44  1  0
 21 45  1  1
 22 46  1  0
 22 47  1  0
 23 48  1  0
 23 49  1  0
 25 50  1  0
 28 51  1  0
 29 52  1  0
 31 53  1  0
 31 54  1  0
 32 55  1  0
 32 56  1  0
 33 57  1  0
 33 58  1  0
M  END
$$$$
