
     RDKit          3D

 39 42  0  0  0  0  0  0  0  0999 V2000
   -4.5002    2.2348   -2.1961 N   0  0  0  0  0  0  0  0  0  0  0  0
   -4.0955    1.5537   -1.0149 C   0  0  0  0  0  0  0  0  0  0  0  0
   -4.9186    1.5713    0.0477 N   0  0  0  0  0  0  0  0  0  0  0  0
   -4.6225    0.9562    1.2079 C   0  0  0  0  0  0  0  0  0  0  0  0
   -5.4086    0.9832    2.1969 O   0  0  0  0  0  0  0  0  0  0  0  0
   -3.4233    0.2754    1.3195 C   0  0  0  0  0  0  0  0  0  0  0  0
   -2.5895    0.2642    0.2261 C   0  0  0  0  0  0  0  0  0  0  0  0
   -2.9114    0.8889   -0.9236 N   0  0  0  0  0  0  0  0  0  0  0  0
   -1.5034   -0.4496    0.5733 N   0  0  0  0  0  0  0  0  0  0  0  0
   -1.6144   -0.8941    1.8488 C   0  0  0  0  0  0  0  0  0  0  0  0
   -2.8158   -0.4314    2.2929 N   0  0  0  0  0  0  0  0  0  0  0  0
   -0.3248   -0.7650   -0.2131 C   0  0  2  0  0  0  0  0  0  0  0  0
    0.0643   -2.0762   -0.0379 O   0  0  0  0  0  0  0  0  0  0  0  0
    1.4394   -2.1198   -0.0327 C   0  0  2  0  0  0  0  0  0  0  0  0
    1.9863   -3.3211    0.6975 C   0  0  0  0  0  0  0  0  0  0  0  0
    1.5672   -4.5186    0.1387 O   0  0  0  0  0  0  0  0  0  0  0  0
    1.7757   -0.8867    0.8074 C   0  0  1  0  0  0  0  0  0  0  0  0
    3.0136   -0.3729    0.5392 O   0  0  0  0  0  0  0  0  0  0  0  0
    2.9249    0.4368   -0.5906 C   0  0  1  0  0  0  0  0  0  0  0  0
    1.5889    0.5085   -0.9411 O   0  0  0  0  0  0  0  0  0  0  0  0
    0.8366    0.1103    0.1580 C   0  0  1  0  0  0  0  0  0  0  0  0
    3.5185    2.1104   -0.2370 P   0  0  0  0  0  0  0  0  0  0  0  0
    2.3205    3.2598   -0.5374 O   0  0  0  0  0  0  0  0  0  0  0  0
    4.8981    2.3701   -1.1889 O   0  0  0  0  0  0  0  0  0  0  0  0
    3.8839    2.2239    1.2236 O   0  0  0  0  0  0  0  0  0  0  0  0
   -5.0444    3.1391   -2.0857 H   0  0  0  0  0  0  0  0  0  0  0  0
   -4.3541    1.9988   -3.2001 H   0  0  0  0  0  0  0  0  0  0  0  0
   -2.2732    0.8711   -1.7372 H   0  0  0  0  0  0  0  0  0  0  0  0
   -0.9254   -1.4924    2.4379 H   0  0  0  0  0  0  0  0  0  0  0  0
   -0.5578   -0.6351   -1.3007 H   0  0  0  0  0  0  0  0  0  0  0  0
    1.9153   -2.0058   -1.0151 H   0  0  0  0  0  0  0  0  0  0  0  0
    3.0867   -3.3034    0.6502 H   0  0  0  0  0  0  0  0  0  0  0  0
    1.7312   -3.2946    1.7757 H   0  0  0  0  0  0  0  0  0  0  0  0
    1.5130   -5.1807    0.8753 H   0  0  0  0  0  0  0  0  0  0  0  0
    1.5572   -1.0471    1.8737 H   0  0  0  0  0  0  0  0  0  0  0  0
    3.5511   -0.0834   -1.3689 H   0  0  0  0  0  0  0  0  0  0  0  0
    0.5714    0.9436    0.8308 H   0  0  0  0  0  0  0  0  0  0  0  0
    2.4705    3.6210   -1.4381 H   0  0  0  0  0  0  0  0  0  0  0  0
    5.6686    2.5571   -0.6001 H   0  0  0  0  0  0  0  0  0  0  0  0
  1  2  1  0
  2  3  2  0
  3  4  1  0
  4  5  2  0
  4  6  1  0
  6  7  2  0
  7  8  1  0
  7  9  1  0
  9 10  1  0
 10 11  2  0
  9 12  1  0
 12 13  1  0
 13 14  1  0
 14 15  1  0
 15 16  1  0
 14 17  1  0
 17 18  1  0
 18 19  1  0
 19 20  1  0
 20 21  1  0
 19 22  1  0
 22 23  1  0
 22 24  1  0
 22 25  2  0
  8  2  1  0
 21 12  1  0
 11  6  1  0
 21 17  1  0
  1 26  1  0
  1 27  1  0
  8 28  1  0
 10 29  1  0
 12 30  1  6
 14 31  1  6
 15 32  1  0
 15 33  1  0
 16 34  1  0
 17 35  1  1
 19 36  1  6
 21 37  1  1
 23 38  1  0
 24 39  1  0
M  END
$$$$
