
     RDKit          3D

 39 42  0  0  0  0  0  0  0  0999 V2000
    0.3299   -4.3787    0.2496 C   0  0  0  0  0  0  0  0  0  0  0  0
    1.1129   -3.0713    0.4506 C   0  0  0  0  0  0  0  0  0  0  0  0
    0.0655   -2.0806    0.9456 N   0  0  0  0  0  0  0  0  0  0  0  0
   -0.8899   -2.5667    1.8489 C   0  0  0  0  0  0  0  0  0  0  0  0
   -1.8131   -1.6519    1.8133 N   0  0  0  0  0  0  0  0  0  0  0  0
   -1.6199   -0.6235    0.9967 C   0  0  0  0  0  0  0  0  0  0  0  0
   -2.3991    0.4630    0.6169 C   0  0  0  0  0  0  0  0  0  0  0  0
   -3.1174    0.2914   -0.6748 C   0  0  0  0  0  0  0  0  0  0  0  0
   -3.8135    1.5054   -0.9448 C   0  0  0  0  0  0  0  0  0  0  0  0
   -3.8526    2.5086   -0.2685 C   0  0  0  0  0  0  0  0  0  0  0  0
   -4.8111    3.5917   -0.5769 F   0  0  0  0  0  0  0  0  0  0  0  0
   -3.2364    2.8355    0.9723 C   0  0  0  0  0  0  0  0  0  0  0  0
   -2.5013    1.5986    1.3077 C   0  0  0  0  0  0  0  0  0  0  0  0
   -0.2996   -1.0013    0.4704 C   0  0  0  0  0  0  0  0  0  0  0  0
    0.4778    0.0359   -0.2884 C   0  0  0  0  0  0  0  0  0  0  0  0
    0.1570    0.8909   -0.9741 C   0  0  0  0  0  0  0  0  0  0  0  0
    0.6432    1.9731   -1.6484 C   0  0  0  0  0  0  0  0  0  0  0  0
    2.0623    1.9329   -1.3384 C   0  0  0  0  0  0  0  0  0  0  0  0
    2.8985    2.9072   -1.6633 N   0  0  0  0  0  0  0  0  0  0  0  0
    4.0673    2.6324   -1.1138 C   0  0  0  0  0  0  0  0  0  0  0  0
    3.8936    1.3607   -0.3718 C   0  0  0  0  0  0  0  0  0  0  0  0
    5.0324    0.9353    0.1997 C   0  0  0  0  0  0  0  0  0  0  0  0
    6.1451    0.5302    0.7796 N   0  0  0  0  0  0  0  0  0  0  0  0
    2.6017    0.9987   -0.5765 N   0  0  0  0  0  0  0  0  0  0  0  0
    1.9849   -0.0812    0.0651 C   0  0  0  0  0  0  0  0  0  0  0  0
   -0.7279   -4.2820    0.1581 H   0  0  0  0  0  0  0  0  0  0  0  0
    0.7351   -4.8318   -0.7380 H   0  0  0  0  0  0  0  0  0  0  0  0
    0.6866   -5.1123    1.0483 H   0  0  0  0  0  0  0  0  0  0  0  0
    1.9411   -3.1698    1.0165 H   0  0  0  0  0  0  0  0  0  0  0  0
    1.2278   -2.7600   -0.6849 H   0  0  0  0  0  0  0  0  0  0  0  0
   -0.8146   -3.4688    2.3727 H   0  0  0  0  0  0  0  0  0  0  0  0
   -3.0099   -0.4854   -1.2363 H   0  0  0  0  0  0  0  0  0  0  0  0
   -4.3619    1.3825   -1.9308 H   0  0  0  0  0  0  0  0  0  0  0  0
   -3.2748    3.6760    1.5206 H   0  0  0  0  0  0  0  0  0  0  0  0
   -2.0878    1.6571    2.3510 H   0  0  0  0  0  0  0  0  0  0  0  0
   -1.0310    0.8098   -1.3444 H   0  0  0  0  0  0  0  0  0  0  0  0
    0.2492    2.6378   -2.3110 H   0  0  0  0  0  0  0  0  0  0  0  0
    4.9427    3.1984   -1.1507 H   0  0  0  0  0  0  0  0  0  0  0  0
    2.4073   -0.7877    0.6524 H   0  0  0  0  0  0  0  0  0  0  0  0
  1  2  1  0
  2  3  1  0
  3  4  1  0
  4  5  2  0
  5  6  1  0
  6  7  1  0
  7  8  2  0
  8  9  1  0
  9 10  2  0
 10 11  1  0
 10 12  1  0
 12 13  2  0
  6 14  2  0
 14 15  1  0
 15 16  1  0
 16 17  2  0
 17 18  1  0
 18 19  2  0
 19 20  1  0
 20 21  2  0
 21 22  1  0
 22 23  3  0
 21 24  1  0
 24 25  1  0
 14  3  1  0
 25 15  2  0
 13  7  1  0
 24 18  1  0
  1 26  1  0
  1 27  1  0
  1 28  1  0
  2 29  1  0
  2 30  1  0
  4 31  1  0
  8 32  1  0
  9 33  1  0
 12 34  1  0
 13 35  1  0
 16 36  1  0
 17 37  1  0
 20 38  1  0
 25 39  1  0
M  END
$$$$
