
     RDKit          3D

 59 63  0  0  0  0  0  0  0  0999 V2000
    8.4601   -0.0754   -0.2019 C   0  0  0  0  0  0  0  0  0  0  0  0
    7.0889   -0.0829   -0.6064 N   0  0  0  0  0  0  0  0  0  0  0  0
    6.8930    0.9371   -1.6359 C   0  0  0  0  0  0  0  0  0  0  0  0
    5.4531    0.8554   -2.1565 C   0  0  0  0  0  0  0  0  0  0  0  0
    4.7047   -0.1144   -1.4412 N   0  0  0  0  0  0  0  0  0  0  0  0
    3.4702    0.1548   -0.8267 C   0  0  0  0  0  0  0  0  0  0  0  0
    3.0198    1.4310   -0.6021 C   0  0  0  0  0  0  0  0  0  0  0  0
    1.8015    1.7150    0.0068 C   0  0  0  0  0  0  0  0  0  0  0  0
    1.0074    0.6728    0.4036 C   0  0  0  0  0  0  0  0  0  0  0  0
    1.4111   -0.6560    0.2019 C   0  0  0  0  0  0  0  0  0  0  0  0
    0.5425   -1.6918    0.6383 N   0  0  0  0  0  0  0  0  0  0  0  0
   -0.6088   -1.4192    1.4291 C   0  0  0  0  0  0  0  0  0  0  0  0
   -1.8118   -0.9458    1.0662 N   0  0  0  0  0  0  0  0  0  0  0  0
   -2.6361   -0.8458    2.1482 C   0  0  0  0  0  0  0  0  0  0  0  0
   -3.9449   -0.4168    2.2790 C   0  0  0  0  0  0  0  0  0  0  0  0
   -4.6592    0.0438    1.0745 C   0  0  0  0  0  0  0  0  0  0  0  0
   -5.3901    1.2176    1.0925 C   0  0  0  0  0  0  0  0  0  0  0  0
   -6.0672    1.6600   -0.0238 C   0  0  0  0  0  0  0  0  0  0  0  0
   -6.0492    0.9517   -1.2177 C   0  0  0  0  0  0  0  0  0  0  0  0
   -6.9185    1.5316   -2.6290 S   0  0  0  0  0  6  0  0  0  0  0  0
   -8.6005    0.8940   -2.5928 C   0  0  0  0  0  0  0  0  0  0  0  0
   -6.2658    0.8987   -3.8301 O   0  0  0  0  0  0  0  0  0  0  0  0
   -6.9164    3.0158   -2.7074 O   0  0  0  0  0  0  0  0  0  0  0  0
   -5.3203   -0.2171   -1.2328 C   0  0  0  0  0  0  0  0  0  0  0  0
   -4.6330   -0.6678   -0.1026 C   0  0  0  0  0  0  0  0  0  0  0  0
   -4.5433   -0.4196    3.5141 C   0  0  0  0  0  0  0  0  0  0  0  0
   -3.8087   -0.8559    4.5959 C   0  0  0  0  0  0  0  0  0  0  0  0
   -2.5111   -1.2714    4.4130 C   0  0  0  0  0  0  0  0  0  0  0  0
   -1.9120   -1.2742    3.2106 N   0  0  0  0  0  0  0  0  0  0  0  0
   -0.7036   -1.6143    2.7744 N   0  0  0  0  0  0  0  0  0  0  0  0
    2.6200   -0.8660   -0.4025 C   0  0  0  0  0  0  0  0  0  0  0  0
    5.2682   -1.4686   -1.3233 C   0  0  0  0  0  0  0  0  0  0  0  0
    6.7918   -1.3764   -1.2172 C   0  0  0  0  0  0  0  0  0  0  0  0
    9.1019    0.0442   -1.0902 H   0  0  0  0  0  0  0  0  0  0  0  0
    8.6556   -1.0733    0.2907 H   0  0  0  0  0  0  0  0  0  0  0  0
    8.6981    0.7519    0.5127 H   0  0  0  0  0  0  0  0  0  0  0  0
    7.5855    0.6985   -2.4652 H   0  0  0  0  0  0  0  0  0  0  0  0
    7.1460    1.9454   -1.2664 H   0  0  0  0  0  0  0  0  0  0  0  0
    5.0584    1.8755   -2.1349 H   0  0  0  0  0  0  0  0  0  0  0  0
    5.4870    0.5661   -3.2458 H   0  0  0  0  0  0  0  0  0  0  0  0
    3.6092    2.2801   -0.8914 H   0  0  0  0  0  0  0  0  0  0  0  0
    1.5044    2.7473    0.1555 H   0  0  0  0  0  0  0  0  0  0  0  0
    0.0580    0.8562    0.8789 H   0  0  0  0  0  0  0  0  0  0  0  0
    0.7137   -2.6891    0.3991 H   0  0  0  0  0  0  0  0  0  0  0  0
   -5.4065    1.7815    2.0320 H   0  0  0  0  0  0  0  0  0  0  0  0
   -6.6387    2.5714   -0.0157 H   0  0  0  0  0  0  0  0  0  0  0  0
   -9.0382    1.3130   -1.6393 H   0  0  0  0  0  0  0  0  0  0  0  0
   -8.5929   -0.1943   -2.5060 H   0  0  0  0  0  0  0  0  0  0  0  0
   -9.1994    1.3135   -3.4018 H   0  0  0  0  0  0  0  0  0  0  0  0
   -5.2994   -0.7786   -2.1653 H   0  0  0  0  0  0  0  0  0  0  0  0
   -4.0735   -1.5913   -0.1597 H   0  0  0  0  0  0  0  0  0  0  0  0
   -5.5663   -0.0785    3.5805 H   0  0  0  0  0  0  0  0  0  0  0  0
   -4.2958   -0.8552    5.5767 H   0  0  0  0  0  0  0  0  0  0  0  0
   -1.9490   -1.6095    5.2623 H   0  0  0  0  0  0  0  0  0  0  0  0
    2.9145   -1.8985   -0.5517 H   0  0  0  0  0  0  0  0  0  0  0  0
    4.9425   -2.0950   -2.1516 H   0  0  0  0  0  0  0  0  0  0  0  0
    4.9304   -1.9577   -0.3850 H   0  0  0  0  0  0  0  0  0  0  0  0
    7.1523   -2.1554   -0.5376 H   0  0  0  0  0  0  0  0  0  0  0  0
    7.2703   -1.4680   -2.2169 H   0  0  0  0  0  0  0  0  0  0  0  0
  1  2  1  0
  2  3  1  0
  3  4  1  0
  4  5  1  0
  5  6  1  0
  6  7  2  0
  7  8  1  0
  8  9  2  0
  9 10  1  0
 10 11  1  0
 11 12  1  0
 12 13  1  0
 13 14  2  0
 14 15  1  0
 15 16  1  0
 16 17  2  0
 17 18  1  0
 18 19  2  0
 19 20  1  0
 20 21  1  0
 20 22  2  0
 20 23  2  0
 19 24  1  0
 24 25  2  0
 15 26  2  0
 26 27  1  0
 27 28  2  0
 28 29  1  0
 29 30  1  0
 10 31  2  0
  5 32  1  0
 32 33  1  0
 33  2  1  0
 31  6  1  0
 30 12  2  0
 29 14  1  0
 25 16  1  0
  1 34  1  0
  1 35  1  0
  1 36  1  0
  3 37  1  0
  3 38  1  0
  4 39  1  0
  4 40  1  0
  7 41  1  0
  8 42  1  0
  9 43  1  0
 11 44  1  0
 17 45  1  0
 18 46  1  0
 21 47  1  0
 21 48  1  0
 21 49  1  0
 24 50  1  0
 25 51  1  0
 26 52  1  0
 27 53  1  0
 28 54  1  0
 31 55  1  0
 32 56  1  0
 32 57  1  0
 33 58  1  0
 33 59  1  0
M  END
$$$$
