
     RDKit          3D

 35 38  0  0  0  0  0  0  0  0999 V2000
   -4.1056    0.9610    0.6459 C   0  0  0  0  0  0  0  0  0  0  0  0
   -3.3154   -0.1968    1.1209 C   0  0  0  0  0  0  0  0  0  0  0  0
   -3.6608   -0.9499    2.2124 N   0  0  0  0  0  0  0  0  0  0  0  0
   -2.7596   -1.8842    2.4495 N   0  0  0  0  0  0  0  0  0  0  0  0
   -1.7766   -1.8036    1.5371 C   0  0  0  0  0  0  0  0  0  0  0  0
   -0.5070   -2.6053    1.3865 C   0  0  0  0  0  0  0  0  0  0  0  0
    0.6569   -1.7674    1.2125 N   0  0  0  0  0  0  0  0  0  0  0  0
    0.9395   -0.7429    0.4441 C   0  0  0  0  0  0  0  0  0  0  0  0
    2.2022    0.0173    0.3863 C   0  0  0  0  0  0  0  0  0  0  0  0
    2.3724    1.2916    0.8557 C   0  0  0  0  0  0  0  0  0  0  0  0
    3.5993    1.9181    0.7539 C   0  0  0  0  0  0  0  0  0  0  0  0
    4.6952    1.3023    0.1842 C   0  0  0  0  0  0  0  0  0  0  0  0
    4.5241    0.0073   -0.2934 C   0  0  0  0  0  0  0  0  0  0  0  0
    3.2980   -0.6224   -0.1931 C   0  0  0  0  0  0  0  0  0  0  0  0
    3.1187   -2.2644   -0.8097 Cl  0  0  0  0  0  0  0  0  0  0  0  0
   -0.0617   -0.2151   -0.5207 C   0  0  0  0  0  0  0  0  0  0  0  0
   -1.4556   -0.2702   -0.3890 C   0  0  0  0  0  0  0  0  0  0  0  0
   -2.3572    0.1838   -1.3270 C   0  0  0  0  0  0  0  0  0  0  0  0
   -1.7673    0.7358   -2.4737 C   0  0  0  0  0  0  0  0  0  0  0  0
   -0.3789    0.8042   -2.6259 C   0  0  0  0  0  0  0  0  0  0  0  0
    0.3571    1.4916   -4.0514 Cl  0  0  0  0  0  0  0  0  0  0  0  0
    0.4799    0.3318   -1.6571 C   0  0  0  0  0  0  0  0  0  0  0  0
   -2.1631   -0.7693    0.7567 N   0  0  0  0  0  0  0  0  0  0  0  0
   -5.0670    0.7462    0.1946 H   0  0  0  0  0  0  0  0  0  0  0  0
   -3.5131    1.7929    0.2080 H   0  0  0  0  0  0  0  0  0  0  0  0
   -4.4236    1.4721    1.6212 H   0  0  0  0  0  0  0  0  0  0  0  0
   -0.3765   -3.1831    2.3129 H   0  0  0  0  0  0  0  0  0  0  0  0
   -0.5641   -3.2835    0.5315 H   0  0  0  0  0  0  0  0  0  0  0  0
    1.5168    1.7700    1.2996 H   0  0  0  0  0  0  0  0  0  0  0  0
    3.7242    2.9337    1.1312 H   0  0  0  0  0  0  0  0  0  0  0  0
    5.6787    1.7429    0.0774 H   0  0  0  0  0  0  0  0  0  0  0  0
    5.3655   -0.5143   -0.7507 H   0  0  0  0  0  0  0  0  0  0  0  0
   -3.4182    0.1219   -1.3100 H   0  0  0  0  0  0  0  0  0  0  0  0
   -2.4083    1.1131   -3.2493 H   0  0  0  0  0  0  0  0  0  0  0  0
    1.5512    0.3347   -1.6709 H   0  0  0  0  0  0  0  0  0  0  0  0
  1  2  1  0
  2  3  2  0
  3  4  1  0
  4  5  2  0
  5  6  1  0
  6  7  1  0
  7  8  2  0
  8  9  1  0
  9 10  2  0
 10 11  1  0
 11 12  2  0
 12 13  1  0
 13 14  2  0
 14 15  1  0
  8 16  1  0
 16 17  2  0
 17 18  1  0
 18 19  2  0
 19 20  1  0
 20 21  1  0
 20 22  2  0
 17 23  1  0
 23  2  1  0
 23  5  1  0
 14  9  1  0
 22 16  1  0
  1 24  1  0
  1 25  1  0
  1 26  1  0
  6 27  1  0
  6 28  1  0
 10 29  1  0
 11 30  1  0
 12 31  1  0
 13 32  1  0
 18 33  1  0
 19 34  1  0
 22 35  1  0
M  END
$$$$
