
     RDKit          3D

 45 46  0  0  0  0  0  0  0  0999 V2000
   -4.0981   -0.9667    2.4545 O   0  0  0  0  0  0  0  0  0  0  0  0
   -2.8246   -0.5571    2.0694 C   0  0  0  0  0  0  0  0  0  0  0  0
   -2.8770    0.4163    0.9128 C   0  0  1  0  0  0  0  0  0  0  0  0
   -1.6182    0.8205    0.5329 O   0  0  0  0  0  0  0  0  0  0  0  0
   -0.9730   -0.1024   -0.2870 C   0  0  2  0  0  0  0  0  0  0  0  0
    0.3180    0.3874   -0.4729 O   0  0  0  0  0  0  0  0  0  0  0  0
    1.3097   -0.5010   -0.1221 C   0  0  1  0  0  0  0  0  0  0  0  0
    2.1812   -0.7659   -1.3113 C   0  0  2  0  0  0  0  0  0  0  0  0
    2.6030   -2.1093   -1.3666 O   0  0  0  0  0  0  0  0  0  0  0  0
    3.4458    0.0649   -1.2983 C   0  0  1  0  0  0  0  0  0  0  0  0
    3.2328    1.3923   -1.5847 O   0  0  0  0  0  0  0  0  0  0  0  0
    4.1947   -0.1529   -0.0051 C   0  0  0  0  0  0  0  0  0  0  0  0
    4.7885    1.0135    0.4678 O   0  0  0  0  0  0  0  0  0  0  0  0
    3.3359   -0.5874    1.0148 O   0  0  0  0  0  0  0  0  0  0  0  0
    2.1675    0.1545    0.9315 C   0  0  2  0  0  0  0  0  0  0  0  0
    1.4557    0.2449    2.2636 C   0  0  0  0  0  0  0  0  0  0  0  0
    2.3259    0.8593    3.1640 O   0  0  0  0  0  0  0  0  0  0  0  0
   -1.6196   -0.1850   -1.6569 C   0  0  2  0  0  0  0  0  0  0  0  0
   -0.9157    0.4732   -2.6394 O   0  0  0  0  0  0  0  0  0  0  0  0
   -2.9882    0.4905   -1.5168 C   0  0  1  0  0  0  0  0  0  0  0  0
   -3.7776    0.3330   -2.6381 O   0  0  0  0  0  0  0  0  0  0  0  0
   -3.6259   -0.1259   -0.2798 C   0  0  2  0  0  0  0  0  0  0  0  0
   -4.9759    0.2058   -0.2487 O   0  0  0  0  0  0  0  0  0  0  0  0
   -4.3530   -0.6386    3.3534 H   0  0  0  0  0  0  0  0  0  0  0  0
   -2.3724    0.0035    2.9170 H   0  0  0  0  0  0  0  0  0  0  0  0
   -2.1606   -1.4231    1.8492 H   0  0  0  0  0  0  0  0  0  0  0  0
   -3.4235    1.3161    1.2727 H   0  0  0  0  0  0  0  0  0  0  0  0
   -0.9675   -1.1324    0.1150 H   0  0  0  0  0  0  0  0  0  0  0  0
    0.9130   -1.4678    0.2537 H   0  0  0  0  0  0  0  0  0  0  0  0
    1.6851   -0.5794   -2.2831 H   0  0  0  0  0  0  0  0  0  0  0  0
    3.4015   -2.1179   -1.9825 H   0  0  0  0  0  0  0  0  0  0  0  0
    4.1044   -0.3461   -2.1108 H   0  0  0  0  0  0  0  0  0  0  0  0
    2.3782    1.6023   -2.0008 H   0  0  0  0  0  0  0  0  0  0  0  0
    4.9750   -0.9343   -0.1128 H   0  0  0  0  0  0  0  0  0  0  0  0
    4.9595    0.9151    1.4449 H   0  0  0  0  0  0  0  0  0  0  0  0
    2.3706    1.1931    0.5985 H   0  0  0  0  0  0  0  0  0  0  0  0
    0.6113    0.9584    2.1380 H   0  0  0  0  0  0  0  0  0  0  0  0
    1.0485   -0.7082    2.6043 H   0  0  0  0  0  0  0  0  0  0  0  0
    3.2417    0.4468    3.0748 H   0  0  0  0  0  0  0  0  0  0  0  0
   -1.8630   -1.2329   -1.9517 H   0  0  0  0  0  0  0  0  0  0  0  0
   -0.6158   -0.1727   -3.3295 H   0  0  0  0  0  0  0  0  0  0  0  0
   -2.8098    1.5708   -1.2808 H   0  0  0  0  0  0  0  0  0  0  0  0
   -3.4232    0.9838   -3.3111 H   0  0  0  0  0  0  0  0  0  0  0  0
   -3.4733   -1.2249   -0.2969 H   0  0  0  0  0  0  0  0  0  0  0  0
   -5.2916    0.4454    0.6547 H   0  0  0  0  0  0  0  0  0  0  0  0
  1  2  1  0
  2  3  1  0
  3  4  1  0
  4  5  1  0
  5  6  1  0
  6  7  1  0
  7  8  1  0
  8  9  1  0
  8 10  1  0
 10 11  1  0
 10 12  1  0
 12 13  1  0
 12 14  1  0
 14 15  1  0
 15 16  1  0
 16 17  1  0
  5 18  1  0
 18 19  1  0
 18 20  1  0
 20 21  1  0
 20 22  1  0
 22 23  1  0
 22  3  1  0
 15  7  1  0
  1 24  1  0
  2 25  1  0
  2 26  1  0
  3 27  1  1
  5 28  1  1
  7 29  1  1
  8 30  1  6
  9 31  1  0
 10 32  1  6
 11 33  1  0
 12 34  1  0
 13 35  1  0
 15 36  1  6
 16 37  1  0
 16 38  1  0
 17 39  1  0
 18 40  1  6
 19 41  1  0
 20 42  1  1
 21 43  1  0
 22 44  1  6
 23 45  1  0
M  END
$$$$
