
     RDKit          3D

 66 70  0  0  0  0  0  0  0  0999 V2000
    1.5092    0.1725   -1.3373 N   0  0  0  0  0  0  0  0  0  0  0  0
    1.6986   -0.0032    0.0634 C   0  0  0  0  0  0  0  0  0  0  0  0
    0.3802    0.1990    0.7732 C   0  0  0  0  0  0  0  0  0  0  0  0
    0.3407    0.1472    2.0506 O   0  0  0  0  0  0  0  0  0  0  0  0
   -0.7574    0.4367   -0.0103 N   0  0  0  0  0  0  0  0  0  0  0  0
   -2.0657    0.6403    0.5938 C   0  0  1  0  0  0  0  0  0  0  0  0
   -2.6486    1.9645    0.2714 C   0  0  0  0  0  0  0  0  0  0  0  0
   -3.9911    2.1235    0.9212 C   0  0  0  0  0  0  0  0  0  0  0  0
   -4.8999    1.1530    0.4205 N   0  0  0  0  0  0  0  0  0  0  0  0
   -5.2276    1.4514   -0.9620 C   0  0  0  0  0  0  0  0  0  0  0  0
   -6.4117    0.5245   -1.1559 C   0  0  0  0  0  0  0  0  0  0  0  0
   -7.2446    0.8623    0.0865 C   0  0  0  0  0  0  0  0  0  0  0  0
   -6.1630    1.0804    1.1217 C   0  0  0  0  0  0  0  0  0  0  0  0
   -2.8761   -0.5363    0.2355 C   0  0  0  0  0  0  0  0  0  0  0  0
   -2.9345   -1.0908   -1.0335 C   0  0  0  0  0  0  0  0  0  0  0  0
   -3.7039   -2.2025   -1.2831 C   0  0  0  0  0  0  0  0  0  0  0  0
   -4.4350   -2.7957   -0.2875 C   0  0  0  0  0  0  0  0  0  0  0  0
   -5.4159   -4.2106   -0.5931 Cl  0  0  0  0  0  0  0  0  0  0  0  0
   -4.3981   -2.2718    0.9768 C   0  0  0  0  0  0  0  0  0  0  0  0
   -3.6208   -1.1545    1.2129 C   0  0  0  0  0  0  0  0  0  0  0  0
    2.6324    1.0023    0.6976 C   0  0  0  0  0  0  0  0  0  0  0  0
    4.0217    0.8853    0.0963 C   0  0  0  0  0  0  0  0  0  0  0  0
    4.4860   -0.4672    0.0816 N   0  0  0  0  0  0  0  0  0  0  0  0
    5.8081   -0.8112    0.4416 C   0  0  0  0  0  0  0  0  0  0  0  0
    6.0184   -1.6577    1.4835 N   0  0  0  0  0  0  0  0  0  0  0  0
    7.2783   -1.9920    1.8323 C   0  0  0  0  0  0  0  0  0  0  0  0
    8.3140   -1.4952    1.1586 N   0  0  0  0  0  0  0  0  0  0  0  0
    8.1353   -0.6582    0.1266 C   0  0  0  0  0  0  0  0  0  0  0  0
    9.0029   -0.0311   -0.7004 N   0  0  0  0  0  0  0  0  0  0  0  0
    8.3044    0.7149   -1.5911 C   0  0  0  0  0  0  0  0  0  0  0  0
    6.9591    0.5666   -1.3339 C   0  0  0  0  0  0  0  0  0  0  0  0
    6.8570   -0.2967   -0.2546 C   0  0  0  0  0  0  0  0  0  0  0  0
    3.5778   -1.5373   -0.3111 C   0  0  0  0  0  0  0  0  0  0  0  0
    2.2282   -1.3806    0.3329 C   0  0  0  0  0  0  0  0  0  0  0  0
    2.2139   -0.2093   -1.9671 H   0  0  0  0  0  0  0  0  0  0  0  0
    1.1707    1.1267   -1.6028 H   0  0  0  0  0  0  0  0  0  0  0  0
   -0.6719    0.4682   -1.0444 H   0  0  0  0  0  0  0  0  0  0  0  0
   -1.9064    0.6005    1.7063 H   0  0  0  0  0  0  0  0  0  0  0  0
   -2.7535    2.1527   -0.8247 H   0  0  0  0  0  0  0  0  0  0  0  0
   -1.9453    2.7558    0.6171 H   0  0  0  0  0  0  0  0  0  0  0  0
   -4.3454    3.1707    0.6750 H   0  0  0  0  0  0  0  0  0  0  0  0
   -3.8546    2.0784    2.0265 H   0  0  0  0  0  0  0  0  0  0  0  0
   -5.6200    2.5070   -1.0450 H   0  0  0  0  0  0  0  0  0  0  0  0
   -4.3968    1.2849   -1.6414 H   0  0  0  0  0  0  0  0  0  0  0  0
   -6.0418   -0.5060   -1.0994 H   0  0  0  0  0  0  0  0  0  0  0  0
   -6.9679    0.7205   -2.0817 H   0  0  0  0  0  0  0  0  0  0  0  0
   -7.7978    1.7850   -0.1378 H   0  0  0  0  0  0  0  0  0  0  0  0
   -7.9116    0.0132    0.3511 H   0  0  0  0  0  0  0  0  0  0  0  0
   -6.3504    1.9639    1.7551 H   0  0  0  0  0  0  0  0  0  0  0  0
   -6.2019    0.1918    1.8082 H   0  0  0  0  0  0  0  0  0  0  0  0
   -2.3629   -0.6354   -1.8305 H   0  0  0  0  0  0  0  0  0  0  0  0
   -3.7164   -2.6013   -2.2963 H   0  0  0  0  0  0  0  0  0  0  0  0
   -4.9657   -2.7221    1.7844 H   0  0  0  0  0  0  0  0  0  0  0  0
   -3.6330   -0.7834    2.2486 H   0  0  0  0  0  0  0  0  0  0  0  0
    2.6888    0.7542    1.7721 H   0  0  0  0  0  0  0  0  0  0  0  0
    2.2900    2.0435    0.5543 H   0  0  0  0  0  0  0  0  0  0  0  0
    4.6930    1.5318    0.6919 H   0  0  0  0  0  0  0  0  0  0  0  0
    3.9490    1.3347   -0.9285 H   0  0  0  0  0  0  0  0  0  0  0  0
    7.4056   -2.6660    2.6656 H   0  0  0  0  0  0  0  0  0  0  0  0
   10.0520   -0.1196   -0.6457 H   0  0  0  0  0  0  0  0  0  0  0  0
    8.7245    1.3334   -2.3823 H   0  0  0  0  0  0  0  0  0  0  0  0
    6.1375    1.0165   -1.8508 H   0  0  0  0  0  0  0  0  0  0  0  0
    3.4928   -1.6355   -1.4030 H   0  0  0  0  0  0  0  0  0  0  0  0
    3.9757   -2.5196    0.0477 H   0  0  0  0  0  0  0  0  0  0  0  0
    1.5740   -2.1756   -0.1291 H   0  0  0  0  0  0  0  0  0  0  0  0
    2.3171   -1.5916    1.4204 H   0  0  0  0  0  0  0  0  0  0  0  0
  1  2  1  0
  2  3  1  0
  3  4  2  0
  3  5  1  0
  5  6  1  0
  6  7  1  0
  7  8  1  0
  8  9  1  0
  9 10  1  0
 10 11  1  0
 11 12  1  0
 12 13  1  0
  6 14  1  0
 14 15  2  0
 15 16  1  0
 16 17  2  0
 17 18  1  0
 17 19  1  0
 19 20  2  0
  2 21  1  0
 21 22  1  0
 22 23  1  0
 23 24  1  0
 24 25  2  0
 25 26  1  0
 26 27  2  0
 27 28  1  0
 28 29  1  0
 29 30  1  0
 30 31  2  0
 31 32  1  0
 23 33  1  0
 33 34  1  0
 34  2  1  0
 13  9  1  0
 20 14  1  0
 32 24  1  0
 32 28  2  0
  1 35  1  0
  1 36  1  0
  5 37  1  0
  6 38  1  1
  7 39  1  0
  7 40  1  0
  8 41  1  0
  8 42  1  0
 10 43  1  0
 10 44  1  0
 11 45  1  0
 11 46  1  0
 12 47  1  0
 12 48  1  0
 13 49  1  0
 13 50  1  0
 15 51  1  0
 16 52  1  0
 19 53  1  0
 20 54  1  0
 21 55  1  0
 21 56  1  0
 22 57  1  0
 22 58  1  0
 26 59  1  0
 29 60  1  0
 30 61  1  0
 31 62  1  0
 33 63  1  0
 33 64  1  0
 34 65  1  0
 34 66  1  0
M  END
$$$$
