
     RDKit          3D

 46 49  0  0  0  0  0  0  0  0999 V2000
   -8.8772   -1.1389    3.1848 F   0  0  0  0  0  0  0  0  0  0  0  0
   -8.5086   -0.2233    2.2452 C   0  0  0  0  0  0  0  0  0  0  0  0
   -7.6758    0.7044    2.8515 F   0  0  0  0  0  0  0  0  0  0  0  0
   -9.5984    0.4882    1.7584 F   0  0  0  0  0  0  0  0  0  0  0  0
   -7.7598   -0.8645    1.1198 C   0  0  0  0  0  0  0  0  0  0  0  0
   -8.1442   -2.0668    0.5559 C   0  0  0  0  0  0  0  0  0  0  0  0
   -7.4185   -2.6058   -0.4733 C   0  0  0  0  0  0  0  0  0  0  0  0
   -6.2799   -1.9845   -0.9945 C   0  0  0  0  0  0  0  0  0  0  0  0
   -5.8754   -0.7847   -0.4499 C   0  0  0  0  0  0  0  0  0  0  0  0
   -4.7307   -0.0646   -0.9028 N   0  0  0  0  0  0  0  0  0  0  0  0
   -3.3928   -0.1836   -0.4321 C   0  0  0  0  0  0  0  0  0  0  0  0
   -3.0737   -0.9857    0.4855 O   0  0  0  0  0  0  0  0  0  0  0  0
   -2.4960    0.6759   -1.0943 N   0  0  0  0  0  0  0  0  0  0  0  0
   -1.0932    0.6449   -0.6985 C   0  0  0  0  0  0  0  0  0  0  0  0
   -0.5021    1.4110    0.2762 N   0  0  0  0  0  0  0  0  0  0  0  0
    0.7900    1.1386    0.3879 C   0  0  0  0  0  0  0  0  0  0  0  0
    1.5439    0.2404   -0.3136 C   0  0  0  0  0  0  0  0  0  0  0  0
    2.9365   -0.0047   -0.1410 C   0  0  0  0  0  0  0  0  0  0  0  0
    3.5319    0.8501    0.9250 C   0  0  0  0  0  0  0  0  0  0  0  0
    4.9367    0.5504    1.0483 N   0  0  0  0  0  0  0  0  0  0  0  0
    5.7576    0.8147   -0.0526 C   0  0  0  0  0  0  0  0  0  0  0  0
    5.5096    1.3200   -1.2578 N   0  0  0  0  0  0  0  0  0  0  0  0
    6.5222    1.4646   -2.1204 C   0  0  0  0  0  0  0  0  0  0  0  0
    7.7916    1.1458   -1.8916 N   0  0  0  0  0  0  0  0  0  0  0  0
    8.1878    0.6267   -0.7212 C   0  0  0  0  0  0  0  0  0  0  0  0
    7.1103    0.4838    0.1679 C   0  0  0  0  0  0  0  0  0  0  0  0
    7.9222   -0.2497    1.7017 S   0  0  0  0  0  0  0  0  0  0  0  0
    9.6606   -0.2801    0.9507 C   0  0  0  0  0  0  0  0  0  0  0  0
    9.4461    0.2724   -0.3942 C   0  0  0  0  0  0  0  0  0  0  0  0
    0.2718   -0.4693   -1.4374 S   0  0  0  0  0  0  0  0  0  0  0  0
   -6.6226   -0.2592    0.5879 C   0  0  0  0  0  0  0  0  0  0  0  0
   -9.0347   -2.5758    0.9465 H   0  0  0  0  0  0  0  0  0  0  0  0
   -7.7297   -3.5540   -0.9110 H   0  0  0  0  0  0  0  0  0  0  0  0
   -5.6938   -2.3979   -1.8095 H   0  0  0  0  0  0  0  0  0  0  0  0
   -5.0496    0.5831   -1.6596 H   0  0  0  0  0  0  0  0  0  0  0  0
   -2.7488    1.3516   -1.8631 H   0  0  0  0  0  0  0  0  0  0  0  0
    1.1820    1.7922    1.1851 H   0  0  0  0  0  0  0  0  0  0  0  0
    3.4767    0.1666   -1.0904 H   0  0  0  0  0  0  0  0  0  0  0  0
    3.1422   -1.0619    0.1336 H   0  0  0  0  0  0  0  0  0  0  0  0
    3.3775    1.9384    0.7539 H   0  0  0  0  0  0  0  0  0  0  0  0
    2.9744    0.6251    1.8659 H   0  0  0  0  0  0  0  0  0  0  0  0
    5.2361    0.1554    1.9581 H   0  0  0  0  0  0  0  0  0  0  0  0
    6.2870    1.8801   -3.0966 H   0  0  0  0  0  0  0  0  0  0  0  0
   10.7263   -0.6019    1.2845 H   0  0  0  0  0  0  0  0  0  0  0  0
   10.3143    0.3519   -1.0172 H   0  0  0  0  0  0  0  0  0  0  0  0
   -6.3300    0.6806    1.0354 H   0  0  0  0  0  0  0  0  0  0  0  0
  1  2  1  0
  2  3  1  0
  2  4  1  0
  2  5  1  0
  5  6  2  0
  6  7  1  0
  7  8  2  0
  8  9  1  0
  9 10  1  0
 10 11  1  0
 11 12  2  0
 11 13  1  0
 13 14  1  0
 14 15  2  0
 15 16  1  0
 16 17  2  0
 17 18  1  0
 18 19  1  0
 19 20  1  0
 20 21  1  0
 21 22  2  0
 22 23  1  0
 23 24  2  0
 24 25  1  0
 25 26  2  0
 26 27  1  0
 27 28  1  0
 28 29  2  0
 17 30  1  0
  9 31  2  0
 31  5  1  0
 30 14  1  0
 26 21  1  0
 29 25  1  0
  6 32  1  0
  7 33  1  0
  8 34  1  0
 10 35  1  0
 13 36  1  0
 16 37  1  0
 18 38  1  0
 18 39  1  0
 19 40  1  0
 19 41  1  0
 20 42  1  0
 23 43  1  0
 28 44  1  0
 29 45  1  0
 31 46  1  0
M  END
$$$$
