
     RDKit          3D

 27 28  0  0  0  0  0  0  0  0999 V2000
   -0.7630   -1.8083    1.4234 O   0  0  0  0  0  0  0  0  0  0  0  0
   -0.9516   -0.8344    0.6609 C   0  0  0  0  0  0  0  0  0  0  0  0
    0.2162   -0.2258    0.0077 C   0  0  0  0  0  0  0  0  0  0  0  0
    1.4308   -0.6865    0.2138 C   0  0  0  0  0  0  0  0  0  0  0  0
    2.6505   -0.1807   -0.3633 C   0  0  0  0  0  0  0  0  0  0  0  0
    3.8808   -0.7541   -0.0681 C   0  0  0  0  0  0  0  0  0  0  0  0
    5.0580   -0.2878   -0.6073 C   0  0  0  0  0  0  0  0  0  0  0  0
    5.0109    0.7802   -1.4655 C   0  0  0  0  0  0  0  0  0  0  0  0
    3.8305    1.3383   -1.7552 N   0  0  0  0  0  0  0  0  0  0  0  0
    2.6713    0.8842   -1.2283 C   0  0  0  0  0  0  0  0  0  0  0  0
   -2.3107   -0.3629    0.4659 C   0  0  0  0  0  0  0  0  0  0  0  0
   -3.3631   -0.9963    1.1232 C   0  0  0  0  0  0  0  0  0  0  0  0
   -4.6390   -0.5297    0.9207 C   0  0  0  0  0  0  0  0  0  0  0  0
   -4.8994    0.5464    0.0854 C   0  0  0  0  0  0  0  0  0  0  0  0
   -3.8621    1.1736   -0.5648 C   0  0  0  0  0  0  0  0  0  0  0  0
   -4.1956    2.6514   -1.7152 Br  0  0  0  0  0  0  0  0  0  0  0  0
   -2.5802    0.7130   -0.3680 C   0  0  0  0  0  0  0  0  0  0  0  0
    0.1158    0.6165   -0.6604 H   0  0  0  0  0  0  0  0  0  0  0  0
    1.5128   -1.5457    0.8980 H   0  0  0  0  0  0  0  0  0  0  0  0
    3.8982   -1.5960    0.6111 H   0  0  0  0  0  0  0  0  0  0  0  0
    6.0188   -0.7546   -0.3614 H   0  0  0  0  0  0  0  0  0  0  0  0
    5.8906    1.2076   -1.9324 H   0  0  0  0  0  0  0  0  0  0  0  0
    1.7470    1.3713   -1.4957 H   0  0  0  0  0  0  0  0  0  0  0  0
   -3.1718   -1.8429    1.7821 H   0  0  0  0  0  0  0  0  0  0  0  0
   -5.4834   -1.0021    1.4190 H   0  0  0  0  0  0  0  0  0  0  0  0
   -5.9223    0.9118   -0.0699 H   0  0  0  0  0  0  0  0  0  0  0  0
   -1.7898    1.2137   -0.8819 H   0  0  0  0  0  0  0  0  0  0  0  0
  1  2  2  0
  2  3  1  0
  3  4  2  0
  4  5  1  0
  5  6  2  0
  6  7  1  0
  7  8  2  0
  8  9  1  0
  9 10  2  0
  2 11  1  0
 11 12  2  0
 12 13  1  0
 13 14  2  0
 14 15  1  0
 15 16  1  0
 15 17  2  0
 10  5  1  0
 17 11  1  0
  3 18  1  0
  4 19  1  0
  6 20  1  0
  7 21  1  0
  8 22  1  0
 10 23  1  0
 12 24  1  0
 13 25  1  0
 14 26  1  0
 17 27  1  0
M  END
$$$$
