
     RDKit          3D

 58 63  0  0  0  0  0  0  0  0999 V2000
    5.9006   -1.0178   -2.5940 C   0  0  0  0  0  0  0  0  0  0  0  0
    4.9702   -0.5984   -1.5938 O   0  0  0  0  0  0  0  0  0  0  0  0
    4.8947   -1.2382   -0.3731 C   0  0  0  0  0  0  0  0  0  0  0  0
    5.7047   -2.2735   -0.1132 N   0  0  0  0  0  0  0  0  0  0  0  0
    5.6928   -2.9463    1.0461 C   0  0  0  0  0  0  0  0  0  0  0  0
    4.8011   -2.5508    2.0175 C   0  0  0  0  0  0  0  0  0  0  0  0
    3.9528   -1.4887    1.7825 C   0  0  0  0  0  0  0  0  0  0  0  0
    4.0025   -0.8175    0.5566 C   0  0  0  0  0  0  0  0  0  0  0  0
    3.1033    0.2989    0.3204 C   0  0  0  0  0  0  0  0  0  0  0  0
    3.3565    1.5519   -0.0782 N   0  0  0  0  0  0  0  0  0  0  0  0
    2.2934    2.2772   -0.1803 N   0  0  0  0  0  0  0  0  0  0  0  0
    2.1525    3.6691   -0.5785 C   0  0  0  0  0  0  0  0  0  0  0  0
    1.2234    1.5072    0.1617 C   0  0  0  0  0  0  0  0  0  0  0  0
    1.7121    0.2723    0.4762 C   0  0  0  0  0  0  0  0  0  0  0  0
    0.6213   -0.6023    0.8567 C   0  0  0  0  0  0  0  0  0  0  0  0
    0.7729   -1.8098    1.1991 O   0  0  0  0  0  0  0  0  0  0  0  0
   -0.5559    0.1616    0.7593 N   0  0  0  0  0  0  0  0  0  0  0  0
   -1.8269   -0.3824    1.0833 C   0  0  0  0  0  0  0  0  0  0  0  0
   -2.2716   -0.2423    2.3774 C   0  0  0  0  0  0  0  0  0  0  0  0
   -3.5025   -0.7571    2.7510 C   0  0  0  0  0  0  0  0  0  0  0  0
   -3.9725   -0.5986    4.1588 C   0  0  0  0  0  0  0  0  0  0  0  0
   -4.2595   -1.4050    1.8037 C   0  0  0  0  0  0  0  0  0  0  0  0
   -5.4724   -1.9855    1.9093 N   0  0  0  0  0  0  0  0  0  0  0  0
   -5.7769   -2.4682    0.7379 N   0  0  0  0  0  0  0  0  0  0  0  0
   -4.7997   -2.2239   -0.1414 C   0  0  0  0  0  0  0  0  0  0  0  0
   -4.7179   -2.5884   -1.5851 C   0  0  0  0  0  0  0  0  0  0  0  0
   -3.8413   -1.5522    0.5320 N   0  0  0  0  0  0  0  0  0  0  0  0
   -2.6316   -1.0396    0.1882 C   0  0  0  0  0  0  0  0  0  0  0  0
   -0.2432    1.4764    0.3225 C   0  0  0  0  0  0  0  0  0  0  0  0
   -0.9424    1.8801   -0.9205 C   0  0  0  0  0  0  0  0  0  0  0  0
   -1.0480    1.1051   -2.0374 C   0  0  0  0  0  0  0  0  0  0  0  0
   -1.7245    1.5713   -3.1587 C   0  0  0  0  0  0  0  0  0  0  0  0
   -2.3104    2.8403   -3.1682 C   0  0  0  0  0  0  0  0  0  0  0  0
   -3.1677    3.4500   -4.5661 Cl  0  0  0  0  0  0  0  0  0  0  0  0
   -2.2019    3.6115   -2.0484 C   0  0  0  0  0  0  0  0  0  0  0  0
   -1.5299    3.1266   -0.9588 C   0  0  0  0  0  0  0  0  0  0  0  0
    6.9071   -0.9237   -2.1003 H   0  0  0  0  0  0  0  0  0  0  0  0
    5.7865   -2.0830   -2.8502 H   0  0  0  0  0  0  0  0  0  0  0  0
    5.9027   -0.3492   -3.4581 H   0  0  0  0  0  0  0  0  0  0  0  0
    6.3457   -3.7673    1.2327 H   0  0  0  0  0  0  0  0  0  0  0  0
    4.7563   -3.0662    2.9716 H   0  0  0  0  0  0  0  0  0  0  0  0
    3.2518   -1.1762    2.5430 H   0  0  0  0  0  0  0  0  0  0  0  0
    1.5695    3.6992   -1.5391 H   0  0  0  0  0  0  0  0  0  0  0  0
    1.6144    4.2662    0.1831 H   0  0  0  0  0  0  0  0  0  0  0  0
    3.1288    4.1385   -0.7776 H   0  0  0  0  0  0  0  0  0  0  0  0
   -1.6806    0.2705    3.1413 H   0  0  0  0  0  0  0  0  0  0  0  0
   -4.6778    0.2601    4.2085 H   0  0  0  0  0  0  0  0  0  0  0  0
   -3.0955   -0.3314    4.7882 H   0  0  0  0  0  0  0  0  0  0  0  0
   -4.4895   -1.5096    4.5053 H   0  0  0  0  0  0  0  0  0  0  0  0
   -4.1495   -3.5488   -1.7260 H   0  0  0  0  0  0  0  0  0  0  0  0
   -5.7499   -2.8214   -1.9340 H   0  0  0  0  0  0  0  0  0  0  0  0
   -4.3107   -1.7771   -2.2064 H   0  0  0  0  0  0  0  0  0  0  0  0
   -2.3222   -1.1736   -0.8307 H   0  0  0  0  0  0  0  0  0  0  0  0
   -0.5792    2.1653    1.1420 H   0  0  0  0  0  0  0  0  0  0  0  0
   -0.6063    0.1320   -2.0475 H   0  0  0  0  0  0  0  0  0  0  0  0
   -1.8307    0.9935   -4.0570 H   0  0  0  0  0  0  0  0  0  0  0  0
   -2.6468    4.5868   -2.0428 H   0  0  0  0  0  0  0  0  0  0  0  0
   -1.4821    3.8026   -0.0906 H   0  0  0  0  0  0  0  0  0  0  0  0
  1  2  1  0
  2  3  1  0
  3  4  2  0
  4  5  1  0
  5  6  2  0
  6  7  1  0
  7  8  2  0
  8  9  1  0
  9 10  2  0
 10 11  1  0
 11 12  1  0
 11 13  1  0
 13 14  2  0
 14 15  1  0
 15 16  2  0
 15 17  1  0
 17 18  1  0
 18 19  1  0
 19 20  2  0
 20 21  1  0
 20 22  1  0
 22 23  2  0
 23 24  1  0
 24 25  2  0
 25 26  1  0
 25 27  1  0
 27 28  1  0
 17 29  1  0
 29 30  1  0
 30 31  2  0
 31 32  1  0
 32 33  2  0
 33 34  1  0
 33 35  1  0
 35 36  2  0
  8  3  1  0
 14  9  1  0
 28 18  2  0
 36 30  1  0
 29 13  1  0
 27 22  1  0
  1 37  1  0
  1 38  1  0
  1 39  1  0
  5 40  1  0
  6 41  1  0
  7 42  1  0
 12 43  1  0
 12 44  1  0
 12 45  1  0
 19 46  1  0
 21 47  1  0
 21 48  1  0
 21 49  1  0
 26 50  1  0
 26 51  1  0
 26 52  1  0
 28 53  1  0
 29 54  1  0
 31 55  1  0
 32 56  1  0
 35 57  1  0
 36 58  1  0
M  END
$$$$
