
     RDKit          3D

 24 23  0  0  0  0  0  0  0  0999 V2000
    2.4374    0.1458    1.3366 O   0  0  0  0  0  0  0  0  0  0  0  0
    1.6315   -0.9515    1.2459 C   0  0  0  0  0  0  0  0  0  0  0  0
    0.8416   -0.9876   -0.0050 C   0  0  0  0  0  0  0  0  0  0  0  0
   -0.0846   -0.1040   -0.4219 N   0  0  0  0  0  0  0  0  0  0  0  0
   -0.0670    1.1815   -0.8403 C   0  0  0  0  0  0  0  0  0  0  0  0
    0.1109    2.3899   -0.0047 C   0  0  0  0  0  0  0  0  0  0  0  0
    1.2640    2.5250    0.6987 O   0  0  0  0  0  0  0  0  0  0  0  0
   -1.2675   -0.8152   -0.9582 C   0  0  0  0  0  0  0  0  0  0  0  0
   -1.9728   -1.5312    0.1229 C   0  0  0  0  0  0  0  0  0  0  0  0
   -3.1030   -2.2224   -0.3573 O   0  0  0  0  0  0  0  0  0  0  0  0
   -1.8407   -1.7003    1.3834 O   0  0  0  0  0  0  0  0  0  0  0  0
    3.0922    0.1196    0.5807 H   0  0  0  0  0  0  0  0  0  0  0  0
    0.9678   -1.0765    2.1436 H   0  0  0  0  0  0  0  0  0  0  0  0
    2.3386   -1.8429    1.3166 H   0  0  0  0  0  0  0  0  0  0  0  0
    1.6014   -1.1165   -0.9028 H   0  0  0  0  0  0  0  0  0  0  0  0
    0.3875   -2.0784   -0.1075 H   0  0  0  0  0  0  0  0  0  0  0  0
   -1.0489    1.4098   -1.4522 H   0  0  0  0  0  0  0  0  0  0  0  0
    0.7493    1.3203   -1.6819 H   0  0  0  0  0  0  0  0  0  0  0  0
    0.0909    3.3058   -0.7002 H   0  0  0  0  0  0  0  0  0  0  0  0
   -0.8106    2.5780    0.6538 H   0  0  0  0  0  0  0  0  0  0  0  0
    1.5475    3.4469    0.8697 H   0  0  0  0  0  0  0  0  0  0  0  0
   -1.9608   -0.0641   -1.4320 H   0  0  0  0  0  0  0  0  0  0  0  0
   -1.0013   -1.5323   -1.7582 H   0  0  0  0  0  0  0  0  0  0  0  0
   -3.9031   -2.3996    0.2701 H   0  0  0  0  0  0  0  0  0  0  0  0
  1  2  1  0
  2  3  1  0
  3  4  1  0
  4  5  1  0
  5  6  1  0
  6  7  1  0
  4  8  1  0
  8  9  1  0
  9 10  1  0
  9 11  2  0
  1 12  1  0
  2 13  1  0
  2 14  1  0
  3 15  1  0
  3 16  1  0
  5 17  1  0
  5 18  1  0
  6 19  1  0
  6 20  1  0
  7 21  1  0
  8 22  1  0
  8 23  1  0
 10 24  1  0
M  END
$$$$
