
     RDKit          3D

 56 58  0  0  0  0  0  0  0  0999 V2000
   -8.4351    2.6802   -2.0613 C   0  0  0  0  0  0  0  0  0  0  0  0
   -7.8972    1.3807   -1.6595 N   0  0  0  0  0  0  0  0  0  0  0  0
   -6.5801    1.2613   -1.1429 C   0  0  0  0  0  0  0  0  0  0  0  0
   -5.7417    2.2777   -0.9808 N   0  0  0  0  0  0  0  0  0  0  0  0
   -4.4960    2.1044   -0.4830 C   0  0  0  0  0  0  0  0  0  0  0  0
   -4.0521    0.8472   -0.1232 C   0  0  0  0  0  0  0  0  0  0  0  0
   -2.7285    0.6772    0.4036 C   0  0  0  0  0  0  0  0  0  0  0  0
   -1.9848    1.7298    0.5244 O   0  0  0  0  0  0  0  0  0  0  0  0
   -2.0889   -0.4982    0.8249 N   0  0  0  0  0  0  0  0  0  0  0  0
   -0.7434   -0.5008    1.3345 C   0  0  0  0  0  0  0  0  0  0  0  0
    0.3550   -0.6633    0.5434 C   0  0  0  0  0  0  0  0  0  0  0  0
    1.6600   -0.6630    1.0585 C   0  0  0  0  0  0  0  0  0  0  0  0
    2.7979   -0.8401    0.1721 C   0  0  0  0  0  0  0  0  0  0  0  0
    2.6202   -0.9985   -1.0895 O   0  0  0  0  0  0  0  0  0  0  0  0
    4.1325   -0.8479    0.6373 N   0  0  0  0  0  0  0  0  0  0  0  0
    5.2445   -1.0240   -0.2506 C   0  0  0  0  0  0  0  0  0  0  0  0
    5.7535   -2.2589   -0.5526 C   0  0  0  0  0  0  0  0  0  0  0  0
    6.8339   -2.4271   -1.4155 C   0  0  0  0  0  0  0  0  0  0  0  0
    7.4101   -1.3370   -1.9825 C   0  0  0  0  0  0  0  0  0  0  0  0
    6.9002   -0.0831   -1.6815 C   0  0  0  0  0  0  0  0  0  0  0  0
    7.5194    1.1172   -2.2929 C   0  0  0  0  0  0  0  0  0  0  0  0
    8.5722    0.7283   -3.1148 F   0  0  0  0  0  0  0  0  0  0  0  0
    6.6523    1.8310   -3.0832 F   0  0  0  0  0  0  0  0  0  0  0  0
    8.0748    1.8824   -1.2793 F   0  0  0  0  0  0  0  0  0  0  0  0
    5.8190    0.0832   -0.8177 C   0  0  0  0  0  0  0  0  0  0  0  0
    5.3369    1.4697   -0.5517 C   0  0  0  0  0  0  0  0  0  0  0  0
    1.7636   -0.4885    2.4121 C   0  0  0  0  0  0  0  0  0  0  0  0
    0.6763   -0.3195    3.2573 C   0  0  0  0  0  0  0  0  0  0  0  0
   -0.5939   -0.3283    2.6919 C   0  0  0  0  0  0  0  0  0  0  0  0
   -1.7914   -0.1516    3.5512 C   0  0  0  0  0  0  0  0  0  0  0  0
   -4.9150   -0.1963   -0.2904 C   0  0  0  0  0  0  0  0  0  0  0  0
   -4.6042   -1.5032    0.0266 O   0  0  0  0  0  0  0  0  0  0  0  0
   -5.5355   -2.5280   -0.1694 C   0  0  0  0  0  0  0  0  0  0  0  0
   -6.1451    0.0437   -0.7925 N   0  0  0  0  0  0  0  0  0  0  0  0
   -7.6118    3.3401   -2.3510 H   0  0  0  0  0  0  0  0  0  0  0  0
   -9.0732    2.5559   -2.9775 H   0  0  0  0  0  0  0  0  0  0  0  0
   -9.0630    3.0716   -1.2435 H   0  0  0  0  0  0  0  0  0  0  0  0
   -8.5264    0.5698   -1.7738 H   0  0  0  0  0  0  0  0  0  0  0  0
   -3.8822    2.9812   -0.3845 H   0  0  0  0  0  0  0  0  0  0  0  0
   -2.5797   -1.4027    0.7773 H   0  0  0  0  0  0  0  0  0  0  0  0
    0.2299   -0.7962   -0.5067 H   0  0  0  0  0  0  0  0  0  0  0  0
    4.2964   -0.7211    1.6560 H   0  0  0  0  0  0  0  0  0  0  0  0
    5.3448   -3.1689   -0.1381 H   0  0  0  0  0  0  0  0  0  0  0  0
    7.2257   -3.4019   -1.6458 H   0  0  0  0  0  0  0  0  0  0  0  0
    8.2542   -1.4642   -2.6570 H   0  0  0  0  0  0  0  0  0  0  0  0
    4.5096    1.4566    0.2128 H   0  0  0  0  0  0  0  0  0  0  0  0
    4.9906    1.9006   -1.5078 H   0  0  0  0  0  0  0  0  0  0  0  0
    6.1306    2.0901   -0.0881 H   0  0  0  0  0  0  0  0  0  0  0  0
    2.7475   -0.4807    2.8581 H   0  0  0  0  0  0  0  0  0  0  0  0
    0.7597   -0.1832    4.3162 H   0  0  0  0  0  0  0  0  0  0  0  0
   -2.1072    0.9049    3.6198 H   0  0  0  0  0  0  0  0  0  0  0  0
   -2.5914   -0.8218    3.1658 H   0  0  0  0  0  0  0  0  0  0  0  0
   -1.5699   -0.5021    4.5829 H   0  0  0  0  0  0  0  0  0  0  0  0
   -5.1337   -3.4395    0.3321 H   0  0  0  0  0  0  0  0  0  0  0  0
   -5.6264   -2.6845   -1.2818 H   0  0  0  0  0  0  0  0  0  0  0  0
   -6.5135   -2.2604    0.2826 H   0  0  0  0  0  0  0  0  0  0  0  0
  1  2  1  0
  2  3  1  0
  3  4  2  0
  4  5  1  0
  5  6  2  0
  6  7  1  0
  7  8  2  0
  7  9  1  0
  9 10  1  0
 10 11  2  0
 11 12  1  0
 12 13  1  0
 13 14  2  0
 13 15  1  0
 15 16  1  0
 16 17  2  0
 17 18  1  0
 18 19  2  0
 19 20  1  0
 20 21  1  0
 21 22  1  0
 21 23  1  0
 21 24  1  0
 20 25  2  0
 25 26  1  0
 12 27  2  0
 27 28  1  0
 28 29  2  0
 29 30  1  0
  6 31  1  0
 31 32  1  0
 32 33  1  0
 31 34  2  0
 34  3  1  0
 29 10  1  0
 25 16  1  0
  1 35  1  0
  1 36  1  0
  1 37  1  0
  2 38  1  0
  5 39  1  0
  9 40  1  0
 11 41  1  0
 15 42  1  0
 17 43  1  0
 18 44  1  0
 19 45  1  0
 26 46  1  0
 26 47  1  0
 26 48  1  0
 27 49  1  0
 28 50  1  0
 30 51  1  0
 30 52  1  0
 30 53  1  0
 33 54  1  0
 33 55  1  0
 33 56  1  0
M  END
$$$$
