
     RDKit          3D

 55 59  0  0  0  0  0  0  0  0999 V2000
   -1.5001   -2.2046   -2.6691 C   0  0  0  0  0  0  0  0  0  0  0  0
   -0.4924   -1.6808   -1.8308 O   0  0  0  0  0  0  0  0  0  0  0  0
   -0.8063   -1.1646   -0.5838 C   0  0  0  0  0  0  0  0  0  0  0  0
   -2.0952   -1.1235   -0.1130 C   0  0  0  0  0  0  0  0  0  0  0  0
   -2.4380   -0.6142    1.1320 C   0  0  0  0  0  0  0  0  0  0  0  0
   -3.7225   -0.5766    1.6185 C   0  0  0  0  0  0  0  0  0  0  0  0
   -4.7632   -1.0901    0.7752 N   0  0  0  0  0  0  0  0  0  0  0  0
   -5.6547   -0.1580    0.2109 C   0  0  0  0  0  0  0  0  0  0  0  0
   -6.8159   -0.6097   -0.3698 C   0  0  0  0  0  0  0  0  0  0  0  0
   -7.7341    0.2766   -0.9314 C   0  0  0  0  0  0  0  0  0  0  0  0
   -7.4905    1.6151   -0.9121 C   0  0  0  0  0  0  0  0  0  0  0  0
   -8.6672    2.7154   -1.6271 Cl  0  0  0  0  0  0  0  0  0  0  0  0
   -6.3221    2.0960   -0.3300 C   0  0  0  0  0  0  0  0  0  0  0  0
   -6.0364    3.8089   -0.3235 Cl  0  0  0  0  0  0  0  0  0  0  0  0
   -5.4141    1.1891    0.2276 C   0  0  0  0  0  0  0  0  0  0  0  0
   -4.0076   -0.0785    2.8414 N   0  0  0  0  0  0  0  0  0  0  0  0
   -3.0523    0.4057    3.6451 C   0  0  0  0  0  0  0  0  0  0  0  0
   -1.7877    0.3701    3.1686 N   0  0  0  0  0  0  0  0  0  0  0  0
   -1.4555   -0.1141    1.9638 C   0  0  0  0  0  0  0  0  0  0  0  0
   -0.1542   -0.1508    1.4978 C   0  0  0  0  0  0  0  0  0  0  0  0
    0.1899   -0.6570    0.2622 C   0  0  0  0  0  0  0  0  0  0  0  0
    1.4692   -0.7158   -0.2364 O   0  0  0  0  0  0  0  0  0  0  0  0
    2.6140   -0.3345    0.4401 C   0  0  0  0  0  0  0  0  0  0  0  0
    3.6904   -1.3696    0.4673 C   0  0  0  0  0  0  0  0  0  0  0  0
    4.8836   -0.8029   -0.2802 C   0  0  2  0  0  0  0  0  0  0  0  0
    5.8092   -0.0106    0.6089 C   0  0  0  0  0  0  0  0  0  0  0  0
    5.9641    1.2974    0.0515 N   0  0  0  0  0  0  0  0  0  0  0  0
    7.3252    1.7596   -0.0175 C   0  0  0  0  0  0  0  0  0  0  0  0
    5.4076    1.2527   -1.2888 C   0  0  0  0  0  0  0  0  0  0  0  0
    4.2660    0.2572   -1.1552 C   0  0  2  0  0  0  0  0  0  0  0  0
    3.2221    0.8662   -0.2740 C   0  0  0  0  0  0  0  0  0  0  0  0
   -2.2966   -1.4967   -2.9294 H   0  0  0  0  0  0  0  0  0  0  0  0
   -2.0089   -3.0708   -2.1462 H   0  0  0  0  0  0  0  0  0  0  0  0
   -1.0472   -2.7023   -3.5726 H   0  0  0  0  0  0  0  0  0  0  0  0
   -2.9205   -1.5070   -0.7369 H   0  0  0  0  0  0  0  0  0  0  0  0
   -4.8418   -2.1306    0.5926 H   0  0  0  0  0  0  0  0  0  0  0  0
   -7.0656   -1.6619   -0.4148 H   0  0  0  0  0  0  0  0  0  0  0  0
   -8.6426   -0.1278   -1.3831 H   0  0  0  0  0  0  0  0  0  0  0  0
   -4.5229    1.6305    0.6629 H   0  0  0  0  0  0  0  0  0  0  0  0
   -3.2741    0.8106    4.6331 H   0  0  0  0  0  0  0  0  0  0  0  0
    0.5880    0.2456    2.1625 H   0  0  0  0  0  0  0  0  0  0  0  0
    2.4023   -0.0615    1.5035 H   0  0  0  0  0  0  0  0  0  0  0  0
    4.0102   -1.6182    1.5235 H   0  0  0  0  0  0  0  0  0  0  0  0
    3.3703   -2.3473   -0.0061 H   0  0  0  0  0  0  0  0  0  0  0  0
    5.4234   -1.5670   -0.8675 H   0  0  0  0  0  0  0  0  0  0  0  0
    5.4570    0.0536    1.6427 H   0  0  0  0  0  0  0  0  0  0  0  0
    6.7980   -0.5524    0.6010 H   0  0  0  0  0  0  0  0  0  0  0  0
    7.3283    2.7555   -0.5101 H   0  0  0  0  0  0  0  0  0  0  0  0
    7.7423    1.8249    1.0142 H   0  0  0  0  0  0  0  0  0  0  0  0
    7.9211    1.0723   -0.6343 H   0  0  0  0  0  0  0  0  0  0  0  0
    6.1350    0.9039   -2.0398 H   0  0  0  0  0  0  0  0  0  0  0  0
    4.9553    2.2379   -1.5224 H   0  0  0  0  0  0  0  0  0  0  0  0
    3.8857   -0.1175   -2.1089 H   0  0  0  0  0  0  0  0  0  0  0  0
    3.7130    1.5490    0.4665 H   0  0  0  0  0  0  0  0  0  0  0  0
    2.4587    1.4228   -0.8706 H   0  0  0  0  0  0  0  0  0  0  0  0
  1  2  1  0
  2  3  1  0
  3  4  2  0
  4  5  1  0
  5  6  2  0
  6  7  1  0
  7  8  1  0
  8  9  2  0
  9 10  1  0
 10 11  2  0
 11 12  1  0
 11 13  1  0
 13 14  1  0
 13 15  2  0
  6 16  1  0
 16 17  2  0
 17 18  1  0
 18 19  2  0
 19 20  1  0
 20 21  2  0
 21 22  1  0
 22 23  1  0
 23 24  1  0
 24 25  1  0
 25 26  1  0
 26 27  1  0
 27 28  1  0
 27 29  1  0
 29 30  1  0
 30 31  1  0
 21  3  1  0
 31 23  1  0
 19  5  1  0
 30 25  1  0
 15  8  1  0
  1 32  1  0
  1 33  1  0
  1 34  1  0
  4 35  1  0
  7 36  1  0
  9 37  1  0
 10 38  1  0
 15 39  1  0
 17 40  1  0
 20 41  1  0
 23 42  1  0
 24 43  1  0
 24 44  1  0
 25 45  1  6
 26 46  1  0
 26 47  1  0
 28 48  1  0
 28 49  1  0
 28 50  1  0
 29 51  1  0
 29 52  1  0
 30 53  1  6
 31 54  1  0
 31 55  1  0
M  END
$$$$
