
     RDKit          3D

 35 35  0  0  0  0  0  0  0  0999 V2000
   -0.6419    0.6487   -0.9384 O   0  0  0  0  0  0  0  0  0  0  0  0
   -0.5467   -0.3793   -0.2400 C   0  0  0  0  0  0  0  0  0  0  0  0
   -1.5383   -0.6301    0.7740 N   0  0  0  0  0  0  0  0  0  0  0  0
   -2.6256    0.2611    1.0040 C   0  0  0  0  0  0  0  0  0  0  0  0
   -3.5206    0.4518   -0.1995 C   0  0  0  0  0  0  0  0  0  0  0  0
   -4.8131    1.5956    0.2906 S   0  0  0  0  0  6  0  0  0  0  0  0
   -5.7314    1.8569   -0.8720 O   0  0  0  0  0  0  0  0  0  0  0  0
   -4.1493    2.8486    0.7716 O   0  0  0  0  0  0  0  0  0  0  0  0
   -5.6230    0.8772    1.5741 O   0  0  0  0  0  1  0  0  0  0  0  0
    0.5299   -1.3745   -0.3822 C   0  0  1  0  0  0  0  0  0  0  0  0
   -0.1325   -2.6777   -0.7813 C   0  0  0  0  0  0  0  0  0  0  0  0
    1.0809   -4.0037   -0.9934 S   0  0  0  0  0  0  0  0  0  0  0  0
    1.6803   -1.0171   -1.2385 C   0  0  0  0  0  0  0  0  0  0  0  0
    2.4364    0.1755   -0.8108 C   0  0  0  0  0  0  0  0  0  0  0  0
    2.2319    1.4316   -1.3287 C   0  0  0  0  0  0  0  0  0  0  0  0
    2.9554    2.5448   -0.8846 C   0  0  0  0  0  0  0  0  0  0  0  0
    3.9046    2.4078    0.0961 C   0  0  0  0  0  0  0  0  0  0  0  0
    4.1274    1.1637    0.6283 C   0  0  0  0  0  0  0  0  0  0  0  0
    3.4140    0.0765    0.1883 C   0  0  0  0  0  0  0  0  0  0  0  0
   -1.4304   -1.4927    1.3367 H   0  0  0  0  0  0  0  0  0  0  0  0
   -3.2616   -0.1227    1.8246 H   0  0  0  0  0  0  0  0  0  0  0  0
   -2.2909    1.2803    1.3409 H   0  0  0  0  0  0  0  0  0  0  0  0
   -4.0207   -0.4693   -0.5028 H   0  0  0  0  0  0  0  0  0  0  0  0
   -3.0132    0.8947   -1.0605 H   0  0  0  0  0  0  0  0  0  0  0  0
    0.9605   -1.5668    0.6575 H   0  0  0  0  0  0  0  0  0  0  0  0
   -0.6997   -2.5074   -1.7223 H   0  0  0  0  0  0  0  0  0  0  0  0
   -0.8686   -2.9320    0.0049 H   0  0  0  0  0  0  0  0  0  0  0  0
    0.5354   -5.1721   -0.4366 H   0  0  0  0  0  0  0  0  0  0  0  0
    2.4078   -1.8833   -1.1655 H   0  0  0  0  0  0  0  0  0  0  0  0
    1.4246   -0.9372   -2.3229 H   0  0  0  0  0  0  0  0  0  0  0  0
    1.5252    1.6349   -2.1073 H   0  0  0  0  0  0  0  0  0  0  0  0
    2.7585    3.5236   -1.3249 H   0  0  0  0  0  0  0  0  0  0  0  0
    4.4325    3.2916    0.4023 H   0  0  0  0  0  0  0  0  0  0  0  0
    4.8856    1.0918    1.4019 H   0  0  0  0  0  0  0  0  0  0  0  0
    3.6165   -0.8909    0.6313 H   0  0  0  0  0  0  0  0  0  0  0  0
  1  2  2  0
  2  3  1  0
  3  4  1  0
  4  5  1  0
  5  6  1  0
  6  7  2  0
  6  8  2  0
  6  9  1  0
  2 10  1  0
 10 11  1  0
 11 12  1  0
 10 13  1  0
 13 14  1  0
 14 15  2  0
 15 16  1  0
 16 17  2  0
 17 18  1  0
 18 19  2  0
 19 14  1  0
  3 20  1  0
  4 21  1  0
  4 22  1  0
  5 23  1  0
  5 24  1  0
 10 25  1  1
 11 26  1  0
 11 27  1  0
 12 28  1  0
 13 29  1  0
 13 30  1  0
 15 31  1  0
 16 32  1  0
 17 33  1  0
 18 34  1  0
 19 35  1  0
M  CHG  1   9  -1
M  END
$$$$
