
     RDKit          3D

 49 50  0  0  0  0  0  0  0  0999 V2000
   -8.1781    1.3091    0.7326 C   0  0  0  0  0  0  0  0  0  0  0  0
   -7.0474    0.5581    0.2289 N   0  0  0  0  0  0  0  0  0  0  0  0
   -7.1170   -0.7147   -0.4409 C   0  0  0  0  0  0  0  0  0  0  0  0
   -5.7516    1.1210    0.4057 C   0  0  0  0  0  0  0  0  0  0  0  0
   -5.3172    2.1689    0.9196 O   0  0  0  0  0  0  0  0  0  0  0  0
   -4.5283    0.4729   -0.0511 C   0  0  0  0  0  0  0  0  0  0  0  0
   -3.9980   -0.4318    0.8677 C   0  0  0  0  0  0  0  0  0  0  0  0
   -2.8294   -1.1038    0.5281 C   0  0  0  0  0  0  0  0  0  0  0  0
   -2.1796   -0.9093   -0.6770 C   0  0  0  0  0  0  0  0  0  0  0  0
   -2.7248   -0.0096   -1.5664 C   0  0  0  0  0  0  0  0  0  0  0  0
   -3.8832    0.6649   -1.2443 C   0  0  0  0  0  0  0  0  0  0  0  0
   -0.7303   -1.8307   -0.9296 S   0  0  0  0  0  0  0  0  0  0  0  0
   -0.6056   -2.2690   -2.3826 O   0  0  0  0  0  0  0  0  0  0  0  0
   -0.7884   -3.1244   -0.1427 O   0  0  0  0  0  0  0  0  0  0  0  0
    0.7174   -0.9649   -0.4390 C   0  0  0  0  0  0  0  0  0  0  0  0
    1.3990   -0.3145   -1.4763 C   0  0  0  0  0  0  0  0  0  0  0  0
    2.5522    0.3825   -1.0934 C   0  0  0  0  0  0  0  0  0  0  0  0
    2.9211    0.3781    0.2328 C   0  0  0  0  0  0  0  0  0  0  0  0
    4.1207    1.1177    0.4680 N   0  0  0  0  0  0  0  0  0  0  0  0
    5.1571    0.1580    0.4033 C   0  0  0  0  0  0  0  0  0  0  0  0
    4.9163   -1.0810    0.1756 O   0  0  0  0  0  0  0  0  0  0  0  0
    6.6407    0.1173    0.5337 C   0  0  1  0  0  0  0  0  0  0  0  0
    7.0398    0.7054    1.8615 C   0  0  0  0  0  0  0  0  0  0  0  0
    7.0878   -1.2209    0.4138 O   0  0  0  0  0  0  0  0  0  0  0  0
    7.3488    0.8787   -0.5664 C   0  0  0  0  0  0  0  0  0  0  0  0
    8.7130    0.7659   -0.3310 F   0  0  0  0  0  0  0  0  0  0  0  0
    6.9833    2.1893   -0.6312 F   0  0  0  0  0  0  0  0  0  0  0  0
    7.0972    0.2768   -1.7951 F   0  0  0  0  0  0  0  0  0  0  0  0
    2.2319   -0.2707    1.2343 C   0  0  0  0  0  0  0  0  0  0  0  0
    2.8213   -0.1908    2.8836 Cl  0  0  0  0  0  0  0  0  0  0  0  0
    1.0930   -0.9653    0.8909 C   0  0  0  0  0  0  0  0  0  0  0  0
   -8.9965    1.2803   -0.0342 H   0  0  0  0  0  0  0  0  0  0  0  0
   -8.5687    0.8544    1.6891 H   0  0  0  0  0  0  0  0  0  0  0  0
   -7.9087    2.3477    0.9475 H   0  0  0  0  0  0  0  0  0  0  0  0
   -6.1380   -1.2298   -0.4143 H   0  0  0  0  0  0  0  0  0  0  0  0
   -7.9110   -1.3603    0.0348 H   0  0  0  0  0  0  0  0  0  0  0  0
   -7.4200   -0.6086   -1.5121 H   0  0  0  0  0  0  0  0  0  0  0  0
   -4.4525   -0.6343    1.8281 H   0  0  0  0  0  0  0  0  0  0  0  0
   -2.4387   -1.8109    1.2751 H   0  0  0  0  0  0  0  0  0  0  0  0
   -2.2145    0.1403   -2.5059 H   0  0  0  0  0  0  0  0  0  0  0  0
   -4.3345    1.3742   -1.9125 H   0  0  0  0  0  0  0  0  0  0  0  0
    1.0698   -0.3404   -2.4983 H   0  0  0  0  0  0  0  0  0  0  0  0
    3.0729    0.8795   -1.8858 H   0  0  0  0  0  0  0  0  0  0  0  0
    4.5959    2.0251    0.6647 H   0  0  0  0  0  0  0  0  0  0  0  0
    8.0478    0.2892    2.1376 H   0  0  0  0  0  0  0  0  0  0  0  0
    7.0869    1.7982    1.7915 H   0  0  0  0  0  0  0  0  0  0  0  0
    6.3062    0.3974    2.6498 H   0  0  0  0  0  0  0  0  0  0  0  0
    6.5161   -1.7793    1.0041 H   0  0  0  0  0  0  0  0  0  0  0  0
    0.5258   -1.4857    1.6350 H   0  0  0  0  0  0  0  0  0  0  0  0
  1  2  1  0
  2  3  1  0
  2  4  1  0
  4  5  2  0
  4  6  1  0
  6  7  2  0
  7  8  1  0
  8  9  2  0
  9 10  1  0
 10 11  2  0
  9 12  1  0
 12 13  2  0
 12 14  2  0
 12 15  1  0
 15 16  2  0
 16 17  1  0
 17 18  2  0
 18 19  1  0
 19 20  1  0
 20 21  2  0
 20 22  1  0
 22 23  1  0
 22 24  1  1
 22 25  1  0
 25 26  1  0
 25 27  1  0
 25 28  1  0
 18 29  1  0
 29 30  1  0
 29 31  2  0
 11  6  1  0
 31 15  1  0
  1 32  1  0
  1 33  1  0
  1 34  1  0
  3 35  1  0
  3 36  1  0
  3 37  1  0
  7 38  1  0
  8 39  1  0
 10 40  1  0
 11 41  1  0
 16 42  1  0
 17 43  1  0
 19 44  1  0
 23 45  1  0
 23 46  1  0
 23 47  1  0
 24 48  1  0
 31 49  1  0
M  END
$$$$
