
     RDKit          3D

 85 91  0  0  0  0  0  0  0  0999 V2000
    4.5683   -3.5383   -0.7220 C   0  0  0  0  0  0  0  0  0  0  0  0
    4.9332   -2.2797   -0.2165 O   0  0  0  0  0  0  0  0  0  0  0  0
    4.0114   -1.3968    0.3485 C   0  0  0  0  0  0  0  0  0  0  0  0
    2.6801   -1.7848    0.4103 C   0  0  0  0  0  0  0  0  0  0  0  0
    1.7476   -0.9488    0.9570 C   0  0  0  0  0  0  0  0  0  0  0  0
    0.3419   -1.3161    1.0753 C   0  0  0  0  0  0  0  0  0  0  0  0
   -0.7195   -0.5818    0.6328 N   0  0  0  0  0  0  0  0  0  0  0  0
   -1.8561   -1.1900    0.9151 N   0  0  0  0  0  0  0  0  0  0  0  0
   -3.2071   -0.7574    0.6250 C   0  0  1  0  0  0  0  0  0  0  0  0
   -3.2506    0.7603    0.4039 C   0  0  0  0  0  0  0  0  0  0  0  0
   -4.7111    1.1431    0.5369 C   0  0  0  0  0  0  0  0  0  0  0  0
   -5.4692    0.4796   -0.5629 C   0  0  2  0  0  0  0  0  0  0  0  0
   -6.7056   -0.0826   -0.0196 N   0  0  0  0  0  0  0  0  0  0  0  0
   -7.4951   -0.7365   -1.0148 C   0  0  0  0  0  0  0  0  0  0  0  0
   -8.9970   -0.6070   -0.7391 C   0  0  0  0  0  0  0  0  0  0  0  0
   -9.3328    0.8039   -0.8124 N   0  0  0  0  0  0  0  0  0  0  0  0
  -10.5583    1.2880   -1.2981 C   0  0  0  0  0  0  0  0  0  0  0  0
  -10.8142    2.7415   -1.3362 C   0  0  0  0  0  0  0  0  0  0  0  0
  -11.4307    0.4871   -1.6977 O   0  0  0  0  0  0  0  0  0  0  0  0
   -8.2993    1.7327   -0.3401 C   0  0  0  0  0  0  0  0  0  0  0  0
   -7.4519    0.9460    0.6467 C   0  0  0  0  0  0  0  0  0  0  0  0
   -4.7026   -0.5059   -1.3706 C   0  0  0  0  0  0  0  0  0  0  0  0
   -3.8266   -1.4210   -0.5603 C   0  0  0  0  0  0  0  0  0  0  0  0
   -1.5330   -2.3402    1.5532 C   0  0  0  0  0  0  0  0  0  0  0  0
   -2.2788   -3.3135    2.0586 N   0  0  0  0  0  0  0  0  0  0  0  0
   -1.7356   -4.3816    2.6719 C   0  0  0  0  0  0  0  0  0  0  0  0
   -0.3885   -4.4734    2.7808 N   0  0  0  0  0  0  0  0  0  0  0  0
    0.4369   -3.5287    2.2943 C   0  0  0  0  0  0  0  0  0  0  0  0
    1.8426   -3.6585    2.4549 N   0  0  0  0  0  0  0  0  0  0  0  0
   -0.1405   -2.4429    1.6680 C   0  0  0  0  0  0  0  0  0  0  0  0
    2.1489    0.2779    1.4410 C   0  0  0  0  0  0  0  0  0  0  0  0
    3.4993    0.6633    1.3742 C   0  0  0  0  0  0  0  0  0  0  0  0
    4.4285   -0.1837    0.8243 C   0  0  0  0  0  0  0  0  0  0  0  0
    5.7989    0.2543    0.7805 N   0  0  0  0  0  0  0  0  0  0  0  0
    6.2407    0.9617   -0.3555 C   0  0  0  0  0  0  0  0  0  0  0  0
    5.3551    1.1429   -1.2620 O   0  0  0  0  0  0  0  0  0  0  0  0
    7.5829    1.4576   -0.5216 C   0  0  0  0  0  0  0  0  0  0  0  0
    8.0423    1.9848   -1.7504 C   0  0  0  0  0  0  0  0  0  0  0  0
    9.3449    2.3951   -1.6114 C   0  0  0  0  0  0  0  0  0  0  0  0
   10.2698    2.9662   -2.4518 C   0  0  0  0  0  0  0  0  0  0  0  0
   11.5380    3.2735   -2.0117 C   0  0  0  0  0  0  0  0  0  0  0  0
   11.8909    3.0079   -0.7137 C   0  0  0  0  0  0  0  0  0  0  0  0
   10.9429    2.4281    0.1288 C   0  0  0  0  0  0  0  0  0  0  0  0
    9.6774    2.1199   -0.3053 C   0  0  0  0  0  0  0  0  0  0  0  0
    8.6007    1.5602    0.3187 N   0  0  0  0  0  0  0  0  0  0  0  0
    8.6616    1.1858    1.7113 C   0  0  0  0  0  0  0  0  0  0  0  0
    4.2570   -4.1952    0.1252 H   0  0  0  0  0  0  0  0  0  0  0  0
    3.7342   -3.4121   -1.4293 H   0  0  0  0  0  0  0  0  0  0  0  0
    5.4026   -4.0098   -1.2489 H   0  0  0  0  0  0  0  0  0  0  0  0
    2.4205   -2.7650   -0.0124 H   0  0  0  0  0  0  0  0  0  0  0  0
   -3.8941   -0.9380    1.5015 H   0  0  0  0  0  0  0  0  0  0  0  0
   -2.6076    1.2811    1.1282 H   0  0  0  0  0  0  0  0  0  0  0  0
   -2.9699    0.9864   -0.6547 H   0  0  0  0  0  0  0  0  0  0  0  0
   -5.0231    0.7562    1.5516 H   0  0  0  0  0  0  0  0  0  0  0  0
   -4.7577    2.2550    0.5145 H   0  0  0  0  0  0  0  0  0  0  0  0
   -5.8139    1.2934   -1.2657 H   0  0  0  0  0  0  0  0  0  0  0  0
   -7.2531   -1.8211   -0.9852 H   0  0  0  0  0  0  0  0  0  0  0  0
   -7.3151   -0.3774   -2.0514 H   0  0  0  0  0  0  0  0  0  0  0  0
   -9.2448   -1.0673    0.2249 H   0  0  0  0  0  0  0  0  0  0  0  0
   -9.5255   -1.1061   -1.5656 H   0  0  0  0  0  0  0  0  0  0  0  0
   -9.9278    3.2953   -1.7619 H   0  0  0  0  0  0  0  0  0  0  0  0
  -11.6390    2.9382   -2.0470 H   0  0  0  0  0  0  0  0  0  0  0  0
  -10.9980    3.1852   -0.3371 H   0  0  0  0  0  0  0  0  0  0  0  0
   -8.7501    2.5954    0.1789 H   0  0  0  0  0  0  0  0  0  0  0  0
   -7.7260    2.0171   -1.2489 H   0  0  0  0  0  0  0  0  0  0  0  0
   -6.8373    1.6350    1.2430 H   0  0  0  0  0  0  0  0  0  0  0  0
   -8.1827    0.4765    1.3680 H   0  0  0  0  0  0  0  0  0  0  0  0
   -4.0797   -0.0168   -2.1431 H   0  0  0  0  0  0  0  0  0  0  0  0
   -5.4288   -1.1519   -1.9227 H   0  0  0  0  0  0  0  0  0  0  0  0
   -3.0209   -1.7945   -1.2265 H   0  0  0  0  0  0  0  0  0  0  0  0
   -4.4214   -2.3258   -0.2616 H   0  0  0  0  0  0  0  0  0  0  0  0
   -2.4002   -5.1337    3.0585 H   0  0  0  0  0  0  0  0  0  0  0  0
    2.4180   -3.1511    3.1369 H   0  0  0  0  0  0  0  0  0  0  0  0
    2.3186   -4.3378    1.8114 H   0  0  0  0  0  0  0  0  0  0  0  0
    1.4001    0.9249    1.8675 H   0  0  0  0  0  0  0  0  0  0  0  0
    3.7326    1.6282    1.7698 H   0  0  0  0  0  0  0  0  0  0  0  0
    6.4359    0.0341    1.5741 H   0  0  0  0  0  0  0  0  0  0  0  0
    7.4377    2.0396   -2.6368 H   0  0  0  0  0  0  0  0  0  0  0  0
   10.0234    3.1871   -3.4748 H   0  0  0  0  0  0  0  0  0  0  0  0
   12.2445    3.7215   -2.6928 H   0  0  0  0  0  0  0  0  0  0  0  0
   12.8909    3.2531   -0.3758 H   0  0  0  0  0  0  0  0  0  0  0  0
   11.2549    2.2328    1.1435 H   0  0  0  0  0  0  0  0  0  0  0  0
    7.8386    1.6357    2.3219 H   0  0  0  0  0  0  0  0  0  0  0  0
    8.7011    0.0930    1.8095 H   0  0  0  0  0  0  0  0  0  0  0  0
    9.6248    1.5465    2.1683 H   0  0  0  0  0  0  0  0  0  0  0  0
  1  2  1  0
  2  3  1  0
  3  4  2  0
  4  5  1  0
  5  6  1  0
  6  7  2  0
  7  8  1  0
  8  9  1  0
  9 10  1  0
 10 11  1  0
 11 12  1  0
 12 13  1  0
 13 14  1  0
 14 15  1  0
 15 16  1  0
 16 17  1  0
 17 18  1  0
 17 19  2  0
 16 20  1  0
 20 21  1  0
 12 22  1  0
 22 23  1  0
  8 24  1  0
 24 25  2  0
 25 26  1  0
 26 27  2  0
 27 28  1  0
 28 29  1  0
 28 30  2  0
  5 31  2  0
 31 32  1  0
 32 33  2  0
 33 34  1  0
 34 35  1  0
 35 36  2  0
 35 37  1  0
 37 38  2  0
 38 39  1  0
 39 40  2  0
 40 41  1  0
 41 42  2  0
 42 43  1  0
 43 44  2  0
 44 45  1  0
 45 46  1  0
 33  3  1  0
 45 37  1  0
 30  6  1  0
 44 39  1  0
 23  9  1  0
 30 24  1  0
 21 13  1  0
  1 47  1  0
  1 48  1  0
  1 49  1  0
  4 50  1  0
  9 51  1  1
 10 52  1  0
 10 53  1  0
 11 54  1  0
 11 55  1  0
 12 56  1  6
 14 57  1  0
 14 58  1  0
 15 59  1  0
 15 60  1  0
 18 61  1  0
 18 62  1  0
 18 63  1  0
 20 64  1  0
 20 65  1  0
 21 66  1  0
 21 67  1  0
 22 68  1  0
 22 69  1  0
 23 70  1  0
 23 71  1  0
 26 72  1  0
 29 73  1  0
 29 74  1  0
 31 75  1  0
 32 76  1  0
 34 77  1  0
 38 78  1  0
 40 79  1  0
 41 80  1  0
 42 81  1  0
 43 82  1  0
 46 83  1  0
 46 84  1  0
 46 85  1  0
M  END
$$$$
