
     RDKit          3D

 70 73  0  0  0  0  0  0  0  0999 V2000
    6.8567   -2.8663    0.9313 C   0  0  0  0  0  0  0  0  0  0  0  0
    7.0454   -1.5080    0.5695 N   0  0  0  0  0  0  0  0  0  0  0  0
    7.7771   -0.6986    1.4583 C   0  0  0  0  0  0  0  0  0  0  0  0
    8.0172    0.6857    0.8731 C   0  0  0  0  0  0  0  0  0  0  0  0
    9.1279    0.8953    0.1338 C   0  0  0  0  0  0  0  0  0  0  0  0
    9.3100    2.2087   -0.4253 C   0  0  0  0  0  0  0  0  0  0  0  0
    8.3764    3.1173   -0.1680 C   0  0  0  0  0  0  0  0  0  0  0  0
    7.2561    2.9458    0.5602 C   0  0  0  0  0  0  0  0  0  0  0  0
    7.0781    1.6232    1.1231 C   0  0  0  0  0  0  0  0  0  0  0  0
    6.2748   -0.9568   -0.4625 C   0  0  0  0  0  0  0  0  0  0  0  0
    4.8721   -0.6725   -0.2943 C   0  0  0  0  0  0  0  0  0  0  0  0
    3.9292   -1.7715   -0.0243 C   0  0  0  0  0  0  0  0  0  0  0  0
    2.6376   -1.4378    0.0738 C   0  0  0  0  0  0  0  0  0  0  0  0
    2.0571   -0.2155   -0.0499 C   0  0  0  0  0  0  0  0  0  0  0  0
    0.7141    0.2260    0.0855 C   0  0  0  0  0  0  0  0  0  0  0  0
    0.5723    1.4990    0.3147 O   0  0  0  0  0  0  0  0  0  0  0  0
   -0.5441   -0.5122    0.0226 C   0  0  0  0  0  0  0  0  0  0  0  0
   -0.7409   -1.8104    0.2213 C   0  0  0  0  0  0  0  0  0  0  0  0
   -1.9770   -2.4021    0.3191 C   0  0  0  0  0  0  0  0  0  0  0  0
   -3.1174   -1.7033    0.2170 C   0  0  0  0  0  0  0  0  0  0  0  0
   -4.2699   -2.1747    0.3236 O   0  0  0  0  0  0  0  0  0  0  0  0
   -5.5075   -2.6874    0.4390 C   0  0  0  0  0  0  0  0  0  0  0  0
   -6.5826   -1.6578    0.5540 C   0  0  0  0  0  0  0  0  0  0  0  0
   -6.7731   -0.8088   -0.6527 C   0  0  0  0  0  0  0  0  0  0  0  0
   -7.7568    0.2232   -0.3409 N   0  0  0  0  0  0  0  0  0  0  0  0
   -7.2618    1.1939    0.5627 C   0  0  0  0  0  0  0  0  0  0  0  0
   -7.2133    2.6038    0.0208 C   0  0  0  0  0  0  0  0  0  0  0  0
   -7.1853    2.6322   -1.4677 C   0  0  0  0  0  0  0  0  0  0  0  0
   -8.3868    1.8927   -2.0141 C   0  0  0  0  0  0  0  0  0  0  0  0
   -8.6602    0.5869   -1.3422 C   0  0  0  0  0  0  0  0  0  0  0  0
   -2.9924   -0.2574   -0.0316 C   0  0  0  0  0  0  0  0  0  0  0  0
   -1.7203    0.2641   -0.1121 C   0  0  0  0  0  0  0  0  0  0  0  0
    2.9846    0.8166   -0.3224 C   0  0  0  0  0  0  0  0  0  0  0  0
    4.2976    0.4983   -0.4227 C   0  0  0  0  0  0  0  0  0  0  0  0
    6.1073   -2.8983    1.7384 H   0  0  0  0  0  0  0  0  0  0  0  0
    6.5542   -3.4850    0.0533 H   0  0  0  0  0  0  0  0  0  0  0  0
    7.7877   -3.2337    1.3689 H   0  0  0  0  0  0  0  0  0  0  0  0
    8.8044   -1.1357    1.6014 H   0  0  0  0  0  0  0  0  0  0  0  0
    7.3669   -0.6140    2.4683 H   0  0  0  0  0  0  0  0  0  0  0  0
    9.8462    0.1633   -0.0527 H   0  0  0  0  0  0  0  0  0  0  0  0
   10.1713    2.3957   -1.0126 H   0  0  0  0  0  0  0  0  0  0  0  0
    8.5152    4.1836   -0.5690 H   0  0  0  0  0  0  0  0  0  0  0  0
    6.5129    3.6760    0.7651 H   0  0  0  0  0  0  0  0  0  0  0  0
    6.1873    1.4751    1.6926 H   0  0  0  0  0  0  0  0  0  0  0  0
    6.8217    0.0465   -0.7286 H   0  0  0  0  0  0  0  0  0  0  0  0
    6.4476   -1.5370   -1.3908 H   0  0  0  0  0  0  0  0  0  0  0  0
    4.3044   -2.7573    0.0772 H   0  0  0  0  0  0  0  0  0  0  0  0
    1.9455   -2.2889    0.3076 H   0  0  0  0  0  0  0  0  0  0  0  0
    0.1278   -2.4931    0.3099 H   0  0  0  0  0  0  0  0  0  0  0  0
   -2.0400   -3.4846    0.4849 H   0  0  0  0  0  0  0  0  0  0  0  0
   -5.7483   -3.3984   -0.4169 H   0  0  0  0  0  0  0  0  0  0  0  0
   -5.5828   -3.3339    1.3725 H   0  0  0  0  0  0  0  0  0  0  0  0
   -7.5498   -2.1535    0.8538 H   0  0  0  0  0  0  0  0  0  0  0  0
   -6.3912   -1.0036    1.4689 H   0  0  0  0  0  0  0  0  0  0  0  0
   -7.2171   -1.4192   -1.4717 H   0  0  0  0  0  0  0  0  0  0  0  0
   -5.8689   -0.2962   -0.9273 H   0  0  0  0  0  0  0  0  0  0  0  0
   -7.7499    1.2317    1.5534 H   0  0  0  0  0  0  0  0  0  0  0  0
   -6.1942    0.8995    0.7899 H   0  0  0  0  0  0  0  0  0  0  0  0
   -8.1076    3.1422    0.4068 H   0  0  0  0  0  0  0  0  0  0  0  0
   -6.3052    3.0782    0.4344 H   0  0  0  0  0  0  0  0  0  0  0  0
   -6.2368    2.1835   -1.8390 H   0  0  0  0  0  0  0  0  0  0  0  0
   -7.2359    3.7171   -1.7500 H   0  0  0  0  0  0  0  0  0  0  0  0
   -8.2993    1.7752   -3.1208 H   0  0  0  0  0  0  0  0  0  0  0  0
   -9.2760    2.5600   -1.8591 H   0  0  0  0  0  0  0  0  0  0  0  0
   -9.7326    0.5650   -0.9322 H   0  0  0  0  0  0  0  0  0  0  0  0
   -8.6420   -0.2010   -2.1467 H   0  0  0  0  0  0  0  0  0  0  0  0
   -3.8664    0.2831   -0.1481 H   0  0  0  0  0  0  0  0  0  0  0  0
   -1.5840    1.3373   -0.3009 H   0  0  0  0  0  0  0  0  0  0  0  0
    2.6590    1.8334   -0.4649 H   0  0  0  0  0  0  0  0  0  0  0  0
    4.9740    1.4152   -0.6775 H   0  0  0  0  0  0  0  0  0  0  0  0
  1  2  1  0
  2  3  1  0
  3  4  1  0
  4  5  2  0
  5  6  1  0
  6  7  2  0
  7  8  1  0
  8  9  2  0
  2 10  1  0
 10 11  1  0
 11 12  2  0
 12 13  1  0
 13 14  2  0
 14 15  1  0
 15 16  2  0
 15 17  1  0
 17 18  2  0
 18 19  1  0
 19 20  2  0
 20 21  1  0
 21 22  1  0
 22 23  1  0
 23 24  1  0
 24 25  1  0
 25 26  1  0
 26 27  1  0
 27 28  1  0
 28 29  1  0
 29 30  1  0
 20 31  1  0
 31 32  2  0
 14 33  1  0
 33 34  2  0
  9  4  1  0
 34 11  1  0
 32 17  1  0
 30 25  1  0
  1 35  1  0
  1 36  1  0
  1 37  1  0
  3 38  1  0
  3 39  1  0
  5 40  1  0
  6 41  1  0
  7 42  1  0
  8 43  1  0
  9 44  1  0
 10 45  1  0
 10 46  1  0
 12 47  1  0
 13 48  1  0
 18 49  1  0
 19 50  1  0
 22 51  1  0
 22 52  1  0
 23 53  1  0
 23 54  1  0
 24 55  1  0
 24 56  1  0
 26 57  1  0
 26 58  1  0
 27 59  1  0
 27 60  1  0
 28 61  1  0
 28 62  1  0
 29 63  1  0
 29 64  1  0
 30 65  1  0
 30 66  1  0
 31 67  1  0
 32 68  1  0
 33 69  1  0
 34 70  1  0
M  END
$$$$
