
     RDKit          3D

 58 58  0  0  0  0  0  0  0  0999 V2000
   -7.5015    1.0398   -0.6671 C   0  0  0  0  0  0  0  0  0  0  0  0
   -7.4469   -0.3703   -1.1406 C   0  0  0  0  0  0  0  0  0  0  0  0
   -6.0844   -0.7880   -1.5226 C   0  0  0  0  0  0  0  0  0  0  0  0
   -5.0170   -0.7987   -0.5126 C   0  0  0  0  0  0  0  0  0  0  0  0
   -4.6542    0.4588    0.1753 C   0  0  0  0  0  0  0  0  0  0  0  0
   -3.4899    0.0920    1.1299 C   0  0  0  0  0  0  0  0  0  0  0  0
   -2.4873   -0.3874    0.3245 O   0  0  0  0  0  0  0  0  0  0  0  0
   -1.3410   -0.7772    0.9989 C   0  0  0  0  0  0  0  0  0  0  0  0
   -0.7025    0.3510    1.7802 C   0  0  0  0  0  0  0  0  0  0  0  0
    0.5211   -0.1815    2.4697 C   0  0  0  0  0  0  0  0  0  0  0  0
    1.5280   -0.7373    1.4883 C   0  0  0  0  0  0  0  0  0  0  0  0
    1.9576    0.3369    0.5542 C   0  0  0  0  0  0  0  0  0  0  0  0
    2.8963   -0.0063   -0.4503 N   0  0  0  0  0  0  0  0  0  0  0  0
    3.2504    1.0973   -1.3088 C   0  0  0  0  0  0  0  0  0  0  0  0
    4.4561    1.8476   -0.7270 C   0  0  2  0  0  0  0  0  0  0  0  0
    4.6811    2.9981   -1.4643 O   0  0  0  0  0  0  0  0  0  0  0  0
    5.6039    0.8642   -0.8096 C   0  0  1  0  0  0  0  0  0  0  0  0
    6.7733    1.4624   -0.3446 O   0  0  0  0  0  0  0  0  0  0  0  0
    5.2756   -0.2746    0.1200 C   0  0  2  0  0  0  0  0  0  0  0  0
    6.2372   -1.2859    0.0319 O   0  0  0  0  0  0  0  0  0  0  0  0
    3.9368   -0.8973   -0.1572 C   0  0  2  0  0  0  0  0  0  0  0  0
    4.1488   -1.9129   -1.2960 C   0  0  0  0  0  0  0  0  0  0  0  0
    4.4657   -1.2980   -2.4818 O   0  0  0  0  0  0  0  0  0  0  0  0
   -7.6917    1.1556    0.4187 H   0  0  0  0  0  0  0  0  0  0  0  0
   -8.3677    1.5902   -1.1681 H   0  0  0  0  0  0  0  0  0  0  0  0
   -6.6193    1.6244   -0.9961 H   0  0  0  0  0  0  0  0  0  0  0  0
   -8.0762   -0.4275   -2.0825 H   0  0  0  0  0  0  0  0  0  0  0  0
   -7.9652   -1.0825   -0.4550 H   0  0  0  0  0  0  0  0  0  0  0  0
   -6.1686   -1.8354   -1.9368 H   0  0  0  0  0  0  0  0  0  0  0  0
   -5.7727   -0.1645   -2.4060 H   0  0  0  0  0  0  0  0  0  0  0  0
   -4.0695   -1.1637   -1.0229 H   0  0  0  0  0  0  0  0  0  0  0  0
   -5.1984   -1.6181    0.2484 H   0  0  0  0  0  0  0  0  0  0  0  0
   -4.2472    1.2391   -0.4912 H   0  0  0  0  0  0  0  0  0  0  0  0
   -5.4117    0.8760    0.8704 H   0  0  0  0  0  0  0  0  0  0  0  0
   -3.9197   -0.6694    1.8085 H   0  0  0  0  0  0  0  0  0  0  0  0
   -3.1897    0.9821    1.7086 H   0  0  0  0  0  0  0  0  0  0  0  0
   -0.6030   -1.0355    0.1828 H   0  0  0  0  0  0  0  0  0  0  0  0
   -1.4676   -1.6982    1.5984 H   0  0  0  0  0  0  0  0  0  0  0  0
   -1.3787    0.7079    2.5968 H   0  0  0  0  0  0  0  0  0  0  0  0
   -0.5467    1.1989    1.1196 H   0  0  0  0  0  0  0  0  0  0  0  0
    0.2138   -0.9256    3.2227 H   0  0  0  0  0  0  0  0  0  0  0  0
    1.0229    0.6985    2.9546 H   0  0  0  0  0  0  0  0  0  0  0  0
    1.1531   -1.6474    0.9860 H   0  0  0  0  0  0  0  0  0  0  0  0
    2.3916   -1.1213    2.1207 H   0  0  0  0  0  0  0  0  0  0  0  0
    2.4201    1.1730    1.1571 H   0  0  0  0  0  0  0  0  0  0  0  0
    1.0416    0.7165    0.0259 H   0  0  0  0  0  0  0  0  0  0  0  0
    3.5066    0.8270   -2.3315 H   0  0  0  0  0  0  0  0  0  0  0  0
    2.3990    1.8064   -1.3225 H   0  0  0  0  0  0  0  0  0  0  0  0
    4.3064    2.0662    0.3516 H   0  0  0  0  0  0  0  0  0  0  0  0
    4.1373    3.0074   -2.2901 H   0  0  0  0  0  0  0  0  0  0  0  0
    5.7624    0.5385   -1.8572 H   0  0  0  0  0  0  0  0  0  0  0  0
    6.5483    2.3321    0.0497 H   0  0  0  0  0  0  0  0  0  0  0  0
    5.3152    0.1181    1.1537 H   0  0  0  0  0  0  0  0  0  0  0  0
    6.1573   -1.8129    0.8729 H   0  0  0  0  0  0  0  0  0  0  0  0
    3.6772   -1.5239    0.7085 H   0  0  0  0  0  0  0  0  0  0  0  0
    3.2769   -2.5979   -1.3730 H   0  0  0  0  0  0  0  0  0  0  0  0
    5.0209   -2.5556   -1.0003 H   0  0  0  0  0  0  0  0  0  0  0  0
    5.3353   -1.6112   -2.8532 H   0  0  0  0  0  0  0  0  0  0  0  0
  1  2  1  0
  2  3  1  0
  3  4  1  0
  4  5  1  0
  5  6  1  0
  6  7  1  0
  7  8  1  0
  8  9  1  0
  9 10  1  0
 10 11  1  0
 11 12  1  0
 12 13  1  0
 13 14  1  0
 14 15  1  0
 15 16  1  0
 15 17  1  0
 17 18  1  0
 17 19  1  0
 19 20  1  0
 19 21  1  0
 21 22  1  0
 22 23  1  0
 21 13  1  0
  1 24  1  0
  1 25  1  0
  1 26  1  0
  2 27  1  0
  2 28  1  0
  3 29  1  0
  3 30  1  0
  4 31  1  0
  4 32  1  0
  5 33  1  0
  5 34  1  0
  6 35  1  0
  6 36  1  0
  8 37  1  0
  8 38  1  0
  9 39  1  0
  9 40  1  0
 10 41  1  0
 10 42  1  0
 11 43  1  0
 11 44  1  0
 12 45  1  0
 12 46  1  0
 14 47  1  0
 14 48  1  0
 15 49  1  1
 16 50  1  0
 17 51  1  6
 18 52  1  0
 19 53  1  1
 20 54  1  0
 21 55  1  1
 22 56  1  0
 22 57  1  0
 23 58  1  0
M  END
$$$$
