
     RDKit          3D

 46 49  0  0  0  0  0  0  0  0999 V2000
   -6.4005    0.1080    1.4327 C   0  0  0  0  0  0  0  0  0  0  0  0
   -5.4283    0.6710    2.1695 O   0  0  0  0  0  0  0  0  0  0  0  0
   -4.1525    0.5396    1.8080 C   0  0  0  0  0  0  0  0  0  0  0  0
   -3.6948    1.0667    0.4889 C   0  0  2  0  0  0  0  0  0  0  0  0
   -4.3073    0.4054   -0.7048 C   0  0  0  0  0  0  0  0  0  0  0  0
   -3.1333    0.2647   -1.6974 C   0  0  0  0  0  0  0  0  0  0  0  0
   -2.0461    1.0751   -1.0722 C   0  0  0  0  0  0  0  0  0  0  0  0
   -2.2444    0.9377    0.3525 N   0  0  0  0  0  0  0  0  0  0  0  0
   -1.6019   -0.5200    0.9304 S   0  0  0  0  0  6  0  0  0  0  0  0
   -2.1871   -1.7203    0.2593 O   0  0  0  0  0  0  0  0  0  0  0  0
   -1.8187   -0.6919    2.4225 O   0  0  0  0  0  0  0  0  0  0  0  0
    0.1477   -0.5723    0.6304 C   0  0  0  0  0  0  0  0  0  0  0  0
    0.6405   -1.1139   -0.5359 C   0  0  0  0  0  0  0  0  0  0  0  0
    2.0059   -1.1683   -0.8003 C   0  0  0  0  0  0  0  0  0  0  0  0
    2.8906   -0.6658    0.1317 C   0  0  0  0  0  0  0  0  0  0  0  0
    2.4206   -0.1170    1.3103 C   0  0  0  0  0  0  0  0  0  0  0  0
    1.0543   -0.0785    1.5422 C   0  0  0  0  0  0  0  0  0  0  0  0
    3.5922    0.3191    2.0741 C   0  0  0  0  0  0  0  0  0  0  0  0
    3.5614    0.8688    3.2054 O   0  0  0  0  0  0  0  0  0  0  0  0
    4.7956    0.0117    1.3088 C   0  0  0  0  0  0  0  0  0  0  0  0
    6.0001    0.2271    1.6158 O   0  0  0  0  0  0  0  0  0  0  0  0
    4.3312   -0.5980    0.1097 N   0  0  0  0  0  0  0  0  0  0  0  0
    5.1991   -1.0704   -0.9567 C   0  0  0  0  0  0  0  0  0  0  0  0
    5.4098    0.0712   -1.9334 C   0  0  1  0  0  0  0  0  0  0  0  0
    6.6787    0.7773   -2.0002 C   0  0  0  0  0  0  0  0  0  0  0  0
    6.2063   -0.1339   -3.0427 O   0  0  0  0  0  0  0  0  0  0  0  0
   -6.4948    0.5165    0.4175 H   0  0  0  0  0  0  0  0  0  0  0  0
   -7.4043    0.2424    1.9369 H   0  0  0  0  0  0  0  0  0  0  0  0
   -6.2253   -0.9972    1.3032 H   0  0  0  0  0  0  0  0  0  0  0  0
   -3.9604   -0.6038    1.7440 H   0  0  0  0  0  0  0  0  0  0  0  0
   -3.5066    0.9089    2.6489 H   0  0  0  0  0  0  0  0  0  0  0  0
   -3.9211    2.1457    0.4456 H   0  0  0  0  0  0  0  0  0  0  0  0
   -5.0581    1.0532   -1.2373 H   0  0  0  0  0  0  0  0  0  0  0  0
   -4.7137   -0.5907   -0.5254 H   0  0  0  0  0  0  0  0  0  0  0  0
   -2.8466   -0.7922   -1.7750 H   0  0  0  0  0  0  0  0  0  0  0  0
   -3.3873    0.6802   -2.6860 H   0  0  0  0  0  0  0  0  0  0  0  0
   -2.1268    2.1550   -1.3809 H   0  0  0  0  0  0  0  0  0  0  0  0
   -1.0359    0.6722   -1.3352 H   0  0  0  0  0  0  0  0  0  0  0  0
   -0.0432   -1.5062   -1.2623 H   0  0  0  0  0  0  0  0  0  0  0  0
    2.4051   -1.5905   -1.7113 H   0  0  0  0  0  0  0  0  0  0  0  0
    0.7173    0.3504    2.4601 H   0  0  0  0  0  0  0  0  0  0  0  0
    6.1634   -1.4465   -0.5586 H   0  0  0  0  0  0  0  0  0  0  0  0
    4.7041   -1.9074   -1.4904 H   0  0  0  0  0  0  0  0  0  0  0  0
    4.4891    0.6802   -2.1208 H   0  0  0  0  0  0  0  0  0  0  0  0
    7.6227    0.4162   -1.5996 H   0  0  0  0  0  0  0  0  0  0  0  0
    6.7032    1.8412   -2.3222 H   0  0  0  0  0  0  0  0  0  0  0  0
  1  2  1  0
  2  3  1  0
  3  4  1  0
  4  5  1  0
  5  6  1  0
  6  7  1  0
  7  8  1  0
  8  9  1  0
  9 10  2  0
  9 11  2  0
  9 12  1  0
 12 13  2  0
 13 14  1  0
 14 15  2  0
 15 16  1  0
 16 17  2  0
 16 18  1  0
 18 19  2  0
 18 20  1  0
 20 21  2  0
 20 22  1  0
 22 23  1  0
 23 24  1  0
 24 25  1  0
 25 26  1  0
  8  4  1  0
 17 12  1  0
 26 24  1  0
 22 15  1  0
  1 27  1  0
  1 28  1  0
  1 29  1  0
  3 30  1  0
  3 31  1  0
  4 32  1  1
  5 33  1  0
  5 34  1  0
  6 35  1  0
  6 36  1  0
  7 37  1  0
  7 38  1  0
 13 39  1  0
 14 40  1  0
 17 41  1  0
 23 42  1  0
 23 43  1  0
 24 44  1  6
 25 45  1  0
 25 46  1  0
M  END
$$$$
