
     RDKit          3D

 22 23  0  0  0  0  0  0  0  0999 V2000
    4.8749   -1.0319    0.0672 O   0  0  0  0  0  0  0  0  0  0  0  0
    3.6473   -1.1322    0.6669 C   0  0  0  0  0  0  0  0  0  0  0  0
    3.6112   -1.6988    1.7896 O   0  0  0  0  0  0  0  0  0  0  0  0
    2.4167   -0.6231    0.0729 C   0  0  0  0  0  0  0  0  0  0  0  0
    1.1724   -0.7090    0.6500 C   0  0  0  0  0  0  0  0  0  0  0  0
    0.3083   -0.1269   -0.2074 N   0  0  0  0  0  0  0  0  0  0  0  0
    0.9956    0.2920   -1.2543 N   0  0  0  0  0  0  0  0  0  0  0  0
    2.3039    0.0168   -1.1445 C   0  0  0  0  0  0  0  0  0  0  0  0
   -1.1024    0.0964   -0.1817 C   0  0  0  0  0  0  0  0  0  0  0  0
   -1.4172    1.4585   -0.1049 C   0  0  0  0  0  0  0  0  0  0  0  0
   -2.7188    1.8982   -0.0686 C   0  0  0  0  0  0  0  0  0  0  0  0
   -3.7411    0.9550   -0.1098 C   0  0  0  0  0  0  0  0  0  0  0  0
   -3.4307   -0.3875   -0.1855 C   0  0  0  0  0  0  0  0  0  0  0  0
   -2.1230   -0.8255   -0.2218 C   0  0  0  0  0  0  0  0  0  0  0  0
    5.7090   -0.7800    0.5825 H   0  0  0  0  0  0  0  0  0  0  0  0
    0.8422   -1.1247    1.5734 H   0  0  0  0  0  0  0  0  0  0  0  0
    3.0902    0.2538   -1.8672 H   0  0  0  0  0  0  0  0  0  0  0  0
   -0.6912    2.2607   -0.0685 H   0  0  0  0  0  0  0  0  0  0  0  0
   -2.9948    2.9453   -0.0092 H   0  0  0  0  0  0  0  0  0  0  0  0
   -4.7775    1.2773   -0.0824 H   0  0  0  0  0  0  0  0  0  0  0  0
   -4.1997   -1.1657   -0.2202 H   0  0  0  0  0  0  0  0  0  0  0  0
   -1.7753   -1.8490   -0.2806 H   0  0  0  0  0  0  0  0  0  0  0  0
  1  2  1  0
  2  3  2  0
  2  4  1  0
  4  5  2  0
  5  6  1  0
  6  7  1  0
  7  8  2  0
  6  9  1  0
  9 10  2  0
 10 11  1  0
 11 12  2  0
 12 13  1  0
 13 14  2  0
  8  4  1  0
 14  9  1  0
  1 15  1  0
  5 16  1  0
  8 17  1  0
 10 18  1  0
 11 19  1  0
 12 20  1  0
 13 21  1  0
 14 22  1  0
M  END
$$$$
