
     RDKit          3D

 60 64  0  0  0  0  0  0  0  0999 V2000
   10.1709   -2.5358   -0.3796 C   0  0  0  0  0  0  0  0  0  0  0  0
    9.9031   -1.1996   -0.0738 O   0  0  0  0  0  0  0  0  0  0  0  0
    8.6303   -0.6633    0.0485 C   0  0  0  0  0  0  0  0  0  0  0  0
    7.4838   -1.3690   -0.1135 C   0  0  0  0  0  0  0  0  0  0  0  0
    6.2542   -0.7509    0.0275 C   0  0  0  0  0  0  0  0  0  0  0  0
    6.1469    0.5853    0.3333 C   0  0  0  0  0  0  0  0  0  0  0  0
    5.0557    1.4726    0.5320 C   0  0  0  0  0  0  0  0  0  0  0  0
    3.6990    0.9891    0.4544 C   0  0  0  0  0  0  0  0  0  0  0  0
    2.5744    1.5924    0.3105 C   0  0  0  0  0  0  0  0  0  0  0  0
    1.2365    0.9539    0.2539 C   0  0  0  0  0  0  0  0  0  0  0  0
    0.2375    1.7154    0.1081 O   0  0  0  0  0  0  0  0  0  0  0  0
    0.9978   -0.4206    0.3492 N   0  0  0  0  0  0  0  0  0  0  0  0
   -0.2540   -1.0883    0.3022 C   0  0  0  0  0  0  0  0  0  0  0  0
   -0.2377   -2.4820    0.4200 C   0  0  0  0  0  0  0  0  0  0  0  0
   -1.3785   -3.2352    0.3893 C   0  0  0  0  0  0  0  0  0  0  0  0
   -2.6267   -2.6189    0.2352 C   0  0  0  0  0  0  0  0  0  0  0  0
   -2.6680   -1.2515    0.1175 C   0  0  0  0  0  0  0  0  0  0  0  0
   -3.9196   -0.5338   -0.0453 C   0  0  0  0  0  0  0  0  0  0  0  0
   -5.0934   -1.1052   -0.0939 C   0  0  0  0  0  0  0  0  0  0  0  0
   -6.3555   -0.3942   -0.2571 C   0  0  0  0  0  0  0  0  0  0  0  0
   -6.3897    0.9604   -0.3732 C   0  0  0  0  0  0  0  0  0  0  0  0
   -7.6282    1.5753   -0.5263 C   0  0  0  0  0  0  0  0  0  0  0  0
   -8.7767    0.8313   -0.5585 C   0  0  0  0  0  0  0  0  0  0  0  0
  -10.0215    1.4497   -0.7125 C   0  0  0  0  0  0  0  0  0  0  0  0
  -11.1673    0.6778   -0.7421 C   0  0  0  0  0  0  0  0  0  0  0  0
  -11.0866   -0.7053   -0.6198 C   0  0  0  0  0  0  0  0  0  0  0  0
  -12.5065   -1.7287   -0.6509 Cl  0  0  0  0  0  0  0  0  0  0  0  0
   -9.8440   -1.2767   -0.4699 C   0  0  0  0  0  0  0  0  0  0  0  0
   -8.6959   -0.5354   -0.4376 C   0  0  0  0  0  0  0  0  0  0  0  0
   -7.4925   -1.1109   -0.2906 N   0  0  0  0  0  0  0  0  0  0  0  0
   -1.4736   -0.5222    0.1547 C   0  0  0  0  0  0  0  0  0  0  0  0
    5.6375    2.6662    0.8085 C   0  0  0  0  0  0  0  0  0  0  0  0
    5.0234    3.9140    1.1472 C   0  0  0  0  0  0  0  0  0  0  0  0
    5.8149    4.9176    1.3797 O   0  0  0  0  0  0  0  0  0  0  0  0
    3.7144    4.2711    1.2842 O   0  0  0  0  0  0  0  0  0  0  0  0
    7.0048    2.5543    0.7836 N   0  0  0  0  0  0  0  0  0  0  0  0
    7.3006    1.2900    0.4951 C   0  0  0  0  0  0  0  0  0  0  0  0
    8.5572    0.6881    0.3578 C   0  0  0  0  0  0  0  0  0  0  0  0
    9.4325   -3.1867    0.1486 H   0  0  0  0  0  0  0  0  0  0  0  0
   10.2080   -2.7709   -1.4427 H   0  0  0  0  0  0  0  0  0  0  0  0
   11.1848   -2.7801    0.0395 H   0  0  0  0  0  0  0  0  0  0  0  0
    7.5028   -2.4087   -0.3515 H   0  0  0  0  0  0  0  0  0  0  0  0
    5.3357   -1.3078   -0.1004 H   0  0  0  0  0  0  0  0  0  0  0  0
    3.5753   -0.1234    0.5517 H   0  0  0  0  0  0  0  0  0  0  0  0
    2.5733    2.6309    0.1690 H   0  0  0  0  0  0  0  0  0  0  0  0
    1.8829   -1.0097    0.4709 H   0  0  0  0  0  0  0  0  0  0  0  0
    0.7042   -2.9745    0.5386 H   0  0  0  0  0  0  0  0  0  0  0  0
   -1.4036   -4.3125    0.4773 H   0  0  0  0  0  0  0  0  0  0  0  0
   -3.5224   -3.2278    0.2125 H   0  0  0  0  0  0  0  0  0  0  0  0
   -3.9030    0.5658   -0.1359 H   0  0  0  0  0  0  0  0  0  0  0  0
   -5.1206   -2.2034   -0.0044 H   0  0  0  0  0  0  0  0  0  0  0  0
   -5.5462    1.6145   -0.3585 H   0  0  0  0  0  0  0  0  0  0  0  0
   -7.6944    2.6503   -0.6216 H   0  0  0  0  0  0  0  0  0  0  0  0
  -10.1011    2.5103   -0.8077 H   0  0  0  0  0  0  0  0  0  0  0  0
  -12.1487    1.0944   -0.8576 H   0  0  0  0  0  0  0  0  0  0  0  0
   -9.7806   -2.3460   -0.3753 H   0  0  0  0  0  0  0  0  0  0  0  0
   -1.5823    0.5417    0.0568 H   0  0  0  0  0  0  0  0  0  0  0  0
    3.4134    4.9004    2.0402 H   0  0  0  0  0  0  0  0  0  0  0  0
    7.7153    3.3087    0.9556 H   0  0  0  0  0  0  0  0  0  0  0  0
    9.4477    1.2573    0.4885 H   0  0  0  0  0  0  0  0  0  0  0  0
  1  2  1  0
  2  3  1  0
  3  4  2  0
  4  5  1  0
  5  6  2  0
  6  7  1  0
  7  8  1  0
  8  9  2  0
  9 10  1  0
 10 11  2  0
 10 12  1  0
 12 13  1  0
 13 14  2  0
 14 15  1  0
 15 16  2  0
 16 17  1  0
 17 18  1  0
 18 19  2  0
 19 20  1  0
 20 21  2  0
 21 22  1  0
 22 23  2  0
 23 24  1  0
 24 25  2  0
 25 26  1  0
 26 27  1  0
 26 28  2  0
 28 29  1  0
 29 30  2  0
 17 31  2  0
  7 32  2  0
 32 33  1  0
 33 34  2  0
 33 35  1  0
 32 36  1  0
 36 37  1  0
 37 38  2  0
 38  3  1  0
 37  6  1  0
 31 13  1  0
 30 20  1  0
 29 23  1  0
  1 39  1  0
  1 40  1  0
  1 41  1  0
  4 42  1  0
  5 43  1  0
  8 44  1  0
  9 45  1  0
 12 46  1  0
 14 47  1  0
 15 48  1  0
 16 49  1  0
 18 50  1  0
 19 51  1  0
 21 52  1  0
 22 53  1  0
 24 54  1  0
 25 55  1  0
 28 56  1  0
 31 57  1  0
 35 58  1  0
 36 59  1  0
 38 60  1  0
M  END
$$$$
