
     RDKit          3D

 36 38  0  0  0  0  0  0  0  0999 V2000
    0.3489   -1.2133    1.1699 C   0  0  2  0  0  0  0  0  0  0  0  0
   -0.3256   -0.0120    1.7961 C   0  0  0  0  0  0  0  0  0  0  0  0
   -0.9729    0.8619    0.8092 C   0  0  0  0  0  0  0  0  0  0  0  0
   -0.8281    0.9242   -0.5757 C   0  0  0  0  0  0  0  0  0  0  0  0
   -1.5321    1.8215   -1.3185 C   0  0  0  0  0  0  0  0  0  0  0  0
   -2.4042    2.6856   -0.6982 C   0  0  0  0  0  0  0  0  0  0  0  0
   -2.5503    2.6280    0.6662 C   0  0  0  0  0  0  0  0  0  0  0  0
   -3.3620    3.4445    1.1685 O   0  0  0  0  0  0  0  0  0  0  0  0
   -1.8504    1.7404    1.3770 N   0  0  0  0  0  0  0  0  0  0  0  0
    0.1682   -0.0993   -1.0588 C   0  0  1  0  0  0  0  0  0  0  0  0
   -0.0213   -0.3965   -2.4624 N   0  0  0  0  0  0  0  0  0  0  0  0
    1.5219    0.4952   -0.8615 C   0  0  0  0  0  0  0  0  0  0  0  0
    2.2402    0.0731    0.3436 C   0  0  0  0  0  0  0  0  0  0  0  0
    3.5066    0.8324    0.6303 C   0  0  0  0  0  0  0  0  0  0  0  0
    1.8184   -0.8930    1.1198 C   0  0  0  0  0  0  0  0  0  0  0  0
   -0.0881   -1.2996   -0.2279 C   0  0  0  0  0  0  0  0  0  0  0  0
   -0.6711   -2.3308   -0.7769 C   0  0  0  0  0  0  0  0  0  0  0  0
   -1.0054   -3.5983   -0.1211 C   0  0  0  0  0  0  0  0  0  0  0  0
    0.2479   -2.1231    1.7673 H   0  0  0  0  0  0  0  0  0  0  0  0
    0.3818    0.5607    2.4309 H   0  0  0  0  0  0  0  0  0  0  0  0
   -1.1035   -0.4068    2.4915 H   0  0  0  0  0  0  0  0  0  0  0  0
   -1.3207    1.7596   -2.3883 H   0  0  0  0  0  0  0  0  0  0  0  0
   -2.9234    3.3673   -1.3706 H   0  0  0  0  0  0  0  0  0  0  0  0
   -2.0536    1.7988    2.4121 H   0  0  0  0  0  0  0  0  0  0  0  0
    0.4931    0.3197   -3.0237 H   0  0  0  0  0  0  0  0  0  0  0  0
   -1.0044   -0.3738   -2.7544 H   0  0  0  0  0  0  0  0  0  0  0  0
    1.4622    1.6225   -0.8238 H   0  0  0  0  0  0  0  0  0  0  0  0
    2.1770    0.3143   -1.7625 H   0  0  0  0  0  0  0  0  0  0  0  0
    3.8366    0.7373    1.6736 H   0  0  0  0  0  0  0  0  0  0  0  0
    4.3165    0.4821   -0.0629 H   0  0  0  0  0  0  0  0  0  0  0  0
    3.3360    1.9246    0.4563 H   0  0  0  0  0  0  0  0  0  0  0  0
    2.5634   -1.4413    1.7137 H   0  0  0  0  0  0  0  0  0  0  0  0
   -0.9585   -2.3084   -1.8099 H   0  0  0  0  0  0  0  0  0  0  0  0
   -2.1247   -3.7447   -0.1590 H   0  0  0  0  0  0  0  0  0  0  0  0
   -0.5816   -4.4542   -0.6946 H   0  0  0  0  0  0  0  0  0  0  0  0
   -0.7370   -3.6987    0.9246 H   0  0  0  0  0  0  0  0  0  0  0  0
  1  2  1  0
  2  3  1  0
  3  4  2  0
  4  5  1  0
  5  6  2  0
  6  7  1  0
  7  8  2  0
  7  9  1  0
  4 10  1  0
 10 11  1  6
 10 12  1  0
 12 13  1  0
 13 14  1  0
 13 15  2  0
 10 16  1  0
 16 17  2  0
 17 18  1  0
 15  1  1  0
 16  1  1  0
  9  3  1  0
  1 19  1  1
  2 20  1  0
  2 21  1  0
  5 22  1  0
  6 23  1  0
  9 24  1  0
 11 25  1  0
 11 26  1  0
 12 27  1  0
 12 28  1  0
 14 29  1  0
 14 30  1  0
 14 31  1  0
 15 32  1  0
 17 33  1  0
 18 34  1  0
 18 35  1  0
 18 36  1  0
M  END
$$$$
