
     RDKit          3D

 51 54  0  0  0  0  0  0  0  0999 V2000
   -6.4501   -1.7481    1.7991 C   0  0  0  0  0  0  0  0  0  0  0  0
   -5.3722   -1.4148    0.7967 C   0  0  0  0  0  0  0  0  0  0  0  0
   -4.8770    0.0055    1.0865 C   0  0  0  0  0  0  0  0  0  0  0  0
   -5.9921    0.9873    0.9655 C   0  0  0  0  0  0  0  0  0  0  0  0
   -6.2810    1.4802   -0.4089 C   0  0  0  0  0  0  0  0  0  0  0  0
   -5.3385    1.0256   -1.4721 C   0  0  0  0  0  0  0  0  0  0  0  0
   -3.9218    0.8480   -1.0484 C   0  0  0  0  0  0  0  0  0  0  0  0
   -3.7338    0.2751    0.2482 N   0  0  0  0  0  0  0  0  0  0  0  0
   -2.4273   -0.0277    0.7132 C   0  0  0  0  0  0  0  0  0  0  0  0
   -2.2914   -0.5314    1.8565 O   0  0  0  0  0  0  0  0  0  0  0  0
   -1.2749    0.2248   -0.0815 N   0  0  0  0  0  0  0  0  0  0  0  0
    0.0059   -0.0354    0.2889 C   0  0  0  0  0  0  0  0  0  0  0  0
    0.8609    0.3352   -0.7244 C   0  0  0  0  0  0  0  0  0  0  0  0
    2.3119    0.2029   -0.6806 C   0  0  0  0  0  0  0  0  0  0  0  0
    3.1006    0.6030   -1.7500 C   0  0  0  0  0  0  0  0  0  0  0  0
    4.4736    0.4790   -1.7110 C   0  0  0  0  0  0  0  0  0  0  0  0
    5.1280   -0.0452   -0.6151 C   0  0  0  0  0  0  0  0  0  0  0  0
    6.5841   -0.1698   -0.5887 C   0  0  0  0  0  0  0  0  0  0  0  0
    7.1348   -1.2035    0.1259 C   0  0  0  0  0  0  0  0  0  0  0  0
    8.4798   -1.4112    0.2166 C   0  0  0  0  0  0  0  0  0  0  0  0
    9.3129   -0.5345   -0.4450 C   0  0  0  0  0  0  0  0  0  0  0  0
    8.7754    0.5156   -1.1719 C   0  0  0  0  0  0  0  0  0  0  0  0
    7.4154    0.7005   -1.2457 C   0  0  0  0  0  0  0  0  0  0  0  0
    4.3425   -0.4435    0.4493 C   0  0  0  0  0  0  0  0  0  0  0  0
    2.9668   -0.3211    0.4144 C   0  0  0  0  0  0  0  0  0  0  0  0
    0.0711    0.8162   -1.6948 N   0  0  0  0  0  0  0  0  0  0  0  0
   -1.2102    0.7439   -1.2952 N   0  0  0  0  0  0  0  0  0  0  0  0
   -6.3991   -1.0487    2.6498 H   0  0  0  0  0  0  0  0  0  0  0  0
   -7.4358   -1.7082    1.3054 H   0  0  0  0  0  0  0  0  0  0  0  0
   -6.3108   -2.7664    2.2218 H   0  0  0  0  0  0  0  0  0  0  0  0
   -4.5357   -2.1316    0.9149 H   0  0  0  0  0  0  0  0  0  0  0  0
   -5.7468   -1.4507   -0.2408 H   0  0  0  0  0  0  0  0  0  0  0  0
   -4.5436    0.0510    2.1710 H   0  0  0  0  0  0  0  0  0  0  0  0
   -5.8203    1.8865    1.6300 H   0  0  0  0  0  0  0  0  0  0  0  0
   -6.8956    0.5025    1.4249 H   0  0  0  0  0  0  0  0  0  0  0  0
   -6.3639    2.6060   -0.4226 H   0  0  0  0  0  0  0  0  0  0  0  0
   -7.2981    1.0830   -0.7065 H   0  0  0  0  0  0  0  0  0  0  0  0
   -5.3409    1.8354   -2.2641 H   0  0  0  0  0  0  0  0  0  0  0  0
   -5.7365    0.1320   -2.0245 H   0  0  0  0  0  0  0  0  0  0  0  0
   -3.4530    0.1471   -1.7820 H   0  0  0  0  0  0  0  0  0  0  0  0
   -3.3293    1.8066   -1.1306 H   0  0  0  0  0  0  0  0  0  0  0  0
    0.2888   -0.4660    1.2348 H   0  0  0  0  0  0  0  0  0  0  0  0
    2.5693    1.0125   -2.6027 H   0  0  0  0  0  0  0  0  0  0  0  0
    5.0754    0.7981   -2.5592 H   0  0  0  0  0  0  0  0  0  0  0  0
    6.4815   -1.9016    0.6525 H   0  0  0  0  0  0  0  0  0  0  0  0
    8.9146   -2.2333    0.7850 H   0  0  0  0  0  0  0  0  0  0  0  0
   10.3763   -0.6938   -0.3768 H   0  0  0  0  0  0  0  0  0  0  0  0
    9.4825    1.1613   -1.6633 H   0  0  0  0  0  0  0  0  0  0  0  0
    6.9991    1.5223   -1.8148 H   0  0  0  0  0  0  0  0  0  0  0  0
    4.8554   -0.8606    1.3227 H   0  0  0  0  0  0  0  0  0  0  0  0
    2.3733   -0.6401    1.2608 H   0  0  0  0  0  0  0  0  0  0  0  0
  1  2  1  0
  2  3  1  0
  3  4  1  0
  4  5  1  0
  5  6  1  0
  6  7  1  0
  7  8  1  0
  8  9  1  0
  9 10  2  0
  9 11  1  0
 11 12  1  0
 12 13  2  0
 13 14  1  0
 14 15  2  0
 15 16  1  0
 16 17  2  0
 17 18  1  0
 18 19  2  0
 19 20  1  0
 20 21  2  0
 21 22  1  0
 22 23  2  0
 17 24  1  0
 24 25  2  0
 13 26  1  0
 26 27  2  0
  8  3  1  0
 27 11  1  0
 25 14  1  0
 23 18  1  0
  1 28  1  0
  1 29  1  0
  1 30  1  0
  2 31  1  0
  2 32  1  0
  3 33  1  0
  4 34  1  0
  4 35  1  0
  5 36  1  0
  5 37  1  0
  6 38  1  0
  6 39  1  0
  7 40  1  0
  7 41  1  0
 12 42  1  0
 15 43  1  0
 16 44  1  0
 19 45  1  0
 20 46  1  0
 21 47  1  0
 22 48  1  0
 23 49  1  0
 24 50  1  0
 25 51  1  0
M  END
$$$$
