
     RDKit          3D

 76 81  0  0  0  0  0  0  0  0999 V2000
    4.4369   -5.3039   -1.4759 C   0  0  0  0  0  0  0  0  0  0  0  0
    3.5537   -4.5643   -0.5279 C   0  0  0  0  0  0  0  0  0  0  0  0
    2.9308   -5.1586    0.3827 O   0  0  0  0  0  0  0  0  0  0  0  0
    3.4459   -3.2055   -0.6875 O   0  0  0  0  0  0  0  0  0  0  0  0
    2.5809   -2.4490    0.2340 C   0  0  0  0  0  0  0  0  0  0  0  0
    1.5783   -1.8647   -0.6447 C   0  0  0  0  0  0  0  0  0  0  0  0
    1.6856   -1.9569   -1.9179 O   0  0  0  0  0  0  0  0  0  0  0  0
    0.4585   -1.1876   -0.1911 O   0  0  0  0  0  0  0  0  0  0  0  0
   -0.4198   -0.6892   -1.1999 C   0  0  0  0  0  0  0  0  0  0  0  0
   -1.6066    0.0740   -0.7164 C   0  0  0  0  0  0  0  0  0  0  0  0
   -1.5869    0.3118    0.7697 C   0  0  0  0  0  0  0  0  0  0  0  0
   -1.5094   -0.9228    1.6120 C   0  0  0  0  0  0  0  0  0  0  0  0
   -2.3753   -2.0451    1.1389 C   0  0  0  0  0  0  0  0  0  0  0  0
   -2.9732   -2.9453    2.2333 C   0  0  0  0  0  0  0  0  0  0  0  0
   -1.9648   -2.8280    0.0350 O   0  0  0  0  0  0  0  0  0  0  0  0
   -3.0191   -1.9264   -0.0630 C   0  0  0  0  0  0  0  0  0  0  0  0
   -2.8982   -0.7274   -0.9514 C   0  0  0  0  0  0  0  0  0  0  0  0
   -3.9330    0.1304   -0.5876 O   0  0  0  0  0  0  0  0  0  0  0  0
   -4.0665    1.1987   -1.4598 C   0  0  0  0  0  0  0  0  0  0  0  0
   -3.6361    2.4663   -0.7090 C   0  0  0  0  0  0  0  0  0  0  0  0
   -2.1528    2.5641   -0.9321 C   0  0  0  0  0  0  0  0  0  0  0  0
   -1.4151    2.9955    0.1809 O   0  0  0  0  0  0  0  0  0  0  0  0
   -1.8229    3.9565    1.0639 C   0  0  0  0  0  0  0  0  0  0  0  0
   -3.0016    4.4414    0.6994 O   0  0  0  0  0  0  0  0  0  0  0  0
   -1.2667    4.5081    2.2569 C   0  0  0  0  0  0  0  0  0  0  0  0
   -0.1915    4.4174    2.9597 C   0  0  0  0  0  0  0  0  0  0  0  0
    1.0859    3.8107    3.0741 C   0  0  0  0  0  0  0  0  0  0  0  0
    1.9276    3.0213    2.4963 C   0  0  0  0  0  0  0  0  0  0  0  0
    2.0891    2.2489    1.2966 C   0  0  0  0  0  0  0  0  0  0  0  0
    1.3098    2.3211    0.3331 O   0  0  0  0  0  0  0  0  0  0  0  0
    3.1045    1.3093    1.0060 O   0  0  0  0  0  0  0  0  0  0  0  0
    3.2026    0.6188   -0.2523 C   0  0  0  0  0  0  0  0  0  0  0  0
    4.1623   -0.5318   -0.0063 C   0  0  0  0  0  0  0  0  0  0  0  0
    3.5488   -1.5491    0.9275 C   0  0  0  0  0  0  0  0  0  0  0  0
    4.6192   -2.2829    1.6689 C   0  0  0  0  0  0  0  0  0  0  0  0
   -1.7507    1.2849   -1.5594 C   0  0  0  0  0  0  0  0  0  0  0  0
   -0.6274    1.5921   -2.5232 C   0  0  0  0  0  0  0  0  0  0  0  0
   -2.9908    1.1293   -2.4780 C   0  0  0  0  0  0  0  0  0  0  0  0
   -3.1812    1.8791   -3.6814 C   0  0  0  0  0  0  0  0  0  0  0  0
   -2.9698    0.4520   -3.6253 O   0  0  0  0  0  0  0  0  0  0  0  0
    5.4991   -5.0870   -1.1802 H   0  0  0  0  0  0  0  0  0  0  0  0
    4.2734   -6.4035   -1.3837 H   0  0  0  0  0  0  0  0  0  0  0  0
    4.2672   -4.9350   -2.4991 H   0  0  0  0  0  0  0  0  0  0  0  0
    2.1561   -3.2133    0.9330 H   0  0  0  0  0  0  0  0  0  0  0  0
   -0.7287   -1.5842   -1.8027 H   0  0  0  0  0  0  0  0  0  0  0  0
    0.2382   -0.0216   -1.7769 H   0  0  0  0  0  0  0  0  0  0  0  0
   -0.7811    0.9648    1.1168 H   0  0  0  0  0  0  0  0  0  0  0  0
   -2.6070    0.7347    1.0026 H   0  0  0  0  0  0  0  0  0  0  0  0
   -0.4800   -1.2235    1.9070 H   0  0  0  0  0  0  0  0  0  0  0  0
   -1.9412   -0.6343    2.6264 H   0  0  0  0  0  0  0  0  0  0  0  0
   -3.6357   -2.3607    2.8939 H   0  0  0  0  0  0  0  0  0  0  0  0
   -2.1935   -3.4887    2.7708 H   0  0  0  0  0  0  0  0  0  0  0  0
   -3.6226   -3.7124    1.7431 H   0  0  0  0  0  0  0  0  0  0  0  0
   -3.9905   -2.4715   -0.2722 H   0  0  0  0  0  0  0  0  0  0  0  0
   -2.9680   -1.1211   -1.9801 H   0  0  0  0  0  0  0  0  0  0  0  0
   -5.0841    1.2915   -1.8507 H   0  0  0  0  0  0  0  0  0  0  0  0
   -4.2071    3.2897   -1.2359 H   0  0  0  0  0  0  0  0  0  0  0  0
   -3.9925    2.4752    0.3092 H   0  0  0  0  0  0  0  0  0  0  0  0
   -2.0135    3.3703   -1.7035 H   0  0  0  0  0  0  0  0  0  0  0  0
   -2.0638    5.2807    2.7141 H   0  0  0  0  0  0  0  0  0  0  0  0
   -0.3432    5.1521    3.8993 H   0  0  0  0  0  0  0  0  0  0  0  0
    1.6271    4.1424    4.1236 H   0  0  0  0  0  0  0  0  0  0  0  0
    2.8730    2.9499    3.2164 H   0  0  0  0  0  0  0  0  0  0  0  0
    2.3235    0.4564   -0.7888 H   0  0  0  0  0  0  0  0  0  0  0  0
    3.8337    1.3325   -0.8960 H   0  0  0  0  0  0  0  0  0  0  0  0
    5.1072   -0.1158    0.3560 H   0  0  0  0  0  0  0  0  0  0  0  0
    4.3157   -1.0220   -0.9844 H   0  0  0  0  0  0  0  0  0  0  0  0
    2.9581   -0.9728    1.6989 H   0  0  0  0  0  0  0  0  0  0  0  0
    5.5306   -1.6667    1.8198 H   0  0  0  0  0  0  0  0  0  0  0  0
    4.9221   -3.2338    1.1493 H   0  0  0  0  0  0  0  0  0  0  0  0
    4.2974   -2.6123    2.6893 H   0  0  0  0  0  0  0  0  0  0  0  0
   -0.5452    0.8907   -3.3687 H   0  0  0  0  0  0  0  0  0  0  0  0
   -0.9863    2.5490   -3.0370 H   0  0  0  0  0  0  0  0  0  0  0  0
    0.3134    1.9217   -2.0685 H   0  0  0  0  0  0  0  0  0  0  0  0
   -2.4698    2.3250   -4.3664 H   0  0  0  0  0  0  0  0  0  0  0  0
   -4.2429    2.1602   -3.9539 H   0  0  0  0  0  0  0  0  0  0  0  0
  1  2  1  0
  2  3  2  0
  2  4  1  0
  4  5  1  0
  5  6  1  0
  6  7  2  0
  6  8  1  0
  8  9  1  0
  9 10  1  0
 10 11  1  0
 11 12  1  0
 12 13  1  0
 13 14  1  0
 13 15  1  0
 15 16  1  0
 16 17  1  0
 17 18  1  0
 18 19  1  0
 19 20  1  0
 20 21  1  0
 21 22  1  0
 22 23  1  0
 23 24  2  0
 23 25  1  0
 25 26  2  0
 26 27  1  0
 27 28  2  0
 28 29  1  0
 29 30  2  0
 29 31  1  0
 31 32  1  0
 32 33  1  0
 33 34  1  0
 34 35  1  0
 21 36  1  0
 36 37  1  0
 36 38  1  0
 38 39  1  0
 39 40  1  0
 34  5  1  0
 40 38  1  0
 17 10  1  0
 38 19  1  0
 36 10  1  0
 16 13  1  0
  1 41  1  0
  1 42  1  0
  1 43  1  0
  5 44  1  0
  9 45  1  0
  9 46  1  0
 11 47  1  0
 11 48  1  0
 12 49  1  0
 12 50  1  0
 14 51  1  0
 14 52  1  0
 14 53  1  0
 16 54  1  0
 17 55  1  0
 19 56  1  0
 20 57  1  0
 20 58  1  0
 21 59  1  0
 25 60  1  0
 26 61  1  0
 27 62  1  0
 28 63  1  0
 32 64  1  0
 32 65  1  0
 33 66  1  0
 33 67  1  0
 34 68  1  0
 35 69  1  0
 35 70  1  0
 35 71  1  0
 37 72  1  0
 37 73  1  0
 37 74  1  0
 39 75  1  0
 39 76  1  0
M  END
$$$$
