
     RDKit          3D

 51 54  0  0  0  0  0  0  0  0999 V2000
   10.6624    1.0206   -3.2884 C   0  0  0  0  0  0  0  0  0  0  0  0
    9.3104    0.5840   -2.7768 C   0  0  0  0  0  0  0  0  0  0  0  0
    8.2726    0.2492   -2.4009 C   0  0  0  0  0  0  0  0  0  0  0  0
    6.9486   -0.1968   -1.8994 C   0  0  0  0  0  0  0  0  0  0  0  0
    6.3165    0.7633   -1.1081 O   0  0  0  0  0  0  0  0  0  0  0  0
    4.9809    0.5238   -0.7093 C   0  0  0  0  0  0  0  0  0  0  0  0
    4.3188   -0.6543   -1.1053 C   0  0  0  0  0  0  0  0  0  0  0  0
    3.0470   -0.9189   -0.7549 C   0  0  0  0  0  0  0  0  0  0  0  0
    2.3098    0.0894    0.0948 C   0  0  0  0  0  0  0  0  0  0  0  0
    1.0085   -0.3667    0.4818 C   0  0  0  0  0  0  0  0  0  0  0  0
    0.3350   -1.1048   -0.3735 O   0  0  0  0  0  0  0  0  0  0  0  0
    0.3432   -0.1314    1.6999 N   0  0  0  0  0  0  0  0  0  0  0  0
   -0.9670   -0.6946    1.7396 C   0  0  0  0  0  0  0  0  0  0  0  0
   -1.2247   -1.9697    2.0644 C   0  0  0  0  0  0  0  0  0  0  0  0
   -2.5235   -2.5121    1.9774 C   0  0  0  0  0  0  0  0  0  0  0  0
   -3.5146   -1.6813    1.5494 C   0  0  0  0  0  0  0  0  0  0  0  0
   -4.7798   -2.1520    1.4458 F   0  0  0  0  0  0  0  0  0  0  0  0
   -3.2876   -0.3601    1.2055 C   0  0  0  0  0  0  0  0  0  0  0  0
   -4.3991    0.5415    0.6812 C   0  0  1  0  0  0  0  0  0  0  0  0
   -3.7560    1.9155    0.4524 C   0  0  0  0  0  0  0  0  0  0  0  0
   -4.7113    2.7937   -0.0111 F   0  0  0  0  0  0  0  0  0  0  0  0
   -4.8809    0.0001   -0.5425 N   0  0  0  0  0  0  0  0  0  0  0  0
   -6.0520   -0.5306   -0.7596 C   0  0  0  0  0  0  0  0  0  0  0  0
   -6.2360   -0.9936   -2.1393 N   0  0  0  0  0  0  0  0  0  0  0  0
   -6.9653   -0.6100    0.2044 O   0  0  0  0  0  0  0  0  0  0  0  0
   -6.7314   -0.0788    1.4885 C   0  0  2  0  0  0  0  0  0  0  0  0
   -6.6770    1.3945    1.5787 C   0  0  0  0  0  0  0  0  0  0  0  0
   -5.4594    0.6119    1.7420 C   0  0  2  0  0  0  0  0  0  0  0  0
   -2.0133    0.1266    1.3042 C   0  0  0  0  0  0  0  0  0  0  0  0
    3.0247    1.0683    0.3583 N   0  0  0  0  0  0  0  0  0  0  0  0
    4.2751    1.4345    0.0711 C   0  0  0  0  0  0  0  0  0  0  0  0
   10.5944    1.3842   -4.3522 H   0  0  0  0  0  0  0  0  0  0  0  0
   11.0137    1.8544   -2.6673 H   0  0  0  0  0  0  0  0  0  0  0  0
   11.2931    0.0958   -3.2054 H   0  0  0  0  0  0  0  0  0  0  0  0
    6.2826   -0.3049   -2.8370 H   0  0  0  0  0  0  0  0  0  0  0  0
    7.0327   -1.2007   -1.5210 H   0  0  0  0  0  0  0  0  0  0  0  0
    4.9558   -1.3641   -1.6525 H   0  0  0  0  0  0  0  0  0  0  0  0
    2.4600   -1.7403   -1.0058 H   0  0  0  0  0  0  0  0  0  0  0  0
    0.7469    0.3659    2.4915 H   0  0  0  0  0  0  0  0  0  0  0  0
   -0.4238   -2.6473    2.4013 H   0  0  0  0  0  0  0  0  0  0  0  0
   -2.6786   -3.5563    2.2362 H   0  0  0  0  0  0  0  0  0  0  0  0
   -2.9333    1.8509   -0.2977 H   0  0  0  0  0  0  0  0  0  0  0  0
   -3.3613    2.2522    1.4142 H   0  0  0  0  0  0  0  0  0  0  0  0
   -7.1952   -1.0620   -2.5321 H   0  0  0  0  0  0  0  0  0  0  0  0
   -5.4522   -1.2559   -2.7264 H   0  0  0  0  0  0  0  0  0  0  0  0
   -7.1472   -0.6901    2.3296 H   0  0  0  0  0  0  0  0  0  0  0  0
   -6.9934    1.9097    0.6448 H   0  0  0  0  0  0  0  0  0  0  0  0
   -7.1245    1.8862    2.4523 H   0  0  0  0  0  0  0  0  0  0  0  0
   -5.0775    0.5855    2.8154 H   0  0  0  0  0  0  0  0  0  0  0  0
   -1.7563    1.1575    1.0859 H   0  0  0  0  0  0  0  0  0  0  0  0
    4.7898    2.3183    0.3545 H   0  0  0  0  0  0  0  0  0  0  0  0
  1  2  1  0
  2  3  3  0
  3  4  1  0
  4  5  1  0
  5  6  1  0
  6  7  2  0
  7  8  1  0
  8  9  2  0
  9 10  1  0
 10 11  2  0
 10 12  1  0
 12 13  1  0
 13 14  2  0
 14 15  1  0
 15 16  2  0
 16 17  1  0
 16 18  1  0
 18 19  1  0
 19 20  1  6
 20 21  1  0
 19 22  1  0
 22 23  2  0
 23 24  1  0
 23 25  1  0
 25 26  1  0
 26 27  1  0
 27 28  1  0
 18 29  2  0
  9 30  1  0
 30 31  2  0
 31  6  1  0
 29 13  1  0
 28 19  1  0
 28 26  1  0
  1 32  1  0
  1 33  1  0
  1 34  1  0
  4 35  1  0
  4 36  1  0
  7 37  1  0
  8 38  1  0
 12 39  1  0
 14 40  1  0
 15 41  1  0
 20 42  1  0
 20 43  1  0
 24 44  1  0
 24 45  1  0
 26 46  1  1
 27 47  1  0
 27 48  1  0
 28 49  1  1
 29 50  1  0
 31 51  1  0
M  END
$$$$
