
     RDKit          3D

 54 56  0  0  0  0  0  0  0  0999 V2000
   -5.0551    0.8457    1.4245 C   0  0  0  0  0  0  0  0  0  0  0  0
   -4.0054   -0.2098    1.1424 C   0  0  0  0  0  0  0  0  0  0  0  0
   -2.9705    0.3797    0.3183 N   0  0  0  0  0  0  0  0  0  0  0  0
   -3.5723    0.6589   -0.9740 C   0  0  0  0  0  0  0  0  0  0  0  0
   -2.6419    1.2954   -1.9549 C   0  0  0  0  0  0  0  0  0  0  0  0
   -1.8330   -0.5128    0.1710 C   0  0  0  0  0  0  0  0  0  0  0  0
   -1.0505   -0.6925    1.4501 C   0  0  0  0  0  0  0  0  0  0  0  0
    0.1117   -1.5862    1.3720 C   0  0  0  0  0  0  0  0  0  0  0  0
    1.1689   -1.2878    0.4243 N   0  0  0  0  0  0  0  0  0  0  0  0
    1.9980   -0.1794    0.8005 C   0  0  0  0  0  0  0  0  0  0  0  0
    1.2764    1.1082    1.1091 C   0  0  0  0  0  0  0  0  0  0  0  0
    2.3580    2.1685    1.0639 C   0  0  0  0  0  0  0  0  0  0  0  0
    2.4938    3.4303    1.6327 C   0  0  0  0  0  0  0  0  0  0  0  0
    3.6442    4.1807    1.4210 C   0  0  0  0  0  0  0  0  0  0  0  0
    4.6353    3.6359    0.6369 C   0  0  0  0  0  0  0  0  0  0  0  0
    4.5118    2.4019    0.0755 C   0  0  0  0  0  0  0  0  0  0  0  0
    3.3637    1.6630    0.2904 C   0  0  0  0  0  0  0  0  0  0  0  0
    2.9915    0.2867   -0.2344 C   0  0  0  0  0  0  0  0  0  0  0  0
    1.1651   -2.1654   -0.7216 C   0  0  0  0  0  0  0  0  0  0  0  0
    2.0482   -2.2140   -1.7416 C   0  0  0  0  0  0  0  0  0  0  0  0
    2.0286   -3.0158   -2.8523 C   0  0  0  0  0  0  0  0  0  0  0  0
    0.9807   -3.9069   -2.9804 C   0  0  0  0  0  0  0  0  0  0  0  0
    0.0287   -3.9287   -1.9836 C   0  0  0  0  0  0  0  0  0  0  0  0
    0.1519   -3.0762   -0.9128 C   0  0  0  0  0  0  0  0  0  0  0  0
   -4.6419    1.8525    1.5380 H   0  0  0  0  0  0  0  0  0  0  0  0
   -5.5688    0.5940    2.3879 H   0  0  0  0  0  0  0  0  0  0  0  0
   -5.8852    0.7901    0.6591 H   0  0  0  0  0  0  0  0  0  0  0  0
   -4.5234   -1.0031    0.5752 H   0  0  0  0  0  0  0  0  0  0  0  0
   -3.6442   -0.5356    2.1375 H   0  0  0  0  0  0  0  0  0  0  0  0
   -4.4048    1.3656   -0.7789 H   0  0  0  0  0  0  0  0  0  0  0  0
   -3.9371   -0.3258   -1.3525 H   0  0  0  0  0  0  0  0  0  0  0  0
   -2.0924    0.5045   -2.5102 H   0  0  0  0  0  0  0  0  0  0  0  0
   -3.2956    1.8022   -2.7245 H   0  0  0  0  0  0  0  0  0  0  0  0
   -1.9759    2.0487   -1.5160 H   0  0  0  0  0  0  0  0  0  0  0  0
   -2.1978   -1.5131   -0.1508 H   0  0  0  0  0  0  0  0  0  0  0  0
   -1.1523   -0.1463   -0.6182 H   0  0  0  0  0  0  0  0  0  0  0  0
   -0.9934    0.2546    1.9618 H   0  0  0  0  0  0  0  0  0  0  0  0
   -1.7934   -1.2858    2.1160 H   0  0  0  0  0  0  0  0  0  0  0  0
   -0.1865   -2.6385    1.4238 H   0  0  0  0  0  0  0  0  0  0  0  0
    0.6234   -1.4647    2.4209 H   0  0  0  0  0  0  0  0  0  0  0  0
    2.6160   -0.4461    1.7163 H   0  0  0  0  0  0  0  0  0  0  0  0
    0.4452    1.3588    0.4721 H   0  0  0  0  0  0  0  0  0  0  0  0
    1.0353    1.0847    2.2213 H   0  0  0  0  0  0  0  0  0  0  0  0
    1.6546    3.7591    2.2302 H   0  0  0  0  0  0  0  0  0  0  0  0
    3.6564    5.1557    1.9057 H   0  0  0  0  0  0  0  0  0  0  0  0
    5.5153    4.2832    0.5117 H   0  0  0  0  0  0  0  0  0  0  0  0
    5.3439    2.0719   -0.5175 H   0  0  0  0  0  0  0  0  0  0  0  0
    2.5358    0.5266   -1.2181 H   0  0  0  0  0  0  0  0  0  0  0  0
    3.9131   -0.3079   -0.2520 H   0  0  0  0  0  0  0  0  0  0  0  0
    2.9104   -1.5992   -1.7704 H   0  0  0  0  0  0  0  0  0  0  0  0
    2.7540   -3.0204   -3.6397 H   0  0  0  0  0  0  0  0  0  0  0  0
    0.9136   -4.5606   -3.8315 H   0  0  0  0  0  0  0  0  0  0  0  0
   -0.7715   -4.6387   -2.1252 H   0  0  0  0  0  0  0  0  0  0  0  0
   -0.6811   -3.2461   -0.2490 H   0  0  0  0  0  0  0  0  0  0  0  0
  1  2  1  0
  2  3  1  0
  3  4  1  0
  4  5  1  0
  3  6  1  0
  6  7  1  0
  7  8  1  0
  8  9  1  0
  9 10  1  0
 10 11  1  0
 11 12  1  0
 12 13  2  0
 13 14  1  0
 14 15  2  0
 15 16  1  0
 16 17  2  0
 17 18  1  0
  9 19  1  0
 19 20  2  0
 20 21  1  0
 21 22  2  0
 22 23  1  0
 23 24  2  0
 18 10  1  0
 24 19  1  0
 17 12  1  0
  1 25  1  0
  1 26  1  0
  1 27  1  0
  2 28  1  0
  2 29  1  0
  4 30  1  0
  4 31  1  0
  5 32  1  0
  5 33  1  0
  5 34  1  0
  6 35  1  0
  6 36  1  0
  7 37  1  0
  7 38  1  0
  8 39  1  0
  8 40  1  0
 10 41  1  0
 11 42  1  0
 11 43  1  0
 13 44  1  0
 14 45  1  0
 15 46  1  0
 16 47  1  0
 18 48  1  0
 18 49  1  0
 20 50  1  0
 21 51  1  0
 22 52  1  0
 23 53  1  0
 24 54  1  0
M  END
$$$$
