
     RDKit          3D

 42 43  0  0  0  0  0  0  0  0999 V2000
   -1.6075   -0.1211   -0.7377 C   0  0  2  0  0  0  0  0  0  0  0  0
   -2.6585    0.4574   -1.6525 C   0  0  0  0  0  0  0  0  0  0  0  0
   -3.8622    0.7977   -1.0533 O   0  0  0  0  0  0  0  0  0  0  0  0
   -4.7877    0.0514   -0.4051 C   0  0  0  0  0  0  0  0  0  0  0  0
   -5.8198    0.8935    0.0228 C   0  0  0  0  0  0  0  0  0  0  0  0
   -6.9246    0.4020    0.7253 C   0  0  0  0  0  0  0  0  0  0  0  0
   -7.0112   -0.9502    1.0107 C   0  0  0  0  0  0  0  0  0  0  0  0
   -8.0456   -1.5171    1.6862 F   0  0  0  0  0  0  0  0  0  0  0  0
   -6.0134   -1.7951    0.6017 C   0  0  0  0  0  0  0  0  0  0  0  0
   -4.9498   -1.2715   -0.0834 C   0  0  0  0  0  0  0  0  0  0  0  0
   -1.2121    0.9731    0.2421 C   0  0  0  0  0  0  0  0  0  0  0  0
   -0.1944    1.7265   -0.5756 C   0  0  0  0  0  0  0  0  0  0  0  0
    0.4163    0.6237   -1.3936 C   0  0  2  0  0  0  0  0  0  0  0  0
   -0.4576   -0.4216   -1.4527 O   0  0  0  0  0  0  0  0  0  0  0  0
    1.6526    0.2071   -0.6857 C   0  0  0  0  0  0  0  0  0  0  0  0
    2.6586   -0.1467   -0.1253 C   0  0  0  0  0  0  0  0  0  0  0  0
    3.9013   -0.5705    0.5439 C   0  0  0  0  0  0  0  0  0  0  0  0
    5.0572   -0.4652   -0.4161 C   0  0  0  0  0  0  0  0  0  0  0  0
    6.3223   -0.8541    0.1159 N   0  0  0  0  0  0  0  0  0  0  0  0
    6.9966   -1.9569   -0.2877 O   0  0  0  0  0  0  0  0  0  0  0  0
    6.8806   -0.0324    1.1127 C   0  0  0  0  0  0  0  0  0  0  0  0
    7.4054   -0.7213    2.2098 O   0  0  0  0  0  0  0  0  0  0  0  0
    7.0141    1.2492    1.2331 N   0  0  0  0  0  0  0  0  0  0  0  0
   -1.9949   -1.0040   -0.2463 H   0  0  0  0  0  0  0  0  0  0  0  0
   -2.2755    1.3955   -2.1461 H   0  0  0  0  0  0  0  0  0  0  0  0
   -2.8920   -0.2480   -2.4894 H   0  0  0  0  0  0  0  0  0  0  0  0
   -5.9308    1.9642   -0.1040 H   0  0  0  0  0  0  0  0  0  0  0  0
   -7.7575    0.9750    1.0867 H   0  0  0  0  0  0  0  0  0  0  0  0
   -6.0120   -2.8479    0.7866 H   0  0  0  0  0  0  0  0  0  0  0  0
   -4.1406   -1.8779   -0.4409 H   0  0  0  0  0  0  0  0  0  0  0  0
   -2.0775    1.6069    0.5279 H   0  0  0  0  0  0  0  0  0  0  0  0
   -0.7133    0.5319    1.1174 H   0  0  0  0  0  0  0  0  0  0  0  0
   -0.7299    2.3902   -1.2834 H   0  0  0  0  0  0  0  0  0  0  0  0
    0.5470    2.2694    0.0412 H   0  0  0  0  0  0  0  0  0  0  0  0
    0.7055    0.9915   -2.4082 H   0  0  0  0  0  0  0  0  0  0  0  0
    3.9990    0.0152    1.4567 H   0  0  0  0  0  0  0  0  0  0  0  0
    3.7622   -1.6310    0.8614 H   0  0  0  0  0  0  0  0  0  0  0  0
    5.1144    0.5950   -0.7554 H   0  0  0  0  0  0  0  0  0  0  0  0
    4.7560   -1.0541   -1.3280 H   0  0  0  0  0  0  0  0  0  0  0  0
    6.7603   -2.2398   -1.2153 H   0  0  0  0  0  0  0  0  0  0  0  0
    7.4499   -0.2939    3.1501 H   0  0  0  0  0  0  0  0  0  0  0  0
    6.6693    1.9041    0.4907 H   0  0  0  0  0  0  0  0  0  0  0  0
  1  2  1  0
  2  3  1  0
  3  4  1  0
  4  5  2  0
  5  6  1  0
  6  7  2  0
  7  8  1  0
  7  9  1  0
  9 10  2  0
  1 11  1  0
 11 12  1  0
 12 13  1  0
 13 14  1  0
 13 15  1  0
 15 16  3  0
 16 17  1  0
 17 18  1  0
 18 19  1  0
 19 20  1  0
 19 21  1  0
 21 22  1  0
 21 23  2  3
 14  1  1  0
 10  4  1  0
  1 24  1  1
  2 25  1  0
  2 26  1  0
  5 27  1  0
  6 28  1  0
  9 29  1  0
 10 30  1  0
 11 31  1  0
 11 32  1  0
 12 33  1  0
 12 34  1  0
 13 35  1  6
 17 36  1  0
 17 37  1  0
 18 38  1  0
 18 39  1  0
 20 40  1  0
 22 41  1  0
 23 42  1  0
M  END
$$$$
