
     RDKit          3D

 21 22  0  0  0  0  0  0  0  0999 V2000
   -3.2300    0.0283    1.0216 C   0  0  0  0  0  0  0  0  0  0  0  0
   -1.9191   -0.0386    0.3130 C   0  0  0  0  0  0  0  0  0  0  0  0
   -1.8029   -0.2819   -0.9918 C   0  0  0  0  0  0  0  0  0  0  0  0
   -0.5116   -0.3452   -1.6761 C   0  0  0  0  0  0  0  0  0  0  0  0
   -0.4273   -0.5767   -2.9109 O   0  0  0  0  0  0  0  0  0  0  0  0
    0.6921   -0.1305   -0.8815 C   0  0  0  0  0  0  0  0  0  0  0  0
    1.9206   -0.1880   -1.5180 C   0  0  0  0  0  0  0  0  0  0  0  0
    3.0735    0.0183   -0.7534 C   0  0  0  0  0  0  0  0  0  0  0  0
    2.9675    0.2740    0.6138 C   0  0  0  0  0  0  0  0  0  0  0  0
    1.7567    0.3370    1.2744 C   0  0  0  0  0  0  0  0  0  0  0  0
    0.6629    0.1267    0.4727 C   0  0  0  0  0  0  0  0  0  0  0  0
   -0.6757    0.1689    1.0592 C   0  0  0  0  0  0  0  0  0  0  0  0
   -0.7626    0.4010    2.2979 O   0  0  0  0  0  0  0  0  0  0  0  0
   -4.0401    0.0369    0.2810 H   0  0  0  0  0  0  0  0  0  0  0  0
   -3.3561   -0.8616    1.6510 H   0  0  0  0  0  0  0  0  0  0  0  0
   -3.3406    0.9164    1.6512 H   0  0  0  0  0  0  0  0  0  0  0  0
   -2.7067   -0.4369   -1.5562 H   0  0  0  0  0  0  0  0  0  0  0  0
    2.0449   -0.3800   -2.5569 H   0  0  0  0  0  0  0  0  0  0  0  0
    4.0412   -0.0229   -1.2340 H   0  0  0  0  0  0  0  0  0  0  0  0
    3.9079    0.4207    1.1244 H   0  0  0  0  0  0  0  0  0  0  0  0
    1.7054    0.5338    2.3186 H   0  0  0  0  0  0  0  0  0  0  0  0
  1  2  1  0
  2  3  2  0
  3  4  1  0
  4  5  2  0
  4  6  1  0
  6  7  2  0
  7  8  1  0
  8  9  2  0
  9 10  1  0
 10 11  2  0
 11 12  1  0
 12 13  2  0
 12  2  1  0
 11  6  1  0
  1 14  1  0
  1 15  1  0
  1 16  1  0
  3 17  1  0
  7 18  1  0
  8 19  1  0
  9 20  1  0
 10 21  1  0
M  END
$$$$
