
     RDKit          3D

 55 58  0  0  0  0  0  0  0  0999 V2000
   -3.9017    2.6542   -0.6938 C   0  0  0  0  0  0  0  0  0  0  0  0
   -2.4619    2.9126   -0.4434 C   0  0  0  0  0  0  0  0  0  0  0  0
   -1.4862    1.9395   -0.3755 C   0  0  0  0  0  0  0  0  0  0  0  0
   -1.5396    0.5549   -0.5066 C   0  0  0  0  0  0  0  0  0  0  0  0
   -2.7599   -0.0024   -0.7488 O   0  0  0  0  0  0  0  0  0  0  0  0
   -3.0161   -1.3780   -0.9111 C   0  0  2  0  0  0  0  0  0  0  0  0
   -3.6207   -1.5594   -2.2873 C   0  0  0  0  0  0  0  0  0  0  0  0
   -4.0068   -1.7711    0.1736 C   0  0  1  0  0  0  0  0  0  0  0  0
   -4.3251   -3.2346    0.1620 C   0  0  0  0  0  0  0  0  0  0  0  0
   -4.6559   -3.4775    1.5701 N   0  0  0  0  0  0  0  0  0  0  0  0
   -4.2169   -2.3441    2.3315 C   0  0  0  0  0  0  0  0  0  0  0  0
   -4.4487   -2.1492    3.5681 O   0  0  0  0  0  0  0  0  0  0  0  0
   -3.5120   -1.5405    1.4551 O   0  0  0  0  0  0  0  0  0  0  0  0
   -0.3921   -0.1208   -0.3852 N   0  0  0  0  0  0  0  0  0  0  0  0
    0.7915    0.4681   -0.1461 C   0  0  0  0  0  0  0  0  0  0  0  0
    2.0260   -0.2960   -0.0188 C   0  0  0  0  0  0  0  0  0  0  0  0
    2.1546   -1.6634   -0.1196 C   0  0  0  0  0  0  0  0  0  0  0  0
    3.4322   -1.9508    0.0568 N   0  0  0  0  0  0  0  0  0  0  0  0
    4.1313   -0.8490    0.2649 N   0  0  0  0  0  0  0  0  0  0  0  0
    5.5602   -0.8556    0.4901 C   0  0  0  0  0  0  0  0  0  0  0  0
    6.0513    0.4634    1.0457 C   0  0  0  0  0  0  0  0  0  0  0  0
    6.2360   -1.0560   -0.8524 C   0  0  0  0  0  0  0  0  0  0  0  0
    5.9080   -1.9337    1.4678 C   0  0  0  0  0  0  0  0  0  0  0  0
    3.2892    0.1970    0.2245 C   0  0  0  0  0  0  0  0  0  0  0  0
    0.8410    1.8401   -0.0167 C   0  0  0  0  0  0  0  0  0  0  0  0
   -0.3093    2.6142   -0.1298 C   0  0  0  0  0  0  0  0  0  0  0  0
   -0.5991    3.9222   -0.0597 N   0  0  0  0  0  0  0  0  0  0  0  0
   -1.8966    4.1173   -0.2474 N   0  0  0  0  0  0  0  0  0  0  0  0
   -2.5578    5.4272   -0.2358 C   0  0  0  0  0  0  0  0  0  0  0  0
   -4.4343    3.5587   -1.0117 H   0  0  0  0  0  0  0  0  0  0  0  0
   -3.9612    1.8612   -1.4895 H   0  0  0  0  0  0  0  0  0  0  0  0
   -4.3347    2.1923    0.2186 H   0  0  0  0  0  0  0  0  0  0  0  0
   -2.1203   -1.9979   -0.8249 H   0  0  0  0  0  0  0  0  0  0  0  0
   -3.3531   -2.5356   -2.7280 H   0  0  0  0  0  0  0  0  0  0  0  0
   -3.2349   -0.7778   -2.9774 H   0  0  0  0  0  0  0  0  0  0  0  0
   -4.7341   -1.4025   -2.2653 H   0  0  0  0  0  0  0  0  0  0  0  0
   -4.9636   -1.2205    0.0655 H   0  0  0  0  0  0  0  0  0  0  0  0
   -3.4934   -3.8886   -0.0939 H   0  0  0  0  0  0  0  0  0  0  0  0
   -5.2503   -3.4244   -0.4193 H   0  0  0  0  0  0  0  0  0  0  0  0
   -5.1284   -4.3181    1.9812 H   0  0  0  0  0  0  0  0  0  0  0  0
    1.3538   -2.3604   -0.3079 H   0  0  0  0  0  0  0  0  0  0  0  0
    7.1430    0.3376    1.2348 H   0  0  0  0  0  0  0  0  0  0  0  0
    5.5780    0.6159    2.0347 H   0  0  0  0  0  0  0  0  0  0  0  0
    5.8961    1.3056    0.3510 H   0  0  0  0  0  0  0  0  0  0  0  0
    7.3273   -1.2450   -0.7526 H   0  0  0  0  0  0  0  0  0  0  0  0
    6.1328   -0.0792   -1.3963 H   0  0  0  0  0  0  0  0  0  0  0  0
    5.7179   -1.8085   -1.4751 H   0  0  0  0  0  0  0  0  0  0  0  0
    7.0090   -1.9971    1.5991 H   0  0  0  0  0  0  0  0  0  0  0  0
    5.4825   -1.6516    2.4481 H   0  0  0  0  0  0  0  0  0  0  0  0
    5.5192   -2.9261    1.2079 H   0  0  0  0  0  0  0  0  0  0  0  0
    3.5693    1.2529    0.3623 H   0  0  0  0  0  0  0  0  0  0  0  0
    1.7777    2.3668    0.1780 H   0  0  0  0  0  0  0  0  0  0  0  0
   -2.2700    5.9177    0.7295 H   0  0  0  0  0  0  0  0  0  0  0  0
   -3.6552    5.2735   -0.1860 H   0  0  0  0  0  0  0  0  0  0  0  0
   -2.2880    6.0222   -1.1150 H   0  0  0  0  0  0  0  0  0  0  0  0
  1  2  1  0
  2  3  2  0
  3  4  1  0
  4  5  1  0
  5  6  1  0
  6  7  1  0
  6  8  1  0
  8  9  1  0
  9 10  1  0
 10 11  1  0
 11 12  2  0
 11 13  1  0
  4 14  2  0
 14 15  1  0
 15 16  1  0
 16 17  1  0
 17 18  2  0
 18 19  1  0
 19 20  1  0
 20 21  1  0
 20 22  1  0
 20 23  1  0
 19 24  1  0
 15 25  2  0
 25 26  1  0
 26 27  2  0
 27 28  1  0
 28 29  1  0
 28  2  1  0
 26  3  1  0
 13  8  1  0
 24 16  2  0
  1 30  1  0
  1 31  1  0
  1 32  1  0
  6 33  1  6
  7 34  1  0
  7 35  1  0
  7 36  1  0
  8 37  1  6
  9 38  1  0
  9 39  1  0
 10 40  1  0
 17 41  1  0
 21 42  1  0
 21 43  1  0
 21 44  1  0
 22 45  1  0
 22 46  1  0
 22 47  1  0
 23 48  1  0
 23 49  1  0
 23 50  1  0
 24 51  1  0
 25 52  1  0
 29 53  1  0
 29 54  1  0
 29 55  1  0
M  END
$$$$
