
     RDKit          3D

 53 55  0  0  0  0  0  0  0  0999 V2000
   -9.2861    2.3137   -0.5621 C   0  0  0  0  0  0  0  0  0  0  0  0
   -8.0080    2.5036   -0.8027 C   0  0  0  0  0  0  0  0  0  0  0  0
   -7.0443    1.5241   -0.3134 C   0  0  0  0  0  0  0  0  0  0  0  0
   -7.4418    0.5018    0.3340 O   0  0  0  0  0  0  0  0  0  0  0  0
   -5.6486    1.6357   -0.5149 N   0  0  0  0  0  0  0  0  0  0  0  0
   -4.7554    0.6343   -0.0072 C   0  0  0  0  0  0  0  0  0  0  0  0
   -4.2102    0.7070    1.2549 C   0  0  0  0  0  0  0  0  0  0  0  0
   -3.3491   -0.2221    1.7920 C   0  0  0  0  0  0  0  0  0  0  0  0
   -3.0210   -1.3020    0.9837 C   0  0  0  0  0  0  0  0  0  0  0  0
   -1.9243   -2.4854    1.6698 S   0  0  0  0  0  6  0  0  0  0  0  0
   -2.1176   -2.5193    3.1519 O   0  0  0  0  0  0  0  0  0  0  0  0
   -2.2808   -3.8089    1.1086 O   0  0  0  0  0  0  0  0  0  0  0  0
   -0.3099   -2.0238    1.3359 N   0  0  0  0  0  0  0  0  0  0  0  0
    0.0338   -0.7580    1.9156 C   0  0  0  0  0  0  0  0  0  0  0  0
    1.5447   -0.5815    1.8976 C   0  0  0  0  0  0  0  0  0  0  0  0
    2.0099   -0.7221    0.5528 N   0  0  0  0  0  0  0  0  0  0  0  0
    3.0599    0.1601    0.0817 C   0  0  0  0  0  0  0  0  0  0  0  0
    3.5003    1.0151    0.8836 O   0  0  0  0  0  0  0  0  0  0  0  0
    3.5730    0.1055   -1.1485 O   0  0  0  0  0  0  0  0  0  0  0  0
    4.5440    0.8014   -1.8287 C   0  0  0  0  0  0  0  0  0  0  0  0
    5.8935    0.7625   -1.2592 C   0  0  0  0  0  0  0  0  0  0  0  0
    6.7137   -0.2664   -1.6718 C   0  0  0  0  0  0  0  0  0  0  0  0
    7.9582   -0.3965   -1.1425 C   0  0  0  0  0  0  0  0  0  0  0  0
    8.4411    0.4603   -0.2050 C   0  0  0  0  0  0  0  0  0  0  0  0
    7.6372    1.4930    0.2173 C   0  0  0  0  0  0  0  0  0  0  0  0
    8.1038    2.3568    1.1526 F   0  0  0  0  0  0  0  0  0  0  0  0
    6.3565    1.6390   -0.3190 C   0  0  0  0  0  0  0  0  0  0  0  0
    5.6425    2.7153    0.1080 F   0  0  0  0  0  0  0  0  0  0  0  0
    1.4584   -1.7088   -0.3336 C   0  0  0  0  0  0  0  0  0  0  0  0
    0.0388   -2.0680   -0.0481 C   0  0  0  0  0  0  0  0  0  0  0  0
   -3.5417   -1.4175   -0.2856 C   0  0  0  0  0  0  0  0  0  0  0  0
   -4.4121   -0.4490   -0.7877 C   0  0  0  0  0  0  0  0  0  0  0  0
   -9.6311    1.4539   -0.0142 H   0  0  0  0  0  0  0  0  0  0  0  0
  -10.0163    3.0206   -0.9122 H   0  0  0  0  0  0  0  0  0  0  0  0
   -7.6929    3.3653   -1.3498 H   0  0  0  0  0  0  0  0  0  0  0  0
   -5.3060    2.4716   -1.0449 H   0  0  0  0  0  0  0  0  0  0  0  0
   -4.4822    1.5597    1.8641 H   0  0  0  0  0  0  0  0  0  0  0  0
   -2.9378   -0.1269    2.8032 H   0  0  0  0  0  0  0  0  0  0  0  0
   -0.3353   -0.7534    2.9593 H   0  0  0  0  0  0  0  0  0  0  0  0
   -0.4494    0.0382    1.3296 H   0  0  0  0  0  0  0  0  0  0  0  0
    1.9564   -1.4004    2.5565 H   0  0  0  0  0  0  0  0  0  0  0  0
    1.7692    0.3807    2.3729 H   0  0  0  0  0  0  0  0  0  0  0  0
    4.6114    0.4903   -2.9037 H   0  0  0  0  0  0  0  0  0  0  0  0
    4.1899    1.8855   -1.9264 H   0  0  0  0  0  0  0  0  0  0  0  0
    6.3693   -0.9827   -2.4242 H   0  0  0  0  0  0  0  0  0  0  0  0
    8.6136   -1.2005   -1.4579 H   0  0  0  0  0  0  0  0  0  0  0  0
    9.4446    0.3568    0.2243 H   0  0  0  0  0  0  0  0  0  0  0  0
    1.4903   -1.3317   -1.3971 H   0  0  0  0  0  0  0  0  0  0  0  0
    2.1331   -2.6131   -0.3478 H   0  0  0  0  0  0  0  0  0  0  0  0
   -0.6267   -1.3518   -0.5927 H   0  0  0  0  0  0  0  0  0  0  0  0
   -0.1607   -3.0578   -0.5053 H   0  0  0  0  0  0  0  0  0  0  0  0
   -3.2741   -2.2660   -0.8996 H   0  0  0  0  0  0  0  0  0  0  0  0
   -4.8236   -0.5384   -1.7868 H   0  0  0  0  0  0  0  0  0  0  0  0
  1  2  2  3
  2  3  1  0
  3  4  2  0
  3  5  1  0
  5  6  1  0
  6  7  2  0
  7  8  1  0
  8  9  2  0
  9 10  1  0
 10 11  2  0
 10 12  2  0
 10 13  1  0
 13 14  1  0
 14 15  1  0
 15 16  1  0
 16 17  1  0
 17 18  2  0
 17 19  1  0
 19 20  1  0
 20 21  1  0
 21 22  2  0
 22 23  1  0
 23 24  2  0
 24 25  1  0
 25 26  1  0
 25 27  2  0
 27 28  1  0
 16 29  1  0
 29 30  1  0
  9 31  1  0
 31 32  2  0
 32  6  1  0
 30 13  1  0
 27 21  1  0
  1 33  1  0
  1 34  1  0
  2 35  1  0
  5 36  1  0
  7 37  1  0
  8 38  1  0
 14 39  1  0
 14 40  1  0
 15 41  1  0
 15 42  1  0
 20 43  1  0
 20 44  1  0
 22 45  1  0
 23 46  1  0
 24 47  1  0
 29 48  1  0
 29 49  1  0
 30 50  1  0
 30 51  1  0
 31 52  1  0
 32 53  1  0
M  END
$$$$
