
     RDKit          3D

 30 31  0  0  0  0  0  0  0  0999 V2000
   -2.4098    1.5299   -1.3122 O   0  0  0  0  0  0  0  0  0  0  0  0
   -2.8352    1.7389   -0.1490 C   0  0  0  0  0  0  0  0  0  0  0  0
   -3.4670    2.9195    0.1921 O   0  0  0  0  0  0  0  0  0  0  0  0
   -2.6486    0.6871    0.8690 C   0  0  0  0  0  0  0  0  0  0  0  0
   -1.9583   -0.5028    0.3355 C   0  0  0  0  0  0  0  0  0  0  0  0
   -2.7069   -1.6223    0.0425 C   0  0  0  0  0  0  0  0  0  0  0  0
   -2.1652   -2.7806   -0.4638 C   0  0  0  0  0  0  0  0  0  0  0  0
   -0.8048   -2.8023   -0.6818 C   0  0  0  0  0  0  0  0  0  0  0  0
   -0.0374   -1.6806   -0.3913 C   0  0  0  0  0  0  0  0  0  0  0  0
   -0.5977   -0.5182    0.1196 C   0  0  0  0  0  0  0  0  0  0  0  0
    0.2239    0.6074    0.4058 N   0  0  0  0  0  0  0  0  0  0  0  0
    1.6271    0.6031    0.1770 C   0  0  0  0  0  0  0  0  0  0  0  0
    2.4319    0.1033    1.1781 C   0  0  0  0  0  0  0  0  0  0  0  0
    1.7318   -0.5026    2.6603 Cl  0  0  0  0  0  0  0  0  0  0  0  0
    3.7875    0.0938    0.9829 C   0  0  0  0  0  0  0  0  0  0  0  0
    4.3629    0.5754   -0.1981 C   0  0  0  0  0  0  0  0  0  0  0  0
    3.5673    1.0700   -1.1885 C   0  0  0  0  0  0  0  0  0  0  0  0
    2.2075    1.0776   -0.9884 C   0  0  0  0  0  0  0  0  0  0  0  0
    1.1779    1.7077   -2.2417 Cl  0  0  0  0  0  0  0  0  0  0  0  0
   -3.4426    3.7327   -0.4453 H   0  0  0  0  0  0  0  0  0  0  0  0
   -2.1109    1.0593    1.7668 H   0  0  0  0  0  0  0  0  0  0  0  0
   -3.6557    0.3997    1.2335 H   0  0  0  0  0  0  0  0  0  0  0  0
   -3.7872   -1.5936    0.2211 H   0  0  0  0  0  0  0  0  0  0  0  0
   -2.7937   -3.6469   -0.6827 H   0  0  0  0  0  0  0  0  0  0  0  0
   -0.3759   -3.7097   -1.0781 H   0  0  0  0  0  0  0  0  0  0  0  0
    1.0416   -1.7085   -0.5662 H   0  0  0  0  0  0  0  0  0  0  0  0
   -0.1758    1.4877    0.8008 H   0  0  0  0  0  0  0  0  0  0  0  0
    4.4066   -0.3022    1.7732 H   0  0  0  0  0  0  0  0  0  0  0  0
    5.4232    0.5303   -0.2654 H   0  0  0  0  0  0  0  0  0  0  0  0
    3.9833    1.4470   -2.1057 H   0  0  0  0  0  0  0  0  0  0  0  0
  1  2  2  0
  2  3  1  0
  2  4  1  0
  4  5  1  0
  5  6  2  0
  6  7  1  0
  7  8  2  0
  8  9  1  0
  9 10  2  0
 10 11  1  0
 11 12  1  0
 12 13  2  0
 13 14  1  0
 13 15  1  0
 15 16  2  0
 16 17  1  0
 17 18  2  0
 18 19  1  0
 10  5  1  0
 18 12  1  0
  3 20  1  0
  4 21  1  0
  4 22  1  0
  6 23  1  0
  7 24  1  0
  8 25  1  0
  9 26  1  0
 11 27  1  0
 15 28  1  0
 16 29  1  0
 17 30  1  0
M  END
$$$$
