
     RDKit          3D

 20 19  0  0  0  0  0  0  0  0999 V2000
    0.6899    0.0000    0.0000 Cl  0  0  0  0  0  0  0  0  0  0  0  0
   -2.5149    0.6674   -0.6922 N   0  0  0  0  0  0  0  0  0  0  0  0
   -2.3932   -0.6625   -0.6168 O   0  0  0  0  0  0  0  0  0  0  0  0
   -1.4586   -1.0204    0.3498 C   0  0  0  0  0  0  0  0  0  0  0  0
   -0.1136   -0.4681    0.0576 C   0  0  0  0  0  0  0  0  0  0  0  0
    0.7850   -1.1851   -0.6989 C   0  0  0  0  0  0  0  0  0  0  0  0
    2.0464   -0.7275   -1.0041 C   0  0  0  0  0  0  0  0  0  0  0  0
    2.4164    0.5104   -0.5232 C   0  0  0  0  0  0  0  0  0  0  0  0
    1.5227    1.2414    0.2385 C   0  0  0  0  0  0  0  0  0  0  0  0
    2.0251    2.8104    0.8336 Cl  0  0  0  0  0  0  0  0  0  0  0  0
    0.2623    0.7606    0.5312 C   0  0  0  0  0  0  0  0  0  0  0  0
   -0.6899    0.0000    0.0000 H   0  0  0  0  0  0  0  0  0  0  0  0
   -2.5462    1.0594   -1.6354 H   0  0  0  0  0  0  0  0  0  0  0  0
   -3.1116    1.0982    0.0156 H   0  0  0  0  0  0  0  0  0  0  0  0
   -1.4143   -2.1450    0.3407 H   0  0  0  0  0  0  0  0  0  0  0  0
   -1.7982   -0.7452    1.3780 H   0  0  0  0  0  0  0  0  0  0  0  0
    0.5094   -2.1682   -1.0886 H   0  0  0  0  0  0  0  0  0  0  0  0
    2.7495   -1.3097   -1.6069 H   0  0  0  0  0  0  0  0  0  0  0  0
    3.4070    0.8890   -0.7529 H   0  0  0  0  0  0  0  0  0  0  0  0
   -0.3732    1.3948    1.1319 H   0  0  0  0  0  0  0  0  0  0  0  0
  2  3  1  0
  3  4  1  0
  4  5  1  0
  5  6  2  0
  6  7  1  0
  7  8  2  0
  8  9  1  0
  9 10  1  0
  9 11  2  0
 11  5  1  0
  1 12  1  0
  2 13  1  0
  2 14  1  0
  4 15  1  0
  4 16  1  0
  6 17  1  0
  7 18  1  0
  8 19  1  0
 11 20  1  0
M  END
$$$$
