
     RDKit          3D

 44 47  0  0  0  0  0  0  0  0999 V2000
    6.5271    2.1931   -1.1173 N   0  0  0  0  0  0  0  0  0  0  0  0
    5.5423    1.2244   -0.7686 C   0  0  0  0  0  0  0  0  0  0  0  0
    5.3567    0.1341   -1.5209 N   0  0  0  0  0  0  0  0  0  0  0  0
    4.4482   -0.7906   -1.2278 C   0  0  0  0  0  0  0  0  0  0  0  0
    3.6347   -0.6848   -0.1248 C   0  0  0  0  0  0  0  0  0  0  0  0
    3.8665    0.4503    0.6120 C   0  0  0  0  0  0  0  0  0  0  0  0
    3.1284    0.6964    1.7878 N   0  0  0  0  0  0  0  0  0  0  0  0
    4.7850    1.4042    0.3328 N   0  0  0  0  0  0  0  0  0  0  0  0
    2.6678   -1.5755    0.2853 C   0  0  0  0  0  0  0  0  0  0  0  0
    1.6562   -1.3476    1.7403 S   0  0  0  0  0  0  0  0  0  0  0  0
    0.1342   -0.5885    1.1989 C   0  0  0  0  0  0  0  0  0  0  0  0
   -0.2658    0.7163    1.0611 C   0  0  0  0  0  0  0  0  0  0  0  0
   -1.5345    1.0010    0.6060 C   0  0  0  0  0  0  0  0  0  0  0  0
   -2.4649    0.0417    0.2668 C   0  0  0  0  0  0  0  0  0  0  0  0
   -2.0714   -1.2899    0.4022 C   0  0  0  0  0  0  0  0  0  0  0  0
   -0.7847   -1.5938    0.8637 C   0  0  0  0  0  0  0  0  0  0  0  0
   -3.7693    0.4308   -0.2006 N   0  0  0  0  0  0  0  0  0  0  0  0
   -3.9867    1.8658   -0.2684 C   0  0  0  0  0  0  0  0  0  0  0  0
   -5.3950    2.1368   -0.7363 C   0  0  0  0  0  0  0  0  0  0  0  0
   -6.2396    1.0790   -0.4552 O   0  0  0  0  0  0  0  0  0  0  0  0
   -5.8986   -0.0709   -1.1664 C   0  0  0  0  0  0  0  0  0  0  0  0
   -4.6693   -0.6833   -0.5333 C   0  0  0  0  0  0  0  0  0  0  0  0
    2.5375   -2.6954   -0.5414 C   0  0  0  0  0  0  0  0  0  0  0  0
    3.3250   -2.8736   -1.6747 C   0  0  0  0  0  0  0  0  0  0  0  0
    4.2768   -1.9286   -2.0206 C   0  0  0  0  0  0  0  0  0  0  0  0
    7.2385    2.5757   -0.4259 H   0  0  0  0  0  0  0  0  0  0  0  0
    6.6713    2.6287   -2.0422 H   0  0  0  0  0  0  0  0  0  0  0  0
    2.5078    0.9566    2.5750 H   0  0  0  0  0  0  0  0  0  0  0  0
    3.3575    0.2768    2.7226 H   0  0  0  0  0  0  0  0  0  0  0  0
    0.5054    1.3943    1.3430 H   0  0  0  0  0  0  0  0  0  0  0  0
   -1.7448    2.0609    0.5352 H   0  0  0  0  0  0  0  0  0  0  0  0
   -2.8183   -2.0057    0.1303 H   0  0  0  0  0  0  0  0  0  0  0  0
   -0.6639   -2.6795    0.9022 H   0  0  0  0  0  0  0  0  0  0  0  0
   -3.8561    2.2179    0.7874 H   0  0  0  0  0  0  0  0  0  0  0  0
   -3.2859    2.3803   -0.9467 H   0  0  0  0  0  0  0  0  0  0  0  0
   -5.8263    3.0441   -0.2614 H   0  0  0  0  0  0  0  0  0  0  0  0
   -5.3443    2.2657   -1.8537 H   0  0  0  0  0  0  0  0  0  0  0  0
   -5.6116    0.1976   -2.2027 H   0  0  0  0  0  0  0  0  0  0  0  0
   -6.7614   -0.7464   -1.1357 H   0  0  0  0  0  0  0  0  0  0  0  0
   -4.8911   -1.1706    0.4352 H   0  0  0  0  0  0  0  0  0  0  0  0
   -4.1744   -1.3691   -1.2531 H   0  0  0  0  0  0  0  0  0  0  0  0
    1.7978   -3.4504   -0.2908 H   0  0  0  0  0  0  0  0  0  0  0  0
    3.2144   -3.7491   -2.3102 H   0  0  0  0  0  0  0  0  0  0  0  0
    4.8787   -2.0792   -2.9004 H   0  0  0  0  0  0  0  0  0  0  0  0
  1  2  1  0
  2  3  2  0
  3  4  1  0
  4  5  2  0
  5  6  1  0
  6  7  1  0
  6  8  2  0
  5  9  1  0
  9 10  1  0
 10 11  1  0
 11 12  2  0
 12 13  1  0
 13 14  2  0
 14 15  1  0
 15 16  2  0
 14 17  1  0
 17 18  1  0
 18 19  1  0
 19 20  1  0
 20 21  1  0
 21 22  1  0
  9 23  2  0
 23 24  1  0
 24 25  2  0
  8  2  1  0
 16 11  1  0
 22 17  1  0
 25  4  1  0
  1 26  1  0
  1 27  1  0
  7 28  1  0
  7 29  1  0
 12 30  1  0
 13 31  1  0
 15 32  1  0
 16 33  1  0
 18 34  1  0
 18 35  1  0
 19 36  1  0
 19 37  1  0
 21 38  1  0
 21 39  1  0
 22 40  1  0
 22 41  1  0
 23 42  1  0
 24 43  1  0
 25 44  1  0
M  END
$$$$
