
     RDKit          3D

 56 60  0  0  0  0  0  0  0  0999 V2000
   -6.2835    0.1795    1.0049 C   0  0  0  0  0  0  0  0  0  0  0  0
   -5.5085   -1.3631    1.6366 S   0  0  0  0  0  0  0  0  0  0  0  0
   -4.6644   -2.0599    0.1963 C   0  0  0  0  0  0  0  0  0  0  0  0
   -5.3469   -2.9357   -0.6163 C   0  0  0  0  0  0  0  0  0  0  0  0
   -4.6750   -3.4361   -1.7288 C   0  0  0  0  0  0  0  0  0  0  0  0
   -3.3765   -3.0738   -2.0143 C   0  0  0  0  0  0  0  0  0  0  0  0
   -2.6998   -2.1941   -1.1927 C   0  0  0  0  0  0  0  0  0  0  0  0
   -3.3657   -1.6859   -0.0705 C   0  0  0  0  0  0  0  0  0  0  0  0
   -2.7183   -0.7959    0.8055 N   0  0  0  0  0  0  0  0  0  0  0  0
   -1.4064   -0.3135    0.6159 C   0  0  0  0  0  0  0  0  0  0  0  0
   -1.1777    0.9577    0.2951 N   0  0  0  0  0  0  0  0  0  0  0  0
    0.0859    1.4342    0.0883 C   0  0  0  0  0  0  0  0  0  0  0  0
    0.2826    2.7990   -0.2492 N   0  0  0  0  0  0  0  0  0  0  0  0
    0.1809    3.2874   -1.6086 C   0  0  0  0  0  0  0  0  0  0  0  0
   -0.1082    4.7887   -1.5775 C   0  0  0  0  0  0  0  0  0  0  0  0
   -1.0867    4.9957   -0.5375 N   0  0  0  0  0  0  0  0  0  0  0  0
   -0.4057    4.9041    0.7415 C   0  0  0  0  0  0  0  0  0  0  0  0
    0.5969    3.7927    0.7791 C   0  0  0  0  0  0  0  0  0  0  0  0
    1.1371    0.6062    0.2090 N   0  0  0  0  0  0  0  0  0  0  0  0
    0.9578   -0.6985    0.5341 C   0  0  0  0  0  0  0  0  0  0  0  0
    2.0676   -1.5457    0.6460 C   0  0  0  0  0  0  0  0  0  0  0  0
    3.3647   -1.0140    0.4328 N   0  0  0  0  0  0  0  0  0  0  0  0
    4.4932   -1.9091    0.5425 C   0  0  0  0  0  0  0  0  0  0  0  0
    5.8064   -1.2078    0.3858 C   0  0  0  0  0  0  0  0  0  0  0  0
    7.0076   -2.1539    0.4966 C   0  0  0  0  0  0  0  0  0  0  0  0
    6.7077   -1.3633   -0.7522 C   0  0  0  0  0  0  0  0  0  0  0  0
    1.7999   -2.8127    0.9609 N   0  0  0  0  0  0  0  0  0  0  0  0
    0.5593   -3.2827    1.1650 C   0  0  0  0  0  0  0  0  0  0  0  0
   -0.4908   -2.4677    1.0556 N   0  0  0  0  0  0  0  0  0  0  0  0
   -0.3255   -1.1589    0.7392 C   0  0  0  0  0  0  0  0  0  0  0  0
   -5.6035    0.7278    0.3256 H   0  0  0  0  0  0  0  0  0  0  0  0
   -6.5954    0.8548    1.7961 H   0  0  0  0  0  0  0  0  0  0  0  0
   -7.1880   -0.1267    0.4085 H   0  0  0  0  0  0  0  0  0  0  0  0
   -6.3651   -3.2402   -0.4174 H   0  0  0  0  0  0  0  0  0  0  0  0
   -5.1770   -4.1207   -2.3803 H   0  0  0  0  0  0  0  0  0  0  0  0
   -2.8535   -3.4572   -2.8774 H   0  0  0  0  0  0  0  0  0  0  0  0
   -1.6838   -1.8918   -1.3986 H   0  0  0  0  0  0  0  0  0  0  0  0
   -3.2139   -0.4605    1.6549 H   0  0  0  0  0  0  0  0  0  0  0  0
    1.1605    3.1784   -2.1398 H   0  0  0  0  0  0  0  0  0  0  0  0
   -0.5897    2.7386   -2.1540 H   0  0  0  0  0  0  0  0  0  0  0  0
    0.8256    5.3535   -1.3463 H   0  0  0  0  0  0  0  0  0  0  0  0
   -0.5441    5.1319   -2.5226 H   0  0  0  0  0  0  0  0  0  0  0  0
   -1.7479    4.1915   -0.5625 H   0  0  0  0  0  0  0  0  0  0  0  0
    0.1300    5.8807    0.8695 H   0  0  0  0  0  0  0  0  0  0  0  0
   -1.1854    4.8192    1.5475 H   0  0  0  0  0  0  0  0  0  0  0  0
    0.5934    3.2674    1.7486 H   0  0  0  0  0  0  0  0  0  0  0  0
    1.6179    4.1955    0.6026 H   0  0  0  0  0  0  0  0  0  0  0  0
    3.4545   -0.0017    0.2029 H   0  0  0  0  0  0  0  0  0  0  0  0
    4.3913   -2.5466    1.4132 H   0  0  0  0  0  0  0  0  0  0  0  0
    4.4052   -2.5939   -0.3516 H   0  0  0  0  0  0  0  0  0  0  0  0
    5.8819   -0.3177    1.0783 H   0  0  0  0  0  0  0  0  0  0  0  0
    6.8458   -3.2460    0.4120 H   0  0  0  0  0  0  0  0  0  0  0  0
    7.8219   -1.8793    1.1678 H   0  0  0  0  0  0  0  0  0  0  0  0
    7.4475   -0.5381   -0.9131 H   0  0  0  0  0  0  0  0  0  0  0  0
    6.3346   -1.8452   -1.6585 H   0  0  0  0  0  0  0  0  0  0  0  0
    0.4294   -4.3468    1.4218 H   0  0  0  0  0  0  0  0  0  0  0  0
  1  2  1  0
  2  3  1  0
  3  4  2  0
  4  5  1  0
  5  6  2  0
  6  7  1  0
  7  8  2  0
  8  9  1  0
  9 10  1  0
 10 11  2  0
 11 12  1  0
 12 13  1  0
 13 14  1  0
 14 15  1  0
 15 16  1  0
 16 17  1  0
 17 18  1  0
 12 19  2  0
 19 20  1  0
 20 21  2  0
 21 22  1  0
 22 23  1  0
 23 24  1  0
 24 25  1  0
 25 26  1  0
 21 27  1  0
 27 28  2  0
 28 29  1  0
 29 30  2  0
  8  3  1  0
 30 10  1  0
 18 13  1  0
 30 20  1  0
 26 24  1  0
  1 31  1  0
  1 32  1  0
  1 33  1  0
  4 34  1  0
  5 35  1  0
  6 36  1  0
  7 37  1  0
  9 38  1  0
 14 39  1  0
 14 40  1  0
 15 41  1  0
 15 42  1  0
 16 43  1  0
 17 44  1  0
 17 45  1  0
 18 46  1  0
 18 47  1  0
 22 48  1  0
 23 49  1  0
 23 50  1  0
 24 51  1  0
 25 52  1  0
 25 53  1  0
 26 54  1  0
 26 55  1  0
 28 56  1  0
M  END
$$$$
