
     RDKit          3D

 70 73  0  0  0  0  0  0  0  0999 V2000
    5.1691    0.7481    1.7158 C   0  0  0  0  0  0  0  0  0  0  0  0
    4.0059    1.2509    1.1509 O   0  0  0  0  0  0  0  0  0  0  0  0
    3.8571    0.9392   -0.1673 C   0  0  2  0  0  0  0  0  0  0  0  0
    3.7404    2.1759   -1.0567 C   0  0  0  0  0  0  0  0  0  0  0  0
    2.2793    2.2832   -1.4214 C   0  0  0  0  0  0  0  0  0  0  0  0
    1.9012    3.0035   -2.3072 O   0  0  0  0  0  0  0  0  0  0  0  0
    1.6149    1.3719   -0.4903 C   0  0  2  0  0  0  0  0  0  0  0  0
    1.5756    1.9820    0.8605 C   0  0  0  0  0  0  0  0  0  0  0  0
    2.6074    0.1993   -0.5385 C   0  0  2  0  0  0  0  0  0  0  0  0
    2.2023   -0.9257    0.3067 C   0  0  2  0  0  0  0  0  0  0  0  0
    2.6166   -2.1232   -0.3789 O   0  0  0  0  0  0  0  0  0  0  0  0
    3.5675   -2.9845    0.0876 C   0  0  0  0  0  0  0  0  0  0  0  0
    3.9109   -4.1873   -0.7120 C   0  0  0  0  0  0  0  0  0  0  0  0
    4.1367   -2.7635    1.1666 O   0  0  0  0  0  0  0  0  0  0  0  0
    0.7651   -1.0970    0.6233 C   0  0  0  0  0  0  0  0  0  0  0  0
   -0.1831   -0.0611    0.1633 C   0  0  2  0  0  0  0  0  0  0  0  0
   -1.5970   -0.5725   -0.0342 C   0  0  1  0  0  0  0  0  0  0  0  0
   -1.7522   -1.5918   -1.0958 C   0  0  0  0  0  0  0  0  0  0  0  0
   -2.0281   -1.1785    1.2845 C   0  0  0  0  0  0  0  0  0  0  0  0
   -3.3279   -0.7024    1.7971 C   0  0  0  0  0  0  0  0  0  0  0  0
   -4.4112   -0.5130    0.8116 C   0  0  2  0  0  0  0  0  0  0  0  0
   -4.9317   -1.7308    0.3143 O   0  0  0  0  0  0  0  0  0  0  0  0
   -3.9242    0.3808   -0.2937 C   0  0  0  0  0  0  0  0  0  0  0  0
   -4.6138    1.7411   -0.0900 C   0  0  0  0  0  0  0  0  0  0  0  0
   -4.4492   -0.1662   -1.5837 C   0  0  0  0  0  0  0  0  0  0  0  0
   -2.4621    0.6447   -0.2619 C   0  0  2  0  0  0  0  0  0  0  0  0
   -2.0691    1.4435   -1.4579 C   0  0  0  0  0  0  0  0  0  0  0  0
   -0.6361    1.9307   -1.2305 C   0  0  0  0  0  0  0  0  0  0  0  0
    0.3107    0.8009   -0.9736 C   0  0  1  0  0  0  0  0  0  0  0  0
    0.5590    0.0965   -2.2565 C   0  0  0  0  0  0  0  0  0  0  0  0
    6.0413    1.1846    1.1487 H   0  0  0  0  0  0  0  0  0  0  0  0
    5.2924   -0.3370    1.6423 H   0  0  0  0  0  0  0  0  0  0  0  0
    5.3012    1.1005    2.7615 H   0  0  0  0  0  0  0  0  0  0  0  0
    4.7311    0.3153   -0.4856 H   0  0  0  0  0  0  0  0  0  0  0  0
    4.1014    3.0805   -0.5693 H   0  0  0  0  0  0  0  0  0  0  0  0
    4.3061    1.9436   -1.9822 H   0  0  0  0  0  0  0  0  0  0  0  0
    0.6036    2.4875    1.0949 H   0  0  0  0  0  0  0  0  0  0  0  0
    2.3165    2.8342    0.9210 H   0  0  0  0  0  0  0  0  0  0  0  0
    1.7261    1.2389    1.6440 H   0  0  0  0  0  0  0  0  0  0  0  0
    2.7598   -0.0799   -1.6277 H   0  0  0  0  0  0  0  0  0  0  0  0
    2.8515   -0.9177    1.2335 H   0  0  0  0  0  0  0  0  0  0  0  0
    4.4882   -3.8918   -1.6098 H   0  0  0  0  0  0  0  0  0  0  0  0
    3.0085   -4.7355   -1.0440 H   0  0  0  0  0  0  0  0  0  0  0  0
    4.5764   -4.8798   -0.1409 H   0  0  0  0  0  0  0  0  0  0  0  0
    0.3793   -2.1088    0.2946 H   0  0  0  0  0  0  0  0  0  0  0  0
    0.7056   -1.2005    1.7510 H   0  0  0  0  0  0  0  0  0  0  0  0
   -0.2939    0.6683    1.0281 H   0  0  0  0  0  0  0  0  0  0  0  0
   -0.8410   -2.1743   -1.3358 H   0  0  0  0  0  0  0  0  0  0  0  0
   -2.1413   -1.2156   -2.0629 H   0  0  0  0  0  0  0  0  0  0  0  0
   -2.5001   -2.3822   -0.7845 H   0  0  0  0  0  0  0  0  0  0  0  0
   -1.9913   -2.3031    1.1973 H   0  0  0  0  0  0  0  0  0  0  0  0
   -1.2848   -0.9641    2.1104 H   0  0  0  0  0  0  0  0  0  0  0  0
   -3.6868   -1.4572    2.5575 H   0  0  0  0  0  0  0  0  0  0  0  0
   -3.2023    0.2366    2.3742 H   0  0  0  0  0  0  0  0  0  0  0  0
   -5.2871   -0.0609    1.3674 H   0  0  0  0  0  0  0  0  0  0  0  0
   -5.8983   -1.6455    0.1212 H   0  0  0  0  0  0  0  0  0  0  0  0
   -5.6399    1.5898    0.3188 H   0  0  0  0  0  0  0  0  0  0  0  0
   -4.6978    2.2988   -1.0238 H   0  0  0  0  0  0  0  0  0  0  0  0
   -4.0575    2.3122    0.7056 H   0  0  0  0  0  0  0  0  0  0  0  0
   -4.4878   -1.2956   -1.5730 H   0  0  0  0  0  0  0  0  0  0  0  0
   -5.5423    0.1226   -1.6288 H   0  0  0  0  0  0  0  0  0  0  0  0
   -3.9991    0.2417   -2.4847 H   0  0  0  0  0  0  0  0  0  0  0  0
   -2.2751    1.3084    0.6365 H   0  0  0  0  0  0  0  0  0  0  0  0
   -2.0765    0.9143   -2.4072 H   0  0  0  0  0  0  0  0  0  0  0  0
   -2.6915    2.3626   -1.4654 H   0  0  0  0  0  0  0  0  0  0  0  0
   -0.3570    2.4235   -2.2081 H   0  0  0  0  0  0  0  0  0  0  0  0
   -0.6614    2.7171   -0.4807 H   0  0  0  0  0  0  0  0  0  0  0  0
   -0.3111    0.0530   -2.9438 H   0  0  0  0  0  0  0  0  0  0  0  0
    1.3154    0.7202   -2.8235 H   0  0  0  0  0  0  0  0  0  0  0  0
    0.9850   -0.8993   -2.2072 H   0  0  0  0  0  0  0  0  0  0  0  0
  1  2  1  0
  2  3  1  0
  3  4  1  0
  4  5  1  0
  5  6  2  0
  5  7  1  0
  7  8  1  1
  7  9  1  0
  9 10  1  0
 10 11  1  0
 11 12  1  0
 12 13  1  0
 12 14  2  0
 10 15  1  0
 15 16  1  0
 16 17  1  0
 17 18  1  6
 17 19  1  0
 19 20  1  0
 20 21  1  0
 21 22  1  0
 21 23  1  0
 23 24  1  0
 23 25  1  0
 23 26  1  0
 26 27  1  0
 27 28  1  0
 28 29  1  0
 29 30  1  6
  9  3  1  0
 29 16  1  0
 29  7  1  0
 26 17  1  0
  1 31  1  0
  1 32  1  0
  1 33  1  0
  3 34  1  6
  4 35  1  0
  4 36  1  0
  8 37  1  0
  8 38  1  0
  8 39  1  0
  9 40  1  6
 10 41  1  1
 13 42  1  0
 13 43  1  0
 13 44  1  0
 15 45  1  0
 15 46  1  0
 16 47  1  1
 18 48  1  0
 18 49  1  0
 18 50  1  0
 19 51  1  0
 19 52  1  0
 20 53  1  0
 20 54  1  0
 21 55  1  1
 22 56  1  0
 24 57  1  0
 24 58  1  0
 24 59  1  0
 25 60  1  0
 25 61  1  0
 25 62  1  0
 26 63  1  1
 27 64  1  0
 27 65  1  0
 28 66  1  0
 28 67  1  0
 30 68  1  0
 30 69  1  0
 30 70  1  0
M  END
$$$$
