
     RDKit          3D

 19 18  0  0  0  0  0  0  0  0999 V2000
    3.5351    0.6706    0.3520 N   0  0  0  0  0  0  0  0  0  0  0  0
    2.4157    0.0853    0.8307 O   0  0  0  0  0  0  0  0  0  0  0  0
    1.3632    0.1730   -0.0931 C   0  0  0  0  0  0  0  0  0  0  0  0
    0.1021   -0.4835    0.4378 C   0  0  0  0  0  0  0  0  0  0  0  0
   -0.9571   -0.3287   -0.6353 C   0  0  2  0  0  0  0  0  0  0  0  0
   -1.1352    1.0992   -0.8494 N   0  0  0  0  0  0  0  0  0  0  0  0
   -2.2606   -0.9153   -0.1880 C   0  0  0  0  0  0  0  0  0  0  0  0
   -3.4195   -0.1642   -0.0226 O   0  0  0  0  0  0  0  0  0  0  0  0
   -2.3899   -2.1289    0.0673 O   0  0  0  0  0  0  0  0  0  0  0  0
    3.3694    1.3985   -0.3604 H   0  0  0  0  0  0  0  0  0  0  0  0
    4.2607   -0.0045    0.0653 H   0  0  0  0  0  0  0  0  0  0  0  0
    1.6833   -0.3620   -1.0001 H   0  0  0  0  0  0  0  0  0  0  0  0
    1.2006    1.2312   -0.3259 H   0  0  0  0  0  0  0  0  0  0  0  0
   -0.2195   -0.0350    1.3952 H   0  0  0  0  0  0  0  0  0  0  0  0
    0.2768   -1.5535    0.5868 H   0  0  0  0  0  0  0  0  0  0  0  0
   -0.6349   -0.8724   -1.5256 H   0  0  0  0  0  0  0  0  0  0  0  0
   -0.7199    1.3759   -1.7671 H   0  0  0  0  0  0  0  0  0  0  0  0
   -2.1408    1.3379   -0.8444 H   0  0  0  0  0  0  0  0  0  0  0  0
   -4.3294   -0.5237    0.1613 H   0  0  0  0  0  0  0  0  0  0  0  0
  1  2  1  0
  2  3  1  0
  3  4  1  0
  4  5  1  0
  5  6  1  0
  5  7  1  0
  7  8  1  0
  7  9  2  0
  1 10  1  0
  1 11  1  0
  3 12  1  0
  3 13  1  0
  4 14  1  0
  4 15  1  0
  5 16  1  6
  6 17  1  0
  6 18  1  0
  8 19  1  0
M  END
$$$$
