
     RDKit          3D

 56 58  0  0  0  0  0  0  0  0999 V2000
   -5.2352   -2.8835    0.1240 C   0  0  0  0  0  0  0  0  0  0  0  0
   -5.7824   -1.8148   -0.7581 C   0  0  0  0  0  0  0  0  0  0  0  0
   -5.5669   -0.4494   -0.1745 N   0  0  0  0  0  0  0  0  0  0  0  0
   -6.2808    0.3885   -1.1410 C   0  0  0  0  0  0  0  0  0  0  0  0
   -6.5075    1.7965   -0.7128 C   0  0  0  0  0  0  0  0  0  0  0  0
   -4.1157   -0.2244   -0.2325 C   0  0  0  0  0  0  0  0  0  0  0  0
   -3.7306    1.0029    0.4848 C   0  0  0  0  0  0  0  0  0  0  0  0
   -2.2960    1.3004    0.4678 N   0  0  0  0  0  0  0  0  0  0  0  0
   -1.2839    0.4525    0.9137 C   0  0  0  0  0  0  0  0  0  0  0  0
   -1.6410   -0.6835    1.3450 O   0  0  0  0  0  0  0  0  0  0  0  0
    0.1506    0.7174    0.9415 C   0  0  0  0  0  0  0  0  0  0  0  0
    0.7890    1.9222    0.9234 C   0  0  0  0  0  0  0  0  0  0  0  0
    0.1949    3.2789    0.9335 C   0  0  0  0  0  0  0  0  0  0  0  0
    2.1184    1.6540    0.9139 N   0  0  0  0  0  0  0  0  0  0  0  0
    2.3583    0.3435    0.9225 C   0  0  0  0  0  0  0  0  0  0  0  0
    3.6766   -0.3175    0.8815 C   0  0  0  0  0  0  0  0  0  0  0  0
    4.5824   -0.0516   -0.0359 C   0  0  0  0  0  0  0  0  0  0  0  0
    4.4748    0.8877   -1.1344 C   0  0  0  0  0  0  0  0  0  0  0  0
    3.4890    1.6102   -1.4150 O   0  0  0  0  0  0  0  0  0  0  0  0
    5.7165    0.8391   -1.8515 N   0  0  0  0  0  0  0  0  0  0  0  0
    6.5968   -0.0939   -1.2480 C   0  0  0  0  0  0  0  0  0  0  0  0
    7.8873   -0.4695   -1.5949 C   0  0  0  0  0  0  0  0  0  0  0  0
    8.5419   -1.4149   -0.8369 C   0  0  0  0  0  0  0  0  0  0  0  0
    7.8663   -1.9488    0.2491 C   0  0  0  0  0  0  0  0  0  0  0  0
    8.5240   -2.8733    0.9731 F   0  0  0  0  0  0  0  0  0  0  0  0
    6.5805   -1.5630    0.5824 C   0  0  0  0  0  0  0  0  0  0  0  0
    5.9269   -0.6226   -0.1707 C   0  0  0  0  0  0  0  0  0  0  0  0
    1.1376   -0.2879    0.9412 C   0  0  0  0  0  0  0  0  0  0  0  0
    0.8719   -1.7333    0.9508 C   0  0  0  0  0  0  0  0  0  0  0  0
   -6.0735   -3.6261    0.2935 H   0  0  0  0  0  0  0  0  0  0  0  0
   -4.9967   -2.4202    1.1112 H   0  0  0  0  0  0  0  0  0  0  0  0
   -4.4107   -3.4519   -0.3182 H   0  0  0  0  0  0  0  0  0  0  0  0
   -6.8527   -1.8932   -0.9302 H   0  0  0  0  0  0  0  0  0  0  0  0
   -5.2373   -1.8138   -1.7168 H   0  0  0  0  0  0  0  0  0  0  0  0
   -5.7061    0.3749   -2.1194 H   0  0  0  0  0  0  0  0  0  0  0  0
   -7.2569   -0.0739   -1.3946 H   0  0  0  0  0  0  0  0  0  0  0  0
   -5.9312    2.5318   -1.3068 H   0  0  0  0  0  0  0  0  0  0  0  0
   -6.4746    1.9683    0.3876 H   0  0  0  0  0  0  0  0  0  0  0  0
   -7.5912    2.0905   -0.9695 H   0  0  0  0  0  0  0  0  0  0  0  0
   -3.8163   -0.2146   -1.2904 H   0  0  0  0  0  0  0  0  0  0  0  0
   -3.6856   -1.0958    0.3186 H   0  0  0  0  0  0  0  0  0  0  0  0
   -4.1870    1.9513    0.0694 H   0  0  0  0  0  0  0  0  0  0  0  0
   -4.1096    0.9711    1.5512 H   0  0  0  0  0  0  0  0  0  0  0  0
   -1.9742    2.2347    0.0774 H   0  0  0  0  0  0  0  0  0  0  0  0
   -0.6547    3.3795    1.6150 H   0  0  0  0  0  0  0  0  0  0  0  0
    1.0043    4.0362    1.2080 H   0  0  0  0  0  0  0  0  0  0  0  0
   -0.1100    3.6132   -0.0779 H   0  0  0  0  0  0  0  0  0  0  0  0
    2.8231    2.4140    0.9242 H   0  0  0  0  0  0  0  0  0  0  0  0
    3.9375   -1.0615    1.6304 H   0  0  0  0  0  0  0  0  0  0  0  0
    5.9018    1.4263   -2.6987 H   0  0  0  0  0  0  0  0  0  0  0  0
    8.3752   -0.0175   -2.4591 H   0  0  0  0  0  0  0  0  0  0  0  0
    9.5601   -1.7281   -1.0870 H   0  0  0  0  0  0  0  0  0  0  0  0
    6.0599   -1.9877    1.4417 H   0  0  0  0  0  0  0  0  0  0  0  0
    1.7154   -2.3376    0.5525 H   0  0  0  0  0  0  0  0  0  0  0  0
   -0.0288   -1.9656    0.3012 H   0  0  0  0  0  0  0  0  0  0  0  0
    0.6762   -2.0659    1.9765 H   0  0  0  0  0  0  0  0  0  0  0  0
  1  2  1  0
  2  3  1  0
  3  4  1  0
  4  5  1  0
  3  6  1  0
  6  7  1  0
  7  8  1  0
  8  9  1  0
  9 10  2  0
  9 11  1  0
 11 12  2  0
 12 13  1  0
 12 14  1  0
 14 15  1  0
 15 16  1  0
 16 17  2  0
 17 18  1  0
 18 19  2  0
 18 20  1  0
 20 21  1  0
 21 22  2  0
 22 23  1  0
 23 24  2  0
 24 25  1  0
 24 26  1  0
 26 27  2  0
 15 28  2  0
 28 29  1  0
 28 11  1  0
 27 17  1  0
 27 21  1  0
  1 30  1  0
  1 31  1  0
  1 32  1  0
  2 33  1  0
  2 34  1  0
  4 35  1  0
  4 36  1  0
  5 37  1  0
  5 38  1  0
  5 39  1  0
  6 40  1  0
  6 41  1  0
  7 42  1  0
  7 43  1  0
  8 44  1  0
 13 45  1  0
 13 46  1  0
 13 47  1  0
 14 48  1  0
 16 49  1  0
 20 50  1  0
 22 51  1  0
 23 52  1  0
 26 53  1  0
 29 54  1  0
 29 55  1  0
 29 56  1  0
M  END
$$$$
