
     RDKit          3D

 52 54  0  0  0  0  0  0  0  0999 V2000
   -2.1534   -3.0038    0.5178 C   0  0  0  0  0  0  0  0  0  0  0  0
   -2.8412   -1.7349    0.4385 N   0  0  0  0  0  0  0  0  0  0  0  0
   -2.1907   -0.8089    1.3403 C   0  0  0  0  0  0  0  0  0  0  0  0
   -0.8179   -0.4441    0.9013 C   0  0  0  0  0  0  0  0  0  0  0  0
    0.2242   -0.6799    1.6396 C   0  0  0  0  0  0  0  0  0  0  0  0
    1.5867   -0.3397    1.2505 C   0  0  0  0  0  0  0  0  0  0  0  0
    2.6454   -0.6307    2.1134 C   0  0  0  0  0  0  0  0  0  0  0  0
    3.9538   -0.3211    1.7830 C   0  0  0  0  0  0  0  0  0  0  0  0
    4.2683    0.2877    0.5876 C   0  0  0  0  0  0  0  0  0  0  0  0
    5.6337    0.6322    0.2035 C   0  0  0  0  0  0  0  0  0  0  0  0
    6.0325    0.6322   -1.1168 C   0  0  0  0  0  0  0  0  0  0  0  0
    7.3381    0.9649   -1.4602 C   0  0  0  0  0  0  0  0  0  0  0  0
    8.2751    1.3045   -0.5075 C   0  0  0  0  0  0  0  0  0  0  0  0
    7.8889    1.3081    0.8161 C   0  0  0  0  0  0  0  0  0  0  0  0
    6.5776    0.9729    1.1506 C   0  0  0  0  0  0  0  0  0  0  0  0
    3.2303    0.5788   -0.2711 C   0  0  0  0  0  0  0  0  0  0  0  0
    1.9070    0.2659    0.0632 C   0  0  0  0  0  0  0  0  0  0  0  0
   -2.9558   -1.2137   -0.8993 C   0  0  0  0  0  0  0  0  0  0  0  0
   -3.6719    0.0706   -0.8766 C   0  0  0  0  0  0  0  0  0  0  0  0
   -3.1548    1.3396   -1.0209 C   0  0  0  0  0  0  0  0  0  0  0  0
   -4.1517    2.2108   -0.9410 O   0  0  0  0  0  0  0  0  0  0  0  0
   -5.2879    1.6076   -0.7547 C   0  0  0  0  0  0  0  0  0  0  0  0
   -6.5711    2.1505   -0.6172 C   0  0  0  0  0  0  0  0  0  0  0  0
   -7.5937    1.2438   -0.4276 C   0  0  0  0  0  0  0  0  0  0  0  0
   -7.3860   -0.1150   -0.3739 C   0  0  0  0  0  0  0  0  0  0  0  0
   -6.0974   -0.6028   -0.5154 C   0  0  0  0  0  0  0  0  0  0  0  0
   -5.0372    0.2653   -0.7078 C   0  0  0  0  0  0  0  0  0  0  0  0
    0.6862    0.0000    0.0000 Cl  0  0  0  0  0  0  0  0  0  0  0  0
   -2.7464   -3.8321    0.0379 H   0  0  0  0  0  0  0  0  0  0  0  0
   -1.1633   -2.9859    0.0083 H   0  0  0  0  0  0  0  0  0  0  0  0
   -1.9594   -3.2123    1.5811 H   0  0  0  0  0  0  0  0  0  0  0  0
   -2.2021   -1.1731    2.3809 H   0  0  0  0  0  0  0  0  0  0  0  0
   -2.8386    0.1107    1.3484 H   0  0  0  0  0  0  0  0  0  0  0  0
   -0.7315    0.0251   -0.0608 H   0  0  0  0  0  0  0  0  0  0  0  0
    0.0182   -1.1665    2.6068 H   0  0  0  0  0  0  0  0  0  0  0  0
    2.4140   -1.1075    3.0527 H   0  0  0  0  0  0  0  0  0  0  0  0
    4.7843   -0.5454    2.4537 H   0  0  0  0  0  0  0  0  0  0  0  0
    5.3115    0.3685   -1.8894 H   0  0  0  0  0  0  0  0  0  0  0  0
    7.6596    0.9690   -2.4846 H   0  0  0  0  0  0  0  0  0  0  0  0
    9.2929    1.5645   -0.7792 H   0  0  0  0  0  0  0  0  0  0  0  0
    8.6085    1.5742    1.6064 H   0  0  0  0  0  0  0  0  0  0  0  0
    6.2624    0.9738    2.1943 H   0  0  0  0  0  0  0  0  0  0  0  0
    3.4300    1.0608   -1.2317 H   0  0  0  0  0  0  0  0  0  0  0  0
    1.1268    0.5103   -0.6348 H   0  0  0  0  0  0  0  0  0  0  0  0
   -3.4560   -1.9637   -1.5506 H   0  0  0  0  0  0  0  0  0  0  0  0
   -1.9327   -1.0833   -1.3476 H   0  0  0  0  0  0  0  0  0  0  0  0
   -2.1073    1.6198   -1.1763 H   0  0  0  0  0  0  0  0  0  0  0  0
   -6.7494    3.2172   -0.6568 H   0  0  0  0  0  0  0  0  0  0  0  0
   -8.6088    1.6356   -0.3172 H   0  0  0  0  0  0  0  0  0  0  0  0
   -8.1776   -0.8382   -0.2248 H   0  0  0  0  0  0  0  0  0  0  0  0
   -5.8860   -1.6623   -0.4821 H   0  0  0  0  0  0  0  0  0  0  0  0
   -0.6862    0.0000    0.0000 H   0  0  0  0  0  0  0  0  0  0  0  0
  1  2  1  0
  2  3  1  0
  3  4  1  0
  4  5  2  0
  5  6  1  0
  6  7  2  0
  7  8  1  0
  8  9  2  0
  9 10  1  0
 10 11  2  0
 11 12  1  0
 12 13  2  0
 13 14  1  0
 14 15  2  0
  9 16  1  0
 16 17  2  0
  2 18  1  0
 18 19  1  0
 19 20  2  0
 20 21  1  0
 21 22  1  0
 22 23  2  0
 23 24  1  0
 24 25  2  0
 25 26  1  0
 26 27  2  0
 17  6  1  0
 27 19  1  0
 15 10  1  0
 27 22  1  0
  1 29  1  0
  1 30  1  0
  1 31  1  0
  3 32  1  0
  3 33  1  0
  4 34  1  0
  5 35  1  0
  7 36  1  0
  8 37  1  0
 11 38  1  0
 12 39  1  0
 13 40  1  0
 14 41  1  0
 15 42  1  0
 16 43  1  0
 17 44  1  0
 18 45  1  0
 18 46  1  0
 20 47  1  0
 23 48  1  0
 24 49  1  0
 25 50  1  0
 26 51  1  0
 28 52  1  0
M  END
$$$$
