
     RDKit          3D

 51 56  0  0  0  0  0  0  0  0999 V2000
   -6.2885    1.1424   -4.4209 N   0  0  0  0  0  0  0  0  0  0  0  0
   -5.5862    0.9021   -3.2214 C   0  0  0  0  0  0  0  0  0  0  0  0
   -4.7192    1.8055   -2.7328 N   0  0  0  0  0  0  0  0  0  0  0  0
   -4.0554    1.5654   -1.5883 C   0  0  0  0  0  0  0  0  0  0  0  0
   -4.2435    0.3981   -0.8911 C   0  0  0  0  0  0  0  0  0  0  0  0
   -3.6028    0.0838    0.2816 C   0  0  0  0  0  0  0  0  0  0  0  0
   -3.7885   -1.0780    0.9775 C   0  0  0  0  0  0  0  0  0  0  0  0
   -3.0715   -1.3404    2.2160 C   0  0  0  0  0  0  0  0  0  0  0  0
   -3.7475   -1.8394    3.2726 N   0  0  0  0  0  0  0  0  0  0  0  0
   -3.1392   -2.1035    4.4469 C   0  0  0  0  0  0  0  0  0  0  0  0
   -1.7906   -1.8672    4.6014 C   0  0  0  0  0  0  0  0  0  0  0  0
   -1.0979   -1.3706    3.5626 N   0  0  0  0  0  0  0  0  0  0  0  0
   -1.7263   -1.1137    2.3969 C   0  0  0  0  0  0  0  0  0  0  0  0
   -0.9891   -0.6064    1.3544 O   0  0  0  0  0  0  0  0  0  0  0  0
    0.3967   -0.3453    1.4579 C   0  0  0  0  0  0  0  0  0  0  0  0
    0.8303    0.9972    0.9122 C   0  0  0  0  0  0  0  0  0  0  0  0
    1.9709    0.3514    0.3331 N   0  0  0  0  0  0  0  0  0  0  0  0
    3.2950    0.7285   -0.0733 C   0  0  0  0  0  0  0  0  0  0  0  0
    3.7542    2.0058    0.0555 C   0  0  0  0  0  0  0  0  0  0  0  0
    5.0345    2.3730   -0.3369 C   0  0  0  0  0  0  0  0  0  0  0  0
    5.8681    1.4161   -0.8738 C   0  0  0  0  0  0  0  0  0  0  0  0
    7.1464    1.7535   -1.2724 C   0  0  0  0  0  0  0  0  0  0  0  0
    7.9520    0.7661   -1.8059 C   0  0  0  0  0  0  0  0  0  0  0  0
    7.4963   -0.5318   -1.9409 C   0  0  0  0  0  0  0  0  0  0  0  0
    6.2159   -0.8406   -1.5348 C   0  0  0  0  0  0  0  0  0  0  0  0
    5.3927    0.1278   -0.9992 C   0  0  0  0  0  0  0  0  0  0  0  0
    4.1262   -0.1870   -0.5996 N   0  0  0  0  0  0  0  0  0  0  0  0
    1.2278   -0.8925    0.3178 C   0  0  0  0  0  0  0  0  0  0  0  0
   -4.6944   -2.0026    0.4510 C   0  0  0  0  0  0  0  0  0  0  0  0
   -5.3608   -1.7272   -0.7263 C   0  0  0  0  0  0  0  0  0  0  0  0
   -5.1443   -0.5442   -1.3959 C   0  0  0  0  0  0  0  0  0  0  0  0
   -5.7766   -0.2425   -2.5463 N   0  0  0  0  0  0  0  0  0  0  0  0
   -6.9160    1.9433   -4.5989 H   0  0  0  0  0  0  0  0  0  0  0  0
   -6.1483    0.4294   -5.1951 H   0  0  0  0  0  0  0  0  0  0  0  0
   -3.3676    2.2977   -1.2135 H   0  0  0  0  0  0  0  0  0  0  0  0
   -2.9065    0.8068    0.6762 H   0  0  0  0  0  0  0  0  0  0  0  0
   -3.6913   -2.5024    5.2843 H   0  0  0  0  0  0  0  0  0  0  0  0
   -1.3206   -2.0851    5.5499 H   0  0  0  0  0  0  0  0  0  0  0  0
    0.8444   -0.5754    2.4272 H   0  0  0  0  0  0  0  0  0  0  0  0
    0.0708    1.3634    0.1841 H   0  0  0  0  0  0  0  0  0  0  0  0
    1.0524    1.7657    1.6782 H   0  0  0  0  0  0  0  0  0  0  0  0
    3.1045    2.7673    0.4776 H   0  0  0  0  0  0  0  0  0  0  0  0
    5.4158    3.3671   -0.2456 H   0  0  0  0  0  0  0  0  0  0  0  0
    7.4769    2.7761   -1.1554 H   0  0  0  0  0  0  0  0  0  0  0  0
    8.9481    1.0604   -2.1091 H   0  0  0  0  0  0  0  0  0  0  0  0
    8.1525   -1.2941   -2.3656 H   0  0  0  0  0  0  0  0  0  0  0  0
    5.8151   -1.8300   -1.6178 H   0  0  0  0  0  0  0  0  0  0  0  0
    0.6830   -0.9822   -0.6443 H   0  0  0  0  0  0  0  0  0  0  0  0
    1.8621   -1.7510    0.5869 H   0  0  0  0  0  0  0  0  0  0  0  0
   -4.8844   -2.9286    0.9457 H   0  0  0  0  0  0  0  0  0  0  0  0
   -6.0758   -2.4121   -1.1791 H   0  0  0  0  0  0  0  0  0  0  0  0
  1  2  1  0
  2  3  2  0
  3  4  1  0
  4  5  2  0
  5  6  1  0
  6  7  2  0
  7  8  1  0
  8  9  2  0
  9 10  1  0
 10 11  2  0
 11 12  1  0
 12 13  2  0
 13 14  1  0
 14 15  1  0
 15 16  1  0
 16 17  1  0
 17 18  1  0
 18 19  2  0
 19 20  1  0
 20 21  2  0
 21 22  1  0
 22 23  2  0
 23 24  1  0
 24 25  2  0
 25 26  1  0
 26 27  2  0
 17 28  1  0
  7 29  1  0
 29 30  2  0
 30 31  1  0
 31 32  2  0
 32  2  1  0
 31  5  1  0
 13  8  1  0
 28 15  1  0
 27 18  1  0
 26 21  1  0
  1 33  1  0
  1 34  1  0
  4 35  1  0
  6 36  1  0
 10 37  1  0
 11 38  1  0
 15 39  1  0
 16 40  1  0
 16 41  1  0
 19 42  1  0
 20 43  1  0
 22 44  1  0
 23 45  1  0
 24 46  1  0
 25 47  1  0
 28 48  1  0
 28 49  1  0
 29 50  1  0
 30 51  1  0
M  END
$$$$
