
     RDKit          3D

 33 34  0  0  0  0  0  0  0  0999 V2000
   -1.3265    1.3072    1.2706 C   0  0  2  0  0  0  0  0  0  0  0  0
   -2.1695    2.5476    1.5263 C   0  0  0  0  0  0  0  0  0  0  0  0
   -0.1395    1.7313    0.5740 N   0  0  0  0  0  0  0  0  0  0  0  0
    0.8211    0.7456    0.2163 C   0  0  0  0  0  0  0  0  0  0  0  0
    0.6276   -0.5314    0.2017 N   0  0  0  0  0  0  0  0  0  0  0  0
    1.7941   -1.2458   -0.2044 C   0  0  0  0  0  0  0  0  0  0  0  0
    1.5945   -2.4530   -0.5714 O   0  0  0  0  0  0  0  0  0  0  0  0
    3.1230   -0.5733   -0.1789 C   0  0  2  0  0  0  0  0  0  0  0  0
    3.8751   -0.8366    1.0768 C   0  0  0  0  0  0  0  0  0  0  0  0
    2.5126    1.1585   -0.2874 S   0  0  0  0  0  0  0  0  0  0  0  0
    3.9150   -0.8421   -1.4299 C   0  0  0  0  0  0  0  0  0  0  0  0
    3.1709   -0.3540   -2.5111 F   0  0  0  0  0  0  0  0  0  0  0  0
    5.0660   -0.0803   -1.3675 F   0  0  0  0  0  0  0  0  0  0  0  0
    4.2434   -2.1468   -1.6304 F   0  0  0  0  0  0  0  0  0  0  0  0
   -2.0960    0.2832    0.4907 C   0  0  0  0  0  0  0  0  0  0  0  0
   -1.9631    0.4090   -0.8909 C   0  0  0  0  0  0  0  0  0  0  0  0
   -1.2200    1.3529   -1.4831 F   0  0  0  0  0  0  0  0  0  0  0  0
   -2.6187   -0.4691   -1.7240 C   0  0  0  0  0  0  0  0  0  0  0  0
   -3.3982   -1.4609   -1.1543 C   0  0  0  0  0  0  0  0  0  0  0  0
   -3.5301   -1.5862    0.2084 C   0  0  0  0  0  0  0  0  0  0  0  0
   -2.8724   -0.7049    1.0521 C   0  0  0  0  0  0  0  0  0  0  0  0
   -1.1095    0.8599    2.2622 H   0  0  0  0  0  0  0  0  0  0  0  0
   -1.7971    3.0018    2.4707 H   0  0  0  0  0  0  0  0  0  0  0  0
   -1.9634    3.2707    0.7193 H   0  0  0  0  0  0  0  0  0  0  0  0
   -3.2413    2.3017    1.6272 H   0  0  0  0  0  0  0  0  0  0  0  0
    0.0491    2.7258    0.3195 H   0  0  0  0  0  0  0  0  0  0  0  0
    3.4292   -0.2117    1.9018 H   0  0  0  0  0  0  0  0  0  0  0  0
    3.7721   -1.9317    1.3297 H   0  0  0  0  0  0  0  0  0  0  0  0
    4.9449   -0.6506    0.9655 H   0  0  0  0  0  0  0  0  0  0  0  0
   -2.5278   -0.3876   -2.8078 H   0  0  0  0  0  0  0  0  0  0  0  0
   -3.9249   -2.1640   -1.7523 H   0  0  0  0  0  0  0  0  0  0  0  0
   -4.1191   -2.3325    0.7327 H   0  0  0  0  0  0  0  0  0  0  0  0
   -2.9218   -0.7328    2.1292 H   0  0  0  0  0  0  0  0  0  0  0  0
  1  2  1  0
  1  3  1  0
  3  4  1  0
  4  5  2  0
  5  6  1  0
  6  7  2  0
  6  8  1  0
  8  9  1  1
  8 10  1  0
  8 11  1  0
 11 12  1  0
 11 13  1  0
 11 14  1  0
  1 15  1  0
 15 16  2  0
 16 17  1  0
 16 18  1  0
 18 19  2  0
 19 20  1  0
 20 21  2  0
 10  4  1  0
 21 15  1  0
  1 22  1  1
  2 23  1  0
  2 24  1  0
  2 25  1  0
  3 26  1  0
  9 27  1  0
  9 28  1  0
  9 29  1  0
 18 30  1  0
 19 31  1  0
 20 32  1  0
 21 33  1  0
M  END
$$$$
