
     RDKit          3D

 48 50  0  0  0  0  0  0  0  0999 V2000
   -5.5934   -0.5772    1.2008 C   0  0  0  0  0  0  0  0  0  0  0  0
   -4.3896   -1.1191    0.6897 O   0  0  0  0  0  0  0  0  0  0  0  0
   -3.1591   -0.5466    0.8738 C   0  0  0  0  0  0  0  0  0  0  0  0
   -3.5922    0.4185    1.5408 O   0  0  0  0  0  0  0  0  0  0  0  0
   -1.8796   -1.0150    0.3981 C   0  0  0  0  0  0  0  0  0  0  0  0
   -1.8492   -2.1277   -0.3040 C   0  0  0  0  0  0  0  0  0  0  0  0
   -3.0712   -2.9070   -0.6189 C   0  0  0  0  0  0  0  0  0  0  0  0
   -0.5883   -2.5719   -0.7615 N   0  0  0  0  0  0  0  0  0  0  0  0
    0.6381   -1.9007   -0.5147 C   0  0  0  0  0  0  0  0  0  0  0  0
    1.9659   -2.3641   -0.9940 C   0  0  0  0  0  0  0  0  0  0  0  0
    0.5554   -0.7876    0.1949 C   0  0  0  0  0  0  0  0  0  0  0  0
   -0.6960   -0.1787    0.7543 C   0  0  0  0  0  0  0  0  0  0  0  0
   -0.8194    1.1399    0.0425 C   0  0  0  0  0  0  0  0  0  0  0  0
   -0.6102    1.1375   -1.3267 C   0  0  0  0  0  0  0  0  0  0  0  0
   -0.7096    2.3160   -2.0386 C   0  0  0  0  0  0  0  0  0  0  0  0
   -1.0135    3.5213   -1.4410 C   0  0  0  0  0  0  0  0  0  0  0  0
   -1.2220    3.5079   -0.0587 C   0  0  0  0  0  0  0  0  0  0  0  0
   -1.5296    4.4471    0.8747 N   0  0  0  0  0  0  0  0  0  0  0  0
   -1.6099    3.8938    2.0434 O   0  0  0  0  0  0  0  0  0  0  0  0
   -1.3664    2.6069    1.9343 N   0  0  0  0  0  0  0  0  0  0  0  0
   -1.1240    2.3378    0.6537 C   0  0  0  0  0  0  0  0  0  0  0  0
    1.7301    0.0317    0.5418 C   0  0  0  0  0  0  0  0  0  0  0  0
    1.7898    1.1101    1.2096 O   0  0  0  0  0  0  0  0  0  0  0  0
    3.0223   -0.2835    0.1608 O   0  0  0  0  0  0  0  0  0  0  0  0
    4.1339    0.4865    0.4858 C   0  0  0  0  0  0  0  0  0  0  0  0
    5.1923   -0.2653    1.2568 C   0  0  0  0  0  0  0  0  0  0  0  0
    4.7751    0.9481   -0.8068 C   0  0  0  0  0  0  0  0  0  0  0  0
   -5.7700    0.4195    0.7226 H   0  0  0  0  0  0  0  0  0  0  0  0
   -6.4103   -1.2794    0.9295 H   0  0  0  0  0  0  0  0  0  0  0  0
   -5.5582   -0.4639    2.3028 H   0  0  0  0  0  0  0  0  0  0  0  0
   -2.7851   -3.8562   -1.1431 H   0  0  0  0  0  0  0  0  0  0  0  0
   -3.5030   -3.2521    0.3476 H   0  0  0  0  0  0  0  0  0  0  0  0
   -3.7669   -2.3181   -1.2154 H   0  0  0  0  0  0  0  0  0  0  0  0
   -0.5534   -3.4578   -1.3220 H   0  0  0  0  0  0  0  0  0  0  0  0
    2.6628   -2.5768   -0.1655 H   0  0  0  0  0  0  0  0  0  0  0  0
    1.8173   -3.2700   -1.6417 H   0  0  0  0  0  0  0  0  0  0  0  0
    2.3235   -1.5486   -1.6795 H   0  0  0  0  0  0  0  0  0  0  0  0
   -0.5972   -0.0156    1.8262 H   0  0  0  0  0  0  0  0  0  0  0  0
   -0.3659    0.2486   -1.8997 H   0  0  0  0  0  0  0  0  0  0  0  0
   -0.5461    2.3154   -3.1105 H   0  0  0  0  0  0  0  0  0  0  0  0
   -1.1030    4.4694   -1.9520 H   0  0  0  0  0  0  0  0  0  0  0  0
    3.9195    1.3959    1.0863 H   0  0  0  0  0  0  0  0  0  0  0  0
    6.1614    0.2498    1.0531 H   0  0  0  0  0  0  0  0  0  0  0  0
    5.0618   -0.1478    2.3690 H   0  0  0  0  0  0  0  0  0  0  0  0
    5.3142   -1.3120    0.9481 H   0  0  0  0  0  0  0  0  0  0  0  0
    5.4742    0.1634   -1.2108 H   0  0  0  0  0  0  0  0  0  0  0  0
    3.9696    1.0496   -1.5629 H   0  0  0  0  0  0  0  0  0  0  0  0
    5.2751    1.9282   -0.6730 H   0  0  0  0  0  0  0  0  0  0  0  0
  1  2  1  0
  2  3  1  0
  3  4  2  0
  3  5  1  0
  5  6  2  0
  6  7  1  0
  6  8  1  0
  8  9  1  0
  9 10  1  0
  9 11  2  0
 11 12  1  0
 12 13  1  0
 13 14  2  0
 14 15  1  0
 15 16  2  0
 16 17  1  0
 17 18  2  0
 18 19  1  0
 19 20  1  0
 20 21  2  0
 11 22  1  0
 22 23  2  0
 22 24  1  0
 24 25  1  0
 25 26  1  0
 25 27  1  0
 12  5  1  0
 21 13  1  0
 21 17  1  0
  1 28  1  0
  1 29  1  0
  1 30  1  0
  7 31  1  0
  7 32  1  0
  7 33  1  0
  8 34  1  0
 10 35  1  0
 10 36  1  0
 10 37  1  0
 12 38  1  0
 14 39  1  0
 15 40  1  0
 16 41  1  0
 25 42  1  0
 26 43  1  0
 26 44  1  0
 26 45  1  0
 27 46  1  0
 27 47  1  0
 27 48  1  0
M  END
$$$$
