
     RDKit          3D

 62 63  0  0  0  0  0  0  0  0999 V2000
   -3.6029    0.3742    2.8471 C   0  0  0  0  0  0  0  0  0  0  0  0
   -2.4688    0.1331    2.0137 N   0  0  0  0  0  0  0  0  0  0  0  0
   -2.6321    0.5153    0.6469 C   0  0  2  0  0  0  0  0  0  0  0  0
   -3.4172   -0.5360   -0.0909 C   0  0  0  0  0  0  0  0  0  0  0  0
   -4.7725   -0.8113    0.3764 C   0  0  0  0  0  0  0  0  0  0  0  0
   -5.8294   -0.0460   -0.0912 C   0  0  0  0  0  0  0  0  0  0  0  0
   -7.1266   -0.2820    0.2839 C   0  0  0  0  0  0  0  0  0  0  0  0
   -7.3474   -1.3214    1.1546 C   0  0  0  0  0  0  0  0  0  0  0  0
   -6.3210   -2.1045    1.6409 C   0  0  0  0  0  0  0  0  0  0  0  0
   -5.0422   -1.8372    1.2431 C   0  0  0  0  0  0  0  0  0  0  0  0
   -1.3100    0.7383   -0.0205 C   0  0  0  0  0  0  0  0  0  0  0  0
   -0.2964    0.3877    0.6063 O   0  0  0  0  0  0  0  0  0  0  0  0
   -1.2362    1.3137   -1.2856 N   0  0  0  0  0  0  0  0  0  0  0  0
   -2.4268    1.8482   -2.0046 C   0  0  0  0  0  0  0  0  0  0  0  0
   -1.8828    3.2202   -2.4331 C   0  0  0  0  0  0  0  0  0  0  0  0
   -0.3510    3.1075   -2.3406 C   0  0  0  0  0  0  0  0  0  0  0  0
   -0.1973    1.5867   -2.2387 C   0  0  1  0  0  0  0  0  0  0  0  0
    1.1443    1.1542   -1.9950 C   0  0  0  0  0  0  0  0  0  0  0  0
    2.0730    2.0177   -2.2326 O   0  0  0  0  0  0  0  0  0  0  0  0
    1.5649   -0.0995   -1.5332 N   0  0  0  0  0  0  0  0  0  0  0  0
    2.9505   -0.4651   -1.2993 C   0  0  2  0  0  0  0  0  0  0  0  0
    3.3085   -1.5453   -2.2434 C   0  0  0  0  0  0  0  0  0  0  0  0
    4.4080   -2.0683   -2.3342 O   0  0  0  0  0  0  0  0  0  0  0  0
    3.2083   -0.8961    0.0949 C   0  0  0  0  0  0  0  0  0  0  0  0
    4.6459   -1.2707    0.3417 C   0  0  0  0  0  0  0  0  0  0  0  0
    5.5908   -0.1229    0.0635 C   0  0  0  0  0  0  0  0  0  0  0  0
    6.9299   -0.5990    0.3337 N   0  0  0  0  0  0  0  0  0  0  0  0
    7.3768   -0.7849    1.5303 C   0  0  0  0  0  0  0  0  0  0  0  0
    8.7027   -1.2548    1.7335 N   0  0  0  0  0  0  0  0  0  0  0  0
    6.5933   -0.5385    2.6904 N   0  0  0  0  0  0  0  0  0  0  0  0
   -4.4630    0.7488    2.2807 H   0  0  0  0  0  0  0  0  0  0  0  0
   -3.9224   -0.5101    3.4632 H   0  0  0  0  0  0  0  0  0  0  0  0
   -3.3727    1.2167    3.5821 H   0  0  0  0  0  0  0  0  0  0  0  0
   -1.5701    0.4498    2.4295 H   0  0  0  0  0  0  0  0  0  0  0  0
   -3.2447    1.4459    0.6265 H   0  0  0  0  0  0  0  0  0  0  0  0
   -3.4184   -0.3205   -1.1867 H   0  0  0  0  0  0  0  0  0  0  0  0
   -2.8446   -1.5333   -0.0477 H   0  0  0  0  0  0  0  0  0  0  0  0
   -5.6677    0.7786   -0.7801 H   0  0  0  0  0  0  0  0  0  0  0  0
   -7.9671    0.3036   -0.0694 H   0  0  0  0  0  0  0  0  0  0  0  0
   -8.3555   -1.5324    1.4684 H   0  0  0  0  0  0  0  0  0  0  0  0
   -6.5603   -2.9185    2.3322 H   0  0  0  0  0  0  0  0  0  0  0  0
   -4.2274   -2.4503    1.6222 H   0  0  0  0  0  0  0  0  0  0  0  0
   -2.5822    1.1757   -2.8557 H   0  0  0  0  0  0  0  0  0  0  0  0
   -3.2860    1.9708   -1.3402 H   0  0  0  0  0  0  0  0  0  0  0  0
   -2.1869    3.4480   -3.4727 H   0  0  0  0  0  0  0  0  0  0  0  0
   -2.2574    4.0156   -1.7681 H   0  0  0  0  0  0  0  0  0  0  0  0
    0.1366    3.5107   -3.2316 H   0  0  0  0  0  0  0  0  0  0  0  0
   -0.0318    3.5869   -1.4007 H   0  0  0  0  0  0  0  0  0  0  0  0
   -0.5944    1.2325   -3.2469 H   0  0  0  0  0  0  0  0  0  0  0  0
    0.8662   -0.8448   -1.3620 H   0  0  0  0  0  0  0  0  0  0  0  0
    3.5535    0.4285   -1.5578 H   0  0  0  0  0  0  0  0  0  0  0  0
    2.5311   -1.9142   -2.9215 H   0  0  0  0  0  0  0  0  0  0  0  0
    2.9431   -0.0690    0.7903 H   0  0  0  0  0  0  0  0  0  0  0  0
    2.6089   -1.8221    0.3323 H   0  0  0  0  0  0  0  0  0  0  0  0
    4.7582   -1.4547    1.4599 H   0  0  0  0  0  0  0  0  0  0  0  0
    4.9829   -2.1922   -0.1225 H   0  0  0  0  0  0  0  0  0  0  0  0
    5.5816    0.1500   -1.0310 H   0  0  0  0  0  0  0  0  0  0  0  0
    5.3373    0.7376    0.6886 H   0  0  0  0  0  0  0  0  0  0  0  0
    9.1970   -1.7964    0.9808 H   0  0  0  0  0  0  0  0  0  0  0  0
    9.2320   -1.0865    2.6193 H   0  0  0  0  0  0  0  0  0  0  0  0
    6.3252    0.4418    2.9316 H   0  0  0  0  0  0  0  0  0  0  0  0
    6.2627   -1.2918    3.3290 H   0  0  0  0  0  0  0  0  0  0  0  0
  1  2  1  0
  2  3  1  0
  3  4  1  0
  4  5  1  0
  5  6  2  0
  6  7  1  0
  7  8  2  0
  8  9  1  0
  9 10  2  0
  3 11  1  0
 11 12  2  0
 11 13  1  0
 13 14  1  0
 14 15  1  0
 15 16  1  0
 16 17  1  0
 17 18  1  0
 18 19  2  0
 18 20  1  0
 20 21  1  0
 21 22  1  0
 22 23  2  0
 21 24  1  0
 24 25  1  0
 25 26  1  0
 26 27  1  0
 27 28  2  3
 28 29  1  0
 28 30  1  0
 10  5  1  0
 17 13  1  0
  1 31  1  0
  1 32  1  0
  1 33  1  0
  2 34  1  0
  3 35  1  1
  4 36  1  0
  4 37  1  0
  6 38  1  0
  7 39  1  0
  8 40  1  0
  9 41  1  0
 10 42  1  0
 14 43  1  0
 14 44  1  0
 15 45  1  0
 15 46  1  0
 16 47  1  0
 16 48  1  0
 17 49  1  6
 20 50  1  0
 21 51  1  6
 22 52  1  0
 24 53  1  0
 24 54  1  0
 25 55  1  0
 25 56  1  0
 26 57  1  0
 26 58  1  0
 29 59  1  0
 29 60  1  0
 30 61  1  0
 30 62  1  0
M  END
$$$$
