
     RDKit          3D

 54 55  0  0  0  0  0  0  0  0999 V2000
    6.1171   -1.0463    3.5208 C   0  0  0  0  0  0  0  0  0  0  0  0
    4.8504    0.1622    3.3614 S   0  0  0  0  0  6  0  0  0  0  0  0
    5.4588    1.5136    3.0656 O   0  0  0  0  0  0  0  0  0  0  0  0
    4.1305    0.2836    4.6718 O   0  0  0  0  0  0  0  0  0  0  0  0
    3.6912   -0.2698    2.1569 N   0  0  0  0  0  0  0  0  0  0  0  0
    4.3110   -0.3779    0.8455 C   0  0  0  0  0  0  0  0  0  0  0  0
    3.2505   -0.7505   -0.1255 C   0  0  0  0  0  0  0  0  0  0  0  0
    2.8252   -1.9462   -0.5178 N   0  0  0  0  0  0  0  0  0  0  0  0
    1.8909   -1.7680   -1.3718 O   0  0  0  0  0  0  0  0  0  0  0  0
    1.6463   -0.5036   -1.5920 C   0  0  0  0  0  0  0  0  0  0  0  0
    0.6637    0.0937   -2.4891 C   0  0  2  0  0  0  0  0  0  0  0  0
   -0.7604   -0.2680   -2.1464 C   0  0  0  0  0  0  0  0  0  0  0  0
   -1.1401    0.1826   -0.7502 C   0  0  0  0  0  0  0  0  0  0  0  0
   -2.5547   -0.1996   -0.4643 C   0  0  0  0  0  0  0  0  0  0  0  0
   -3.0793    0.1742    0.8713 C   0  0  0  0  0  0  0  0  0  0  0  0
   -4.5252   -0.3070    0.9472 C   0  0  0  0  0  0  0  0  0  0  0  0
   -5.2586    0.2741    2.1119 C   0  0  0  0  0  0  0  0  0  0  0  0
   -4.3176    0.7032    3.2098 C   0  0  0  0  0  0  0  0  0  0  0  0
   -3.3022    1.7096    2.7407 C   0  0  0  0  0  0  0  0  0  0  0  0
   -3.0777    1.6072    1.2255 C   0  0  0  0  0  0  0  0  0  0  0  0
    0.8839   -0.1900   -3.9529 C   0  0  0  0  0  0  0  0  0  0  0  0
    0.8539   -1.6127   -4.3110 C   0  0  0  0  0  0  0  0  0  0  0  0
    0.6520   -2.5722   -3.5297 O   0  0  0  0  0  0  0  0  0  0  0  0
    1.0755   -1.9392   -5.6798 N   0  0  0  0  0  0  0  0  0  0  0  0
    1.0636   -3.2144   -6.0852 O   0  0  0  0  0  0  0  0  0  0  0  0
    2.5212    0.1565   -0.7900 N   0  0  0  0  0  0  0  0  0  0  0  0
    5.8382   -2.0268    3.0833 H   0  0  0  0  0  0  0  0  0  0  0  0
    6.3389   -1.2241    4.5999 H   0  0  0  0  0  0  0  0  0  0  0  0
    7.0375   -0.7217    3.0212 H   0  0  0  0  0  0  0  0  0  0  0  0
    2.9480    0.4744    2.1693 H   0  0  0  0  0  0  0  0  0  0  0  0
    4.8135    0.5493    0.5394 H   0  0  0  0  0  0  0  0  0  0  0  0
    5.0704   -1.1880    0.9242 H   0  0  0  0  0  0  0  0  0  0  0  0
    0.7197    1.2194   -2.4025 H   0  0  0  0  0  0  0  0  0  0  0  0
   -0.7999   -1.3965   -2.1188 H   0  0  0  0  0  0  0  0  0  0  0  0
   -1.4666    0.0376   -2.9176 H   0  0  0  0  0  0  0  0  0  0  0  0
   -0.9083    1.2399   -0.6082 H   0  0  0  0  0  0  0  0  0  0  0  0
   -0.4507   -0.3792   -0.0665 H   0  0  0  0  0  0  0  0  0  0  0  0
   -3.1906    0.2245   -1.2702 H   0  0  0  0  0  0  0  0  0  0  0  0
   -2.6384   -1.3031   -0.5647 H   0  0  0  0  0  0  0  0  0  0  0  0
   -2.5449   -0.3873    1.6817 H   0  0  0  0  0  0  0  0  0  0  0  0
   -4.5833   -1.4107    0.8838 H   0  0  0  0  0  0  0  0  0  0  0  0
   -5.0124    0.0849    0.0139 H   0  0  0  0  0  0  0  0  0  0  0  0
   -5.9129   -0.5130    2.5395 H   0  0  0  0  0  0  0  0  0  0  0  0
   -5.8798    1.1554    1.8467 H   0  0  0  0  0  0  0  0  0  0  0  0
   -4.9345    1.1774    4.0100 H   0  0  0  0  0  0  0  0  0  0  0  0
   -3.8282   -0.1743    3.6816 H   0  0  0  0  0  0  0  0  0  0  0  0
   -3.5613    2.7528    3.0288 H   0  0  0  0  0  0  0  0  0  0  0  0
   -2.3497    1.4790    3.2694 H   0  0  0  0  0  0  0  0  0  0  0  0
   -2.1496    2.1530    1.0331 H   0  0  0  0  0  0  0  0  0  0  0  0
   -3.9806    2.0899    0.7691 H   0  0  0  0  0  0  0  0  0  0  0  0
    1.8258    0.2552   -4.3308 H   0  0  0  0  0  0  0  0  0  0  0  0
    0.0181    0.2945   -4.4892 H   0  0  0  0  0  0  0  0  0  0  0  0
    1.2524   -1.2090   -6.4053 H   0  0  0  0  0  0  0  0  0  0  0  0
    0.4593   -3.3751   -6.8438 H   0  0  0  0  0  0  0  0  0  0  0  0
  1  2  1  0
  2  3  2  0
  2  4  2  0
  2  5  1  0
  5  6  1  0
  6  7  1  0
  7  8  2  0
  8  9  1  0
  9 10  1  0
 10 11  1  0
 11 12  1  0
 12 13  1  0
 13 14  1  0
 14 15  1  0
 15 16  1  0
 16 17  1  0
 17 18  1  0
 18 19  1  0
 19 20  1  0
 11 21  1  0
 21 22  1  0
 22 23  2  0
 22 24  1  0
 24 25  1  0
 10 26  2  0
 26  7  1  0
 20 15  1  0
  1 27  1  0
  1 28  1  0
  1 29  1  0
  5 30  1  0
  6 31  1  0
  6 32  1  0
 11 33  1  6
 12 34  1  0
 12 35  1  0
 13 36  1  0
 13 37  1  0
 14 38  1  0
 14 39  1  0
 15 40  1  0
 16 41  1  0
 16 42  1  0
 17 43  1  0
 17 44  1  0
 18 45  1  0
 18 46  1  0
 19 47  1  0
 19 48  1  0
 20 49  1  0
 20 50  1  0
 21 51  1  0
 21 52  1  0
 24 53  1  0
 25 54  1  0
M  END
$$$$
