
     RDKit          3D

 67 72  0  0  0  0  0  0  0  0999 V2000
    0.8347   -0.2172   -1.1874 C   0  0  0  0  0  0  0  0  0  0  0  0
    0.4582    1.2240   -0.8834 C   0  0  0  0  0  0  0  0  0  0  0  0
   -0.2547    1.7989   -2.0871 C   0  0  0  0  0  0  0  0  0  0  0  0
   -0.3508    1.2254    0.3531 C   0  0  0  0  0  0  0  0  0  0  0  0
   -1.6405    0.7008    0.4983 C   0  0  0  0  0  0  0  0  0  0  0  0
   -2.4126   -0.0061   -0.5148 C   0  0  0  0  0  0  0  0  0  0  0  0
   -2.1229   -0.3975   -1.7507 N   0  0  0  0  0  0  0  0  0  0  0  0
   -3.1671   -1.0227   -2.3039 N   0  0  0  0  0  0  0  0  0  0  0  0
   -4.1343   -1.0150   -1.3729 C   0  0  0  0  0  0  0  0  0  0  0  0
   -5.4008   -1.5462   -1.4919 O   0  0  0  0  0  0  0  0  0  0  0  0
   -6.3710   -1.5191   -0.4840 C   0  0  0  0  0  0  0  0  0  0  0  0
   -6.9237   -2.8975   -0.2395 C   0  0  0  0  0  0  0  0  0  0  0  0
   -8.0102   -2.9203    0.8009 C   0  0  0  0  0  0  0  0  0  0  0  0
   -8.5936   -1.6205    1.0287 N   0  0  0  0  0  0  0  0  0  0  0  0
   -8.8159   -1.0112   -0.2780 C   0  0  0  0  0  0  0  0  0  0  0  0
   -7.5283   -0.6533   -0.9607 C   0  0  0  0  0  0  0  0  0  0  0  0
   -3.6540   -0.4034   -0.3199 O   0  0  0  0  0  0  0  0  0  0  0  0
   -2.0432    0.9500    1.7931 C   0  0  0  0  0  0  0  0  0  0  0  0
   -1.0482    1.5954    2.4105 N   0  0  0  0  0  0  0  0  0  0  0  0
   -0.9547    2.0584    3.6430 N   0  0  0  0  0  0  0  0  0  0  0  0
    0.1585    2.7067    4.0662 C   0  0  0  0  0  0  0  0  0  0  0  0
    1.1927    2.9029    3.2722 N   0  0  0  0  0  0  0  0  0  0  0  0
    1.1412    2.4364    1.9764 C   0  0  0  0  0  0  0  0  0  0  0  0
    2.2794    2.6953    1.1626 N   0  0  0  0  0  0  0  0  0  0  0  0
    3.5004    2.0029    1.2960 C   0  0  0  0  0  0  0  0  0  0  0  0
    4.0469    1.2831    0.2661 C   0  0  0  0  0  0  0  0  0  0  0  0
    5.2703    0.5888    0.3765 C   0  0  0  0  0  0  0  0  0  0  0  0
    5.7891   -0.1369   -0.7738 C   0  0  0  0  0  0  0  0  0  0  0  0
    5.0582   -0.3187   -1.8029 O   0  0  0  0  0  0  0  0  0  0  0  0
    7.0832   -0.6825   -0.8655 N   0  0  0  0  0  0  0  0  0  0  0  0
    7.5456   -1.4098   -2.0573 C   0  0  0  0  0  0  0  0  0  0  0  0
    8.9450   -1.1326   -2.5161 C   0  0  0  0  0  0  0  0  0  0  0  0
    8.6229   -2.3989   -1.8020 C   0  0  0  0  0  0  0  0  0  0  0  0
    5.8974    0.6691    1.5834 C   0  0  0  0  0  0  0  0  0  0  0  0
    7.0607    0.0370    1.8008 F   0  0  0  0  0  0  0  0  0  0  0  0
    5.3486    1.4036    2.6455 C   0  0  0  0  0  0  0  0  0  0  0  0
    4.1569    2.0736    2.5197 C   0  0  0  0  0  0  0  0  0  0  0  0
    3.6783    2.7870    3.5844 F   0  0  0  0  0  0  0  0  0  0  0  0
    0.0092    1.7852    1.5668 C   0  0  0  0  0  0  0  0  0  0  0  0
    0.6172   -0.4735   -2.2582 H   0  0  0  0  0  0  0  0  0  0  0  0
    1.9092   -0.4347   -0.9800 H   0  0  0  0  0  0  0  0  0  0  0  0
    0.2893   -0.9262   -0.4948 H   0  0  0  0  0  0  0  0  0  0  0  0
    1.4116    1.7677   -0.7596 H   0  0  0  0  0  0  0  0  0  0  0  0
   -0.2728    1.1650   -2.9678 H   0  0  0  0  0  0  0  0  0  0  0  0
   -1.2554    2.1781   -1.8267 H   0  0  0  0  0  0  0  0  0  0  0  0
    0.3184    2.7351   -2.4125 H   0  0  0  0  0  0  0  0  0  0  0  0
   -5.9868   -1.0885    0.4726 H   0  0  0  0  0  0  0  0  0  0  0  0
   -6.0772   -3.5528    0.0625 H   0  0  0  0  0  0  0  0  0  0  0  0
   -7.3131   -3.3040   -1.2106 H   0  0  0  0  0  0  0  0  0  0  0  0
   -7.6042   -3.2947    1.7631 H   0  0  0  0  0  0  0  0  0  0  0  0
   -8.8330   -3.5773    0.4257 H   0  0  0  0  0  0  0  0  0  0  0  0
   -8.0453   -1.0147    1.6509 H   0  0  0  0  0  0  0  0  0  0  0  0
   -9.4009   -0.0996   -0.1077 H   0  0  0  0  0  0  0  0  0  0  0  0
   -9.4150   -1.7284   -0.8672 H   0  0  0  0  0  0  0  0  0  0  0  0
   -7.5801   -0.7073   -2.0560 H   0  0  0  0  0  0  0  0  0  0  0  0
   -7.2116    0.3957   -0.7095 H   0  0  0  0  0  0  0  0  0  0  0  0
   -3.0169    0.6552    2.2094 H   0  0  0  0  0  0  0  0  0  0  0  0
    0.2045    3.0755    5.0867 H   0  0  0  0  0  0  0  0  0  0  0  0
    2.2201    3.4521    0.4560 H   0  0  0  0  0  0  0  0  0  0  0  0
    3.5920    1.2031   -0.7146 H   0  0  0  0  0  0  0  0  0  0  0  0
    7.7674   -0.5911   -0.1030 H   0  0  0  0  0  0  0  0  0  0  0  0
    6.7510   -1.5763   -2.7846 H   0  0  0  0  0  0  0  0  0  0  0  0
    9.1290   -1.2389   -3.6097 H   0  0  0  0  0  0  0  0  0  0  0  0
    9.4603   -0.2893   -2.0348 H   0  0  0  0  0  0  0  0  0  0  0  0
    9.0962   -2.4480   -0.7767 H   0  0  0  0  0  0  0  0  0  0  0  0
    8.7196   -3.3474   -2.3350 H   0  0  0  0  0  0  0  0  0  0  0  0
    5.8756    1.4504    3.6032 H   0  0  0  0  0  0  0  0  0  0  0  0
  1  2  1  0
  2  3  1  0
  2  4  1  0
  4  5  1  0
  5  6  1  0
  6  7  2  0
  7  8  1  0
  8  9  2  0
  9 10  1  0
 10 11  1  0
 11 12  1  0
 12 13  1  0
 13 14  1  0
 14 15  1  0
 15 16  1  0
  9 17  1  0
  5 18  2  0
 18 19  1  0
 19 20  1  0
 20 21  2  0
 21 22  1  0
 22 23  2  0
 23 24  1  0
 24 25  1  0
 25 26  2  0
 26 27  1  0
 27 28  1  0
 28 29  2  0
 28 30  1  0
 30 31  1  0
 31 32  1  0
 32 33  1  0
 27 34  2  0
 34 35  1  0
 34 36  1  0
 36 37  2  0
 37 38  1  0
 23 39  1  0
 39  4  2  0
 17  6  1  0
 39 19  1  0
 16 11  1  0
 37 25  1  0
 33 31  1  0
  1 40  1  0
  1 41  1  0
  1 42  1  0
  2 43  1  0
  3 44  1  0
  3 45  1  0
  3 46  1  0
 11 47  1  0
 12 48  1  0
 12 49  1  0
 13 50  1  0
 13 51  1  0
 14 52  1  0
 15 53  1  0
 15 54  1  0
 16 55  1  0
 16 56  1  0
 18 57  1  0
 21 58  1  0
 24 59  1  0
 26 60  1  0
 30 61  1  0
 31 62  1  0
 32 63  1  0
 32 64  1  0
 33 65  1  0
 33 66  1  0
 36 67  1  0
M  END
$$$$
