
     RDKit          3D

 54 56  0  0  0  0  0  0  0  0999 V2000
   11.5695    0.9153   -1.2184 N   0  0  0  0  0  0  0  0  0  0  0  0
   10.3992    0.9585   -1.3130 C   0  0  0  0  0  0  0  0  0  0  0  0
    8.9622    0.9888   -1.4329 C   0  0  0  0  0  0  0  0  0  0  0  0
    8.1705    0.3579   -0.4808 C   0  0  0  0  0  0  0  0  0  0  0  0
    6.7987    0.3776   -0.5931 C   0  0  0  0  0  0  0  0  0  0  0  0
    6.1386    1.0070   -1.6297 C   0  0  0  0  0  0  0  0  0  0  0  0
    4.7530    1.0156   -1.7241 O   0  0  0  0  0  0  0  0  0  0  0  0
    3.7117    0.0898   -0.7713 P   0  0  0  0  0  5  0  0  0  0  0  0
    4.0059    0.1713    0.7123 O   0  0  0  0  0  0  0  0  0  0  0  0
    3.8664   -1.5400   -1.2201 O   0  0  0  0  0  1  0  0  0  0  0  0
    1.9565    0.5418   -1.0181 C   0  0  0  0  0  0  0  0  0  0  0  0
    1.1828   -0.4493   -0.3058 N   0  0  0  0  0  0  0  0  0  0  0  0
   -0.2565   -0.3491   -0.2876 C   0  0  0  0  0  0  0  0  0  0  0  0
   -0.7922    0.5893   -0.8872 O   0  0  0  0  0  0  0  0  0  0  0  0
   -0.9725   -1.3787    0.4477 C   0  0  0  0  0  0  0  0  0  0  0  0
   -2.2437   -1.3143    0.4836 N   0  0  0  0  0  0  0  0  0  0  0  0
   -3.0482   -0.3918   -0.0822 O   0  0  0  0  0  0  0  0  0  0  0  0
   -3.3752    0.7476    0.7444 C   0  0  0  0  0  0  0  0  0  0  0  0
   -4.3278    0.2897    1.8411 C   0  0  0  0  0  0  0  0  0  0  0  0
   -5.6070   -0.3071    1.3139 C   0  0  0  0  0  0  0  0  0  0  0  0
   -6.3648    0.6506    0.5471 N   0  0  0  0  0  4  0  0  0  0  0  0
   -6.2360    0.8433   -0.7565 C   0  0  0  0  0  0  0  0  0  0  0  0
   -7.0185    1.7677   -1.4606 C   0  0  0  0  0  0  0  0  0  0  0  0
   -7.9667    2.5232   -0.8049 C   0  0  0  0  0  0  0  0  0  0  0  0
   -8.1006    2.3218    0.5561 C   0  0  0  0  0  0  0  0  0  0  0  0
   -7.3049    1.3995    1.1946 C   0  0  0  0  0  0  0  0  0  0  0  0
   -0.2476   -2.4633    1.1387 C   0  0  0  0  0  0  0  0  0  0  0  0
    0.2823   -3.6095    0.7158 C   0  0  0  0  0  0  0  0  0  0  0  0
    0.8927   -4.4419    1.5746 C   0  0  0  0  0  0  0  0  0  0  0  0
    0.9514   -4.0696    2.9076 C   0  0  0  0  0  0  0  0  0  0  0  0
    0.0937   -2.4726    2.8899 S   0  0  0  0  0  0  0  0  0  0  0  0
    6.9342    1.6335   -2.5782 C   0  0  0  0  0  0  0  0  0  0  0  0
    8.3198    1.6210   -2.4731 C   0  0  0  0  0  0  0  0  0  0  0  0
    9.0949    2.2487   -3.4152 F   0  0  0  0  0  0  0  0  0  0  0  0
    8.6904   -0.1351    0.3344 H   0  0  0  0  0  0  0  0  0  0  0  0
    6.2021   -0.1243    0.1645 H   0  0  0  0  0  0  0  0  0  0  0  0
    1.7712    1.5693   -0.6180 H   0  0  0  0  0  0  0  0  0  0  0  0
    1.7488    0.4552   -2.1076 H   0  0  0  0  0  0  0  0  0  0  0  0
    1.6334   -1.2630    0.2157 H   0  0  0  0  0  0  0  0  0  0  0  0
   -3.9390    1.4288    0.1039 H   0  0  0  0  0  0  0  0  0  0  0  0
   -2.4911    1.1724    1.2303 H   0  0  0  0  0  0  0  0  0  0  0  0
   -3.8053   -0.4631    2.4992 H   0  0  0  0  0  0  0  0  0  0  0  0
   -4.5987    1.1628    2.4703 H   0  0  0  0  0  0  0  0  0  0  0  0
   -6.2460   -0.7062    2.1339 H   0  0  0  0  0  0  0  0  0  0  0  0
   -5.3952   -1.1485    0.6003 H   0  0  0  0  0  0  0  0  0  0  0  0
   -5.4849    0.2513   -1.2943 H   0  0  0  0  0  0  0  0  0  0  0  0
   -6.8817    1.8977   -2.5318 H   0  0  0  0  0  0  0  0  0  0  0  0
   -8.5500    3.2195   -1.3787 H   0  0  0  0  0  0  0  0  0  0  0  0
   -8.8396    2.9087    1.0678 H   0  0  0  0  0  0  0  0  0  0  0  0
   -7.4046    1.2332    2.2753 H   0  0  0  0  0  0  0  0  0  0  0  0
    0.2098   -3.8689   -0.3860 H   0  0  0  0  0  0  0  0  0  0  0  0
    1.3568   -5.4217    1.2686 H   0  0  0  0  0  0  0  0  0  0  0  0
    1.3803   -4.5603    3.7974 H   0  0  0  0  0  0  0  0  0  0  0  0
    6.4215    2.1196   -3.3814 H   0  0  0  0  0  0  0  0  0  0  0  0
  1  2  3  0
  2  3  1  0
  3  4  2  0
  4  5  1  0
  5  6  2  0
  6  7  1  0
  7  8  1  0
  8  9  2  0
  8 10  1  0
  8 11  1  0
 11 12  1  0
 12 13  1  0
 13 14  2  0
 13 15  1  0
 15 16  2  0
 16 17  1  0
 17 18  1  0
 18 19  1  0
 19 20  1  0
 20 21  1  0
 21 22  2  0
 22 23  1  0
 23 24  2  0
 24 25  1  0
 25 26  2  0
 15 27  1  0
 27 28  2  0
 28 29  1  0
 29 30  2  0
 30 31  1  0
  6 32  1  0
 32 33  2  0
 33 34  1  0
 33  3  1  0
 26 21  1  0
 31 27  1  0
  4 35  1  0
  5 36  1  0
 11 37  1  0
 11 38  1  0
 12 39  1  0
 18 40  1  0
 18 41  1  0
 19 42  1  0
 19 43  1  0
 20 44  1  0
 20 45  1  0
 22 46  1  0
 23 47  1  0
 24 48  1  0
 25 49  1  0
 26 50  1  0
 28 51  1  0
 29 52  1  0
 30 53  1  0
 32 54  1  0
M  CHG  2  10  -1  21   1
M  END
$$$$
