
     RDKit          3D

 56 61  0  0  0  0  0  0  0  0999 V2000
   -7.7019    3.3039   -0.0468 C   0  0  0  0  0  0  0  0  0  0  0  0
   -6.5868    4.2730   -0.3687 C   0  0  0  0  0  0  0  0  0  0  0  0
   -5.4948    3.6399   -0.9873 O   0  0  0  0  0  0  0  0  0  0  0  0
   -4.7655    2.6150   -0.3997 C   0  0  0  0  0  0  0  0  0  0  0  0
   -5.1214    2.2524    0.7474 O   0  0  0  0  0  0  0  0  0  0  0  0
   -3.6410    2.0070   -1.1095 C   0  0  0  0  0  0  0  0  0  0  0  0
   -3.1983    2.3339   -2.3305 N   0  0  0  0  0  0  0  0  0  0  0  0
   -2.1621    1.5332   -2.5842 C   0  0  0  0  0  0  0  0  0  0  0  0
   -1.9224    0.6657   -1.5086 C   0  0  0  0  0  0  0  0  0  0  0  0
   -2.8649    0.9725   -0.5769 C   0  0  0  0  0  0  0  0  0  0  0  0
   -2.9244    0.2805    0.6633 N   0  0  0  0  0  0  0  0  0  0  0  0
   -1.9532   -0.7330    0.8598 C   0  0  0  0  0  0  0  0  0  0  0  0
   -1.0316   -1.0523   -0.0226 C   0  0  0  0  0  0  0  0  0  0  0  0
   -0.0648   -2.1351    0.2990 C   0  0  0  0  0  0  0  0  0  0  0  0
    1.0865   -2.0958   -0.2492 O   0  0  0  0  0  0  0  0  0  0  0  0
   -0.4603   -3.2006    1.2248 C   0  0  0  0  0  0  0  0  0  0  0  0
   -1.8380   -2.9648    1.7850 C   0  0  0  0  0  0  0  0  0  0  0  0
   -1.9751   -1.5028    2.1675 C   0  0  0  0  0  0  0  0  0  0  0  0
   -0.9256   -0.3781   -1.2956 C   0  0  0  0  0  0  0  0  0  0  0  0
    0.4569    0.1011   -1.5697 C   0  0  0  0  0  0  0  0  0  0  0  0
    1.0684    0.0459   -2.7839 C   0  0  0  0  0  0  0  0  0  0  0  0
    2.3451    0.5932   -2.6087 C   0  0  0  0  0  0  0  0  0  0  0  0
    2.4104    0.9442   -1.2786 C   0  0  0  0  0  0  0  0  0  0  0  0
    3.8518    1.6994   -0.5196 S   0  0  0  0  0  0  0  0  0  0  0  0
    4.9639    0.4538    0.1205 C   0  0  0  0  0  0  0  0  0  0  0  0
    6.1093    0.7593    0.7319 N   0  0  0  0  0  0  0  0  0  0  0  0
    6.7363   -0.3818    1.1057 C   0  0  0  0  0  0  0  0  0  0  0  0
    7.9395   -0.6025    1.7640 C   0  0  0  0  0  0  0  0  0  0  0  0
    8.6998    0.4272    2.1452 F   0  0  0  0  0  0  0  0  0  0  0  0
    8.3360   -1.8797    2.0169 C   0  0  0  0  0  0  0  0  0  0  0  0
    9.5140   -2.1621    2.6633 F   0  0  0  0  0  0  0  0  0  0  0  0
    7.5238   -2.9203    1.6080 C   0  0  0  0  0  0  0  0  0  0  0  0
    7.9473   -4.1808    1.8751 F   0  0  0  0  0  0  0  0  0  0  0  0
    6.3328   -2.7033    0.9564 C   0  0  0  0  0  0  0  0  0  0  0  0
    5.9122   -1.4120    0.6901 C   0  0  0  0  0  0  0  0  0  0  0  0
    4.8387   -0.8759    0.0925 N   0  0  0  0  0  0  0  0  0  0  0  0
    1.2669    0.6327   -0.7046 O   0  0  0  0  0  0  0  0  0  0  0  0
   -7.4892    2.7285    0.8779 H   0  0  0  0  0  0  0  0  0  0  0  0
   -7.9105    2.6461   -0.9142 H   0  0  0  0  0  0  0  0  0  0  0  0
   -8.6338    3.8794    0.1505 H   0  0  0  0  0  0  0  0  0  0  0  0
   -7.0011    4.9928   -1.1235 H   0  0  0  0  0  0  0  0  0  0  0  0
   -6.3238    4.8157    0.5479 H   0  0  0  0  0  0  0  0  0  0  0  0
   -3.6042    3.0741   -2.9403 H   0  0  0  0  0  0  0  0  0  0  0  0
   -1.5696    1.5217   -3.4717 H   0  0  0  0  0  0  0  0  0  0  0  0
   -3.6579    0.5458    1.3453 H   0  0  0  0  0  0  0  0  0  0  0  0
   -0.5045   -4.2013    0.7321 H   0  0  0  0  0  0  0  0  0  0  0  0
    0.2545   -3.2791    2.0971 H   0  0  0  0  0  0  0  0  0  0  0  0
   -2.5636   -3.1407    0.9535 H   0  0  0  0  0  0  0  0  0  0  0  0
   -2.0817   -3.6144    2.6264 H   0  0  0  0  0  0  0  0  0  0  0  0
   -1.0948   -1.2410    2.7824 H   0  0  0  0  0  0  0  0  0  0  0  0
   -2.9437   -1.3450    2.6351 H   0  0  0  0  0  0  0  0  0  0  0  0
   -1.1815   -1.1742   -2.0838 H   0  0  0  0  0  0  0  0  0  0  0  0
    0.7114   -0.3291   -3.7403 H   0  0  0  0  0  0  0  0  0  0  0  0
    3.1087    0.7062   -3.3809 H   0  0  0  0  0  0  0  0  0  0  0  0
    5.7203   -3.5186    0.6490 H   0  0  0  0  0  0  0  0  0  0  0  0
    4.0574   -1.4197   -0.3145 H   0  0  0  0  0  0  0  0  0  0  0  0
  1  2  1  0
  2  3  1  0
  3  4  1  0
  4  5  2  0
  4  6  1  0
  6  7  1  0
  7  8  1  0
  8  9  2  0
  9 10  1  0
 10 11  1  0
 11 12  1  0
 12 13  2  0
 13 14  1  0
 14 15  2  0
 14 16  1  0
 16 17  1  0
 17 18  1  0
 13 19  1  0
 19 20  1  0
 20 21  2  0
 21 22  1  0
 22 23  2  0
 23 24  1  0
 24 25  1  0
 25 26  2  0
 26 27  1  0
 27 28  2  0
 28 29  1  0
 28 30  1  0
 30 31  1  0
 30 32  2  0
 32 33  1  0
 32 34  1  0
 34 35  2  0
 35 36  1  0
 23 37  1  0
 10  6  2  0
 18 12  1  0
 37 20  1  0
 19  9  1  0
 36 25  1  0
 35 27  1  0
  1 38  1  0
  1 39  1  0
  1 40  1  0
  2 41  1  0
  2 42  1  0
  7 43  1  0
  8 44  1  0
 11 45  1  0
 16 46  1  0
 16 47  1  0
 17 48  1  0
 17 49  1  0
 18 50  1  0
 18 51  1  0
 19 52  1  0
 21 53  1  0
 22 54  1  0
 34 55  1  0
 36 56  1  0
M  END
$$$$
