
     RDKit          3D

 48 50  0  0  0  0  0  0  0  0999 V2000
   -7.0798   -0.2618   -0.0627 C   0  0  0  0  0  0  0  0  0  0  0  0
   -6.6370    0.5535   -1.2589 C   0  0  0  0  0  0  0  0  0  0  0  0
   -5.1452    0.8182   -1.2040 C   0  0  0  0  0  0  0  0  0  0  0  0
   -4.7681    1.5766    0.0336 C   0  0  0  0  0  0  0  0  0  0  0  0
   -3.3065    1.8566    0.1130 C   0  0  0  0  0  0  0  0  0  0  0  0
   -2.4412    0.6236    0.1277 C   0  0  0  0  0  0  0  0  0  0  0  0
   -1.0989    1.0553    0.2099 O   0  0  0  0  0  0  0  0  0  0  0  0
   -0.0365    0.1357    0.2430 C   0  0  0  0  0  0  0  0  0  0  0  0
   -0.2685   -1.2221    0.1962 C   0  0  0  0  0  0  0  0  0  0  0  0
    0.7602   -2.1393    0.2269 C   0  0  0  0  0  0  0  0  0  0  0  0
    0.5527   -3.5006    0.1811 O   0  0  0  0  0  0  0  0  0  0  0  0
    2.0572   -1.6673    0.3073 C   0  0  0  0  0  0  0  0  0  0  0  0
    2.3191   -0.3092    0.3573 C   0  0  0  0  0  0  0  0  0  0  0  0
    1.2669    0.5975    0.3239 C   0  0  0  0  0  0  0  0  0  0  0  0
    3.7271    0.1257    0.4641 C   0  0  0  0  0  0  0  0  0  0  0  0
    3.9506    1.3334    0.8770 C   0  0  0  0  0  0  0  0  0  0  0  0
    5.3170    1.8834    1.0224 C   0  0  0  0  0  0  0  0  0  0  0  0
    5.4906    3.0389    1.4162 O   0  0  0  0  0  0  0  0  0  0  0  0
    6.3782    0.9482    0.6635 C   0  0  0  0  0  0  0  0  0  0  0  0
    7.4581    1.4176    0.2375 O   0  0  0  0  0  0  0  0  0  0  0  0
    6.0623   -0.4798    0.8439 C   0  0  0  0  0  0  0  0  0  0  0  0
    4.7940   -0.8148    0.1000 C   0  0  0  0  0  0  0  0  0  0  0  0
    5.0549   -0.7404   -1.4105 C   0  0  0  0  0  0  0  0  0  0  0  0
    4.4432   -2.1751    0.3403 O   0  0  0  0  0  0  0  0  0  0  0  0
    3.1326   -2.6145    0.2997 C   0  0  0  0  0  0  0  0  0  0  0  0
    2.8498   -3.8537    0.2551 O   0  0  0  0  0  0  0  0  0  0  0  0
   -7.0437    0.3664    0.8529 H   0  0  0  0  0  0  0  0  0  0  0  0
   -8.1299   -0.5834   -0.2279 H   0  0  0  0  0  0  0  0  0  0  0  0
   -6.4552   -1.1553    0.0455 H   0  0  0  0  0  0  0  0  0  0  0  0
   -7.1419    1.5433   -1.2486 H   0  0  0  0  0  0  0  0  0  0  0  0
   -6.8886   -0.0378   -2.1569 H   0  0  0  0  0  0  0  0  0  0  0  0
   -4.5911   -0.1501   -1.1962 H   0  0  0  0  0  0  0  0  0  0  0  0
   -4.8408    1.4056   -2.0913 H   0  0  0  0  0  0  0  0  0  0  0  0
   -5.3072    2.5398    0.0827 H   0  0  0  0  0  0  0  0  0  0  0  0
   -5.0542    1.0093    0.9465 H   0  0  0  0  0  0  0  0  0  0  0  0
   -2.9555    2.5151   -0.7063 H   0  0  0  0  0  0  0  0  0  0  0  0
   -3.1172    2.3901    1.0808 H   0  0  0  0  0  0  0  0  0  0  0  0
   -2.6627   -0.0263    0.9946 H   0  0  0  0  0  0  0  0  0  0  0  0
   -2.6139    0.0694   -0.8372 H   0  0  0  0  0  0  0  0  0  0  0  0
   -1.2896   -1.5794    0.1334 H   0  0  0  0  0  0  0  0  0  0  0  0
    0.6386   -4.1297    0.9617 H   0  0  0  0  0  0  0  0  0  0  0  0
    1.4428    1.6632    0.3483 H   0  0  0  0  0  0  0  0  0  0  0  0
    3.1056    1.9723    1.1416 H   0  0  0  0  0  0  0  0  0  0  0  0
    6.9038   -1.1430    0.5483 H   0  0  0  0  0  0  0  0  0  0  0  0
    5.8302   -0.6565    1.9357 H   0  0  0  0  0  0  0  0  0  0  0  0
    5.5986   -1.6483   -1.7415 H   0  0  0  0  0  0  0  0  0  0  0  0
    5.6953    0.1217   -1.6459 H   0  0  0  0  0  0  0  0  0  0  0  0
    4.0436   -0.6717   -1.8784 H   0  0  0  0  0  0  0  0  0  0  0  0
  1  2  1  0
  2  3  1  0
  3  4  1  0
  4  5  1  0
  5  6  1  0
  6  7  1  0
  7  8  1  0
  8  9  2  0
  9 10  1  0
 10 11  1  0
 10 12  2  0
 12 13  1  0
 13 14  2  0
 13 15  1  0
 15 16  2  0
 16 17  1  0
 17 18  2  0
 17 19  1  0
 19 20  2  0
 19 21  1  0
 21 22  1  0
 22 23  1  0
 22 24  1  0
 24 25  1  0
 25 26  2  0
 14  8  1  0
 22 15  1  0
 25 12  1  0
  1 27  1  0
  1 28  1  0
  1 29  1  0
  2 30  1  0
  2 31  1  0
  3 32  1  0
  3 33  1  0
  4 34  1  0
  4 35  1  0
  5 36  1  0
  5 37  1  0
  6 38  1  0
  6 39  1  0
  9 40  1  0
 11 41  1  0
 14 42  1  0
 16 43  1  0
 21 44  1  0
 21 45  1  0
 23 46  1  0
 23 47  1  0
 23 48  1  0
M  END
$$$$
