
     RDKit          3D

 62 66  0  0  0  0  0  0  0  0999 V2000
   -5.9063    3.4820    0.4335 C   0  0  0  0  0  0  0  0  0  0  0  0
   -5.0475    2.8094   -0.5583 N   0  0  0  0  0  0  0  0  0  0  0  0
   -5.6014    1.5209   -0.7759 C   0  0  0  0  0  0  0  0  0  0  0  0
   -4.8171    0.5245    0.1222 C   0  0  0  0  0  0  0  0  0  0  0  0
   -3.5518    0.2999   -0.5986 C   0  0  0  0  0  0  0  0  0  0  0  0
   -2.6104   -0.6786   -0.0786 C   0  0  0  0  0  0  0  0  0  0  0  0
   -1.5342   -1.0690   -0.8379 N   0  0  0  0  0  0  0  0  0  0  0  0
   -0.8043   -1.9248   -0.1954 N   0  0  0  0  0  0  0  0  0  0  0  0
    0.4098   -2.5750   -0.6286 C   0  0  0  0  0  0  0  0  0  0  0  0
    0.4564   -3.9244   -0.9120 C   0  0  0  0  0  0  0  0  0  0  0  0
    1.5695   -4.5628   -1.3203 N   0  0  0  0  0  0  0  0  0  0  0  0
    2.6943   -3.8233   -1.4536 C   0  0  0  0  0  0  0  0  0  0  0  0
    3.9598   -4.1010   -1.8272 N   0  0  0  0  0  0  0  0  0  0  0  0
    4.7241   -2.9932   -1.7958 C   0  0  0  0  0  0  0  0  0  0  0  0
    3.9422   -1.9277   -1.3847 C   0  0  0  0  0  0  0  0  0  0  0  0
    4.3799   -0.5459   -1.2170 C   0  0  0  0  0  0  0  0  0  0  0  0
    5.0123    0.0485   -2.1483 O   0  0  0  0  0  0  0  0  0  0  0  0
    4.1291    0.1953   -0.0311 N   0  0  0  0  0  0  0  0  0  0  0  0
    4.5204    1.5492    0.2116 C   0  0  0  0  0  0  0  0  0  0  0  0
    6.0316    1.7363    0.1098 C   0  0  0  0  0  0  0  0  0  0  0  0
    4.1772    1.8733    1.6666 C   0  0  0  0  0  0  0  0  0  0  0  0
    3.8524    2.5820   -0.6280 C   0  0  0  0  0  0  0  0  0  0  0  0
    4.0430    2.4588   -1.9907 O   0  0  0  0  0  0  0  0  0  0  0  0
    2.6911   -2.4575   -1.1775 C   0  0  0  0  0  0  0  0  0  0  0  0
    1.5474   -1.8701   -0.7722 N   0  0  0  0  0  0  0  0  0  0  0  0
   -1.3700   -2.1293    1.0038 C   0  0  0  0  0  0  0  0  0  0  0  0
   -1.0458   -2.9264    2.0972 C   0  0  0  0  0  0  0  0  0  0  0  0
   -1.8483   -2.9286    3.2266 C   0  0  0  0  0  0  0  0  0  0  0  0
   -2.9891   -2.1460    3.3065 C   0  0  0  0  0  0  0  0  0  0  0  0
   -3.3089   -1.3591    2.2276 C   0  0  0  0  0  0  0  0  0  0  0  0
   -2.5135   -1.3596    1.1145 C   0  0  0  0  0  0  0  0  0  0  0  0
   -2.8473    1.6502   -0.6849 C   0  0  0  0  0  0  0  0  0  0  0  0
   -3.6946    2.7714   -0.1512 C   0  0  0  0  0  0  0  0  0  0  0  0
   -6.4160    4.3582   -0.0196 H   0  0  0  0  0  0  0  0  0  0  0  0
   -6.6912    2.8138    0.8198 H   0  0  0  0  0  0  0  0  0  0  0  0
   -5.2563    3.8092    1.2793 H   0  0  0  0  0  0  0  0  0  0  0  0
   -6.6878    1.4398   -0.5094 H   0  0  0  0  0  0  0  0  0  0  0  0
   -5.4893    1.2127   -1.8473 H   0  0  0  0  0  0  0  0  0  0  0  0
   -5.4814   -0.3555    0.1766 H   0  0  0  0  0  0  0  0  0  0  0  0
   -4.7208    1.0944    1.0712 H   0  0  0  0  0  0  0  0  0  0  0  0
   -3.8255    0.0730   -1.6835 H   0  0  0  0  0  0  0  0  0  0  0  0
   -0.4534   -4.4986   -0.7972 H   0  0  0  0  0  0  0  0  0  0  0  0
    4.2309   -5.0824   -2.0922 H   0  0  0  0  0  0  0  0  0  0  0  0
    5.7732   -2.9331   -2.0478 H   0  0  0  0  0  0  0  0  0  0  0  0
    3.5958   -0.3651    0.7070 H   0  0  0  0  0  0  0  0  0  0  0  0
    6.2698    2.6989    0.6191 H   0  0  0  0  0  0  0  0  0  0  0  0
    6.4070    1.6791   -0.9169 H   0  0  0  0  0  0  0  0  0  0  0  0
    6.5516    0.9201    0.6874 H   0  0  0  0  0  0  0  0  0  0  0  0
    3.5132    1.0760    2.0851 H   0  0  0  0  0  0  0  0  0  0  0  0
    3.5922    2.8078    1.7322 H   0  0  0  0  0  0  0  0  0  0  0  0
    5.0739    2.0320    2.2877 H   0  0  0  0  0  0  0  0  0  0  0  0
    4.3300    3.5671   -0.3469 H   0  0  0  0  0  0  0  0  0  0  0  0
    2.7703    2.7237   -0.3670 H   0  0  0  0  0  0  0  0  0  0  0  0
    4.9576    2.8090   -2.2358 H   0  0  0  0  0  0  0  0  0  0  0  0
   -0.1577   -3.5410    2.0459 H   0  0  0  0  0  0  0  0  0  0  0  0
   -1.5450   -3.5671    4.0421 H   0  0  0  0  0  0  0  0  0  0  0  0
   -3.5712   -2.1941    4.2159 H   0  0  0  0  0  0  0  0  0  0  0  0
   -4.1941   -0.7563    2.2825 H   0  0  0  0  0  0  0  0  0  0  0  0
   -2.4537    1.8586   -1.6936 H   0  0  0  0  0  0  0  0  0  0  0  0
   -1.9313    1.6232   -0.0223 H   0  0  0  0  0  0  0  0  0  0  0  0
   -3.6338    2.7833    0.9593 H   0  0  0  0  0  0  0  0  0  0  0  0
   -3.2069    3.7140   -0.5220 H   0  0  0  0  0  0  0  0  0  0  0  0
  1  2  1  0
  2  3  1  0
  3  4  1  0
  4  5  1  0
  5  6  1  0
  6  7  2  0
  7  8  1  0
  8  9  1  0
  9 10  2  0
 10 11  1  0
 11 12  2  0
 12 13  1  0
 13 14  1  0
 14 15  2  0
 15 16  1  0
 16 17  2  0
 16 18  1  0
 18 19  1  0
 19 20  1  0
 19 21  1  0
 19 22  1  0
 22 23  1  0
 15 24  1  0
 24 25  2  0
  8 26  1  0
 26 27  2  0
 27 28  1  0
 28 29  2  0
 29 30  1  0
 30 31  2  0
  5 32  1  0
 32 33  1  0
 33  2  1  0
 31  6  1  0
 25  9  1  0
 31 26  1  0
 24 12  1  0
  1 34  1  0
  1 35  1  0
  1 36  1  0
  3 37  1  0
  3 38  1  0
  4 39  1  0
  4 40  1  0
  5 41  1  0
 10 42  1  0
 13 43  1  0
 14 44  1  0
 18 45  1  0
 20 46  1  0
 20 47  1  0
 20 48  1  0
 21 49  1  0
 21 50  1  0
 21 51  1  0
 22 52  1  0
 22 53  1  0
 23 54  1  0
 27 55  1  0
 28 56  1  0
 29 57  1  0
 30 58  1  0
 32 59  1  0
 32 60  1  0
 33 61  1  0
 33 62  1  0
M  END
$$$$
