
     RDKit          3D

 58 61  0  0  0  0  0  0  0  0999 V2000
   -7.4028    0.7095    0.0339 C   0  0  0  0  0  0  0  0  0  0  0  0
   -6.7831   -0.2619    0.8927 N   0  0  0  0  0  0  0  0  0  0  0  0
   -7.5968   -1.2562    1.5337 C   0  0  0  0  0  0  0  0  0  0  0  0
   -5.3952   -0.2338    1.1036 C   0  0  0  0  0  0  0  0  0  0  0  0
   -4.8901   -1.1015    1.8740 O   0  0  0  0  0  0  0  0  0  0  0  0
   -4.4677    0.7275    0.5004 C   0  0  2  0  0  0  0  0  0  0  0  0
   -4.4116    0.6364   -1.0626 C   0  0  0  0  0  0  0  0  0  0  0  0
   -3.2232    0.3300   -0.1442 C   0  0  1  0  0  0  0  0  0  0  0  0
   -2.0727    1.2648   -0.1235 C   0  0  1  0  0  0  0  0  0  0  0  0
   -1.4326    1.3339    1.2704 C   0  0  0  0  0  0  0  0  0  0  0  0
   -1.0196    0.7469   -1.0291 C   0  0  0  0  0  0  0  0  0  0  0  0
    0.2005    0.3140   -0.5524 C   0  0  0  0  0  0  0  0  0  0  0  0
    1.1925   -0.1681   -1.3958 C   0  0  0  0  0  0  0  0  0  0  0  0
    2.4723   -0.6133   -0.8372 C   0  0  0  0  0  0  0  0  0  0  0  0
    3.6318   -0.3906   -1.3947 C   0  0  0  0  0  0  0  0  0  0  0  0
    3.6196    0.3052   -2.5751 F   0  0  0  0  0  0  0  0  0  0  0  0
    4.9293   -0.7895   -0.8990 C   0  0  0  0  0  0  0  0  0  0  0  0
    5.0595   -1.4727    0.2860 C   0  0  0  0  0  0  0  0  0  0  0  0
    6.2903   -1.8409    0.7416 N   0  0  0  0  0  0  0  0  0  0  0  0
    7.4074   -1.5656    0.0790 C   0  0  0  0  0  0  0  0  0  0  0  0
    8.6764   -1.9082    0.4800 O   0  0  0  0  0  0  0  0  0  0  0  0
    8.9705   -2.5852    1.6456 C   0  0  0  0  0  0  0  0  0  0  0  0
    8.5973   -1.8992    2.9278 C   0  0  0  0  0  0  0  0  0  0  0  0
    7.2752   -1.6397    3.0655 F   0  0  0  0  0  0  0  0  0  0  0  0
    8.9766   -2.6771    4.0293 F   0  0  0  0  0  0  0  0  0  0  0  0
    9.2959   -0.6984    3.0478 F   0  0  0  0  0  0  0  0  0  0  0  0
    7.2765   -0.8672   -1.1335 C   0  0  0  0  0  0  0  0  0  0  0  0
    6.0728   -0.5233   -1.5500 N   0  0  0  0  0  0  0  0  0  0  0  0
    0.9609   -0.2201   -2.7513 C   0  0  0  0  0  0  0  0  0  0  0  0
   -0.2571    0.2088   -3.2590 C   0  0  0  0  0  0  0  0  0  0  0  0
   -1.2382    0.6909   -2.3782 C   0  0  0  0  0  0  0  0  0  0  0  0
   -2.3824    1.0904   -2.9286 F   0  0  0  0  0  0  0  0  0  0  0  0
   -2.3569    2.6296   -0.5111 N   0  0  0  0  0  0  0  0  0  0  0  0
   -3.3345    3.2873   -0.0206 C   0  0  0  0  0  0  0  0  0  0  0  0
   -3.6029    4.6028   -0.3960 N   0  0  0  0  0  0  0  0  0  0  0  0
   -4.3543    2.4251    1.1583 S   0  0  0  0  0  0  0  0  0  0  0  0
   -8.4889    0.4994   -0.0737 H   0  0  0  0  0  0  0  0  0  0  0  0
   -6.9918    0.6954   -0.9933 H   0  0  0  0  0  0  0  0  0  0  0  0
   -7.2503    1.7509    0.3983 H   0  0  0  0  0  0  0  0  0  0  0  0
   -8.4589   -0.8228    2.0959 H   0  0  0  0  0  0  0  0  0  0  0  0
   -7.0065   -1.9377    2.1715 H   0  0  0  0  0  0  0  0  0  0  0  0
   -8.0736   -1.8536    0.7057 H   0  0  0  0  0  0  0  0  0  0  0  0
   -4.5270    1.6151   -1.5241 H   0  0  0  0  0  0  0  0  0  0  0  0
   -4.8791   -0.2608   -1.5225 H   0  0  0  0  0  0  0  0  0  0  0  0
   -2.8924   -0.7512   -0.1367 H   0  0  0  0  0  0  0  0  0  0  0  0
   -0.5124    1.9487    1.2434 H   0  0  0  0  0  0  0  0  0  0  0  0
   -1.2037    0.3346    1.6539 H   0  0  0  0  0  0  0  0  0  0  0  0
   -2.0909    1.8130    2.0146 H   0  0  0  0  0  0  0  0  0  0  0  0
    0.4504    0.3264    0.4984 H   0  0  0  0  0  0  0  0  0  0  0  0
    2.4526   -1.1604    0.0945 H   0  0  0  0  0  0  0  0  0  0  0  0
    4.1982   -1.7345    0.8847 H   0  0  0  0  0  0  0  0  0  0  0  0
   10.0767   -2.7890    1.7206 H   0  0  0  0  0  0  0  0  0  0  0  0
    8.4375   -3.5852    1.5955 H   0  0  0  0  0  0  0  0  0  0  0  0
    8.2002   -0.6417   -1.6778 H   0  0  0  0  0  0  0  0  0  0  0  0
    1.7347   -0.6038   -3.4367 H   0  0  0  0  0  0  0  0  0  0  0  0
   -0.4234    0.1615   -4.3262 H   0  0  0  0  0  0  0  0  0  0  0  0
   -4.3425    4.8813   -1.1084 H   0  0  0  0  0  0  0  0  0  0  0  0
   -3.0929    5.4489   -0.0050 H   0  0  0  0  0  0  0  0  0  0  0  0
  1  2  1  0
  2  3  1  0
  2  4  1  0
  4  5  2  0
  6  4  1  1
  6  7  1  0
  7  8  1  0
  8  9  1  0
  9 10  1  1
  9 11  1  0
 11 12  2  0
 12 13  1  0
 13 14  1  0
 14 15  2  0
 15 16  1  0
 15 17  1  0
 17 18  2  0
 18 19  1  0
 19 20  2  0
 20 21  1  0
 21 22  1  0
 22 23  1  0
 23 24  1  0
 23 25  1  0
 23 26  1  0
 20 27  1  0
 27 28  2  0
 13 29  2  0
 29 30  1  0
 30 31  2  0
 31 32  1  0
  9 33  1  0
 33 34  2  0
 34 35  1  0
 34 36  1  0
  8  6  1  0
 31 11  1  0
 36  6  1  0
 28 17  1  0
  1 37  1  0
  1 38  1  0
  1 39  1  0
  3 40  1  0
  3 41  1  0
  3 42  1  0
  7 43  1  0
  7 44  1  0
  8 45  1  1
 10 46  1  0
 10 47  1  0
 10 48  1  0
 12 49  1  0
 14 50  1  0
 18 51  1  0
 22 52  1  0
 22 53  1  0
 27 54  1  0
 29 55  1  0
 30 56  1  0
 35 57  1  0
 35 58  1  0
M  END
$$$$
