
     RDKit          3D

 55 59  0  0  0  0  0  0  0  0999 V2000
   -3.8588   -2.8599   -2.5366 C   0  0  0  0  0  0  0  0  0  0  0  0
   -3.3977   -1.9781   -1.4210 C   0  0  0  0  0  0  0  0  0  0  0  0
   -2.0925   -1.5466   -1.3224 C   0  0  0  0  0  0  0  0  0  0  0  0
   -1.6714   -0.7332   -0.2914 C   0  0  0  0  0  0  0  0  0  0  0  0
   -0.3173   -0.3035   -0.2157 N   0  0  0  0  0  0  0  0  0  0  0  0
    0.7183   -1.0046    0.4658 C   0  0  0  0  0  0  0  0  0  0  0  0
    0.5638   -2.0990    1.0900 O   0  0  0  0  0  0  0  0  0  0  0  0
    1.9636   -0.2895    0.3420 C   0  0  0  0  0  0  0  0  0  0  0  0
    3.2957   -0.3309    0.6978 C   0  0  0  0  0  0  0  0  0  0  0  0
    3.9893   -1.3443    1.4835 C   0  0  0  0  0  0  0  0  0  0  0  0
    4.0465   -1.2054    2.7234 O   0  0  0  0  0  0  0  0  0  0  0  0
    4.5813   -2.4566    0.8481 N   0  0  0  0  0  0  0  0  0  0  0  0
    4.5005   -2.5921   -0.5830 C   0  0  0  0  0  0  0  0  0  0  0  0
    5.2619   -3.4509    1.6197 C   0  0  0  0  0  0  0  0  0  0  0  0
    3.8390    0.8244    0.1332 C   0  0  0  0  0  0  0  0  0  0  0  0
    2.8627    1.4866   -0.5101 N   0  0  0  0  0  0  0  0  0  0  0  0
    3.1098    2.7433   -1.2096 C   0  0  0  0  0  0  0  0  0  0  0  0
    1.6887    0.8345   -0.4068 C   0  0  0  0  0  0  0  0  0  0  0  0
    0.2682    0.8862   -0.7908 C   0  0  0  0  0  0  0  0  0  0  0  0
   -0.4035    2.1256   -0.3821 C   0  0  0  0  0  0  0  0  0  0  0  0
   -0.6994    3.0941   -1.3173 C   0  0  0  0  0  0  0  0  0  0  0  0
   -1.3294    4.2761   -0.9857 C   0  0  0  0  0  0  0  0  0  0  0  0
   -1.6735    4.4989    0.3110 C   0  0  0  0  0  0  0  0  0  0  0  0
   -2.4787    6.0257    0.6920 Cl  0  0  0  0  0  0  0  0  0  0  0  0
   -1.3992    3.5674    1.2671 C   0  0  0  0  0  0  0  0  0  0  0  0
   -0.7611    2.3724    0.9257 C   0  0  0  0  0  0  0  0  0  0  0  0
   -2.5949   -0.3715    0.6272 N   0  0  0  0  0  0  0  0  0  0  0  0
   -3.8766   -0.7733    0.5629 C   0  0  0  0  0  0  0  0  0  0  0  0
   -4.3050   -1.5953   -0.4777 C   0  0  0  0  0  0  0  0  0  0  0  0
   -5.6258   -1.8294   -0.2773 N   0  0  0  0  0  0  0  0  0  0  0  0
   -6.0283   -1.2069    0.8119 N   0  0  0  0  0  0  0  0  0  0  0  0
   -4.9776   -0.5797    1.3061 N   0  0  0  0  0  0  0  0  0  0  0  0
   -5.0263    0.2196    2.5107 C   0  0  0  0  0  0  0  0  0  0  0  0
   -3.2362   -2.6359   -3.4408 H   0  0  0  0  0  0  0  0  0  0  0  0
   -4.8927   -2.5336   -2.7876 H   0  0  0  0  0  0  0  0  0  0  0  0
   -3.8035   -3.9262   -2.2640 H   0  0  0  0  0  0  0  0  0  0  0  0
   -1.3847   -1.8636   -2.0854 H   0  0  0  0  0  0  0  0  0  0  0  0
    5.4249   -3.0338   -1.0258 H   0  0  0  0  0  0  0  0  0  0  0  0
    3.6422   -3.2475   -0.8924 H   0  0  0  0  0  0  0  0  0  0  0  0
    4.3440   -1.6244   -1.1020 H   0  0  0  0  0  0  0  0  0  0  0  0
    5.3679   -3.2022    2.6811 H   0  0  0  0  0  0  0  0  0  0  0  0
    6.2928   -3.6692    1.2382 H   0  0  0  0  0  0  0  0  0  0  0  0
    4.6738   -4.3971    1.5647 H   0  0  0  0  0  0  0  0  0  0  0  0
    4.8900    1.0785    0.2403 H   0  0  0  0  0  0  0  0  0  0  0  0
    3.9951    2.6763   -1.8757 H   0  0  0  0  0  0  0  0  0  0  0  0
    2.2418    2.9969   -1.8543 H   0  0  0  0  0  0  0  0  0  0  0  0
    3.2963    3.5809   -0.5092 H   0  0  0  0  0  0  0  0  0  0  0  0
    0.2225    0.7575   -1.8949 H   0  0  0  0  0  0  0  0  0  0  0  0
   -0.4261    2.9111   -2.3312 H   0  0  0  0  0  0  0  0  0  0  0  0
   -1.5322    4.9881   -1.7539 H   0  0  0  0  0  0  0  0  0  0  0  0
   -1.6778    3.7563    2.2944 H   0  0  0  0  0  0  0  0  0  0  0  0
   -0.5584    1.6532    1.7130 H   0  0  0  0  0  0  0  0  0  0  0  0
   -4.0109    0.2493    2.9859 H   0  0  0  0  0  0  0  0  0  0  0  0
   -5.2657    1.2633    2.1886 H   0  0  0  0  0  0  0  0  0  0  0  0
   -5.7757   -0.1818    3.2205 H   0  0  0  0  0  0  0  0  0  0  0  0
  1  2  1  0
  2  3  2  0
  3  4  1  0
  4  5  1  0
  5  6  1  0
  6  7  2  0
  6  8  1  0
  8  9  1  0
  9 10  1  0
 10 11  2  0
 10 12  1  0
 12 13  1  0
 12 14  1  0
  9 15  2  0
 15 16  1  0
 16 17  1  0
 16 18  1  0
 18 19  1  0
 19 20  1  0
 20 21  2  0
 21 22  1  0
 22 23  2  0
 23 24  1  0
 23 25  1  0
 25 26  2  0
  4 27  2  0
 27 28  1  0
 28 29  2  0
 29 30  1  0
 30 31  2  0
 31 32  1  0
 32 33  1  0
 29  2  1  0
 19  5  1  0
 26 20  1  0
 32 28  1  0
 18  8  2  0
  1 34  1  0
  1 35  1  0
  1 36  1  0
  3 37  1  0
 13 38  1  0
 13 39  1  0
 13 40  1  0
 14 41  1  0
 14 42  1  0
 14 43  1  0
 15 44  1  0
 17 45  1  0
 17 46  1  0
 17 47  1  0
 19 48  1  0
 21 49  1  0
 22 50  1  0
 25 51  1  0
 26 52  1  0
 33 53  1  0
 33 54  1  0
 33 55  1  0
M  END
$$$$
