
     RDKit          3D

 60 64  0  0  0  0  0  0  0  0999 V2000
    1.0053    2.7204   -0.7499 C   0  0  0  0  0  0  0  0  0  0  0  0
   -0.3452    2.1058   -0.6570 C   0  0  0  0  0  0  0  0  0  0  0  0
   -1.4253    2.7607   -1.3030 C   0  0  0  0  0  0  0  0  0  0  0  0
   -2.7068    2.2434   -1.1964 C   0  0  0  0  0  0  0  0  0  0  0  0
   -3.8159    2.9250   -1.7657 N   0  0  0  0  0  0  0  0  0  0  0  0
   -5.0891    2.8454   -1.0307 C   0  0  0  0  0  0  0  0  0  0  0  0
   -6.2801    2.6141   -1.9104 C   0  0  0  0  0  0  0  0  0  0  0  0
   -6.1486    3.1942   -3.1804 O   0  0  0  0  0  0  0  0  0  0  0  0
   -5.2633    4.2855   -3.1177 C   0  0  0  0  0  0  0  0  0  0  0  0
   -3.8417    3.7020   -2.9599 C   0  0  0  0  0  0  0  0  0  0  0  0
   -2.8795    1.1098   -0.4690 C   0  0  0  0  0  0  0  0  0  0  0  0
   -1.8154    0.4585    0.1713 C   0  0  0  0  0  0  0  0  0  0  0  0
   -1.7225   -0.6117    0.9456 N   0  0  0  0  0  0  0  0  0  0  0  0
   -0.3481   -0.7482    1.3250 C   0  0  0  0  0  0  0  0  0  0  0  0
   -0.2002   -1.9790    2.2904 C   0  0  0  0  0  0  0  0  0  0  0  0
    1.1006   -2.2330    2.6816 C   0  0  0  0  0  0  0  0  0  0  0  0
    2.1875   -1.5445    2.0502 N   0  0  0  0  0  0  0  0  0  0  0  0
    3.5531   -1.8395    2.4004 C   0  0  0  0  0  0  0  0  0  0  0  0
    4.2209   -2.7423    1.3951 C   0  0  1  0  0  0  0  0  0  0  0  0
    3.5410   -3.9136    1.2066 O   0  0  0  0  0  0  0  0  0  0  0  0
    4.5792   -2.1144    0.1032 C   0  0  0  0  0  0  0  0  0  0  0  0
    4.4157   -0.7725   -0.0711 C   0  0  0  0  0  0  0  0  0  0  0  0
    4.7331   -0.1788   -1.3245 C   0  0  0  0  0  0  0  0  0  0  0  0
    5.1998   -0.9923   -2.3150 C   0  0  0  0  0  0  0  0  0  0  0  0
    5.3771   -2.3529   -2.1634 C   0  0  0  0  0  0  0  0  0  0  0  0
    5.9636   -3.4019   -3.4267 Cl  0  0  0  0  0  0  0  0  0  0  0  0
    5.0534   -2.9144   -0.9064 C   0  0  0  0  0  0  0  0  0  0  0  0
    1.3634   -3.1791    3.6803 C   0  0  0  0  0  0  0  0  0  0  0  0
    0.2919   -3.8486    4.2588 C   0  0  0  0  0  0  0  0  0  0  0  0
   -0.9392   -3.5800    3.8541 N   0  0  0  0  0  0  0  0  0  0  0  0
   -1.2099   -2.6403    2.8616 C   0  0  0  0  0  0  0  0  0  0  0  0
   -2.4159   -2.4948    2.5875 O   0  0  0  0  0  0  0  0  0  0  0  0
    0.2225    0.1052    0.8405 N   0  0  0  0  0  0  0  0  0  0  0  0
   -0.5402    0.9980    0.0512 C   0  0  0  0  0  0  0  0  0  0  0  0
    1.5673    2.4886    0.1572 H   0  0  0  0  0  0  0  0  0  0  0  0
    0.7780    3.8450   -0.7039 H   0  0  0  0  0  0  0  0  0  0  0  0
    1.5721    2.4668   -1.6459 H   0  0  0  0  0  0  0  0  0  0  0  0
   -1.2403    3.6553   -1.8531 H   0  0  0  0  0  0  0  0  0  0  0  0
   -5.2781    3.7990   -0.4810 H   0  0  0  0  0  0  0  0  0  0  0  0
   -5.0235    2.0346   -0.3005 H   0  0  0  0  0  0  0  0  0  0  0  0
   -6.4038    1.5187   -2.0612 H   0  0  0  0  0  0  0  0  0  0  0  0
   -7.2289    2.9413   -1.3884 H   0  0  0  0  0  0  0  0  0  0  0  0
   -5.3442    4.8585   -4.0686 H   0  0  0  0  0  0  0  0  0  0  0  0
   -5.5118    4.8770   -2.2197 H   0  0  0  0  0  0  0  0  0  0  0  0
   -3.6801    3.0587   -3.8455 H   0  0  0  0  0  0  0  0  0  0  0  0
   -3.1176    4.5739   -2.9552 H   0  0  0  0  0  0  0  0  0  0  0  0
   -3.8378    0.6610   -0.3530 H   0  0  0  0  0  0  0  0  0  0  0  0
   -2.5273   -1.1705    1.1949 H   0  0  0  0  0  0  0  0  0  0  0  0
    2.0137   -0.8399    1.3529 H   0  0  0  0  0  0  0  0  0  0  0  0
    3.6658   -2.3625    3.4063 H   0  0  0  0  0  0  0  0  0  0  0  0
    4.1381   -0.9143    2.5182 H   0  0  0  0  0  0  0  0  0  0  0  0
    5.2476   -3.0201    1.8528 H   0  0  0  0  0  0  0  0  0  0  0  0
    3.9305   -4.6148    1.8326 H   0  0  0  0  0  0  0  0  0  0  0  0
    4.0809   -0.0709    0.6668 H   0  0  0  0  0  0  0  0  0  0  0  0
    4.6140    0.8700   -1.4978 H   0  0  0  0  0  0  0  0  0  0  0  0
    5.4602   -0.5738   -3.3005 H   0  0  0  0  0  0  0  0  0  0  0  0
    5.2140   -3.9844   -0.8296 H   0  0  0  0  0  0  0  0  0  0  0  0
    2.3361   -3.4264    4.0052 H   0  0  0  0  0  0  0  0  0  0  0  0
    0.4885   -4.5764    5.0232 H   0  0  0  0  0  0  0  0  0  0  0  0
   -1.7350   -4.0808    4.3047 H   0  0  0  0  0  0  0  0  0  0  0  0
  1  2  1  0
  2  3  2  0
  3  4  1  0
  4  5  1  0
  5  6  1  0
  6  7  1  0
  7  8  1  0
  8  9  1  0
  9 10  1  0
  4 11  2  0
 11 12  1  0
 12 13  1  0
 13 14  1  0
 14 15  1  0
 15 16  2  0
 16 17  1  0
 17 18  1  0
 18 19  1  0
 19 20  1  0
 19 21  1  0
 21 22  2  0
 22 23  1  0
 23 24  2  0
 24 25  1  0
 25 26  1  0
 25 27  2  0
 16 28  1  0
 28 29  2  0
 29 30  1  0
 30 31  1  0
 31 32  2  0
 14 33  2  0
 33 34  1  0
 34  2  1  0
 10  5  1  0
 34 12  2  0
 31 15  1  0
 27 21  1  0
  1 35  1  0
  1 36  1  0
  1 37  1  0
  3 38  1  0
  6 39  1  0
  6 40  1  0
  7 41  1  0
  7 42  1  0
  9 43  1  0
  9 44  1  0
 10 45  1  0
 10 46  1  0
 11 47  1  0
 13 48  1  0
 17 49  1  0
 18 50  1  0
 18 51  1  0
 19 52  1  1
 20 53  1  0
 22 54  1  0
 23 55  1  0
 24 56  1  0
 27 57  1  0
 28 58  1  0
 29 59  1  0
 30 60  1  0
M  END
$$$$
