
     RDKit          3D

 76 80  0  0  0  0  0  0  0  0999 V2000
   -4.6630    5.0783    0.9136 C   0  0  0  0  0  0  0  0  0  0  0  0
   -4.7087    3.6144    0.6079 C   0  0  0  0  0  0  0  0  0  0  0  0
   -3.7341    2.7586    1.0765 C   0  0  0  0  0  0  0  0  0  0  0  0
   -3.7595    1.3973    0.8034 C   0  0  0  0  0  0  0  0  0  0  0  0
   -4.7729    0.8525    0.0455 C   0  0  0  0  0  0  0  0  0  0  0  0
   -4.8518   -0.5361   -0.2673 N   0  0  0  0  0  0  0  0  0  0  0  0
   -5.7671   -1.3948    0.2095 N   0  0  0  0  0  0  0  0  0  0  0  0
   -5.5516   -2.6142   -0.2856 C   0  0  0  0  0  0  0  0  0  0  0  0
   -6.3172   -3.8519   -0.0267 C   0  0  0  0  0  0  0  0  0  0  0  0
   -7.4376   -3.9562   -1.0647 C   0  0  0  0  0  0  0  0  0  0  0  0
   -5.4225   -5.0646   -0.0918 C   0  0  0  0  0  0  0  0  0  0  0  0
   -6.9430   -3.7296    1.3481 C   0  0  0  0  0  0  0  0  0  0  0  0
   -4.4613   -2.5149   -1.1023 C   0  0  0  0  0  0  0  0  0  0  0  0
   -4.0184   -1.1971   -1.0901 C   0  0  0  0  0  0  0  0  0  0  0  0
   -2.9107   -0.6594   -1.8023 N   0  0  0  0  0  0  0  0  0  0  0  0
   -1.5997   -0.6205   -1.2594 C   0  0  0  0  0  0  0  0  0  0  0  0
   -1.4179   -1.0828   -0.0999 O   0  0  0  0  0  0  0  0  0  0  0  0
   -0.4820   -0.0766   -1.9809 N   0  0  0  0  0  0  0  0  0  0  0  0
    0.8088   -0.0608   -1.3939 C   0  0  0  0  0  0  0  0  0  0  0  0
    1.7142   -1.0887   -1.5271 C   0  0  0  0  0  0  0  0  0  0  0  0
    2.9675   -1.0599   -0.9498 C   0  0  0  0  0  0  0  0  0  0  0  0
    3.3391    0.0322   -0.2100 C   0  0  0  0  0  0  0  0  0  0  0  0
    4.5590    0.1701    0.4097 O   0  0  0  0  0  0  0  0  0  0  0  0
    5.5947   -0.7885    0.3712 C   0  0  0  0  0  0  0  0  0  0  0  0
    6.7490   -0.2438    1.1751 C   0  0  0  0  0  0  0  0  0  0  0  0
    7.1851    0.9921    0.6102 N   0  0  0  0  0  0  0  0  0  0  0  0
    8.2909    1.5113    1.4119 C   0  0  0  0  0  0  0  0  0  0  0  0
    9.5312    0.6860    1.1880 C   0  0  0  0  0  0  0  0  0  0  0  0
    9.8705    0.5205   -0.1317 O   0  0  0  0  0  0  0  0  0  0  0  0
    8.8271   -0.0042   -0.8950 C   0  0  0  0  0  0  0  0  0  0  0  0
    7.6070    0.9026   -0.7512 C   0  0  0  0  0  0  0  0  0  0  0  0
    2.4401    1.0794   -0.0638 C   0  0  0  0  0  0  0  0  0  0  0  0
    2.7784    2.1867    0.6690 C   0  0  0  0  0  0  0  0  0  0  0  0
    1.9165    3.2514    0.8409 C   0  0  0  0  0  0  0  0  0  0  0  0
    0.6716    3.1799    0.2450 C   0  0  0  0  0  0  0  0  0  0  0  0
    0.3164    2.0701   -0.4967 C   0  0  0  0  0  0  0  0  0  0  0  0
    1.1924    1.0331   -0.6478 C   0  0  0  0  0  0  0  0  0  0  0  0
   -5.7476    1.7166   -0.4216 C   0  0  0  0  0  0  0  0  0  0  0  0
   -5.7233    3.0695   -0.1507 C   0  0  0  0  0  0  0  0  0  0  0  0
   -4.7771    5.6786   -0.0001 H   0  0  0  0  0  0  0  0  0  0  0  0
   -3.7261    5.3136    1.4242 H   0  0  0  0  0  0  0  0  0  0  0  0
   -5.4964    5.3686    1.5972 H   0  0  0  0  0  0  0  0  0  0  0  0
   -2.9271    3.1959    1.6807 H   0  0  0  0  0  0  0  0  0  0  0  0
   -2.9851    0.7742    1.1866 H   0  0  0  0  0  0  0  0  0  0  0  0
   -7.8784   -4.9605   -1.0574 H   0  0  0  0  0  0  0  0  0  0  0  0
   -8.1719   -3.1592   -0.7866 H   0  0  0  0  0  0  0  0  0  0  0  0
   -7.0093   -3.6767   -2.0460 H   0  0  0  0  0  0  0  0  0  0  0  0
   -6.0241   -5.9934   -0.1869 H   0  0  0  0  0  0  0  0  0  0  0  0
   -4.7976   -5.0618    0.8223 H   0  0  0  0  0  0  0  0  0  0  0  0
   -4.7467   -5.0196   -0.9611 H   0  0  0  0  0  0  0  0  0  0  0  0
   -7.4438   -4.6707    1.6149 H   0  0  0  0  0  0  0  0  0  0  0  0
   -6.1206   -3.4561    2.0622 H   0  0  0  0  0  0  0  0  0  0  0  0
   -7.6857   -2.9084    1.3056 H   0  0  0  0  0  0  0  0  0  0  0  0
   -3.9698   -3.2789   -1.6883 H   0  0  0  0  0  0  0  0  0  0  0  0
   -3.0137   -0.2604   -2.7773 H   0  0  0  0  0  0  0  0  0  0  0  0
   -0.6316    0.3036   -2.9348 H   0  0  0  0  0  0  0  0  0  0  0  0
    1.3977   -1.9484   -2.1202 H   0  0  0  0  0  0  0  0  0  0  0  0
    3.6748   -1.8876   -1.0668 H   0  0  0  0  0  0  0  0  0  0  0  0
    5.2373   -1.7558    0.7974 H   0  0  0  0  0  0  0  0  0  0  0  0
    5.9386   -1.0089   -0.6543 H   0  0  0  0  0  0  0  0  0  0  0  0
    6.4464   -0.0628    2.2322 H   0  0  0  0  0  0  0  0  0  0  0  0
    7.5930   -0.9678    1.2346 H   0  0  0  0  0  0  0  0  0  0  0  0
    8.0437    1.4651    2.4880 H   0  0  0  0  0  0  0  0  0  0  0  0
    8.5210    2.5547    1.0846 H   0  0  0  0  0  0  0  0  0  0  0  0
    9.4468   -0.2870    1.7267 H   0  0  0  0  0  0  0  0  0  0  0  0
   10.3831    1.2559    1.6649 H   0  0  0  0  0  0  0  0  0  0  0  0
    8.6093   -1.0272   -0.5832 H   0  0  0  0  0  0  0  0  0  0  0  0
    9.1148   -0.0185   -1.9542 H   0  0  0  0  0  0  0  0  0  0  0  0
    7.9663    1.9231   -1.0534 H   0  0  0  0  0  0  0  0  0  0  0  0
    6.8388    0.5911   -1.4480 H   0  0  0  0  0  0  0  0  0  0  0  0
    3.7395    2.2591    1.1381 H   0  0  0  0  0  0  0  0  0  0  0  0
    2.1705    4.1285    1.4151 H   0  0  0  0  0  0  0  0  0  0  0  0
   -0.0705    3.9636    0.3234 H   0  0  0  0  0  0  0  0  0  0  0  0
   -0.6685    2.0158   -0.9669 H   0  0  0  0  0  0  0  0  0  0  0  0
   -6.5632    1.3132   -1.0249 H   0  0  0  0  0  0  0  0  0  0  0  0
   -6.4839    3.7465   -0.5147 H   0  0  0  0  0  0  0  0  0  0  0  0
  1  2  1  0
  2  3  2  0
  3  4  1  0
  4  5  2  0
  5  6  1  0
  6  7  1  0
  7  8  2  0
  8  9  1  0
  9 10  1  0
  9 11  1  0
  9 12  1  0
  8 13  1  0
 13 14  2  0
 14 15  1  0
 15 16  1  0
 16 17  2  0
 16 18  1  0
 18 19  1  0
 19 20  2  0
 20 21  1  0
 21 22  2  0
 22 23  1  0
 23 24  1  0
 24 25  1  0
 25 26  1  0
 26 27  1  0
 27 28  1  0
 28 29  1  0
 29 30  1  0
 30 31  1  0
 22 32  1  0
 32 33  2  0
 33 34  1  0
 34 35  2  0
 35 36  1  0
 36 37  2  0
  5 38  1  0
 38 39  2  0
 39  2  1  0
 14  6  1  0
 37 19  1  0
 31 26  1  0
 37 32  1  0
  1 40  1  0
  1 41  1  0
  1 42  1  0
  3 43  1  0
  4 44  1  0
 10 45  1  0
 10 46  1  0
 10 47  1  0
 11 48  1  0
 11 49  1  0
 11 50  1  0
 12 51  1  0
 12 52  1  0
 12 53  1  0
 13 54  1  0
 15 55  1  0
 18 56  1  0
 20 57  1  0
 21 58  1  0
 24 59  1  0
 24 60  1  0
 25 61  1  0
 25 62  1  0
 27 63  1  0
 27 64  1  0
 28 65  1  0
 28 66  1  0
 30 67  1  0
 30 68  1  0
 31 69  1  0
 31 70  1  0
 33 71  1  0
 34 72  1  0
 35 73  1  0
 36 74  1  0
 38 75  1  0
 39 76  1  0
M  END
$$$$
