
     RDKit          3D

 34 36  0  0  0  0  0  0  0  0999 V2000
   -5.5426    1.7040   -0.1002 C   0  0  0  0  0  0  0  0  0  0  0  0
   -4.3327    0.8830    0.1437 C   0  0  0  0  0  0  0  0  0  0  0  0
   -4.5014   -0.4137    0.5804 C   0  0  0  0  0  0  0  0  0  0  0  0
   -3.3985   -1.2254    0.8240 C   0  0  0  0  0  0  0  0  0  0  0  0
   -2.1113   -0.7709    0.6406 C   0  0  0  0  0  0  0  0  0  0  0  0
   -0.9613   -1.6560    0.9074 C   0  0  0  0  0  0  0  0  0  0  0  0
   -1.1240   -2.9776    1.3523 C   0  0  0  0  0  0  0  0  0  0  0  0
    0.5089   -3.5218    1.4935 S   0  0  0  0  0  0  0  0  0  0  0  0
    1.2774   -1.8781    0.9262 C   0  0  0  0  0  0  0  0  0  0  0  0
    2.7052   -1.8239    0.8728 N   0  0  0  0  0  0  0  0  0  0  0  0
    3.3160   -0.6143    0.4545 C   0  0  0  0  0  0  0  0  0  0  0  0
    2.6041    0.5089    0.0983 C   0  0  0  0  0  0  0  0  0  0  0  0
    3.2658    1.6731   -0.3063 C   0  0  0  0  0  0  0  0  0  0  0  0
    4.6325    1.7274   -0.3589 C   0  0  0  0  0  0  0  0  0  0  0  0
    5.3330    2.8569   -0.7529 O   0  0  0  0  0  0  0  0  0  0  0  0
    5.3364    0.6000   -0.0012 C   0  0  0  0  0  0  0  0  0  0  0  0
    4.7221   -0.5611    0.4012 C   0  0  0  0  0  0  0  0  0  0  0  0
    0.2748   -1.2870    0.7538 N   0  0  0  0  0  0  0  0  0  0  0  0
   -1.9422    0.5389    0.1995 C   0  0  0  0  0  0  0  0  0  0  0  0
   -3.0459    1.3224   -0.0346 C   0  0  0  0  0  0  0  0  0  0  0  0
   -5.3251    2.6031   -0.7082 H   0  0  0  0  0  0  0  0  0  0  0  0
   -6.2502    1.0635   -0.6876 H   0  0  0  0  0  0  0  0  0  0  0  0
   -6.0617    1.9244    0.8495 H   0  0  0  0  0  0  0  0  0  0  0  0
   -5.4937   -0.8165    0.7393 H   0  0  0  0  0  0  0  0  0  0  0  0
   -3.5401   -2.2420    1.1666 H   0  0  0  0  0  0  0  0  0  0  0  0
   -2.0500   -3.5026    1.5503 H   0  0  0  0  0  0  0  0  0  0  0  0
    3.3111   -2.6516    1.1338 H   0  0  0  0  0  0  0  0  0  0  0  0
    1.5357    0.5229    0.1207 H   0  0  0  0  0  0  0  0  0  0  0  0
    2.7086    2.5651   -0.5893 H   0  0  0  0  0  0  0  0  0  0  0  0
    6.2399    3.0191   -0.3299 H   0  0  0  0  0  0  0  0  0  0  0  0
    6.4361    0.6409   -0.0426 H   0  0  0  0  0  0  0  0  0  0  0  0
    5.2935   -1.4535    0.6840 H   0  0  0  0  0  0  0  0  0  0  0  0
   -0.9362    0.9032    0.0531 H   0  0  0  0  0  0  0  0  0  0  0  0
   -2.8842    2.3392   -0.3778 H   0  0  0  0  0  0  0  0  0  0  0  0
  1  2  1  0
  2  3  2  0
  3  4  1  0
  4  5  2  0
  5  6  1  0
  6  7  2  0
  7  8  1  0
  8  9  1  0
  9 10  1  0
 10 11  1  0
 11 12  2  0
 12 13  1  0
 13 14  2  0
 14 15  1  0
 14 16  1  0
 16 17  2  0
  9 18  2  0
  5 19  1  0
 19 20  2  0
 20  2  1  0
 18  6  1  0
 17 11  1  0
  1 21  1  0
  1 22  1  0
  1 23  1  0
  3 24  1  0
  4 25  1  0
  7 26  1  0
 10 27  1  0
 12 28  1  0
 13 29  1  0
 15 30  1  0
 16 31  1  0
 17 32  1  0
 19 33  1  0
 20 34  1  0
M  END
$$$$
