
     RDKit          3D

 69 74  0  0  0  0  0  0  0  0999 V2000
   -2.4377   -6.1207   -1.1402 C   0  0  0  0  0  0  0  0  0  0  0  0
   -1.2041   -5.2525   -1.0418 C   0  0  0  0  0  0  0  0  0  0  0  0
   -1.5680   -3.8611   -1.4831 C   0  0  0  0  0  0  0  0  0  0  0  0
   -0.3753   -2.9631   -1.4026 C   0  0  0  0  0  0  0  0  0  0  0  0
    0.5101   -2.7621   -2.4251 N   0  0  0  0  0  0  0  0  0  0  0  0
    1.4708   -1.9202   -2.0371 C   0  0  0  0  0  0  0  0  0  0  0  0
    2.5851   -1.4268   -2.7199 C   0  0  0  0  0  0  0  0  0  0  0  0
    2.8503   -1.8258   -4.1319 C   0  0  0  0  0  0  0  0  0  0  0  0
    3.4103   -0.5666   -2.0281 C   0  0  0  0  0  0  0  0  0  0  0  0
    3.2058   -0.1706   -0.7251 C   0  0  0  0  0  0  0  0  0  0  0  0
    4.1008    0.7430   -0.0202 C   0  0  0  0  0  0  0  0  0  0  0  0
    5.0084    0.3364    0.8839 N   0  0  0  0  0  0  0  0  0  0  0  0
    5.7063    1.3897    1.3852 C   0  0  0  0  0  0  0  0  0  0  0  0
    6.7191    1.4961    2.3145 C   0  0  0  0  0  0  0  0  0  0  0  0
    7.2130    2.7500    2.5971 C   0  0  0  0  0  0  0  0  0  0  0  0
    6.7374    3.8957    1.9908 C   0  0  0  0  0  0  0  0  0  0  0  0
    5.7254    3.7309    1.0705 C   0  0  0  0  0  0  0  0  0  0  0  0
    5.1931    2.5002    0.7489 C   0  0  0  0  0  0  0  0  0  0  0  0
    4.2223    2.0684   -0.0951 N   0  0  0  0  0  0  0  0  0  0  0  0
    3.4356    2.9181   -0.9494 C   0  0  0  0  0  0  0  0  0  0  0  0
    2.0819   -0.6886   -0.0869 C   0  0  0  0  0  0  0  0  0  0  0  0
    1.2181   -1.5569   -0.7357 C   0  0  0  0  0  0  0  0  0  0  0  0
    0.0779   -2.2160   -0.3831 N   0  0  0  0  0  0  0  0  0  0  0  0
   -0.5075   -2.0711    0.9257 C   0  0  0  0  0  0  0  0  0  0  0  0
   -1.5351   -0.9870    0.9782 C   0  0  0  0  0  0  0  0  0  0  0  0
   -2.8931   -1.3075    1.0109 C   0  0  0  0  0  0  0  0  0  0  0  0
   -3.8583   -0.3240    1.0483 C   0  0  0  0  0  0  0  0  0  0  0  0
   -3.5440    1.0123    1.0556 C   0  0  0  0  0  0  0  0  0  0  0  0
   -4.5393    2.0715    1.0815 C   0  0  0  0  0  0  0  0  0  0  0  0
   -4.4836    2.8964    2.2064 C   0  0  0  0  0  0  0  0  0  0  0  0
   -5.3860    3.8960    2.3914 C   0  0  0  0  0  0  0  0  0  0  0  0
   -6.3711    4.0991    1.4551 C   0  0  0  0  0  0  0  0  0  0  0  0
   -6.4258    3.2896    0.3492 C   0  0  0  0  0  0  0  0  0  0  0  0
   -5.5012    2.2554    0.1446 C   0  0  0  0  0  0  0  0  0  0  0  0
   -5.5708    1.4681   -1.0657 C   0  0  0  0  0  0  0  0  0  0  0  0
   -6.5268    1.6752   -1.8828 O   0  0  0  0  0  0  0  0  0  0  0  0
   -4.6355    0.5067   -1.3616 O   0  0  0  0  0  0  0  0  0  0  0  0
   -2.2073    1.3370    1.0245 C   0  0  0  0  0  0  0  0  0  0  0  0
   -1.2173    0.3504    0.9864 C   0  0  0  0  0  0  0  0  0  0  0  0
   -2.1912   -7.2054   -1.1913 H   0  0  0  0  0  0  0  0  0  0  0  0
   -3.0186   -5.9753   -0.2062 H   0  0  0  0  0  0  0  0  0  0  0  0
   -3.0121   -5.8149   -2.0429 H   0  0  0  0  0  0  0  0  0  0  0  0
   -0.4372   -5.6938   -1.7256 H   0  0  0  0  0  0  0  0  0  0  0  0
   -0.8406   -5.2633   -0.0037 H   0  0  0  0  0  0  0  0  0  0  0  0
   -1.9651   -3.9019   -2.5218 H   0  0  0  0  0  0  0  0  0  0  0  0
   -2.3481   -3.4640   -0.8274 H   0  0  0  0  0  0  0  0  0  0  0  0
    2.9446   -2.9327   -4.2022 H   0  0  0  0  0  0  0  0  0  0  0  0
    2.0997   -1.4196   -4.8355 H   0  0  0  0  0  0  0  0  0  0  0  0
    3.8467   -1.4165   -4.4023 H   0  0  0  0  0  0  0  0  0  0  0  0
    4.2941   -0.1604   -2.5343 H   0  0  0  0  0  0  0  0  0  0  0  0
    7.0921    0.6025    2.7893 H   0  0  0  0  0  0  0  0  0  0  0  0
    8.0169    2.8985    3.3257 H   0  0  0  0  0  0  0  0  0  0  0  0
    7.1495    4.8842    2.2348 H   0  0  0  0  0  0  0  0  0  0  0  0
    5.3388    4.6180    0.5840 H   0  0  0  0  0  0  0  0  0  0  0  0
    3.1917    3.9036   -0.4688 H   0  0  0  0  0  0  0  0  0  0  0  0
    4.0072    3.0803   -1.9038 H   0  0  0  0  0  0  0  0  0  0  0  0
    2.4785    2.4604   -1.2343 H   0  0  0  0  0  0  0  0  0  0  0  0
    1.8945   -0.4066    0.9383 H   0  0  0  0  0  0  0  0  0  0  0  0
   -0.9985   -3.0421    1.1734 H   0  0  0  0  0  0  0  0  0  0  0  0
    0.2702   -1.8064    1.6785 H   0  0  0  0  0  0  0  0  0  0  0  0
   -3.1834   -2.3424    1.0195 H   0  0  0  0  0  0  0  0  0  0  0  0
   -4.9280   -0.5967    1.0836 H   0  0  0  0  0  0  0  0  0  0  0  0
   -3.6997    2.7454    2.9648 H   0  0  0  0  0  0  0  0  0  0  0  0
   -5.3403    4.5318    3.2618 H   0  0  0  0  0  0  0  0  0  0  0  0
   -7.0975    4.8798    1.5750 H   0  0  0  0  0  0  0  0  0  0  0  0
   -7.1988    3.4301   -0.4098 H   0  0  0  0  0  0  0  0  0  0  0  0
   -4.9253   -0.3147   -1.8922 H   0  0  0  0  0  0  0  0  0  0  0  0
   -1.9328    2.3814    1.0301 H   0  0  0  0  0  0  0  0  0  0  0  0
   -0.1913    0.6755    0.9666 H   0  0  0  0  0  0  0  0  0  0  0  0
  1  2  1  0
  2  3  1  0
  3  4  1  0
  4  5  2  0
  5  6  1  0
  6  7  2  0
  7  8  1  0
  7  9  1  0
  9 10  2  0
 10 11  1  0
 11 12  2  0
 12 13  1  0
 13 14  2  0
 14 15  1  0
 15 16  2  0
 16 17  1  0
 17 18  2  0
 18 19  1  0
 19 20  1  0
 10 21  1  0
 21 22  2  0
 22 23  1  0
 23 24  1  0
 24 25  1  0
 25 26  2  0
 26 27  1  0
 27 28  2  0
 28 29  1  0
 29 30  2  0
 30 31  1  0
 31 32  2  0
 32 33  1  0
 33 34  2  0
 34 35  1  0
 35 36  2  0
 35 37  1  0
 28 38  1  0
 38 39  2  0
 23  4  1  0
 39 25  1  0
 22  6  1  0
 34 29  1  0
 19 11  1  0
 18 13  1  0
  1 40  1  0
  1 41  1  0
  1 42  1  0
  2 43  1  0
  2 44  1  0
  3 45  1  0
  3 46  1  0
  8 47  1  0
  8 48  1  0
  8 49  1  0
  9 50  1  0
 14 51  1  0
 15 52  1  0
 16 53  1  0
 17 54  1  0
 20 55  1  0
 20 56  1  0
 20 57  1  0
 21 58  1  0
 24 59  1  0
 24 60  1  0
 26 61  1  0
 27 62  1  0
 30 63  1  0
 31 64  1  0
 32 65  1  0
 33 66  1  0
 37 67  1  0
 38 68  1  0
 39 69  1  0
M  END
$$$$
