
     RDKit          3D

 77 82  0  0  0  0  0  0  0  0999 V2000
    0.0052    0.5256   -2.6204 C   0  0  0  0  0  0  0  0  0  0  0  0
    0.2754    1.7914   -1.9117 C   0  0  0  0  0  0  0  0  0  0  0  0
    0.0933    2.9999   -2.5428 C   0  0  0  0  0  0  0  0  0  0  0  0
    0.3499    4.1940   -1.8749 C   0  0  0  0  0  0  0  0  0  0  0  0
    0.7891    4.1392   -0.5719 C   0  0  0  0  0  0  0  0  0  0  0  0
    0.9817    2.9228    0.0908 C   0  0  0  0  0  0  0  0  0  0  0  0
    0.7145    1.7496   -0.6089 C   0  0  0  0  0  0  0  0  0  0  0  0
    0.9117    0.4551    0.0428 C   0  0  1  0  0  0  0  0  0  0  0  0
    2.4034    0.1057   -0.0718 C   0  0  0  0  0  0  0  0  0  0  0  0
    2.7117   -1.2639    0.4662 C   0  0  1  0  0  0  0  0  0  0  0  0
    4.1744   -1.3173    0.6239 N   0  0  0  0  0  0  0  0  0  0  0  0
    4.8307   -1.1142   -0.6295 C   0  0  0  0  0  0  0  0  0  0  0  0
    6.3081   -1.1792   -0.3979 C   0  0  0  0  0  0  0  0  0  0  0  0
    7.0263   -0.0323   -0.0892 C   0  0  0  0  0  0  0  0  0  0  0  0
    8.3830   -0.0579    0.1295 C   0  0  0  0  0  0  0  0  0  0  0  0
    9.0792   -1.2372    0.0478 C   0  0  0  0  0  0  0  0  0  0  0  0
   10.8163   -1.2274    0.3349 Cl  0  0  0  0  0  0  0  0  0  0  0  0
    8.3910   -2.3937   -0.2576 C   0  0  0  0  0  0  0  0  0  0  0  0
    7.0194   -2.3587   -0.4771 C   0  0  0  0  0  0  0  0  0  0  0  0
    2.1723   -1.4150    1.8715 C   0  0  0  0  0  0  0  0  0  0  0  0
    0.7629   -0.9570    2.0094 C   0  0  0  0  0  0  0  0  0  0  0  0
    0.5903    0.4683    1.5133 C   0  0  2  0  0  0  0  0  0  0  0  0
   -0.7260    0.9873    1.8685 C   0  0  0  0  0  0  0  0  0  0  0  0
   -0.7688    2.0431    2.5934 O   0  0  0  0  0  0  0  0  0  0  0  0
   -1.9800    0.4464    1.4980 N   0  0  0  0  0  0  0  0  0  0  0  0
   -3.3788    0.7833    1.7218 C   0  0  0  0  0  0  0  0  0  0  0  0
   -3.8263   -0.1664    0.6154 C   0  0  0  0  0  0  0  0  0  0  0  0
   -4.8285   -1.1649    1.0784 C   0  0  0  0  0  0  0  0  0  0  0  0
   -5.9996   -0.8023    1.6781 C   0  0  0  0  0  0  0  0  0  0  0  0
   -6.9317   -1.7556    2.1043 C   0  0  0  0  0  0  0  0  0  0  0  0
   -6.6981   -3.0951    1.9325 C   0  0  0  0  0  0  0  0  0  0  0  0
   -5.5118   -3.4502    1.3256 C   0  0  0  0  0  0  0  0  0  0  0  0
   -4.5755   -2.5074    0.8966 C   0  0  0  0  0  0  0  0  0  0  0  0
   -4.1995    0.5076   -0.6385 C   0  0  0  0  0  0  0  0  0  0  0  0
   -5.0649    1.5756   -0.5814 C   0  0  0  0  0  0  0  0  0  0  0  0
   -5.4218    2.2117   -1.7691 C   0  0  0  0  0  0  0  0  0  0  0  0
   -4.9419    1.8124   -2.9934 C   0  0  0  0  0  0  0  0  0  0  0  0
   -4.0683    0.7349   -3.0536 C   0  0  0  0  0  0  0  0  0  0  0  0
   -3.7196    0.1108   -1.8790 C   0  0  0  0  0  0  0  0  0  0  0  0
   -2.4387   -0.6967    0.7380 C   0  0  0  0  0  0  0  0  0  0  0  0
    0.9670    0.0037   -2.8054 H   0  0  0  0  0  0  0  0  0  0  0  0
   -0.7462   -0.1130   -2.1489 H   0  0  0  0  0  0  0  0  0  0  0  0
   -0.4131    0.7777   -3.6378 H   0  0  0  0  0  0  0  0  0  0  0  0
   -0.2497    3.0801   -3.5636 H   0  0  0  0  0  0  0  0  0  0  0  0
    0.2170    5.1585   -2.3416 H   0  0  0  0  0  0  0  0  0  0  0  0
    1.0045    5.0431   -0.0028 H   0  0  0  0  0  0  0  0  0  0  0  0
    1.3330    2.9014    1.1100 H   0  0  0  0  0  0  0  0  0  0  0  0
    0.3951   -0.3807   -0.4896 H   0  0  0  0  0  0  0  0  0  0  0  0
    2.9173    0.8353    0.5873 H   0  0  0  0  0  0  0  0  0  0  0  0
    2.6556    0.2061   -1.1243 H   0  0  0  0  0  0  0  0  0  0  0  0
    2.3598   -2.0673   -0.2161 H   0  0  0  0  0  0  0  0  0  0  0  0
    4.4017   -0.4966    1.2450 H   0  0  0  0  0  0  0  0  0  0  0  0
    4.6669   -0.0807   -1.0547 H   0  0  0  0  0  0  0  0  0  0  0  0
    4.4992   -1.8915   -1.3508 H   0  0  0  0  0  0  0  0  0  0  0  0
    6.5118    0.9343   -0.0136 H   0  0  0  0  0  0  0  0  0  0  0  0
    8.9147    0.8472    0.3677 H   0  0  0  0  0  0  0  0  0  0  0  0
    8.9706   -3.3064   -0.3142 H   0  0  0  0  0  0  0  0  0  0  0  0
    6.5299   -3.2734   -0.7094 H   0  0  0  0  0  0  0  0  0  0  0  0
    2.8170   -0.9267    2.6003 H   0  0  0  0  0  0  0  0  0  0  0  0
    2.1963   -2.5150    2.0941 H   0  0  0  0  0  0  0  0  0  0  0  0
    0.5104   -0.9433    3.0909 H   0  0  0  0  0  0  0  0  0  0  0  0
    0.0410   -1.5944    1.4565 H   0  0  0  0  0  0  0  0  0  0  0  0
    1.4121    1.0476    2.0011 H   0  0  0  0  0  0  0  0  0  0  0  0
   -3.6767    0.4041    2.7248 H   0  0  0  0  0  0  0  0  0  0  0  0
   -3.6590    1.8083    1.4765 H   0  0  0  0  0  0  0  0  0  0  0  0
   -6.2143    0.2330    1.8287 H   0  0  0  0  0  0  0  0  0  0  0  0
   -7.8536   -1.4154    2.5783 H   0  0  0  0  0  0  0  0  0  0  0  0
   -7.4351   -3.8086    2.2713 H   0  0  0  0  0  0  0  0  0  0  0  0
   -5.2877   -4.4965    1.1708 H   0  0  0  0  0  0  0  0  0  0  0  0
   -3.6605   -2.8587    0.4232 H   0  0  0  0  0  0  0  0  0  0  0  0
   -5.4850    1.9521    0.3394 H   0  0  0  0  0  0  0  0  0  0  0  0
   -6.1068    3.0523   -1.6913 H   0  0  0  0  0  0  0  0  0  0  0  0
   -5.2498    2.3412   -3.8957 H   0  0  0  0  0  0  0  0  0  0  0  0
   -3.6908    0.4206   -4.0171 H   0  0  0  0  0  0  0  0  0  0  0  0
   -3.0440   -0.7300   -1.8906 H   0  0  0  0  0  0  0  0  0  0  0  0
   -1.9069   -0.8882   -0.2074 H   0  0  0  0  0  0  0  0  0  0  0  0
   -2.3515   -1.6325    1.3604 H   0  0  0  0  0  0  0  0  0  0  0  0
  1  2  1  0
  2  3  2  0
  3  4  1  0
  4  5  2  0
  5  6  1  0
  6  7  2  0
  7  8  1  0
  8  9  1  0
  9 10  1  0
 10 11  1  0
 11 12  1  0
 12 13  1  0
 13 14  2  0
 14 15  1  0
 15 16  2  0
 16 17  1  0
 16 18  1  0
 18 19  2  0
 10 20  1  0
 20 21  1  0
 21 22  1  0
 22 23  1  0
 23 24  2  0
 23 25  1  0
 25 26  1  0
 26 27  1  0
 27 28  1  0
 28 29  2  0
 29 30  1  0
 30 31  2  0
 31 32  1  0
 32 33  2  0
 27 34  1  0
 34 35  2  0
 35 36  1  0
 36 37  2  0
 37 38  1  0
 38 39  2  0
 27 40  1  0
  7  2  1  0
 22  8  1  0
 40 25  1  0
 19 13  1  0
 33 28  1  0
 39 34  1  0
  1 41  1  0
  1 42  1  0
  1 43  1  0
  3 44  1  0
  4 45  1  0
  5 46  1  0
  6 47  1  0
  8 48  1  6
  9 49  1  0
  9 50  1  0
 10 51  1  6
 11 52  1  0
 12 53  1  0
 12 54  1  0
 14 55  1  0
 15 56  1  0
 18 57  1  0
 19 58  1  0
 20 59  1  0
 20 60  1  0
 21 61  1  0
 21 62  1  0
 22 63  1  1
 26 64  1  0
 26 65  1  0
 29 66  1  0
 30 67  1  0
 31 68  1  0
 32 69  1  0
 33 70  1  0
 35 71  1  0
 36 72  1  0
 37 73  1  0
 38 74  1  0
 39 75  1  0
 40 76  1  0
 40 77  1  0
M  END
$$$$
