
     RDKit          3D

 54 58  0  0  0  0  0  0  0  0999 V2000
    8.4348    2.4664   -2.1230 C   0  0  0  0  0  0  0  0  0  0  0  0
    7.0601    2.2338   -2.3762 O   0  0  0  0  0  0  0  0  0  0  0  0
    6.3683    1.4456   -1.4672 C   0  0  0  0  0  0  0  0  0  0  0  0
    6.9625    0.8966   -0.3545 C   0  0  0  0  0  0  0  0  0  0  0  0
    6.2761    0.1173    0.5433 C   0  0  0  0  0  0  0  0  0  0  0  0
    4.9257   -0.1487    0.3522 C   0  0  0  0  0  0  0  0  0  0  0  0
    4.3102    0.3823   -0.7423 C   0  0  0  0  0  0  0  0  0  0  0  0
    5.0231    1.1672   -1.6369 C   0  0  0  0  0  0  0  0  0  0  0  0
    2.9099   -0.0557   -0.6917 C   0  0  0  0  0  0  0  0  0  0  0  0
    2.0107    0.2178   -1.5154 O   0  0  0  0  0  0  0  0  0  0  0  0
    2.7083   -0.8602    0.4596 N   0  0  0  0  0  0  0  0  0  0  0  0
    1.4437   -1.4656    0.8263 C   0  0  0  0  0  0  0  0  0  0  0  0
    0.3402   -1.5781    0.5077 N   0  0  0  0  0  0  0  0  0  0  0  0
   -0.6487   -2.2221    1.0547 C   0  0  0  0  0  0  0  0  0  0  0  0
   -2.0495   -2.3109    0.5684 C   0  0  0  0  0  0  0  0  0  0  0  0
   -2.9021   -2.9727    1.1984 O   0  0  0  0  0  0  0  0  0  0  0  0
   -2.4676   -1.6528   -0.6198 N   0  0  0  0  0  0  0  0  0  0  0  0
   -3.7807   -1.6886   -1.1435 C   0  0  0  0  0  0  0  0  0  0  0  0
   -4.1897   -2.7120   -1.9998 C   0  0  0  0  0  0  0  0  0  0  0  0
   -5.4460   -2.6982   -2.4811 N   0  0  0  0  0  0  0  0  0  0  0  0
   -6.3451   -1.7437   -2.1827 C   0  0  0  0  0  0  0  0  0  0  0  0
   -5.9468   -0.7316   -1.3385 C   0  0  0  0  0  0  0  0  0  0  0  0
   -4.6658   -0.7019   -0.8181 C   0  0  0  0  0  0  0  0  0  0  0  0
   -4.2635    0.3408    0.0387 N   0  0  0  0  0  0  0  0  0  0  0  0
   -3.8431    0.2324    1.4053 C   0  0  0  0  0  0  0  0  0  0  0  0
   -4.5432    1.3958    2.1332 C   0  0  0  0  0  0  0  0  0  0  0  0
   -3.9343    2.6132    1.6928 N   0  0  0  0  0  0  0  0  0  0  0  0
   -3.3833    2.5313    0.3531 C   0  0  0  0  0  0  0  0  0  0  0  0
   -4.2733    1.7009   -0.5207 C   0  0  0  0  0  0  0  0  0  0  0  0
   -0.2796   -2.8934    2.2478 C   0  0  0  0  0  0  0  0  0  0  0  0
    1.4495   -2.5019    2.4172 S   0  0  0  0  0  0  0  0  0  0  0  0
    3.9783   -0.9323    1.1409 C   0  0  0  0  0  0  0  0  0  0  0  0
    8.7632    3.2857   -2.7956 H   0  0  0  0  0  0  0  0  0  0  0  0
    8.6321    2.7815   -1.0924 H   0  0  0  0  0  0  0  0  0  0  0  0
    9.0411    1.5564   -2.3389 H   0  0  0  0  0  0  0  0  0  0  0  0
    8.0105    1.0744   -0.1619 H   0  0  0  0  0  0  0  0  0  0  0  0
    6.8069   -0.2907    1.4101 H   0  0  0  0  0  0  0  0  0  0  0  0
    4.5107    1.5662   -2.4816 H   0  0  0  0  0  0  0  0  0  0  0  0
   -1.7026   -1.1061   -1.1170 H   0  0  0  0  0  0  0  0  0  0  0  0
   -3.4911   -3.4931   -2.2584 H   0  0  0  0  0  0  0  0  0  0  0  0
   -7.3654   -1.7717   -2.6004 H   0  0  0  0  0  0  0  0  0  0  0  0
   -6.6583    0.0406   -1.0908 H   0  0  0  0  0  0  0  0  0  0  0  0
   -2.7447    0.3027    1.5488 H   0  0  0  0  0  0  0  0  0  0  0  0
   -4.2151   -0.6796    1.8886 H   0  0  0  0  0  0  0  0  0  0  0  0
   -4.4457    1.2767    3.2228 H   0  0  0  0  0  0  0  0  0  0  0  0
   -5.6028    1.4000    1.8639 H   0  0  0  0  0  0  0  0  0  0  0  0
   -3.2030    2.9490    2.3633 H   0  0  0  0  0  0  0  0  0  0  0  0
   -2.3917    2.0234    0.3969 H   0  0  0  0  0  0  0  0  0  0  0  0
   -3.1991    3.5259   -0.0850 H   0  0  0  0  0  0  0  0  0  0  0  0
   -3.9482    1.7264   -1.5601 H   0  0  0  0  0  0  0  0  0  0  0  0
   -5.3188    2.0668   -0.3646 H   0  0  0  0  0  0  0  0  0  0  0  0
   -0.8918   -3.4942    2.8961 H   0  0  0  0  0  0  0  0  0  0  0  0
    4.3011   -2.0123    1.1217 H   0  0  0  0  0  0  0  0  0  0  0  0
    3.8739   -0.5988    2.1921 H   0  0  0  0  0  0  0  0  0  0  0  0
  1  2  1  0
  2  3  1  0
  3  4  2  0
  4  5  1  0
  5  6  2  0
  6  7  1  0
  7  8  2  0
  7  9  1  0
  9 10  2  0
  9 11  1  0
 11 12  1  0
 12 13  2  0
 13 14  1  0
 14 15  1  0
 15 16  2  0
 15 17  1  0
 17 18  1  0
 18 19  2  0
 19 20  1  0
 20 21  2  0
 21 22  1  0
 22 23  2  0
 23 24  1  0
 24 25  1  0
 25 26  1  0
 26 27  1  0
 27 28  1  0
 28 29  1  0
 14 30  2  0
 30 31  1  0
 11 32  1  0
  8  3  1  0
 31 12  1  0
 32  6  1  0
 23 18  1  0
 29 24  1  0
  1 33  1  0
  1 34  1  0
  1 35  1  0
  4 36  1  0
  5 37  1  0
  8 38  1  0
 17 39  1  0
 19 40  1  0
 21 41  1  0
 22 42  1  0
 25 43  1  0
 25 44  1  0
 26 45  1  0
 26 46  1  0
 27 47  1  0
 28 48  1  0
 28 49  1  0
 29 50  1  0
 29 51  1  0
 30 52  1  0
 32 53  1  0
 32 54  1  0
M  END
$$$$
