
     RDKit          3D

 59 62  0  0  0  0  0  0  0  0999 V2000
    1.2442    1.0466   -3.5493 C   0  0  0  0  0  0  0  0  0  0  0  0
    1.5671    0.8842   -2.0962 C   0  0  0  0  0  0  0  0  0  0  0  0
    0.5727    0.6893   -1.2143 N   0  0  0  0  0  0  0  0  0  0  0  0
    0.7820    0.5358    0.0967 C   0  0  0  0  0  0  0  0  0  0  0  0
   -0.2335    0.3310    1.0447 N   0  0  0  0  0  0  0  0  0  0  0  0
   -1.5843    0.2899    0.5244 C   0  0  0  0  0  0  0  0  0  0  0  0
   -2.2194    0.3646   -0.4536 N   0  0  0  0  0  0  0  0  0  0  0  0
   -3.5150    0.2840   -0.6253 C   0  0  0  0  0  0  0  0  0  0  0  0
   -4.2425    0.0773    0.5392 C   0  0  0  0  0  0  0  0  0  0  0  0
   -5.6800   -0.0631    0.7495 C   0  0  0  0  0  0  0  0  0  0  0  0
   -6.1538   -0.2487    1.9097 O   0  0  0  0  0  0  0  0  0  0  0  0
   -6.6059   -0.0007   -0.3131 N   0  0  0  0  0  0  0  0  0  0  0  0
   -7.9942   -0.1356   -0.1146 C   0  0  0  0  0  0  0  0  0  0  0  0
   -8.5793   -1.3780   -0.1660 C   0  0  0  0  0  0  0  0  0  0  0  0
   -7.7681   -2.5723   -0.4256 C   0  0  0  0  0  0  0  0  0  0  0  0
   -9.9603   -1.5129    0.0304 C   0  0  0  0  0  0  0  0  0  0  0  0
  -10.7399   -0.3913    0.2773 C   0  0  0  0  0  0  0  0  0  0  0  0
  -10.1584    0.8391    0.3278 C   0  0  0  0  0  0  0  0  0  0  0  0
   -8.7906    0.9515    0.1309 C   0  0  0  0  0  0  0  0  0  0  0  0
   -8.0477    2.5261    0.1956 Cl  0  0  0  0  0  0  0  0  0  0  0  0
   -2.9662    0.0173    1.7992 S   0  0  0  0  0  0  0  0  0  0  0  0
    2.1206    0.5878    0.5291 C   0  0  0  0  0  0  0  0  0  0  0  0
    3.1392    0.7854   -0.3586 C   0  0  0  0  0  0  0  0  0  0  0  0
    4.4752    0.8328    0.0592 N   0  0  0  0  0  0  0  0  0  0  0  0
    5.4958    1.2532   -0.9025 C   0  0  0  0  0  0  0  0  0  0  0  0
    6.8558    1.2582   -0.2318 C   0  0  0  0  0  0  0  0  0  0  0  0
    7.0946   -0.0314    0.3966 N   0  0  0  0  0  0  0  0  0  0  0  0
    8.4620   -0.1708    0.7292 C   0  0  0  0  0  0  0  0  0  0  0  0
    8.8967   -1.4491    1.3424 C   0  0  0  0  0  0  0  0  0  0  0  0
    8.2929   -1.7755    2.5449 O   0  0  0  0  0  0  0  0  0  0  0  0
    6.1224   -0.3750    1.3600 C   0  0  0  0  0  0  0  0  0  0  0  0
    4.8747    0.4887    1.3731 C   0  0  0  0  0  0  0  0  0  0  0  0
    2.8437    0.9306   -1.6591 N   0  0  0  0  0  0  0  0  0  0  0  0
    0.6734    0.1668   -3.9315 H   0  0  0  0  0  0  0  0  0  0  0  0
    0.6659    1.9765   -3.7398 H   0  0  0  0  0  0  0  0  0  0  0  0
    2.1679    1.0973   -4.1475 H   0  0  0  0  0  0  0  0  0  0  0  0
   -0.0222    0.2170    2.0533 H   0  0  0  0  0  0  0  0  0  0  0  0
   -4.0183    0.3674   -1.5892 H   0  0  0  0  0  0  0  0  0  0  0  0
   -6.2175    0.1522   -1.2711 H   0  0  0  0  0  0  0  0  0  0  0  0
   -7.7579   -3.2096    0.4776 H   0  0  0  0  0  0  0  0  0  0  0  0
   -8.1458   -3.1310   -1.3216 H   0  0  0  0  0  0  0  0  0  0  0  0
   -6.7385   -2.2786   -0.6671 H   0  0  0  0  0  0  0  0  0  0  0  0
  -10.4144   -2.4872   -0.0107 H   0  0  0  0  0  0  0  0  0  0  0  0
  -11.8184   -0.4741    0.4332 H   0  0  0  0  0  0  0  0  0  0  0  0
  -10.7245    1.7381    0.5167 H   0  0  0  0  0  0  0  0  0  0  0  0
    2.2905    0.4709    1.5722 H   0  0  0  0  0  0  0  0  0  0  0  0
    5.2458    2.2620   -1.2328 H   0  0  0  0  0  0  0  0  0  0  0  0
    5.5384    0.5721   -1.7734 H   0  0  0  0  0  0  0  0  0  0  0  0
    7.6095    1.3937   -1.0344 H   0  0  0  0  0  0  0  0  0  0  0  0
    6.9285    2.1038    0.4498 H   0  0  0  0  0  0  0  0  0  0  0  0
    8.8587    0.6616    1.3677 H   0  0  0  0  0  0  0  0  0  0  0  0
    9.0448   -0.0577   -0.2331 H   0  0  0  0  0  0  0  0  0  0  0  0
    8.8801   -2.3125    0.6213 H   0  0  0  0  0  0  0  0  0  0  0  0
    9.9969   -1.3431    1.5841 H   0  0  0  0  0  0  0  0  0  0  0  0
    8.8851   -2.2097    3.1887 H   0  0  0  0  0  0  0  0  0  0  0  0
    6.4788   -0.3689    2.4112 H   0  0  0  0  0  0  0  0  0  0  0  0
    5.7796   -1.4211    1.1572 H   0  0  0  0  0  0  0  0  0  0  0  0
    4.1273   -0.1184    1.9523 H   0  0  0  0  0  0  0  0  0  0  0  0
    5.0861    1.3636    2.0281 H   0  0  0  0  0  0  0  0  0  0  0  0
  1  2  1  0
  2  3  2  0
  3  4  1  0
  4  5  1  0
  5  6  1  0
  6  7  2  0
  7  8  1  0
  8  9  2  0
  9 10  1  0
 10 11  2  0
 10 12  1  0
 12 13  1  0
 13 14  2  0
 14 15  1  0
 14 16  1  0
 16 17  2  0
 17 18  1  0
 18 19  2  0
 19 20  1  0
  9 21  1  0
  4 22  2  0
 22 23  1  0
 23 24  1  0
 24 25  1  0
 25 26  1  0
 26 27  1  0
 27 28  1  0
 28 29  1  0
 29 30  1  0
 27 31  1  0
 31 32  1  0
 23 33  2  0
 33  2  1  0
 21  6  1  0
 32 24  1  0
 19 13  1  0
  1 34  1  0
  1 35  1  0
  1 36  1  0
  5 37  1  0
  8 38  1  0
 12 39  1  0
 15 40  1  0
 15 41  1  0
 15 42  1  0
 16 43  1  0
 17 44  1  0
 18 45  1  0
 22 46  1  0
 25 47  1  0
 25 48  1  0
 26 49  1  0
 26 50  1  0
 28 51  1  0
 28 52  1  0
 29 53  1  0
 29 54  1  0
 30 55  1  0
 31 56  1  0
 31 57  1  0
 32 58  1  0
 32 59  1  0
M  END
$$$$
