
     RDKit          3D

 50 53  0  0  0  0  0  0  0  0999 V2000
   -2.9970   -0.9975   -1.8534 C   0  0  0  0  0  0  0  0  0  0  0  0
   -3.1757    0.1765   -0.8434 C   0  0  2  0  0  0  0  0  0  0  0  0
   -2.7104   -0.3660    0.4736 C   0  0  1  0  0  0  0  0  0  0  0  0
   -1.2870   -0.7762    0.3146 C   0  0  0  0  0  0  0  0  0  0  0  0
   -0.3570    0.0047   -0.2935 C   0  0  0  0  0  0  0  0  0  0  0  0
    0.9439   -0.4570   -0.4001 C   0  0  0  0  0  0  0  0  0  0  0  0
    1.3660   -1.6790    0.0796 C   0  0  0  0  0  0  0  0  0  0  0  0
    2.6865   -2.1604    0.0051 N   0  0  0  0  0  0  0  0  0  0  0  0
    3.8534   -1.3765   -0.0528 C   0  0  0  0  0  0  0  0  0  0  0  0
    5.0757   -1.6181   -0.1669 N   0  0  0  0  0  0  0  0  0  0  0  0
    6.0306   -0.7592   -0.1803 C   0  0  0  0  0  0  0  0  0  0  0  0
    7.4198   -1.0183   -0.3069 C   0  0  0  0  0  0  0  0  0  0  0  0
    8.2895    0.0377   -0.2977 C   0  0  0  0  0  0  0  0  0  0  0  0
    7.9396    1.3625   -0.1743 C   0  0  0  0  0  0  0  0  0  0  0  0
    6.5688    1.6366   -0.0482 C   0  0  0  0  0  0  0  0  0  0  0  0
    5.6959    0.5905   -0.0565 C   0  0  0  0  0  0  0  0  0  0  0  0
    3.8880    0.4280    0.0745 S   0  0  0  0  0  0  0  0  0  0  0  0
    0.3708   -2.4448    0.6967 C   0  0  0  0  0  0  0  0  0  0  0  0
   -0.9297   -2.0259    0.8233 C   0  0  0  0  0  0  0  0  0  0  0  0
   -2.9109    0.4792    1.6047 N   0  0  0  0  0  0  0  0  0  0  0  0
   -2.0659    1.4431    1.9885 C   0  0  0  0  0  0  0  0  0  0  0  0
   -2.5801    2.0347    3.1149 C   0  0  0  0  0  0  0  0  0  0  0  0
   -3.7282    1.3967    3.3686 N   0  0  0  0  0  0  0  0  0  0  0  0
   -3.9445    0.4413    2.4523 C   0  0  0  0  0  0  0  0  0  0  0  0
   -4.5390    0.5694   -0.9227 N   0  0  0  0  0  0  0  0  0  0  0  0
   -4.9474    1.7293   -0.2215 C   0  0  0  0  0  0  0  0  0  0  0  0
   -5.0277    0.6165   -2.2856 C   0  0  0  0  0  0  0  0  0  0  0  0
   -2.1339   -1.6176   -1.5312 H   0  0  0  0  0  0  0  0  0  0  0  0
   -3.8956   -1.6249   -1.7813 H   0  0  0  0  0  0  0  0  0  0  0  0
   -2.7780   -0.6257   -2.8584 H   0  0  0  0  0  0  0  0  0  0  0  0
   -2.5626    0.9938   -1.2548 H   0  0  0  0  0  0  0  0  0  0  0  0
   -3.2831   -1.3186    0.6923 H   0  0  0  0  0  0  0  0  0  0  0  0
   -0.6574    0.9692   -0.6776 H   0  0  0  0  0  0  0  0  0  0  0  0
    1.6275    0.2036   -0.9002 H   0  0  0  0  0  0  0  0  0  0  0  0
    2.8365   -3.1874   -0.0098 H   0  0  0  0  0  0  0  0  0  0  0  0
    7.7835   -2.0306   -0.4085 H   0  0  0  0  0  0  0  0  0  0  0  0
    9.3576   -0.2442   -0.4013 H   0  0  0  0  0  0  0  0  0  0  0  0
    8.6410    2.1668   -0.1700 H   0  0  0  0  0  0  0  0  0  0  0  0
    6.2020    2.6527    0.0547 H   0  0  0  0  0  0  0  0  0  0  0  0
    0.6640   -3.4285    1.0948 H   0  0  0  0  0  0  0  0  0  0  0  0
   -1.6368   -2.6814    1.3153 H   0  0  0  0  0  0  0  0  0  0  0  0
   -1.1146    1.7573    1.5312 H   0  0  0  0  0  0  0  0  0  0  0  0
   -2.1554    2.8623    3.7032 H   0  0  0  0  0  0  0  0  0  0  0  0
   -4.8205   -0.2270    2.4359 H   0  0  0  0  0  0  0  0  0  0  0  0
   -5.4787    2.4763   -0.9025 H   0  0  0  0  0  0  0  0  0  0  0  0
   -4.1756    2.3205    0.2739 H   0  0  0  0  0  0  0  0  0  0  0  0
   -5.7787    1.4349    0.4845 H   0  0  0  0  0  0  0  0  0  0  0  0
   -5.5046   -0.3425   -2.5880 H   0  0  0  0  0  0  0  0  0  0  0  0
   -4.2302    0.8378   -3.0254 H   0  0  0  0  0  0  0  0  0  0  0  0
   -5.8345    1.3856   -2.3628 H   0  0  0  0  0  0  0  0  0  0  0  0
  1  2  1  0
  2  3  1  0
  3  4  1  0
  4  5  2  0
  5  6  1  0
  6  7  2  0
  7  8  1  0
  8  9  1  0
  9 10  2  0
 10 11  1  0
 11 12  2  0
 12 13  1  0
 13 14  2  0
 14 15  1  0
 15 16  2  0
 16 17  1  0
  7 18  1  0
 18 19  2  0
  3 20  1  0
 20 21  1  0
 21 22  2  0
 22 23  1  0
 23 24  2  0
  2 25  1  0
 25 26  1  0
 25 27  1  0
 19  4  1  0
 24 20  1  0
 17  9  1  0
 16 11  1  0
  1 28  1  0
  1 29  1  0
  1 30  1  0
  2 31  1  6
  3 32  1  1
  5 33  1  0
  6 34  1  0
  8 35  1  0
 12 36  1  0
 13 37  1  0
 14 38  1  0
 15 39  1  0
 18 40  1  0
 19 41  1  0
 21 42  1  0
 22 43  1  0
 24 44  1  0
 26 45  1  0
 26 46  1  0
 26 47  1  0
 27 48  1  0
 27 49  1  0
 27 50  1  0
M  END
$$$$
