
     RDKit          3D

 81 82  0  0  0  0  0  0  0  0999 V2000
    5.0411    0.9595    0.4426 C   0  0  0  0  0  0  0  0  0  0  0  0
    5.8657    1.7494    1.4372 C   0  0  0  0  0  0  0  0  0  0  0  0
    6.6018    2.8557    0.8163 C   0  0  0  0  0  0  0  0  0  0  0  0
    7.5525    2.6535   -0.2817 C   0  0  0  0  0  0  0  0  0  0  0  0
    8.7720    1.8441   -0.1080 C   0  0  0  0  0  0  0  0  0  0  0  0
    8.5346    0.4186    0.2225 C   0  0  0  0  0  0  0  0  0  0  0  0
    9.8646   -0.3597    0.2966 C   0  0  0  0  0  0  0  0  0  0  0  0
    9.4838   -1.7923    0.6384 C   0  0  0  0  0  0  0  0  0  0  0  0
    8.5812   -2.3747   -0.4205 C   0  0  0  0  0  0  0  0  0  0  0  0
    3.7207    0.8442    0.5187 C   0  0  0  0  0  0  0  0  0  0  0  0
    2.7622    0.1091   -0.3694 C   0  0  0  0  0  0  0  0  0  0  0  0
    1.7762    1.0653   -0.9733 C   0  0  0  0  0  0  0  0  0  0  0  0
    0.9442    1.8357   -0.0245 C   0  0  0  0  0  0  0  0  0  0  0  0
    0.0732    1.0653    0.8941 C   0  0  0  0  0  0  0  0  0  0  0  0
   -0.9300    0.1998    0.1567 C   0  0  0  0  0  0  0  0  0  0  0  0
   -1.8455    1.0500   -0.7211 C   0  0  0  0  0  0  0  0  0  0  0  0
   -2.7974    0.0354   -1.3890 C   0  0  0  0  0  0  0  0  0  0  0  0
   -3.5122   -0.6385   -0.2731 C   0  0  0  0  0  0  0  0  0  0  0  0
   -4.0353    0.0998    0.5974 O   0  0  0  0  0  0  0  0  0  0  0  0
   -3.5515   -2.0122   -0.2633 O   0  0  0  0  0  0  0  0  0  0  0  0
   -4.1898   -2.7524    0.7241 C   0  0  0  0  0  0  0  0  0  0  0  0
   -5.6656   -2.6260    0.8245 C   0  0  1  0  0  0  0  0  0  0  0  0
   -6.1352   -1.3566    1.0549 O   0  0  0  0  0  0  0  0  0  0  0  0
   -7.5250   -1.4477    0.8720 C   0  0  1  0  0  0  0  0  0  0  0  0
   -8.1207   -0.1737    0.5491 N   0  0  0  0  0  0  0  0  0  0  0  0
   -7.6428    1.0825    0.5541 C   0  0  0  0  0  0  0  0  0  0  0  0
   -8.4183    2.1467    0.1956 C   0  0  0  0  0  0  0  0  0  0  0  0
   -9.7144    1.9361   -0.1794 C   0  0  0  0  0  0  0  0  0  0  0  0
  -10.4184    2.9706   -0.5161 N   0  0  0  0  0  0  0  0  0  0  0  0
  -10.2044    0.6867   -0.1891 N   0  0  0  0  0  0  0  0  0  0  0  0
   -9.4084   -0.3597    0.1743 C   0  0  0  0  0  0  0  0  0  0  0  0
  -10.1829   -1.5338    0.0706 O   0  0  0  0  0  0  0  0  0  0  0  0
   -7.7200   -2.3653   -0.2944 C   0  0  1  0  0  0  0  0  0  0  0  0
   -8.0858   -1.6817   -1.4555 O   0  0  0  0  0  0  0  0  0  0  0  0
   -6.3759   -3.0322   -0.4431 C   0  0  2  0  0  0  0  0  0  0  0  0
   -6.4965   -4.4209   -0.5380 O   0  0  0  0  0  0  0  0  0  0  0  0
    5.4484    0.4283   -0.4067 H   0  0  0  0  0  0  0  0  0  0  0  0
    5.0637    2.2759    2.1073 H   0  0  0  0  0  0  0  0  0  0  0  0
    6.3291    1.0707    2.1238 H   0  0  0  0  0  0  0  0  0  0  0  0
    7.1553    3.3753    1.6866 H   0  0  0  0  0  0  0  0  0  0  0  0
    5.8270    3.6479    0.5351 H   0  0  0  0  0  0  0  0  0  0  0  0
    7.8978    3.7125   -0.5914 H   0  0  0  0  0  0  0  0  0  0  0  0
    7.0125    2.3391   -1.2428 H   0  0  0  0  0  0  0  0  0  0  0  0
    9.3599    2.3435    0.7348 H   0  0  0  0  0  0  0  0  0  0  0  0
    9.4245    1.9618   -1.0211 H   0  0  0  0  0  0  0  0  0  0  0  0
    8.1686    0.3689    1.2715 H   0  0  0  0  0  0  0  0  0  0  0  0
    7.9172   -0.0692   -0.5230 H   0  0  0  0  0  0  0  0  0  0  0  0
   10.5360    0.0511    1.0666 H   0  0  0  0  0  0  0  0  0  0  0  0
   10.2646   -0.3457   -0.7212 H   0  0  0  0  0  0  0  0  0  0  0  0
    8.9020   -1.8280    1.6068 H   0  0  0  0  0  0  0  0  0  0  0  0
   10.3791   -2.4232    0.8319 H   0  0  0  0  0  0  0  0  0  0  0  0
    8.7062   -3.4948   -0.3848 H   0  0  0  0  0  0  0  0  0  0  0  0
    8.8675   -1.9977   -1.4313 H   0  0  0  0  0  0  0  0  0  0  0  0
    7.5410   -2.1978   -0.1439 H   0  0  0  0  0  0  0  0  0  0  0  0
    3.2020    1.3446    1.3449 H   0  0  0  0  0  0  0  0  0  0  0  0
    2.3118   -0.7608    0.1417 H   0  0  0  0  0  0  0  0  0  0  0  0
    3.3628   -0.3113   -1.2012 H   0  0  0  0  0  0  0  0  0  0  0  0
    2.3720    1.7907   -1.5682 H   0  0  0  0  0  0  0  0  0  0  0  0
    1.1889    0.4972   -1.7243 H   0  0  0  0  0  0  0  0  0  0  0  0
    0.3104    2.5318   -0.6150 H   0  0  0  0  0  0  0  0  0  0  0  0
    1.5859    2.5258    0.5995 H   0  0  0  0  0  0  0  0  0  0  0  0
   -0.5276    1.7408    1.5377 H   0  0  0  0  0  0  0  0  0  0  0  0
    0.6106    0.3919    1.5857 H   0  0  0  0  0  0  0  0  0  0  0  0
   -1.5703   -0.3127    0.9231 H   0  0  0  0  0  0  0  0  0  0  0  0
   -0.3565   -0.5100   -0.4584 H   0  0  0  0  0  0  0  0  0  0  0  0
   -1.2958    1.6155   -1.4738 H   0  0  0  0  0  0  0  0  0  0  0  0
   -2.4856    1.6856   -0.0812 H   0  0  0  0  0  0  0  0  0  0  0  0
   -2.2237   -0.6984   -1.9818 H   0  0  0  0  0  0  0  0  0  0  0  0
   -3.5081    0.5883   -2.0660 H   0  0  0  0  0  0  0  0  0  0  0  0
   -3.6802   -2.6136    1.7140 H   0  0  0  0  0  0  0  0  0  0  0  0
   -3.9766   -3.8381    0.4879 H   0  0  0  0  0  0  0  0  0  0  0  0
   -6.0840   -3.3092    1.6226 H   0  0  0  0  0  0  0  0  0  0  0  0
   -7.9211   -1.8488    1.8423 H   0  0  0  0  0  0  0  0  0  0  0  0
   -6.5879    1.0764    0.8781 H   0  0  0  0  0  0  0  0  0  0  0  0
   -7.9227    3.1163    0.2391 H   0  0  0  0  0  0  0  0  0  0  0  0
  -10.0104    3.9173   -0.4997 H   0  0  0  0  0  0  0  0  0  0  0  0
  -10.6922   -1.8961    0.8533 H   0  0  0  0  0  0  0  0  0  0  0  0
   -8.4463   -3.1473   -0.0086 H   0  0  0  0  0  0  0  0  0  0  0  0
   -7.5802   -2.1072   -2.2066 H   0  0  0  0  0  0  0  0  0  0  0  0
   -5.8896   -2.5974   -1.3355 H   0  0  0  0  0  0  0  0  0  0  0  0
   -5.5838   -4.7706   -0.7242 H   0  0  0  0  0  0  0  0  0  0  0  0
  1  2  1  0
  2  3  1  0
  3  4  1  0
  4  5  1  0
  5  6  1  0
  6  7  1  0
  7  8  1  0
  8  9  1  0
  1 10  2  0
 10 11  1  0
 11 12  1  0
 12 13  1  0
 13 14  1  0
 14 15  1  0
 15 16  1  0
 16 17  1  0
 17 18  1  0
 18 19  2  0
 18 20  1  0
 20 21  1  0
 21 22  1  0
 22 23  1  0
 23 24  1  0
 24 25  1  0
 25 26  1  0
 26 27  2  0
 27 28  1  0
 28 29  2  3
 28 30  1  0
 30 31  2  0
 31 32  1  0
 24 33  1  0
 33 34  1  0
 33 35  1  0
 35 36  1  0
 35 22  1  0
 31 25  1  0
  1 37  1  0
  2 38  1  0
  2 39  1  0
  3 40  1  0
  3 41  1  0
  4 42  1  0
  4 43  1  0
  5 44  1  0
  5 45  1  0
  6 46  1  0
  6 47  1  0
  7 48  1  0
  7 49  1  0
  8 50  1  0
  8 51  1  0
  9 52  1  0
  9 53  1  0
  9 54  1  0
 10 55  1  0
 11 56  1  0
 11 57  1  0
 12 58  1  0
 12 59  1  0
 13 60  1  0
 13 61  1  0
 14 62  1  0
 14 63  1  0
 15 64  1  0
 15 65  1  0
 16 66  1  0
 16 67  1  0
 17 68  1  0
 17 69  1  0
 21 70  1  0
 21 71  1  0
 22 72  1  1
 24 73  1  1
 26 74  1  0
 27 75  1  0
 29 76  1  0
 32 77  1  0
 33 78  1  1
 34 79  1  0
 35 80  1  6
 36 81  1  0
M  END
$$$$
