
     RDKit          3D

 70 73  0  0  0  0  0  0  0  0999 V2000
    5.8385   -0.2036   -4.3480 C   0  0  0  0  0  0  0  0  0  0  0  0
    4.3082   -0.1425   -4.3501 C   0  0  0  0  0  0  0  0  0  0  0  0
    3.8171   -1.5366   -4.1512 C   0  0  0  0  0  0  0  0  0  0  0  0
    3.9097    0.8195   -3.2722 C   0  0  0  0  0  0  0  0  0  0  0  0
    4.3573    0.4428   -1.9032 C   0  0  0  0  0  0  0  0  0  0  0  0
    3.1455    0.1904   -1.0578 C   0  0  1  0  0  0  0  0  0  0  0  0
    3.3347    0.6987    0.2960 N   0  0  0  0  0  0  0  0  0  0  0  0
    3.0935   -0.0930    1.4490 C   0  0  0  0  0  0  0  0  0  0  0  0
    2.6998   -1.2760    1.2112 O   0  0  0  0  0  0  0  0  0  0  0  0
    3.2741    0.3846    2.8140 C   0  0  0  0  0  0  0  0  0  0  0  0
    3.7159    1.6520    3.0927 C   0  0  0  0  0  0  0  0  0  0  0  0
    3.8860    2.1058    4.3834 C   0  0  0  0  0  0  0  0  0  0  0  0
    3.6129    1.2865    5.4613 C   0  0  0  0  0  0  0  0  0  0  0  0
    3.7792    1.7286    6.7762 O   0  0  0  0  0  0  0  0  0  0  0  0
    3.1657    0.0039    5.1837 C   0  0  0  0  0  0  0  0  0  0  0  0
    3.0013   -0.4334    3.8866 C   0  0  0  0  0  0  0  0  0  0  0  0
    2.1050    1.0734   -1.7164 C   0  0  2  0  0  0  0  0  0  0  0  0
    0.7975    0.7609   -1.3827 O   0  0  0  0  0  0  0  0  0  0  0  0
   -0.0675    1.6477   -0.7349 C   0  0  0  0  0  0  0  0  0  0  0  0
    0.4409    2.7716   -0.4737 O   0  0  0  0  0  0  0  0  0  0  0  0
   -1.4298    1.2953   -0.3974 C   0  0  0  0  0  0  0  0  0  0  0  0
   -2.2967    2.1515    0.2400 C   0  0  0  0  0  0  0  0  0  0  0  0
   -3.5896    1.7876    0.5510 C   0  0  0  0  0  0  0  0  0  0  0  0
   -4.4621    2.6580    1.1959 O   0  0  0  0  0  0  0  0  0  0  0  0
   -4.0771    0.5149    0.2259 C   0  0  0  0  0  0  0  0  0  0  0  0
   -5.4706    0.2019    0.4672 C   0  0  0  0  0  0  0  0  0  0  0  0
   -6.2793    1.2186    0.5396 O   0  0  0  0  0  0  0  0  0  0  0  0
   -6.0767   -1.0777    0.6252 C   0  0  0  0  0  0  0  0  0  0  0  0
   -7.3295   -1.2428   -0.0051 C   0  0  0  0  0  0  0  0  0  0  0  0
   -7.8614   -0.1936   -0.7326 O   0  0  0  0  0  0  0  0  0  0  0  0
   -8.0395   -2.3943    0.0723 C   0  0  0  0  0  0  0  0  0  0  0  0
   -7.5033   -3.4293    0.7963 C   0  0  0  0  0  0  0  0  0  0  0  0
   -6.3049   -3.2881    1.4106 C   0  0  0  0  0  0  0  0  0  0  0  0
   -5.5549   -2.1034    1.3467 C   0  0  0  0  0  0  0  0  0  0  0  0
   -4.3929   -1.9848    2.2110 C   0  0  0  0  0  0  0  0  0  0  0  0
   -3.9352   -3.0470    2.7425 O   0  0  0  0  0  0  0  0  0  0  0  0
   -3.7530   -0.8073    2.5073 O   0  0  0  0  0  0  0  0  0  0  0  0
   -3.2187   -0.3404   -0.4100 C   0  0  0  0  0  0  0  0  0  0  0  0
   -3.6481   -1.6158   -0.7652 O   0  0  0  0  0  0  0  0  0  0  0  0
   -1.9088    0.0542   -0.7142 C   0  0  0  0  0  0  0  0  0  0  0  0
    2.4040    1.0294   -3.1973 C   0  0  0  0  0  0  0  0  0  0  0  0
    6.1696   -0.5306   -5.3491 H   0  0  0  0  0  0  0  0  0  0  0  0
    6.2475    0.7915   -4.0789 H   0  0  0  0  0  0  0  0  0  0  0  0
    6.1156   -0.9955   -3.6134 H   0  0  0  0  0  0  0  0  0  0  0  0
    3.9719    0.2437   -5.3136 H   0  0  0  0  0  0  0  0  0  0  0  0
    4.0149   -2.0915   -5.1046 H   0  0  0  0  0  0  0  0  0  0  0  0
    4.3607   -2.1003   -3.3668 H   0  0  0  0  0  0  0  0  0  0  0  0
    2.7194   -1.5423   -4.0262 H   0  0  0  0  0  0  0  0  0  0  0  0
    4.4114    1.7963   -3.5411 H   0  0  0  0  0  0  0  0  0  0  0  0
    4.9191    1.2836   -1.4200 H   0  0  0  0  0  0  0  0  0  0  0  0
    5.0663   -0.4062   -1.9182 H   0  0  0  0  0  0  0  0  0  0  0  0
    2.8247   -0.8667   -1.0127 H   0  0  0  0  0  0  0  0  0  0  0  0
    3.6597    1.6817    0.3987 H   0  0  0  0  0  0  0  0  0  0  0  0
    3.9438    2.3334    2.2907 H   0  0  0  0  0  0  0  0  0  0  0  0
    4.2408    3.1233    4.5936 H   0  0  0  0  0  0  0  0  0  0  0  0
    2.9702    1.9670    7.3615 H   0  0  0  0  0  0  0  0  0  0  0  0
    2.9526   -0.6344    6.0285 H   0  0  0  0  0  0  0  0  0  0  0  0
    2.6527   -1.4343    3.6737 H   0  0  0  0  0  0  0  0  0  0  0  0
    2.3151    2.1145   -1.3800 H   0  0  0  0  0  0  0  0  0  0  0  0
   -1.9902    3.1582    0.5244 H   0  0  0  0  0  0  0  0  0  0  0  0
   -4.7433    3.5069    0.7633 H   0  0  0  0  0  0  0  0  0  0  0  0
   -7.9612   -0.1892   -1.7357 H   0  0  0  0  0  0  0  0  0  0  0  0
   -9.0085   -2.5168   -0.4173 H   0  0  0  0  0  0  0  0  0  0  0  0
   -8.0678   -4.3572    0.8594 H   0  0  0  0  0  0  0  0  0  0  0  0
   -5.8718   -4.0958    1.9824 H   0  0  0  0  0  0  0  0  0  0  0  0
   -3.0922   -0.6824    3.2635 H   0  0  0  0  0  0  0  0  0  0  0  0
   -3.0075   -2.4062   -0.6992 H   0  0  0  0  0  0  0  0  0  0  0  0
   -1.3047   -0.6954   -1.2180 H   0  0  0  0  0  0  0  0  0  0  0  0
    1.8332    0.2695   -3.7321 H   0  0  0  0  0  0  0  0  0  0  0  0
    2.1707    2.0069   -3.6865 H   0  0  0  0  0  0  0  0  0  0  0  0
  1  2  1  0
  2  3  1  0
  2  4  1  0
  4  5  1  0
  5  6  1  0
  6  7  1  0
  7  8  1  0
  8  9  2  0
  8 10  1  0
 10 11  2  0
 11 12  1  0
 12 13  2  0
 13 14  1  0
 13 15  1  0
 15 16  2  0
  6 17  1  0
 17 18  1  0
 18 19  1  0
 19 20  2  0
 19 21  1  0
 21 22  2  0
 22 23  1  0
 23 24  1  0
 23 25  2  0
 25 26  1  0
 26 27  2  0
 26 28  1  0
 28 29  2  0
 29 30  1  0
 29 31  1  0
 31 32  2  0
 32 33  1  0
 33 34  2  0
 34 35  1  0
 35 36  2  0
 35 37  1  0
 25 38  1  0
 38 39  1  0
 38 40  2  0
 17 41  1  0
 41  4  1  0
 16 10  1  0
 40 21  1  0
 34 28  1  0
  1 42  1  0
  1 43  1  0
  1 44  1  0
  2 45  1  0
  3 46  1  0
  3 47  1  0
  3 48  1  0
  4 49  1  0
  5 50  1  0
  5 51  1  0
  6 52  1  1
  7 53  1  0
 11 54  1  0
 12 55  1  0
 14 56  1  0
 15 57  1  0
 16 58  1  0
 17 59  1  1
 22 60  1  0
 24 61  1  0
 30 62  1  0
 31 63  1  0
 32 64  1  0
 33 65  1  0
 37 66  1  0
 39 67  1  0
 40 68  1  0
 41 69  1  0
 41 70  1  0
M  END
$$$$
