
     RDKit          3D

 65 70  0  0  0  0  0  0  0  0999 V2000
   -7.2528    1.9728    1.3057 O   0  0  0  0  0  0  0  0  0  0  0  0
   -6.5420    2.3998    0.3994 C   0  0  0  0  0  0  0  0  0  0  0  0
   -7.1739    3.2639   -0.5194 O   0  0  0  0  0  0  0  0  0  0  0  0
   -5.1249    2.0752    0.2228 C   0  0  0  0  0  0  0  0  0  0  0  0
   -4.5802    0.9502    1.0270 C   0  0  0  0  0  0  0  0  0  0  0  0
   -3.0795    0.8546    0.7478 C   0  0  0  0  0  0  0  0  0  0  0  0
   -2.8284   -0.3293   -0.1023 C   0  0  0  0  0  0  0  0  0  0  0  0
   -1.7236   -1.2172    0.4884 C   0  0  0  0  0  0  0  0  0  0  0  0
   -0.3528   -0.8072    0.1609 C   0  0  0  0  0  0  0  0  0  0  0  0
   -0.1388    0.0411   -0.9633 N   0  0  0  0  0  0  0  0  0  0  0  0
    1.1813    0.5207   -1.2965 C   0  0  0  0  0  0  0  0  0  0  0  0
    1.3607    1.2485   -2.2612 O   0  0  0  0  0  0  0  0  0  0  0  0
    2.3096    0.1497   -0.4977 N   0  0  0  0  0  0  0  0  0  0  0  0
    3.6546    0.5537   -0.7224 C   0  0  0  0  0  0  0  0  0  0  0  0
    4.2931    1.3094    0.4073 C   0  0  0  0  0  0  0  0  0  0  0  0
    4.3615    0.4654    1.6461 C   0  0  0  0  0  0  0  0  0  0  0  0
    5.1816   -0.7726    1.3862 C   0  0  0  0  0  0  0  0  0  0  0  0
    6.5860   -0.3361    1.0401 C   0  0  0  0  0  0  0  0  0  0  0  0
    6.5353    0.4251   -0.2543 C   0  0  0  0  0  0  0  0  0  0  0  0
    5.7122    1.6596   -0.0489 C   0  0  0  0  0  0  0  0  0  0  0  0
    5.8918   -0.3803   -1.3610 C   0  0  0  0  0  0  0  0  0  0  0  0
    4.4820   -0.6924   -0.9587 C   0  0  0  0  0  0  0  0  0  0  0  0
    4.5400   -1.5594    0.2827 C   0  0  0  0  0  0  0  0  0  0  0  0
   -1.1876    0.4611   -1.8183 C   0  0  0  0  0  0  0  0  0  0  0  0
   -2.5500   -0.0619   -1.5490 C   0  0  0  0  0  0  0  0  0  0  0  0
   -4.1035   -1.0874   -0.0182 C   0  0  0  0  0  0  0  0  0  0  0  0
   -4.3873   -2.3934   -0.4846 C   0  0  0  0  0  0  0  0  0  0  0  0
   -5.6137   -2.9762   -0.2779 C   0  0  0  0  0  0  0  0  0  0  0  0
   -6.6015   -2.3004    0.3921 C   0  0  0  0  0  0  0  0  0  0  0  0
   -6.3310   -1.0197    0.8517 C   0  0  0  0  0  0  0  0  0  0  0  0
   -5.0731   -0.4087    0.6429 C   0  0  0  0  0  0  0  0  0  0  0  0
   -8.1606    3.0981   -0.6914 H   0  0  0  0  0  0  0  0  0  0  0  0
   -4.8650    1.9752   -0.8601 H   0  0  0  0  0  0  0  0  0  0  0  0
   -4.5585    3.0149    0.5238 H   0  0  0  0  0  0  0  0  0  0  0  0
   -4.7266    1.1378    2.1080 H   0  0  0  0  0  0  0  0  0  0  0  0
   -2.5351    0.6995    1.7248 H   0  0  0  0  0  0  0  0  0  0  0  0
   -2.7082    1.8243    0.3357 H   0  0  0  0  0  0  0  0  0  0  0  0
   -1.9045   -2.2547    0.0782 H   0  0  0  0  0  0  0  0  0  0  0  0
   -1.8744   -1.3200    1.5895 H   0  0  0  0  0  0  0  0  0  0  0  0
    0.3051   -1.7248    0.0084 H   0  0  0  0  0  0  0  0  0  0  0  0
    0.0967   -0.3520    1.0864 H   0  0  0  0  0  0  0  0  0  0  0  0
    2.0934   -0.4722    0.3117 H   0  0  0  0  0  0  0  0  0  0  0  0
    3.7533    1.1925   -1.6337 H   0  0  0  0  0  0  0  0  0  0  0  0
    3.8251    2.2957    0.6114 H   0  0  0  0  0  0  0  0  0  0  0  0
    3.3569    0.1484    1.9586 H   0  0  0  0  0  0  0  0  0  0  0  0
    4.8098    1.0955    2.4536 H   0  0  0  0  0  0  0  0  0  0  0  0
    5.1569   -1.3838    2.3083 H   0  0  0  0  0  0  0  0  0  0  0  0
    6.9127    0.3719    1.8346 H   0  0  0  0  0  0  0  0  0  0  0  0
    7.3000   -1.1704    1.0225 H   0  0  0  0  0  0  0  0  0  0  0  0
    7.5359    0.7431   -0.6001 H   0  0  0  0  0  0  0  0  0  0  0  0
    6.1780    2.4031    0.6197 H   0  0  0  0  0  0  0  0  0  0  0  0
    5.6317    2.1662   -1.0480 H   0  0  0  0  0  0  0  0  0  0  0  0
    6.4462   -1.3382   -1.4080 H   0  0  0  0  0  0  0  0  0  0  0  0
    5.9896    0.1623   -2.3101 H   0  0  0  0  0  0  0  0  0  0  0  0
    4.0190   -1.3074   -1.7561 H   0  0  0  0  0  0  0  0  0  0  0  0
    5.1849   -2.4286    0.0255 H   0  0  0  0  0  0  0  0  0  0  0  0
    3.5415   -1.8887    0.6200 H   0  0  0  0  0  0  0  0  0  0  0  0
   -0.9365    0.1742   -2.8765 H   0  0  0  0  0  0  0  0  0  0  0  0
   -1.2320    1.5855   -1.7621 H   0  0  0  0  0  0  0  0  0  0  0  0
   -2.7085   -1.0258   -2.1217 H   0  0  0  0  0  0  0  0  0  0  0  0
   -3.2808    0.6741   -1.9236 H   0  0  0  0  0  0  0  0  0  0  0  0
   -3.5850   -2.9019   -1.0086 H   0  0  0  0  0  0  0  0  0  0  0  0
   -5.8020   -3.9726   -0.6442 H   0  0  0  0  0  0  0  0  0  0  0  0
   -7.6004   -2.7181    0.5869 H   0  0  0  0  0  0  0  0  0  0  0  0
   -7.1036   -0.5113    1.3933 H   0  0  0  0  0  0  0  0  0  0  0  0
  1  2  2  0
  2  3  1  0
  2  4  1  0
  4  5  1  0
  5  6  1  0
  6  7  1  0
  7  8  1  0
  8  9  1  0
  9 10  1  0
 10 11  1  0
 11 12  2  0
 11 13  1  0
 13 14  1  0
 14 15  1  0
 15 16  1  0
 16 17  1  0
 17 18  1  0
 18 19  1  0
 19 20  1  0
 19 21  1  0
 21 22  1  0
 22 23  1  0
 10 24  1  0
 24 25  1  0
  7 26  1  0
 26 27  2  0
 27 28  1  0
 28 29  2  0
 29 30  1  0
 30 31  2  0
 31  5  1  0
 25  7  1  0
 31 26  1  0
 22 14  1  0
 20 15  1  0
 23 17  1  0
  3 32  1  0
  4 33  1  0
  4 34  1  0
  5 35  1  0
  6 36  1  0
  6 37  1  0
  8 38  1  0
  8 39  1  0
  9 40  1  0
  9 41  1  0
 13 42  1  0
 14 43  1  0
 15 44  1  0
 16 45  1  0
 16 46  1  0
 17 47  1  0
 18 48  1  0
 18 49  1  0
 19 50  1  0
 20 51  1  0
 20 52  1  0
 21 53  1  0
 21 54  1  0
 22 55  1  0
 23 56  1  0
 23 57  1  0
 24 58  1  0
 24 59  1  0
 25 60  1  0
 25 61  1  0
 27 62  1  0
 28 63  1  0
 29 64  1  0
 30 65  1  0
M  END
$$$$
