
     RDKit          3D

 65 68  0  0  0  0  0  0  0  0999 V2000
   -5.9686    0.7003   -0.7678 C   0  0  0  0  0  0  0  0  0  0  0  0
   -6.3504    0.2415    0.5007 N   0  0  0  0  0  0  0  0  0  0  0  0
   -7.6605    0.6440    0.9482 C   0  0  0  0  0  0  0  0  0  0  0  0
   -5.3928    0.2257    1.5126 C   0  0  0  0  0  0  0  0  0  0  0  0
   -4.8556    1.4356    2.1168 C   0  0  0  0  0  0  0  0  0  0  0  0
   -4.0039    2.4265    1.4526 C   0  0  0  0  0  0  0  0  0  0  0  0
   -2.7044    1.9657    1.0280 N   0  0  0  0  0  0  0  0  0  0  0  0
   -1.7680    1.7183    1.9722 N   0  0  0  0  0  0  0  0  0  0  0  0
   -0.6566    1.2161    1.4034 C   0  0  0  0  0  0  0  0  0  0  0  0
    0.5570    0.8359    2.1528 C   0  0  0  0  0  0  0  0  0  0  0  0
    0.5671    0.9786    3.5248 C   0  0  0  0  0  0  0  0  0  0  0  0
    1.6184    0.6592    4.2855 N   0  0  0  0  0  0  0  0  0  0  0  0
    2.7364    0.1725    3.7151 C   0  0  0  0  0  0  0  0  0  0  0  0
    3.9307   -0.2313    4.1769 N   0  0  0  0  0  0  0  0  0  0  0  0
    4.6924   -0.6285    3.1568 C   0  0  0  0  0  0  0  0  0  0  0  0
    3.9779   -0.4853    1.9541 C   0  0  0  0  0  0  0  0  0  0  0  0
    4.4755   -0.8030    0.6295 C   0  0  0  0  0  0  0  0  0  0  0  0
    5.5285   -0.1802    0.2559 O   0  0  0  0  0  0  0  0  0  0  0  0
    3.9085   -1.7315   -0.2749 N   0  0  0  0  0  0  0  0  0  0  0  0
    4.4587   -2.0176   -1.5774 C   0  0  0  0  0  0  0  0  0  0  0  0
    4.5778   -0.8076   -2.4610 C   0  0  0  0  0  0  0  0  0  0  0  0
    3.4575   -2.9469   -2.2891 C   0  0  0  0  0  0  0  0  0  0  0  0
    5.7514   -2.7656   -1.5559 C   0  0  0  0  0  0  0  0  0  0  0  0
    6.7857   -2.1391   -0.9076 O   0  0  0  0  0  0  0  0  0  0  0  0
    2.7563    0.0173    2.3329 C   0  0  0  0  0  0  0  0  0  0  0  0
    1.6641    0.3513    1.5674 N   0  0  0  0  0  0  0  0  0  0  0  0
   -0.9232    1.1558    0.0666 C   0  0  0  0  0  0  0  0  0  0  0  0
   -0.1612    0.7504   -1.0033 C   0  0  0  0  0  0  0  0  0  0  0  0
   -0.6564    0.8120   -2.2902 C   0  0  0  0  0  0  0  0  0  0  0  0
    0.0138    0.4353   -3.4068 O   0  0  0  0  0  0  0  0  0  0  0  0
    1.2986   -0.0926   -3.4174 C   0  0  0  0  0  0  0  0  0  0  0  0
    2.1256    0.8221   -4.1030 F   0  0  0  0  0  0  0  0  0  0  0  0
    1.3695   -1.2509   -4.1787 F   0  0  0  0  0  0  0  0  0  0  0  0
   -1.9559    1.2980   -2.4930 C   0  0  0  0  0  0  0  0  0  0  0  0
   -2.7220    1.7026   -1.4350 C   0  0  0  0  0  0  0  0  0  0  0  0
   -2.1991    1.6272   -0.1461 C   0  0  0  0  0  0  0  0  0  0  0  0
   -5.9218    1.7966   -0.8540 H   0  0  0  0  0  0  0  0  0  0  0  0
   -5.0807    0.1793   -1.1965 H   0  0  0  0  0  0  0  0  0  0  0  0
   -6.7934    0.4149   -1.5158 H   0  0  0  0  0  0  0  0  0  0  0  0
   -8.3745   -0.1098    0.5219 H   0  0  0  0  0  0  0  0  0  0  0  0
   -7.9855    1.6293    0.6136 H   0  0  0  0  0  0  0  0  0  0  0  0
   -7.6831    0.5073    2.0472 H   0  0  0  0  0  0  0  0  0  0  0  0
   -4.5027   -0.4558    1.2113 H   0  0  0  0  0  0  0  0  0  0  0  0
   -5.7970   -0.4118    2.3920 H   0  0  0  0  0  0  0  0  0  0  0  0
   -4.2425    1.0704    3.0376 H   0  0  0  0  0  0  0  0  0  0  0  0
   -5.6854    2.0032    2.7090 H   0  0  0  0  0  0  0  0  0  0  0  0
   -3.8040    3.2640    2.1988 H   0  0  0  0  0  0  0  0  0  0  0  0
   -4.4883    2.9581    0.5987 H   0  0  0  0  0  0  0  0  0  0  0  0
   -0.3469    1.3777    3.9969 H   0  0  0  0  0  0  0  0  0  0  0  0
    4.1948   -0.2233    5.1869 H   0  0  0  0  0  0  0  0  0  0  0  0
    5.7058   -1.0109    3.1751 H   0  0  0  0  0  0  0  0  0  0  0  0
    3.0330   -2.2139    0.0770 H   0  0  0  0  0  0  0  0  0  0  0  0
    4.0791    0.0865   -2.0448 H   0  0  0  0  0  0  0  0  0  0  0  0
    4.2493   -1.0089   -3.5023 H   0  0  0  0  0  0  0  0  0  0  0  0
    5.6712   -0.5680   -2.5496 H   0  0  0  0  0  0  0  0  0  0  0  0
    2.4522   -2.8263   -1.8846 H   0  0  0  0  0  0  0  0  0  0  0  0
    3.7564   -4.0155   -2.1073 H   0  0  0  0  0  0  0  0  0  0  0  0
    3.4667   -2.7370   -3.3664 H   0  0  0  0  0  0  0  0  0  0  0  0
    5.5803   -3.7365   -1.0474 H   0  0  0  0  0  0  0  0  0  0  0  0
    6.0984   -3.0179   -2.5826 H   0  0  0  0  0  0  0  0  0  0  0  0
    7.6359   -2.6026   -0.9372 H   0  0  0  0  0  0  0  0  0  0  0  0
    0.8540    0.3724   -0.8489 H   0  0  0  0  0  0  0  0  0  0  0  0
    1.7512   -0.2990   -2.4432 H   0  0  0  0  0  0  0  0  0  0  0  0
   -2.3859    1.3668   -3.4835 H   0  0  0  0  0  0  0  0  0  0  0  0
   -3.7096    2.0988   -1.5867 H   0  0  0  0  0  0  0  0  0  0  0  0
  1  2  1  0
  2  3  1  0
  2  4  1  0
  4  5  1  0
  5  6  1  0
  6  7  1  0
  7  8  1  0
  8  9  2  0
  9 10  1  0
 10 11  2  0
 11 12  1  0
 12 13  2  0
 13 14  1  0
 14 15  1  0
 15 16  2  0
 16 17  1  0
 17 18  2  0
 17 19  1  0
 19 20  1  0
 20 21  1  0
 20 22  1  0
 20 23  1  0
 23 24  1  0
 16 25  1  0
 25 26  2  0
  9 27  1  0
 27 28  2  0
 28 29  1  0
 29 30  1  0
 30 31  1  0
 31 32  1  0
 31 33  1  0
 29 34  2  0
 34 35  1  0
 35 36  2  0
 36  7  1  0
 26 10  1  0
 36 27  1  0
 25 13  1  0
  1 37  1  0
  1 38  1  0
  1 39  1  0
  3 40  1  0
  3 41  1  0
  3 42  1  0
  4 43  1  0
  4 44  1  0
  5 45  1  0
  5 46  1  0
  6 47  1  0
  6 48  1  0
 11 49  1  0
 14 50  1  0
 15 51  1  0
 19 52  1  0
 21 53  1  0
 21 54  1  0
 21 55  1  0
 22 56  1  0
 22 57  1  0
 22 58  1  0
 23 59  1  0
 23 60  1  0
 24 61  1  0
 28 62  1  0
 31 63  1  0
 34 64  1  0
 35 65  1  0
M  END
$$$$
