
     RDKit          3D

 60 62  0  0  0  0  0  0  0  0999 V2000
   -9.3737   -0.3105   -1.6288 C   0  0  0  0  0  0  0  0  0  0  0  0
   -7.8972   -0.5949   -1.4746 C   0  0  0  0  0  0  0  0  0  0  0  0
   -7.3959    0.1951   -0.4366 O   0  0  0  0  0  0  0  0  0  0  0  0
   -5.7478   -0.1677   -0.3019 P   0  0  0  0  0  5  0  0  0  0  0  0
   -5.1218    0.7354    0.7362 O   0  0  0  0  0  0  0  0  0  0  0  0
   -4.9093    0.0677   -1.9071 C   0  0  0  0  0  0  0  0  0  0  0  0
   -3.5235    0.4112   -1.6057 N   0  0  0  0  0  0  0  0  0  0  0  0
   -2.8894   -0.6401   -0.8525 C   0  0  0  0  0  0  0  0  0  0  0  0
   -1.4856   -0.2272   -0.5889 C   0  0  0  0  0  0  0  0  0  0  0  0
   -0.4505   -0.5370   -1.4442 C   0  0  0  0  0  0  0  0  0  0  0  0
    0.8589   -0.1298   -1.1623 C   0  0  0  0  0  0  0  0  0  0  0  0
    1.1440    0.5907   -0.0225 C   0  0  0  0  0  0  0  0  0  0  0  0
    2.5048    0.9977    0.2491 C   0  0  0  0  0  0  0  0  0  0  0  0
    2.7729    1.6824    1.2958 O   0  0  0  0  0  0  0  0  0  0  0  0
    3.6142    0.6935   -0.5734 N   0  0  0  0  0  0  0  0  0  0  0  0
    4.9392    1.1098   -0.2754 C   0  0  0  0  0  0  0  0  0  0  0  0
    5.8250    0.3766    0.4796 C   0  0  0  0  0  0  0  0  0  0  0  0
    7.0969    0.8109    0.7451 C   0  0  0  0  0  0  0  0  0  0  0  0
    8.0052   -0.0265    1.5700 C   0  0  0  0  0  0  0  0  0  0  0  0
    9.2708    0.2019    1.9441 C   0  0  0  0  0  0  0  0  0  0  0  0
    9.9105   -0.6923    2.6957 C   0  0  0  0  0  0  0  0  0  0  0  0
    9.2304   -1.8299    3.0599 C   0  0  0  0  0  0  0  0  0  0  0  0
    7.6268   -1.5676    2.2785 S   0  0  0  0  0  0  0  0  0  0  0  0
    7.4968    2.0210    0.2374 C   0  0  0  0  0  0  0  0  0  0  0  0
    6.6445    2.8071   -0.5335 C   0  0  0  0  0  0  0  0  0  0  0  0
    5.3546    2.3218   -0.7778 C   0  0  0  0  0  0  0  0  0  0  0  0
    4.4627    3.1028   -1.5613 N   0  0  0  0  0  0  0  0  0  0  0  0
    0.0831    0.8792    0.8046 C   0  0  0  0  0  0  0  0  0  0  0  0
   -1.2146    0.4995    0.5659 C   0  0  0  0  0  0  0  0  0  0  0  0
   -5.4977   -1.7699    0.1465 O   0  0  0  0  0  0  0  0  0  0  0  0
   -5.7486   -1.9588    1.5160 C   0  0  0  0  0  0  0  0  0  0  0  0
   -5.5176   -3.3739    1.9316 C   0  0  0  0  0  0  0  0  0  0  0  0
   -9.6432    0.6722   -1.1612 H   0  0  0  0  0  0  0  0  0  0  0  0
   -9.6398   -0.2775   -2.7010 H   0  0  0  0  0  0  0  0  0  0  0  0
   -9.9121   -1.1502   -1.1023 H   0  0  0  0  0  0  0  0  0  0  0  0
   -7.3343   -0.3280   -2.4102 H   0  0  0  0  0  0  0  0  0  0  0  0
   -7.7159   -1.6450   -1.2257 H   0  0  0  0  0  0  0  0  0  0  0  0
   -5.3913    0.8705   -2.4924 H   0  0  0  0  0  0  0  0  0  0  0  0
   -4.9247   -0.8863   -2.4792 H   0  0  0  0  0  0  0  0  0  0  0  0
   -3.0222    0.6074   -2.4889 H   0  0  0  0  0  0  0  0  0  0  0  0
   -2.8856   -1.6081   -1.3951 H   0  0  0  0  0  0  0  0  0  0  0  0
   -3.4045   -0.7291    0.1380 H   0  0  0  0  0  0  0  0  0  0  0  0
   -0.6958   -1.1024   -2.3319 H   0  0  0  0  0  0  0  0  0  0  0  0
    1.5832   -0.4236   -1.8922 H   0  0  0  0  0  0  0  0  0  0  0  0
    3.4748    0.1432   -1.4365 H   0  0  0  0  0  0  0  0  0  0  0  0
    5.4962   -0.5670    0.8687 H   0  0  0  0  0  0  0  0  0  0  0  0
    9.7739    1.1517    1.6136 H   0  0  0  0  0  0  0  0  0  0  0  0
   10.9648   -0.5825    3.0528 H   0  0  0  0  0  0  0  0  0  0  0  0
    9.5183   -2.7074    3.6634 H   0  0  0  0  0  0  0  0  0  0  0  0
    8.5094    2.3409    0.4629 H   0  0  0  0  0  0  0  0  0  0  0  0
    6.9875    3.7563   -0.9200 H   0  0  0  0  0  0  0  0  0  0  0  0
    3.5150    3.4117   -1.2252 H   0  0  0  0  0  0  0  0  0  0  0  0
    4.7339    3.4004   -2.5241 H   0  0  0  0  0  0  0  0  0  0  0  0
    0.2937    1.4437    1.7021 H   0  0  0  0  0  0  0  0  0  0  0  0
   -2.0342    0.7423    1.2392 H   0  0  0  0  0  0  0  0  0  0  0  0
   -6.8328   -1.6874    1.6594 H   0  0  0  0  0  0  0  0  0  0  0  0
   -5.1646   -1.2814    2.1521 H   0  0  0  0  0  0  0  0  0  0  0  0
   -5.5345   -4.0466    1.0431 H   0  0  0  0  0  0  0  0  0  0  0  0
   -6.2754   -3.7408    2.6652 H   0  0  0  0  0  0  0  0  0  0  0  0
   -4.5079   -3.4707    2.4157 H   0  0  0  0  0  0  0  0  0  0  0  0
  1  2  1  0
  2  3  1  0
  3  4  1  0
  4  5  2  0
  4  6  1  0
  6  7  1  0
  7  8  1  0
  8  9  1  0
  9 10  2  0
 10 11  1  0
 11 12  2  0
 12 13  1  0
 13 14  2  0
 13 15  1  0
 15 16  1  0
 16 17  2  0
 17 18  1  0
 18 19  1  0
 19 20  2  0
 20 21  1  0
 21 22  2  0
 22 23  1  0
 18 24  2  0
 24 25  1  0
 25 26  2  0
 26 27  1  0
 12 28  1  0
 28 29  2  0
  4 30  1  0
 30 31  1  0
 31 32  1  0
 29  9  1  0
 26 16  1  0
 23 19  1  0
  1 33  1  0
  1 34  1  0
  1 35  1  0
  2 36  1  0
  2 37  1  0
  6 38  1  0
  6 39  1  0
  7 40  1  0
  8 41  1  0
  8 42  1  0
 10 43  1  0
 11 44  1  0
 15 45  1  0
 17 46  1  0
 20 47  1  0
 21 48  1  0
 22 49  1  0
 24 50  1  0
 25 51  1  0
 27 52  1  0
 27 53  1  0
 28 54  1  0
 29 55  1  0
 31 56  1  0
 31 57  1  0
 32 58  1  0
 32 59  1  0
 32 60  1  0
M  END
$$$$
