
     RDKit          3D

 57 61  0  0  0  0  0  0  0  0999 V2000
   10.5294   -2.9738    0.6608 N   0  0  0  0  0  0  0  0  0  0  0  0
    9.4123   -2.6349    0.4429 C   0  0  0  0  0  0  0  0  0  0  0  0
    8.0634   -2.2328    0.2045 C   0  0  0  0  0  0  0  0  0  0  0  0
    7.3491   -1.4160    1.0254 C   0  0  0  0  0  0  0  0  0  0  0  0
    6.0602   -1.0512    0.7119 C   0  0  0  0  0  0  0  0  0  0  0  0
    5.4861   -1.5197   -0.4487 C   0  0  0  0  0  0  0  0  0  0  0  0
    4.1979   -1.1903   -0.8754 N   0  0  0  0  0  0  0  0  0  0  0  0
    3.3388   -0.2903   -0.1839 C   0  0  1  0  0  0  0  0  0  0  0  0
    3.8330    1.1332   -0.1417 C   0  0  0  0  0  0  0  0  0  0  0  0
    2.6653    2.0286   -0.5203 C   0  0  0  0  0  0  0  0  0  0  0  0
    1.5323    1.1284   -0.4638 N   0  0  0  0  0  0  0  0  0  0  0  0
    0.2239    1.5279   -0.0346 C   0  0  0  0  0  0  0  0  0  0  0  0
    0.0048    2.7094    0.3335 O   0  0  0  0  0  0  0  0  0  0  0  0
   -0.8545    0.6650    0.0009 O   0  0  0  0  0  0  0  0  0  0  0  0
   -2.1522    1.0244    0.4129 C   0  0  1  0  0  0  0  0  0  0  0  0
   -3.0292    0.9039   -0.8297 C   0  0  0  0  0  0  0  0  0  0  0  0
   -3.1836   -0.5179   -1.2686 C   0  0  0  0  0  0  0  0  0  0  0  0
   -3.8758   -1.2734   -0.1480 C   0  0  0  0  0  0  0  0  0  0  0  0
   -2.9207   -1.2774    1.0252 C   0  0  0  0  0  0  0  0  0  0  0  0
   -2.7073    0.1511    1.4877 C   0  0  0  0  0  0  0  0  0  0  0  0
   -4.0925    0.6822    1.8486 C   0  0  0  0  0  0  0  0  0  0  0  0
   -5.0005    0.7359    0.6662 C   0  0  2  0  0  0  0  0  0  0  0  0
   -6.2435    1.4376    1.0085 C   0  0  0  0  0  0  0  0  0  0  0  0
   -7.3161    1.6682    0.1369 N   0  0  0  0  0  0  0  0  0  0  0  0
   -6.3761    1.8799    2.1896 O   0  0  0  0  0  0  0  0  0  0  0  0
   -5.2239   -0.6824    0.1926 C   0  0  0  0  0  0  0  0  0  0  0  0
   -4.3693    1.4841   -0.5058 C   0  0  0  0  0  0  0  0  0  0  0  0
    1.9943   -0.1432   -0.9057 C   0  0  0  0  0  0  0  0  0  0  0  0
    6.2171   -2.3364   -1.2549 N   0  0  0  0  0  0  0  0  0  0  0  0
    7.4745   -2.7110   -0.9802 C   0  0  0  0  0  0  0  0  0  0  0  0
    7.8349   -1.0619    1.9418 H   0  0  0  0  0  0  0  0  0  0  0  0
    5.5380   -0.4111    1.3985 H   0  0  0  0  0  0  0  0  0  0  0  0
    3.8227   -1.6241   -1.7537 H   0  0  0  0  0  0  0  0  0  0  0  0
    3.1064   -0.6519    0.8465 H   0  0  0  0  0  0  0  0  0  0  0  0
    4.1844    1.4091    0.8768 H   0  0  0  0  0  0  0  0  0  0  0  0
    4.6276    1.3039   -0.9035 H   0  0  0  0  0  0  0  0  0  0  0  0
    2.8041    2.4691   -1.5378 H   0  0  0  0  0  0  0  0  0  0  0  0
    2.5752    2.8347    0.2443 H   0  0  0  0  0  0  0  0  0  0  0  0
   -2.2484    2.0811    0.7288 H   0  0  0  0  0  0  0  0  0  0  0  0
   -2.5758    1.5401   -1.6220 H   0  0  0  0  0  0  0  0  0  0  0  0
   -3.7902   -0.5471   -2.1754 H   0  0  0  0  0  0  0  0  0  0  0  0
   -2.1884   -1.0125   -1.3963 H   0  0  0  0  0  0  0  0  0  0  0  0
   -3.9599   -2.3295   -0.5006 H   0  0  0  0  0  0  0  0  0  0  0  0
   -3.3572   -1.8341    1.8789 H   0  0  0  0  0  0  0  0  0  0  0  0
   -1.9636   -1.6646    0.6675 H   0  0  0  0  0  0  0  0  0  0  0  0
   -2.0805    0.1892    2.3986 H   0  0  0  0  0  0  0  0  0  0  0  0
   -4.0466    1.6103    2.4403 H   0  0  0  0  0  0  0  0  0  0  0  0
   -4.5203   -0.0912    2.5462 H   0  0  0  0  0  0  0  0  0  0  0  0
   -7.9711    0.9046   -0.0848 H   0  0  0  0  0  0  0  0  0  0  0  0
   -7.4532    2.5974   -0.2820 H   0  0  0  0  0  0  0  0  0  0  0  0
   -5.8125   -0.6974   -0.7503 H   0  0  0  0  0  0  0  0  0  0  0  0
   -5.6948   -1.3319    0.9369 H   0  0  0  0  0  0  0  0  0  0  0  0
   -5.0444    1.2667   -1.3872 H   0  0  0  0  0  0  0  0  0  0  0  0
   -4.3570    2.5750   -0.3381 H   0  0  0  0  0  0  0  0  0  0  0  0
    1.3190   -0.9823   -0.6442 H   0  0  0  0  0  0  0  0  0  0  0  0
    2.2230   -0.1000   -1.9983 H   0  0  0  0  0  0  0  0  0  0  0  0
    7.9915   -3.3506   -1.6552 H   0  0  0  0  0  0  0  0  0  0  0  0
  1  2  3  0
  2  3  1  0
  3  4  2  0
  4  5  1  0
  5  6  2  0
  6  7  1  0
  7  8  1  0
  8  9  1  0
  9 10  1  0
 10 11  1  0
 11 12  1  0
 12 13  2  0
 12 14  1  0
 14 15  1  0
 15 16  1  0
 16 17  1  0
 17 18  1  0
 18 19  1  0
 19 20  1  0
 20 21  1  0
 21 22  1  0
 22 23  1  1
 23 24  1  0
 23 25  2  0
 22 26  1  0
 22 27  1  0
 11 28  1  0
  6 29  1  0
 29 30  2  0
 30  3  1  0
 28  8  1  0
 20 15  1  0
 27 16  1  0
 26 18  1  0
  4 31  1  0
  5 32  1  0
  7 33  1  0
  8 34  1  1
  9 35  1  0
  9 36  1  0
 10 37  1  0
 10 38  1  0
 15 39  1  1
 16 40  1  0
 17 41  1  0
 17 42  1  0
 18 43  1  0
 19 44  1  0
 19 45  1  0
 20 46  1  0
 21 47  1  0
 21 48  1  0
 24 49  1  0
 24 50  1  0
 26 51  1  0
 26 52  1  0
 27 53  1  0
 27 54  1  0
 28 55  1  0
 28 56  1  0
 30 57  1  0
M  END
$$$$
