
     RDKit          3D

 62 66  0  0  0  0  0  0  0  0999 V2000
   -0.9236   -2.8494    2.9272 O   0  0  0  0  0  0  0  0  0  0  0  0
   -1.3686   -2.6167    1.7863 C   0  0  0  0  0  0  0  0  0  0  0  0
   -2.7241   -2.8915    1.3510 C   0  0  0  0  0  0  0  0  0  0  0  0
   -3.6722   -3.4088    2.0425 O   0  0  0  0  0  0  0  0  0  0  0  0
   -2.7880   -2.4714   -0.0048 N   0  0  0  0  0  0  0  0  0  0  0  0
   -3.9681   -2.5614   -0.8883 C   0  0  0  0  0  0  0  0  0  0  0  0
   -4.8324   -1.3933   -0.5467 C   0  0  0  0  0  0  0  0  0  0  0  0
   -5.8523   -1.5413    0.3992 C   0  0  0  0  0  0  0  0  0  0  0  0
   -6.6483   -0.5274    0.7800 C   0  0  0  0  0  0  0  0  0  0  0  0
   -6.4917    0.7735    0.2303 C   0  0  0  0  0  0  0  0  0  0  0  0
   -7.3174    1.7666    0.6466 O   0  0  0  0  0  0  0  0  0  0  0  0
   -7.4282    3.0739    0.3048 C   0  0  0  0  0  0  0  0  0  0  0  0
   -7.8062    3.3152   -1.1171 C   0  0  0  0  0  0  0  0  0  0  0  0
   -9.0377    2.7227   -1.4291 F   0  0  0  0  0  0  0  0  0  0  0  0
   -5.4980    0.9019   -0.6850 C   0  0  0  0  0  0  0  0  0  0  0  0
   -4.6736   -0.1593   -1.0766 C   0  0  0  0  0  0  0  0  0  0  0  0
   -1.5021   -1.9560   -0.3806 C   0  0  0  0  0  0  0  0  0  0  0  0
   -1.0294   -1.4530   -1.5745 C   0  0  0  0  0  0  0  0  0  0  0  0
    0.3044   -1.0372   -1.6888 C   0  0  0  0  0  0  0  0  0  0  0  0
    1.1746   -1.1135   -0.6394 C   0  0  0  0  0  0  0  0  0  0  0  0
    2.8523   -0.7006   -0.8532 S   0  0  0  0  0  6  0  0  0  0  0  0
    3.4732   -1.0332    0.5256 O   0  0  0  0  0  0  0  0  0  0  0  0
    3.4591   -1.6741   -1.8075 O   0  0  0  0  0  0  0  0  0  0  0  0
    3.2306    0.8380   -1.1953 N   0  0  0  0  0  0  0  0  0  0  0  0
    2.7220    1.4741   -2.4073 C   0  0  0  0  0  0  0  0  0  0  0  0
    3.8133    2.5339   -2.1241 C   0  0  0  0  0  0  0  0  0  0  0  0
    4.4844    1.4525   -1.3026 C   0  0  1  0  0  0  0  0  0  0  0  0
    5.3003    1.8403   -0.1349 C   0  0  0  0  0  0  0  0  0  0  0  0
    5.8380    0.9413    0.6038 O   0  0  0  0  0  0  0  0  0  0  0  0
    6.3974    0.0784    1.3919 C   0  0  0  0  0  0  0  0  0  0  0  0
    6.9338    0.5966    2.6108 C   0  0  0  0  0  0  0  0  0  0  0  0
    7.5403   -0.2078    3.5322 C   0  0  0  0  0  0  0  0  0  0  0  0
    7.6590   -1.5600    3.3193 C   0  0  0  0  0  0  0  0  0  0  0  0
    8.2605   -2.3332    4.2479 F   0  0  0  0  0  0  0  0  0  0  0  0
    7.1572   -2.0770    2.1642 C   0  0  0  0  0  0  0  0  0  0  0  0
    6.5439   -1.2764    1.2258 C   0  0  0  0  0  0  0  0  0  0  0  0
    6.1259   -1.8828    0.0688 F   0  0  0  0  0  0  0  0  0  0  0  0
    0.7054   -1.6115    0.5521 C   0  0  0  0  0  0  0  0  0  0  0  0
   -0.6284   -2.0314    0.6783 C   0  0  0  0  0  0  0  0  0  0  0  0
   -4.4891   -3.4861   -0.6052 H   0  0  0  0  0  0  0  0  0  0  0  0
   -3.6493   -2.5409   -1.9504 H   0  0  0  0  0  0  0  0  0  0  0  0
   -5.9936   -2.5321    0.8344 H   0  0  0  0  0  0  0  0  0  0  0  0
   -7.4484   -0.6068    1.5107 H   0  0  0  0  0  0  0  0  0  0  0  0
   -6.4455    3.6004    0.5006 H   0  0  0  0  0  0  0  0  0  0  0  0
   -8.1924    3.5764    0.9935 H   0  0  0  0  0  0  0  0  0  0  0  0
   -7.9997    4.4187   -1.2197 H   0  0  0  0  0  0  0  0  0  0  0  0
   -7.0768    3.0067   -1.8595 H   0  0  0  0  0  0  0  0  0  0  0  0
   -5.3014    1.8635   -1.1277 H   0  0  0  0  0  0  0  0  0  0  0  0
   -3.9158    0.0557   -1.8174 H   0  0  0  0  0  0  0  0  0  0  0  0
   -1.6803   -1.3734   -2.4280 H   0  0  0  0  0  0  0  0  0  0  0  0
    0.6782   -0.6400   -2.6181 H   0  0  0  0  0  0  0  0  0  0  0  0
    2.9322    0.8288   -3.2760 H   0  0  0  0  0  0  0  0  0  0  0  0
    1.7113    1.8426   -2.3985 H   0  0  0  0  0  0  0  0  0  0  0  0
    3.4184    3.4032   -1.5632 H   0  0  0  0  0  0  0  0  0  0  0  0
    4.2908    2.8203   -3.0624 H   0  0  0  0  0  0  0  0  0  0  0  0
    5.1577    0.8789   -2.0255 H   0  0  0  0  0  0  0  0  0  0  0  0
    4.7003    2.6046    0.4820 H   0  0  0  0  0  0  0  0  0  0  0  0
    6.1366    2.5222   -0.5830 H   0  0  0  0  0  0  0  0  0  0  0  0
    6.8586    1.6505    2.8119 H   0  0  0  0  0  0  0  0  0  0  0  0
    7.9442    0.2006    4.4474 H   0  0  0  0  0  0  0  0  0  0  0  0
    7.2435   -3.1561    1.9896 H   0  0  0  0  0  0  0  0  0  0  0  0
    1.3354   -1.7030    1.4316 H   0  0  0  0  0  0  0  0  0  0  0  0
  1  2  2  0
  2  3  1  0
  3  4  2  0
  3  5  1  0
  5  6  1  0
  6  7  1  0
  7  8  2  0
  8  9  1  0
  9 10  2  0
 10 11  1  0
 11 12  1  0
 12 13  1  0
 13 14  1  0
 10 15  1  0
 15 16  2  0
  5 17  1  0
 17 18  2  0
 18 19  1  0
 19 20  2  0
 20 21  1  0
 21 22  2  0
 21 23  2  0
 21 24  1  0
 24 25  1  0
 25 26  1  0
 26 27  1  0
 27 28  1  0
 28 29  1  0
 29 30  1  0
 30 31  2  0
 31 32  1  0
 32 33  2  0
 33 34  1  0
 33 35  1  0
 35 36  2  0
 36 37  1  0
 20 38  1  0
 38 39  2  0
 39  2  1  0
 16  7  1  0
 39 17  1  0
 27 24  1  0
 36 30  1  0
  6 40  1  0
  6 41  1  0
  8 42  1  0
  9 43  1  0
 12 44  1  0
 12 45  1  0
 13 46  1  0
 13 47  1  0
 15 48  1  0
 16 49  1  0
 18 50  1  0
 19 51  1  0
 25 52  1  0
 25 53  1  0
 26 54  1  0
 26 55  1  0
 27 56  1  6
 28 57  1  0
 28 58  1  0
 31 59  1  0
 32 60  1  0
 35 61  1  0
 38 62  1  0
M  END
$$$$
