
     RDKit          3D

 48 48  0  0  0  0  0  0  0  0999 V2000
   -3.0205   -0.8997   -0.8471 C   0  0  2  0  0  0  0  0  0  0  0  0
   -3.0908   -0.0643   -1.9597 O   0  0  0  0  0  0  0  0  0  0  0  0
   -4.2733   -1.3842   -0.5211 O   0  0  0  0  0  0  0  0  0  0  0  0
   -5.1301   -0.5024    0.0636 C   0  0  2  0  0  0  0  0  0  0  0  0
   -6.2854   -0.0605   -0.7789 C   0  0  0  0  0  0  0  0  0  0  0  0
   -5.9254    0.5729   -1.9476 O   0  0  0  0  0  0  0  0  0  0  0  0
   -4.4302    0.7090    0.6592 C   0  0  1  0  0  0  0  0  0  0  0  0
   -5.2557    1.4129    1.5005 O   0  0  0  0  0  0  0  0  0  0  0  0
   -3.2282    0.1194    1.3977 C   0  0  2  0  0  0  0  0  0  0  0  0
   -2.7103    1.0900    2.2455 O   0  0  0  0  0  0  0  0  0  0  0  0
   -2.2615   -0.2888    0.2991 C   0  0  1  0  0  0  0  0  0  0  0  0
   -1.2435   -1.0816    0.7504 O   0  0  0  0  0  0  0  0  0  0  0  0
    0.0300   -0.5383    0.6260 C   0  0  0  0  0  0  0  0  0  0  0  0
    0.4315   -0.2223   -0.7733 C   0  0  0  0  0  0  0  0  0  0  0  0
    1.8228    0.3640   -0.7686 C   0  0  0  0  0  0  0  0  0  0  0  0
    2.8745   -0.5309   -0.2075 C   0  0  0  0  0  0  0  0  0  0  0  0
    4.2221    0.2047   -0.2801 C   0  0  0  0  0  0  0  0  0  0  0  0
    5.3258   -0.6648    0.2795 C   0  0  0  0  0  0  0  0  0  0  0  0
    6.6713    0.0613    0.2105 C   0  0  0  0  0  0  0  0  0  0  0  0
    6.9683    0.3805   -1.2286 C   0  0  0  0  0  0  0  0  0  0  0  0
   -2.4347   -1.8012   -1.1754 H   0  0  0  0  0  0  0  0  0  0  0  0
   -2.2134   -0.1239   -2.4152 H   0  0  0  0  0  0  0  0  0  0  0  0
   -5.5846   -1.0313    0.9502 H   0  0  0  0  0  0  0  0  0  0  0  0
   -6.9788   -0.8988   -0.9978 H   0  0  0  0  0  0  0  0  0  0  0  0
   -6.8976    0.6276   -0.1257 H   0  0  0  0  0  0  0  0  0  0  0  0
   -5.5151    1.4440   -1.6989 H   0  0  0  0  0  0  0  0  0  0  0  0
   -4.0610    1.3834   -0.1301 H   0  0  0  0  0  0  0  0  0  0  0  0
   -4.8506    2.3182    1.6182 H   0  0  0  0  0  0  0  0  0  0  0  0
   -3.5800   -0.7930    1.9104 H   0  0  0  0  0  0  0  0  0  0  0  0
   -2.5511    0.6147    3.1156 H   0  0  0  0  0  0  0  0  0  0  0  0
   -1.8441    0.6634   -0.0862 H   0  0  0  0  0  0  0  0  0  0  0  0
    0.7180   -1.3703    0.9632 H   0  0  0  0  0  0  0  0  0  0  0  0
    0.1694    0.3146    1.2888 H   0  0  0  0  0  0  0  0  0  0  0  0
    0.4487   -1.1346   -1.4064 H   0  0  0  0  0  0  0  0  0  0  0  0
   -0.2041    0.5338   -1.2796 H   0  0  0  0  0  0  0  0  0  0  0  0
    1.8393    1.3316   -0.2081 H   0  0  0  0  0  0  0  0  0  0  0  0
    2.1487    0.6311   -1.8089 H   0  0  0  0  0  0  0  0  0  0  0  0
    2.6483   -0.7934    0.8527 H   0  0  0  0  0  0  0  0  0  0  0  0
    2.9963   -1.4536   -0.8107 H   0  0  0  0  0  0  0  0  0  0  0  0
    4.1317    1.1406    0.2959 H   0  0  0  0  0  0  0  0  0  0  0  0
    4.4164    0.4533   -1.3328 H   0  0  0  0  0  0  0  0  0  0  0  0
    5.4128   -1.5918   -0.2948 H   0  0  0  0  0  0  0  0  0  0  0  0
    5.0878   -0.9098    1.3358 H   0  0  0  0  0  0  0  0  0  0  0  0
    6.6041    1.0314    0.7808 H   0  0  0  0  0  0  0  0  0  0  0  0
    7.4256   -0.6029    0.6470 H   0  0  0  0  0  0  0  0  0  0  0  0
    6.6077    1.3764   -1.5069 H   0  0  0  0  0  0  0  0  0  0  0  0
    6.4973   -0.3998   -1.8875 H   0  0  0  0  0  0  0  0  0  0  0  0
    8.0716    0.3633   -1.4397 H   0  0  0  0  0  0  0  0  0  0  0  0
  1  2  1  0
  1  3  1  0
  3  4  1  0
  4  5  1  0
  5  6  1  0
  4  7  1  0
  7  8  1  0
  7  9  1  0
  9 10  1  0
  9 11  1  0
 11 12  1  0
 12 13  1  0
 13 14  1  0
 14 15  1  0
 15 16  1  0
 16 17  1  0
 17 18  1  0
 18 19  1  0
 19 20  1  0
 11  1  1  0
  1 21  1  6
  2 22  1  0
  4 23  1  1
  5 24  1  0
  5 25  1  0
  6 26  1  0
  7 27  1  6
  8 28  1  0
  9 29  1  1
 10 30  1  0
 11 31  1  6
 13 32  1  0
 13 33  1  0
 14 34  1  0
 14 35  1  0
 15 36  1  0
 15 37  1  0
 16 38  1  0
 16 39  1  0
 17 40  1  0
 17 41  1  0
 18 42  1  0
 18 43  1  0
 19 44  1  0
 19 45  1  0
 20 46  1  0
 20 47  1  0
 20 48  1  0
M  END
$$$$
