
     RDKit          3D

 77 79  0  0  0  0  0  0  0  0999 V2000
   -6.7838    2.5868    1.6241 C   0  0  0  0  0  0  0  0  0  0  0  0
   -5.5258    1.7857    2.0218 C   0  0  0  0  0  0  0  0  0  0  0  0
   -4.5921    2.8019    2.6481 C   0  0  0  0  0  0  0  0  0  0  0  0
   -4.9727    1.1511    0.8388 N   0  0  0  0  0  0  0  0  0  0  0  0
   -6.0922    0.4294    0.1729 C   0  0  0  0  0  0  0  0  0  0  0  0
   -3.9937    0.1590    1.0540 C   0  0  2  0  0  0  0  0  0  0  0  0
   -2.7565    0.5154    1.7694 C   0  0  0  0  0  0  0  0  0  0  0  0
   -1.7882   -0.6092    1.9190 C   0  0  0  0  0  0  0  0  0  0  0  0
   -1.6933   -1.5716    0.8116 C   0  0  2  0  0  0  0  0  0  0  0  0
   -0.4166   -1.5633    0.1254 N   0  0  0  0  0  0  0  0  0  0  0  0
    0.6061   -2.6153    0.0315 C   0  0  0  0  0  0  0  0  0  0  0  0
    1.0950   -2.4624   -1.3889 C   0  0  0  0  0  0  0  0  0  0  0  0
    1.1549   -0.9632   -1.5595 C   0  0  2  0  0  0  0  0  0  0  0  0
    2.4688   -0.4420   -1.2695 N   0  0  0  0  0  0  0  0  0  0  0  0
    3.2086    0.2668   -2.2456 C   0  0  0  0  0  0  0  0  0  0  0  0
    2.6540    0.4135   -3.3742 O   0  0  0  0  0  0  0  0  0  0  0  0
    4.5448    0.8157   -2.0079 C   0  0  0  0  0  0  0  0  0  0  0  0
    5.1920    1.4904   -3.0340 C   0  0  0  0  0  0  0  0  0  0  0  0
    6.4417    2.0100   -2.8336 C   0  0  0  0  0  0  0  0  0  0  0  0
    7.0453    1.8520   -1.5976 C   0  0  0  0  0  0  0  0  0  0  0  0
    6.3974    1.1793   -0.5783 C   0  0  0  0  0  0  0  0  0  0  0  0
    7.0685    1.0209    0.7439 C   0  0  0  0  0  0  0  0  0  0  0  0
    6.6750    2.2117    1.5966 C   0  0  0  0  0  0  0  0  0  0  0  0
    6.6621   -0.2512    1.4334 C   0  0  0  0  0  0  0  0  0  0  0  0
    8.5858    1.0057    0.5541 C   0  0  0  0  0  0  0  0  0  0  0  0
    5.1768    0.6932   -0.8330 N   0  0  0  0  0  0  0  0  0  0  0  0
    0.1085   -0.4826   -0.6256 C   0  0  0  0  0  0  0  0  0  0  0  0
   -0.2480    0.7137   -0.5283 O   0  0  0  0  0  0  0  0  0  0  0  0
   -2.8559   -1.5979   -0.1595 C   0  0  2  0  0  0  0  0  0  0  0  0
   -2.4615   -2.2167   -1.4502 C   0  0  0  0  0  0  0  0  0  0  0  0
   -3.7727   -2.2759   -2.6260 S   0  0  0  0  0  6  0  0  0  0  0  0
   -5.1165   -3.2136   -1.8876 C   0  0  0  0  0  0  0  0  0  0  0  0
   -3.2701   -3.1119   -3.8173 O   0  0  0  0  0  0  0  0  0  0  0  0
   -4.1977   -0.9597   -3.1411 O   0  0  0  0  0  0  0  0  0  0  0  0
   -3.5430   -0.2963   -0.3535 C   0  0  0  0  0  0  0  0  0  0  0  0
   -6.7888    3.5948    2.0844 H   0  0  0  0  0  0  0  0  0  0  0  0
   -7.7032    2.0858    2.0391 H   0  0  0  0  0  0  0  0  0  0  0  0
   -6.8517    2.7199    0.5408 H   0  0  0  0  0  0  0  0  0  0  0  0
   -5.8457    1.0236    2.7230 H   0  0  0  0  0  0  0  0  0  0  0  0
   -3.7037    3.0299    2.0478 H   0  0  0  0  0  0  0  0  0  0  0  0
   -5.0988    3.8169    2.7567 H   0  0  0  0  0  0  0  0  0  0  0  0
   -4.3603    2.5604    3.7279 H   0  0  0  0  0  0  0  0  0  0  0  0
   -6.0043   -0.6635    0.3086 H   0  0  0  0  0  0  0  0  0  0  0  0
   -6.1282    0.6365   -0.9000 H   0  0  0  0  0  0  0  0  0  0  0  0
   -7.0640    0.6942    0.6847 H   0  0  0  0  0  0  0  0  0  0  0  0
   -4.4527   -0.7488    1.5075 H   0  0  0  0  0  0  0  0  0  0  0  0
   -3.0009    0.8837    2.7852 H   0  0  0  0  0  0  0  0  0  0  0  0
   -2.2451    1.3434    1.2454 H   0  0  0  0  0  0  0  0  0  0  0  0
   -0.7678   -0.1418    2.0576 H   0  0  0  0  0  0  0  0  0  0  0  0
   -1.9781   -1.0954    2.9219 H   0  0  0  0  0  0  0  0  0  0  0  0
   -1.7157   -2.6060    1.2902 H   0  0  0  0  0  0  0  0  0  0  0  0
    0.1139   -3.6249    0.0664 H   0  0  0  0  0  0  0  0  0  0  0  0
    1.4035   -2.4997    0.7627 H   0  0  0  0  0  0  0  0  0  0  0  0
    2.0905   -2.9297   -1.5273 H   0  0  0  0  0  0  0  0  0  0  0  0
    0.3535   -2.8874   -2.0895 H   0  0  0  0  0  0  0  0  0  0  0  0
    0.8368   -0.7199   -2.6003 H   0  0  0  0  0  0  0  0  0  0  0  0
    2.8833   -0.5846   -0.3317 H   0  0  0  0  0  0  0  0  0  0  0  0
    4.6769    1.5803   -3.9657 H   0  0  0  0  0  0  0  0  0  0  0  0
    6.9467    2.5352   -3.6298 H   0  0  0  0  0  0  0  0  0  0  0  0
    8.0347    2.2710   -1.4608 H   0  0  0  0  0  0  0  0  0  0  0  0
    5.5962    2.4201    1.3678 H   0  0  0  0  0  0  0  0  0  0  0  0
    7.2565    3.1186    1.3227 H   0  0  0  0  0  0  0  0  0  0  0  0
    6.7902    1.9571    2.6667 H   0  0  0  0  0  0  0  0  0  0  0  0
    6.7502   -0.1300    2.5497 H   0  0  0  0  0  0  0  0  0  0  0  0
    5.6023   -0.4722    1.1965 H   0  0  0  0  0  0  0  0  0  0  0  0
    7.2639   -1.1361    1.0864 H   0  0  0  0  0  0  0  0  0  0  0  0
    9.0177    1.9929    0.7296 H   0  0  0  0  0  0  0  0  0  0  0  0
    9.0796    0.2696    1.2223 H   0  0  0  0  0  0  0  0  0  0  0  0
    8.8214    0.6637   -0.4840 H   0  0  0  0  0  0  0  0  0  0  0  0
   -3.6419   -2.2831    0.2976 H   0  0  0  0  0  0  0  0  0  0  0  0
   -2.0763   -3.2546   -1.3490 H   0  0  0  0  0  0  0  0  0  0  0  0
   -1.6575   -1.5919   -1.9100 H   0  0  0  0  0  0  0  0  0  0  0  0
   -4.7473   -4.2653   -1.7709 H   0  0  0  0  0  0  0  0  0  0  0  0
   -6.0168   -3.1808   -2.5262 H   0  0  0  0  0  0  0  0  0  0  0  0
   -5.2838   -2.8267   -0.8640 H   0  0  0  0  0  0  0  0  0  0  0  0
   -2.9441    0.4526   -0.8625 H   0  0  0  0  0  0  0  0  0  0  0  0
   -4.4466   -0.4771   -0.9746 H   0  0  0  0  0  0  0  0  0  0  0  0
  1  2  1  0
  2  3  1  0
  2  4  1  0
  4  5  1  0
  4  6  1  0
  6  7  1  0
  7  8  1  0
  8  9  1  0
  9 10  1  0
 10 11  1  0
 11 12  1  0
 12 13  1  0
 13 14  1  0
 14 15  1  0
 15 16  2  0
 15 17  1  0
 17 18  2  0
 18 19  1  0
 19 20  2  0
 20 21  1  0
 21 22  1  0
 22 23  1  0
 22 24  1  0
 22 25  1  0
 21 26  2  0
 13 27  1  0
 27 28  2  0
  9 29  1  0
 29 30  1  0
 30 31  1  0
 31 32  1  0
 31 33  2  0
 31 34  2  0
 29 35  1  0
 35  6  1  0
 27 10  1  0
 26 17  1  0
  1 36  1  0
  1 37  1  0
  1 38  1  0
  2 39  1  0
  3 40  1  0
  3 41  1  0
  3 42  1  0
  5 43  1  0
  5 44  1  0
  5 45  1  0
  6 46  1  1
  7 47  1  0
  7 48  1  0
  8 49  1  0
  8 50  1  0
  9 51  1  1
 11 52  1  0
 11 53  1  0
 12 54  1  0
 12 55  1  0
 13 56  1  6
 14 57  1  0
 18 58  1  0
 19 59  1  0
 20 60  1  0
 23 61  1  0
 23 62  1  0
 23 63  1  0
 24 64  1  0
 24 65  1  0
 24 66  1  0
 25 67  1  0
 25 68  1  0
 25 69  1  0
 29 70  1  1
 30 71  1  0
 30 72  1  0
 32 73  1  0
 32 74  1  0
 32 75  1  0
 35 76  1  0
 35 77  1  0
M  END
$$$$
