
     RDKit          3D

 60 63  0  0  0  0  0  0  0  0999 V2000
   -7.7161   -0.9428    2.3087 C   0  0  0  0  0  0  0  0  0  0  0  0
   -6.4886   -0.6099    1.7314 O   0  0  0  0  0  0  0  0  0  0  0  0
   -6.2963    0.4719    0.8867 C   0  0  0  0  0  0  0  0  0  0  0  0
   -7.4129    1.2711    0.6077 C   0  0  0  0  0  0  0  0  0  0  0  0
   -7.2868    2.3606   -0.2206 C   0  0  0  0  0  0  0  0  0  0  0  0
   -6.0722    2.6487   -0.7607 C   0  0  0  0  0  0  0  0  0  0  0  0
   -4.9758    1.8496   -0.4765 C   0  0  0  0  0  0  0  0  0  0  0  0
   -5.0666    0.7447    0.3530 C   0  0  0  0  0  0  0  0  0  0  0  0
   -3.8739   -0.0890    0.6099 C   0  0  0  0  0  0  0  0  0  0  0  0
   -3.7498   -1.2734   -0.1336 N   0  0  0  0  0  0  0  0  0  0  0  0
   -4.7351   -2.2769   -0.0407 C   0  0  0  0  0  0  0  0  0  0  0  0
   -3.0435   -1.2299   -1.3655 C   0  0  0  0  0  0  0  0  0  0  0  0
   -1.6355   -0.8331   -1.2937 C   0  0  0  0  0  0  0  0  0  0  0  0
   -1.1783    0.4624   -1.3987 C   0  0  0  0  0  0  0  0  0  0  0  0
    0.1378    0.8275   -1.3315 C   0  0  0  0  0  0  0  0  0  0  0  0
    1.0914   -0.1463   -1.1469 C   0  0  0  0  0  0  0  0  0  0  0  0
    2.4893    0.1936   -1.0716 C   0  0  0  0  0  0  0  0  0  0  0  0
    3.3038   -0.3649   -0.1088 C   0  0  0  0  0  0  0  0  0  0  0  0
    4.6502   -0.0273   -0.0516 C   0  0  0  0  0  0  0  0  0  0  0  0
    5.4975   -0.5665    0.8987 C   0  0  0  0  0  0  0  0  0  0  0  0
    6.8327   -0.2527    0.9809 C   0  0  0  0  0  0  0  0  0  0  0  0
    7.6420   -0.8214    1.9537 O   0  0  0  0  0  0  0  0  0  0  0  0
    7.0850   -1.7273    2.8619 C   0  0  0  0  0  0  0  0  0  0  0  0
    7.3240    0.6512    0.0519 C   0  0  0  0  0  0  0  0  0  0  0  0
    8.6653    0.9696    0.1306 O   0  0  0  0  0  0  0  0  0  0  0  0
    9.2778    1.8792   -0.7630 C   0  0  0  0  0  0  0  0  0  0  0  0
    6.4931    1.1964   -0.9001 C   0  0  0  0  0  0  0  0  0  0  0  0
    5.1708    0.8781   -0.9723 C   0  0  0  0  0  0  0  0  0  0  0  0
    4.3481    1.3752   -1.8631 O   0  0  0  0  0  0  0  0  0  0  0  0
    3.0740    1.0822   -1.9494 C   0  0  0  0  0  0  0  0  0  0  0  0
    2.3987    1.6479   -2.8723 O   0  0  0  0  0  0  0  0  0  0  0  0
    0.6911   -1.4669   -1.0344 C   0  0  0  0  0  0  0  0  0  0  0  0
   -0.6440   -1.8034   -1.1062 C   0  0  0  0  0  0  0  0  0  0  0  0
   -8.4379   -1.2107    1.4928 H   0  0  0  0  0  0  0  0  0  0  0  0
   -7.5717   -1.8900    2.8855 H   0  0  0  0  0  0  0  0  0  0  0  0
   -8.1397   -0.1615    2.9499 H   0  0  0  0  0  0  0  0  0  0  0  0
   -8.3754    1.0480    1.0319 H   0  0  0  0  0  0  0  0  0  0  0  0
   -8.1445    3.0076   -0.4588 H   0  0  0  0  0  0  0  0  0  0  0  0
   -6.0007    3.5142   -1.4103 H   0  0  0  0  0  0  0  0  0  0  0  0
   -4.0497    2.1460   -0.9438 H   0  0  0  0  0  0  0  0  0  0  0  0
   -3.8465   -0.3793    1.7109 H   0  0  0  0  0  0  0  0  0  0  0  0
   -2.9277    0.5033    0.4925 H   0  0  0  0  0  0  0  0  0  0  0  0
   -5.7359   -2.0198   -0.4556 H   0  0  0  0  0  0  0  0  0  0  0  0
   -4.8534   -2.6437    1.0060 H   0  0  0  0  0  0  0  0  0  0  0  0
   -4.3637   -3.1913   -0.5908 H   0  0  0  0  0  0  0  0  0  0  0  0
   -3.1642   -2.2503   -1.8386 H   0  0  0  0  0  0  0  0  0  0  0  0
   -3.5467   -0.5475   -2.1133 H   0  0  0  0  0  0  0  0  0  0  0  0
   -1.9186    1.2391   -1.5465 H   0  0  0  0  0  0  0  0  0  0  0  0
    0.4823    1.8601   -1.4166 H   0  0  0  0  0  0  0  0  0  0  0  0
    2.9551   -1.0718    0.6303 H   0  0  0  0  0  0  0  0  0  0  0  0
    5.0943   -1.2713    1.6163 H   0  0  0  0  0  0  0  0  0  0  0  0
    6.6988   -2.5905    2.2602 H   0  0  0  0  0  0  0  0  0  0  0  0
    7.9149   -2.1210    3.5168 H   0  0  0  0  0  0  0  0  0  0  0  0
    6.2668   -1.3295    3.4672 H   0  0  0  0  0  0  0  0  0  0  0  0
   10.3648    1.7846   -0.7785 H   0  0  0  0  0  0  0  0  0  0  0  0
    9.0484    2.9288   -0.4432 H   0  0  0  0  0  0  0  0  0  0  0  0
    8.9231    1.7548   -1.8060 H   0  0  0  0  0  0  0  0  0  0  0  0
    6.8982    1.9071   -1.6232 H   0  0  0  0  0  0  0  0  0  0  0  0
    1.4265   -2.2500   -0.8885 H   0  0  0  0  0  0  0  0  0  0  0  0
   -0.9938   -2.8430   -1.0202 H   0  0  0  0  0  0  0  0  0  0  0  0
  1  2  1  0
  2  3  1  0
  3  4  2  0
  4  5  1  0
  5  6  2  0
  6  7  1  0
  7  8  2  0
  8  9  1  0
  9 10  1  0
 10 11  1  0
 10 12  1  0
 12 13  1  0
 13 14  2  0
 14 15  1  0
 15 16  2  0
 16 17  1  0
 17 18  2  0
 18 19  1  0
 19 20  2  0
 20 21  1  0
 21 22  1  0
 22 23  1  0
 21 24  2  0
 24 25  1  0
 25 26  1  0
 24 27  1  0
 27 28  2  0
 28 29  1  0
 29 30  1  0
 30 31  2  0
 16 32  1  0
 32 33  2  0
  8  3  1  0
 33 13  1  0
 30 17  1  0
 28 19  1  0
  1 34  1  0
  1 35  1  0
  1 36  1  0
  4 37  1  0
  5 38  1  0
  6 39  1  0
  7 40  1  0
  9 41  1  0
  9 42  1  0
 11 43  1  0
 11 44  1  0
 11 45  1  0
 12 46  1  0
 12 47  1  0
 14 48  1  0
 15 49  1  0
 18 50  1  0
 20 51  1  0
 23 52  1  0
 23 53  1  0
 23 54  1  0
 26 55  1  0
 26 56  1  0
 26 57  1  0
 27 58  1  0
 32 59  1  0
 33 60  1  0
M  END
$$$$
