
     RDKit          3D

 54 56  0  0  0  0  0  0  0  0999 V2000
    6.8760    2.0589    3.4131 C   0  0  0  0  0  0  0  0  0  0  0  0
    6.7782    1.8314    2.0173 O   0  0  0  0  0  0  0  0  0  0  0  0
    5.6438    1.2802    1.4622 C   0  0  0  0  0  0  0  0  0  0  0  0
    4.5818    0.9385    2.2487 C   0  0  0  0  0  0  0  0  0  0  0  0
    3.4797    0.4021    1.7025 N   0  0  0  0  0  0  0  0  0  0  0  0
    3.3672    0.1778    0.3776 C   0  0  0  0  0  0  0  0  0  0  0  0
    2.1332   -0.4123   -0.1550 C   0  0  0  0  0  0  0  0  0  0  0  0
    2.0557   -0.6110   -1.3992 O   0  0  0  0  0  0  0  0  0  0  0  0
    1.0705   -0.7414    0.7283 N   0  0  0  0  0  0  0  0  0  0  0  0
   -0.0963   -1.3073    0.1661 C   0  0  0  0  0  0  0  0  0  0  0  0
   -0.2402   -2.6705    0.0225 C   0  0  0  0  0  0  0  0  0  0  0  0
   -1.3762   -3.2302   -0.5250 C   0  0  0  0  0  0  0  0  0  0  0  0
   -1.4901   -4.7013   -0.6614 C   0  0  0  0  0  0  0  0  0  0  0  0
   -2.3993   -2.3725   -0.9397 C   0  0  0  0  0  0  0  0  0  0  0  0
   -3.5129   -2.9461   -1.4602 F   0  0  0  0  0  0  0  0  0  0  0  0
   -2.3046   -0.9957   -0.8180 C   0  0  0  0  0  0  0  0  0  0  0  0
   -3.3849   -0.0850   -1.2858 C   0  0  2  0  0  0  0  0  0  0  0  0
   -3.5324   -0.3206   -2.7976 C   0  0  0  0  0  0  0  0  0  0  0  0
   -4.5252    0.5078   -3.3015 F   0  0  0  0  0  0  0  0  0  0  0  0
   -3.0213    1.3708   -1.0475 C   0  0  0  0  0  0  0  0  0  0  0  0
   -3.3046    1.7109    0.3927 C   0  0  1  0  0  0  0  0  0  0  0  0
   -2.8272    3.1036    0.7362 C   0  0  0  0  0  0  0  0  0  0  0  0
   -3.4556    4.0265   -0.0464 F   0  0  0  0  0  0  0  0  0  0  0  0
   -3.0128    3.3027    2.0840 F   0  0  0  0  0  0  0  0  0  0  0  0
   -1.4708    3.1389    0.4755 F   0  0  0  0  0  0  0  0  0  0  0  0
   -4.7344    1.6247    0.5138 O   0  0  0  0  0  0  0  0  0  0  0  0
   -5.2709    0.4011    0.1434 C   0  0  0  0  0  0  0  0  0  0  0  0
   -6.5499   -0.0201    0.6829 N   0  0  0  0  0  0  0  0  0  0  0  0
   -4.6284   -0.3336   -0.6677 N   0  0  0  0  0  0  0  0  0  0  0  0
   -1.1559   -0.5070   -0.2689 C   0  0  0  0  0  0  0  0  0  0  0  0
    4.4137    0.5068   -0.4550 C   0  0  0  0  0  0  0  0  0  0  0  0
    4.3313    0.2768   -1.9179 C   0  0  0  0  0  0  0  0  0  0  0  0
    5.5531    1.0622    0.1156 C   0  0  0  0  0  0  0  0  0  0  0  0
    7.8913    2.4248    3.6550 H   0  0  0  0  0  0  0  0  0  0  0  0
    6.7392    1.0701    3.9088 H   0  0  0  0  0  0  0  0  0  0  0  0
    6.1002    2.7797    3.7480 H   0  0  0  0  0  0  0  0  0  0  0  0
    4.6335    1.1047    3.3307 H   0  0  0  0  0  0  0  0  0  0  0  0
    1.2085   -0.5482    1.7404 H   0  0  0  0  0  0  0  0  0  0  0  0
    0.5598   -3.3275    0.3477 H   0  0  0  0  0  0  0  0  0  0  0  0
   -1.0370   -5.2160    0.2274 H   0  0  0  0  0  0  0  0  0  0  0  0
   -0.8708   -4.9814   -1.5618 H   0  0  0  0  0  0  0  0  0  0  0  0
   -2.5150   -5.0250   -0.8623 H   0  0  0  0  0  0  0  0  0  0  0  0
   -3.9072   -1.3475   -2.9363 H   0  0  0  0  0  0  0  0  0  0  0  0
   -2.5905   -0.1911   -3.3290 H   0  0  0  0  0  0  0  0  0  0  0  0
   -2.0394    1.6600   -1.4118 H   0  0  0  0  0  0  0  0  0  0  0  0
   -3.7955    1.9666   -1.6330 H   0  0  0  0  0  0  0  0  0  0  0  0
   -2.9173    0.9712    1.1133 H   0  0  0  0  0  0  0  0  0  0  0  0
   -6.5518   -0.2367    1.6918 H   0  0  0  0  0  0  0  0  0  0  0  0
   -7.3821   -0.0845    0.0545 H   0  0  0  0  0  0  0  0  0  0  0  0
   -0.9963    0.5412   -0.1437 H   0  0  0  0  0  0  0  0  0  0  0  0
    3.5511    0.8698   -2.4139 H   0  0  0  0  0  0  0  0  0  0  0  0
    5.3016    0.6056   -2.3784 H   0  0  0  0  0  0  0  0  0  0  0  0
    4.2689   -0.8130   -2.1200 H   0  0  0  0  0  0  0  0  0  0  0  0
    6.3585    1.3103   -0.5630 H   0  0  0  0  0  0  0  0  0  0  0  0
  1  2  1  0
  2  3  1  0
  3  4  2  0
  4  5  1  0
  5  6  2  0
  6  7  1  0
  7  8  2  0
  7  9  1  0
  9 10  1  0
 10 11  2  0
 11 12  1  0
 12 13  1  0
 12 14  2  0
 14 15  1  0
 14 16  1  0
 16 17  1  0
 17 18  1  6
 18 19  1  0
 17 20  1  0
 20 21  1  0
 21 22  1  0
 22 23  1  0
 22 24  1  0
 22 25  1  0
 21 26  1  0
 26 27  1  0
 27 28  1  0
 27 29  2  0
 16 30  2  0
  6 31  1  0
 31 32  1  0
 31 33  2  0
 33  3  1  0
 30 10  1  0
 29 17  1  0
  1 34  1  0
  1 35  1  0
  1 36  1  0
  4 37  1  0
  9 38  1  0
 11 39  1  0
 13 40  1  0
 13 41  1  0
 13 42  1  0
 18 43  1  0
 18 44  1  0
 20 45  1  0
 20 46  1  0
 21 47  1  1
 28 48  1  0
 28 49  1  0
 30 50  1  0
 32 51  1  0
 32 52  1  0
 32 53  1  0
 33 54  1  0
M  END
$$$$
