
     RDKit          3D

 35 37  0  0  0  0  0  0  0  0999 V2000
   -2.6119    2.5318    0.6694 O   0  0  0  0  0  0  0  0  0  0  0  0
   -3.0854    1.2233    0.6524 C   0  0  0  0  0  0  0  0  0  0  0  0
   -2.8097    0.5311   -0.6818 C   0  0  1  0  0  0  0  0  0  0  0  0
   -1.4645    0.4865   -0.9335 O   0  0  0  0  0  0  0  0  0  0  0  0
   -1.0729   -0.8182   -1.1013 C   0  0  2  0  0  0  0  0  0  0  0  0
   -2.0224   -1.5949   -0.2003 C   0  0  0  0  0  0  0  0  0  0  0  0
   -3.3250   -0.8744   -0.5676 C   0  0  2  0  0  0  0  0  0  0  0  0
   -3.6703   -1.3517   -1.8328 O   0  0  0  0  0  0  0  0  0  0  0  0
    0.3001   -1.0688   -0.8460 N   0  0  0  0  0  0  0  0  0  0  0  0
    1.0568   -2.0827   -1.3038 C   0  0  0  0  0  0  0  0  0  0  0  0
    2.3154   -1.9739   -0.8383 N   0  0  0  0  0  0  0  0  0  0  0  0
    2.4002   -0.8684   -0.0564 C   0  0  0  0  0  0  0  0  0  0  0  0
    1.1247   -0.3254   -0.0816 C   0  0  0  0  0  0  0  0  0  0  0  0
    0.7672    0.8760    0.6284 N   0  0  0  0  0  0  0  0  0  0  0  0
    1.5356    1.8703    0.9876 C   0  0  0  0  0  0  0  0  0  0  0  0
    2.9415    1.9679    0.7373 N   0  0  0  0  0  0  0  0  0  0  0  0
    3.9494    1.0235    0.4063 C   0  0  0  0  0  0  0  0  0  0  0  0
    3.6228   -0.4154    0.6332 C   0  0  1  0  0  0  0  0  0  0  0  0
    3.5119   -0.6037    2.0268 O   0  0  0  0  0  0  0  0  0  0  0  0
   -2.1086    2.7395    1.4924 H   0  0  0  0  0  0  0  0  0  0  0  0
   -4.1636    1.2519    0.8606 H   0  0  0  0  0  0  0  0  0  0  0  0
   -2.5693    0.6857    1.4848 H   0  0  0  0  0  0  0  0  0  0  0  0
   -3.3786    1.0954   -1.4479 H   0  0  0  0  0  0  0  0  0  0  0  0
   -1.3485   -1.1127   -2.1491 H   0  0  0  0  0  0  0  0  0  0  0  0
   -2.0319   -2.6353   -0.5228 H   0  0  0  0  0  0  0  0  0  0  0  0
   -1.7699   -1.4773    0.8728 H   0  0  0  0  0  0  0  0  0  0  0  0
   -4.1040   -1.0238    0.1908 H   0  0  0  0  0  0  0  0  0  0  0  0
   -4.1359   -0.6662   -2.3769 H   0  0  0  0  0  0  0  0  0  0  0  0
    0.6507   -2.8626   -1.9630 H   0  0  0  0  0  0  0  0  0  0  0  0
    1.0793    2.6962    1.5209 H   0  0  0  0  0  0  0  0  0  0  0  0
    3.3422    2.9454    0.8079 H   0  0  0  0  0  0  0  0  0  0  0  0
    4.8320    1.2455    1.0709 H   0  0  0  0  0  0  0  0  0  0  0  0
    4.3383    1.1557   -0.6348 H   0  0  0  0  0  0  0  0  0  0  0  0
    4.4768   -1.0076    0.2709 H   0  0  0  0  0  0  0  0  0  0  0  0
    3.4274   -1.5625    2.2245 H   0  0  0  0  0  0  0  0  0  0  0  0
  1  2  1  0
  2  3  1  0
  3  4  1  0
  4  5  1  0
  5  6  1  0
  6  7  1  0
  7  8  1  0
  5  9  1  0
  9 10  1  0
 10 11  2  0
 11 12  1  0
 12 13  2  0
 13 14  1  0
 14 15  2  0
 15 16  1  0
 16 17  1  0
 17 18  1  0
 18 19  1  0
  7  3  1  0
 13  9  1  0
 18 12  1  0
  1 20  1  0
  2 21  1  0
  2 22  1  0
  3 23  1  6
  5 24  1  6
  6 25  1  0
  6 26  1  0
  7 27  1  1
  8 28  1  0
 10 29  1  0
 15 30  1  0
 16 31  1  0
 17 32  1  0
 17 33  1  0
 18 34  1  6
 19 35  1  0
M  END
$$$$
