
     RDKit          3D

 54 57  0  0  0  0  0  0  0  0999 V2000
   -4.6935   -2.3189    0.1916 C   0  0  0  0  0  0  0  0  0  0  0  0
   -4.9725   -0.9038    0.4466 C   0  0  0  0  0  0  0  0  0  0  0  0
   -6.2847   -0.5106    0.7465 C   0  0  0  0  0  0  0  0  0  0  0  0
   -6.6119    0.8006    1.0461 C   0  0  0  0  0  0  0  0  0  0  0  0
   -7.9267    1.1526    1.3388 O   0  0  0  0  0  0  0  0  0  0  0  0
   -8.4083    2.4104    1.6553 C   0  0  0  0  0  0  0  0  0  0  0  0
   -9.3620    2.7686    0.7069 F   0  0  0  0  0  0  0  0  0  0  0  0
   -9.1111    2.3124    2.8515 F   0  0  0  0  0  0  0  0  0  0  0  0
   -5.5960    1.7028    1.0377 C   0  0  0  0  0  0  0  0  0  0  0  0
   -4.3521    1.3222    0.7510 N   0  0  0  0  0  0  0  0  0  0  0  0
   -3.9961    0.0314    0.4490 C   0  0  0  0  0  0  0  0  0  0  0  0
   -2.6076   -0.1627    0.1015 C   0  0  0  0  0  0  0  0  0  0  0  0
   -1.7798    0.6962    0.5904 O   0  0  0  0  0  0  0  0  0  0  0  0
   -2.0296   -1.1513   -0.6975 N   0  0  0  0  0  0  0  0  0  0  0  0
   -0.6565   -1.3452   -1.0271 C   0  0  0  0  0  0  0  0  0  0  0  0
   -0.3949   -2.4453   -1.8621 C   0  0  0  0  0  0  0  0  0  0  0  0
    0.9073   -2.6943   -2.2215 C   0  0  0  0  0  0  0  0  0  0  0  0
    1.9753   -1.9218   -1.8070 C   0  0  0  0  0  0  0  0  0  0  0  0
    3.2534   -2.2392   -2.1984 F   0  0  0  0  0  0  0  0  0  0  0  0
    1.6689   -0.8592   -0.9938 C   0  0  0  0  0  0  0  0  0  0  0  0
    2.8013   -0.0084   -0.5380 C   0  0  2  0  0  0  0  0  0  0  0  0
    2.3451    1.2071    0.2460 C   0  0  0  0  0  0  0  0  0  0  0  0
    1.5423    1.9562   -0.5902 F   0  0  0  0  0  0  0  0  0  0  0  0
    3.4847    0.5972   -1.7626 C   0  0  0  0  0  0  0  0  0  0  0  0
    4.8300    1.5810   -1.1462 S   0  0  0  0  0  6  0  0  0  0  0  0
    5.9038    1.6074   -2.2268 O   0  0  0  0  0  0  0  0  0  0  0  0
    4.4596    3.0057   -0.9164 O   0  0  0  0  0  0  0  0  0  0  0  0
    5.4338    0.7604    0.2950 C   0  0  0  0  0  0  0  0  0  0  0  0
    6.9403    0.9327    0.4854 C   0  0  0  0  0  0  0  0  0  0  0  0
    5.9536    1.5192    1.4532 C   0  0  0  0  0  0  0  0  0  0  0  0
    4.8443   -0.5397    0.5595 C   0  0  0  0  0  0  0  0  0  0  0  0
    5.6108   -1.5023    1.2763 N   0  0  0  0  0  0  0  0  0  0  0  0
    3.6861   -0.8602    0.1859 N   0  0  0  0  0  0  0  0  0  0  0  0
    0.3821   -0.5610   -0.6002 C   0  0  0  0  0  0  0  0  0  0  0  0
   -4.8509   -2.6562   -0.8497 H   0  0  0  0  0  0  0  0  0  0  0  0
   -3.7832   -2.7164    0.6774 H   0  0  0  0  0  0  0  0  0  0  0  0
   -5.5210   -2.8940    0.7524 H   0  0  0  0  0  0  0  0  0  0  0  0
   -7.0955   -1.2292    0.7535 H   0  0  0  0  0  0  0  0  0  0  0  0
   -7.6784    3.2267    1.6803 H   0  0  0  0  0  0  0  0  0  0  0  0
   -5.7911    2.7604    1.2683 H   0  0  0  0  0  0  0  0  0  0  0  0
   -2.7340   -1.8238   -1.1339 H   0  0  0  0  0  0  0  0  0  0  0  0
   -1.2062   -3.0967   -2.2237 H   0  0  0  0  0  0  0  0  0  0  0  0
    1.1105   -3.5541   -2.8738 H   0  0  0  0  0  0  0  0  0  0  0  0
    1.7532    0.9553    1.1436 H   0  0  0  0  0  0  0  0  0  0  0  0
    3.2164    1.7670    0.6012 H   0  0  0  0  0  0  0  0  0  0  0  0
    3.9004   -0.1185   -2.4560 H   0  0  0  0  0  0  0  0  0  0  0  0
    2.7473    1.2147   -2.3171 H   0  0  0  0  0  0  0  0  0  0  0  0
    7.4561   -0.0040    0.7134 H   0  0  0  0  0  0  0  0  0  0  0  0
    7.4761    1.6830   -0.1177 H   0  0  0  0  0  0  0  0  0  0  0  0
    5.8094    2.6142    1.4762 H   0  0  0  0  0  0  0  0  0  0  0  0
    5.9387    1.0167    2.4453 H   0  0  0  0  0  0  0  0  0  0  0  0
    5.8177   -1.4611    2.2914 H   0  0  0  0  0  0  0  0  0  0  0  0
    5.9887   -2.3044    0.7358 H   0  0  0  0  0  0  0  0  0  0  0  0
    0.2067    0.2800    0.0423 H   0  0  0  0  0  0  0  0  0  0  0  0
  1  2  1  0
  2  3  2  0
  3  4  1  0
  4  5  1  0
  5  6  1  0
  6  7  1  0
  6  8  1  0
  4  9  2  0
  9 10  1  0
 10 11  2  0
 11 12  1  0
 12 13  2  0
 12 14  1  0
 14 15  1  0
 15 16  2  0
 16 17  1  0
 17 18  2  0
 18 19  1  0
 18 20  1  0
 20 21  1  0
 21 22  1  1
 22 23  1  0
 21 24  1  0
 24 25  1  0
 25 26  2  0
 25 27  2  0
 25 28  1  0
 28 29  1  0
 29 30  1  0
 28 31  1  0
 31 32  1  0
 31 33  2  0
 20 34  2  0
 11  2  1  0
 34 15  1  0
 33 21  1  0
 30 28  1  0
  1 35  1  0
  1 36  1  0
  1 37  1  0
  3 38  1  0
  6 39  1  0
  9 40  1  0
 14 41  1  0
 16 42  1  0
 17 43  1  0
 22 44  1  0
 22 45  1  0
 24 46  1  0
 24 47  1  0
 29 48  1  0
 29 49  1  0
 30 50  1  0
 30 51  1  0
 32 52  1  0
 32 53  1  0
 34 54  1  0
M  END
$$$$
