
     RDKit          3D

 34 35  0  0  0  0  0  0  0  0999 V2000
    4.8165   -1.8508    1.1414 N   0  0  0  0  0  0  0  0  0  0  0  0
    3.8064   -0.8548    0.9832 C   0  0  0  0  0  0  0  0  0  0  0  0
    4.2601    0.1131    1.6629 O   0  0  0  0  0  0  0  0  0  0  0  0
    2.5822   -1.1372    0.1511 C   0  0  0  0  0  0  0  0  0  0  0  0
    1.5730    0.2961    0.1815 S   0  0  0  0  0  0  0  0  0  0  0  0
    1.6994    1.1963    1.3492 O   0  0  0  0  0  0  0  0  0  0  0  0
    0.0704    0.2674   -0.7032 C   0  0  0  0  0  0  0  0  0  0  0  0
   -0.6372    1.5650   -0.5549 C   0  0  0  0  0  0  0  0  0  0  0  0
   -0.8823    2.2174    0.6318 C   0  0  0  0  0  0  0  0  0  0  0  0
   -1.5366    3.4176    0.7299 C   0  0  0  0  0  0  0  0  0  0  0  0
   -1.9927    4.0446   -0.3895 C   0  0  0  0  0  0  0  0  0  0  0  0
   -1.7941    3.4669   -1.6261 C   0  0  0  0  0  0  0  0  0  0  0  0
   -1.1334    2.2666   -1.6609 C   0  0  0  0  0  0  0  0  0  0  0  0
   -0.8192   -0.8945   -0.4617 C   0  0  0  0  0  0  0  0  0  0  0  0
   -0.8335   -1.2908    0.8789 C   0  0  0  0  0  0  0  0  0  0  0  0
   -1.6031   -2.3539    1.2933 C   0  0  0  0  0  0  0  0  0  0  0  0
   -2.3778   -3.0485    0.3803 C   0  0  0  0  0  0  0  0  0  0  0  0
   -2.3605   -2.6553   -0.9367 C   0  0  0  0  0  0  0  0  0  0  0  0
   -1.5959   -1.5943   -1.3650 C   0  0  0  0  0  0  0  0  0  0  0  0
    5.2842   -2.4224    1.8991 H   0  0  0  0  0  0  0  0  0  0  0  0
    5.3180   -2.1944    0.2856 H   0  0  0  0  0  0  0  0  0  0  0  0
    2.9537   -1.3058   -0.8798 H   0  0  0  0  0  0  0  0  0  0  0  0
    2.0907   -2.0600    0.5224 H   0  0  0  0  0  0  0  0  0  0  0  0
    0.3354    0.2003   -1.8017 H   0  0  0  0  0  0  0  0  0  0  0  0
   -0.5400    1.7527    1.5449 H   0  0  0  0  0  0  0  0  0  0  0  0
   -1.6996    3.8856    1.7108 H   0  0  0  0  0  0  0  0  0  0  0  0
   -2.5140    4.9910   -0.3669 H   0  0  0  0  0  0  0  0  0  0  0  0
   -2.1351    3.9207   -2.5468 H   0  0  0  0  0  0  0  0  0  0  0  0
   -0.9820    1.8178   -2.6515 H   0  0  0  0  0  0  0  0  0  0  0  0
   -0.2691   -0.8185    1.6636 H   0  0  0  0  0  0  0  0  0  0  0  0
   -1.6348   -2.6820    2.3168 H   0  0  0  0  0  0  0  0  0  0  0  0
   -2.9903   -3.8892    0.6909 H   0  0  0  0  0  0  0  0  0  0  0  0
   -2.9449   -3.1598   -1.6941 H   0  0  0  0  0  0  0  0  0  0  0  0
   -1.5140   -1.2071   -2.3791 H   0  0  0  0  0  0  0  0  0  0  0  0
  1  2  1  0
  2  3  2  0
  2  4  1  0
  4  5  1  0
  5  6  2  0
  5  7  1  0
  7  8  1  0
  8  9  2  0
  9 10  1  0
 10 11  2  0
 11 12  1  0
 12 13  2  0
  7 14  1  0
 14 15  2  0
 15 16  1  0
 16 17  2  0
 17 18  1  0
 18 19  2  0
 13  8  1  0
 19 14  1  0
  1 20  1  0
  1 21  1  0
  4 22  1  0
  4 23  1  0
  7 24  1  0
  9 25  1  0
 10 26  1  0
 11 27  1  0
 12 28  1  0
 13 29  1  0
 15 30  1  0
 16 31  1  0
 17 32  1  0
 18 33  1  0
 19 34  1  0
M  END
$$$$
