
     RDKit          3D

 23 24  0  0  0  0  0  0  0  0999 V2000
    2.7358    0.2779    0.8596 N   0  0  0  0  0  0  0  0  0  0  0  0
    2.0600    0.5089   -0.4133 C   0  0  1  0  0  0  0  0  0  0  0  0
    1.2633   -0.6932   -0.7636 C   0  0  0  0  0  0  0  0  0  0  0  0
   -0.1428   -0.6792   -0.2958 C   0  0  0  0  0  0  0  0  0  0  0  0
   -0.8427   -1.8922   -0.2709 C   0  0  0  0  0  0  0  0  0  0  0  0
   -2.1528   -1.9476    0.1504 C   0  0  0  0  0  0  0  0  0  0  0  0
   -2.8219   -0.8139    0.5622 C   0  0  0  0  0  0  0  0  0  0  0  0
   -2.1365    0.3805    0.5390 C   0  0  0  0  0  0  0  0  0  0  0  0
   -0.8070    0.4530    0.1143 C   0  0  0  0  0  0  0  0  0  0  0  0
   -0.0972    1.6827    0.0928 N   0  0  0  0  0  0  0  0  0  0  0  0
   -0.7131    2.8198    0.4876 O   0  0  0  0  0  0  0  0  0  0  0  0
    1.2658    1.7523   -0.3395 C   0  0  0  0  0  0  0  0  0  0  0  0
    1.8094    2.8401   -0.6588 O   0  0  0  0  0  0  0  0  0  0  0  0
    3.5793   -0.3315    0.6741 H   0  0  0  0  0  0  0  0  0  0  0  0
    2.0500   -0.2355    1.4703 H   0  0  0  0  0  0  0  0  0  0  0  0
    2.8477    0.6638   -1.1784 H   0  0  0  0  0  0  0  0  0  0  0  0
    1.7376   -1.6049   -0.2961 H   0  0  0  0  0  0  0  0  0  0  0  0
    1.2417   -0.9203   -1.8616 H   0  0  0  0  0  0  0  0  0  0  0  0
   -0.3366   -2.8128   -0.5930 H   0  0  0  0  0  0  0  0  0  0  0  0
   -2.6624   -2.9245    0.1527 H   0  0  0  0  0  0  0  0  0  0  0  0
   -3.8486   -0.9150    0.8826 H   0  0  0  0  0  0  0  0  0  0  0  0
   -2.6159    1.2947    0.8513 H   0  0  0  0  0  0  0  0  0  0  0  0
   -1.4131    3.0969   -0.1657 H   0  0  0  0  0  0  0  0  0  0  0  0
  1  2  1  0
  2  3  1  0
  3  4  1  0
  4  5  2  0
  5  6  1  0
  6  7  2  0
  7  8  1  0
  8  9  2  0
  9 10  1  0
 10 11  1  0
 10 12  1  0
 12 13  2  0
 12  2  1  0
  9  4  1  0
  1 14  1  0
  1 15  1  0
  2 16  1  6
  3 17  1  0
  3 18  1  0
  5 19  1  0
  6 20  1  0
  7 21  1  0
  8 22  1  0
 11 23  1  0
M  END
$$$$
