
     RDKit          3D

 53 57  0  0  0  0  0  0  0  0999 V2000
   -3.8020   -0.9450    1.7698 C   0  0  0  0  0  0  0  0  0  0  0  0
   -3.2970   -0.4061    0.4221 C   0  0  1  0  0  0  0  0  0  0  0  0
   -2.0233   -0.0506    0.4072 O   0  0  0  0  0  0  0  0  0  0  0  0
   -1.0704    0.8450    0.2412 C   0  0  0  0  0  0  0  0  0  0  0  0
    0.2373    0.4501    0.4130 N   0  0  0  0  0  0  0  0  0  0  0  0
    1.2849    1.2457    0.2769 C   0  0  0  0  0  0  0  0  0  0  0  0
    2.6651    0.7696    0.4729 C   0  0  0  0  0  0  0  0  0  0  0  0
    3.8288    1.4901    0.3619 C   0  0  0  0  0  0  0  0  0  0  0  0
    4.8508    0.6301    0.6320 N   0  0  0  0  0  0  0  0  0  0  0  0
    4.3444   -0.5631    0.8970 N   0  0  0  0  0  0  0  0  0  0  0  0
    5.0391   -1.7870    1.2382 C   0  0  2  0  0  0  0  0  0  0  0  0
    6.5217   -1.5487    1.4424 C   0  0  0  0  0  0  0  0  0  0  0  0
    7.0761   -2.9109    1.0961 C   0  0  0  0  0  0  0  0  0  0  0  0
    6.2332   -3.4997    0.1967 O   0  0  0  0  0  0  0  0  0  0  0  0
    5.0929   -2.7536    0.0725 C   0  0  0  0  0  0  0  0  0  0  0  0
    2.9948   -0.5121    0.8074 C   0  0  0  0  0  0  0  0  0  0  0  0
    1.0449    2.5578   -0.0598 C   0  0  0  0  0  0  0  0  0  0  0  0
   -0.2378    3.0205   -0.2469 C   0  0  0  0  0  0  0  0  0  0  0  0
   -0.7520    4.2273   -0.5733 N   0  0  0  0  0  0  0  0  0  0  0  0
   -2.0591    4.1817   -0.6366 N   0  0  0  0  0  0  0  0  0  0  0  0
   -2.9664    5.2676   -0.9557 C   0  0  0  0  0  0  0  0  0  0  0  0
   -2.4458    2.9093   -0.3455 C   0  0  0  0  0  0  0  0  0  0  0  0
   -1.2927    2.1618   -0.0957 C   0  0  0  0  0  0  0  0  0  0  0  0
   -3.6668   -1.5138   -0.5792 C   0  0  1  0  0  0  0  0  0  0  0  0
   -5.1645   -1.6857   -0.5388 C   0  0  0  0  0  0  0  0  0  0  0  0
   -5.5615   -2.0144   -1.8953 N   0  0  0  0  0  0  0  0  0  0  0  0
   -4.5697   -1.5370   -2.7959 C   0  0  0  0  0  0  0  0  0  0  0  0
   -4.5982   -1.4553   -4.0492 O   0  0  0  0  0  0  0  0  0  0  0  0
   -3.3802   -1.1052   -1.9879 C   0  0  0  0  0  0  0  0  0  0  0  0
   -3.3564   -1.9546    1.8817 H   0  0  0  0  0  0  0  0  0  0  0  0
   -3.4545   -0.3329    2.6079 H   0  0  0  0  0  0  0  0  0  0  0  0
   -4.8910   -1.0622    1.7127 H   0  0  0  0  0  0  0  0  0  0  0  0
   -4.0134    0.4090    0.1816 H   0  0  0  0  0  0  0  0  0  0  0  0
    3.8994    2.5450    0.1062 H   0  0  0  0  0  0  0  0  0  0  0  0
    4.6340   -2.2627    2.1489 H   0  0  0  0  0  0  0  0  0  0  0  0
    6.8574   -0.8400    0.6437 H   0  0  0  0  0  0  0  0  0  0  0  0
    6.7704   -1.2127    2.4507 H   0  0  0  0  0  0  0  0  0  0  0  0
    7.0278   -3.5096    2.0528 H   0  0  0  0  0  0  0  0  0  0  0  0
    8.1266   -2.8833    0.8016 H   0  0  0  0  0  0  0  0  0  0  0  0
    4.1669   -3.3541   -0.0206 H   0  0  0  0  0  0  0  0  0  0  0  0
    5.1970   -2.1053   -0.8468 H   0  0  0  0  0  0  0  0  0  0  0  0
    2.2901   -1.3226    0.9667 H   0  0  0  0  0  0  0  0  0  0  0  0
    1.8713    3.2434   -0.1814 H   0  0  0  0  0  0  0  0  0  0  0  0
   -2.5149    6.2498   -0.6742 H   0  0  0  0  0  0  0  0  0  0  0  0
   -3.1525    5.3205   -2.0593 H   0  0  0  0  0  0  0  0  0  0  0  0
   -3.9174    5.1280   -0.4176 H   0  0  0  0  0  0  0  0  0  0  0  0
   -3.4523    2.5389   -0.3117 H   0  0  0  0  0  0  0  0  0  0  0  0
   -3.1864   -2.4368   -0.2542 H   0  0  0  0  0  0  0  0  0  0  0  0
   -5.6868   -0.7664   -0.1993 H   0  0  0  0  0  0  0  0  0  0  0  0
   -5.4258   -2.5530    0.1040 H   0  0  0  0  0  0  0  0  0  0  0  0
   -6.4139   -2.5131   -2.2243 H   0  0  0  0  0  0  0  0  0  0  0  0
   -2.5371   -1.7577   -2.3569 H   0  0  0  0  0  0  0  0  0  0  0  0
   -3.1653   -0.0365   -2.0998 H   0  0  0  0  0  0  0  0  0  0  0  0
  1  2  1  0
  2  3  1  0
  3  4  1  0
  4  5  2  0
  5  6  1  0
  6  7  1  0
  7  8  1  0
  8  9  2  0
  9 10  1  0
 10 11  1  0
 11 12  1  0
 12 13  1  0
 13 14  1  0
 14 15  1  0
 10 16  1  0
  6 17  2  0
 17 18  1  0
 18 19  2  0
 19 20  1  0
 20 21  1  0
 20 22  1  0
 22 23  2  0
  2 24  1  0
 24 25  1  0
 25 26  1  0
 26 27  1  0
 27 28  2  0
 27 29  1  0
 23  4  1  0
 29 24  1  0
 16  7  2  0
 23 18  1  0
 15 11  1  0
  1 30  1  0
  1 31  1  0
  1 32  1  0
  2 33  1  6
  8 34  1  0
 11 35  1  1
 12 36  1  0
 12 37  1  0
 13 38  1  0
 13 39  1  0
 15 40  1  0
 15 41  1  0
 16 42  1  0
 17 43  1  0
 21 44  1  0
 21 45  1  0
 21 46  1  0
 22 47  1  0
 24 48  1  1
 25 49  1  0
 25 50  1  0
 26 51  1  0
 29 52  1  0
 29 53  1  0
M  END
$$$$
