
     RDKit          3D

 63 67  0  0  0  0  0  0  0  0999 V2000
   -6.9680    4.7536    1.1187 C   0  0  0  0  0  0  0  0  0  0  0  0
   -6.2717    3.5265    0.8209 N   0  0  0  0  0  0  0  0  0  0  0  0
   -4.9642    3.3889    0.6061 C   0  0  0  0  0  0  0  0  0  0  0  0
   -4.6366    2.0493    0.3496 C   0  0  0  0  0  0  0  0  0  0  0  0
   -3.2795    1.6220    0.0787 C   0  0  0  0  0  0  0  0  0  0  0  0
   -2.1893    2.5130    0.0339 C   0  0  0  0  0  0  0  0  0  0  0  0
   -1.0384    1.8320   -0.2214 C   0  0  0  0  0  0  0  0  0  0  0  0
    0.2932    2.2605   -0.3412 C   0  0  0  0  0  0  0  0  0  0  0  0
    1.2295    1.3589   -0.5733 N   0  0  0  0  0  0  0  0  0  0  0  0
    0.9560    0.0653   -0.6973 C   0  0  0  0  0  0  0  0  0  0  0  0
    1.9593   -0.8966   -0.9002 N   0  0  0  0  0  0  0  0  0  0  0  0
    3.3466   -0.7390   -0.9286 C   0  0  0  0  0  0  0  0  0  0  0  0
    4.1215   -1.4177    0.0185 C   0  0  0  0  0  0  0  0  0  0  0  0
    5.4907   -1.3518    0.0415 C   0  0  0  0  0  0  0  0  0  0  0  0
    6.1684   -0.5779   -0.9161 C   0  0  0  0  0  0  0  0  0  0  0  0
    7.6463   -0.5563   -0.8831 C   0  0  0  0  0  0  0  0  0  0  0  0
    8.2272   -0.8572   -1.9699 O   0  0  0  0  0  0  0  0  0  0  0  0
    8.3904   -0.2325    0.2618 N   0  0  0  0  0  0  0  0  0  0  0  0
    8.0887    0.1685    1.6397 C   0  0  0  0  0  0  0  0  0  0  0  0
    9.5419    0.3094    1.9819 C   0  0  0  0  0  0  0  0  0  0  0  0
    9.7854   -0.1759    0.5768 C   0  0  0  0  0  0  0  0  0  0  0  0
    5.4245    0.0871   -1.8392 C   0  0  0  0  0  0  0  0  0  0  0  0
    4.0397   -0.0012   -1.8336 C   0  0  0  0  0  0  0  0  0  0  0  0
    3.1643    0.8796   -3.0523 Cl  0  0  0  0  0  0  0  0  0  0  0  0
   -0.3635   -0.3679   -0.5809 C   0  0  0  0  0  0  0  0  0  0  0  0
   -1.3868    0.5187   -0.3390 C   0  0  0  0  0  0  0  0  0  0  0  0
   -2.7450    0.4185   -0.1536 N   0  0  0  0  0  0  0  0  0  0  0  0
   -3.3726   -0.8480   -0.2365 C   0  0  0  0  0  0  0  0  0  0  0  0
   -2.6490   -1.8719   -0.5573 O   0  0  0  0  0  0  0  0  0  0  0  0
   -4.6616   -1.2002   -0.0251 O   0  0  0  0  0  0  0  0  0  0  0  0
   -5.1494   -2.5242   -0.1451 C   0  0  0  0  0  0  0  0  0  0  0  0
   -6.6077   -2.5954    0.1811 C   0  0  0  0  0  0  0  0  0  0  0  0
   -4.3586   -3.4215    0.7693 C   0  0  0  0  0  0  0  0  0  0  0  0
   -4.9998   -2.9766   -1.5900 C   0  0  0  0  0  0  0  0  0  0  0  0
   -5.8363    1.4260    0.4311 C   0  0  0  0  0  0  0  0  0  0  0  0
   -6.8280    2.3500    0.7206 N   0  0  0  0  0  0  0  0  0  0  0  0
   -7.0181    4.9660    2.2061 H   0  0  0  0  0  0  0  0  0  0  0  0
   -7.9564    4.7944    0.6187 H   0  0  0  0  0  0  0  0  0  0  0  0
   -6.3618    5.5892    0.6621 H   0  0  0  0  0  0  0  0  0  0  0  0
   -4.2545    4.2019    0.6291 H   0  0  0  0  0  0  0  0  0  0  0  0
   -2.2723    3.5724    0.1815 H   0  0  0  0  0  0  0  0  0  0  0  0
    0.4529    3.3385   -0.2313 H   0  0  0  0  0  0  0  0  0  0  0  0
    1.6201   -1.9122   -1.0638 H   0  0  0  0  0  0  0  0  0  0  0  0
    3.5975   -2.0236    0.7698 H   0  0  0  0  0  0  0  0  0  0  0  0
    6.1167   -1.8620    0.7568 H   0  0  0  0  0  0  0  0  0  0  0  0
    7.5688    1.1567    1.5835 H   0  0  0  0  0  0  0  0  0  0  0  0
    7.5991   -0.5914    2.2451 H   0  0  0  0  0  0  0  0  0  0  0  0
    9.8920   -0.3763    2.7812 H   0  0  0  0  0  0  0  0  0  0  0  0
    9.8545    1.3520    2.1843 H   0  0  0  0  0  0  0  0  0  0  0  0
   10.3441    0.5585   -0.0177 H   0  0  0  0  0  0  0  0  0  0  0  0
   10.2550   -1.1924    0.5854 H   0  0  0  0  0  0  0  0  0  0  0  0
    5.9136    0.6996   -2.5978 H   0  0  0  0  0  0  0  0  0  0  0  0
   -0.5880   -1.4325   -0.6829 H   0  0  0  0  0  0  0  0  0  0  0  0
   -6.8996   -1.8833    0.9999 H   0  0  0  0  0  0  0  0  0  0  0  0
   -7.2542   -2.3880   -0.6964 H   0  0  0  0  0  0  0  0  0  0  0  0
   -6.8891   -3.6281    0.5343 H   0  0  0  0  0  0  0  0  0  0  0  0
   -4.9625   -4.2266    1.2311 H   0  0  0  0  0  0  0  0  0  0  0  0
   -3.8531   -2.8383    1.5643 H   0  0  0  0  0  0  0  0  0  0  0  0
   -3.5155   -3.9213    0.2058 H   0  0  0  0  0  0  0  0  0  0  0  0
   -4.1537   -3.6769   -1.6451 H   0  0  0  0  0  0  0  0  0  0  0  0
   -4.8122   -2.0969   -2.2233 H   0  0  0  0  0  0  0  0  0  0  0  0
   -5.9088   -3.5185   -1.9375 H   0  0  0  0  0  0  0  0  0  0  0  0
   -6.0819    0.4231    0.3039 H   0  0  0  0  0  0  0  0  0  0  0  0
  1  2  1  0
  2  3  1  0
  3  4  2  0
  4  5  1  0
  5  6  2  0
  6  7  1  0
  7  8  2  0
  8  9  1  0
  9 10  2  0
 10 11  1  0
 11 12  1  0
 12 13  2  0
 13 14  1  0
 14 15  2  0
 15 16  1  0
 16 17  2  0
 16 18  1  0
 18 19  1  0
 19 20  1  0
 20 21  1  0
 15 22  1  0
 22 23  2  0
 23 24  1  0
 10 25  1  0
 25 26  2  0
 26 27  1  0
 27 28  1  0
 28 29  2  0
 28 30  1  0
 30 31  1  0
 31 32  1  0
 31 33  1  0
 31 34  1  0
  4 35  1  0
 35 36  2  0
 36  2  1  0
 27  5  1  0
 26  7  1  0
 23 12  1  0
 21 18  1  0
  1 37  1  0
  1 38  1  0
  1 39  1  0
  3 40  1  0
  6 41  1  0
  8 42  1  0
 11 43  1  0
 13 44  1  0
 14 45  1  0
 19 46  1  0
 19 47  1  0
 20 48  1  0
 20 49  1  0
 21 50  1  0
 21 51  1  0
 22 52  1  0
 25 53  1  0
 32 54  1  0
 32 55  1  0
 32 56  1  0
 33 57  1  0
 33 58  1  0
 33 59  1  0
 34 60  1  0
 34 61  1  0
 34 62  1  0
 35 63  1  0
M  END
$$$$
