
     RDKit          3D

 51 53  0  0  0  0  0  0  0  0999 V2000
   -5.6116   -0.3865   -0.5395 C   0  0  0  0  0  0  0  0  0  0  0  0
   -4.5473    0.6987   -0.5304 C   0  0  0  0  0  0  0  0  0  0  0  0
   -5.2368    2.0426   -0.8793 C   0  0  0  0  0  0  0  0  0  0  0  0
   -3.8722    0.8077    0.7576 C   0  0  0  0  0  0  0  0  0  0  0  0
   -4.4144    1.7030    1.7470 N   0  0  0  0  0  0  0  0  0  0  0  0
   -2.8379    0.1559    1.0450 N   0  0  0  0  0  0  0  0  0  0  0  0
   -2.1539   -0.7799    0.1935 C   0  0  2  0  0  0  0  0  0  0  0  0
   -2.9218   -2.0787    0.0908 C   0  0  0  0  0  0  0  0  0  0  0  0
   -0.8878   -1.0981    0.9122 C   0  0  0  0  0  0  0  0  0  0  0  0
    0.3665   -0.8791    0.4265 C   0  0  0  0  0  0  0  0  0  0  0  0
    1.5191   -1.1896    1.1256 C   0  0  0  0  0  0  0  0  0  0  0  0
    2.8123   -0.9449    0.5826 N   0  0  0  0  0  0  0  0  0  0  0  0
    3.4912    0.2790    0.7860 C   0  0  0  0  0  0  0  0  0  0  0  0
    2.8969    1.1492    1.4738 O   0  0  0  0  0  0  0  0  0  0  0  0
    4.8304    0.5354    0.2249 C   0  0  0  0  0  0  0  0  0  0  0  0
    5.4853    1.7280    0.4265 C   0  0  0  0  0  0  0  0  0  0  0  0
    6.7129    1.9697   -0.0848 N   0  0  0  0  0  0  0  0  0  0  0  0
    7.3380    1.0369   -0.8160 C   0  0  0  0  0  0  0  0  0  0  0  0
    8.6965    1.3207   -1.3746 C   0  0  0  0  0  0  0  0  0  0  0  0
    8.6097    1.6799   -2.7089 F   0  0  0  0  0  0  0  0  0  0  0  0
    9.4689    0.1774   -1.3141 F   0  0  0  0  0  0  0  0  0  0  0  0
    9.3230    2.3233   -0.6829 F   0  0  0  0  0  0  0  0  0  0  0  0
    6.6986   -0.1626   -1.0285 C   0  0  0  0  0  0  0  0  0  0  0  0
    5.4606   -0.3958   -0.5081 N   0  0  0  0  0  0  0  0  0  0  0  0
    1.3618   -1.7487    2.3768 C   0  0  0  0  0  0  0  0  0  0  0  0
    0.1185   -1.9927    2.9183 C   0  0  0  0  0  0  0  0  0  0  0  0
   -1.0145   -1.6584    2.1659 C   0  0  0  0  0  0  0  0  0  0  0  0
   -2.2368   -1.8988    2.6997 F   0  0  0  0  0  0  0  0  0  0  0  0
   -1.8886   -0.2175   -1.1792 C   0  0  0  0  0  0  0  0  0  0  0  0
   -3.4079    0.4025   -1.8378 S   0  0  0  0  0  6  0  0  0  0  0  0
   -3.1043    1.6922   -2.5555 O   0  0  0  0  0  0  0  0  0  0  0  0
   -4.0280   -0.5896   -2.7904 O   0  0  0  0  0  0  0  0  0  0  0  0
   -5.7347   -0.8759    0.4450 H   0  0  0  0  0  0  0  0  0  0  0  0
   -6.5877    0.0947   -0.7548 H   0  0  0  0  0  0  0  0  0  0  0  0
   -5.4627   -1.1266   -1.3432 H   0  0  0  0  0  0  0  0  0  0  0  0
   -5.9839    2.2998   -0.1208 H   0  0  0  0  0  0  0  0  0  0  0  0
   -4.4220    2.7663   -0.9852 H   0  0  0  0  0  0  0  0  0  0  0  0
   -5.7467    1.8564   -1.8464 H   0  0  0  0  0  0  0  0  0  0  0  0
   -4.5939    2.6851    1.5081 H   0  0  0  0  0  0  0  0  0  0  0  0
   -4.6265    1.3610    2.7059 H   0  0  0  0  0  0  0  0  0  0  0  0
   -2.2716   -2.9658    0.3388 H   0  0  0  0  0  0  0  0  0  0  0  0
   -3.3690   -2.1820   -0.9133 H   0  0  0  0  0  0  0  0  0  0  0  0
   -3.7493   -2.1384    0.8259 H   0  0  0  0  0  0  0  0  0  0  0  0
    0.4796   -0.4500   -0.5351 H   0  0  0  0  0  0  0  0  0  0  0  0
    3.2882   -1.6810    0.0143 H   0  0  0  0  0  0  0  0  0  0  0  0
    4.9915    2.4849    1.0130 H   0  0  0  0  0  0  0  0  0  0  0  0
    7.2164   -0.9043   -1.6204 H   0  0  0  0  0  0  0  0  0  0  0  0
    2.2713   -1.9938    2.9287 H   0  0  0  0  0  0  0  0  0  0  0  0
   -0.0057   -2.4344    3.9066 H   0  0  0  0  0  0  0  0  0  0  0  0
   -1.1465    0.5825   -1.1851 H   0  0  0  0  0  0  0  0  0  0  0  0
   -1.5730   -1.0592   -1.8445 H   0  0  0  0  0  0  0  0  0  0  0  0
  1  2  1  0
  2  3  1  0
  2  4  1  0
  4  5  1  0
  4  6  2  0
  6  7  1  0
  7  8  1  6
  7  9  1  0
  9 10  2  0
 10 11  1  0
 11 12  1  0
 12 13  1  0
 13 14  2  0
 13 15  1  0
 15 16  2  0
 16 17  1  0
 17 18  2  0
 18 19  1  0
 19 20  1  0
 19 21  1  0
 19 22  1  0
 18 23  1  0
 23 24  2  0
 11 25  2  0
 25 26  1  0
 26 27  2  0
 27 28  1  0
  7 29  1  0
 29 30  1  0
 30 31  2  0
 30 32  2  0
 30  2  1  0
 27  9  1  0
 24 15  1  0
  1 33  1  0
  1 34  1  0
  1 35  1  0
  3 36  1  0
  3 37  1  0
  3 38  1  0
  5 39  1  0
  5 40  1  0
  8 41  1  0
  8 42  1  0
  8 43  1  0
 10 44  1  0
 12 45  1  0
 16 46  1  0
 23 47  1  0
 25 48  1  0
 26 49  1  0
 29 50  1  0
 29 51  1  0
M  END
$$$$
