
     RDKit          3D

 41 43  0  0  0  0  0  0  0  0999 V2000
    5.7062    0.0630   -0.2597 C   0  0  0  0  0  0  0  0  0  0  0  0
    4.3161    0.6761   -0.5242 C   0  0  0  0  0  0  0  0  0  0  0  0
    3.5448   -0.2763   -1.1041 O   0  0  0  0  0  0  0  0  0  0  0  0
    2.2956   -0.0298   -1.5086 C   0  0  0  0  0  0  0  0  0  0  0  0
    1.2591    0.4232   -0.5348 C   0  0  2  0  0  0  0  0  0  0  0  0
    1.4076    1.7991   -0.0405 C   0  0  0  0  0  0  0  0  0  0  0  0
    1.3497    1.7083    1.4643 C   0  0  0  0  0  0  0  0  0  0  0  0
    0.6973    0.3642    1.6950 C   0  0  0  0  0  0  0  0  0  0  0  0
    1.0952   -0.4833    0.5847 N   0  0  0  0  0  0  0  0  0  0  0  0
   -0.0930   -1.6814    0.3571 S   0  0  0  0  0  6  0  0  0  0  0  0
   -0.2066   -2.4569    1.6424 O   0  0  0  0  0  0  0  0  0  0  0  0
    0.2817   -2.6599   -0.7188 O   0  0  0  0  0  0  0  0  0  0  0  0
   -1.6342   -1.0072   -0.0407 C   0  0  0  0  0  0  0  0  0  0  0  0
   -1.9955   -0.7881   -1.3578 C   0  0  0  0  0  0  0  0  0  0  0  0
   -3.2375   -0.2464   -1.6629 C   0  0  0  0  0  0  0  0  0  0  0  0
   -4.1535    0.0931   -0.6914 C   0  0  0  0  0  0  0  0  0  0  0  0
   -3.7945   -0.1247    0.6133 C   0  0  0  0  0  0  0  0  0  0  0  0
   -2.5726   -0.6586    0.9316 C   0  0  0  0  0  0  0  0  0  0  0  0
   -4.9198    0.3103    1.4494 C   0  0  0  0  0  0  0  0  0  0  0  0
   -4.9460    0.2581    2.7099 O   0  0  0  0  0  0  0  0  0  0  0  0
   -5.9538    0.7940    0.5470 C   0  0  0  0  0  0  0  0  0  0  0  0
   -7.0867    1.2571    0.8878 O   0  0  0  0  0  0  0  0  0  0  0  0
   -5.4541    0.6486   -0.7736 N   0  0  0  0  0  0  0  0  0  0  0  0
    5.5584   -0.8854    0.3046 H   0  0  0  0  0  0  0  0  0  0  0  0
    6.2626    0.7576    0.3860 H   0  0  0  0  0  0  0  0  0  0  0  0
    6.2464   -0.0680   -1.2009 H   0  0  0  0  0  0  0  0  0  0  0  0
    3.9555    0.9714    0.5049 H   0  0  0  0  0  0  0  0  0  0  0  0
    4.4766    1.5984   -1.0852 H   0  0  0  0  0  0  0  0  0  0  0  0
    2.2694    0.6846   -2.3919 H   0  0  0  0  0  0  0  0  0  0  0  0
    1.8602   -0.9963   -1.9560 H   0  0  0  0  0  0  0  0  0  0  0  0
    0.2678    0.3876   -1.1267 H   0  0  0  0  0  0  0  0  0  0  0  0
    2.3204    2.3028   -0.3923 H   0  0  0  0  0  0  0  0  0  0  0  0
    0.5006    2.4168   -0.3469 H   0  0  0  0  0  0  0  0  0  0  0  0
    0.6843    2.5180    1.8732 H   0  0  0  0  0  0  0  0  0  0  0  0
    2.3050    1.8133    1.9717 H   0  0  0  0  0  0  0  0  0  0  0  0
   -0.3935    0.5471    1.6460 H   0  0  0  0  0  0  0  0  0  0  0  0
    0.9251   -0.0774    2.6708 H   0  0  0  0  0  0  0  0  0  0  0  0
   -1.3284   -1.0340   -2.1701 H   0  0  0  0  0  0  0  0  0  0  0  0
   -3.5181   -0.0758   -2.6921 H   0  0  0  0  0  0  0  0  0  0  0  0
   -2.3097   -0.8262    1.9723 H   0  0  0  0  0  0  0  0  0  0  0  0
   -5.9880    0.9180   -1.6327 H   0  0  0  0  0  0  0  0  0  0  0  0
  1  2  1  0
  2  3  1  0
  3  4  1  0
  4  5  1  0
  5  6  1  0
  6  7  1  0
  7  8  1  0
  8  9  1  0
  9 10  1  0
 10 11  2  0
 10 12  2  0
 10 13  1  0
 13 14  2  0
 14 15  1  0
 15 16  2  0
 16 17  1  0
 17 18  2  0
 17 19  1  0
 19 20  2  0
 19 21  1  0
 21 22  2  0
 21 23  1  0
  9  5  1  0
 18 13  1  0
 23 16  1  0
  1 24  1  0
  1 25  1  0
  1 26  1  0
  2 27  1  0
  2 28  1  0
  4 29  1  0
  4 30  1  0
  5 31  1  6
  6 32  1  0
  6 33  1  0
  7 34  1  0
  7 35  1  0
  8 36  1  0
  8 37  1  0
 14 38  1  0
 15 39  1  0
 18 40  1  0
 23 41  1  0
M  END
$$$$
