
     RDKit          3D

 60 64  0  0  0  0  0  0  0  0999 V2000
    9.7224   -0.7054    2.4830 C   0  0  0  0  0  0  0  0  0  0  0  0
   10.0159   -0.7480    1.3901 C   0  0  0  0  0  0  0  0  0  0  0  0
   10.4374   -0.8079   -0.1466 C   0  0  0  0  0  0  0  0  0  0  0  0
    9.3450   -0.4420   -0.7561 O   0  0  0  0  0  0  0  0  0  0  0  0
    8.2593   -0.0779   -1.3651 C   0  0  0  0  0  0  0  0  0  0  0  0
    7.2462    0.0822   -0.3282 C   0  0  0  0  0  0  0  0  0  0  0  0
    6.0097    0.4073   -0.5187 N   0  0  0  0  0  0  0  0  0  0  0  0
    5.6118    0.6343   -1.8568 C   0  0  0  0  0  0  0  0  0  0  0  0
    4.0917    0.6489   -1.9315 C   0  0  0  0  0  0  0  0  0  0  0  0
    3.3772    1.3938   -2.6676 F   0  0  0  0  0  0  0  0  0  0  0  0
    3.4672   -0.1742   -1.0318 C   0  0  0  0  0  0  0  0  0  0  0  0
    2.1819   -0.5354   -0.6870 C   0  0  0  0  0  0  0  0  0  0  0  0
    1.9725   -1.9782   -0.5339 C   0  0  0  0  0  0  0  0  0  0  0  0
    0.8589   -2.5005   -0.2754 N   0  0  0  0  0  0  0  0  0  0  0  0
   -0.2813   -1.7304   -0.1301 C   0  0  0  0  0  0  0  0  0  0  0  0
   -1.4060   -2.3509    0.1385 F   0  0  0  0  0  0  0  0  0  0  0  0
   -0.1890   -0.3814   -0.2543 C   0  0  0  0  0  0  0  0  0  0  0  0
   -1.4580    0.4323   -0.2715 C   0  0  1  0  0  0  0  0  0  0  0  0
   -1.1344    1.9046   -0.3507 C   0  0  0  0  0  0  0  0  0  0  0  0
   -2.0992   -0.0336   -1.5456 N   0  0  0  0  0  0  0  0  0  0  0  0
   -3.1500    0.4797   -1.9427 C   0  0  0  0  0  0  0  0  0  0  0  0
   -3.8914    0.2118   -3.0783 N   0  0  0  0  0  0  0  0  0  0  0  0
   -3.9164    1.6209   -0.7191 S   0  0  0  0  0  0  0  0  0  0  0  0
   -3.6965    0.6683    0.8315 C   0  0  1  0  0  0  0  0  0  0  0  0
   -4.5951    1.0252    1.9208 C   0  0  0  0  0  0  0  0  0  0  0  0
   -4.2619    1.8463    2.7896 O   0  0  0  0  0  0  0  0  0  0  0  0
   -5.8689    0.3462    1.9201 N   0  0  0  0  0  0  0  0  0  0  0  0
   -6.8881    0.6103    2.9073 C   0  0  0  0  0  0  0  0  0  0  0  0
   -8.1157    0.6921    2.0663 C   0  0  0  0  0  0  0  0  0  0  0  0
   -7.7669    0.1092    0.7420 C   0  0  2  0  0  0  0  0  0  0  0  0
   -8.7674   -0.7475    0.2946 F   0  0  0  0  0  0  0  0  0  0  0  0
   -6.4369   -0.6508    1.0595 C   0  0  0  0  0  0  0  0  0  0  0  0
   -3.4373   -0.8229    0.7047 C   0  0  0  0  0  0  0  0  0  0  0  0
   -2.3567    0.1175    0.9261 C   0  0  1  0  0  0  0  0  0  0  0  0
    1.0301    0.2099   -0.5283 C   0  0  0  0  0  0  0  0  0  0  0  0
    6.4834    0.5239   -2.8142 C   0  0  0  0  0  0  0  0  0  0  0  0
    7.8540    0.1604   -2.6189 N   0  0  0  0  0  0  0  0  0  0  0  0
    9.4452   -0.6632    3.5618 H   0  0  0  0  0  0  0  0  0  0  0  0
   11.4362   -0.5072   -0.3010 H   0  0  0  0  0  0  0  0  0  0  0  0
   10.5072   -1.9803   -0.2538 H   0  0  0  0  0  0  0  0  0  0  0  0
    7.6287   -0.1184    0.7133 H   0  0  0  0  0  0  0  0  0  0  0  0
    4.3049   -0.7874   -0.4502 H   0  0  0  0  0  0  0  0  0  0  0  0
    2.8856   -2.6239   -0.6285 H   0  0  0  0  0  0  0  0  0  0  0  0
   -0.8139    2.2567   -1.3279 H   0  0  0  0  0  0  0  0  0  0  0  0
   -1.8874    2.4986    0.2308 H   0  0  0  0  0  0  0  0  0  0  0  0
   -0.1946    2.0875    0.2916 H   0  0  0  0  0  0  0  0  0  0  0  0
   -3.5989    0.6135   -4.0619 H   0  0  0  0  0  0  0  0  0  0  0  0
   -4.7279   -0.4161   -3.0992 H   0  0  0  0  0  0  0  0  0  0  0  0
   -6.7381    1.5633    3.4905 H   0  0  0  0  0  0  0  0  0  0  0  0
   -6.9213   -0.2201    3.6436 H   0  0  0  0  0  0  0  0  0  0  0  0
   -8.4497    1.7796    1.9703 H   0  0  0  0  0  0  0  0  0  0  0  0
   -9.0383    0.2066    2.4840 H   0  0  0  0  0  0  0  0  0  0  0  0
   -7.6041    0.7967   -0.0807 H   0  0  0  0  0  0  0  0  0  0  0  0
   -5.8518   -0.7666    0.1107 H   0  0  0  0  0  0  0  0  0  0  0  0
   -6.6678   -1.6226    1.4780 H   0  0  0  0  0  0  0  0  0  0  0  0
   -3.8023   -1.5556    1.4631 H   0  0  0  0  0  0  0  0  0  0  0  0
   -3.6075   -1.1797   -0.3641 H   0  0  0  0  0  0  0  0  0  0  0  0
   -1.8356    0.2367    1.8493 H   0  0  0  0  0  0  0  0  0  0  0  0
    1.1134    1.2795   -0.6794 H   0  0  0  0  0  0  0  0  0  0  0  0
    6.1706    0.7104   -3.8618 H   0  0  0  0  0  0  0  0  0  0  0  0
  1  2  3  0
  2  3  1  0
  3  4  1  0
  4  5  1  0
  5  6  2  0
  6  7  1  0
  7  8  2  0
  8  9  1  0
  9 10  1  0
  9 11  2  0
 11 12  1  0
 12 13  2  0
 13 14  1  0
 14 15  2  0
 15 16  1  0
 15 17  1  0
 17 18  1  0
 18 19  1  6
 18 20  1  0
 20 21  2  0
 21 22  1  0
 21 23  1  0
 23 24  1  0
 24 25  1  1
 25 26  2  0
 25 27  1  0
 27 28  1  0
 28 29  1  0
 29 30  1  0
 30 31  1  0
 30 32  1  0
 24 33  1  0
 33 34  1  0
 17 35  2  0
  8 36  1  0
 36 37  2  0
 37  5  1  0
 35 12  1  0
 34 18  1  0
 34 24  1  0
 32 27  1  0
  1 38  1  0
  3 39  1  0
  3 40  1  0
  6 41  1  0
 11 42  1  0
 13 43  1  0
 19 44  1  0
 19 45  1  0
 19 46  1  0
 22 47  1  0
 22 48  1  0
 28 49  1  0
 28 50  1  0
 29 51  1  0
 29 52  1  0
 30 53  1  6
 32 54  1  0
 32 55  1  0
 33 56  1  0
 33 57  1  0
 34 58  1  1
 35 59  1  0
 36 60  1  0
M  END
$$$$
