
     RDKit          3D

 24 24  0  0  0  0  0  0  0  0999 V2000
    2.8312    0.2117    0.9046 O   0  0  0  0  0  0  0  0  0  0  0  0
    2.4190   -0.0900   -0.3806 C   0  0  0  0  0  0  0  0  0  0  0  0
    0.9308   -0.2523   -0.4852 C   0  0  1  0  0  0  0  0  0  0  0  0
    0.4153   -1.3018    0.3476 N   0  0  0  0  0  0  0  0  0  0  0  0
   -0.9375   -1.5551   -0.1134 C   0  0  0  0  0  0  0  0  0  0  0  0
   -1.7537   -0.3883    0.4125 C   0  0  2  0  0  0  0  0  0  0  0  0
   -3.0802   -0.6109   -0.0229 O   0  0  0  0  0  0  0  0  0  0  0  0
   -1.2267    0.9377    0.0322 C   0  0  1  0  0  0  0  0  0  0  0  0
   -1.5469    1.8465    1.0639 O   0  0  0  0  0  0  0  0  0  0  0  0
    0.2215    1.0364   -0.2304 C   0  0  1  0  0  0  0  0  0  0  0  0
    0.9118    1.7278    0.7720 O   0  0  0  0  0  0  0  0  0  0  0  0
    3.3708   -0.5446    1.2665 H   0  0  0  0  0  0  0  0  0  0  0  0
    2.6933    0.7282   -1.0940 H   0  0  0  0  0  0  0  0  0  0  0  0
    2.8860   -1.0467   -0.7299 H   0  0  0  0  0  0  0  0  0  0  0  0
    0.7089   -0.5533   -1.5447 H   0  0  0  0  0  0  0  0  0  0  0  0
    1.0126   -2.1197    0.4468 H   0  0  0  0  0  0  0  0  0  0  0  0
   -1.3712   -2.4885    0.2858 H   0  0  0  0  0  0  0  0  0  0  0  0
   -1.0225   -1.5116   -1.2202 H   0  0  0  0  0  0  0  0  0  0  0  0
   -1.7870   -0.5032    1.5205 H   0  0  0  0  0  0  0  0  0  0  0  0
   -3.0195   -0.7616   -1.0135 H   0  0  0  0  0  0  0  0  0  0  0  0
   -1.8560    1.3028   -0.8320 H   0  0  0  0  0  0  0  0  0  0  0  0
   -2.5014    1.7340    1.3572 H   0  0  0  0  0  0  0  0  0  0  0  0
    0.3504    1.6448   -1.1735 H   0  0  0  0  0  0  0  0  0  0  0  0
    1.3510    2.5576    0.4307 H   0  0  0  0  0  0  0  0  0  0  0  0
  1  2  1  0
  2  3  1  0
  3  4  1  0
  4  5  1  0
  5  6  1  0
  6  7  1  0
  6  8  1  0
  8  9  1  0
  8 10  1  0
 10 11  1  0
 10  3  1  0
  1 12  1  0
  2 13  1  0
  2 14  1  0
  3 15  1  6
  4 16  1  0
  5 17  1  0
  5 18  1  0
  6 19  1  1
  7 20  1  0
  8 21  1  6
  9 22  1  0
 10 23  1  6
 11 24  1  0
M  END
$$$$
