
     RDKit          3D

 58 62  0  0  0  0  0  0  0  0999 V2000
   -4.0223   -2.4607   -1.5979 C   0  0  0  0  0  0  0  0  0  0  0  0
   -3.4627   -1.7559   -0.3807 C   0  0  1  0  0  0  0  0  0  0  0  0
   -3.3902   -0.3696   -0.5506 O   0  0  0  0  0  0  0  0  0  0  0  0
   -2.2823    0.4257   -0.5230 C   0  0  0  0  0  0  0  0  0  0  0  0
   -0.9924    0.0135   -0.3165 C   0  0  0  0  0  0  0  0  0  0  0  0
    0.0969    0.8691   -0.2989 C   0  0  0  0  0  0  0  0  0  0  0  0
    1.4617    0.3990   -0.0754 C   0  0  0  0  0  0  0  0  0  0  0  0
    1.7590   -0.6864    0.7238 C   0  0  0  0  0  0  0  0  0  0  0  0
    3.0736   -1.0940    0.9048 C   0  0  0  0  0  0  0  0  0  0  0  0
    4.1264   -0.4457    0.3055 C   0  0  0  0  0  0  0  0  0  0  0  0
    5.4782   -0.8493    0.4793 N   0  0  0  0  0  0  0  0  0  0  0  0
    6.4653   -0.4644    1.4489 C   0  0  0  0  0  0  0  0  0  0  0  0
    7.7995   -0.4146    0.7488 C   0  0  0  0  0  0  0  0  0  0  0  0
    7.9777   -1.7353    0.0281 C   0  0  0  0  0  0  0  0  0  0  0  0
    6.2940   -2.0045   -0.5485 S   0  0  0  0  0  6  0  0  0  0  0  0
    5.8464   -3.3980   -0.2628 O   0  0  0  0  0  0  0  0  0  0  0  0
    6.1471   -1.6069   -1.9741 O   0  0  0  0  0  0  0  0  0  0  0  0
    3.8408    0.6433   -0.4978 C   0  0  0  0  0  0  0  0  0  0  0  0
    2.5301    1.0391   -0.6700 C   0  0  0  0  0  0  0  0  0  0  0  0
   -0.1672    2.2079   -0.5045 C   0  0  0  0  0  0  0  0  0  0  0  0
   -1.4442    2.6799   -0.7172 C   0  0  0  0  0  0  0  0  0  0  0  0
   -1.9581    3.9243   -0.9403 N   0  0  0  0  0  0  0  0  0  0  0  0
   -3.2700    3.8565   -1.0870 N   0  0  0  0  0  0  0  0  0  0  0  0
   -4.1908    4.9746   -1.3422 C   0  0  0  0  0  0  0  0  0  0  0  0
   -3.6202    2.5642   -0.9602 C   0  0  0  0  0  0  0  0  0  0  0  0
   -2.4881    1.7944   -0.7255 C   0  0  0  0  0  0  0  0  0  0  0  0
   -4.2592   -2.0896    0.8626 C   0  0  1  0  0  0  0  0  0  0  0  0
   -3.6009   -1.3235    2.0134 C   0  0  0  0  0  0  0  0  0  0  0  0
   -4.1378    0.0188    1.7656 N   0  0  0  0  0  0  0  0  0  0  0  0
   -5.4195   -0.0861    1.1587 C   0  0  0  0  0  0  0  0  0  0  0  0
   -6.2411    0.8333    0.9095 O   0  0  0  0  0  0  0  0  0  0  0  0
   -5.6424   -1.5257    0.8517 C   0  0  0  0  0  0  0  0  0  0  0  0
   -3.3015   -3.1855   -2.0265 H   0  0  0  0  0  0  0  0  0  0  0  0
   -4.9274   -3.0324   -1.3088 H   0  0  0  0  0  0  0  0  0  0  0  0
   -4.2805   -1.6790   -2.3605 H   0  0  0  0  0  0  0  0  0  0  0  0
   -2.4515   -2.1579   -0.2170 H   0  0  0  0  0  0  0  0  0  0  0  0
   -0.8023   -1.0416   -0.1567 H   0  0  0  0  0  0  0  0  0  0  0  0
    0.9234   -1.1898    1.1913 H   0  0  0  0  0  0  0  0  0  0  0  0
    3.2864   -1.9601    1.5449 H   0  0  0  0  0  0  0  0  0  0  0  0
    6.5009   -1.1243    2.3365 H   0  0  0  0  0  0  0  0  0  0  0  0
    6.2342    0.5634    1.7778 H   0  0  0  0  0  0  0  0  0  0  0  0
    7.8843    0.4460    0.0851 H   0  0  0  0  0  0  0  0  0  0  0  0
    8.5750   -0.3387    1.5418 H   0  0  0  0  0  0  0  0  0  0  0  0
    8.6639   -1.6132   -0.8311 H   0  0  0  0  0  0  0  0  0  0  0  0
    8.2911   -2.5298    0.7173 H   0  0  0  0  0  0  0  0  0  0  0  0
    4.6756    1.1435   -0.9621 H   0  0  0  0  0  0  0  0  0  0  0  0
    2.3568    1.9020   -1.3115 H   0  0  0  0  0  0  0  0  0  0  0  0
    0.6636    2.9046   -0.4968 H   0  0  0  0  0  0  0  0  0  0  0  0
   -5.1448    4.5936   -1.7632 H   0  0  0  0  0  0  0  0  0  0  0  0
   -4.3244    5.6132   -0.4682 H   0  0  0  0  0  0  0  0  0  0  0  0
   -3.7245    5.5661   -2.1821 H   0  0  0  0  0  0  0  0  0  0  0  0
   -4.6044    2.1479   -1.0227 H   0  0  0  0  0  0  0  0  0  0  0  0
   -4.3078   -3.1598    1.0646 H   0  0  0  0  0  0  0  0  0  0  0  0
   -2.5128   -1.3559    1.9644 H   0  0  0  0  0  0  0  0  0  0  0  0
   -3.9615   -1.6921    2.9990 H   0  0  0  0  0  0  0  0  0  0  0  0
   -3.6319    0.8925    2.0092 H   0  0  0  0  0  0  0  0  0  0  0  0
   -6.1971   -1.9629    1.6972 H   0  0  0  0  0  0  0  0  0  0  0  0
   -6.1903   -1.6831   -0.0926 H   0  0  0  0  0  0  0  0  0  0  0  0
  1  2  1  0
  2  3  1  0
  3  4  1  0
  4  5  2  0
  5  6  1  0
  6  7  1  0
  7  8  2  0
  8  9  1  0
  9 10  2  0
 10 11  1  0
 11 12  1  0
 12 13  1  0
 13 14  1  0
 14 15  1  0
 15 16  2  0
 15 17  2  0
 10 18  1  0
 18 19  2  0
  6 20  2  0
 20 21  1  0
 21 22  2  0
 22 23  1  0
 23 24  1  0
 23 25  1  0
 25 26  2  0
  2 27  1  0
 27 28  1  0
 28 29  1  0
 29 30  1  0
 30 31  2  0
 30 32  1  0
 26  4  1  0
 32 27  1  0
 19  7  1  0
 26 21  1  0
 15 11  1  0
  1 33  1  0
  1 34  1  0
  1 35  1  0
  2 36  1  1
  5 37  1  0
  8 38  1  0
  9 39  1  0
 12 40  1  0
 12 41  1  0
 13 42  1  0
 13 43  1  0
 14 44  1  0
 14 45  1  0
 18 46  1  0
 19 47  1  0
 20 48  1  0
 24 49  1  0
 24 50  1  0
 24 51  1  0
 25 52  1  0
 27 53  1  1
 28 54  1  0
 28 55  1  0
 29 56  1  0
 32 57  1  0
 32 58  1  0
M  END
$$$$
