
     RDKit          3D

 30 32  0  0  0  0  0  0  0  0999 V2000
   -1.9315    2.9968   -0.2705 O   0  0  0  0  0  0  0  0  0  0  0  0
   -1.4137    1.8479   -0.1968 C   0  0  0  0  0  0  0  0  0  0  0  0
   -0.0271    1.7087   -0.1869 C   0  0  0  0  0  0  0  0  0  0  0  0
    0.5275    0.4565   -0.1065 C   0  0  0  0  0  0  0  0  0  0  0  0
    1.9627    0.2129   -0.0900 C   0  0  0  0  0  0  0  0  0  0  0  0
    2.8930    1.2158   -0.1534 C   0  0  0  0  0  0  0  0  0  0  0  0
    4.2480    0.9644   -0.1364 C   0  0  0  0  0  0  0  0  0  0  0  0
    4.7063   -0.3170   -0.0542 C   0  0  0  0  0  0  0  0  0  0  0  0
    6.0702   -0.5753   -0.0367 O   0  0  0  0  0  0  0  0  0  0  0  0
    3.8077   -1.3635    0.0120 C   0  0  0  0  0  0  0  0  0  0  0  0
    2.4673   -1.0925   -0.0062 C   0  0  0  0  0  0  0  0  0  0  0  0
   -0.2675   -0.6051   -0.0393 O   0  0  0  0  0  0  0  0  0  0  0  0
   -1.5666   -0.5061   -0.0465 C   0  0  0  0  0  0  0  0  0  0  0  0
   -2.3612   -1.6323    0.0249 C   0  0  0  0  0  0  0  0  0  0  0  0
   -3.7425   -1.5735    0.0201 C   0  0  0  0  0  0  0  0  0  0  0  0
   -4.4858   -2.7530    0.0950 O   0  0  0  0  0  0  0  0  0  0  0  0
   -4.3713   -0.3383   -0.0592 C   0  0  0  0  0  0  0  0  0  0  0  0
   -3.5822    0.7916   -0.1308 C   0  0  0  0  0  0  0  0  0  0  0  0
   -4.1507    2.0656   -0.2126 O   0  0  0  0  0  0  0  0  0  0  0  0
   -2.1944    0.7150   -0.1249 C   0  0  0  0  0  0  0  0  0  0  0  0
    0.5958    2.5859   -0.2425 H   0  0  0  0  0  0  0  0  0  0  0  0
    2.5736    2.2369   -0.2188 H   0  0  0  0  0  0  0  0  0  0  0  0
    4.9351    1.8052   -0.1896 H   0  0  0  0  0  0  0  0  0  0  0  0
    6.4352   -1.5120   -0.1693 H   0  0  0  0  0  0  0  0  0  0  0  0
    4.1841   -2.3754    0.0770 H   0  0  0  0  0  0  0  0  0  0  0  0
    1.7546   -1.9057    0.0452 H   0  0  0  0  0  0  0  0  0  0  0  0
   -1.9210   -2.6348    0.0892 H   0  0  0  0  0  0  0  0  0  0  0  0
   -5.4698   -2.7232    0.2685 H   0  0  0  0  0  0  0  0  0  0  0  0
   -5.4319   -0.2632   -0.0647 H   0  0  0  0  0  0  0  0  0  0  0  0
   -4.2440    2.5676    0.6758 H   0  0  0  0  0  0  0  0  0  0  0  0
  1  2  2  0
  2  3  1  0
  3  4  2  0
  4  5  1  0
  5  6  2  0
  6  7  1  0
  7  8  2  0
  8  9  1  0
  8 10  1  0
 10 11  2  0
  4 12  1  0
 12 13  1  0
 13 14  2  0
 14 15  1  0
 15 16  1  0
 15 17  2  0
 17 18  1  0
 18 19  1  0
 18 20  2  0
 20  2  1  0
 11  5  1  0
 20 13  1  0
  3 21  1  0
  6 22  1  0
  7 23  1  0
  9 24  1  0
 10 25  1  0
 11 26  1  0
 14 27  1  0
 16 28  1  0
 17 29  1  0
 19 30  1  0
M  END
$$$$
