
     RDKit          3D

 56 60  0  0  0  0  0  0  0  0999 V2000
    7.6544    3.5909   -0.3895 C   0  0  0  0  0  0  0  0  0  0  0  0
    7.0576    2.2272   -0.2217 C   0  0  0  0  0  0  0  0  0  0  0  0
    5.6343    2.3050   -0.1603 O   0  0  0  0  0  0  0  0  0  0  0  0
    4.9339    1.0932   -0.0029 C   0  0  0  0  0  0  0  0  0  0  0  0
    5.5768    0.0206    0.0749 O   0  0  0  0  0  0  0  0  0  0  0  0
    3.5141    1.0967    0.0659 N   0  0  0  0  0  0  0  0  0  0  0  0
    2.7383   -0.0856    0.2240 C   0  0  0  0  0  0  0  0  0  0  0  0
    3.1258   -1.3809    0.3367 C   0  0  0  0  0  0  0  0  0  0  0  0
    2.0347   -2.1423    0.4674 N   0  0  0  0  0  0  0  0  0  0  0  0
    2.0239   -3.5662    0.6128 C   0  0  0  0  0  0  0  0  0  0  0  0
    0.9183   -1.3482    0.4411 C   0  0  0  0  0  0  0  0  0  0  0  0
    1.3463   -0.0629    0.2898 C   0  0  0  0  0  0  0  0  0  0  0  0
    0.1774    0.7940    0.2646 C   0  0  0  0  0  0  0  0  0  0  0  0
    0.2074    2.0670    0.1345 O   0  0  0  0  0  0  0  0  0  0  0  0
   -0.9749   -0.0189    0.4072 N   0  0  0  0  0  0  0  0  0  0  0  0
   -2.2854    0.5644    0.4275 C   0  0  0  0  0  0  0  0  0  0  0  0
   -3.3796   -0.2444    0.5778 C   0  0  0  0  0  0  0  0  0  0  0  0
   -4.6848    0.2515    0.6053 C   0  0  0  0  0  0  0  0  0  0  0  0
   -5.8394   -0.6596    0.7698 C   0  0  0  0  0  0  0  0  0  0  0  0
   -4.8515    1.5994    0.4753 C   0  0  0  0  0  0  0  0  0  0  0  0
   -5.9241    2.4101    0.4560 N   0  0  0  0  0  0  0  0  0  0  0  0
   -5.4977    3.6443    0.3020 N   0  0  0  0  0  0  0  0  0  0  0  0
   -4.1685    3.6826    0.2176 N   0  0  0  0  0  0  0  0  0  0  0  0
   -3.3673    4.8792    0.0447 C   0  0  0  0  0  0  0  0  0  0  0  0
   -3.7513    2.4103    0.3245 C   0  0  0  0  0  0  0  0  0  0  0  0
   -2.5142    1.8838    0.3043 N   0  0  0  0  0  0  0  0  0  0  0  0
   -0.5551   -1.3556    0.5091 C   0  0  0  0  0  0  0  0  0  0  0  0
   -1.0978   -2.2666   -0.5240 C   0  0  0  0  0  0  0  0  0  0  0  0
   -1.1718   -1.9403   -1.8403 C   0  0  0  0  0  0  0  0  0  0  0  0
   -1.6892   -2.8483   -2.7602 C   0  0  0  0  0  0  0  0  0  0  0  0
   -2.1297   -4.0834   -2.3444 C   0  0  0  0  0  0  0  0  0  0  0  0
   -2.7911   -5.2697   -3.4541 Cl  0  0  0  0  0  0  0  0  0  0  0  0
   -2.0640   -4.4365   -1.0114 C   0  0  0  0  0  0  0  0  0  0  0  0
   -1.5446   -3.5095   -0.1276 C   0  0  0  0  0  0  0  0  0  0  0  0
    8.4588    3.5599   -1.1580 H   0  0  0  0  0  0  0  0  0  0  0  0
    8.1348    3.9453    0.5614 H   0  0  0  0  0  0  0  0  0  0  0  0
    6.9165    4.3551   -0.6976 H   0  0  0  0  0  0  0  0  0  0  0  0
    7.3737    1.5853   -1.0655 H   0  0  0  0  0  0  0  0  0  0  0  0
    7.4505    1.8043    0.7381 H   0  0  0  0  0  0  0  0  0  0  0  0
    3.0665    2.0419   -0.0085 H   0  0  0  0  0  0  0  0  0  0  0  0
    4.1429   -1.7677    0.3263 H   0  0  0  0  0  0  0  0  0  0  0  0
    1.3572   -3.9171    1.4302 H   0  0  0  0  0  0  0  0  0  0  0  0
    3.0382   -3.9355    0.8703 H   0  0  0  0  0  0  0  0  0  0  0  0
    1.7645   -4.0806   -0.3591 H   0  0  0  0  0  0  0  0  0  0  0  0
   -3.2195   -1.3065    0.6796 H   0  0  0  0  0  0  0  0  0  0  0  0
   -6.2733   -0.4752    1.7814 H   0  0  0  0  0  0  0  0  0  0  0  0
   -6.6512   -0.4522    0.0420 H   0  0  0  0  0  0  0  0  0  0  0  0
   -5.5181   -1.7024    0.6204 H   0  0  0  0  0  0  0  0  0  0  0  0
   -3.3982    5.2532   -1.0003 H   0  0  0  0  0  0  0  0  0  0  0  0
   -3.6988    5.6493    0.7743 H   0  0  0  0  0  0  0  0  0  0  0  0
   -2.3047    4.6592    0.2757 H   0  0  0  0  0  0  0  0  0  0  0  0
   -0.8138   -1.7353    1.5241 H   0  0  0  0  0  0  0  0  0  0  0  0
   -0.8246   -0.9641   -2.1748 H   0  0  0  0  0  0  0  0  0  0  0  0
   -1.7590   -2.6124   -3.8149 H   0  0  0  0  0  0  0  0  0  0  0  0
   -2.4093   -5.4143   -0.6600 H   0  0  0  0  0  0  0  0  0  0  0  0
   -1.4945   -3.7915    0.9216 H   0  0  0  0  0  0  0  0  0  0  0  0
  1  2  1  0
  2  3  1  0
  3  4  1  0
  4  5  2  0
  4  6  1  0
  6  7  1  0
  7  8  2  0
  8  9  1  0
  9 10  1  0
  9 11  1  0
 11 12  2  0
 12 13  1  0
 13 14  2  0
 13 15  1  0
 15 16  1  0
 16 17  2  0
 17 18  1  0
 18 19  1  0
 18 20  2  0
 20 21  1  0
 21 22  2  0
 22 23  1  0
 23 24  1  0
 23 25  1  0
 25 26  2  0
 15 27  1  0
 27 28  1  0
 28 29  2  0
 29 30  1  0
 30 31  2  0
 31 32  1  0
 31 33  1  0
 33 34  2  0
 12  7  1  0
 26 16  1  0
 34 28  1  0
 27 11  1  0
 25 20  1  0
  1 35  1  0
  1 36  1  0
  1 37  1  0
  2 38  1  0
  2 39  1  0
  6 40  1  0
  8 41  1  0
 10 42  1  0
 10 43  1  0
 10 44  1  0
 17 45  1  0
 19 46  1  0
 19 47  1  0
 19 48  1  0
 24 49  1  0
 24 50  1  0
 24 51  1  0
 27 52  1  0
 29 53  1  0
 30 54  1  0
 33 55  1  0
 34 56  1  0
M  END
$$$$
