
     RDKit          3D

 57 59  0  0  0  0  0  0  0  0999 V2000
   -7.6717   -1.4201    3.2460 C   0  0  0  0  0  0  0  0  0  0  0  0
   -7.5804   -0.5063    2.2205 O   0  0  0  0  0  0  0  0  0  0  0  0
   -6.3315   -0.5460    1.5951 C   0  0  0  0  0  0  0  0  0  0  0  0
   -6.2446    0.4520    0.4838 C   0  0  0  0  0  0  0  0  0  0  0  0
   -4.9917    0.4637   -0.1995 N   0  0  0  0  0  0  0  0  0  0  0  0
   -4.8767   -0.7956   -0.9286 C   0  0  0  0  0  0  0  0  0  0  0  0
   -3.8785    0.5955    0.6913 C   0  0  0  0  0  0  0  0  0  0  0  0
   -2.5782    0.6266    0.0004 C   0  0  0  0  0  0  0  0  0  0  0  0
   -1.8796   -0.5362   -0.2429 C   0  0  0  0  0  0  0  0  0  0  0  0
   -0.6516   -0.5217   -0.8917 C   0  0  0  0  0  0  0  0  0  0  0  0
   -0.1024    0.6587   -1.3081 C   0  0  0  0  0  0  0  0  0  0  0  0
    1.1786    0.6892   -1.9826 C   0  0  0  0  0  0  0  0  0  0  0  0
    1.6516    1.8157   -2.3751 O   0  0  0  0  0  0  0  0  0  0  0  0
    1.9809   -0.4292   -2.2583 N   0  0  0  0  0  0  0  0  0  0  0  0
    3.2306   -0.3706   -2.9196 C   0  0  0  0  0  0  0  0  0  0  0  0
    3.3460   -0.4740   -4.2986 C   0  0  0  0  0  0  0  0  0  0  0  0
    4.5617   -0.4130   -4.9469 C   0  0  0  0  0  0  0  0  0  0  0  0
    5.7121   -0.2427   -4.2035 C   0  0  0  0  0  0  0  0  0  0  0  0
    7.2862   -0.1580   -4.9819 Cl  0  0  0  0  0  0  0  0  0  0  0  0
    5.5913   -0.1391   -2.8150 C   0  0  0  0  0  0  0  0  0  0  0  0
    4.3731   -0.2003   -2.1642 C   0  0  0  0  0  0  0  0  0  0  0  0
    4.2427   -0.0957   -0.7042 C   0  0  0  0  0  0  0  0  0  0  0  0
    3.1001   -0.1789   -0.2096 O   0  0  0  0  0  0  0  0  0  0  0  0
    5.3158    0.0916    0.1757 N   0  0  0  0  0  0  0  0  0  0  0  0
    5.3063    0.2032    1.5755 C   0  0  0  0  0  0  0  0  0  0  0  0
    4.2212    0.1380    2.3945 C   0  0  0  0  0  0  0  0  0  0  0  0
    4.3164    0.2651    3.7945 C   0  0  0  0  0  0  0  0  0  0  0  0
    5.5427    0.4632    4.3769 C   0  0  0  0  0  0  0  0  0  0  0  0
    5.7435    0.6308    6.1124 Cl  0  0  0  0  0  0  0  0  0  0  0  0
    6.6279    0.5263    3.5332 C   0  0  0  0  0  0  0  0  0  0  0  0
    6.5055    0.4019    2.2071 N   0  0  0  0  0  0  0  0  0  0  0  0
   -0.7953    1.8256   -1.0684 C   0  0  0  0  0  0  0  0  0  0  0  0
   -2.0239    1.8168   -0.4198 C   0  0  0  0  0  0  0  0  0  0  0  0
   -8.6503   -1.3835    3.7292 H   0  0  0  0  0  0  0  0  0  0  0  0
   -6.8915   -1.1966    4.0259 H   0  0  0  0  0  0  0  0  0  0  0  0
   -7.4426   -2.4681    2.9175 H   0  0  0  0  0  0  0  0  0  0  0  0
   -5.5944   -0.3538    2.4010 H   0  0  0  0  0  0  0  0  0  0  0  0
   -6.1423   -1.5906    1.2503 H   0  0  0  0  0  0  0  0  0  0  0  0
   -7.0323    0.2114   -0.2589 H   0  0  0  0  0  0  0  0  0  0  0  0
   -6.4719    1.4478    0.9166 H   0  0  0  0  0  0  0  0  0  0  0  0
   -5.8001   -0.9726   -1.5420 H   0  0  0  0  0  0  0  0  0  0  0  0
   -4.7455   -1.6619   -0.2533 H   0  0  0  0  0  0  0  0  0  0  0  0
   -4.0147   -0.7218   -1.6196 H   0  0  0  0  0  0  0  0  0  0  0  0
   -3.9855    1.5257    1.2862 H   0  0  0  0  0  0  0  0  0  0  0  0
   -3.8435   -0.2950    1.3757 H   0  0  0  0  0  0  0  0  0  0  0  0
   -2.3299   -1.4597    0.0938 H   0  0  0  0  0  0  0  0  0  0  0  0
   -0.1352   -1.4406   -1.0652 H   0  0  0  0  0  0  0  0  0  0  0  0
    1.6541   -1.3711   -1.9662 H   0  0  0  0  0  0  0  0  0  0  0  0
    2.4286   -0.6089   -4.8793 H   0  0  0  0  0  0  0  0  0  0  0  0
    4.6195   -0.4969   -6.0245 H   0  0  0  0  0  0  0  0  0  0  0  0
    6.4998   -0.0079   -2.2642 H   0  0  0  0  0  0  0  0  0  0  0  0
    6.2691    0.1566   -0.3063 H   0  0  0  0  0  0  0  0  0  0  0  0
    3.2460   -0.0188    1.9510 H   0  0  0  0  0  0  0  0  0  0  0  0
    3.4308    0.2052    4.3836 H   0  0  0  0  0  0  0  0  0  0  0  0
    7.6072    0.6847    4.0008 H   0  0  0  0  0  0  0  0  0  0  0  0
   -0.3418    2.7393   -1.4055 H   0  0  0  0  0  0  0  0  0  0  0  0
   -2.5618    2.7338   -0.2350 H   0  0  0  0  0  0  0  0  0  0  0  0
  1  2  1  0
  2  3  1  0
  3  4  1  0
  4  5  1  0
  5  6  1  0
  5  7  1  0
  7  8  1  0
  8  9  2  0
  9 10  1  0
 10 11  2  0
 11 12  1  0
 12 13  2  0
 12 14  1  0
 14 15  1  0
 15 16  2  0
 16 17  1  0
 17 18  2  0
 18 19  1  0
 18 20  1  0
 20 21  2  0
 21 22  1  0
 22 23  2  0
 22 24  1  0
 24 25  1  0
 25 26  2  0
 26 27  1  0
 27 28  2  0
 28 29  1  0
 28 30  1  0
 30 31  2  0
 11 32  1  0
 32 33  2  0
 33  8  1  0
 21 15  1  0
 31 25  1  0
  1 34  1  0
  1 35  1  0
  1 36  1  0
  3 37  1  0
  3 38  1  0
  4 39  1  0
  4 40  1  0
  6 41  1  0
  6 42  1  0
  6 43  1  0
  7 44  1  0
  7 45  1  0
  9 46  1  0
 10 47  1  0
 14 48  1  0
 16 49  1  0
 17 50  1  0
 20 51  1  0
 24 52  1  0
 26 53  1  0
 27 54  1  0
 30 55  1  0
 32 56  1  0
 33 57  1  0
M  END
$$$$
