
     RDKit          3D

 68 70  0  0  0  0  0  0  0  0999 V2000
   -4.5257   -0.3292    1.4419 C   0  0  0  0  0  0  0  0  0  0  0  0
   -4.3858   -1.7467    1.0081 C   0  0  0  0  0  0  0  0  0  0  0  0
   -2.9574   -2.1793    0.7834 C   0  0  0  0  0  0  0  0  0  0  0  0
   -3.0047   -3.6317    0.3516 C   0  0  0  0  0  0  0  0  0  0  0  0
   -2.1704   -2.1378    2.0829 C   0  0  0  0  0  0  0  0  0  0  0  0
   -2.2967   -1.3888   -0.2883 C   0  0  0  0  0  0  0  0  0  0  0  0
   -1.8458   -1.9534   -1.3160 O   0  0  0  0  0  0  0  0  0  0  0  0
   -2.1417   -0.0160   -0.2208 O   0  0  0  0  0  0  0  0  0  0  0  0
   -1.5132    0.7327   -1.2286 C   0  0  1  0  0  0  0  0  0  0  0  0
   -2.5367    1.6139   -1.9509 C   0  0  0  0  0  0  0  0  0  0  0  0
   -1.9635    2.9714   -2.2670 C   0  0  1  0  0  0  0  0  0  0  0  0
   -2.9379    3.7938   -3.0398 C   0  0  0  0  0  0  0  0  0  0  0  0
   -1.6496    3.5936   -0.9297 C   0  0  0  0  0  0  0  0  0  0  0  0
   -0.8348    2.8661   -0.1850 C   0  0  0  0  0  0  0  0  0  0  0  0
   -0.4013    3.2952    1.1610 C   0  0  0  0  0  0  0  0  0  0  0  0
    0.7466    2.8533    1.6460 C   0  0  0  0  0  0  0  0  0  0  0  0
    1.5120    1.9399    0.7599 C   0  0  2  0  0  0  0  0  0  0  0  0
    2.0629    2.8169   -0.3653 C   0  0  0  0  0  0  0  0  0  0  0  0
    0.5557    0.9102    0.2157 C   0  0  2  0  0  0  0  0  0  0  0  0
    1.3188   -0.2183   -0.3852 C   0  0  0  0  0  0  0  0  0  0  0  0
    2.1886   -0.9251    0.5942 C   0  0  0  0  0  0  0  0  0  0  0  0
    2.8970   -2.0564   -0.1390 C   0  0  2  0  0  0  0  0  0  0  0  0
    3.7897   -2.8015    0.8117 C   0  0  0  0  0  0  0  0  0  0  0  0
    5.0549   -2.0451    1.1123 C   0  0  1  0  0  0  0  0  0  0  0  0
    5.8503   -2.7446    2.0143 O   0  0  0  0  0  0  0  0  0  0  0  0
    5.7907   -1.7341   -0.1725 C   0  0  0  0  0  0  0  0  0  0  0  0
    4.8495   -1.0204   -1.0685 C   0  0  0  0  0  0  0  0  0  0  0  0
    5.2241    0.0668   -1.6216 O   0  0  0  0  0  0  0  0  0  0  0  0
    3.5975   -1.5719   -1.2650 O   0  0  0  0  0  0  0  0  0  0  0  0
   -0.3660    1.5831   -0.7585 C   0  0  1  0  0  0  0  0  0  0  0  0
   -4.9602    0.2556    0.5906 H   0  0  0  0  0  0  0  0  0  0  0  0
   -3.5972    0.1556    1.7527 H   0  0  0  0  0  0  0  0  0  0  0  0
   -5.2556   -0.1910    2.2817 H   0  0  0  0  0  0  0  0  0  0  0  0
   -4.7948   -2.3998    1.8071 H   0  0  0  0  0  0  0  0  0  0  0  0
   -4.9690   -1.9749    0.0926 H   0  0  0  0  0  0  0  0  0  0  0  0
   -3.1713   -3.6120   -0.7579 H   0  0  0  0  0  0  0  0  0  0  0  0
   -3.8957   -4.1314    0.7753 H   0  0  0  0  0  0  0  0  0  0  0  0
   -2.0671   -4.1720    0.6040 H   0  0  0  0  0  0  0  0  0  0  0  0
   -1.1263   -1.7981    1.9222 H   0  0  0  0  0  0  0  0  0  0  0  0
   -2.0936   -3.1553    2.5436 H   0  0  0  0  0  0  0  0  0  0  0  0
   -2.7008   -1.5136    2.8511 H   0  0  0  0  0  0  0  0  0  0  0  0
   -1.1483    0.0366   -2.0060 H   0  0  0  0  0  0  0  0  0  0  0  0
   -3.3973    1.7967   -1.2518 H   0  0  0  0  0  0  0  0  0  0  0  0
   -2.8753    1.1559   -2.8964 H   0  0  0  0  0  0  0  0  0  0  0  0
   -1.0246    2.8782   -2.8610 H   0  0  0  0  0  0  0  0  0  0  0  0
   -3.9453    3.3129   -3.0942 H   0  0  0  0  0  0  0  0  0  0  0  0
   -3.0010    4.7980   -2.5335 H   0  0  0  0  0  0  0  0  0  0  0  0
   -2.5785    3.9866   -4.0782 H   0  0  0  0  0  0  0  0  0  0  0  0
   -2.0305    4.5234   -0.5888 H   0  0  0  0  0  0  0  0  0  0  0  0
   -1.0575    3.9574    1.6761 H   0  0  0  0  0  0  0  0  0  0  0  0
    1.1173    3.1192    2.6012 H   0  0  0  0  0  0  0  0  0  0  0  0
    2.3973    1.5258    1.2710 H   0  0  0  0  0  0  0  0  0  0  0  0
    1.4356    3.7192   -0.5402 H   0  0  0  0  0  0  0  0  0  0  0  0
    2.2160    2.2137   -1.2837 H   0  0  0  0  0  0  0  0  0  0  0  0
    3.0589    3.1768   -0.0595 H   0  0  0  0  0  0  0  0  0  0  0  0
   -0.0262    0.5228    1.0967 H   0  0  0  0  0  0  0  0  0  0  0  0
    0.6028   -0.9079   -0.8742 H   0  0  0  0  0  0  0  0  0  0  0  0
    1.9488    0.1713   -1.2383 H   0  0  0  0  0  0  0  0  0  0  0  0
    1.5066   -1.4401    1.3251 H   0  0  0  0  0  0  0  0  0  0  0  0
    2.8763   -0.3345    1.1817 H   0  0  0  0  0  0  0  0  0  0  0  0
    2.0842   -2.7033   -0.5418 H   0  0  0  0  0  0  0  0  0  0  0  0
    3.2210   -2.9327    1.7695 H   0  0  0  0  0  0  0  0  0  0  0  0
    3.9735   -3.8150    0.4287 H   0  0  0  0  0  0  0  0  0  0  0  0
    4.7515   -1.0520    1.5381 H   0  0  0  0  0  0  0  0  0  0  0  0
    5.5811   -3.7091    2.0301 H   0  0  0  0  0  0  0  0  0  0  0  0
    6.0857   -2.6859   -0.7000 H   0  0  0  0  0  0  0  0  0  0  0  0
    6.7046   -1.1480    0.0451 H   0  0  0  0  0  0  0  0  0  0  0  0
    0.2478    1.8342   -1.6598 H   0  0  0  0  0  0  0  0  0  0  0  0
  1  2  1  0
  2  3  1  0
  3  4  1  0
  3  5  1  0
  3  6  1  0
  6  7  2  0
  6  8  1  0
  8  9  1  0
  9 10  1  0
 10 11  1  0
 11 12  1  0
 11 13  1  0
 13 14  2  0
 14 15  1  0
 15 16  2  0
 16 17  1  0
 17 18  1  0
 17 19  1  0
 19 20  1  0
 20 21  1  0
 21 22  1  0
 22 23  1  0
 23 24  1  0
 24 25  1  0
 24 26  1  0
 26 27  1  0
 27 28  2  0
 27 29  1  0
 19 30  1  0
 30  9  1  0
 30 14  1  0
 29 22  1  0
  1 31  1  0
  1 32  1  0
  1 33  1  0
  2 34  1  0
  2 35  1  0
  4 36  1  0
  4 37  1  0
  4 38  1  0
  5 39  1  0
  5 40  1  0
  5 41  1  0
  9 42  1  6
 10 43  1  0
 10 44  1  0
 11 45  1  6
 12 46  1  0
 12 47  1  0
 12 48  1  0
 13 49  1  0
 15 50  1  0
 16 51  1  0
 17 52  1  1
 18 53  1  0
 18 54  1  0
 18 55  1  0
 19 56  1  1
 20 57  1  0
 20 58  1  0
 21 59  1  0
 21 60  1  0
 22 61  1  6
 23 62  1  0
 23 63  1  0
 24 64  1  1
 25 65  1  0
 26 66  1  0
 26 67  1  0
 30 68  1  6
M  END
$$$$
