
     RDKit          3D

 30 30  0  0  0  0  0  0  0  0999 V2000
   -0.8600    1.5576    1.6727 O   0  0  0  0  0  0  0  0  0  0  0  0
   -1.8992    1.2988    0.5900 P   0  0  0  0  0  5  0  0  0  0  0  0
   -1.9005    2.5531   -0.5314 O   0  0  0  0  0  0  0  0  0  0  0  0
   -3.4130    1.3241    1.3642 O   0  0  0  0  0  0  0  0  0  0  0  0
   -1.6354   -0.3102   -0.1225 C   0  0  0  0  0  0  0  0  0  0  0  0
   -0.5110   -1.0324    0.4153 N   0  0  0  0  0  0  0  0  0  0  0  0
    0.8224   -0.6231    0.3687 C   0  0  0  0  0  0  0  0  0  0  0  0
    1.8188   -1.3932    0.9212 C   0  0  0  0  0  0  0  0  0  0  0  0
    3.1474   -1.0270    0.8955 C   0  0  0  0  0  0  0  0  0  0  0  0
    3.5323    0.1516    0.3010 C   0  0  0  0  0  0  0  0  0  0  0  0
    4.9669    0.5770    0.2569 C   0  0  0  0  0  0  0  0  0  0  0  0
    5.4362    0.6123   -1.0474 F   0  0  0  0  0  0  0  0  0  0  0  0
    5.7097   -0.3449    0.9324 F   0  0  0  0  0  0  0  0  0  0  0  0
    5.0519    1.7896    0.8830 F   0  0  0  0  0  0  0  0  0  0  0  0
    2.5439    0.9479   -0.2649 C   0  0  0  0  0  0  0  0  0  0  0  0
    1.2046    0.5548   -0.2259 C   0  0  0  0  0  0  0  0  0  0  0  0
   -3.1625   -1.2649   -0.0782 P   0  0  0  0  0  5  0  0  0  0  0  0
   -2.9213   -2.7245    0.1708 O   0  0  0  0  0  0  0  0  0  0  0  0
   -4.1932   -0.6893    1.1320 O   0  0  0  0  0  0  0  0  0  0  0  0
   -4.0158   -1.1271   -1.5539 O   0  0  0  0  0  0  0  0  0  0  0  0
   -2.4768    3.2798   -0.1965 H   0  0  0  0  0  0  0  0  0  0  0  0
   -4.1226    1.6214    0.7402 H   0  0  0  0  0  0  0  0  0  0  0  0
   -1.3967   -0.1577   -1.2179 H   0  0  0  0  0  0  0  0  0  0  0  0
   -0.7503   -1.9568    0.8841 H   0  0  0  0  0  0  0  0  0  0  0  0
    1.5839   -2.3412    1.4093 H   0  0  0  0  0  0  0  0  0  0  0  0
    3.9117   -1.6436    1.3336 H   0  0  0  0  0  0  0  0  0  0  0  0
    2.8539    1.8719   -0.7299 H   0  0  0  0  0  0  0  0  0  0  0  0
    0.5010    1.2290   -0.6888 H   0  0  0  0  0  0  0  0  0  0  0  0
   -5.1220   -0.9035    0.8657 H   0  0  0  0  0  0  0  0  0  0  0  0
   -4.7042   -1.8294   -1.5236 H   0  0  0  0  0  0  0  0  0  0  0  0
  1  2  2  0
  2  3  1  0
  2  4  1  0
  2  5  1  0
  5  6  1  0
  6  7  1  0
  7  8  2  0
  8  9  1  0
  9 10  2  0
 10 11  1  0
 11 12  1  0
 11 13  1  0
 11 14  1  0
 10 15  1  0
 15 16  2  0
  5 17  1  0
 17 18  2  0
 17 19  1  0
 17 20  1  0
 16  7  1  0
  3 21  1  0
  4 22  1  0
  5 23  1  0
  6 24  1  0
  8 25  1  0
  9 26  1  0
 15 27  1  0
 16 28  1  0
 19 29  1  0
 20 30  1  0
M  END
$$$$
