
     RDKit          3D

 48 50  0  0  0  0  0  0  0  0999 V2000
   -7.2232    3.6810    0.4518 C   0  0  0  0  0  0  0  0  0  0  0  0
   -6.8408    2.3526    0.0622 N   0  0  0  0  0  0  0  0  0  0  0  0
   -5.8566    1.5922    0.7397 C   0  0  0  0  0  0  0  0  0  0  0  0
   -5.2920    2.1104    1.7314 O   0  0  0  0  0  0  0  0  0  0  0  0
   -5.5503    0.2605    0.2586 C   0  0  0  0  0  0  0  0  0  0  0  0
   -4.5750   -0.4513    0.9562 C   0  0  0  0  0  0  0  0  0  0  0  0
   -4.2648   -1.7118    0.5247 C   0  0  0  0  0  0  0  0  0  0  0  0
   -3.3056   -2.4564    1.1827 O   0  0  0  0  0  0  0  0  0  0  0  0
   -1.9752   -2.3260    0.7349 C   0  0  0  0  0  0  0  0  0  0  0  0
   -1.4725   -3.1432   -0.2456 C   0  0  0  0  0  0  0  0  0  0  0  0
   -0.1734   -3.0101   -0.6775 C   0  0  0  0  0  0  0  0  0  0  0  0
    0.6856   -2.0432   -0.1402 C   0  0  0  0  0  0  0  0  0  0  0  0
    1.9988   -1.9731   -0.6371 N   0  0  0  0  0  0  0  0  0  0  0  0
    2.9828   -1.0620   -0.2057 C   0  0  0  0  0  0  0  0  0  0  0  0
    2.7567   -0.2241    0.6757 O   0  0  0  0  0  0  0  0  0  0  0  0
    4.2805   -1.1050   -0.8018 N   0  0  0  0  0  0  0  0  0  0  0  0
    5.3085   -0.1931   -0.3885 C   0  0  0  0  0  0  0  0  0  0  0  0
    6.1571   -0.5371    0.6426 C   0  0  0  0  0  0  0  0  0  0  0  0
    7.1641    0.3004    1.0825 C   0  0  0  0  0  0  0  0  0  0  0  0
    7.3501    1.5109    0.4997 C   0  0  0  0  0  0  0  0  0  0  0  0
    8.6096    2.6449    0.9956 Cl  0  0  0  0  0  0  0  0  0  0  0  0
    6.5010    1.8754   -0.5447 C   0  0  0  0  0  0  0  0  0  0  0  0
    6.7049    3.2011   -1.1828 C   0  0  0  0  0  0  0  0  0  0  0  0
    5.7598    3.3405   -2.1777 F   0  0  0  0  0  0  0  0  0  0  0  0
    6.5791    4.2007   -0.2291 F   0  0  0  0  0  0  0  0  0  0  0  0
    7.9639    3.2643   -1.7668 F   0  0  0  0  0  0  0  0  0  0  0  0
    5.4988    1.0338   -0.9774 C   0  0  0  0  0  0  0  0  0  0  0  0
    0.1404   -1.2599    0.8267 C   0  0  0  0  0  0  0  0  0  0  0  0
   -1.1756   -1.3681    1.2892 C   0  0  0  0  0  0  0  0  0  0  0  0
   -4.9195   -2.2242   -0.5694 C   0  0  0  0  0  0  0  0  0  0  0  0
   -5.8863   -1.4793   -1.2361 C   0  0  0  0  0  0  0  0  0  0  0  0
   -6.1670   -0.2593   -0.7954 N   0  0  0  0  0  0  0  0  0  0  0  0
   -8.1198    3.6012    1.1004 H   0  0  0  0  0  0  0  0  0  0  0  0
   -6.3823    4.1626    0.9727 H   0  0  0  0  0  0  0  0  0  0  0  0
   -7.4189    4.2581   -0.4796 H   0  0  0  0  0  0  0  0  0  0  0  0
   -7.3230    1.9290   -0.7727 H   0  0  0  0  0  0  0  0  0  0  0  0
   -4.0666   -0.0312    1.8199 H   0  0  0  0  0  0  0  0  0  0  0  0
   -2.1437   -3.8865   -0.6540 H   0  0  0  0  0  0  0  0  0  0  0  0
    0.2047   -3.6538   -1.4422 H   0  0  0  0  0  0  0  0  0  0  0  0
    2.2913   -2.6719   -1.4167 H   0  0  0  0  0  0  0  0  0  0  0  0
    4.4888   -1.8043   -1.5457 H   0  0  0  0  0  0  0  0  0  0  0  0
    5.9890   -1.5177    1.0980 H   0  0  0  0  0  0  0  0  0  0  0  0
    7.7989   -0.0088    1.8864 H   0  0  0  0  0  0  0  0  0  0  0  0
    4.8551    1.3477   -1.7928 H   0  0  0  0  0  0  0  0  0  0  0  0
    0.7193   -0.5013    1.2890 H   0  0  0  0  0  0  0  0  0  0  0  0
   -1.5328   -0.6879    2.0791 H   0  0  0  0  0  0  0  0  0  0  0  0
   -4.7072   -3.2171   -0.9469 H   0  0  0  0  0  0  0  0  0  0  0  0
   -6.4168   -1.8592   -2.1003 H   0  0  0  0  0  0  0  0  0  0  0  0
  1  2  1  0
  2  3  1  0
  3  4  2  0
  3  5  1  0
  5  6  2  0
  6  7  1  0
  7  8  1  0
  8  9  1  0
  9 10  2  0
 10 11  1  0
 11 12  2  0
 12 13  1  0
 13 14  1  0
 14 15  2  0
 14 16  1  0
 16 17  1  0
 17 18  2  0
 18 19  1  0
 19 20  2  0
 20 21  1  0
 20 22  1  0
 22 23  1  0
 23 24  1  0
 23 25  1  0
 23 26  1  0
 22 27  2  0
 12 28  1  0
 28 29  2  0
  7 30  2  0
 30 31  1  0
 31 32  2  0
 32  5  1  0
 29  9  1  0
 27 17  1  0
  1 33  1  0
  1 34  1  0
  1 35  1  0
  2 36  1  0
  6 37  1  0
 10 38  1  0
 11 39  1  0
 13 40  1  0
 16 41  1  0
 18 42  1  0
 19 43  1  0
 27 44  1  0
 28 45  1  0
 29 46  1  0
 30 47  1  0
 31 48  1  0
M  END
$$$$
