
     RDKit          3D

 36 37  0  0  0  0  0  0  0  0999 V2000
   -0.5713    0.6050   -0.5958 C   0  0  2  0  0  0  0  0  0  0  0  0
   -0.9119    1.6861    0.3507 C   0  0  0  0  0  0  0  0  0  0  0  0
   -1.7936    2.1431    1.1230 O   0  0  0  0  0  0  0  0  0  0  0  0
    0.1075    2.6101    0.4983 O   0  0  0  0  0  0  0  0  0  0  0  0
    0.0241    3.7340    1.3457 C   0  0  0  0  0  0  0  0  0  0  0  0
   -1.6573   -0.3943   -0.7639 C   0  0  0  0  0  0  0  0  0  0  0  0
   -2.0887   -1.1987    0.2754 C   0  0  0  0  0  0  0  0  0  0  0  0
   -3.0972   -2.1353    0.1431 C   0  0  0  0  0  0  0  0  0  0  0  0
   -3.7152   -2.2823   -1.0962 C   0  0  0  0  0  0  0  0  0  0  0  0
   -3.3263   -1.5087   -2.1641 C   0  0  0  0  0  0  0  0  0  0  0  0
   -2.3263   -0.6071   -1.9597 C   0  0  0  0  0  0  0  0  0  0  0  0
    0.7284   -0.0729   -0.2672 C   0  0  1  0  0  0  0  0  0  0  0  0
    1.9083    0.8347   -0.2747 C   0  0  0  0  0  0  0  0  0  0  0  0
    3.1201   -0.0758   -0.4514 C   0  0  0  0  0  0  0  0  0  0  0  0
    3.1540   -0.9372    0.8108 C   0  0  0  0  0  0  0  0  0  0  0  0
    1.8555   -1.6378    1.0199 C   0  0  0  0  0  0  0  0  0  0  0  0
    0.7028   -0.7527    1.0071 N   0  0  0  0  0  0  0  0  0  0  0  0
   -0.4547    1.0848   -1.5902 H   0  0  0  0  0  0  0  0  0  0  0  0
   -0.6532    4.4558    0.8271 H   0  0  0  0  0  0  0  0  0  0  0  0
    1.0447    4.2145    1.3132 H   0  0  0  0  0  0  0  0  0  0  0  0
   -0.2600    3.5224    2.3761 H   0  0  0  0  0  0  0  0  0  0  0  0
   -1.6371   -1.1165    1.2494 H   0  0  0  0  0  0  0  0  0  0  0  0
   -3.4247   -2.7586    0.9664 H   0  0  0  0  0  0  0  0  0  0  0  0
   -4.5128   -3.0061   -1.2467 H   0  0  0  0  0  0  0  0  0  0  0  0
   -3.8110   -1.6275   -3.1266 H   0  0  0  0  0  0  0  0  0  0  0  0
   -2.0265   -0.0012   -2.8088 H   0  0  0  0  0  0  0  0  0  0  0  0
    0.9007   -0.8499   -1.0406 H   0  0  0  0  0  0  0  0  0  0  0  0
    1.9537    1.5671   -1.0874 H   0  0  0  0  0  0  0  0  0  0  0  0
    2.0252    1.2811    0.7361 H   0  0  0  0  0  0  0  0  0  0  0  0
    4.0283    0.5339   -0.5221 H   0  0  0  0  0  0  0  0  0  0  0  0
    2.9007   -0.7037   -1.3382 H   0  0  0  0  0  0  0  0  0  0  0  0
    3.9195   -1.7201    0.6174 H   0  0  0  0  0  0  0  0  0  0  0  0
    3.4436   -0.2920    1.6441 H   0  0  0  0  0  0  0  0  0  0  0  0
    1.7554   -2.4157    0.2367 H   0  0  0  0  0  0  0  0  0  0  0  0
    1.8954   -2.1187    2.0247 H   0  0  0  0  0  0  0  0  0  0  0  0
    0.8001   -0.0597    1.7682 H   0  0  0  0  0  0  0  0  0  0  0  0
  1  2  1  0
  2  3  2  0
  2  4  1  0
  4  5  1  0
  1  6  1  0
  6  7  2  0
  7  8  1  0
  8  9  2  0
  9 10  1  0
 10 11  2  0
  1 12  1  0
 12 13  1  0
 13 14  1  0
 14 15  1  0
 15 16  1  0
 16 17  1  0
 11  6  1  0
 17 12  1  0
  1 18  1  6
  5 19  1  0
  5 20  1  0
  5 21  1  0
  7 22  1  0
  8 23  1  0
  9 24  1  0
 10 25  1  0
 11 26  1  0
 12 27  1  6
 13 28  1  0
 13 29  1  0
 14 30  1  0
 14 31  1  0
 15 32  1  0
 15 33  1  0
 16 34  1  0
 16 35  1  0
 17 36  1  0
M  END
$$$$
