
     RDKit          3D

104110  0  0  0  0  0  0  0  0999 V2000
   -9.1723   -3.5283    1.1132 C   0  0  0  0  0  0  0  0  0  0  0  0
   -8.3423   -3.1213    2.0977 O   0  0  0  0  0  0  0  0  0  0  0  0
   -7.0266   -3.1732    1.9485 C   0  0  0  0  0  0  0  0  0  0  0  0
   -6.2607   -2.3564    0.9982 C   0  0  0  0  0  0  0  0  0  0  0  0
   -6.5329   -2.4390   -0.4555 C   0  0  0  0  0  0  0  0  0  0  0  0
   -5.5001   -1.5373   -1.1177 C   0  0  0  0  0  0  0  0  0  0  0  0
   -4.3319   -2.1068   -1.5431 C   0  0  0  0  0  0  0  0  0  0  0  0
   -3.3711   -1.3032   -2.1464 C   0  0  0  0  0  0  0  0  0  0  0  0
   -2.1364   -1.9278   -2.6443 C   0  0  0  0  0  0  0  0  0  0  0  0
   -1.0631   -2.0593   -1.6119 N   0  0  0  0  0  0  0  0  0  0  0  0
   -0.1555   -1.0224   -1.5809 C   0  0  0  0  0  0  0  0  0  0  0  0
   -0.5076   -0.1026   -2.5034 O   0  0  0  0  0  0  0  0  0  0  0  0
    1.0359   -0.5904   -0.9107 C   0  0  1  0  0  0  0  0  0  0  0  0
    1.3757    0.8146   -1.4866 C   0  0  0  0  0  0  0  0  0  0  0  0
    1.9568    1.6725   -0.5107 N   0  0  0  0  0  0  0  0  0  0  0  0
    1.0981    1.8326    0.6508 C   0  0  0  0  0  0  0  0  0  0  0  0
    0.8513    0.5295    1.3412 C   0  0  0  0  0  0  0  0  0  0  0  0
    1.3628   -0.6033    0.4774 C   0  0  2  0  0  0  0  0  0  0  0  0
    2.8463   -0.8219    0.6812 C   0  0  0  0  0  0  0  0  0  0  0  0
    3.2394   -1.3675    1.8937 C   0  0  0  0  0  0  0  0  0  0  0  0
    4.5795   -1.6343    2.2002 C   0  0  0  0  0  0  0  0  0  0  0  0
    5.5385   -1.3500    1.2787 C   0  0  0  0  0  0  0  0  0  0  0  0
    6.9018   -1.5956    1.5248 O   0  0  0  0  0  0  0  0  0  0  0  0
    7.8804   -1.2602    0.5474 C   0  0  0  0  0  0  0  0  0  0  0  0
    9.2478   -1.6366    0.9996 C   0  0  0  0  0  0  0  0  0  0  0  0
   10.2882   -1.3321    0.1151 O   0  0  0  0  0  0  0  0  0  0  0  0
   10.6033   -0.0377   -0.2628 C   0  0  0  0  0  0  0  0  0  0  0  0
   10.1048    0.6348   -1.3389 C   0  0  0  0  0  0  0  0  0  0  0  0
    8.9702   -0.1609   -2.4101 Cl  0  0  0  0  0  0  0  0  0  0  0  0
   10.4837    1.9247   -1.6234 C   0  0  0  0  0  0  0  0  0  0  0  0
   11.3937    2.5828   -0.8163 C   0  0  0  0  0  0  0  0  0  0  0  0
   11.7916    3.9803   -1.1312 C   0  0  0  0  0  0  0  0  0  0  0  0
   11.9071    1.9310    0.2658 C   0  0  0  0  0  0  0  0  0  0  0  0
   11.5268    0.6432    0.5481 C   0  0  0  0  0  0  0  0  0  0  0  0
   12.2166   -0.1609    1.9543 Cl  0  0  0  0  0  0  0  0  0  0  0  0
    5.1828   -0.8160    0.0828 C   0  0  0  0  0  0  0  0  0  0  0  0
    3.8289   -0.5607   -0.1960 C   0  0  0  0  0  0  0  0  0  0  0  0
   -1.1674   -3.2235   -0.8268 C   0  0  0  0  0  0  0  0  0  0  0  0
   -0.0532   -3.9002   -0.0933 C   0  0  0  0  0  0  0  0  0  0  0  0
   -1.1469   -3.2713    0.6646 C   0  0  0  0  0  0  0  0  0  0  0  0
   -3.6389    0.0268   -2.2876 C   0  0  0  0  0  0  0  0  0  0  0  0
   -4.8466    0.6155   -1.8466 C   0  0  0  0  0  0  0  0  0  0  0  0
   -5.0122    1.9650   -2.0396 O   0  0  0  0  0  0  0  0  0  0  0  0
   -5.9817    2.8660   -1.7570 C   0  0  0  0  0  0  0  0  0  0  0  0
   -6.3124    3.0838   -0.2906 C   0  0  0  0  0  0  0  0  0  0  0  0
   -5.1426    3.5536    0.5535 C   0  0  0  0  0  0  0  0  0  0  0  0
   -5.5387    3.7429    1.9606 C   0  0  0  0  0  0  0  0  0  0  0  0
   -5.5099    2.8027    2.9350 N   0  0  0  0  0  0  0  0  0  0  0  0
   -5.9199    3.3499    4.0568 N   0  0  0  0  0  0  0  0  0  0  0  0
   -6.2195    4.6154    3.8677 N   0  0  0  0  0  0  0  0  0  0  0  0
   -5.9824    4.8533    2.5729 N   0  0  0  0  0  0  0  0  0  0  0  0
   -7.5544    3.9404   -0.0710 C   0  0  0  0  0  0  0  0  0  0  0  0
   -7.4686    2.5115    0.3846 C   0  0  0  0  0  0  0  0  0  0  0  0
   -5.7612   -0.1961   -1.2641 C   0  0  0  0  0  0  0  0  0  0  0  0
  -10.2472   -3.4257    1.4893 H   0  0  0  0  0  0  0  0  0  0  0  0
   -9.1050   -3.0033    0.1562 H   0  0  0  0  0  0  0  0  0  0  0  0
   -9.0137   -4.6138    0.8622 H   0  0  0  0  0  0  0  0  0  0  0  0
   -6.7308   -4.2914    1.8417 H   0  0  0  0  0  0  0  0  0  0  0  0
   -6.5326   -2.9671    2.9803 H   0  0  0  0  0  0  0  0  0  0  0  0
   -5.1598   -2.5767    1.1534 H   0  0  0  0  0  0  0  0  0  0  0  0
   -6.3941   -1.2765    1.3144 H   0  0  0  0  0  0  0  0  0  0  0  0
   -6.5134   -3.4468   -0.8761 H   0  0  0  0  0  0  0  0  0  0  0  0
   -7.4897   -1.9305   -0.7249 H   0  0  0  0  0  0  0  0  0  0  0  0
   -4.1560   -3.1827   -1.4158 H   0  0  0  0  0  0  0  0  0  0  0  0
   -1.7151   -1.3908   -3.5259 H   0  0  0  0  0  0  0  0  0  0  0  0
   -2.3298   -2.9545   -2.9939 H   0  0  0  0  0  0  0  0  0  0  0  0
    1.8816   -1.2255   -1.4355 H   0  0  0  0  0  0  0  0  0  0  0  0
    1.9456    0.7332   -2.4153 H   0  0  0  0  0  0  0  0  0  0  0  0
    0.3911    1.2842   -1.7999 H   0  0  0  0  0  0  0  0  0  0  0  0
    2.1272    2.6130   -0.8816 H   0  0  0  0  0  0  0  0  0  0  0  0
    1.6042    2.5623    1.3188 H   0  0  0  0  0  0  0  0  0  0  0  0
    0.1288    2.3265    0.3440 H   0  0  0  0  0  0  0  0  0  0  0  0
    1.3095    0.4951    2.3636 H   0  0  0  0  0  0  0  0  0  0  0  0
   -0.2324    0.3325    1.5179 H   0  0  0  0  0  0  0  0  0  0  0  0
    0.9296   -1.5128    1.0236 H   0  0  0  0  0  0  0  0  0  0  0  0
    2.5298   -1.6167    2.6681 H   0  0  0  0  0  0  0  0  0  0  0  0
    4.8322   -2.0556    3.1554 H   0  0  0  0  0  0  0  0  0  0  0  0
    7.8398   -0.1746    0.3242 H   0  0  0  0  0  0  0  0  0  0  0  0
    7.5894   -1.8044   -0.3761 H   0  0  0  0  0  0  0  0  0  0  0  0
    9.4694   -1.1134    1.9672 H   0  0  0  0  0  0  0  0  0  0  0  0
    9.2586   -2.7541    1.1596 H   0  0  0  0  0  0  0  0  0  0  0  0
   10.0515    2.4232   -2.4989 H   0  0  0  0  0  0  0  0  0  0  0  0
   11.2768    4.6823   -0.4460 H   0  0  0  0  0  0  0  0  0  0  0  0
   12.8826    4.0562   -0.9555 H   0  0  0  0  0  0  0  0  0  0  0  0
   11.5537    4.2029   -2.2035 H   0  0  0  0  0  0  0  0  0  0  0  0
   12.6351    2.4108    0.9384 H   0  0  0  0  0  0  0  0  0  0  0  0
    5.9396   -0.5793   -0.6717 H   0  0  0  0  0  0  0  0  0  0  0  0
    3.6533   -0.1763   -1.1651 H   0  0  0  0  0  0  0  0  0  0  0  0
   -1.9889   -3.9916   -1.1718 H   0  0  0  0  0  0  0  0  0  0  0  0
    0.9480   -3.4474   -0.2314 H   0  0  0  0  0  0  0  0  0  0  0  0
    0.0290   -5.0200   -0.1398 H   0  0  0  0  0  0  0  0  0  0  0  0
   -1.0586   -2.3827    1.2674 H   0  0  0  0  0  0  0  0  0  0  0  0
   -1.8235   -4.0344    1.1727 H   0  0  0  0  0  0  0  0  0  0  0  0
   -2.9288    0.7152   -2.7688 H   0  0  0  0  0  0  0  0  0  0  0  0
   -6.9338    2.6443   -2.3226 H   0  0  0  0  0  0  0  0  0  0  0  0
   -5.6709    3.8826   -2.1510 H   0  0  0  0  0  0  0  0  0  0  0  0
   -4.3045    2.8283    0.4839 H   0  0  0  0  0  0  0  0  0  0  0  0
   -4.8159    4.5365    0.1332 H   0  0  0  0  0  0  0  0  0  0  0  0
   -6.1345    5.7912    2.1699 H   0  0  0  0  0  0  0  0  0  0  0  0
   -8.1581    4.1594   -0.9953 H   0  0  0  0  0  0  0  0  0  0  0  0
   -7.6135    4.6684    0.7380 H   0  0  0  0  0  0  0  0  0  0  0  0
   -7.4018    2.3002    1.4794 H   0  0  0  0  0  0  0  0  0  0  0  0
   -8.2056    1.8502   -0.1246 H   0  0  0  0  0  0  0  0  0  0  0  0
   -6.7033    0.1738   -0.9159 H   0  0  0  0  0  0  0  0  0  0  0  0
  1  2  1  0
  2  3  1  0
  3  4  1  0
  4  5  1  0
  5  6  1  0
  6  7  2  0
  7  8  1  0
  8  9  1  0
  9 10  1  0
 10 11  1  0
 11 12  2  0
 11 13  1  0
 13 14  1  0
 14 15  1  0
 15 16  1  0
 16 17  1  0
 17 18  1  0
 18 19  1  0
 19 20  2  0
 20 21  1  0
 21 22  2  0
 22 23  1  0
 23 24  1  0
 24 25  1  0
 25 26  1  0
 26 27  1  0
 27 28  2  0
 28 29  1  0
 28 30  1  0
 30 31  2  0
 31 32  1  0
 31 33  1  0
 33 34  2  0
 34 35  1  0
 22 36  1  0
 36 37  2  0
 10 38  1  0
 38 39  1  0
 39 40  1  0
  8 41  2  0
 41 42  1  0
 42 43  1  0
 43 44  1  0
 44 45  1  0
 45 46  1  0
 46 47  1  0
 47 48  2  0
 48 49  1  0
 49 50  2  0
 50 51  1  0
 45 52  1  0
 52 53  1  0
 42 54  2  0
 54  6  1  0
 18 13  1  0
 37 19  1  0
 40 38  1  0
 53 45  1  0
 34 27  1  0
 51 47  1  0
  1 55  1  0
  1 56  1  0
  1 57  1  0
  3 58  1  0
  3 59  1  0
  4 60  1  0
  4 61  1  0
  5 62  1  0
  5 63  1  0
  7 64  1  0
  9 65  1  0
  9 66  1  0
 13 67  1  6
 14 68  1  0
 14 69  1  0
 15 70  1  0
 16 71  1  0
 16 72  1  0
 17 73  1  0
 17 74  1  0
 18 75  1  1
 20 76  1  0
 21 77  1  0
 24 78  1  0
 24 79  1  0
 25 80  1  0
 25 81  1  0
 30 82  1  0
 32 83  1  0
 32 84  1  0
 32 85  1  0
 33 86  1  0
 36 87  1  0
 37 88  1  0
 38 89  1  0
 39 90  1  0
 39 91  1  0
 40 92  1  0
 40 93  1  0
 41 94  1  0
 44 95  1  0
 44 96  1  0
 46 97  1  0
 46 98  1  0
 51 99  1  0
 52100  1  0
 52101  1  0
 53102  1  0
 53103  1  0
 54104  1  0
M  END
$$$$
