
     RDKit          3D

 59 62  0  0  0  0  0  0  0  0999 V2000
    4.9124    2.4753    1.6746 C   0  0  0  0  0  0  0  0  0  0  0  0
    5.0757    1.5234    0.6402 O   0  0  0  0  0  0  0  0  0  0  0  0
    3.9906    0.7900    0.1874 C   0  0  0  0  0  0  0  0  0  0  0  0
    2.7160    0.9662    0.7325 C   0  0  0  0  0  0  0  0  0  0  0  0
    1.6370    0.2564    0.3024 C   0  0  0  0  0  0  0  0  0  0  0  0
    0.2857    0.4390    0.8758 C   0  0  0  0  0  0  0  0  0  0  0  0
    0.0776    1.3487    1.8790 C   0  0  0  0  0  0  0  0  0  0  0  0
   -1.1962    1.5244    2.4232 C   0  0  0  0  0  0  0  0  0  0  0  0
   -1.6609    2.3312    3.3924 N   0  0  0  0  0  0  0  0  0  0  0  0
   -2.9420    2.1140    3.5310 N   0  0  0  0  0  0  0  0  0  0  0  0
   -3.8846    2.7482    4.4569 C   0  0  0  0  0  0  0  0  0  0  0  0
   -3.3259    1.1492    2.6389 C   0  0  0  0  0  0  0  0  0  0  0  0
   -2.2209    0.7548    1.9157 C   0  0  0  0  0  0  0  0  0  0  0  0
   -2.0376   -0.1746    0.8992 C   0  0  0  0  0  0  0  0  0  0  0  0
   -2.9833   -0.9242    0.3900 O   0  0  0  0  0  0  0  0  0  0  0  0
   -4.2468   -1.2908    0.3686 C   0  0  2  0  0  0  0  0  0  0  0  0
   -4.4719   -2.7854    0.7198 C   0  0  0  0  0  0  0  0  0  0  0  0
   -4.9605   -1.0332   -0.9791 C   0  0  1  0  0  0  0  0  0  0  0  0
   -4.9234    0.4254   -1.2900 C   0  0  0  0  0  0  0  0  0  0  0  0
   -4.9339    0.4444   -2.7357 N   0  0  0  0  0  0  0  0  0  0  0  0
   -4.4539   -0.8001   -3.2341 C   0  0  0  0  0  0  0  0  0  0  0  0
   -4.1741   -1.0902   -4.4224 O   0  0  0  0  0  0  0  0  0  0  0  0
   -4.3159   -1.7785   -2.0982 C   0  0  0  0  0  0  0  0  0  0  0  0
   -0.7371   -0.2791    0.4212 N   0  0  0  0  0  0  0  0  0  0  0  0
    1.8349   -0.6615   -0.7066 C   0  0  0  0  0  0  0  0  0  0  0  0
    3.1012   -0.8574   -1.2699 C   0  0  0  0  0  0  0  0  0  0  0  0
    4.1904   -0.1386   -0.8333 C   0  0  0  0  0  0  0  0  0  0  0  0
    5.4669   -0.2732   -1.3357 O   0  0  0  0  0  0  0  0  0  0  0  0
    5.8939   -1.1296   -2.3463 C   0  0  0  0  0  0  0  0  0  0  0  0
    6.5228   -0.3776   -3.5077 C   0  0  0  0  0  0  0  0  0  0  0  0
    6.9876   -2.0453   -1.8140 C   0  0  0  0  0  0  0  0  0  0  0  0
    4.5275    1.9723    2.5933 H   0  0  0  0  0  0  0  0  0  0  0  0
    5.8848    2.9758    1.8709 H   0  0  0  0  0  0  0  0  0  0  0  0
    4.2116    3.2980    1.3703 H   0  0  0  0  0  0  0  0  0  0  0  0
    2.6251    1.6970    1.5168 H   0  0  0  0  0  0  0  0  0  0  0  0
    0.8604    1.9629    2.2940 H   0  0  0  0  0  0  0  0  0  0  0  0
   -3.5045    3.7472    4.7763 H   0  0  0  0  0  0  0  0  0  0  0  0
   -3.8964    2.1120    5.3665 H   0  0  0  0  0  0  0  0  0  0  0  0
   -4.8625    2.9056    4.0007 H   0  0  0  0  0  0  0  0  0  0  0  0
   -4.3100    0.7651    2.5199 H   0  0  0  0  0  0  0  0  0  0  0  0
   -4.9020   -0.7716    1.0939 H   0  0  0  0  0  0  0  0  0  0  0  0
   -4.1508   -2.8767    1.7773 H   0  0  0  0  0  0  0  0  0  0  0  0
   -3.9372   -3.4370    0.0264 H   0  0  0  0  0  0  0  0  0  0  0  0
   -5.5739   -2.9081    0.7017 H   0  0  0  0  0  0  0  0  0  0  0  0
   -5.9992   -1.3968   -0.8605 H   0  0  0  0  0  0  0  0  0  0  0  0
   -3.9806    0.8413   -0.8725 H   0  0  0  0  0  0  0  0  0  0  0  0
   -5.8303    0.9076   -0.8525 H   0  0  0  0  0  0  0  0  0  0  0  0
   -5.2514    1.2628   -3.3119 H   0  0  0  0  0  0  0  0  0  0  0  0
   -3.2613   -2.0125   -1.9638 H   0  0  0  0  0  0  0  0  0  0  0  0
   -4.9072   -2.6959   -2.3873 H   0  0  0  0  0  0  0  0  0  0  0  0
    1.0041   -1.2385   -1.0694 H   0  0  0  0  0  0  0  0  0  0  0  0
    3.2310   -1.5825   -2.0594 H   0  0  0  0  0  0  0  0  0  0  0  0
    5.0911   -1.7436   -2.7556 H   0  0  0  0  0  0  0  0  0  0  0  0
    7.1261    0.4808   -3.1659 H   0  0  0  0  0  0  0  0  0  0  0  0
    5.7204   -0.1036   -4.2176 H   0  0  0  0  0  0  0  0  0  0  0  0
    7.1899   -1.0902   -4.0326 H   0  0  0  0  0  0  0  0  0  0  0  0
    7.4686   -2.5068   -2.7070 H   0  0  0  0  0  0  0  0  0  0  0  0
    6.4972   -2.8029   -1.1809 H   0  0  0  0  0  0  0  0  0  0  0  0
    7.7059   -1.4132   -1.2655 H   0  0  0  0  0  0  0  0  0  0  0  0
  1  2  1  0
  2  3  1  0
  3  4  2  0
  4  5  1  0
  5  6  1  0
  6  7  2  0
  7  8  1  0
  8  9  2  0
  9 10  1  0
 10 11  1  0
 10 12  1  0
 12 13  2  0
 13 14  1  0
 14 15  1  0
 15 16  1  0
 16 17  1  0
 16 18  1  0
 18 19  1  0
 19 20  1  0
 20 21  1  0
 21 22  2  0
 21 23  1  0
 14 24  2  0
  5 25  2  0
 25 26  1  0
 26 27  2  0
 27 28  1  0
 28 29  1  0
 29 30  1  0
 29 31  1  0
 27  3  1  0
 24  6  1  0
 13  8  1  0
 23 18  1  0
  1 32  1  0
  1 33  1  0
  1 34  1  0
  4 35  1  0
  7 36  1  0
 11 37  1  0
 11 38  1  0
 11 39  1  0
 12 40  1  0
 16 41  1  1
 17 42  1  0
 17 43  1  0
 17 44  1  0
 18 45  1  1
 19 46  1  0
 19 47  1  0
 20 48  1  0
 23 49  1  0
 23 50  1  0
 25 51  1  0
 26 52  1  0
 29 53  1  0
 30 54  1  0
 30 55  1  0
 30 56  1  0
 31 57  1  0
 31 58  1  0
 31 59  1  0
M  END
$$$$
