
     RDKit          3D

 46 49  0  0  0  0  0  0  0  0999 V2000
    6.2452    1.5774    1.0970 C   0  0  0  0  0  0  0  0  0  0  0  0
    5.0005    2.2128    1.1821 O   0  0  0  0  0  0  0  0  0  0  0  0
    3.9161    1.7795    0.4232 C   0  0  0  0  0  0  0  0  0  0  0  0
    2.6814    2.4049    0.5034 C   0  0  0  0  0  0  0  0  0  0  0  0
    1.6437    1.9306   -0.2731 C   0  0  0  0  0  0  0  0  0  0  0  0
    1.7870    0.8586   -1.1258 C   0  0  0  0  0  0  0  0  0  0  0  0
    0.6937    0.3300   -1.9723 C   0  0  0  0  0  0  0  0  0  0  0  0
   -0.1239   -0.6504   -1.3527 N   0  0  0  0  0  0  0  0  0  0  0  0
   -1.1912   -0.3052   -0.6722 N   0  0  0  0  0  0  0  0  0  0  0  0
   -2.0077   -1.1925   -0.0585 C   0  0  0  0  0  0  0  0  0  0  0  0
   -3.1467   -0.7316    0.6598 N   0  0  0  0  0  0  0  0  0  0  0  0
   -3.4202    0.6799    0.7244 C   0  0  0  0  0  0  0  0  0  0  0  0
   -2.9565    1.5408    1.6873 C   0  0  0  0  0  0  0  0  0  0  0  0
   -3.4582    2.8038    1.3689 C   0  0  0  0  0  0  0  0  0  0  0  0
   -3.2210    4.0694    2.1334 C   0  0  0  0  0  0  0  0  0  0  0  0
   -4.1812    2.6497    0.2596 N   0  0  0  0  0  0  0  0  0  0  0  0
   -4.1643    1.3874   -0.1317 N   0  0  0  0  0  0  0  0  0  0  0  0
   -1.7512   -2.5398   -0.1198 C   0  0  0  0  0  0  0  0  0  0  0  0
   -2.5490   -3.4927    0.4868 C   0  0  0  0  0  0  0  0  0  0  0  0
   -2.1976   -4.8179    0.3606 C   0  0  0  0  0  0  0  0  0  0  0  0
   -1.0841   -5.2003   -0.3477 C   0  0  0  0  0  0  0  0  0  0  0  0
   -0.2824   -4.2641   -0.9555 C   0  0  0  0  0  0  0  0  0  0  0  0
   -0.6178   -2.9313   -0.8405 C   0  0  0  0  0  0  0  0  0  0  0  0
    0.1678   -1.9484   -1.4415 C   0  0  0  0  0  0  0  0  0  0  0  0
    1.1718   -2.3628   -2.0749 O   0  0  0  0  0  0  0  0  0  0  0  0
    3.0180    0.2507   -1.1926 C   0  0  0  0  0  0  0  0  0  0  0  0
    4.0838    0.7154   -0.4140 C   0  0  0  0  0  0  0  0  0  0  0  0
    6.1672    0.4841    1.2738 H   0  0  0  0  0  0  0  0  0  0  0  0
    6.9016    2.0090    1.9035 H   0  0  0  0  0  0  0  0  0  0  0  0
    6.7676    1.7467    0.1287 H   0  0  0  0  0  0  0  0  0  0  0  0
    2.5936    3.2436    1.1794 H   0  0  0  0  0  0  0  0  0  0  0  0
    0.6862    2.3983   -0.2254 H   0  0  0  0  0  0  0  0  0  0  0  0
    0.1023    1.2432   -2.2852 H   0  0  0  0  0  0  0  0  0  0  0  0
    1.1697   -0.0198   -2.9192 H   0  0  0  0  0  0  0  0  0  0  0  0
   -3.8244   -1.3302    1.1595 H   0  0  0  0  0  0  0  0  0  0  0  0
   -2.3255    1.2759    2.5238 H   0  0  0  0  0  0  0  0  0  0  0  0
   -2.2254    4.0050    2.6101 H   0  0  0  0  0  0  0  0  0  0  0  0
   -3.2269    4.9487    1.4621 H   0  0  0  0  0  0  0  0  0  0  0  0
   -4.0356    4.1779    2.8718 H   0  0  0  0  0  0  0  0  0  0  0  0
   -4.6578    1.0179   -0.9760 H   0  0  0  0  0  0  0  0  0  0  0  0
   -3.4297   -3.2058    1.0482 H   0  0  0  0  0  0  0  0  0  0  0  0
   -2.8100   -5.5997    0.8302 H   0  0  0  0  0  0  0  0  0  0  0  0
   -0.8198   -6.2415   -0.4391 H   0  0  0  0  0  0  0  0  0  0  0  0
    0.6034   -4.5261   -1.5224 H   0  0  0  0  0  0  0  0  0  0  0  0
    3.2477   -0.5995   -1.8291 H   0  0  0  0  0  0  0  0  0  0  0  0
    5.0594    0.2182   -0.4799 H   0  0  0  0  0  0  0  0  0  0  0  0
  1  2  1  0
  2  3  1  0
  3  4  2  0
  4  5  1  0
  5  6  2  0
  6  7  1  0
  7  8  1  0
  8  9  1  0
  9 10  2  0
 10 11  1  0
 11 12  1  0
 12 13  2  0
 13 14  1  0
 14 15  1  0
 14 16  2  0
 16 17  1  0
 10 18  1  0
 18 19  2  0
 19 20  1  0
 20 21  2  0
 21 22  1  0
 22 23  2  0
 23 24  1  0
 24 25  2  0
  6 26  1  0
 26 27  2  0
 27  3  1  0
 24  8  1  0
 17 12  1  0
 23 18  1  0
  1 28  1  0
  1 29  1  0
  1 30  1  0
  4 31  1  0
  5 32  1  0
  7 33  1  0
  7 34  1  0
 11 35  1  0
 13 36  1  0
 15 37  1  0
 15 38  1  0
 15 39  1  0
 17 40  1  0
 19 41  1  0
 20 42  1  0
 21 43  1  0
 22 44  1  0
 26 45  1  0
 27 46  1  0
M  END
$$$$
