
     RDKit          3D

 45 48  0  0  0  0  0  0  0  0999 V2000
    8.5478   -0.9238   -0.1620 C   0  0  0  0  0  0  0  0  0  0  0  0
    7.1914   -0.7598    0.4137 C   0  0  0  0  0  0  0  0  0  0  0  0
    7.0108   -1.0853    1.6171 O   0  0  0  0  0  0  0  0  0  0  0  0
    6.1059   -0.2603   -0.3172 N   0  0  0  0  0  0  0  0  0  0  0  0
    4.7332    0.0435   -0.1812 C   0  0  0  0  0  0  0  0  0  0  0  0
    4.5432    1.3637    0.2366 C   0  0  0  0  0  0  0  0  0  0  0  0
    3.2726    1.8782    0.4420 C   0  0  0  0  0  0  0  0  0  0  0  0
    2.1858    1.0514    0.2230 C   0  0  0  0  0  0  0  0  0  0  0  0
    2.3872   -0.2472   -0.1881 C   0  0  0  0  0  0  0  0  0  0  0  0
    1.2826   -1.1079   -0.3911 N   0  0  0  0  0  0  0  0  0  0  0  0
   -0.0835   -0.7738   -0.2148 C   0  0  0  0  0  0  0  0  0  0  0  0
   -0.3320   -0.6333    1.1039 N   0  0  0  0  0  0  0  0  0  0  0  0
   -1.5792   -0.3264    1.5466 C   0  0  0  0  0  0  0  0  0  0  0  0
   -2.0889   -0.1193    2.8264 C   0  0  0  0  0  0  0  0  0  0  0  0
   -3.4183    0.1755    2.6386 C   0  0  0  0  0  0  0  0  0  0  0  0
   -3.6660    0.1406    1.3278 N   0  0  0  0  0  0  0  0  0  0  0  0
   -2.5809   -0.1595    0.6347 N   0  0  0  0  0  0  0  0  0  0  0  0
   -2.3230   -0.3006   -0.7030 C   0  0  0  0  0  0  0  0  0  0  0  0
   -3.3253   -0.1435   -1.6928 N   0  0  0  0  0  0  0  0  0  0  0  0
   -4.7277    0.0179   -1.4949 C   0  0  0  0  0  0  0  0  0  0  0  0
   -5.4728   -0.7450   -0.6279 C   0  0  0  0  0  0  0  0  0  0  0  0
   -6.8368   -0.4589   -0.4355 C   0  0  0  0  0  0  0  0  0  0  0  0
   -7.2784    0.6048   -1.1807 C   0  0  0  0  0  0  0  0  0  0  0  0
   -6.6362    1.4215   -2.0649 C   0  0  0  0  0  0  0  0  0  0  0  0
   -5.2740    1.0842   -2.2117 C   0  0  0  0  0  0  0  0  0  0  0  0
   -1.0670   -0.6087   -1.1100 N   0  0  0  0  0  0  0  0  0  0  0  0
   -1.3286   -0.2082    4.0346 C   0  0  0  0  0  0  0  0  0  0  0  0
   -0.6975   -0.2815    5.0055 N   0  0  0  0  0  0  0  0  0  0  0  0
    3.6267   -0.7498   -0.3891 C   0  0  0  0  0  0  0  0  0  0  0  0
    8.4588   -0.9790   -1.2644 H   0  0  0  0  0  0  0  0  0  0  0  0
    8.9881   -1.8394    0.2779 H   0  0  0  0  0  0  0  0  0  0  0  0
    9.1690   -0.0074    0.0519 H   0  0  0  0  0  0  0  0  0  0  0  0
    6.2611    0.0070   -1.3173 H   0  0  0  0  0  0  0  0  0  0  0  0
    5.3219    2.0883    0.4388 H   0  0  0  0  0  0  0  0  0  0  0  0
    3.0550    2.8855    0.7671 H   0  0  0  0  0  0  0  0  0  0  0  0
    1.1771    1.4091    0.3685 H   0  0  0  0  0  0  0  0  0  0  0  0
    1.3235   -2.0939   -0.6957 H   0  0  0  0  0  0  0  0  0  0  0  0
   -4.1172    0.3917    3.4364 H   0  0  0  0  0  0  0  0  0  0  0  0
   -3.0370   -0.1455   -2.6882 H   0  0  0  0  0  0  0  0  0  0  0  0
   -5.0610   -1.5894   -0.1005 H   0  0  0  0  0  0  0  0  0  0  0  0
   -7.4642   -1.0212    0.2353 H   0  0  0  0  0  0  0  0  0  0  0  0
   -8.3420    0.8519   -1.0450 H   0  0  0  0  0  0  0  0  0  0  0  0
   -7.1111    2.2294   -2.5831 H   0  0  0  0  0  0  0  0  0  0  0  0
   -4.6835    1.6933   -2.9095 H   0  0  0  0  0  0  0  0  0  0  0  0
    3.8906   -1.7689   -0.7167 H   0  0  0  0  0  0  0  0  0  0  0  0
  1  2  1  0
  2  3  2  0
  2  4  1  0
  4  5  1  0
  5  6  2  0
  6  7  1  0
  7  8  2  0
  8  9  1  0
  9 10  1  0
 10 11  1  0
 11 12  2  0
 12 13  1  0
 13 14  2  0
 14 15  1  0
 15 16  2  0
 16 17  1  0
 17 18  1  0
 18 19  1  0
 19 20  1  0
 20 21  2  0
 21 22  1  0
 22 23  2  0
 23 24  1  0
 24 25  2  0
 18 26  2  0
 14 27  1  0
 27 28  3  0
  9 29  2  0
 29  5  1  0
 26 11  1  0
 17 13  1  0
 25 20  1  0
  1 30  1  0
  1 31  1  0
  1 32  1  0
  4 33  1  0
  6 34  1  0
  7 35  1  0
  8 36  1  0
 10 37  1  0
 15 38  1  0
 19 39  1  0
 21 40  1  0
 22 41  1  0
 23 42  1  0
 24 43  1  0
 25 44  1  0
 29 45  1  0
M  END
$$$$
