
     RDKit          3D

 39 42  0  0  0  0  0  0  0  0999 V2000
    0.8791    2.1567    0.9874 O   0  0  0  0  0  0  0  0  0  0  0  0
    1.1392    1.0691    0.2592 C   0  0  0  0  0  0  0  0  0  0  0  0
    2.5550    0.9091    0.1210 C   0  0  0  0  0  0  0  0  0  0  0  0
    3.2966    0.0048   -0.4534 C   0  0  0  0  0  0  0  0  0  0  0  0
    4.7552    0.0093   -0.4962 C   0  0  0  0  0  0  0  0  0  0  0  0
    5.5127    0.9852    0.0759 C   0  0  0  0  0  0  0  0  0  0  0  0
    6.9188    0.9465    0.0081 C   0  0  0  0  0  0  0  0  0  0  0  0
    7.5235   -0.1027   -0.6515 C   0  0  0  0  0  0  0  0  0  0  0  0
    6.7688   -1.0602   -1.2124 N   0  0  0  0  0  0  0  0  0  0  0  0
    5.4054   -1.0146   -1.1417 C   0  0  0  0  0  0  0  0  0  0  0  0
    0.0123    0.3285   -0.2044 C   0  0  0  0  0  0  0  0  0  0  0  0
   -0.0182   -0.6954   -1.1065 C   0  0  0  0  0  0  0  0  0  0  0  0
   -1.1907   -1.3842   -1.4379 C   0  0  0  0  0  0  0  0  0  0  0  0
   -2.3754   -1.0426   -0.8529 C   0  0  0  0  0  0  0  0  0  0  0  0
   -3.4951   -1.7467   -1.2103 C   0  0  0  0  0  0  0  0  0  0  0  0
   -4.7201   -1.4318   -0.6397 C   0  0  0  0  0  0  0  0  0  0  0  0
   -4.7500   -0.4007    0.2811 C   0  0  0  0  0  0  0  0  0  0  0  0
   -5.9840   -0.1035    0.8381 C   0  0  0  0  0  0  0  0  0  0  0  0
   -6.0692    0.9164    1.7621 C   0  0  0  0  0  0  0  0  0  0  0  0
   -4.9404    1.6122    2.1099 C   0  0  0  0  0  0  0  0  0  0  0  0
   -3.6842    1.3315    1.5622 C   0  0  0  0  0  0  0  0  0  0  0  0
   -3.6214    0.3118    0.6438 C   0  0  0  0  0  0  0  0  0  0  0  0
   -2.3938   -0.0058    0.0702 C   0  0  0  0  0  0  0  0  0  0  0  0
   -1.2348    0.6564    0.3821 C   0  0  0  0  0  0  0  0  0  0  0  0
    3.2000    1.7127    0.5931 H   0  0  0  0  0  0  0  0  0  0  0  0
    2.7772   -0.8190   -0.9103 H   0  0  0  0  0  0  0  0  0  0  0  0
    5.1266    1.8330    0.6056 H   0  0  0  0  0  0  0  0  0  0  0  0
    7.5244    1.7198    0.4612 H   0  0  0  0  0  0  0  0  0  0  0  0
    8.5982   -0.2073   -0.7490 H   0  0  0  0  0  0  0  0  0  0  0  0
    4.8762   -1.8318   -1.6241 H   0  0  0  0  0  0  0  0  0  0  0  0
    0.8972   -0.9634   -1.6061 H   0  0  0  0  0  0  0  0  0  0  0  0
   -1.1012   -2.1884   -2.1719 H   0  0  0  0  0  0  0  0  0  0  0  0
   -3.4950   -2.5579   -1.9292 H   0  0  0  0  0  0  0  0  0  0  0  0
   -5.6068   -1.9751   -0.9100 H   0  0  0  0  0  0  0  0  0  0  0  0
   -6.8711   -0.6747    0.5432 H   0  0  0  0  0  0  0  0  0  0  0  0
   -7.0475    1.1153    2.1712 H   0  0  0  0  0  0  0  0  0  0  0  0
   -5.0506    2.4052    2.8388 H   0  0  0  0  0  0  0  0  0  0  0  0
   -2.8563    1.9310    1.8963 H   0  0  0  0  0  0  0  0  0  0  0  0
   -1.2605    1.4535    1.0971 H   0  0  0  0  0  0  0  0  0  0  0  0
  1  2  2  0
  2  3  1  0
  3  4  2  0
  4  5  1  0
  5  6  2  0
  6  7  1  0
  7  8  2  0
  8  9  1  0
  9 10  2  0
  2 11  1  0
 11 12  2  0
 12 13  1  0
 13 14  2  0
 14 15  1  0
 15 16  2  0
 16 17  1  0
 17 18  2  0
 18 19  1  0
 19 20  2  0
 20 21  1  0
 21 22  2  0
 22 23  1  0
 23 24  2  0
 10  5  1  0
 24 11  1  0
 23 14  1  0
 22 17  1  0
  3 25  1  0
  4 26  1  0
  6 27  1  0
  7 28  1  0
  8 29  1  0
 10 30  1  0
 12 31  1  0
 13 32  1  0
 15 33  1  0
 16 34  1  0
 18 35  1  0
 19 36  1  0
 20 37  1  0
 21 38  1  0
 24 39  1  0
M  END
$$$$
