
     RDKit          3D

 53 55  0  0  0  0  0  0  0  0999 V2000
   -2.6739    2.2707   -0.0410 C   0  0  0  0  0  0  0  0  0  0  0  0
   -1.6530    1.2903   -0.5540 C   0  0  0  0  0  0  0  0  0  0  0  0
   -1.9351    0.3294   -1.4993 C   0  0  0  0  0  0  0  0  0  0  0  0
   -3.2559    0.0726   -2.1751 C   0  0  0  0  0  0  0  0  0  0  0  0
   -4.1811   -0.6602   -1.2034 C   0  0  0  0  0  0  0  0  0  0  0  0
   -3.6723   -1.8508   -0.8071 O   0  0  0  0  0  0  0  0  0  0  0  0
   -4.4583   -2.5877    0.0294 C   0  0  0  0  0  0  0  0  0  0  0  0
   -4.8197   -2.0093    1.3469 C   0  0  0  0  0  0  0  0  0  0  0  0
   -5.5325   -0.8248    1.3171 O   0  0  0  0  0  0  0  0  0  0  0  0
   -0.7546   -0.3560   -1.6971 C   0  0  0  0  0  0  0  0  0  0  0  0
    0.2230    0.1991   -0.8696 C   0  0  0  0  0  0  0  0  0  0  0  0
    1.6106   -0.2409   -0.7748 C   0  0  0  0  0  0  0  0  0  0  0  0
    2.3647   -0.5114   -1.8967 C   0  0  0  0  0  0  0  0  0  0  0  0
    3.6869   -0.9353   -1.8018 C   0  0  0  0  0  0  0  0  0  0  0  0
    4.2942   -1.1014   -0.5845 C   0  0  0  0  0  0  0  0  0  0  0  0
    5.9481   -1.6325   -0.3863 S   0  0  0  0  0  6  0  0  0  0  0  0
    6.0329   -3.3945   -0.2849 C   0  0  0  0  0  0  0  0  0  0  0  0
    6.7931   -1.1772   -1.5405 O   0  0  0  0  0  0  0  0  0  0  0  0
    6.5072   -1.0641    0.9028 O   0  0  0  0  0  0  0  0  0  0  0  0
    3.5521   -0.8345    0.5433 C   0  0  0  0  0  0  0  0  0  0  0  0
    2.2382   -0.4131    0.4519 C   0  0  0  0  0  0  0  0  0  0  0  0
   -0.3557    1.2148   -0.1730 N   0  0  0  0  0  0  0  0  0  0  0  0
    0.2460    2.0724    0.7879 C   0  0  0  0  0  0  0  0  0  0  0  0
   -0.0504    2.0080    2.1263 C   0  0  0  0  0  0  0  0  0  0  0  0
    0.5651    2.8694    3.0094 C   0  0  0  0  0  0  0  0  0  0  0  0
    1.4874    3.8128    2.5837 C   0  0  0  0  0  0  0  0  0  0  0  0
    2.1024    4.6674    3.4326 F   0  0  0  0  0  0  0  0  0  0  0  0
    1.7810    3.8721    1.2344 C   0  0  0  0  0  0  0  0  0  0  0  0
    1.1683    3.0126    0.3464 C   0  0  0  0  0  0  0  0  0  0  0  0
   -2.1945    3.2850    0.0660 H   0  0  0  0  0  0  0  0  0  0  0  0
   -3.0040    1.9805    0.9733 H   0  0  0  0  0  0  0  0  0  0  0  0
   -3.5165    2.3420   -0.7562 H   0  0  0  0  0  0  0  0  0  0  0  0
   -3.7683    1.0008   -2.4492 H   0  0  0  0  0  0  0  0  0  0  0  0
   -3.1087   -0.5540   -3.0558 H   0  0  0  0  0  0  0  0  0  0  0  0
   -5.1534   -0.7559   -1.7265 H   0  0  0  0  0  0  0  0  0  0  0  0
   -4.3646    0.0589   -0.3534 H   0  0  0  0  0  0  0  0  0  0  0  0
   -5.4077   -2.7967   -0.5320 H   0  0  0  0  0  0  0  0  0  0  0  0
   -3.9709   -3.6070    0.1780 H   0  0  0  0  0  0  0  0  0  0  0  0
   -5.4220   -2.7268    1.9510 H   0  0  0  0  0  0  0  0  0  0  0  0
   -3.8674   -1.9019    1.9407 H   0  0  0  0  0  0  0  0  0  0  0  0
   -6.4634   -1.0561    1.0321 H   0  0  0  0  0  0  0  0  0  0  0  0
   -0.5999   -1.1935   -2.3835 H   0  0  0  0  0  0  0  0  0  0  0  0
    1.9157   -0.3908   -2.8829 H   0  0  0  0  0  0  0  0  0  0  0  0
    4.2501   -1.1388   -2.7023 H   0  0  0  0  0  0  0  0  0  0  0  0
    5.1820   -3.8867   -0.7846 H   0  0  0  0  0  0  0  0  0  0  0  0
    6.0254   -3.6906    0.7847 H   0  0  0  0  0  0  0  0  0  0  0  0
    7.0213   -3.7357   -0.6893 H   0  0  0  0  0  0  0  0  0  0  0  0
    4.0186   -0.9610    1.5139 H   0  0  0  0  0  0  0  0  0  0  0  0
    1.6445   -0.2006    1.3343 H   0  0  0  0  0  0  0  0  0  0  0  0
   -0.7665    1.2747    2.4522 H   0  0  0  0  0  0  0  0  0  0  0  0
    0.3594    2.8506    4.0672 H   0  0  0  0  0  0  0  0  0  0  0  0
    2.5029    4.6130    0.9144 H   0  0  0  0  0  0  0  0  0  0  0  0
    1.4294    3.0929   -0.7154 H   0  0  0  0  0  0  0  0  0  0  0  0
  1  2  1  0
  2  3  2  0
  3  4  1  0
  4  5  1  0
  5  6  1  0
  6  7  1  0
  7  8  1  0
  8  9  1  0
  3 10  1  0
 10 11  2  0
 11 12  1  0
 12 13  2  0
 13 14  1  0
 14 15  2  0
 15 16  1  0
 16 17  1  0
 16 18  2  0
 16 19  2  0
 15 20  1  0
 20 21  2  0
 11 22  1  0
 22 23  1  0
 23 24  2  0
 24 25  1  0
 25 26  2  0
 26 27  1  0
 26 28  1  0
 28 29  2  0
 22  2  1  0
 29 23  1  0
 21 12  1  0
  1 30  1  0
  1 31  1  0
  1 32  1  0
  4 33  1  0
  4 34  1  0
  5 35  1  0
  5 36  1  0
  7 37  1  0
  7 38  1  0
  8 39  1  0
  8 40  1  0
  9 41  1  0
 10 42  1  0
 13 43  1  0
 14 44  1  0
 17 45  1  0
 17 46  1  0
 17 47  1  0
 20 48  1  0
 21 49  1  0
 24 50  1  0
 25 51  1  0
 28 52  1  0
 29 53  1  0
M  END
$$$$
