
     RDKit          3D

 38 41  0  0  0  0  0  0  0  0999 V2000
    1.5200   -2.8501    1.2824 O   0  0  0  0  0  0  0  0  0  0  0  0
    1.2168   -1.7688    1.8897 C   0  0  0  0  0  0  0  0  0  0  0  0
    0.5331   -1.8000    3.1678 C   0  0  0  0  0  0  0  0  0  0  0  0
   -0.7750   -2.2949    3.1261 C   0  0  0  0  0  0  0  0  0  0  0  0
   -1.5346   -2.3764    4.2886 C   0  0  0  0  0  0  0  0  0  0  0  0
   -0.9883   -1.9651    5.4863 C   0  0  0  0  0  0  0  0  0  0  0  0
    0.2970   -1.4764    5.5421 C   0  0  0  0  0  0  0  0  0  0  0  0
    1.0585   -1.3957    4.3724 C   0  0  0  0  0  0  0  0  0  0  0  0
    1.5880   -0.5744    1.2251 N   0  0  0  0  0  0  0  0  0  0  0  0
    1.3149    0.6963    1.8314 C   0  0  0  0  0  0  0  0  0  0  0  0
    1.4550    1.8063    0.8215 C   0  0  0  0  0  0  0  0  0  0  0  0
    0.8979    1.3960   -0.4742 C   0  0  0  0  0  0  0  0  0  0  0  0
    0.0720    1.8865   -1.3845 O   0  0  0  0  0  0  0  0  0  0  0  0
   -0.0951    1.1003   -2.3774 C   0  0  0  0  0  0  0  0  0  0  0  0
   -0.9002    1.2065   -3.6098 C   0  0  0  0  0  0  0  0  0  0  0  0
   -1.5864    2.3475   -3.9509 C   0  0  0  0  0  0  0  0  0  0  0  0
   -2.3536    2.4541   -5.0886 C   0  0  0  0  0  0  0  0  0  0  0  0
   -2.4340    1.3632   -5.9188 C   0  0  0  0  0  0  0  0  0  0  0  0
   -3.1813    1.4618   -7.0322 F   0  0  0  0  0  0  0  0  0  0  0  0
   -1.7357    0.2019   -5.5693 C   0  0  0  0  0  0  0  0  0  0  0  0
   -1.0037    0.1551   -4.4506 N   0  0  0  0  0  0  0  0  0  0  0  0
    0.6654   -0.0151   -2.1509 N   0  0  0  0  0  0  0  0  0  0  0  0
    1.2732    0.1628   -0.9881 C   0  0  0  0  0  0  0  0  0  0  0  0
    2.2178   -0.6208   -0.1168 C   0  0  0  0  0  0  0  0  0  0  0  0
   -1.2166   -2.6172    2.2020 H   0  0  0  0  0  0  0  0  0  0  0  0
   -2.5583   -2.7623    4.2619 H   0  0  0  0  0  0  0  0  0  0  0  0
   -1.6136   -2.0454    6.3795 H   0  0  0  0  0  0  0  0  0  0  0  0
    0.6944   -1.1625    6.4870 H   0  0  0  0  0  0  0  0  0  0  0  0
    2.0735   -1.0207    4.3775 H   0  0  0  0  0  0  0  0  0  0  0  0
    2.0119    0.8864    2.7104 H   0  0  0  0  0  0  0  0  0  0  0  0
    0.3039    0.7185    2.3310 H   0  0  0  0  0  0  0  0  0  0  0  0
    2.5590    1.9963    0.7186 H   0  0  0  0  0  0  0  0  0  0  0  0
    0.9450    2.7235    1.2219 H   0  0  0  0  0  0  0  0  0  0  0  0
   -1.4848    3.1873   -3.2541 H   0  0  0  0  0  0  0  0  0  0  0  0
   -2.8844    3.3477   -5.3499 H   0  0  0  0  0  0  0  0  0  0  0  0
   -1.8443   -0.6159   -6.2637 H   0  0  0  0  0  0  0  0  0  0  0  0
    2.3198   -1.6631   -0.4524 H   0  0  0  0  0  0  0  0  0  0  0  0
    3.1726   -0.0732   -0.1113 H   0  0  0  0  0  0  0  0  0  0  0  0
  1  2  2  0
  2  3  1  0
  3  4  2  0
  4  5  1  0
  5  6  2  0
  6  7  1  0
  7  8  2  0
  2  9  1  0
  9 10  1  0
 10 11  1  0
 11 12  1  0
 12 13  1  0
 13 14  1  0
 14 15  1  0
 15 16  2  0
 16 17  1  0
 17 18  2  0
 18 19  1  0
 18 20  1  0
 20 21  2  0
 14 22  2  0
 22 23  1  0
 23 24  1  0
  8  3  1  0
 24  9  1  0
 23 12  2  0
 21 15  1  0
  4 25  1  0
  5 26  1  0
  6 27  1  0
  7 28  1  0
  8 29  1  0
 10 30  1  0
 10 31  1  0
 11 32  1  0
 11 33  1  0
 16 34  1  0
 17 35  1  0
 20 36  1  0
 24 37  1  0
 24 38  1  0
M  END
$$$$
