
     RDKit          3D

 54 57  0  0  0  0  0  0  0  0999 V2000
   -5.4603    2.8508    0.3663 C   0  0  0  0  0  0  0  0  0  0  0  0
   -5.0333    1.4086    0.5571 C   0  0  0  0  0  0  0  0  0  0  0  0
   -5.8846    0.5410    0.5320 O   0  0  0  0  0  0  0  0  0  0  0  0
   -3.6649    1.1708    0.7497 N   0  0  0  0  0  0  0  0  0  0  0  0
   -2.7440    2.3037    0.8099 C   0  0  0  0  0  0  0  0  0  0  0  0
   -1.8962    2.2526   -0.4565 C   0  0  0  0  0  0  0  0  0  0  0  0
   -1.5805    0.9366   -0.8767 N   0  0  0  0  0  0  0  0  0  0  0  0
   -0.5312    0.5930   -1.7426 C   0  0  0  0  0  0  0  0  0  0  0  0
    0.6954    0.1896   -1.1124 C   0  0  0  0  0  0  0  0  0  0  0  0
    1.7564   -0.2701   -1.9181 C   0  0  0  0  0  0  0  0  0  0  0  0
    2.9521   -0.6496   -1.1421 C   0  0  0  0  0  0  0  0  0  0  0  0
    4.2406   -0.2283   -1.1648 C   0  0  0  0  0  0  0  0  0  0  0  0
    4.9657   -0.8232   -0.1034 C   0  0  0  0  0  0  0  0  0  0  0  0
    6.4276   -0.5379    0.1765 C   0  0  0  0  0  0  0  0  0  0  0  0
    7.1272   -1.6830   -0.0232 F   0  0  0  0  0  0  0  0  0  0  0  0
    6.5332   -0.0201    1.4739 F   0  0  0  0  0  0  0  0  0  0  0  0
    6.8782    0.4288   -0.7028 F   0  0  0  0  0  0  0  0  0  0  0  0
    4.0677   -1.5815    0.4920 C   0  0  0  0  0  0  0  0  0  0  0  0
    4.1823   -2.4284    1.6762 C   0  0  0  0  0  0  0  0  0  0  0  0
    5.4244   -2.4434    2.3571 N   0  0  0  0  0  0  0  0  0  0  0  0
    3.0671   -3.0609    2.0547 N   0  0  0  0  0  0  0  0  0  0  0  0
    1.9054   -2.9992    1.4726 C   0  0  0  0  0  0  0  0  0  0  0  0
    1.8063   -2.1733    0.3460 N   0  0  0  0  0  0  0  0  0  0  0  0
    2.8559   -1.5554   -0.0295 N   0  0  0  0  0  0  0  0  0  0  0  0
    1.6153   -0.3313   -3.2659 C   0  0  0  0  0  0  0  0  0  0  0  0
    0.3674    0.0749   -3.9237 C   0  0  0  0  0  0  0  0  0  0  0  0
   -0.5184    0.4748   -3.0577 C   0  0  0  0  0  0  0  0  0  0  0  0
   -1.8172    1.2568   -3.6854 C   0  0  0  0  0  0  0  0  0  0  0  0
   -2.6057    1.7522   -4.0687 N   0  0  0  0  0  0  0  0  0  0  0  0
   -2.3299   -0.2622   -0.4208 C   0  0  0  0  0  0  0  0  0  0  0  0
   -2.2710   -1.2185   -1.2057 O   0  0  0  0  0  0  0  0  0  0  0  0
   -3.0164   -0.1169    0.8603 C   0  0  0  0  0  0  0  0  0  0  0  0
   -3.8902   -1.2548    1.2153 C   0  0  0  0  0  0  0  0  0  0  0  0
   -1.8904    0.0043    1.9106 C   0  0  0  0  0  0  0  0  0  0  0  0
   -4.8224    3.3131   -0.4364 H   0  0  0  0  0  0  0  0  0  0  0  0
   -5.4328    3.4241    1.2809 H   0  0  0  0  0  0  0  0  0  0  0  0
   -6.5122    2.7891   -0.0319 H   0  0  0  0  0  0  0  0  0  0  0  0
   -3.2602    3.2564    0.9012 H   0  0  0  0  0  0  0  0  0  0  0  0
   -2.0452    2.1916    1.6904 H   0  0  0  0  0  0  0  0  0  0  0  0
   -2.4357    2.8181   -1.2592 H   0  0  0  0  0  0  0  0  0  0  0  0
   -0.9710    2.8097   -0.2325 H   0  0  0  0  0  0  0  0  0  0  0  0
    0.8179    0.2275   -0.0570 H   0  0  0  0  0  0  0  0  0  0  0  0
    4.6963    0.4627   -1.8592 H   0  0  0  0  0  0  0  0  0  0  0  0
    5.5607   -1.8148    3.1836 H   0  0  0  0  0  0  0  0  0  0  0  0
    6.1705   -3.1032    2.0048 H   0  0  0  0  0  0  0  0  0  0  0  0
    0.9981   -3.5149    1.7608 H   0  0  0  0  0  0  0  0  0  0  0  0
    2.4098   -0.6448   -3.9105 H   0  0  0  0  0  0  0  0  0  0  0  0
    0.3005    0.0121   -4.9753 H   0  0  0  0  0  0  0  0  0  0  0  0
   -4.8135   -0.9488    1.7663 H   0  0  0  0  0  0  0  0  0  0  0  0
   -3.3283   -1.8348    2.0196 H   0  0  0  0  0  0  0  0  0  0  0  0
   -4.1001   -1.8915    0.3741 H   0  0  0  0  0  0  0  0  0  0  0  0
   -2.3626    0.4960    2.7638 H   0  0  0  0  0  0  0  0  0  0  0  0
   -0.9833    0.4462    1.5504 H   0  0  0  0  0  0  0  0  0  0  0  0
   -1.6206   -1.0943    2.1264 H   0  0  0  0  0  0  0  0  0  0  0  0
  1  2  1  0
  2  3  2  0
  2  4  1  0
  4  5  1  0
  5  6  1  0
  6  7  1  0
  7  8  1  0
  8  9  2  0
  9 10  1  0
 10 11  1  0
 11 12  2  0
 12 13  1  0
 13 14  1  0
 14 15  1  0
 14 16  1  0
 14 17  1  0
 13 18  2  0
 18 19  1  0
 19 20  1  0
 19 21  2  0
 21 22  1  0
 22 23  2  0
 23 24  1  0
 10 25  2  0
 25 26  1  0
 26 27  2  0
 27 28  1  0
 28 29  3  0
  7 30  1  0
 30 31  2  0
 30 32  1  0
 32 33  1  0
 32 34  1  0
 32  4  1  0
 27  8  1  0
 24 11  1  0
 24 18  1  0
  1 35  1  0
  1 36  1  0
  1 37  1  0
  5 38  1  0
  5 39  1  0
  6 40  1  0
  6 41  1  0
  9 42  1  0
 12 43  1  0
 20 44  1  0
 20 45  1  0
 22 46  1  0
 25 47  1  0
 26 48  1  0
 33 49  1  0
 33 50  1  0
 33 51  1  0
 34 52  1  0
 34 53  1  0
 34 54  1  0
M  END
$$$$
