
     RDKit          3D

 57 60  0  0  0  0  0  0  0  0999 V2000
   -1.0556    2.5469    0.8017 O   0  0  0  0  0  0  0  0  0  0  0  0
   -0.7466    1.3473    1.0956 C   0  0  0  0  0  0  0  0  0  0  0  0
   -1.4529    0.7775    2.1800 N   0  0  0  0  0  0  0  0  0  0  0  0
   -2.4539    1.5445    2.8817 C   0  0  0  0  0  0  0  0  0  0  0  0
   -2.1376    2.3246    3.9764 C   0  0  0  0  0  0  0  0  0  0  0  0
   -3.1078    3.0602    4.6470 C   0  0  0  0  0  0  0  0  0  0  0  0
   -4.4106    3.0013    4.1997 C   0  0  0  0  0  0  0  0  0  0  0  0
   -5.6612    3.9140    5.0185 Cl  0  0  0  0  0  0  0  0  0  0  0  0
   -4.7181    2.2067    3.0889 C   0  0  0  0  0  0  0  0  0  0  0  0
   -3.7536    1.4819    2.4307 C   0  0  0  0  0  0  0  0  0  0  0  0
   -4.0441    0.6451    1.2706 C   0  0  0  0  0  0  0  0  0  0  0  0
   -3.1312   -0.0105    0.6871 O   0  0  0  0  0  0  0  0  0  0  0  0
   -5.3423    0.4964    0.7089 N   0  0  0  0  0  0  0  0  0  0  0  0
   -5.5887   -0.3289   -0.4239 C   0  0  0  0  0  0  0  0  0  0  0  0
   -6.8528   -0.4573   -0.9527 C   0  0  0  0  0  0  0  0  0  0  0  0
   -7.1101   -1.2598   -2.0591 C   0  0  0  0  0  0  0  0  0  0  0  0
   -6.0700   -1.9463   -2.6429 C   0  0  0  0  0  0  0  0  0  0  0  0
   -6.3443   -2.9700   -4.0390 Cl  0  0  0  0  0  0  0  0  0  0  0  0
   -4.8144   -1.8013   -2.0953 C   0  0  0  0  0  0  0  0  0  0  0  0
   -4.5952   -1.0122   -1.0171 N   0  0  0  0  0  0  0  0  0  0  0  0
    0.2785    0.6680    0.3204 C   0  0  0  0  0  0  0  0  0  0  0  0
    0.6602   -0.6263    0.5817 C   0  0  0  0  0  0  0  0  0  0  0  0
    1.6399   -1.2370   -0.1797 C   0  0  0  0  0  0  0  0  0  0  0  0
    2.2688   -0.5795   -1.2232 C   0  0  0  0  0  0  0  0  0  0  0  0
    3.3181   -1.2896   -2.0106 C   0  0  0  0  0  0  0  0  0  0  0  0
    4.5906   -1.0617   -1.3931 N   0  0  0  0  0  0  0  0  0  0  0  0
    4.9360    0.3509   -1.3493 C   0  0  0  0  0  0  0  0  0  0  0  0
    6.4300    0.5279   -1.1023 C   0  0  0  0  0  0  0  0  0  0  0  0
    6.8483   -0.6364   -0.2231 C   0  0  0  0  0  0  0  0  0  0  0  0
    6.7790   -1.9437   -0.9721 C   0  0  0  0  0  0  0  0  0  0  0  0
    5.6543   -1.8492   -1.9769 C   0  0  0  0  0  0  0  0  0  0  0  0
    1.8862    0.7184   -1.4854 C   0  0  0  0  0  0  0  0  0  0  0  0
    0.9040    1.3246   -0.7187 C   0  0  0  0  0  0  0  0  0  0  0  0
   -1.2362   -0.2051    2.4612 H   0  0  0  0  0  0  0  0  0  0  0  0
   -1.1225    2.3686    4.3225 H   0  0  0  0  0  0  0  0  0  0  0  0
   -2.8247    3.6621    5.5028 H   0  0  0  0  0  0  0  0  0  0  0  0
   -5.7447    2.1692    2.7480 H   0  0  0  0  0  0  0  0  0  0  0  0
   -6.1444    1.0054    1.1355 H   0  0  0  0  0  0  0  0  0  0  0  0
   -7.6523    0.0894   -0.4792 H   0  0  0  0  0  0  0  0  0  0  0  0
   -8.1035   -1.3591   -2.4726 H   0  0  0  0  0  0  0  0  0  0  0  0
   -3.9815   -2.3205   -2.5237 H   0  0  0  0  0  0  0  0  0  0  0  0
    0.1869   -1.1641    1.3896 H   0  0  0  0  0  0  0  0  0  0  0  0
    1.9305   -2.2546    0.0363 H   0  0  0  0  0  0  0  0  0  0  0  0
    3.1093   -2.3546   -2.1514 H   0  0  0  0  0  0  0  0  0  0  0  0
    3.2996   -0.8160   -3.0337 H   0  0  0  0  0  0  0  0  0  0  0  0
    4.7287    0.7571   -2.3593 H   0  0  0  0  0  0  0  0  0  0  0  0
    4.3773    0.9084   -0.5936 H   0  0  0  0  0  0  0  0  0  0  0  0
    6.5637    1.4617   -0.5516 H   0  0  0  0  0  0  0  0  0  0  0  0
    6.9440    0.4967   -2.0838 H   0  0  0  0  0  0  0  0  0  0  0  0
    6.2555   -0.6495    0.7052 H   0  0  0  0  0  0  0  0  0  0  0  0
    7.9077   -0.4480    0.0543 H   0  0  0  0  0  0  0  0  0  0  0  0
    7.7608   -2.1042   -1.4662 H   0  0  0  0  0  0  0  0  0  0  0  0
    6.5743   -2.7839   -0.2706 H   0  0  0  0  0  0  0  0  0  0  0  0
    6.0685   -1.2506   -2.8381 H   0  0  0  0  0  0  0  0  0  0  0  0
    5.3125   -2.8277   -2.3243 H   0  0  0  0  0  0  0  0  0  0  0  0
    2.3797    1.2262   -2.3006 H   0  0  0  0  0  0  0  0  0  0  0  0
    0.6079    2.3472   -0.9314 H   0  0  0  0  0  0  0  0  0  0  0  0
  1  2  2  0
  2  3  1  0
  3  4  1  0
  4  5  2  0
  5  6  1  0
  6  7  2  0
  7  8  1  0
  7  9  1  0
  9 10  2  0
 10 11  1  0
 11 12  2  0
 11 13  1  0
 13 14  1  0
 14 15  2  0
 15 16  1  0
 16 17  2  0
 17 18  1  0
 17 19  1  0
 19 20  2  0
  2 21  1  0
 21 22  2  0
 22 23  1  0
 23 24  2  0
 24 25  1  0
 25 26  1  0
 26 27  1  0
 27 28  1  0
 28 29  1  0
 29 30  1  0
 30 31  1  0
 24 32  1  0
 32 33  2  0
 10  4  1  0
 20 14  1  0
 33 21  1  0
 31 26  1  0
  3 34  1  0
  5 35  1  0
  6 36  1  0
  9 37  1  0
 13 38  1  0
 15 39  1  0
 16 40  1  0
 19 41  1  0
 22 42  1  0
 23 43  1  0
 25 44  1  0
 25 45  1  0
 27 46  1  0
 27 47  1  0
 28 48  1  0
 28 49  1  0
 29 50  1  0
 29 51  1  0
 30 52  1  0
 30 53  1  0
 31 54  1  0
 31 55  1  0
 32 56  1  0
 33 57  1  0
M  END
$$$$
