
     RDKit          3D

 44 46  0  0  0  0  0  0  0  0999 V2000
   -8.2868   -0.0362    1.9818 N   0  0  0  0  0  0  0  0  0  0  0  0
   -6.9923    0.1883    1.4586 C   0  0  0  0  0  0  0  0  0  0  0  0
   -6.6526    1.3094    0.8120 N   0  0  0  0  0  0  0  0  0  0  0  0
   -5.4420    1.5485    0.3091 C   0  0  0  0  0  0  0  0  0  0  0  0
   -4.4746    0.5768    0.4647 C   0  0  0  0  0  0  0  0  0  0  0  0
   -3.1672    0.7802   -0.0528 N   0  0  0  0  0  0  0  0  0  0  0  0
   -2.8385    0.3765   -1.3780 C   0  0  0  0  0  0  0  0  0  0  0  0
   -3.7219   -0.1700   -2.1034 O   0  0  0  0  0  0  0  0  0  0  0  0
   -1.5073    0.5854   -1.8996 C   0  0  0  0  0  0  0  0  0  0  0  0
   -0.4022   -0.0201   -1.3501 C   0  0  0  0  0  0  0  0  0  0  0  0
    0.8362    0.2154   -1.8878 C   0  0  0  0  0  0  0  0  0  0  0  0
    2.0382   -0.3696   -1.3840 N   0  0  0  0  0  0  0  0  0  0  0  0
    2.8244    0.2318   -0.3849 C   0  0  0  0  0  0  0  0  0  0  0  0
    2.4185    1.3429    0.0668 O   0  0  0  0  0  0  0  0  0  0  0  0
    4.0616   -0.3576    0.1423 C   0  0  0  0  0  0  0  0  0  0  0  0
    4.5557   -1.5630   -0.3002 C   0  0  0  0  0  0  0  0  0  0  0  0
    5.7357   -2.1089    0.2114 C   0  0  0  0  0  0  0  0  0  0  0  0
    6.4455   -1.4419    1.1882 C   0  0  0  0  0  0  0  0  0  0  0  0
    5.9493   -0.2297    1.6338 C   0  0  0  0  0  0  0  0  0  0  0  0
    6.7321    0.4737    2.6893 C   0  0  0  0  0  0  0  0  0  0  0  0
    7.9487    0.9010    2.1411 F   0  0  0  0  0  0  0  0  0  0  0  0
    6.0876    1.6134    3.1142 F   0  0  0  0  0  0  0  0  0  0  0  0
    7.0444   -0.3487    3.7374 F   0  0  0  0  0  0  0  0  0  0  0  0
    4.7715    0.3074    1.1179 C   0  0  0  0  0  0  0  0  0  0  0  0
    0.9689    1.0595   -2.9788 C   0  0  0  0  0  0  0  0  0  0  0  0
   -0.1256    1.6800   -3.5493 C   0  0  0  0  0  0  0  0  0  0  0  0
   -1.3498    1.4322   -2.9990 C   0  0  0  0  0  0  0  0  0  0  0  0
   -2.7816    2.1987   -3.6886 Cl  0  0  0  0  0  0  0  0  0  0  0  0
   -4.7692   -0.5904    1.1188 C   0  0  0  0  0  0  0  0  0  0  0  0
   -6.0375   -0.8083    1.6301 C   0  0  0  0  0  0  0  0  0  0  0  0
   -6.4471   -2.2837    2.4684 Cl  0  0  0  0  0  0  0  0  0  0  0  0
   -8.8995    0.7296    2.3390 H   0  0  0  0  0  0  0  0  0  0  0  0
   -8.6655   -1.0004    2.0219 H   0  0  0  0  0  0  0  0  0  0  0  0
   -5.1791    2.4613   -0.2125 H   0  0  0  0  0  0  0  0  0  0  0  0
   -2.4026    1.2341    0.5243 H   0  0  0  0  0  0  0  0  0  0  0  0
   -0.4881   -0.6816   -0.4987 H   0  0  0  0  0  0  0  0  0  0  0  0
    2.3258   -1.2890   -1.7937 H   0  0  0  0  0  0  0  0  0  0  0  0
    4.0301   -2.1169   -1.0633 H   0  0  0  0  0  0  0  0  0  0  0  0
    6.1148   -3.0760   -0.1569 H   0  0  0  0  0  0  0  0  0  0  0  0
    7.3677   -1.8527    1.5989 H   0  0  0  0  0  0  0  0  0  0  0  0
    4.4283    1.2704    1.5096 H   0  0  0  0  0  0  0  0  0  0  0  0
    1.9526    1.2599   -3.4228 H   0  0  0  0  0  0  0  0  0  0  0  0
   -0.0035    2.3474   -4.4149 H   0  0  0  0  0  0  0  0  0  0  0  0
   -4.0033   -1.3551    1.2399 H   0  0  0  0  0  0  0  0  0  0  0  0
  1  2  1  0
  2  3  2  0
  3  4  1  0
  4  5  2  0
  5  6  1  0
  6  7  1  0
  7  8  2  0
  7  9  1  0
  9 10  2  0
 10 11  1  0
 11 12  1  0
 12 13  1  0
 13 14  2  0
 13 15  1  0
 15 16  2  0
 16 17  1  0
 17 18  2  0
 18 19  1  0
 19 20  1  0
 20 21  1  0
 20 22  1  0
 20 23  1  0
 19 24  2  0
 11 25  2  0
 25 26  1  0
 26 27  2  0
 27 28  1  0
  5 29  1  0
 29 30  2  0
 30 31  1  0
 30  2  1  0
 27  9  1  0
 24 15  1  0
  1 32  1  0
  1 33  1  0
  4 34  1  0
  6 35  1  0
 10 36  1  0
 12 37  1  0
 16 38  1  0
 17 39  1  0
 18 40  1  0
 24 41  1  0
 25 42  1  0
 26 43  1  0
 29 44  1  0
M  END
$$$$
