
     RDKit          3D

 25 26  0  0  0  0  0  0  0  0999 V2000
    5.0035   -0.5844    1.4189 N   0  0  0  0  0  0  0  0  0  0  0  0
    3.6432   -0.4977    1.0654 N   0  0  0  0  0  0  0  0  0  0  0  0
    3.2706   -0.3666   -0.3042 C   0  0  0  0  0  0  0  0  0  0  0  0
    4.1873   -0.3301   -1.1921 O   0  0  0  0  0  0  0  0  0  0  0  0
    1.8776   -0.2744   -0.7061 C   0  0  0  0  0  0  0  0  0  0  0  0
    0.8118   -0.3033    0.1655 C   0  0  0  0  0  0  0  0  0  0  0  0
   -0.3192   -0.1915   -0.5992 C   0  0  0  0  0  0  0  0  0  0  0  0
   -1.7176   -0.1644   -0.2267 C   0  0  0  0  0  0  0  0  0  0  0  0
   -2.6579   -0.0376   -1.2624 C   0  0  0  0  0  0  0  0  0  0  0  0
   -4.0098   -0.0031   -1.0004 C   0  0  0  0  0  0  0  0  0  0  0  0
   -4.4530   -0.0945    0.3018 C   0  0  0  0  0  0  0  0  0  0  0  0
   -6.1644   -0.0560    0.6946 Cl  0  0  0  0  0  0  0  0  0  0  0  0
   -3.5686   -0.2186    1.3331 C   0  0  0  0  0  0  0  0  0  0  0  0
   -2.1962   -0.2495    1.0189 C   0  0  0  0  0  0  0  0  0  0  0  0
   -1.0889   -0.4106    2.3783 Cl  0  0  0  0  0  0  0  0  0  0  0  0
    0.1270   -0.1000   -1.9039 N   0  0  0  0  0  0  0  0  0  0  0  0
    1.4312   -0.1494   -1.9661 N   0  0  0  0  0  0  0  0  0  0  0  0
    5.3377   -1.5501    1.5003 H   0  0  0  0  0  0  0  0  0  0  0  0
    5.6060    0.0379    0.8633 H   0  0  0  0  0  0  0  0  0  0  0  0
    2.8795   -0.5249    1.7673 H   0  0  0  0  0  0  0  0  0  0  0  0
    0.9214   -0.3965    1.2162 H   0  0  0  0  0  0  0  0  0  0  0  0
   -2.3398    0.0361   -2.2930 H   0  0  0  0  0  0  0  0  0  0  0  0
   -4.7273    0.0944   -1.7996 H   0  0  0  0  0  0  0  0  0  0  0  0
   -3.8622   -0.2938    2.3696 H   0  0  0  0  0  0  0  0  0  0  0  0
    2.0082   -0.0998   -2.8396 H   0  0  0  0  0  0  0  0  0  0  0  0
  1  2  1  0
  2  3  1  0
  3  4  2  0
  3  5  1  0
  5  6  2  0
  6  7  1  0
  7  8  1  0
  8  9  2  0
  9 10  1  0
 10 11  2  0
 11 12  1  0
 11 13  1  0
 13 14  2  0
 14 15  1  0
  7 16  2  0
 16 17  1  0
 17  5  1  0
 14  8  1  0
  1 18  1  0
  1 19  1  0
  2 20  1  0
  6 21  1  0
  9 22  1  0
 10 23  1  0
 13 24  1  0
 17 25  1  0
M  END
$$$$
