
     RDKit          3D

 47 50  0  0  0  0  0  0  0  0999 V2000
   10.3845    0.0309   -0.7312 C   0  0  0  0  0  0  0  0  0  0  0  0
    9.2904   -0.1050   -0.9892 C   0  0  0  0  0  0  0  0  0  0  0  0
    7.8444   -0.2609   -1.3180 C   0  0  0  0  0  0  0  0  0  0  0  0
    7.1130    0.1132   -0.1882 O   0  0  0  0  0  0  0  0  0  0  0  0
    5.7193    0.0995   -0.1785 C   0  0  0  0  0  0  0  0  0  0  0  0
    5.0788    0.4835    0.9624 C   0  0  0  0  0  0  0  0  0  0  0  0
    3.7405    0.4830    1.0021 N   0  0  0  0  0  0  0  0  0  0  0  0
    3.0381    0.0973   -0.1039 C   0  0  0  0  0  0  0  0  0  0  0  0
    1.5604    0.1369   -0.0109 C   0  0  0  0  0  0  0  0  0  0  0  0
    0.9191   -0.2228   -1.0113 O   0  0  0  0  0  0  0  0  0  0  0  0
    0.8855    0.5596    1.1434 N   0  0  0  0  0  0  0  0  0  0  0  0
   -0.4960    0.6510    1.3644 C   0  0  0  0  0  0  0  0  0  0  0  0
   -0.9257    1.0589    2.6172 C   0  0  0  0  0  0  0  0  0  0  0  0
   -2.2547    1.1912    2.9415 C   0  0  0  0  0  0  0  0  0  0  0  0
   -3.1830    0.8952    1.9455 C   0  0  0  0  0  0  0  0  0  0  0  0
   -4.8576    1.0569    2.3636 Cl  0  0  0  0  0  0  0  0  0  0  0  0
   -2.8102    0.4905    0.6973 C   0  0  0  0  0  0  0  0  0  0  0  0
   -3.8308    0.1843   -0.3600 C   0  0  1  0  0  0  0  0  0  0  0  0
   -4.5713    1.4575   -0.7528 C   0  0  0  0  0  0  0  0  0  0  0  0
   -3.6850    2.4081   -1.2337 F   0  0  0  0  0  0  0  0  0  0  0  0
   -5.3440    1.1217   -1.8786 F   0  0  0  0  0  0  0  0  0  0  0  0
   -3.1003   -0.2180   -1.5340 N   0  0  0  0  0  0  0  0  0  0  0  0
   -3.5874   -1.0194   -2.3879 C   0  0  0  0  0  0  0  0  0  0  0  0
   -2.8164   -1.3745   -3.5235 N   0  0  0  0  0  0  0  0  0  0  0  0
   -4.8753   -1.5197   -2.1657 O   0  0  0  0  0  0  0  0  0  0  0  0
   -5.2186   -1.8766   -0.8326 C   0  0  2  0  0  0  0  0  0  0  0  0
   -6.1745   -0.9744   -0.1442 C   0  0  0  0  0  0  0  0  0  0  0  0
   -4.7339   -0.8812    0.1534 C   0  0  2  0  0  0  0  0  0  0  0  0
   -1.4507    0.3752    0.4293 C   0  0  0  0  0  0  0  0  0  0  0  0
    3.6708   -0.2880   -1.2449 C   0  0  0  0  0  0  0  0  0  0  0  0
    5.0166   -0.2860   -1.2809 N   0  0  0  0  0  0  0  0  0  0  0  0
   11.4329    0.1797   -0.4853 H   0  0  0  0  0  0  0  0  0  0  0  0
    7.6832   -1.3076   -1.5823 H   0  0  0  0  0  0  0  0  0  0  0  0
    7.5598    0.4522   -2.1402 H   0  0  0  0  0  0  0  0  0  0  0  0
    5.6454    0.7926    1.8644 H   0  0  0  0  0  0  0  0  0  0  0  0
    1.5471    0.8421    1.9425 H   0  0  0  0  0  0  0  0  0  0  0  0
   -0.1841    1.2924    3.4040 H   0  0  0  0  0  0  0  0  0  0  0  0
   -2.5530    1.5094    3.9276 H   0  0  0  0  0  0  0  0  0  0  0  0
   -5.2711    1.8225    0.0019 H   0  0  0  0  0  0  0  0  0  0  0  0
   -1.7611   -1.3917   -3.4393 H   0  0  0  0  0  0  0  0  0  0  0  0
   -3.2085   -1.6216   -4.4524 H   0  0  0  0  0  0  0  0  0  0  0  0
   -5.1196   -2.9484   -0.5783 H   0  0  0  0  0  0  0  0  0  0  0  0
   -6.8389   -1.4835    0.5953 H   0  0  0  0  0  0  0  0  0  0  0  0
   -6.6948   -0.1683   -0.6635 H   0  0  0  0  0  0  0  0  0  0  0  0
   -4.4583   -1.3136    1.1658 H   0  0  0  0  0  0  0  0  0  0  0  0
   -1.1851    0.0592   -0.5501 H   0  0  0  0  0  0  0  0  0  0  0  0
    3.0604   -0.5832   -2.0882 H   0  0  0  0  0  0  0  0  0  0  0  0
  1  2  3  0
  2  3  1  0
  3  4  1  0
  4  5  1  0
  5  6  2  0
  6  7  1  0
  7  8  2  0
  8  9  1  0
  9 10  2  0
  9 11  1  0
 11 12  1  0
 12 13  2  0
 13 14  1  0
 14 15  2  0
 15 16  1  0
 15 17  1  0
 17 18  1  0
 18 19  1  6
 19 20  1  0
 19 21  1  0
 18 22  1  0
 22 23  2  0
 23 24  1  0
 23 25  1  0
 25 26  1  0
 26 27  1  0
 27 28  1  0
 17 29  2  0
  8 30  1  0
 30 31  2  0
 31  5  1  0
 29 12  1  0
 28 18  1  0
 28 26  1  0
  1 32  1  0
  3 33  1  0
  3 34  1  0
  6 35  1  0
 11 36  1  0
 13 37  1  0
 14 38  1  0
 19 39  1  0
 24 40  1  0
 24 41  1  0
 26 42  1  1
 27 43  1  0
 27 44  1  0
 28 45  1  1
 29 46  1  0
 30 47  1  0
M  END
$$$$
