
     RDKit          3D

 41 43  0  0  0  0  0  0  0  0999 V2000
    2.6198   -1.8459    2.1757 C   0  0  0  0  0  0  0  0  0  0  0  0
    1.7723   -0.9986    1.2880 C   0  0  0  0  0  0  0  0  0  0  0  0
    0.4755   -0.7082    1.5315 N   0  0  0  0  0  0  0  0  0  0  0  0
    0.0500    0.0624    0.5280 C   0  0  0  0  0  0  0  0  0  0  0  0
   -1.2802    0.6256    0.3072 C   0  0  0  0  0  0  0  0  0  0  0  0
   -2.3535   -0.1116    0.2920 C   0  0  0  0  0  0  0  0  0  0  0  0
   -2.4364   -1.5511    0.4733 C   0  0  0  0  0  0  0  0  0  0  0  0
   -1.5024   -2.3850    0.6593 O   0  0  0  0  0  0  0  0  0  0  0  0
   -3.8341   -1.8615    0.3953 N   0  0  0  0  0  0  0  0  0  0  0  0
   -4.5636   -0.6389    0.1729 C   0  0  0  0  0  0  0  0  0  0  0  0
   -5.9221   -0.3844    0.0249 C   0  0  0  0  0  0  0  0  0  0  0  0
   -6.3819    0.8923   -0.1814 C   0  0  0  0  0  0  0  0  0  0  0  0
   -5.5294    1.9838   -0.2519 C   0  0  0  0  0  0  0  0  0  0  0  0
   -4.1880    1.7179   -0.1036 C   0  0  0  0  0  0  0  0  0  0  0  0
   -3.7118    0.4354    0.1045 C   0  0  0  0  0  0  0  0  0  0  0  0
    1.0976    0.2586   -0.3576 C   0  0  0  0  0  0  0  0  0  0  0  0
    1.0162    1.0738   -1.6223 C   0  0  0  0  0  0  0  0  0  0  0  0
    2.2011   -0.4153    0.1197 C   0  0  0  0  0  0  0  0  0  0  0  0
    3.5323   -0.4452   -0.5349 C   0  0  0  0  0  0  0  0  0  0  0  0
    4.5024    0.5171    0.1580 C   0  0  0  0  0  0  0  0  0  0  0  0
    5.8127    0.4549   -0.5250 C   0  0  0  0  0  0  0  0  0  0  0  0
    5.9696   -0.3248   -1.4911 O   0  0  0  0  0  0  0  0  0  0  0  0
    6.8929    1.2403   -0.1316 O   0  0  0  0  0  0  0  0  0  0  0  0
    2.4983   -1.5551    3.2528 H   0  0  0  0  0  0  0  0  0  0  0  0
    3.6661   -1.8373    1.8890 H   0  0  0  0  0  0  0  0  0  0  0  0
    2.2495   -2.9087    2.1014 H   0  0  0  0  0  0  0  0  0  0  0  0
   -0.0653   -1.0377    2.3896 H   0  0  0  0  0  0  0  0  0  0  0  0
   -1.3950    1.7169    0.1449 H   0  0  0  0  0  0  0  0  0  0  0  0
   -4.2674   -2.8071    0.4821 H   0  0  0  0  0  0  0  0  0  0  0  0
   -6.5987   -1.2310    0.0791 H   0  0  0  0  0  0  0  0  0  0  0  0
   -7.4533    1.1109   -0.3017 H   0  0  0  0  0  0  0  0  0  0  0  0
   -5.9209    2.9815   -0.4155 H   0  0  0  0  0  0  0  0  0  0  0  0
   -3.4671    2.5370   -0.1489 H   0  0  0  0  0  0  0  0  0  0  0  0
    1.8310    0.8091   -2.3131 H   0  0  0  0  0  0  0  0  0  0  0  0
    0.9431    2.1355   -1.3727 H   0  0  0  0  0  0  0  0  0  0  0  0
    0.0593    0.7689   -2.1152 H   0  0  0  0  0  0  0  0  0  0  0  0
    3.9753   -1.4540   -0.3684 H   0  0  0  0  0  0  0  0  0  0  0  0
    3.4980   -0.2915   -1.6109 H   0  0  0  0  0  0  0  0  0  0  0  0
    4.0818    1.5421    0.1591 H   0  0  0  0  0  0  0  0  0  0  0  0
    4.6295    0.2410    1.2205 H   0  0  0  0  0  0  0  0  0  0  0  0
    7.4964    1.6880   -0.8411 H   0  0  0  0  0  0  0  0  0  0  0  0
  1  2  1  0
  2  3  1  0
  3  4  1  0
  4  5  1  0
  5  6  2  0
  6  7  1  0
  7  8  2  0
  7  9  1  0
  9 10  1  0
 10 11  2  0
 11 12  1  0
 12 13  2  0
 13 14  1  0
 14 15  2  0
  4 16  2  0
 16 17  1  0
 16 18  1  0
 18 19  1  0
 19 20  1  0
 20 21  1  0
 21 22  2  0
 21 23  1  0
 18  2  2  0
 15  6  1  0
 15 10  1  0
  1 24  1  0
  1 25  1  0
  1 26  1  0
  3 27  1  0
  5 28  1  0
  9 29  1  0
 11 30  1  0
 12 31  1  0
 13 32  1  0
 14 33  1  0
 17 34  1  0
 17 35  1  0
 17 36  1  0
 19 37  1  0
 19 38  1  0
 20 39  1  0
 20 40  1  0
 23 41  1  0
M  END
$$$$
