
     RDKit          3D

 49 49  0  0  0  0  0  0  0  0999 V2000
   -6.4899    2.3394   -0.4135 C   0  0  0  0  0  0  0  0  0  0  0  0
   -5.9094    1.1377   -0.8948 O   0  0  0  0  0  0  0  0  0  0  0  0
   -4.6919    0.6857   -0.4256 C   0  0  0  0  0  0  0  0  0  0  0  0
   -4.4430    0.2274    0.7898 C   0  0  0  0  0  0  0  0  0  0  0  0
   -5.5496    0.2255    1.6262 O   0  0  0  0  0  0  0  0  0  0  0  0
   -6.3136   -0.9807    1.6496 C   0  0  0  0  0  0  0  0  0  0  0  0
   -3.1092   -0.2154    1.1434 C   0  0  0  0  0  0  0  0  0  0  0  0
   -3.0841   -0.6191    2.3595 O   0  0  0  0  0  0  0  0  0  0  0  0
   -1.9595   -0.1920    0.2089 C   0  0  0  0  0  0  0  0  0  0  0  0
   -0.7639   -0.7123    0.8800 C   0  0  0  0  0  0  0  0  0  0  0  0
    0.4648   -0.8099    0.1219 C   0  0  0  0  0  0  0  0  0  0  0  0
    1.5128   -0.0806    0.5691 C   0  0  0  0  0  0  0  0  0  0  0  0
    1.3353    0.7446    1.7698 C   0  0  0  0  0  0  0  0  0  0  0  0
    2.8365   -0.1260   -0.1683 C   0  0  0  0  0  0  0  0  0  0  0  0
    3.8206   -0.6542    0.8796 C   0  0  0  0  0  0  0  0  0  0  0  0
    5.1847   -0.7801    0.3624 C   0  0  0  0  0  0  0  0  0  0  0  0
    5.9458   -0.6168   -0.7110 C   0  0  0  0  0  0  0  0  0  0  0  0
    5.4754   -0.1269   -2.0338 C   0  0  0  0  0  0  0  0  0  0  0  0
    7.4131   -0.9566   -0.5819 C   0  0  0  0  0  0  0  0  0  0  0  0
   -2.2831    0.2668   -0.9521 C   0  0  0  0  0  0  0  0  0  0  0  0
   -1.1494    0.2944   -1.8862 C   0  0  0  0  0  0  0  0  0  0  0  0
   -3.5947    0.7270   -1.3753 C   0  0  0  0  0  0  0  0  0  0  0  0
   -3.7006    1.1379   -2.5530 O   0  0  0  0  0  0  0  0  0  0  0  0
   -7.4643    2.5673   -0.8861 H   0  0  0  0  0  0  0  0  0  0  0  0
   -5.8425    3.2264   -0.5772 H   0  0  0  0  0  0  0  0  0  0  0  0
   -6.6089    2.2137    0.6983 H   0  0  0  0  0  0  0  0  0  0  0  0
   -7.1426   -0.8147    2.3540 H   0  0  0  0  0  0  0  0  0  0  0  0
   -6.7073   -1.1904    0.6252 H   0  0  0  0  0  0  0  0  0  0  0  0
   -5.7110   -1.8558    1.9792 H   0  0  0  0  0  0  0  0  0  0  0  0
   -0.6565   -0.2663    1.8876 H   0  0  0  0  0  0  0  0  0  0  0  0
   -1.0325   -1.7930    1.1336 H   0  0  0  0  0  0  0  0  0  0  0  0
    0.6867   -1.3923   -0.7589 H   0  0  0  0  0  0  0  0  0  0  0  0
    1.4463    0.1044    2.6681 H   0  0  0  0  0  0  0  0  0  0  0  0
    0.4699    1.4198    1.7859 H   0  0  0  0  0  0  0  0  0  0  0  0
    2.2194    1.4498    1.8162 H   0  0  0  0  0  0  0  0  0  0  0  0
    2.7717   -0.7484   -1.0573 H   0  0  0  0  0  0  0  0  0  0  0  0
    3.1640    0.9002   -0.4068 H   0  0  0  0  0  0  0  0  0  0  0  0
    3.3685   -1.6018    1.2480 H   0  0  0  0  0  0  0  0  0  0  0  0
    3.7269    0.0925    1.7205 H   0  0  0  0  0  0  0  0  0  0  0  0
    5.6780   -1.1501    1.2662 H   0  0  0  0  0  0  0  0  0  0  0  0
    4.6940   -0.8195   -2.4581 H   0  0  0  0  0  0  0  0  0  0  0  0
    4.9949    0.8508   -1.9181 H   0  0  0  0  0  0  0  0  0  0  0  0
    6.3410   -0.0516   -2.7240 H   0  0  0  0  0  0  0  0  0  0  0  0
    7.6705   -1.2795    0.4330 H   0  0  0  0  0  0  0  0  0  0  0  0
    8.0042   -0.0558   -0.8311 H   0  0  0  0  0  0  0  0  0  0  0  0
    7.6335   -1.7807   -1.3149 H   0  0  0  0  0  0  0  0  0  0  0  0
   -0.9141   -0.6949   -2.3185 H   0  0  0  0  0  0  0  0  0  0  0  0
   -1.4109    0.9073   -2.8105 H   0  0  0  0  0  0  0  0  0  0  0  0
   -0.3258    0.8469   -1.4393 H   0  0  0  0  0  0  0  0  0  0  0  0
  1  2  1  0
  2  3  1  0
  3  4  2  0
  4  5  1  0
  5  6  1  0
  4  7  1  0
  7  8  2  0
  7  9  1  0
  9 10  1  0
 10 11  1  0
 11 12  2  0
 12 13  1  0
 12 14  1  0
 14 15  1  0
 15 16  1  0
 16 17  2  3
 17 18  1  0
 17 19  1  0
  9 20  2  0
 20 21  1  0
 20 22  1  0
 22 23  2  0
 22  3  1  0
  1 24  1  0
  1 25  1  0
  1 26  1  0
  6 27  1  0
  6 28  1  0
  6 29  1  0
 10 30  1  0
 10 31  1  0
 11 32  1  0
 13 33  1  0
 13 34  1  0
 13 35  1  0
 14 36  1  0
 14 37  1  0
 15 38  1  0
 15 39  1  0
 16 40  1  0
 18 41  1  0
 18 42  1  0
 18 43  1  0
 19 44  1  0
 19 45  1  0
 19 46  1  0
 21 47  1  0
 21 48  1  0
 21 49  1  0
M  END
$$$$
