
     RDKit          3D

 37 39  0  0  0  0  0  0  0  0999 V2000
   -6.0405    2.1221    0.6023 O   0  0  0  0  0  0  0  0  0  0  0  0
   -4.8233    1.8906    0.9075 C   0  0  0  0  0  0  0  0  0  0  0  0
   -4.2456    2.8260    1.8020 N   0  0  0  0  0  0  0  0  0  0  0  0
   -4.9517    3.8833    2.2865 O   0  0  0  0  0  0  0  0  0  0  0  0
   -4.1308    0.7455    0.3545 C   0  0  0  0  0  0  0  0  0  0  0  0
   -4.8356   -0.0839   -0.5065 C   0  0  0  0  0  0  0  0  0  0  0  0
   -4.1920   -1.1731   -1.0392 C   0  0  0  0  0  0  0  0  0  0  0  0
   -2.8613   -1.4344   -0.7187 C   0  0  0  0  0  0  0  0  0  0  0  0
   -2.1792   -0.6027    0.1353 C   0  0  0  0  0  0  0  0  0  0  0  0
   -0.7939   -0.8523    0.4845 C   0  0  0  0  0  0  0  0  0  0  0  0
    0.0030   -1.9080    0.0338 C   0  0  0  0  0  0  0  0  0  0  0  0
    1.2304   -1.7942    0.5823 N   0  0  0  0  0  0  0  0  0  0  0  0
    2.3059   -2.7511    0.3085 C   0  0  0  0  0  0  0  0  0  0  0  0
    3.2629   -2.2089   -1.1328 S   0  0  0  0  0  0  0  0  0  0  0  0
    4.1239   -0.7065   -0.7810 C   0  0  0  0  0  0  0  0  0  0  0  0
    5.3908   -0.7413   -0.2619 C   0  0  0  0  0  0  0  0  0  0  0  0
    6.0668    0.4546    0.0141 C   0  0  0  0  0  0  0  0  0  0  0  0
    5.4541    1.6829   -0.2381 C   0  0  0  0  0  0  0  0  0  0  0  0
    4.1898    1.7035   -0.7562 C   0  0  0  0  0  0  0  0  0  0  0  0
    3.5278    0.5040   -1.0264 C   0  0  0  0  0  0  0  0  0  0  0  0
    1.2264   -0.7330    1.3388 N   0  0  0  0  0  0  0  0  0  0  0  0
    0.0197   -0.1520    1.2945 N   0  0  0  0  0  0  0  0  0  0  0  0
   -2.8202    0.4955    0.6755 C   0  0  0  0  0  0  0  0  0  0  0  0
   -3.2633    2.7320    2.1154 H   0  0  0  0  0  0  0  0  0  0  0  0
   -5.9064    3.6707    2.1595 H   0  0  0  0  0  0  0  0  0  0  0  0
   -5.8702    0.1117   -0.7612 H   0  0  0  0  0  0  0  0  0  0  0  0
   -4.7260   -1.8462   -1.7236 H   0  0  0  0  0  0  0  0  0  0  0  0
   -2.4216   -2.3076   -1.1747 H   0  0  0  0  0  0  0  0  0  0  0  0
   -0.3726   -2.6640   -0.6492 H   0  0  0  0  0  0  0  0  0  0  0  0
    2.9063   -2.8502    1.2170 H   0  0  0  0  0  0  0  0  0  0  0  0
    1.8642   -3.7615    0.0800 H   0  0  0  0  0  0  0  0  0  0  0  0
    5.9311   -1.6494   -0.0396 H   0  0  0  0  0  0  0  0  0  0  0  0
    7.0597    0.4062    0.4208 H   0  0  0  0  0  0  0  0  0  0  0  0
    6.0013    2.6082   -0.0148 H   0  0  0  0  0  0  0  0  0  0  0  0
    3.6761    2.6300   -0.9674 H   0  0  0  0  0  0  0  0  0  0  0  0
    2.5194    0.5765   -1.4396 H   0  0  0  0  0  0  0  0  0  0  0  0
   -2.3250    1.1771    1.3510 H   0  0  0  0  0  0  0  0  0  0  0  0
  1  2  2  0
  2  3  1  0
  3  4  1  0
  2  5  1  0
  5  6  2  0
  6  7  1  0
  7  8  2  0
  8  9  1  0
  9 10  1  0
 10 11  2  0
 11 12  1  0
 12 13  1  0
 13 14  1  0
 14 15  1  0
 15 16  2  0
 16 17  1  0
 17 18  2  0
 18 19  1  0
 19 20  2  0
 12 21  1  0
 21 22  2  0
  9 23  2  0
 23  5  1  0
 22 10  1  0
 20 15  1  0
  3 24  1  0
  4 25  1  0
  6 26  1  0
  7 27  1  0
  8 28  1  0
 11 29  1  0
 13 30  1  0
 13 31  1  0
 16 32  1  0
 17 33  1  0
 18 34  1  0
 19 35  1  0
 20 36  1  0
 23 37  1  0
M  END
$$$$
