
     RDKit          3D

 45 48  0  0  0  0  0  0  0  0999 V2000
   -3.7203   -1.5714   -1.2974 N   0  0  0  0  0  0  0  0  0  0  0  0
   -3.8224   -0.5658   -0.7913 C   0  0  0  0  0  0  0  0  0  0  0  0
   -3.9389    0.7120   -0.1722 C   0  0  2  0  0  0  0  0  0  0  0  0
   -3.6142    1.9125   -1.0235 C   0  0  0  0  0  0  0  0  0  0  0  0
   -3.6968    3.0083    0.0573 C   0  0  0  0  0  0  0  0  0  0  0  0
   -3.4910    2.2724    1.3924 C   0  0  0  0  0  0  0  0  0  0  0  0
   -3.0392    0.9420    0.9395 N   0  0  0  0  0  0  0  0  0  0  0  0
   -2.0172    0.2158    1.5342 C   0  0  0  0  0  0  0  0  0  0  0  0
   -1.4262    0.6805    2.5658 O   0  0  0  0  0  0  0  0  0  0  0  0
   -1.5153   -1.0733    1.0932 C   0  0  0  0  0  0  0  0  0  0  0  0
   -2.0792   -2.2311    1.5232 C   0  0  0  0  0  0  0  0  0  0  0  0
   -1.5770   -3.4314    1.0779 C   0  0  0  0  0  0  0  0  0  0  0  0
   -0.5204   -3.4464    0.2107 C   0  0  0  0  0  0  0  0  0  0  0  0
    0.0836   -2.2821   -0.2516 C   0  0  0  0  0  0  0  0  0  0  0  0
   -0.4378   -1.1051    0.2098 C   0  0  0  0  0  0  0  0  0  0  0  0
    0.3722   -0.0276   -0.3575 C   0  0  0  0  0  0  0  0  0  0  0  0
    0.1781    1.1993   -0.1536 O   0  0  0  0  0  0  0  0  0  0  0  0
    1.3909   -0.6061   -1.1617 N   0  0  0  0  0  0  0  0  0  0  0  0
    2.4443    0.1803   -1.8094 C   0  0  0  0  0  0  0  0  0  0  0  0
    3.6220    0.2906   -0.9126 C   0  0  0  0  0  0  0  0  0  0  0  0
    4.6889   -0.5596   -0.9285 C   0  0  0  0  0  0  0  0  0  0  0  0
    5.7419   -0.4210   -0.0636 C   0  0  0  0  0  0  0  0  0  0  0  0
    5.7275    0.6219    0.8652 C   0  0  0  0  0  0  0  0  0  0  0  0
    4.6571    1.4932    0.8969 C   0  0  0  0  0  0  0  0  0  0  0  0
    3.6156    1.3282    0.0159 C   0  0  0  0  0  0  0  0  0  0  0  0
    1.1908   -2.0149   -1.1867 C   0  0  0  0  0  0  0  0  0  0  0  0
   -4.9655    0.9153    0.2347 H   0  0  0  0  0  0  0  0  0  0  0  0
   -2.5878    1.9303   -1.4076 H   0  0  0  0  0  0  0  0  0  0  0  0
   -4.3890    2.0831   -1.7953 H   0  0  0  0  0  0  0  0  0  0  0  0
   -2.9463    3.7879   -0.0852 H   0  0  0  0  0  0  0  0  0  0  0  0
   -4.7425    3.3877    0.0055 H   0  0  0  0  0  0  0  0  0  0  0  0
   -4.4642    2.1065    1.8754 H   0  0  0  0  0  0  0  0  0  0  0  0
   -2.7412    2.7605    2.0180 H   0  0  0  0  0  0  0  0  0  0  0  0
   -2.9419   -2.2272    2.2285 H   0  0  0  0  0  0  0  0  0  0  0  0
   -2.0093   -4.3709    1.4093 H   0  0  0  0  0  0  0  0  0  0  0  0
   -0.0884   -4.3791   -0.1735 H   0  0  0  0  0  0  0  0  0  0  0  0
    2.7898   -0.2752   -2.7552 H   0  0  0  0  0  0  0  0  0  0  0  0
    2.0576    1.1827   -2.0329 H   0  0  0  0  0  0  0  0  0  0  0  0
    4.6476   -1.3599   -1.6787 H   0  0  0  0  0  0  0  0  0  0  0  0
    6.5490   -1.1297   -0.1383 H   0  0  0  0  0  0  0  0  0  0  0  0
    6.5514    0.7364    1.5492 H   0  0  0  0  0  0  0  0  0  0  0  0
    4.6152    2.3076    1.6056 H   0  0  0  0  0  0  0  0  0  0  0  0
    2.7948    2.0102    0.0502 H   0  0  0  0  0  0  0  0  0  0  0  0
    0.9761   -2.4107   -2.2070 H   0  0  0  0  0  0  0  0  0  0  0  0
    2.0773   -2.5767   -0.7615 H   0  0  0  0  0  0  0  0  0  0  0  0
  1  2  3  0
  2  3  1  0
  3  4  1  0
  4  5  1  0
  5  6  1  0
  6  7  1  0
  7  8  1  0
  8  9  2  0
  8 10  1  0
 10 11  2  0
 11 12  1  0
 12 13  2  0
 13 14  1  0
 14 15  2  0
 15 16  1  0
 16 17  2  0
 16 18  1  0
 18 19  1  0
 19 20  1  0
 20 21  2  0
 21 22  1  0
 22 23  2  0
 23 24  1  0
 24 25  2  0
 18 26  1  0
  7  3  1  0
 15 10  1  0
 25 20  1  0
 26 14  1  0
  3 27  1  1
  4 28  1  0
  4 29  1  0
  5 30  1  0
  5 31  1  0
  6 32  1  0
  6 33  1  0
 11 34  1  0
 12 35  1  0
 13 36  1  0
 19 37  1  0
 19 38  1  0
 21 39  1  0
 22 40  1  0
 23 41  1  0
 24 42  1  0
 25 43  1  0
 26 44  1  0
 26 45  1  0
M  END
$$$$
