
     RDKit          3D

 31 31  0  0  0  0  0  0  0  0999 V2000
    2.8406    1.9710   -0.2672 C   0  0  0  0  0  0  0  0  0  0  0  0
    2.2617    1.4621    1.0320 C   0  0  0  0  0  0  0  0  0  0  0  0
    1.2419    0.5366    0.7716 O   0  0  0  0  0  0  0  0  0  0  0  0
    1.4479   -0.6430    0.0675 C   0  0  0  0  0  0  0  0  0  0  0  0
    2.6069   -0.9055   -0.3642 O   0  0  0  0  0  0  0  0  0  0  0  0
    0.4410   -1.6868   -0.2614 C   0  0  0  0  0  0  0  0  0  0  0  0
    0.4824   -1.8798   -1.7475 C   0  0  0  0  0  0  0  0  0  0  0  0
    0.8741   -3.0086    0.3832 C   0  0  0  0  0  0  0  0  0  0  0  0
   -0.7748   -1.2949    0.2497 O   0  0  0  0  0  0  0  0  0  0  0  0
   -1.5419   -0.2007    0.0090 C   0  0  0  0  0  0  0  0  0  0  0  0
   -1.3651    0.8868   -0.8293 C   0  0  0  0  0  0  0  0  0  0  0  0
   -2.3035    1.8890   -0.8991 C   0  0  0  0  0  0  0  0  0  0  0  0
   -3.4414    1.8584   -0.1526 C   0  0  0  0  0  0  0  0  0  0  0  0
   -4.6158    3.1618   -0.2728 Cl  0  0  0  0  0  0  0  0  0  0  0  0
   -3.6591    0.8031    0.6904 C   0  0  0  0  0  0  0  0  0  0  0  0
   -2.7190   -0.2152    0.7698 C   0  0  0  0  0  0  0  0  0  0  0  0
    3.5987    1.2432   -0.6074 H   0  0  0  0  0  0  0  0  0  0  0  0
    2.0242    2.0850   -1.0290 H   0  0  0  0  0  0  0  0  0  0  0  0
    3.2589    2.9756   -0.1432 H   0  0  0  0  0  0  0  0  0  0  0  0
    1.7875    2.3389    1.5417 H   0  0  0  0  0  0  0  0  0  0  0  0
    3.0946    1.0426    1.6324 H   0  0  0  0  0  0  0  0  0  0  0  0
    1.2323   -2.6649   -1.9787 H   0  0  0  0  0  0  0  0  0  0  0  0
   -0.4895   -2.1896   -2.1592 H   0  0  0  0  0  0  0  0  0  0  0  0
    0.8998   -0.9628   -2.2587 H   0  0  0  0  0  0  0  0  0  0  0  0
    0.0304   -3.6961    0.2483 H   0  0  0  0  0  0  0  0  0  0  0  0
    1.1173   -2.8773    1.4374 H   0  0  0  0  0  0  0  0  0  0  0  0
    1.7629   -3.3541   -0.2110 H   0  0  0  0  0  0  0  0  0  0  0  0
   -0.4366    0.8238   -1.3808 H   0  0  0  0  0  0  0  0  0  0  0  0
   -2.0777    2.6975   -1.5826 H   0  0  0  0  0  0  0  0  0  0  0  0
   -4.5699    0.8071    1.2688 H   0  0  0  0  0  0  0  0  0  0  0  0
   -3.0084   -1.0032    1.4802 H   0  0  0  0  0  0  0  0  0  0  0  0
  1  2  1  0
  2  3  1  0
  3  4  1  0
  4  5  2  0
  4  6  1  0
  6  7  1  0
  6  8  1  0
  6  9  1  0
  9 10  1  0
 10 11  2  0
 11 12  1  0
 12 13  2  0
 13 14  1  0
 13 15  1  0
 15 16  2  0
 16 10  1  0
  1 17  1  0
  1 18  1  0
  1 19  1  0
  2 20  1  0
  2 21  1  0
  7 22  1  0
  7 23  1  0
  7 24  1  0
  8 25  1  0
  8 26  1  0
  8 27  1  0
 11 28  1  0
 12 29  1  0
 15 30  1  0
 16 31  1  0
M  END
$$$$
