
     RDKit          3D

 32 32  0  0  0  0  0  0  0  0999 V2000
   -4.2019    1.3989    1.6980 C   0  0  0  0  0  0  0  0  0  0  0  0
   -3.0984    1.2789    1.0400 C   0  0  0  0  0  0  0  0  0  0  0  0
   -1.8242    1.1213    0.2961 C   0  0  0  0  0  0  0  0  0  0  0  0
   -2.1649    0.8780   -1.0400 N   0  0  0  0  0  0  0  0  0  0  0  0
   -2.7836    1.9365   -1.7773 C   0  0  0  0  0  0  0  0  0  0  0  0
   -1.5374   -0.1087   -1.8077 C   0  0  0  0  0  0  0  0  0  0  0  0
   -0.1197    0.0755   -2.1957 C   0  0  0  0  0  0  0  0  0  0  0  0
    0.8772    0.1129   -1.0802 C   0  0  0  0  0  0  0  0  0  0  0  0
    0.8998   -1.0803   -0.3407 O   0  0  0  0  0  0  0  0  0  0  0  0
    1.7919   -1.2251    0.7125 C   0  0  0  0  0  0  0  0  0  0  0  0
    2.6692   -0.2182    1.0662 C   0  0  0  0  0  0  0  0  0  0  0  0
    3.5769   -0.3471    2.1222 C   0  0  0  0  0  0  0  0  0  0  0  0
    3.5974   -1.5152    2.8310 C   0  0  0  0  0  0  0  0  0  0  0  0
    4.7293   -1.7163    4.1831 Cl  0  0  0  0  0  0  0  0  0  0  0  0
    2.7395   -2.5457    2.5146 C   0  0  0  0  0  0  0  0  0  0  0  0
    1.8427   -2.3981    1.4610 C   0  0  0  0  0  0  0  0  0  0  0  0
    0.7340   -3.6850    1.0395 Cl  0  0  0  0  0  0  0  0  0  0  0  0
   -5.0450    1.4793    2.1852 H   0  0  0  0  0  0  0  0  0  0  0  0
   -1.2124    2.0286    0.4843 H   0  0  0  0  0  0  0  0  0  0  0  0
   -1.2893    0.2509    0.7112 H   0  0  0  0  0  0  0  0  0  0  0  0
   -3.0642    1.5959   -2.7936 H   0  0  0  0  0  0  0  0  0  0  0  0
   -2.1586    2.8292   -1.8084 H   0  0  0  0  0  0  0  0  0  0  0  0
   -3.7158    2.1980   -1.2050 H   0  0  0  0  0  0  0  0  0  0  0  0
   -1.5886   -1.0757   -1.2145 H   0  0  0  0  0  0  0  0  0  0  0  0
   -2.1694   -0.3421   -2.7148 H   0  0  0  0  0  0  0  0  0  0  0  0
    0.1872   -0.7907   -2.8479 H   0  0  0  0  0  0  0  0  0  0  0  0
   -0.0017    0.9649   -2.8772 H   0  0  0  0  0  0  0  0  0  0  0  0
    1.9007    0.2560   -1.5481 H   0  0  0  0  0  0  0  0  0  0  0  0
    0.7337    0.9588   -0.3928 H   0  0  0  0  0  0  0  0  0  0  0  0
    2.6658    0.7001    0.5236 H   0  0  0  0  0  0  0  0  0  0  0  0
    4.2570    0.4465    2.3878 H   0  0  0  0  0  0  0  0  0  0  0  0
    2.7728   -3.4620    3.0868 H   0  0  0  0  0  0  0  0  0  0  0  0
  1  2  3  0
  2  3  1  0
  3  4  1  0
  4  5  1  0
  4  6  1  0
  6  7  1  0
  7  8  1  0
  8  9  1  0
  9 10  1  0
 10 11  2  0
 11 12  1  0
 12 13  2  0
 13 14  1  0
 13 15  1  0
 15 16  2  0
 16 17  1  0
 16 10  1  0
  1 18  1  0
  3 19  1  0
  3 20  1  0
  5 21  1  0
  5 22  1  0
  5 23  1  0
  6 24  1  0
  6 25  1  0
  7 26  1  0
  7 27  1  0
  8 28  1  0
  8 29  1  0
 11 30  1  0
 12 31  1  0
 15 32  1  0
M  END
$$$$
