
     RDKit          3D

 41 43  0  0  0  0  0  0  0  0999 V2000
   -5.5938   -2.2238   -0.9882 C   0  0  0  0  0  0  0  0  0  0  0  0
   -4.8766   -1.0026   -1.0817 O   0  0  0  0  0  0  0  0  0  0  0  0
   -3.5425   -0.9626   -0.7053 C   0  0  0  0  0  0  0  0  0  0  0  0
   -2.8639   -2.0709   -0.2348 C   0  0  0  0  0  0  0  0  0  0  0  0
   -1.5142   -2.0040    0.1394 C   0  0  0  0  0  0  0  0  0  0  0  0
   -0.8579   -0.7978    0.0313 C   0  0  0  0  0  0  0  0  0  0  0  0
   -1.5309    0.3134   -0.4384 C   0  0  0  0  0  0  0  0  0  0  0  0
   -2.8582    0.2279   -0.8016 C   0  0  0  0  0  0  0  0  0  0  0  0
   -0.6734    1.3853   -0.4574 C   0  0  0  0  0  0  0  0  0  0  0  0
   -0.9963    2.7513   -0.8864 C   0  0  0  0  0  0  0  0  0  0  0  0
   -1.7682    3.5088    0.1026 C   0  0  0  0  0  0  0  0  0  0  0  0
   -2.0938    2.9886    1.1869 O   0  0  0  0  0  0  0  0  0  0  0  0
   -2.1378    4.8064   -0.1664 O   0  0  0  0  0  0  0  0  0  0  0  0
    0.5368    0.9058    0.0111 C   0  0  0  0  0  0  0  0  0  0  0  0
    1.7069    1.7794    0.2143 C   0  0  0  0  0  0  0  0  0  0  0  0
    0.4281   -0.3923    0.2989 N   0  0  0  0  0  0  0  0  0  0  0  0
    1.4023   -1.3263    0.7118 C   0  0  0  0  0  0  0  0  0  0  0  0
    1.0213   -2.4574    1.1459 O   0  0  0  0  0  0  0  0  0  0  0  0
    2.8344   -1.0919    0.6761 C   0  0  0  0  0  0  0  0  0  0  0  0
    3.6190   -1.5367    1.7490 C   0  0  0  0  0  0  0  0  0  0  0  0
    4.9882   -1.4234    1.7365 C   0  0  0  0  0  0  0  0  0  0  0  0
    5.6579   -0.8709    0.6770 C   0  0  0  0  0  0  0  0  0  0  0  0
    7.4019   -0.7320    0.6770 Cl  0  0  0  0  0  0  0  0  0  0  0  0
    4.8892   -0.4331   -0.3805 C   0  0  0  0  0  0  0  0  0  0  0  0
    3.5128   -0.5406   -0.3826 C   0  0  0  0  0  0  0  0  0  0  0  0
   -5.1061   -2.9458   -1.6914 H   0  0  0  0  0  0  0  0  0  0  0  0
   -5.5741   -2.6356    0.0352 H   0  0  0  0  0  0  0  0  0  0  0  0
   -6.6558   -2.0540   -1.2632 H   0  0  0  0  0  0  0  0  0  0  0  0
   -3.3552   -3.0211   -0.1418 H   0  0  0  0  0  0  0  0  0  0  0  0
   -1.0339   -2.8922    0.4964 H   0  0  0  0  0  0  0  0  0  0  0  0
   -3.3644    1.1076   -1.1658 H   0  0  0  0  0  0  0  0  0  0  0  0
   -1.5167    2.7738   -1.8682 H   0  0  0  0  0  0  0  0  0  0  0  0
   -0.0193    3.3027   -1.0205 H   0  0  0  0  0  0  0  0  0  0  0  0
   -2.9869    5.2145    0.2041 H   0  0  0  0  0  0  0  0  0  0  0  0
    1.2826    2.8082    0.4967 H   0  0  0  0  0  0  0  0  0  0  0  0
    2.3278    1.4977    1.0932 H   0  0  0  0  0  0  0  0  0  0  0  0
    2.2900    1.9951   -0.6943 H   0  0  0  0  0  0  0  0  0  0  0  0
    3.0771   -1.9768    2.5915 H   0  0  0  0  0  0  0  0  0  0  0  0
    5.5744   -1.7778    2.5860 H   0  0  0  0  0  0  0  0  0  0  0  0
    5.4126    0.0043   -1.2212 H   0  0  0  0  0  0  0  0  0  0  0  0
    2.9567   -0.2011   -1.2713 H   0  0  0  0  0  0  0  0  0  0  0  0
  1  2  1  0
  2  3  1  0
  3  4  2  0
  4  5  1  0
  5  6  2  0
  6  7  1  0
  7  8  2  0
  7  9  1  0
  9 10  1  0
 10 11  1  0
 11 12  2  0
 11 13  1  0
  9 14  2  0
 14 15  1  0
 14 16  1  0
 16 17  1  0
 17 18  2  0
 17 19  1  0
 19 20  2  0
 20 21  1  0
 21 22  2  0
 22 23  1  0
 22 24  1  0
 24 25  2  0
  8  3  1  0
 25 19  1  0
 16  6  1  0
  1 26  1  0
  1 27  1  0
  1 28  1  0
  4 29  1  0
  5 30  1  0
  8 31  1  0
 10 32  1  0
 10 33  1  0
 13 34  1  0
 15 35  1  0
 15 36  1  0
 15 37  1  0
 20 38  1  0
 21 39  1  0
 24 40  1  0
 25 41  1  0
M  END
$$$$
