
     RDKit          3D

 35 36  0  0  0  0  0  0  0  0999 V2000
    2.4643    3.8148   -0.1437 C   0  0  0  0  0  0  0  0  0  0  0  0
    3.0322    2.6465    0.3863 O   0  0  0  0  0  0  0  0  0  0  0  0
    2.4804    1.3891    0.2510 C   0  0  0  0  0  0  0  0  0  0  0  0
    1.3046    1.1316   -0.4217 C   0  0  0  0  0  0  0  0  0  0  0  0
    0.7783   -0.1373   -0.5397 C   0  0  0  0  0  0  0  0  0  0  0  0
   -0.4808   -0.3257   -1.2739 C   0  0  0  0  0  0  0  0  0  0  0  0
   -1.6760   -0.2193   -0.4246 C   0  0  0  0  0  0  0  0  0  0  0  0
   -1.6064    0.0335    0.9280 C   0  0  0  0  0  0  0  0  0  0  0  0
   -2.7454    0.1230    1.6727 N   0  0  0  0  0  0  0  0  0  0  0  0
   -3.9614   -0.0305    1.1200 C   0  0  0  0  0  0  0  0  0  0  0  0
   -5.1437    0.0684    1.9257 N   0  0  0  0  0  0  0  0  0  0  0  0
   -4.0202   -0.2767   -0.1992 N   0  0  0  0  0  0  0  0  0  0  0  0
   -2.9243   -0.3759   -0.9870 C   0  0  0  0  0  0  0  0  0  0  0  0
   -3.0328   -0.6392   -2.3873 N   0  0  0  0  0  0  0  0  0  0  0  0
    1.4974   -1.1592    0.0587 C   0  0  0  0  0  0  0  0  0  0  0  0
    2.6661   -0.9628    0.7368 C   0  0  0  0  0  0  0  0  0  0  0  0
    3.3879   -1.9865    1.3372 O   0  0  0  0  0  0  0  0  0  0  0  0
    2.8540   -3.2925    1.2204 C   0  0  0  0  0  0  0  0  0  0  0  0
    3.1586    0.3247    0.8314 C   0  0  0  0  0  0  0  0  0  0  0  0
    2.6138    3.9025   -1.2474 H   0  0  0  0  0  0  0  0  0  0  0  0
    2.9482    4.7025    0.3029 H   0  0  0  0  0  0  0  0  0  0  0  0
    1.3721    3.8779    0.1058 H   0  0  0  0  0  0  0  0  0  0  0  0
    0.7790    1.9659   -0.8730 H   0  0  0  0  0  0  0  0  0  0  0  0
   -0.5928    0.3711   -2.1307 H   0  0  0  0  0  0  0  0  0  0  0  0
   -0.5091   -1.3544   -1.7369 H   0  0  0  0  0  0  0  0  0  0  0  0
   -0.6264    0.1538    1.3549 H   0  0  0  0  0  0  0  0  0  0  0  0
   -5.1378   -0.1646    2.9226 H   0  0  0  0  0  0  0  0  0  0  0  0
   -6.0419    0.3853    1.4972 H   0  0  0  0  0  0  0  0  0  0  0  0
   -3.3270    0.1800   -2.9765 H   0  0  0  0  0  0  0  0  0  0  0  0
   -2.8356   -1.5752   -2.8019 H   0  0  0  0  0  0  0  0  0  0  0  0
    1.1188   -2.1671   -0.0111 H   0  0  0  0  0  0  0  0  0  0  0  0
    2.6660   -3.5024    0.1373 H   0  0  0  0  0  0  0  0  0  0  0  0
    3.5808   -4.0193    1.6368 H   0  0  0  0  0  0  0  0  0  0  0  0
    1.8691   -3.3739    1.7393 H   0  0  0  0  0  0  0  0  0  0  0  0
    4.0903    0.4916    1.3703 H   0  0  0  0  0  0  0  0  0  0  0  0
  1  2  1  0
  2  3  1  0
  3  4  2  0
  4  5  1  0
  5  6  1  0
  6  7  1  0
  7  8  2  0
  8  9  1  0
  9 10  2  0
 10 11  1  0
 10 12  1  0
 12 13  2  0
 13 14  1  0
  5 15  2  0
 15 16  1  0
 16 17  1  0
 17 18  1  0
 16 19  2  0
 19  3  1  0
 13  7  1  0
  1 20  1  0
  1 21  1  0
  1 22  1  0
  4 23  1  0
  6 24  1  0
  6 25  1  0
  8 26  1  0
 11 27  1  0
 11 28  1  0
 14 29  1  0
 14 30  1  0
 15 31  1  0
 18 32  1  0
 18 33  1  0
 18 34  1  0
 19 35  1  0
M  END
$$$$
