
     RDKit          3D

 55 58  0  0  0  0  0  0  0  0999 V2000
    2.7381   -1.7504    5.2018 C   0  0  0  0  0  0  0  0  0  0  0  0
    1.9916   -1.5757    3.8732 C   0  0  0  0  0  0  0  0  0  0  0  0
    2.9460   -1.3933    2.8237 O   0  0  0  0  0  0  0  0  0  0  0  0
    2.5893   -1.2060    1.5109 C   0  0  0  0  0  0  0  0  0  0  0  0
    1.2505   -1.1878    1.1147 C   0  0  0  0  0  0  0  0  0  0  0  0
    0.8862   -1.0012   -0.1917 C   0  0  0  0  0  0  0  0  0  0  0  0
   -0.5079   -0.9756   -0.6385 C   0  0  0  0  0  0  0  0  0  0  0  0
   -1.2808    0.1878   -0.1371 C   0  0  0  0  0  0  0  0  0  0  0  0
   -1.8198    0.2262    1.1196 C   0  0  0  0  0  0  0  0  0  0  0  0
   -2.5431    1.3332    1.5794 C   0  0  0  0  0  0  0  0  0  0  0  0
   -2.7324    2.4257    0.7686 C   0  0  0  0  0  0  0  0  0  0  0  0
   -2.2016    2.4187   -0.5038 C   0  0  0  0  0  0  0  0  0  0  0  0
   -2.3806    3.5773   -1.4072 C   0  0  0  0  0  0  0  0  0  0  0  0
   -2.4663    4.8714   -0.9421 C   0  0  0  0  0  0  0  0  0  0  0  0
   -2.6309    5.9516   -1.7887 C   0  0  0  0  0  0  0  0  0  0  0  0
   -2.7121    5.7241   -3.1499 C   0  0  0  0  0  0  0  0  0  0  0  0
   -2.6272    4.4532   -3.5965 N   0  0  0  0  0  0  0  0  0  0  0  0
   -2.4676    3.4058   -2.7722 C   0  0  0  0  0  0  0  0  0  0  0  0
   -1.4943    1.3136   -0.9289 C   0  0  0  0  0  0  0  0  0  0  0  0
   -0.5959   -0.9871   -2.1014 N   0  0  0  0  0  0  0  0  0  0  0  0
   -1.2514   -2.0038   -2.5273 C   0  0  0  0  0  0  0  0  0  0  0  0
   -1.5158   -2.3039   -3.9021 N   0  0  0  0  0  0  0  0  0  0  0  0
   -1.6769   -2.8087   -1.4598 N   0  0  0  0  0  0  0  0  0  0  0  0
   -2.4380   -4.0366   -1.5415 C   0  0  0  0  0  0  0  0  0  0  0  0
   -1.2291   -2.2132   -0.2721 C   0  0  0  0  0  0  0  0  0  0  0  0
   -1.3945   -2.6305    0.8937 O   0  0  0  0  0  0  0  0  0  0  0  0
    1.8931   -0.8304   -1.1130 C   0  0  0  0  0  0  0  0  0  0  0  0
    3.2351   -0.8452   -0.7392 C   0  0  0  0  0  0  0  0  0  0  0  0
    3.5865   -1.0337    0.5783 C   0  0  0  0  0  0  0  0  0  0  0  0
    4.9375   -1.0453    0.9373 O   0  0  0  0  0  0  0  0  0  0  0  0
    5.9756   -0.8717    0.0241 C   0  0  0  0  0  0  0  0  0  0  0  0
    3.2741   -0.8072    5.4566 H   0  0  0  0  0  0  0  0  0  0  0  0
    1.9792   -1.9323    5.9880 H   0  0  0  0  0  0  0  0  0  0  0  0
    3.4505   -2.5852    5.1492 H   0  0  0  0  0  0  0  0  0  0  0  0
    1.3052   -0.7170    3.9199 H   0  0  0  0  0  0  0  0  0  0  0  0
    1.4088   -2.5031    3.6954 H   0  0  0  0  0  0  0  0  0  0  0  0
    0.5127   -1.3295    1.8769 H   0  0  0  0  0  0  0  0  0  0  0  0
   -1.7327   -0.5689    1.8287 H   0  0  0  0  0  0  0  0  0  0  0  0
   -2.9685    1.3599    2.5744 H   0  0  0  0  0  0  0  0  0  0  0  0
   -3.2886    3.3056    1.0877 H   0  0  0  0  0  0  0  0  0  0  0  0
   -2.4036    5.0436    0.1208 H   0  0  0  0  0  0  0  0  0  0  0  0
   -2.6904    6.9453   -1.3565 H   0  0  0  0  0  0  0  0  0  0  0  0
   -2.8413    6.5721   -3.8104 H   0  0  0  0  0  0  0  0  0  0  0  0
   -2.4085    2.4235   -3.1928 H   0  0  0  0  0  0  0  0  0  0  0  0
   -1.0743    1.2967   -1.9255 H   0  0  0  0  0  0  0  0  0  0  0  0
   -0.7918   -2.0607   -4.5970 H   0  0  0  0  0  0  0  0  0  0  0  0
   -2.4101   -2.7532   -4.1950 H   0  0  0  0  0  0  0  0  0  0  0  0
   -3.4647   -3.8693   -1.9318 H   0  0  0  0  0  0  0  0  0  0  0  0
   -2.5562   -4.4977   -0.5377 H   0  0  0  0  0  0  0  0  0  0  0  0
   -1.9052   -4.7407   -2.2222 H   0  0  0  0  0  0  0  0  0  0  0  0
    1.6306   -0.6817   -2.1509 H   0  0  0  0  0  0  0  0  0  0  0  0
    4.0150   -0.7084   -1.5016 H   0  0  0  0  0  0  0  0  0  0  0  0
    6.2311   -1.7904   -0.5044 H   0  0  0  0  0  0  0  0  0  0  0  0
    5.7661   -0.0528   -0.7176 H   0  0  0  0  0  0  0  0  0  0  0  0
    6.8992   -0.5369    0.5600 H   0  0  0  0  0  0  0  0  0  0  0  0
  1  2  1  0
  2  3  1  0
  3  4  1  0
  4  5  2  0
  5  6  1  0
  6  7  1  0
  7  8  1  0
  8  9  2  0
  9 10  1  0
 10 11  2  0
 11 12  1  0
 12 13  1  0
 13 14  2  0
 14 15  1  0
 15 16  2  0
 16 17  1  0
 17 18  2  0
 12 19  2  0
  7 20  1  0
 20 21  2  0
 21 22  1  0
 21 23  1  0
 23 24  1  0
 23 25  1  0
 25 26  2  0
  6 27  2  0
 27 28  1  0
 28 29  2  0
 29 30  1  0
 30 31  1  0
 29  4  1  0
 25  7  1  0
 19  8  1  0
 18 13  1  0
  1 32  1  0
  1 33  1  0
  1 34  1  0
  2 35  1  0
  2 36  1  0
  5 37  1  0
  9 38  1  0
 10 39  1  0
 11 40  1  0
 14 41  1  0
 15 42  1  0
 16 43  1  0
 18 44  1  0
 19 45  1  0
 22 46  1  0
 22 47  1  0
 24 48  1  0
 24 49  1  0
 24 50  1  0
 27 51  1  0
 28 52  1  0
 31 53  1  0
 31 54  1  0
 31 55  1  0
M  END
$$$$
