
     RDKit          3D

 48 51  0  0  0  0  0  0  0  0999 V2000
   -6.0472   -1.9703   -0.9157 N   0  0  0  0  0  0  0  0  0  0  0  0
   -4.9797   -1.1422   -0.4187 C   0  0  0  0  0  0  0  0  0  0  0  0
   -4.8541    0.0772   -0.7226 N   0  0  0  0  0  0  0  0  0  0  0  0
   -3.8297    0.9720   -0.2797 C   0  0  2  0  0  0  0  0  0  0  0  0
   -4.4201    2.3378   -0.0752 C   0  0  0  0  0  0  0  0  0  0  0  0
   -4.9908    2.9153   -1.1680 F   0  0  0  0  0  0  0  0  0  0  0  0
   -2.7659    0.9753   -1.2963 C   0  0  0  0  0  0  0  0  0  0  0  0
   -1.4486    0.6517   -0.9896 C   0  0  0  0  0  0  0  0  0  0  0  0
   -0.4071    0.6569   -1.8708 C   0  0  0  0  0  0  0  0  0  0  0  0
    0.9294    0.3302   -1.5659 N   0  0  0  0  0  0  0  0  0  0  0  0
    1.4663   -0.0590   -0.3287 C   0  0  0  0  0  0  0  0  0  0  0  0
    0.7211   -0.1446    0.6578 O   0  0  0  0  0  0  0  0  0  0  0  0
    2.9019   -0.3732   -0.1599 C   0  0  0  0  0  0  0  0  0  0  0  0
    3.3933   -0.7523    1.0706 C   0  0  0  0  0  0  0  0  0  0  0  0
    4.7002   -1.0369    1.2180 N   0  0  0  0  0  0  0  0  0  0  0  0
    5.6011   -0.9806    0.2291 C   0  0  0  0  0  0  0  0  0  0  0  0
    6.9326   -1.2628    0.3324 O   0  0  0  0  0  0  0  0  0  0  0  0
    7.5836   -1.6445    1.4851 C   0  0  0  0  0  0  0  0  0  0  0  0
    7.5449   -0.5824    2.5373 C   0  0  0  0  0  0  0  0  0  0  0  0
    8.1718    0.5410    1.9695 F   0  0  0  0  0  0  0  0  0  0  0  0
    8.3286   -0.9539    3.6402 F   0  0  0  0  0  0  0  0  0  0  0  0
    6.3092   -0.2353    2.9453 F   0  0  0  0  0  0  0  0  0  0  0  0
    5.0828   -0.5918   -1.0209 C   0  0  0  0  0  0  0  0  0  0  0  0
    3.7817   -0.3077   -1.1711 N   0  0  0  0  0  0  0  0  0  0  0  0
   -0.7479    1.0260   -3.1793 C   0  0  0  0  0  0  0  0  0  0  0  0
   -2.0232    1.3580   -3.5594 C   0  0  0  0  0  0  0  0  0  0  0  0
   -2.3893    1.8150   -5.2248 Cl  0  0  0  0  0  0  0  0  0  0  0  0
   -3.0415    1.3276   -2.5911 C   0  0  0  0  0  0  0  0  0  0  0  0
   -4.2655    1.6385   -3.0607 F   0  0  0  0  0  0  0  0  0  0  0  0
   -3.2751    0.5401    1.0770 C   0  0  1  0  0  0  0  0  0  0  0  0
   -4.3543    0.2108    2.0827 C   0  0  0  0  0  0  0  0  0  0  0  0
   -3.5022   -0.8361    1.4603 C   0  0  1  0  0  0  0  0  0  0  0  0
   -4.0143   -1.6811    0.4478 O   0  0  0  0  0  0  0  0  0  0  0  0
   -6.9561   -1.9562   -0.4262 H   0  0  0  0  0  0  0  0  0  0  0  0
   -5.9351   -2.5789   -1.7463 H   0  0  0  0  0  0  0  0  0  0  0  0
   -3.6842    3.0282    0.4274 H   0  0  0  0  0  0  0  0  0  0  0  0
   -5.2533    2.2833    0.6971 H   0  0  0  0  0  0  0  0  0  0  0  0
   -1.2796    0.3814    0.0272 H   0  0  0  0  0  0  0  0  0  0  0  0
    1.6331    0.3807   -2.3661 H   0  0  0  0  0  0  0  0  0  0  0  0
    2.6843   -0.8079    1.8977 H   0  0  0  0  0  0  0  0  0  0  0  0
    8.6238   -2.0120    1.2980 H   0  0  0  0  0  0  0  0  0  0  0  0
    7.0300   -2.5369    1.9184 H   0  0  0  0  0  0  0  0  0  0  0  0
    5.7987   -0.5405   -1.8353 H   0  0  0  0  0  0  0  0  0  0  0  0
    0.0556    1.0432   -3.9139 H   0  0  0  0  0  0  0  0  0  0  0  0
   -2.4530    1.1046    1.5041 H   0  0  0  0  0  0  0  0  0  0  0  0
   -5.4099    0.2877    1.7889 H   0  0  0  0  0  0  0  0  0  0  0  0
   -4.1873    0.4418    3.1589 H   0  0  0  0  0  0  0  0  0  0  0  0
   -2.7589   -1.3374    2.1117 H   0  0  0  0  0  0  0  0  0  0  0  0
  1  2  1  0
  2  3  2  0
  3  4  1  0
  4  5  1  1
  5  6  1  0
  4  7  1  0
  7  8  2  0
  8  9  1  0
  9 10  1  0
 10 11  1  0
 11 12  2  0
 11 13  1  0
 13 14  2  0
 14 15  1  0
 15 16  2  0
 16 17  1  0
 17 18  1  0
 18 19  1  0
 19 20  1  0
 19 21  1  0
 19 22  1  0
 16 23  1  0
 23 24  2  0
  9 25  2  0
 25 26  1  0
 26 27  1  0
 26 28  2  0
 28 29  1  0
  4 30  1  0
 30 31  1  0
 31 32  1  0
 32 33  1  0
 33  2  1  0
 28  7  1  0
 32 30  1  0
 24 13  1  0
  1 34  1  0
  1 35  1  0
  5 36  1  0
  5 37  1  0
  8 38  1  0
 10 39  1  0
 14 40  1  0
 18 41  1  0
 18 42  1  0
 23 43  1  0
 25 44  1  0
 30 45  1  1
 31 46  1  0
 31 47  1  0
 32 48  1  1
M  END
$$$$
