
     RDKit          3D

 40 42  0  0  0  0  0  0  0  0999 V2000
   -4.0556    1.2412   -0.7895 N   0  0  0  0  0  0  0  0  0  0  0  0
   -3.3084    2.1068    0.0659 C   0  0  0  0  0  0  0  0  0  0  0  0
   -2.6299    1.4590    1.2178 C   0  0  0  0  0  0  0  0  0  0  0  0
   -1.6263    0.4190    0.9039 C   0  0  1  0  0  0  0  0  0  0  0  0
   -2.0999   -0.7687    0.1489 C   0  0  0  0  0  0  0  0  0  0  0  0
   -0.9387   -1.6582   -0.1130 C   0  0  0  0  0  0  0  0  0  0  0  0
   -1.2266   -2.9574   -0.5431 C   0  0  0  0  0  0  0  0  0  0  0  0
   -0.2193   -3.8563   -0.8136 C   0  0  0  0  0  0  0  0  0  0  0  0
    1.1110   -3.4963   -0.6665 C   0  0  0  0  0  0  0  0  0  0  0  0
    1.3939   -2.2110   -0.2410 C   0  0  0  0  0  0  0  0  0  0  0  0
    0.3787   -1.3023    0.0326 C   0  0  0  0  0  0  0  0  0  0  0  0
    0.7108    0.0511    0.4834 C   0  0  1  0  0  0  0  0  0  0  0  0
    2.0227    0.5280    0.0481 C   0  0  0  0  0  0  0  0  0  0  0  0
    3.1218    0.3002    0.8491 C   0  0  0  0  0  0  0  0  0  0  0  0
    4.3855    0.7251    0.4939 C   0  0  0  0  0  0  0  0  0  0  0  0
    4.5879    1.3990   -0.6885 C   0  0  0  0  0  0  0  0  0  0  0  0
    6.1998    1.9543   -1.1664 Cl  0  0  0  0  0  0  0  0  0  0  0  0
    3.5082    1.6398   -1.5072 C   0  0  0  0  0  0  0  0  0  0  0  0
    3.7699    2.5003   -3.0162 Cl  0  0  0  0  0  0  0  0  0  0  0  0
    2.2363    1.2036   -1.1339 C   0  0  0  0  0  0  0  0  0  0  0  0
   -0.4219    0.9695    0.1326 C   0  0  0  0  0  0  0  0  0  0  0  0
   -4.6918    1.7800   -1.3864 H   0  0  0  0  0  0  0  0  0  0  0  0
   -4.6371    0.6127   -0.1917 H   0  0  0  0  0  0  0  0  0  0  0  0
   -4.0383    2.8502    0.4977 H   0  0  0  0  0  0  0  0  0  0  0  0
   -2.5677    2.7273   -0.4802 H   0  0  0  0  0  0  0  0  0  0  0  0
   -3.3435    1.0369    1.9554 H   0  0  0  0  0  0  0  0  0  0  0  0
   -2.0938    2.2732    1.7765 H   0  0  0  0  0  0  0  0  0  0  0  0
   -1.2405    0.0364    1.8888 H   0  0  0  0  0  0  0  0  0  0  0  0
   -2.7981   -1.3729    0.7977 H   0  0  0  0  0  0  0  0  0  0  0  0
   -2.5606   -0.5781   -0.8235 H   0  0  0  0  0  0  0  0  0  0  0  0
   -2.2384   -3.2712   -0.6680 H   0  0  0  0  0  0  0  0  0  0  0  0
   -0.4205   -4.8807   -1.1522 H   0  0  0  0  0  0  0  0  0  0  0  0
    1.9203   -4.1669   -0.8671 H   0  0  0  0  0  0  0  0  0  0  0  0
    2.4030   -1.8534   -0.1019 H   0  0  0  0  0  0  0  0  0  0  0  0
    0.7165    0.0064    1.6145 H   0  0  0  0  0  0  0  0  0  0  0  0
    2.9670   -0.2387    1.7974 H   0  0  0  0  0  0  0  0  0  0  0  0
    5.2116    0.5315    1.1377 H   0  0  0  0  0  0  0  0  0  0  0  0
    1.3946    1.3936   -1.7762 H   0  0  0  0  0  0  0  0  0  0  0  0
   -0.6566    0.8403   -0.9448 H   0  0  0  0  0  0  0  0  0  0  0  0
   -0.2260    2.0266    0.3886 H   0  0  0  0  0  0  0  0  0  0  0  0
  1  2  1  0
  2  3  1  0
  3  4  1  0
  4  5  1  0
  5  6  1  0
  6  7  2  0
  7  8  1  0
  8  9  2  0
  9 10  1  0
 10 11  2  0
 11 12  1  0
 12 13  1  0
 13 14  2  0
 14 15  1  0
 15 16  2  0
 16 17  1  0
 16 18  1  0
 18 19  1  0
 18 20  2  0
 12 21  1  0
 21  4  1  0
 11  6  1  0
 20 13  1  0
  1 22  1  0
  1 23  1  0
  2 24  1  0
  2 25  1  0
  3 26  1  0
  3 27  1  0
  4 28  1  1
  5 29  1  0
  5 30  1  0
  7 31  1  0
  8 32  1  0
  9 33  1  0
 10 34  1  0
 12 35  1  1
 14 36  1  0
 15 37  1  0
 20 38  1  0
 21 39  1  0
 21 40  1  0
M  END
$$$$
