
     RDKit          3D

 52 56  0  0  0  0  0  0  0  0999 V2000
   -2.1833    0.2604   -1.6868 O   0  0  0  0  0  0  0  0  0  0  0  0
   -2.2707   -0.4179   -0.6480 C   0  0  0  0  0  0  0  0  0  0  0  0
   -3.4984   -1.1365   -0.3996 C   0  0  0  0  0  0  0  0  0  0  0  0
   -3.6265   -2.4232   -0.8707 C   0  0  0  0  0  0  0  0  0  0  0  0
   -4.8299   -3.0606   -0.5998 C   0  0  0  0  0  0  0  0  0  0  0  0
   -5.8403   -2.4501    0.0976 C   0  0  0  0  0  0  0  0  0  0  0  0
   -6.9805   -3.1477    0.3158 F   0  0  0  0  0  0  0  0  0  0  0  0
   -5.6880   -1.1665    0.5566 C   0  0  0  0  0  0  0  0  0  0  0  0
   -4.5022   -0.4759    0.3154 C   0  0  0  0  0  0  0  0  0  0  0  0
   -4.2979    0.8442    0.7664 N   0  0  0  0  0  0  0  0  0  0  0  0
   -3.8483    1.8330    0.0250 N   0  0  0  0  0  0  0  0  0  0  0  0
   -3.7682    2.9636    0.7559 C   0  0  0  0  0  0  0  0  0  0  0  0
   -4.1953    2.6339    2.0117 C   0  0  0  0  0  0  0  0  0  0  0  0
   -4.5103    1.3178    1.9674 N   0  0  0  0  0  0  0  0  0  0  0  0
   -1.1563   -0.4481    0.2376 N   0  0  0  0  0  0  0  0  0  0  0  0
   -1.1623   -1.2115    1.4760 C   0  0  0  0  0  0  0  0  0  0  0  0
    0.1479   -1.9254    1.7108 C   0  0  0  0  0  0  0  0  0  0  0  0
    1.2523   -1.1387    1.4298 O   0  0  0  0  0  0  0  0  0  0  0  0
    0.9168    0.1963    1.1857 C   0  0  0  0  0  0  0  0  0  0  0  0
    0.0596    0.2932   -0.0568 C   0  0  1  0  0  0  0  0  0  0  0  0
    0.8081   -0.3091   -1.2050 C   0  0  0  0  0  0  0  0  0  0  0  0
    2.0354    0.4659   -1.4809 C   0  0  0  0  0  0  0  0  0  0  0  0
    1.9603    1.5275   -2.3555 C   0  0  0  0  0  0  0  0  0  0  0  0
    3.0615    2.2833   -2.6574 C   0  0  0  0  0  0  0  0  0  0  0  0
    4.2773    2.0025   -2.0938 C   0  0  0  0  0  0  0  0  0  0  0  0
    4.3872    0.9523   -1.2187 C   0  0  0  0  0  0  0  0  0  0  0  0
    5.6494    0.6242   -0.6043 N   0  0  0  0  0  0  0  0  0  0  0  0
    6.8482    0.7154   -1.1126 N   0  0  0  0  0  0  0  0  0  0  0  0
    7.7660    0.3077   -0.2072 C   0  0  0  0  0  0  0  0  0  0  0  0
    7.0500   -0.0483    0.9137 C   0  0  0  0  0  0  0  0  0  0  0  0
    5.7578    0.1630    0.6223 N   0  0  0  0  0  0  0  0  0  0  0  0
    3.2667    0.2072   -0.9309 C   0  0  0  0  0  0  0  0  0  0  0  0
   -2.8264   -2.8989   -1.4197 H   0  0  0  0  0  0  0  0  0  0  0  0
   -4.9748   -4.0678   -0.9488 H   0  0  0  0  0  0  0  0  0  0  0  0
   -6.4890   -0.7030    1.1011 H   0  0  0  0  0  0  0  0  0  0  0  0
   -3.4299    3.9423    0.4105 H   0  0  0  0  0  0  0  0  0  0  0  0
   -4.2571    3.3080    2.8460 H   0  0  0  0  0  0  0  0  0  0  0  0
   -1.4075   -0.4910    2.2862 H   0  0  0  0  0  0  0  0  0  0  0  0
   -1.9578   -1.9864    1.4827 H   0  0  0  0  0  0  0  0  0  0  0  0
    0.1182   -2.8598    1.0800 H   0  0  0  0  0  0  0  0  0  0  0  0
    0.1379   -2.2770    2.7690 H   0  0  0  0  0  0  0  0  0  0  0  0
    0.3178    0.6194    2.0208 H   0  0  0  0  0  0  0  0  0  0  0  0
    1.8467    0.7453    1.0055 H   0  0  0  0  0  0  0  0  0  0  0  0
   -0.1528    1.3703   -0.2318 H   0  0  0  0  0  0  0  0  0  0  0  0
    1.1423   -1.3319   -0.8971 H   0  0  0  0  0  0  0  0  0  0  0  0
    0.2099   -0.3433   -2.1368 H   0  0  0  0  0  0  0  0  0  0  0  0
    1.0215    1.7962   -2.8324 H   0  0  0  0  0  0  0  0  0  0  0  0
    2.9560    3.1228   -3.3619 H   0  0  0  0  0  0  0  0  0  0  0  0
    5.1551    2.6047   -2.3342 H   0  0  0  0  0  0  0  0  0  0  0  0
    8.8484    0.2582   -0.3089 H   0  0  0  0  0  0  0  0  0  0  0  0
    7.4925   -0.4195    1.8238 H   0  0  0  0  0  0  0  0  0  0  0  0
    3.3627   -0.6206   -0.2418 H   0  0  0  0  0  0  0  0  0  0  0  0
  1  2  2  0
  2  3  1  0
  3  4  2  0
  4  5  1  0
  5  6  2  0
  6  7  1  0
  6  8  1  0
  8  9  2  0
  9 10  1  0
 10 11  1  0
 11 12  2  0
 12 13  1  0
 13 14  2  0
  2 15  1  0
 15 16  1  0
 16 17  1  0
 17 18  1  0
 18 19  1  0
 19 20  1  0
 20 21  1  0
 21 22  1  0
 22 23  2  0
 23 24  1  0
 24 25  2  0
 25 26  1  0
 26 27  1  0
 27 28  1  0
 28 29  2  0
 29 30  1  0
 30 31  2  0
 26 32  2  0
  9  3  1  0
 14 10  1  0
 20 15  1  0
 32 22  1  0
 31 27  1  0
  4 33  1  0
  5 34  1  0
  8 35  1  0
 12 36  1  0
 13 37  1  0
 16 38  1  0
 16 39  1  0
 17 40  1  0
 17 41  1  0
 19 42  1  0
 19 43  1  0
 20 44  1  6
 21 45  1  0
 21 46  1  0
 23 47  1  0
 24 48  1  0
 25 49  1  0
 29 50  1  0
 30 51  1  0
 32 52  1  0
M  END
$$$$
