
     RDKit          3D

 67 71  0  0  0  0  0  0  0  0999 V2000
   -7.1019    1.3629   -2.1546 C   0  0  0  0  0  0  0  0  0  0  0  0
   -5.9700    1.0255   -1.1827 C   0  0  0  0  0  0  0  0  0  0  0  0
   -6.6786    0.7728    0.1376 C   0  0  0  0  0  0  0  0  0  0  0  0
   -5.1408   -0.1546   -1.6600 C   0  0  2  0  0  0  0  0  0  0  0  0
   -5.8697   -1.4334   -1.8080 C   0  0  0  0  0  0  0  0  0  0  0  0
   -5.7269   -2.2816   -0.6943 O   0  0  0  0  0  0  0  0  0  0  0  0
   -4.3714   -2.4390   -0.3403 C   0  0  0  0  0  0  0  0  0  0  0  0
   -4.0003   -1.0777    0.3075 C   0  0  0  0  0  0  0  0  0  0  0  0
   -3.9471   -0.2042   -0.8420 N   0  0  0  0  0  0  0  0  0  0  0  0
   -2.8179    0.6135   -1.0998 C   0  0  0  0  0  0  0  0  0  0  0  0
   -2.6705    1.2516   -2.1545 O   0  0  0  0  0  0  0  0  0  0  0  0
   -1.7705    0.7196   -0.0651 C   0  0  2  0  0  0  0  0  0  0  0  0
   -0.5595    1.5083   -0.3520 C   0  0  0  0  0  0  0  0  0  0  0  0
   -0.5419    0.0151   -0.0209 C   0  0  1  0  0  0  0  0  0  0  0  0
    0.0496   -0.3974    1.2855 C   0  0  1  0  0  0  0  0  0  0  0  0
   -0.4741   -1.7914    1.6286 C   0  0  0  0  0  0  0  0  0  0  0  0
    1.5220   -0.5484    1.3289 C   0  0  0  0  0  0  0  0  0  0  0  0
    2.4601   -0.2285    0.3860 C   0  0  0  0  0  0  0  0  0  0  0  0
    3.7918   -0.4225    0.5809 C   0  0  0  0  0  0  0  0  0  0  0  0
    4.8726    0.0183   -0.2785 C   0  0  0  0  0  0  0  0  0  0  0  0
    5.8229   -0.7454   -0.7367 C   0  0  0  0  0  0  0  0  0  0  0  0
    5.8070   -2.0991   -0.4164 F   0  0  0  0  0  0  0  0  0  0  0  0
    7.0897   -0.1926   -1.2876 C   0  0  0  0  0  0  0  0  0  0  0  0
    7.3278    1.1668   -1.2444 C   0  0  0  0  0  0  0  0  0  0  0  0
    8.5839    1.7258   -1.4343 C   0  0  0  0  0  0  0  0  0  0  0  0
    9.6358    0.8454   -1.6779 C   0  0  0  0  0  0  0  0  0  0  0  0
   10.9488    1.3827   -1.5731 C   0  0  0  0  0  0  0  0  0  0  0  0
   12.1005    1.8681   -1.4631 N   0  0  0  0  0  0  0  0  0  0  0  0
    9.3652   -0.4903   -1.7359 C   0  0  0  0  0  0  0  0  0  0  0  0
    8.1090   -1.0317   -1.5427 N   0  0  0  0  0  0  0  0  0  0  0  0
    4.1787   -0.9930    1.8412 C   0  0  0  0  0  0  0  0  0  0  0  0
    3.2918   -1.3160    2.7886 C   0  0  0  0  0  0  0  0  0  0  0  0
    1.9556   -1.1124    2.5727 C   0  0  0  0  0  0  0  0  0  0  0  0
    1.0707   -1.4223    3.5447 F   0  0  0  0  0  0  0  0  0  0  0  0
   -0.2757    0.4481    2.3675 N   0  0  0  0  0  0  0  0  0  0  0  0
   -1.2082    1.1763    2.7214 C   0  0  0  0  0  0  0  0  0  0  0  0
   -1.2653    1.9423    3.9129 N   0  0  0  0  0  0  0  0  0  0  0  0
   -2.5455    1.2355    1.5120 S   0  0  0  0  0  0  0  0  0  0  0  0
   -7.7265    0.4879   -2.3921 H   0  0  0  0  0  0  0  0  0  0  0  0
   -7.6921    2.1666   -1.6037 H   0  0  0  0  0  0  0  0  0  0  0  0
   -6.7088    1.9000   -3.0641 H   0  0  0  0  0  0  0  0  0  0  0  0
   -5.3663    1.9451   -1.0700 H   0  0  0  0  0  0  0  0  0  0  0  0
   -6.0816    1.1066    0.9965 H   0  0  0  0  0  0  0  0  0  0  0  0
   -7.0297   -0.2401    0.2888 H   0  0  0  0  0  0  0  0  0  0  0  0
   -7.5790    1.4663    0.1644 H   0  0  0  0  0  0  0  0  0  0  0  0
   -4.8168    0.1477   -2.7122 H   0  0  0  0  0  0  0  0  0  0  0  0
   -5.5577   -2.0503   -2.6740 H   0  0  0  0  0  0  0  0  0  0  0  0
   -6.9597   -1.2718   -1.8902 H   0  0  0  0  0  0  0  0  0  0  0  0
   -4.2345   -3.2783    0.3183 H   0  0  0  0  0  0  0  0  0  0  0  0
   -3.8356   -2.5336   -1.3136 H   0  0  0  0  0  0  0  0  0  0  0  0
   -4.8638   -0.8510    0.9548 H   0  0  0  0  0  0  0  0  0  0  0  0
   -3.0879   -1.1128    0.8802 H   0  0  0  0  0  0  0  0  0  0  0  0
   -0.1005    2.1948    0.3473 H   0  0  0  0  0  0  0  0  0  0  0  0
   -0.4654    1.8346   -1.4127 H   0  0  0  0  0  0  0  0  0  0  0  0
   -0.2301   -0.5846   -0.8880 H   0  0  0  0  0  0  0  0  0  0  0  0
   -1.0261   -2.2330    0.7709 H   0  0  0  0  0  0  0  0  0  0  0  0
   -1.0359   -1.8043    2.5831 H   0  0  0  0  0  0  0  0  0  0  0  0
    0.3758   -2.5140    1.8074 H   0  0  0  0  0  0  0  0  0  0  0  0
    2.0737    0.2084   -0.5579 H   0  0  0  0  0  0  0  0  0  0  0  0
    4.8962    1.1001   -0.5841 H   0  0  0  0  0  0  0  0  0  0  0  0
    6.5221    1.8489   -1.0420 H   0  0  0  0  0  0  0  0  0  0  0  0
    8.7918    2.7928   -1.4137 H   0  0  0  0  0  0  0  0  0  0  0  0
   10.2252   -1.1454   -1.9560 H   0  0  0  0  0  0  0  0  0  0  0  0
    5.2849   -1.1157    1.9221 H   0  0  0  0  0  0  0  0  0  0  0  0
    3.6948   -1.7254    3.7304 H   0  0  0  0  0  0  0  0  0  0  0  0
   -1.8274    1.7115    4.7513 H   0  0  0  0  0  0  0  0  0  0  0  0
   -0.6871    2.8523    3.9562 H   0  0  0  0  0  0  0  0  0  0  0  0
  1  2  1  0
  2  3  1  0
  2  4  1  0
  4  5  1  0
  5  6  1  0
  6  7  1  0
  7  8  1  0
  8  9  1  0
  9 10  1  0
 10 11  2  0
 12 10  1  6
 12 13  1  0
 13 14  1  0
 14 15  1  0
 15 16  1  1
 15 17  1  0
 17 18  2  0
 18 19  1  0
 19 20  1  0
 20 21  2  0
 21 22  1  0
 21 23  1  0
 23 24  2  0
 24 25  1  0
 25 26  2  0
 26 27  1  0
 27 28  3  0
 26 29  1  0
 29 30  2  0
 19 31  2  0
 31 32  1  0
 32 33  2  0
 33 34  1  0
 15 35  1  0
 35 36  2  0
 36 37  1  0
 36 38  1  0
  9  4  1  0
 14 12  1  0
 33 17  1  0
 38 12  1  0
 30 23  1  0
  1 39  1  0
  1 40  1  0
  1 41  1  0
  2 42  1  0
  3 43  1  0
  3 44  1  0
  3 45  1  0
  4 46  1  6
  5 47  1  0
  5 48  1  0
  7 49  1  0
  7 50  1  0
  8 51  1  0
  8 52  1  0
 13 53  1  0
 13 54  1  0
 14 55  1  6
 16 56  1  0
 16 57  1  0
 16 58  1  0
 18 59  1  0
 20 60  1  0
 24 61  1  0
 25 62  1  0
 29 63  1  0
 31 64  1  0
 32 65  1  0
 37 66  1  0
 37 67  1  0
M  END
$$$$
