
     RDKit          3D

 80 84  0  0  0  0  0  0  0  0999 V2000
    2.4746    0.6939    3.0149 C   0  0  0  0  0  0  0  0  0  0  0  0
    1.8109    0.4976    1.8094 O   0  0  0  0  0  0  0  0  0  0  0  0
    2.4112    0.1439    0.6152 C   0  0  0  0  0  0  0  0  0  0  0  0
    3.7468   -0.0254    0.6093 N   0  0  0  0  0  0  0  0  0  0  0  0
    4.4259   -0.3700   -0.4990 C   0  0  0  0  0  0  0  0  0  0  0  0
    5.8383   -0.5037   -0.3874 N   0  0  0  0  0  0  0  0  0  0  0  0
    6.3529   -1.6853    0.2658 C   0  0  0  0  0  0  0  0  0  0  0  0
    7.8611   -1.6988    0.2998 C   0  0  0  0  0  0  0  0  0  0  0  0
    8.3932   -0.5077    1.0177 C   0  0  0  0  0  0  0  0  0  0  0  0
    9.8189   -0.4310    1.1267 N   0  0  0  0  0  0  0  0  0  0  0  0
   10.2132    0.7680    1.8154 C   0  0  0  0  0  0  0  0  0  0  0  0
   10.0667    2.0001    0.9450 C   0  0  0  0  0  0  0  0  0  0  0  0
   10.6035    1.8075   -0.3146 O   0  0  0  0  0  0  0  0  0  0  0  0
   11.3737    0.6454   -0.3752 C   0  0  0  0  0  0  0  0  0  0  0  0
   10.4722   -0.5775   -0.1306 C   0  0  0  0  0  0  0  0  0  0  0  0
    3.7378   -0.5495   -1.6351 N   0  0  0  0  0  0  0  0  0  0  0  0
    2.3759   -0.3897   -1.6864 C   0  0  0  0  0  0  0  0  0  0  0  0
    1.7574   -0.5934   -2.8893 O   0  0  0  0  0  0  0  0  0  0  0  0
    2.5198   -0.9529   -4.0204 C   0  0  0  0  0  0  0  0  0  0  0  0
    1.7009   -0.0369   -0.5418 C   0  0  0  0  0  0  0  0  0  0  0  0
    0.3062    0.1497   -0.5703 N   0  0  0  0  0  0  0  0  0  0  0  0
   -0.6484   -0.8826   -0.3823 C   0  0  0  0  0  0  0  0  0  0  0  0
   -0.2268   -2.0491   -0.1863 O   0  0  0  0  0  0  0  0  0  0  0  0
   -2.0942   -0.5989   -0.4142 C   0  0  0  0  0  0  0  0  0  0  0  0
   -2.6389    0.6645   -0.5516 C   0  0  0  0  0  0  0  0  0  0  0  0
   -4.0074    0.4848   -0.5327 C   0  0  0  0  0  0  0  0  0  0  0  0
   -4.2475   -0.8644   -0.3870 C   0  0  0  0  0  0  0  0  0  0  0  0
   -5.5097   -1.4547   -0.3222 O   0  0  0  0  0  0  0  0  0  0  0  0
   -6.6773   -0.7143   -0.4330 C   0  0  0  0  0  0  0  0  0  0  0  0
   -7.5646   -0.6728    0.6404 C   0  0  0  0  0  0  0  0  0  0  0  0
   -8.7286    0.0652    0.5340 C   0  0  0  0  0  0  0  0  0  0  0  0
   -8.9578    0.7339   -0.6415 C   0  0  0  0  0  0  0  0  0  0  0  0
   -8.0825    0.7047   -1.7291 C   0  0  0  0  0  0  0  0  0  0  0  0
   -6.9212   -0.0433   -1.6017 C   0  0  0  0  0  0  0  0  0  0  0  0
   -5.9847   -0.1248   -2.7470 C   0  0  0  0  0  0  0  0  0  0  0  0
  -10.2442    1.4959   -0.5482 C   0  0  0  0  0  0  0  0  0  0  0  0
  -10.4387    1.6080    0.9603 C   0  0  0  0  0  0  0  0  0  0  0  0
   -9.8820    0.3066    1.4369 C   0  0  0  0  0  0  0  0  0  0  0  0
   -9.5304    0.2707    2.8960 C   0  0  0  0  0  0  0  0  0  0  0  0
  -10.9160   -0.7585    1.1011 C   0  0  0  0  0  0  0  0  0  0  0  0
   -3.0832   -1.4549   -0.3221 O   0  0  0  0  0  0  0  0  0  0  0  0
    1.7254    0.6091    3.8517 H   0  0  0  0  0  0  0  0  0  0  0  0
    2.9732    1.7022    3.0587 H   0  0  0  0  0  0  0  0  0  0  0  0
    3.2341   -0.0895    3.1715 H   0  0  0  0  0  0  0  0  0  0  0  0
    6.5038    0.2013   -0.7544 H   0  0  0  0  0  0  0  0  0  0  0  0
    6.0334   -2.6247   -0.2641 H   0  0  0  0  0  0  0  0  0  0  0  0
    5.9591   -1.7913    1.3009 H   0  0  0  0  0  0  0  0  0  0  0  0
    8.1982   -1.7728   -0.7438 H   0  0  0  0  0  0  0  0  0  0  0  0
    8.2020   -2.6150    0.8415 H   0  0  0  0  0  0  0  0  0  0  0  0
    8.0674    0.4214    0.5005 H   0  0  0  0  0  0  0  0  0  0  0  0
    7.9123   -0.4679    2.0191 H   0  0  0  0  0  0  0  0  0  0  0  0
   11.2361    0.6705    2.1773 H   0  0  0  0  0  0  0  0  0  0  0  0
    9.5313    0.8990    2.6764 H   0  0  0  0  0  0  0  0  0  0  0  0
   10.5770    2.8312    1.4337 H   0  0  0  0  0  0  0  0  0  0  0  0
    9.0057    2.2711    0.8072 H   0  0  0  0  0  0  0  0  0  0  0  0
   11.8107    0.4921   -1.3654 H   0  0  0  0  0  0  0  0  0  0  0  0
   12.1847    0.6994    0.3729 H   0  0  0  0  0  0  0  0  0  0  0  0
   11.1992   -1.4334   -0.0687 H   0  0  0  0  0  0  0  0  0  0  0  0
    9.8283   -0.6429   -1.0096 H   0  0  0  0  0  0  0  0  0  0  0  0
    2.7589   -0.0732   -4.6719 H   0  0  0  0  0  0  0  0  0  0  0  0
    2.0546   -1.7826   -4.5945 H   0  0  0  0  0  0  0  0  0  0  0  0
    3.5231   -1.3272   -3.6783 H   0  0  0  0  0  0  0  0  0  0  0  0
   -0.1193    1.1145   -0.7411 H   0  0  0  0  0  0  0  0  0  0  0  0
   -2.0806    1.5891   -0.6489 H   0  0  0  0  0  0  0  0  0  0  0  0
   -4.6880    1.3166   -0.6208 H   0  0  0  0  0  0  0  0  0  0  0  0
   -7.3659   -1.1966    1.5395 H   0  0  0  0  0  0  0  0  0  0  0  0
   -8.2789    1.2372   -2.6473 H   0  0  0  0  0  0  0  0  0  0  0  0
   -6.5777   -0.3616   -3.6870 H   0  0  0  0  0  0  0  0  0  0  0  0
   -5.2849   -0.9605   -2.6532 H   0  0  0  0  0  0  0  0  0  0  0  0
   -5.5370    0.8642   -2.9348 H   0  0  0  0  0  0  0  0  0  0  0  0
  -10.1255    2.5005   -0.9869 H   0  0  0  0  0  0  0  0  0  0  0  0
  -11.0328    0.8754   -0.9737 H   0  0  0  0  0  0  0  0  0  0  0  0
  -11.5161    1.7285    1.1670 H   0  0  0  0  0  0  0  0  0  0  0  0
   -9.8273    2.4210    1.3815 H   0  0  0  0  0  0  0  0  0  0  0  0
  -10.3566   -0.2623    3.4162 H   0  0  0  0  0  0  0  0  0  0  0  0
   -8.6406   -0.3636    3.0192 H   0  0  0  0  0  0  0  0  0  0  0  0
   -9.4494    1.2708    3.3194 H   0  0  0  0  0  0  0  0  0  0  0  0
  -11.9367   -0.4299    1.3953 H   0  0  0  0  0  0  0  0  0  0  0  0
  -10.6994   -1.7043    1.6259 H   0  0  0  0  0  0  0  0  0  0  0  0
  -10.8787   -0.9161    0.0071 H   0  0  0  0  0  0  0  0  0  0  0  0
  1  2  1  0
  2  3  1  0
  3  4  2  0
  4  5  1  0
  5  6  1  0
  6  7  1  0
  7  8  1  0
  8  9  1  0
  9 10  1  0
 10 11  1  0
 11 12  1  0
 12 13  1  0
 13 14  1  0
 14 15  1  0
  5 16  2  0
 16 17  1  0
 17 18  1  0
 18 19  1  0
 17 20  2  0
 20 21  1  0
 21 22  1  0
 22 23  2  0
 22 24  1  0
 24 25  2  0
 25 26  1  0
 26 27  2  0
 27 28  1  0
 28 29  1  0
 29 30  2  0
 30 31  1  0
 31 32  2  0
 32 33  1  0
 33 34  2  0
 34 35  1  0
 32 36  1  0
 36 37  1  0
 37 38  1  0
 38 39  1  0
 38 40  1  0
 27 41  1  0
 20  3  1  0
 41 24  1  0
 15 10  1  0
 34 29  1  0
 38 31  1  0
  1 42  1  0
  1 43  1  0
  1 44  1  0
  6 45  1  0
  7 46  1  0
  7 47  1  0
  8 48  1  0
  8 49  1  0
  9 50  1  0
  9 51  1  0
 11 52  1  0
 11 53  1  0
 12 54  1  0
 12 55  1  0
 14 56  1  0
 14 57  1  0
 15 58  1  0
 15 59  1  0
 19 60  1  0
 19 61  1  0
 19 62  1  0
 21 63  1  0
 25 64  1  0
 26 65  1  0
 30 66  1  0
 33 67  1  0
 35 68  1  0
 35 69  1  0
 35 70  1  0
 36 71  1  0
 36 72  1  0
 37 73  1  0
 37 74  1  0
 39 75  1  0
 39 76  1  0
 39 77  1  0
 40 78  1  0
 40 79  1  0
 40 80  1  0
M  END
$$$$
