
     RDKit          3D

 64 68  0  0  0  0  0  0  0  0999 V2000
   -6.1491    0.9096   -1.9447 C   0  0  0  0  0  0  0  0  0  0  0  0
   -4.6272    0.7951   -2.1048 C   0  0  1  0  0  0  0  0  0  0  0  0
   -3.9873   -0.0001   -0.9836 C   0  0  0  0  0  0  0  0  0  0  0  0
   -3.4841   -1.2741   -1.4277 N   0  0  0  0  0  0  0  0  0  0  0  0
   -2.4560   -2.0255   -0.8184 C   0  0  0  0  0  0  0  0  0  0  0  0
   -2.0950   -3.1081   -1.3305 O   0  0  0  0  0  0  0  0  0  0  0  0
   -1.7514   -1.6052    0.4236 C   0  0  2  0  0  0  0  0  0  0  0  0
   -1.0132   -0.2942    0.3172 C   0  0  0  0  0  0  0  0  0  0  0  0
   -0.3002   -1.6149    0.4858 C   0  0  1  0  0  0  0  0  0  0  0  0
    0.4053   -1.9602    1.7100 C   0  0  1  0  0  0  0  0  0  0  0  0
    1.5472   -2.9565    1.2531 C   0  0  0  0  0  0  0  0  0  0  0  0
    1.1270   -0.7697    2.1980 C   0  0  0  0  0  0  0  0  0  0  0  0
    2.3270   -0.2913    1.7076 C   0  0  0  0  0  0  0  0  0  0  0  0
    2.8848    0.9122    1.9400 C   0  0  0  0  0  0  0  0  0  0  0  0
    4.0628    1.5165    1.3603 C   0  0  0  0  0  0  0  0  0  0  0  0
    4.5849    1.4571    0.1902 C   0  0  0  0  0  0  0  0  0  0  0  0
    4.0198    0.6980   -0.7799 F   0  0  0  0  0  0  0  0  0  0  0  0
    5.7028    2.3746   -0.1831 C   0  0  0  0  0  0  0  0  0  0  0  0
    6.2121    2.4226   -1.4225 C   0  0  0  0  0  0  0  0  0  0  0  0
    7.1336    3.3977   -1.8491 C   0  0  0  0  0  0  0  0  0  0  0  0
    7.4938    4.3378   -0.8967 C   0  0  0  0  0  0  0  0  0  0  0  0
    8.2535    5.5677   -1.3534 C   0  0  0  0  0  0  0  0  0  0  0  0
    8.7822    6.4020   -1.6504 N   0  0  0  0  0  0  0  0  0  0  0  0
    6.9918    4.2808    0.3473 C   0  0  0  0  0  0  0  0  0  0  0  0
    6.0963    3.3232    0.7488 N   0  0  0  0  0  0  0  0  0  0  0  0
    2.1240    1.7889    2.8188 C   0  0  0  0  0  0  0  0  0  0  0  0
    0.9419    1.3023    3.3027 C   0  0  0  0  0  0  0  0  0  0  0  0
    0.4057    0.1005    3.0599 C   0  0  0  0  0  0  0  0  0  0  0  0
   -0.7583   -0.2848    3.6667 F   0  0  0  0  0  0  0  0  0  0  0  0
   -0.1613   -2.6536    2.7737 N   0  0  0  0  0  0  0  0  0  0  0  0
   -1.4179   -2.8234    3.0142 C   0  0  0  0  0  0  0  0  0  0  0  0
   -1.7845   -3.5690    4.1535 N   0  0  0  0  0  0  0  0  0  0  0  0
   -2.5899   -2.1140    1.9120 S   0  0  0  0  0  0  0  0  0  0  0  0
   -4.1661   -1.8136   -2.6084 C   0  0  1  0  0  0  0  0  0  0  0  0
   -5.5190   -2.3180   -2.2172 C   0  0  0  0  0  0  0  0  0  0  0  0
   -4.1814   -0.8475   -3.7296 C   0  0  0  0  0  0  0  0  0  0  0  0
   -4.2363    0.4666   -3.3671 O   0  0  0  0  0  0  0  0  0  0  0  0
   -6.6976    0.3115   -2.7149 H   0  0  0  0  0  0  0  0  0  0  0  0
   -6.4690    0.6135   -0.9038 H   0  0  0  0  0  0  0  0  0  0  0  0
   -6.5026    1.9598   -2.0413 H   0  0  0  0  0  0  0  0  0  0  0  0
   -4.2836    1.8701   -1.9515 H   0  0  0  0  0  0  0  0  0  0  0  0
   -3.1610    0.5761   -0.5297 H   0  0  0  0  0  0  0  0  0  0  0  0
   -4.8102   -0.2481   -0.2483 H   0  0  0  0  0  0  0  0  0  0  0  0
   -0.9176    0.2290   -0.6793 H   0  0  0  0  0  0  0  0  0  0  0  0
   -1.1273    0.4051    1.1356 H   0  0  0  0  0  0  0  0  0  0  0  0
    0.1979   -1.9360   -0.4758 H   0  0  0  0  0  0  0  0  0  0  0  0
    2.3339   -2.8644    2.0029 H   0  0  0  0  0  0  0  0  0  0  0  0
    1.7899   -2.8153    0.2116 H   0  0  0  0  0  0  0  0  0  0  0  0
    1.0984   -3.9902    1.3581 H   0  0  0  0  0  0  0  0  0  0  0  0
    2.8926   -0.9658    1.0354 H   0  0  0  0  0  0  0  0  0  0  0  0
    4.6535    2.1743    2.0940 H   0  0  0  0  0  0  0  0  0  0  0  0
    5.9313    1.7011   -2.1966 H   0  0  0  0  0  0  0  0  0  0  0  0
    7.5514    3.4565   -2.8413 H   0  0  0  0  0  0  0  0  0  0  0  0
    7.3120    5.0499    1.0778 H   0  0  0  0  0  0  0  0  0  0  0  0
    2.5462    2.7477    3.0015 H   0  0  0  0  0  0  0  0  0  0  0  0
    0.3440    1.9656    3.9932 H   0  0  0  0  0  0  0  0  0  0  0  0
   -2.6167   -3.2843    4.7547 H   0  0  0  0  0  0  0  0  0  0  0  0
   -1.2601   -4.4156    4.4676 H   0  0  0  0  0  0  0  0  0  0  0  0
   -3.5939   -2.7405   -2.9204 H   0  0  0  0  0  0  0  0  0  0  0  0
   -5.4850   -3.4264   -2.0017 H   0  0  0  0  0  0  0  0  0  0  0  0
   -6.3119   -2.1278   -2.9548 H   0  0  0  0  0  0  0  0  0  0  0  0
   -5.8426   -1.8828   -1.2326 H   0  0  0  0  0  0  0  0  0  0  0  0
   -3.1436   -0.9416   -4.2437 H   0  0  0  0  0  0  0  0  0  0  0  0
   -4.8466   -1.1511   -4.5441 H   0  0  0  0  0  0  0  0  0  0  0  0
  1  2  1  0
  2  3  1  0
  3  4  1  0
  4  5  1  0
  5  6  2  0
  7  5  1  6
  7  8  1  0
  8  9  1  0
  9 10  1  0
 10 11  1  6
 10 12  1  0
 12 13  2  0
 13 14  1  0
 14 15  1  0
 15 16  2  0
 16 17  1  0
 16 18  1  0
 18 19  2  0
 19 20  1  0
 20 21  2  0
 21 22  1  0
 22 23  3  0
 21 24  1  0
 24 25  2  0
 14 26  2  0
 26 27  1  0
 27 28  2  0
 28 29  1  0
 10 30  1  0
 30 31  2  0
 31 32  1  0
 31 33  1  0
  4 34  1  0
 34 35  1  0
 34 36  1  0
 36 37  1  0
 37  2  1  0
  9  7  1  0
 28 12  1  0
 33  7  1  0
 25 18  1  0
  1 38  1  0
  1 39  1  0
  1 40  1  0
  2 41  1  1
  3 42  1  0
  3 43  1  0
  8 44  1  0
  8 45  1  0
  9 46  1  6
 11 47  1  0
 11 48  1  0
 11 49  1  0
 13 50  1  0
 15 51  1  0
 19 52  1  0
 20 53  1  0
 24 54  1  0
 26 55  1  0
 27 56  1  0
 32 57  1  0
 32 58  1  0
 34 59  1  6
 35 60  1  0
 35 61  1  0
 35 62  1  0
 36 63  1  0
 36 64  1  0
M  END
$$$$
