
     RDKit          3D

 46 50  0  0  0  0  0  0  0  0999 V2000
   -3.4846    2.9921   -2.4314 N   0  0  0  0  0  0  0  0  0  0  0  0
   -2.5450    3.2167   -1.7709 C   0  0  0  0  0  0  0  0  0  0  0  0
   -1.3919    3.4738   -0.9639 C   0  0  0  0  0  0  0  0  0  0  0  0
   -0.8332    4.7050   -0.6583 C   0  0  0  0  0  0  0  0  0  0  0  0
    0.2568    4.5243    0.1361 N   0  0  0  0  0  0  0  0  0  0  0  0
    0.3856    3.2102    0.3289 C   0  0  0  0  0  0  0  0  0  0  0  0
    1.3327    2.4922    1.0608 C   0  0  0  0  0  0  0  0  0  0  0  0
    1.1989    1.1252    1.0687 C   0  0  0  0  0  0  0  0  0  0  0  0
    0.1953    0.4469    0.4024 C   0  0  0  0  0  0  0  0  0  0  0  0
    0.0905   -0.9988    0.4371 C   0  0  0  0  0  0  0  0  0  0  0  0
   -0.9927   -1.6608    1.0003 C   0  0  0  0  0  0  0  0  0  0  0  0
   -2.1491   -1.0512    1.6146 C   0  0  0  0  0  0  0  0  0  0  0  0
   -3.4049   -1.3017    1.1374 C   0  0  0  0  0  0  0  0  0  0  0  0
   -4.5181   -0.7006    1.7434 C   0  0  0  0  0  0  0  0  0  0  0  0
   -4.3179    0.1404    2.8212 C   0  0  0  0  0  0  0  0  0  0  0  0
   -5.3608    0.7556    3.4553 F   0  0  0  0  0  0  0  0  0  0  0  0
   -3.0552    0.4025    3.3138 C   0  0  0  0  0  0  0  0  0  0  0  0
   -1.9913   -0.2128    2.6835 C   0  0  0  0  0  0  0  0  0  0  0  0
   -0.7255   -2.9885    0.8435 N   0  0  0  0  0  0  0  0  0  0  0  0
    0.4801   -3.1065    0.2062 C   0  0  0  0  0  0  0  0  0  0  0  0
    0.9826   -1.8849   -0.0441 N   0  0  0  0  0  0  0  0  0  0  0  0
    2.2009   -1.4898   -0.6805 C   0  0  0  0  0  0  0  0  0  0  0  0
    1.9941   -0.6369   -1.9157 C   0  0  0  0  0  0  0  0  0  0  0  0
    3.3739   -0.7369   -2.5339 C   0  0  0  0  0  0  0  0  0  0  0  0
    3.7066   -2.1897   -2.4323 C   0  0  0  0  0  0  0  0  0  0  0  0
    3.0183   -2.6571   -1.1915 C   0  0  0  0  0  0  0  0  0  0  0  0
   -0.7120    1.2317   -0.3061 C   0  0  0  0  0  0  0  0  0  0  0  0
   -0.5959    2.5681   -0.3245 N   0  0  0  0  0  0  0  0  0  0  0  0
   -1.2213    5.6442   -1.0088 H   0  0  0  0  0  0  0  0  0  0  0  0
    2.1222    3.0232    1.5853 H   0  0  0  0  0  0  0  0  0  0  0  0
    1.9485    0.5647    1.6469 H   0  0  0  0  0  0  0  0  0  0  0  0
   -3.6302   -1.9469    0.3014 H   0  0  0  0  0  0  0  0  0  0  0  0
   -5.5129   -0.8631    1.4105 H   0  0  0  0  0  0  0  0  0  0  0  0
   -2.8534    1.0499    4.1496 H   0  0  0  0  0  0  0  0  0  0  0  0
   -0.9989   -0.0053    3.0721 H   0  0  0  0  0  0  0  0  0  0  0  0
    0.9625   -4.0383   -0.0577 H   0  0  0  0  0  0  0  0  0  0  0  0
    2.8754   -0.9040   -0.0166 H   0  0  0  0  0  0  0  0  0  0  0  0
    1.7757    0.4208   -1.6716 H   0  0  0  0  0  0  0  0  0  0  0  0
    1.2413   -1.1006   -2.5608 H   0  0  0  0  0  0  0  0  0  0  0  0
    3.3871   -0.3685   -3.5798 H   0  0  0  0  0  0  0  0  0  0  0  0
    4.1041   -0.1825   -1.8956 H   0  0  0  0  0  0  0  0  0  0  0  0
    4.7993   -2.3813   -2.3657 H   0  0  0  0  0  0  0  0  0  0  0  0
    3.3200   -2.7781   -3.3040 H   0  0  0  0  0  0  0  0  0  0  0  0
    2.2998   -3.4818   -1.4426 H   0  0  0  0  0  0  0  0  0  0  0  0
    3.7409   -3.0274   -0.4344 H   0  0  0  0  0  0  0  0  0  0  0  0
   -1.4984    0.7063   -0.8282 H   0  0  0  0  0  0  0  0  0  0  0  0
  1  2  3  0
  2  3  1  0
  3  4  2  0
  4  5  1  0
  5  6  2  0
  6  7  1  0
  7  8  2  0
  8  9  1  0
  9 10  1  0
 10 11  2  0
 11 12  1  0
 12 13  2  0
 13 14  1  0
 14 15  2  0
 15 16  1  0
 15 17  1  0
 17 18  2  0
 11 19  1  0
 19 20  2  0
 20 21  1  0
 21 22  1  0
 22 23  1  0
 23 24  1  0
 24 25  1  0
 25 26  1  0
  9 27  2  0
 27 28  1  0
 28  3  1  0
 28  6  1  0
 21 10  1  0
 26 22  1  0
 18 12  1  0
  4 29  1  0
  7 30  1  0
  8 31  1  0
 13 32  1  0
 14 33  1  0
 17 34  1  0
 18 35  1  0
 20 36  1  0
 22 37  1  0
 23 38  1  0
 23 39  1  0
 24 40  1  0
 24 41  1  0
 25 42  1  0
 25 43  1  0
 26 44  1  0
 26 45  1  0
 27 46  1  0
M  END
$$$$
