
     RDKit          3D

 52 56  0  0  0  0  0  0  0  0999 V2000
   -4.4990   -1.9246   -1.7174 C   0  0  0  0  0  0  0  0  0  0  0  0
   -4.2490   -0.8861   -0.7220 N   0  0  0  0  0  0  0  0  0  0  0  0
   -5.1959   -0.2094   -0.0666 C   0  0  0  0  0  0  0  0  0  0  0  0
   -4.5749    0.6966    0.7995 C   0  0  0  0  0  0  0  0  0  0  0  0
   -3.2177    0.5383    0.6394 C   0  0  0  0  0  0  0  0  0  0  0  0
   -2.1600    1.1835    1.2526 C   0  0  0  0  0  0  0  0  0  0  0  0
   -0.8911    0.8276    0.9033 C   0  0  0  0  0  0  0  0  0  0  0  0
   -0.6605   -0.1547   -0.0412 C   0  0  0  0  0  0  0  0  0  0  0  0
    0.6907   -0.4707   -0.3526 N   0  0  0  0  0  0  0  0  0  0  0  0
    1.5843    0.4894   -0.6369 C   0  0  0  0  0  0  0  0  0  0  0  0
    2.8870    0.1967   -0.9380 C   0  0  0  0  0  0  0  0  0  0  0  0
    3.3332   -1.1048   -0.9603 C   0  0  0  0  0  0  0  0  0  0  0  0
    4.5957   -1.4643   -1.2453 O   0  0  0  0  0  0  0  0  0  0  0  0
    5.7801   -0.8977   -1.5630 C   0  0  0  0  0  0  0  0  0  0  0  0
    6.4001    0.0182   -0.5788 C   0  0  0  0  0  0  0  0  0  0  0  0
    6.2982    1.3694   -0.5974 C   0  0  0  0  0  0  0  0  0  0  0  0
    6.9079    2.1660    0.3804 C   0  0  0  0  0  0  0  0  0  0  0  0
    7.6274    1.6041    1.3869 C   0  0  0  0  0  0  0  0  0  0  0  0
    7.7501    0.2180    1.4321 C   0  0  0  0  0  0  0  0  0  0  0  0
    7.1453   -0.5433    0.4653 C   0  0  0  0  0  0  0  0  0  0  0  0
    2.3659   -2.0870   -0.6567 C   0  0  0  0  0  0  0  0  0  0  0  0
    1.0903   -1.7440   -0.3658 C   0  0  0  0  0  0  0  0  0  0  0  0
    0.2538   -2.6798   -0.0974 O   0  0  0  0  0  0  0  0  0  0  0  0
   -1.7355   -0.7874   -0.6422 C   0  0  0  0  0  0  0  0  0  0  0  0
   -3.0290   -0.4506   -0.3111 C   0  0  0  0  0  0  0  0  0  0  0  0
   -5.4341    1.5483    1.6220 C   0  0  0  0  0  0  0  0  0  0  0  0
   -6.6924    0.9186    2.0965 C   0  0  0  0  0  0  0  0  0  0  0  0
   -7.1974   -0.1471    1.3058 N   0  0  0  0  0  0  0  0  0  0  0  0
   -6.6826   -0.1945   -0.0432 C   0  0  0  0  0  0  0  0  0  0  0  0
   -3.5172   -2.3926   -1.9975 H   0  0  0  0  0  0  0  0  0  0  0  0
   -4.9517   -1.4576   -2.6242 H   0  0  0  0  0  0  0  0  0  0  0  0
   -5.1859   -2.6739   -1.2837 H   0  0  0  0  0  0  0  0  0  0  0  0
   -2.3927    1.9516    1.9913 H   0  0  0  0  0  0  0  0  0  0  0  0
   -0.0436    1.3338    1.3842 H   0  0  0  0  0  0  0  0  0  0  0  0
    1.2211    1.5290   -0.6171 H   0  0  0  0  0  0  0  0  0  0  0  0
    3.5510    1.0382   -1.1665 H   0  0  0  0  0  0  0  0  0  0  0  0
    5.7462   -0.3288   -2.5548 H   0  0  0  0  0  0  0  0  0  0  0  0
    6.5644   -1.7123   -1.7127 H   0  0  0  0  0  0  0  0  0  0  0  0
    5.7511    1.8522   -1.3710 H   0  0  0  0  0  0  0  0  0  0  0  0
    6.7902    3.2466    0.3127 H   0  0  0  0  0  0  0  0  0  0  0  0
    8.1129    2.1735    2.1592 H   0  0  0  0  0  0  0  0  0  0  0  0
    8.3250   -0.2327    2.2358 H   0  0  0  0  0  0  0  0  0  0  0  0
    7.2405   -1.6234    0.4999 H   0  0  0  0  0  0  0  0  0  0  0  0
    2.6945   -3.1282   -0.6678 H   0  0  0  0  0  0  0  0  0  0  0  0
   -1.5642   -1.5586   -1.3836 H   0  0  0  0  0  0  0  0  0  0  0  0
   -4.8040    1.9267    2.4745 H   0  0  0  0  0  0  0  0  0  0  0  0
   -5.7094    2.4722    1.0494 H   0  0  0  0  0  0  0  0  0  0  0  0
   -7.4875    1.6987    2.2763 H   0  0  0  0  0  0  0  0  0  0  0  0
   -6.4913    0.5070    3.1291 H   0  0  0  0  0  0  0  0  0  0  0  0
   -8.2355   -0.0528    1.2359 H   0  0  0  0  0  0  0  0  0  0  0  0
   -7.0067   -1.1805   -0.4666 H   0  0  0  0  0  0  0  0  0  0  0  0
   -7.0980    0.5834   -0.6967 H   0  0  0  0  0  0  0  0  0  0  0  0
  1  2  1  0
  2  3  1  0
  3  4  2  0
  4  5  1  0
  5  6  2  0
  6  7  1  0
  7  8  2  0
  8  9  1  0
  9 10  1  0
 10 11  2  0
 11 12  1  0
 12 13  1  0
 13 14  1  0
 14 15  1  0
 15 16  2  0
 16 17  1  0
 17 18  2  0
 18 19  1  0
 19 20  2  0
 12 21  2  0
 21 22  1  0
 22 23  2  0
  8 24  1  0
 24 25  2  0
  4 26  1  0
 26 27  1  0
 27 28  1  0
 28 29  1  0
 25  2  1  0
 29  3  1  0
 25  5  1  0
 22  9  1  0
 20 15  1  0
  1 30  1  0
  1 31  1  0
  1 32  1  0
  6 33  1  0
  7 34  1  0
 10 35  1  0
 11 36  1  0
 14 37  1  0
 14 38  1  0
 16 39  1  0
 17 40  1  0
 18 41  1  0
 19 42  1  0
 20 43  1  0
 21 44  1  0
 24 45  1  0
 26 46  1  0
 26 47  1  0
 27 48  1  0
 27 49  1  0
 28 50  1  0
 29 51  1  0
 29 52  1  0
M  END
$$$$
