
     RDKit          3D

 52 53  0  0  0  0  0  0  0  0999 V2000
    5.8683   -2.2116    2.6006 C   0  0  0  0  0  0  0  0  0  0  0  0
    5.0263   -2.9509    1.5892 C   0  0  0  0  0  0  0  0  0  0  0  0
    4.3269   -2.0768    0.7274 O   0  0  0  0  0  0  0  0  0  0  0  0
    3.4303   -1.1815    1.2809 C   0  0  0  0  0  0  0  0  0  0  0  0
    3.2735   -1.1800    2.5208 O   0  0  0  0  0  0  0  0  0  0  0  0
    2.6837   -0.2587    0.4371 C   0  0  0  0  0  0  0  0  0  0  0  0
    2.7670   -0.1663   -0.9087 N   0  0  0  0  0  0  0  0  0  0  0  0
    1.9581    0.7649   -1.3178 O   0  0  0  0  0  0  0  0  0  0  0  0
    1.3231    1.3157   -0.3118 C   0  0  0  0  0  0  0  0  0  0  0  0
    0.3123    2.4156   -0.3543 C   0  0  2  0  0  0  0  0  0  0  0  0
   -0.9048    1.9208   -1.1028 C   0  0  0  0  0  0  0  0  0  0  0  0
   -1.5137    0.7122   -0.4172 C   0  0  0  0  0  0  0  0  0  0  0  0
   -2.7024    0.2874   -1.2125 C   0  0  0  0  0  0  0  0  0  0  0  0
   -3.4146   -0.9127   -0.6461 C   0  0  0  0  0  0  0  0  0  0  0  0
   -2.5656   -2.1347   -0.5525 C   0  0  0  0  0  0  0  0  0  0  0  0
   -2.4336   -2.6375    0.8815 C   0  0  0  0  0  0  0  0  0  0  0  0
   -3.7524   -2.8420    1.5470 C   0  0  0  0  0  0  0  0  0  0  0  0
   -4.8140   -1.8589    1.1010 C   0  0  0  0  0  0  0  0  0  0  0  0
   -4.0995   -0.5963    0.6661 C   0  0  0  0  0  0  0  0  0  0  0  0
    0.8439    3.7002   -0.8838 C   0  0  0  0  0  0  0  0  0  0  0  0
    1.3636    3.6649   -2.2488 C   0  0  0  0  0  0  0  0  0  0  0  0
    1.4015    2.6874   -3.0133 O   0  0  0  0  0  0  0  0  0  0  0  0
    1.8899    4.8985   -2.7657 N   0  0  0  0  0  0  0  0  0  0  0  0
    2.3903    4.9537   -4.0196 O   0  0  0  0  0  0  0  0  0  0  0  0
    1.7808    0.6705    0.7912 N   0  0  0  0  0  0  0  0  0  0  0  0
    6.8216   -2.7842    2.7831 H   0  0  0  0  0  0  0  0  0  0  0  0
    5.3083   -2.0639    3.5464 H   0  0  0  0  0  0  0  0  0  0  0  0
    6.1519   -1.1946    2.2461 H   0  0  0  0  0  0  0  0  0  0  0  0
    4.3396   -3.6590    2.1114 H   0  0  0  0  0  0  0  0  0  0  0  0
    5.7034   -3.5883    0.9820 H   0  0  0  0  0  0  0  0  0  0  0  0
   -0.0184    2.6113    0.6981 H   0  0  0  0  0  0  0  0  0  0  0  0
   -1.6537    2.7439   -1.1509 H   0  0  0  0  0  0  0  0  0  0  0  0
   -0.5958    1.7057   -2.1264 H   0  0  0  0  0  0  0  0  0  0  0  0
   -1.7246    0.8984    0.6377 H   0  0  0  0  0  0  0  0  0  0  0  0
   -0.7504   -0.1135   -0.5042 H   0  0  0  0  0  0  0  0  0  0  0  0
   -2.4351    0.1629   -2.2683 H   0  0  0  0  0  0  0  0  0  0  0  0
   -3.4412    1.1327   -1.1791 H   0  0  0  0  0  0  0  0  0  0  0  0
   -4.2471   -1.1467   -1.3709 H   0  0  0  0  0  0  0  0  0  0  0  0
   -1.5337   -1.9928   -0.9283 H   0  0  0  0  0  0  0  0  0  0  0  0
   -2.9869   -3.0021   -1.1295 H   0  0  0  0  0  0  0  0  0  0  0  0
   -1.9140   -3.6179    0.8211 H   0  0  0  0  0  0  0  0  0  0  0  0
   -1.7677   -1.9624    1.4724 H   0  0  0  0  0  0  0  0  0  0  0  0
   -3.5992   -2.6763    2.6483 H   0  0  0  0  0  0  0  0  0  0  0  0
   -4.1375   -3.8782    1.4567 H   0  0  0  0  0  0  0  0  0  0  0  0
   -5.3088   -2.3142    0.2035 H   0  0  0  0  0  0  0  0  0  0  0  0
   -5.5569   -1.6597    1.8991 H   0  0  0  0  0  0  0  0  0  0  0  0
   -3.2914   -0.3381    1.3988 H   0  0  0  0  0  0  0  0  0  0  0  0
   -4.8010    0.2475    0.5020 H   0  0  0  0  0  0  0  0  0  0  0  0
    0.0748    4.4811   -0.7382 H   0  0  0  0  0  0  0  0  0  0  0  0
    1.6945    4.0008   -0.2151 H   0  0  0  0  0  0  0  0  0  0  0  0
    1.8969    5.7685   -2.1906 H   0  0  0  0  0  0  0  0  0  0  0  0
    3.3335    5.2549   -3.9933 H   0  0  0  0  0  0  0  0  0  0  0  0
  1  2  1  0
  2  3  1  0
  3  4  1  0
  4  5  2  0
  4  6  1  0
  6  7  2  0
  7  8  1  0
  8  9  1  0
  9 10  1  0
 10 11  1  0
 11 12  1  0
 12 13  1  0
 13 14  1  0
 14 15  1  0
 15 16  1  0
 16 17  1  0
 17 18  1  0
 18 19  1  0
 10 20  1  0
 20 21  1  0
 21 22  2  0
 21 23  1  0
 23 24  1  0
  9 25  2  0
 25  6  1  0
 19 14  1  0
  1 26  1  0
  1 27  1  0
  1 28  1  0
  2 29  1  0
  2 30  1  0
 10 31  1  1
 11 32  1  0
 11 33  1  0
 12 34  1  0
 12 35  1  0
 13 36  1  0
 13 37  1  0
 14 38  1  0
 15 39  1  0
 15 40  1  0
 16 41  1  0
 16 42  1  0
 17 43  1  0
 17 44  1  0
 18 45  1  0
 18 46  1  0
 19 47  1  0
 19 48  1  0
 20 49  1  0
 20 50  1  0
 23 51  1  0
 24 52  1  0
M  END
$$$$
