
     RDKit          3D

 63 67  0  0  0  0  0  0  0  0999 V2000
   -3.3508   -0.0213    2.9137 C   0  0  0  0  0  0  0  0  0  0  0  0
   -2.6369    0.5472    1.7159 C   0  0  2  0  0  0  0  0  0  0  0  0
   -3.4770    1.1638    0.7514 N   0  0  0  0  0  0  0  0  0  0  0  0
   -3.3214    2.8344    0.5507 S   0  0  0  0  0  6  0  0  0  0  0  0
   -4.3408    3.2603   -0.4993 O   0  0  0  0  0  0  0  0  0  0  0  0
   -3.7414    3.5749    1.8127 O   0  0  0  0  0  0  0  0  0  0  0  0
   -1.7308    3.3463    0.0088 C   0  0  0  0  0  0  0  0  0  0  0  0
   -1.4736    3.4532   -1.5046 C   0  0  0  0  0  0  0  0  0  0  0  0
   -1.6347    4.6900   -0.6332 C   0  0  0  0  0  0  0  0  0  0  0  0
   -1.6866   -0.4486    1.1663 C   0  0  2  0  0  0  0  0  0  0  0  0
   -0.7991    0.1233    0.2544 O   0  0  0  0  0  0  0  0  0  0  0  0
    0.5460    0.2903    0.3160 C   0  0  0  0  0  0  0  0  0  0  0  0
    1.2679    0.8791   -0.7204 C   0  0  0  0  0  0  0  0  0  0  0  0
    2.6310    1.0523   -0.6646 C   0  0  0  0  0  0  0  0  0  0  0  0
    3.3501    0.6482    0.4267 C   0  0  0  0  0  0  0  0  0  0  0  0
    2.6696    0.0620    1.4703 C   0  0  0  0  0  0  0  0  0  0  0  0
    3.6092   -0.2491    2.4314 C   0  0  0  0  0  0  0  0  0  0  0  0
    4.7913    0.1548    1.9358 N   0  0  0  0  0  0  0  0  0  0  0  0
    4.6571    0.6944    0.7370 N   0  0  0  0  0  0  0  0  0  0  0  0
    5.6591    1.2383   -0.1150 C   0  0  0  0  0  0  0  0  0  0  0  0
    5.8874    0.7785   -1.3949 C   0  0  0  0  0  0  0  0  0  0  0  0
    6.8708    1.3299   -2.1983 C   0  0  0  0  0  0  0  0  0  0  0  0
    7.6638    2.3645   -1.7488 C   0  0  0  0  0  0  0  0  0  0  0  0
    8.6237    2.8885   -2.5595 F   0  0  0  0  0  0  0  0  0  0  0  0
    7.4442    2.8317   -0.4713 C   0  0  0  0  0  0  0  0  0  0  0  0
    6.4530    2.2739    0.3347 C   0  0  0  0  0  0  0  0  0  0  0  0
    1.2812   -0.1093    1.4027 C   0  0  0  0  0  0  0  0  0  0  0  0
   -2.3108   -1.6836    0.6388 C   0  0  0  0  0  0  0  0  0  0  0  0
   -3.6343   -1.9900    0.6414 C   0  0  0  0  0  0  0  0  0  0  0  0
   -4.1006   -3.1901    0.1211 C   0  0  0  0  0  0  0  0  0  0  0  0
   -3.2401   -4.1182   -0.4188 C   0  0  0  0  0  0  0  0  0  0  0  0
   -3.8104   -5.6414   -1.0815 S   0  0  0  0  0  6  0  0  0  0  0  0
   -4.1655   -5.4145   -2.8068 C   0  0  0  0  0  0  0  0  0  0  0  0
   -2.7101   -6.6357   -0.9338 O   0  0  0  0  0  0  0  0  0  0  0  0
   -5.0080   -6.1231   -0.3467 O   0  0  0  0  0  0  0  0  0  0  0  0
   -1.8999   -3.8056   -0.4205 C   0  0  0  0  0  0  0  0  0  0  0  0
   -1.4246   -2.6163    0.0937 C   0  0  0  0  0  0  0  0  0  0  0  0
   -2.9577    0.4769    3.8289 H   0  0  0  0  0  0  0  0  0  0  0  0
   -4.4333    0.1474    2.9336 H   0  0  0  0  0  0  0  0  0  0  0  0
   -3.1385   -1.1045    3.0913 H   0  0  0  0  0  0  0  0  0  0  0  0
   -1.9917    1.3943    2.1196 H   0  0  0  0  0  0  0  0  0  0  0  0
   -3.4935    0.6167   -0.1251 H   0  0  0  0  0  0  0  0  0  0  0  0
   -0.8566    3.0808    0.6571 H   0  0  0  0  0  0  0  0  0  0  0  0
   -0.4842    3.2148   -1.8945 H   0  0  0  0  0  0  0  0  0  0  0  0
   -2.3490    3.1485   -2.1454 H   0  0  0  0  0  0  0  0  0  0  0  0
   -2.5897    5.2389   -0.8187 H   0  0  0  0  0  0  0  0  0  0  0  0
   -0.7197    5.3014   -0.5676 H   0  0  0  0  0  0  0  0  0  0  0  0
   -1.0806   -0.8073    2.0514 H   0  0  0  0  0  0  0  0  0  0  0  0
    0.7358    1.1984   -1.5800 H   0  0  0  0  0  0  0  0  0  0  0  0
    3.1764    1.5108   -1.4769 H   0  0  0  0  0  0  0  0  0  0  0  0
    3.3637   -0.7223    3.3687 H   0  0  0  0  0  0  0  0  0  0  0  0
    5.2688   -0.0327   -1.7533 H   0  0  0  0  0  0  0  0  0  0  0  0
    7.0496    0.9604   -3.2183 H   0  0  0  0  0  0  0  0  0  0  0  0
    8.0703    3.6439   -0.1251 H   0  0  0  0  0  0  0  0  0  0  0  0
    6.2923    2.6466    1.3267 H   0  0  0  0  0  0  0  0  0  0  0  0
    0.8311   -0.5825    2.2772 H   0  0  0  0  0  0  0  0  0  0  0  0
   -4.3260   -1.2931    1.0460 H   0  0  0  0  0  0  0  0  0  0  0  0
   -5.1667   -3.4003    0.1408 H   0  0  0  0  0  0  0  0  0  0  0  0
   -3.2001   -5.1040   -3.3005 H   0  0  0  0  0  0  0  0  0  0  0  0
   -4.8886   -4.6121   -2.9777 H   0  0  0  0  0  0  0  0  0  0  0  0
   -4.4327   -6.3770   -3.2769 H   0  0  0  0  0  0  0  0  0  0  0  0
   -1.2333   -4.5508   -0.8513 H   0  0  0  0  0  0  0  0  0  0  0  0
   -0.3543   -2.4259    0.0641 H   0  0  0  0  0  0  0  0  0  0  0  0
  1  2  1  0
  2  3  1  0
  3  4  1  0
  4  5  2  0
  4  6  2  0
  4  7  1  0
  7  8  1  0
  8  9  1  0
  2 10  1  0
 10 11  1  0
 11 12  1  0
 12 13  2  0
 13 14  1  0
 14 15  2  0
 15 16  1  0
 16 17  1  0
 17 18  2  0
 18 19  1  0
 19 20  1  0
 20 21  2  0
 21 22  1  0
 22 23  2  0
 23 24  1  0
 23 25  1  0
 25 26  2  0
 16 27  2  0
 10 28  1  0
 28 29  2  0
 29 30  1  0
 30 31  2  0
 31 32  1  0
 32 33  1  0
 32 34  2  0
 32 35  2  0
 31 36  1  0
 36 37  2  0
  9  7  1  0
 27 12  1  0
 37 28  1  0
 19 15  1  0
 26 20  1  0
  1 38  1  0
  1 39  1  0
  1 40  1  0
  2 41  1  1
  3 42  1  0
  7 43  1  0
  8 44  1  0
  8 45  1  0
  9 46  1  0
  9 47  1  0
 10 48  1  1
 13 49  1  0
 14 50  1  0
 17 51  1  0
 21 52  1  0
 22 53  1  0
 25 54  1  0
 26 55  1  0
 27 56  1  0
 29 57  1  0
 30 58  1  0
 33 59  1  0
 33 60  1  0
 33 61  1  0
 36 62  1  0
 37 63  1  0
M  END
$$$$
