
     RDKit          3D

 30 32  0  0  0  0  0  0  0  0999 V2000
    2.0860    0.4836    2.8575 O   0  0  0  0  0  0  0  0  0  0  0  0
    1.9976    0.3025    1.5472 C   0  0  0  0  0  0  0  0  0  0  0  0
    0.6353    0.1914    1.1336 C   0  0  0  0  0  0  0  0  0  0  0  0
    0.1386   -0.0390   -0.0463 C   0  0  0  0  0  0  0  0  0  0  0  0
   -1.3179   -0.1244   -0.3326 C   0  0  0  0  0  0  0  0  0  0  0  0
   -1.7031   -0.3778   -1.6518 C   0  0  0  0  0  0  0  0  0  0  0  0
   -3.0246   -0.4768   -2.0278 C   0  0  0  0  0  0  0  0  0  0  0  0
   -4.0058   -0.3255   -1.0960 C   0  0  0  0  0  0  0  0  0  0  0  0
   -3.6448   -0.0771    0.1993 C   0  0  0  0  0  0  0  0  0  0  0  0
   -2.3021    0.0250    0.5890 C   0  0  0  0  0  0  0  0  0  0  0  0
   -4.8129    0.0319    0.9257 O   0  0  0  0  0  0  0  0  0  0  0  0
   -5.9442   -0.0871    0.1140 C   0  0  0  0  0  0  0  0  0  0  0  0
   -5.3945   -0.3693   -1.1663 O   0  0  0  0  0  0  0  0  0  0  0  0
    3.2473    0.2615    0.8900 C   0  0  0  0  0  0  0  0  0  0  0  0
    3.4738    0.3375   -0.4525 C   0  0  0  0  0  0  0  0  0  0  0  0
    4.7644    0.2098   -0.9293 C   0  0  0  0  0  0  0  0  0  0  0  0
    5.8470    0.0105   -0.1266 C   0  0  0  0  0  0  0  0  0  0  0  0
    5.6306   -0.0627    1.1886 N   0  0  0  0  0  0  0  0  0  0  0  0
    4.3951    0.0560    1.6804 C   0  0  0  0  0  0  0  0  0  0  0  0
   -0.1643    0.3174    1.9215 H   0  0  0  0  0  0  0  0  0  0  0  0
    0.8269   -0.2069   -0.8565 H   0  0  0  0  0  0  0  0  0  0  0  0
   -0.9581   -0.5053   -2.4275 H   0  0  0  0  0  0  0  0  0  0  0  0
   -3.3154   -0.6729   -3.0493 H   0  0  0  0  0  0  0  0  0  0  0  0
   -2.0553    0.2210    1.6155 H   0  0  0  0  0  0  0  0  0  0  0  0
   -6.4800    0.8730    0.0172 H   0  0  0  0  0  0  0  0  0  0  0  0
   -6.6412   -0.8924    0.4329 H   0  0  0  0  0  0  0  0  0  0  0  0
    2.6658    0.5355   -1.1750 H   0  0  0  0  0  0  0  0  0  0  0  0
    4.8926    0.2772   -2.0217 H   0  0  0  0  0  0  0  0  0  0  0  0
    6.8438   -0.0855   -0.5315 H   0  0  0  0  0  0  0  0  0  0  0  0
    4.3196   -0.0205    2.7783 H   0  0  0  0  0  0  0  0  0  0  0  0
  1  2  2  0
  2  3  1  0
  3  4  2  0
  4  5  1  0
  5  6  2  0
  6  7  1  0
  7  8  2  0
  8  9  1  0
  9 10  2  0
  9 11  1  0
 11 12  1  0
 12 13  1  0
  2 14  1  0
 14 15  2  0
 15 16  1  0
 16 17  2  0
 17 18  1  0
 18 19  2  0
 10  5  1  0
 19 14  1  0
 13  8  1  0
  3 20  1  0
  4 21  1  0
  6 22  1  0
  7 23  1  0
 10 24  1  0
 12 25  1  0
 12 26  1  0
 15 27  1  0
 16 28  1  0
 17 29  1  0
 19 30  1  0
M  END
$$$$
