
     RDKit          3D

 50 52  0  0  0  0  0  0  0  0999 V2000
    0.0940    1.1911    1.1411 O   0  0  0  0  0  0  0  0  0  0  0  0
   -0.7323    0.6886    0.1587 C   0  0  0  0  0  0  0  0  0  0  0  0
   -0.0838    0.6702   -1.1487 C   0  0  0  0  0  0  0  0  0  0  0  0
    1.1622   -0.1032   -1.3478 C   0  0  0  0  0  0  0  0  0  0  0  0
    2.3410    0.1679   -0.6731 N   0  0  0  0  0  0  0  0  0  0  0  0
    2.6219   -0.0581    0.6631 C   0  0  0  0  0  0  0  0  0  0  0  0
    4.0036   -0.7187    0.8740 C   0  0  0  0  0  0  0  0  0  0  0  0
    4.1683   -1.8456   -0.1124 C   0  0  0  0  0  0  0  0  0  0  0  0
    3.9566   -1.3912   -1.5335 C   0  0  0  0  0  0  0  0  0  0  0  0
    3.5489    0.0718   -1.4789 C   0  0  0  0  0  0  0  0  0  0  0  0
   -1.4548   -0.5049    0.6303 C   0  0  0  0  0  0  0  0  0  0  0  0
   -2.3791   -1.1523   -0.3849 C   0  0  0  0  0  0  0  0  0  0  0  0
   -2.9246   -2.3254    0.4123 C   0  0  0  0  0  0  0  0  0  0  0  0
   -1.9254   -2.5851    1.5419 C   0  0  0  0  0  0  0  0  0  0  0  0
   -0.7387   -1.6493    1.2124 C   0  0  0  0  0  0  0  0  0  0  0  0
   -1.8432    1.7778    0.1389 C   0  0  0  0  0  0  0  0  0  0  0  0
   -2.5071    2.1190    1.2954 C   0  0  0  0  0  0  0  0  0  0  0  0
   -3.4969    3.0718    1.2902 C   0  0  0  0  0  0  0  0  0  0  0  0
   -3.8349    3.7001    0.1118 C   0  0  0  0  0  0  0  0  0  0  0  0
   -3.1799    3.3713   -1.0573 C   0  0  0  0  0  0  0  0  0  0  0  0
   -2.2027    2.4223   -1.0206 C   0  0  0  0  0  0  0  0  0  0  0  0
    0.4249    2.0717    0.8614 H   0  0  0  0  0  0  0  0  0  0  0  0
   -0.8310    0.3956   -1.9900 H   0  0  0  0  0  0  0  0  0  0  0  0
    0.1856    1.7283   -1.4919 H   0  0  0  0  0  0  0  0  0  0  0  0
    1.3657   -0.1547   -2.4974 H   0  0  0  0  0  0  0  0  0  0  0  0
    0.9422   -1.2205   -1.1871 H   0  0  0  0  0  0  0  0  0  0  0  0
    1.9325   -0.7316    1.1650 H   0  0  0  0  0  0  0  0  0  0  0  0
    2.6966    0.8757    1.3047 H   0  0  0  0  0  0  0  0  0  0  0  0
    3.9745   -1.1495    1.8928 H   0  0  0  0  0  0  0  0  0  0  0  0
    4.8176    0.0024    0.8606 H   0  0  0  0  0  0  0  0  0  0  0  0
    5.2203   -2.2261    0.0376 H   0  0  0  0  0  0  0  0  0  0  0  0
    3.5035   -2.6982    0.1451 H   0  0  0  0  0  0  0  0  0  0  0  0
    3.1113   -1.9349   -2.0155 H   0  0  0  0  0  0  0  0  0  0  0  0
    4.8946   -1.4780   -2.1292 H   0  0  0  0  0  0  0  0  0  0  0  0
    4.3162    0.6963   -0.9908 H   0  0  0  0  0  0  0  0  0  0  0  0
    3.4045    0.4434   -2.5022 H   0  0  0  0  0  0  0  0  0  0  0  0
   -2.1755   -0.1604    1.4477 H   0  0  0  0  0  0  0  0  0  0  0  0
   -1.8301   -1.5133   -1.2726 H   0  0  0  0  0  0  0  0  0  0  0  0
   -3.2121   -0.4455   -0.6415 H   0  0  0  0  0  0  0  0  0  0  0  0
   -3.8629   -1.9839    0.9118 H   0  0  0  0  0  0  0  0  0  0  0  0
   -3.0738   -3.2273   -0.2185 H   0  0  0  0  0  0  0  0  0  0  0  0
   -2.3487   -2.3664    2.5384 H   0  0  0  0  0  0  0  0  0  0  0  0
   -1.5971   -3.6454    1.5142 H   0  0  0  0  0  0  0  0  0  0  0  0
   -0.0862   -2.2474    0.5925 H   0  0  0  0  0  0  0  0  0  0  0  0
   -0.2979   -1.4315    2.2275 H   0  0  0  0  0  0  0  0  0  0  0  0
   -2.2600    1.6530    2.2324 H   0  0  0  0  0  0  0  0  0  0  0  0
   -4.0041    3.3181    2.2267 H   0  0  0  0  0  0  0  0  0  0  0  0
   -4.6241    4.4390    0.1856 H   0  0  0  0  0  0  0  0  0  0  0  0
   -3.4529    3.8693   -1.9730 H   0  0  0  0  0  0  0  0  0  0  0  0
   -1.7272    2.2035   -1.9466 H   0  0  0  0  0  0  0  0  0  0  0  0
  1  2  1  0
  2  3  1  0
  3  4  1  0
  4  5  1  0
  5  6  1  0
  6  7  1  0
  7  8  1  0
  8  9  1  0
  9 10  1  0
  2 11  1  0
 11 12  1  0
 12 13  1  0
 13 14  1  0
 14 15  1  0
  2 16  1  0
 16 17  2  0
 17 18  1  0
 18 19  2  0
 19 20  1  0
 20 21  2  0
 10  5  1  0
 15 11  1  0
 21 16  1  0
  1 22  1  0
  3 23  1  0
  3 24  1  0
  4 25  1  0
  4 26  1  0
  6 27  1  0
  6 28  1  0
  7 29  1  0
  7 30  1  0
  8 31  1  0
  8 32  1  0
  9 33  1  0
  9 34  1  0
 10 35  1  0
 10 36  1  0
 11 37  1  0
 12 38  1  0
 12 39  1  0
 13 40  1  0
 13 41  1  0
 14 42  1  0
 14 43  1  0
 15 44  1  0
 15 45  1  0
 17 46  1  0
 18 47  1  0
 19 48  1  0
 20 49  1  0
 21 50  1  0
M  END
$$$$
