
     RDKit          3D

 58 61  0  0  0  0  0  0  0  0999 V2000
   -5.4897    2.3366    1.1897 C   0  0  0  0  0  0  0  0  0  0  0  0
   -4.5951    1.8525    0.1613 N   0  0  0  0  0  4  0  0  0  0  0  0
   -3.2758    2.3285    0.4196 C   0  0  0  0  0  0  0  0  0  0  0  0
   -2.2091    1.3922    0.0664 C   0  0  0  0  0  0  0  0  0  0  0  0
   -1.7465    0.4793    0.9808 C   0  0  0  0  0  0  0  0  0  0  0  0
   -0.7232   -0.4182    0.6460 C   0  0  0  0  0  0  0  0  0  0  0  0
   -0.1758   -0.3871   -0.6064 C   0  0  0  0  0  0  0  0  0  0  0  0
    0.9048   -1.3120   -0.9990 C   0  0  0  0  0  0  0  0  0  0  0  0
    1.3766   -1.2456   -2.1695 O   0  0  0  0  0  0  0  0  0  0  0  0
    1.4565   -2.2791   -0.1469 N   0  0  0  0  0  0  0  0  0  0  0  0
    2.4976   -3.1574   -0.5490 C   0  0  0  0  0  0  0  0  0  0  0  0
    2.2229   -4.3991   -1.1316 C   0  0  0  0  0  0  0  0  0  0  0  0
    3.2573   -5.2322   -1.5132 C   0  0  0  0  0  0  0  0  0  0  0  0
    4.5497   -4.8510   -1.3251 C   0  0  0  0  0  0  0  0  0  0  0  0
    5.9041   -5.8576   -1.7857 Cl  0  0  0  0  0  0  0  0  0  0  0  0
    4.8092   -3.6090   -0.7424 C   0  0  0  0  0  0  0  0  0  0  0  0
    3.7977   -2.7600   -0.3532 C   0  0  0  0  0  0  0  0  0  0  0  0
    4.0575   -1.4744    0.2513 C   0  0  0  0  0  0  0  0  0  0  0  0
    3.0771   -0.7301    0.5982 O   0  0  0  0  0  0  0  0  0  0  0  0
    5.3466   -0.9397    0.5060 N   0  0  0  0  0  0  0  0  0  0  0  0
    5.4591    0.3395    1.1070 C   0  0  0  0  0  0  0  0  0  0  0  0
    5.5142    0.4795    2.4743 C   0  0  0  0  0  0  0  0  0  0  0  0
    5.6226    1.7055    3.0871 C   0  0  0  0  0  0  0  0  0  0  0  0
    5.6769    2.8269    2.2837 C   0  0  0  0  0  0  0  0  0  0  0  0
    5.8141    4.4107    2.9954 Cl  0  0  0  0  0  0  0  0  0  0  0  0
    5.6217    2.6829    0.9213 C   0  0  0  0  0  0  0  0  0  0  0  0
    5.5161    1.4677    0.3702 N   0  0  0  0  0  0  0  0  0  0  0  0
   -0.6424    0.5261   -1.5133 C   0  0  0  0  0  0  0  0  0  0  0  0
   -1.6466    1.4069   -1.1851 C   0  0  0  0  0  0  0  0  0  0  0  0
   -4.6845    0.4078    0.1000 C   0  0  0  0  0  0  0  0  0  0  0  0
   -6.0841    0.1891   -0.4460 C   0  0  0  0  0  0  0  0  0  0  0  0
   -6.4927    1.5131   -1.0849 C   0  0  0  0  0  0  0  0  0  0  0  0
   -5.1430    2.2428   -1.1099 C   0  0  0  0  0  0  0  0  0  0  0  0
   -6.2128    1.5368    1.4475 H   0  0  0  0  0  0  0  0  0  0  0  0
   -4.9473    2.5677    2.1369 H   0  0  0  0  0  0  0  0  0  0  0  0
   -6.0804    3.2065    0.8340 H   0  0  0  0  0  0  0  0  0  0  0  0
   -3.1546    3.2765   -0.1819 H   0  0  0  0  0  0  0  0  0  0  0  0
   -3.2165    2.6799    1.4773 H   0  0  0  0  0  0  0  0  0  0  0  0
   -2.1918    0.4682    1.9700 H   0  0  0  0  0  0  0  0  0  0  0  0
   -0.3947   -1.1170    1.4014 H   0  0  0  0  0  0  0  0  0  0  0  0
    1.0971   -2.3701    0.8286 H   0  0  0  0  0  0  0  0  0  0  0  0
    1.2030   -4.7052   -1.2824 H   0  0  0  0  0  0  0  0  0  0  0  0
    3.0444   -6.2011   -1.9682 H   0  0  0  0  0  0  0  0  0  0  0  0
    5.8364   -3.3177   -0.5984 H   0  0  0  0  0  0  0  0  0  0  0  0
    6.1741   -1.5168    0.2373 H   0  0  0  0  0  0  0  0  0  0  0  0
    5.4709   -0.3936    3.0881 H   0  0  0  0  0  0  0  0  0  0  0  0
    5.6662    1.8219    4.1508 H   0  0  0  0  0  0  0  0  0  0  0  0
    5.6639    3.5515    0.2989 H   0  0  0  0  0  0  0  0  0  0  0  0
   -0.2311    0.5797   -2.5191 H   0  0  0  0  0  0  0  0  0  0  0  0
   -2.0223    2.1436   -1.9185 H   0  0  0  0  0  0  0  0  0  0  0  0
   -3.9104    0.0042   -0.5964 H   0  0  0  0  0  0  0  0  0  0  0  0
   -4.5647    0.0246    1.1325 H   0  0  0  0  0  0  0  0  0  0  0  0
   -6.7796   -0.1030    0.3693 H   0  0  0  0  0  0  0  0  0  0  0  0
   -6.0653   -0.5868   -1.2580 H   0  0  0  0  0  0  0  0  0  0  0  0
   -6.9054    1.3793   -2.0946 H   0  0  0  0  0  0  0  0  0  0  0  0
   -7.2080    2.0722   -0.4475 H   0  0  0  0  0  0  0  0  0  0  0  0
   -5.2739    3.3162   -1.2434 H   0  0  0  0  0  0  0  0  0  0  0  0
   -4.5711    1.7475   -1.9345 H   0  0  0  0  0  0  0  0  0  0  0  0
  1  2  1  0
  2  3  1  0
  3  4  1  0
  4  5  2  0
  5  6  1  0
  6  7  2  0
  7  8  1  0
  8  9  2  0
  8 10  1  0
 10 11  1  0
 11 12  2  0
 12 13  1  0
 13 14  2  0
 14 15  1  0
 14 16  1  0
 16 17  2  0
 17 18  1  0
 18 19  2  0
 18 20  1  0
 20 21  1  0
 21 22  2  0
 22 23  1  0
 23 24  2  0
 24 25  1  0
 24 26  1  0
 26 27  2  0
  7 28  1  0
 28 29  2  0
  2 30  1  0
 30 31  1  0
 31 32  1  0
 32 33  1  0
 33  2  1  0
 29  4  1  0
 17 11  1  0
 27 21  1  0
  1 34  1  0
  1 35  1  0
  1 36  1  0
  3 37  1  0
  3 38  1  0
  5 39  1  0
  6 40  1  0
 10 41  1  0
 12 42  1  0
 13 43  1  0
 16 44  1  0
 20 45  1  0
 22 46  1  0
 23 47  1  0
 26 48  1  0
 28 49  1  0
 29 50  1  0
 30 51  1  0
 30 52  1  0
 31 53  1  0
 31 54  1  0
 32 55  1  0
 32 56  1  0
 33 57  1  0
 33 58  1  0
M  CHG  1   2   1
M  END
$$$$
