
     RDKit          3D

 52 56  0  0  0  0  0  0  0  0999 V2000
   -4.0661   -1.5662   -2.0913 C   0  0  0  0  0  0  0  0  0  0  0  0
   -4.1728   -0.6845   -0.9331 N   0  0  0  0  0  0  0  0  0  0  0  0
   -5.3456   -0.2490   -0.4268 C   0  0  0  0  0  0  0  0  0  0  0  0
   -5.0939    0.5604    0.6572 C   0  0  0  0  0  0  0  0  0  0  0  0
   -3.7179    0.6104    0.8038 C   0  0  0  0  0  0  0  0  0  0  0  0
   -2.9213    1.2605    1.7094 C   0  0  0  0  0  0  0  0  0  0  0  0
   -1.5405    1.1238    1.6099 C   0  0  0  0  0  0  0  0  0  0  0  0
   -1.0053    0.3463    0.6145 C   0  0  0  0  0  0  0  0  0  0  0  0
    0.4007    0.2205    0.5310 N   0  0  0  0  0  0  0  0  0  0  0  0
    1.0037   -0.5599    1.4554 C   0  0  0  0  0  0  0  0  0  0  0  0
    2.3726   -0.7195    1.4232 C   0  0  0  0  0  0  0  0  0  0  0  0
    3.1574   -0.1063    0.4735 C   0  0  0  0  0  0  0  0  0  0  0  0
    4.5473   -0.2705    0.4436 O   0  0  0  0  0  0  0  0  0  0  0  0
    5.2702    0.3997   -0.5703 C   0  0  0  0  0  0  0  0  0  0  0  0
    6.7128    0.0789   -0.4026 C   0  0  0  0  0  0  0  0  0  0  0  0
    7.5372    0.8564    0.3845 C   0  0  0  0  0  0  0  0  0  0  0  0
    8.8778    0.5732    0.5511 C   0  0  0  0  0  0  0  0  0  0  0  0
    9.4284   -0.5195   -0.0831 C   0  0  0  0  0  0  0  0  0  0  0  0
    8.6291   -1.3041   -0.8685 C   0  0  0  0  0  0  0  0  0  0  0  0
    7.2801   -1.0113   -1.0304 C   0  0  0  0  0  0  0  0  0  0  0  0
    2.4947    0.6858   -0.4557 C   0  0  0  0  0  0  0  0  0  0  0  0
    1.1245    0.8465   -0.4247 C   0  0  0  0  0  0  0  0  0  0  0  0
    0.5063    1.5600   -1.2579 O   0  0  0  0  0  0  0  0  0  0  0  0
   -1.7881   -0.3110   -0.2996 C   0  0  0  0  0  0  0  0  0  0  0  0
   -3.1717   -0.1714   -0.1967 C   0  0  0  0  0  0  0  0  0  0  0  0
   -6.2257    1.1893    1.4274 C   0  0  0  0  0  0  0  0  0  0  0  0
   -7.3048    0.0949    1.4343 C   0  0  0  0  0  0  0  0  0  0  0  0
   -7.7384   -0.2210    0.1163 N   0  0  0  0  0  0  0  0  0  0  0  0
   -6.7405   -0.5045   -0.8501 C   0  0  0  0  0  0  0  0  0  0  0  0
   -3.0832   -1.4797   -2.5736 H   0  0  0  0  0  0  0  0  0  0  0  0
   -4.2403   -2.6027   -1.6851 H   0  0  0  0  0  0  0  0  0  0  0  0
   -4.9150   -1.3284   -2.7715 H   0  0  0  0  0  0  0  0  0  0  0  0
   -3.3798    1.8547    2.4672 H   0  0  0  0  0  0  0  0  0  0  0  0
   -0.8957    1.6288    2.3149 H   0  0  0  0  0  0  0  0  0  0  0  0
    0.4071   -1.0554    2.2160 H   0  0  0  0  0  0  0  0  0  0  0  0
    2.8616   -1.3427    2.1599 H   0  0  0  0  0  0  0  0  0  0  0  0
    5.0923    1.5066   -0.5435 H   0  0  0  0  0  0  0  0  0  0  0  0
    4.9515    0.0621   -1.5831 H   0  0  0  0  0  0  0  0  0  0  0  0
    7.0625    1.7157    0.8718 H   0  0  0  0  0  0  0  0  0  0  0  0
    9.5081    1.1946    1.1723 H   0  0  0  0  0  0  0  0  0  0  0  0
   10.4933   -0.7689    0.0315 H   0  0  0  0  0  0  0  0  0  0  0  0
    9.0959   -2.1597   -1.3552 H   0  0  0  0  0  0  0  0  0  0  0  0
    6.6722   -1.6488   -1.6571 H   0  0  0  0  0  0  0  0  0  0  0  0
    3.0784    1.1880   -1.2230 H   0  0  0  0  0  0  0  0  0  0  0  0
   -1.3621   -0.9227   -1.0825 H   0  0  0  0  0  0  0  0  0  0  0  0
   -5.9539    1.3564    2.4839 H   0  0  0  0  0  0  0  0  0  0  0  0
   -6.5913    2.1021    0.9518 H   0  0  0  0  0  0  0  0  0  0  0  0
   -8.1487    0.4903    2.0080 H   0  0  0  0  0  0  0  0  0  0  0  0
   -6.8479   -0.8094    1.8889 H   0  0  0  0  0  0  0  0  0  0  0  0
   -8.5687    0.2846   -0.2108 H   0  0  0  0  0  0  0  0  0  0  0  0
   -6.7628   -1.5719   -1.1968 H   0  0  0  0  0  0  0  0  0  0  0  0
   -6.9838    0.0987   -1.7771 H   0  0  0  0  0  0  0  0  0  0  0  0
  1  2  1  0
  2  3  1  0
  3  4  2  0
  4  5  1  0
  5  6  2  0
  6  7  1  0
  7  8  2  0
  8  9  1  0
  9 10  1  0
 10 11  2  0
 11 12  1  0
 12 13  1  0
 13 14  1  0
 14 15  1  0
 15 16  2  0
 16 17  1  0
 17 18  2  0
 18 19  1  0
 19 20  2  0
 12 21  2  0
 21 22  1  0
 22 23  2  0
  8 24  1  0
 24 25  2  0
  4 26  1  0
 26 27  1  0
 27 28  1  0
 28 29  1  0
 25  2  1  0
 29  3  1  0
 25  5  1  0
 22  9  1  0
 20 15  1  0
  1 30  1  0
  1 31  1  0
  1 32  1  0
  6 33  1  0
  7 34  1  0
 10 35  1  0
 11 36  1  0
 14 37  1  0
 14 38  1  0
 16 39  1  0
 17 40  1  0
 18 41  1  0
 19 42  1  0
 20 43  1  0
 21 44  1  0
 24 45  1  0
 26 46  1  0
 26 47  1  0
 27 48  1  0
 27 49  1  0
 28 50  1  0
 29 51  1  0
 29 52  1  0
M  END
$$$$
