
     RDKit          3D

 67 71  0  0  0  0  0  0  0  0999 V2000
   -4.2829    1.7145    2.1110 C   0  0  0  0  0  0  0  0  0  0  0  0
   -5.7531    1.6061    1.8794 C   0  0  0  0  0  0  0  0  0  0  0  0
   -6.1230    0.8167    0.8037 O   0  0  0  0  0  0  0  0  0  0  0  0
   -5.6576    1.2141   -0.4136 C   0  0  2  0  0  0  0  0  0  0  0  0
   -6.7723    1.5766   -1.2364 O   0  0  0  0  0  0  0  0  0  0  0  0
   -7.1217    0.4861   -2.0465 C   0  0  0  0  0  0  0  0  0  0  0  0
   -8.0464    0.3657   -2.8871 O   0  0  0  0  0  0  0  0  0  0  0  0
   -6.1526   -0.6287   -1.7492 C   0  0  0  0  0  0  0  0  0  0  0  0
   -4.9973    0.1781   -1.2607 C   0  0  2  0  0  0  0  0  0  0  0  0
   -3.9201   -0.5474   -0.6675 N   0  0  0  0  0  0  0  0  0  0  0  0
   -2.5365   -0.6057   -1.0364 C   0  0  0  0  0  0  0  0  0  0  0  0
   -2.5186    0.1598   -2.0313 O   0  0  0  0  0  0  0  0  0  0  0  0
   -1.8607   -1.4927   -0.1055 C   0  0  2  0  0  0  0  0  0  0  0  0
   -2.1221   -1.2285    1.3559 C   0  0  0  0  0  0  0  0  0  0  0  0
   -1.5715   -2.3635    2.1658 C   0  0  0  0  0  0  0  0  0  0  0  0
   -0.8558   -3.4290    1.3665 C   0  0  0  0  0  0  0  0  0  0  0  0
    0.0797   -2.8048    0.4088 N   0  0  0  0  0  0  0  0  0  0  0  0
   -0.4484   -1.6380   -0.2251 N   0  0  0  0  0  0  0  0  0  0  0  0
    0.3617   -0.6885   -0.9068 C   0  0  0  0  0  0  0  0  0  0  0  0
   -0.1993    0.4221   -0.9850 O   0  0  0  0  0  0  0  0  0  0  0  0
    1.7197   -0.8603   -1.4996 C   0  0  2  0  0  0  0  0  0  0  0  0
    2.0502   -2.2893   -1.7803 C   0  0  0  0  0  0  0  0  0  0  0  0
    2.4689   -3.0992   -0.5974 C   0  0  0  0  0  0  0  0  0  0  0  0
    1.3426   -3.4666    0.2877 C   0  0  0  0  0  0  0  0  0  0  0  0
    1.4821   -4.4805    1.0369 O   0  0  0  0  0  0  0  0  0  0  0  0
    2.7406   -0.2961   -0.6489 N   0  0  0  0  0  0  0  0  0  0  0  0
    3.6791    0.7666   -0.9264 C   0  0  0  0  0  0  0  0  0  0  0  0
    3.3936    1.0914   -2.1023 O   0  0  0  0  0  0  0  0  0  0  0  0
    4.5817    1.0984    0.1472 C   0  0  0  0  0  0  0  0  0  0  0  0
    4.5549    0.4674    1.3147 N   0  0  0  0  0  0  0  0  0  0  0  0
    5.3890    0.7828    2.2919 C   0  0  0  0  0  0  0  0  0  0  0  0
    6.3345    1.7731    2.1770 C   0  0  0  0  0  0  0  0  0  0  0  0
    6.4063    2.4573    0.9924 C   0  0  0  0  0  0  0  0  0  0  0  0
    7.3471    3.4534    0.8576 C   0  0  0  0  0  0  0  0  0  0  0  0
    7.4402    4.1616   -0.3322 C   0  0  0  0  0  0  0  0  0  0  0  0
    6.5663    3.8428   -1.3781 C   0  0  0  0  0  0  0  0  0  0  0  0
    5.6465    2.8253   -1.1631 C   0  0  0  0  0  0  0  0  0  0  0  0
    5.5173    2.0972   -0.0024 C   0  0  0  0  0  0  0  0  0  0  0  0
   -3.6661    1.8147    1.1998 H   0  0  0  0  0  0  0  0  0  0  0  0
   -3.8789    0.9178    2.7723 H   0  0  0  0  0  0  0  0  0  0  0  0
   -4.1059    2.6617    2.7026 H   0  0  0  0  0  0  0  0  0  0  0  0
   -6.2147    1.1389    2.7875 H   0  0  0  0  0  0  0  0  0  0  0  0
   -6.1742    2.6313    1.8189 H   0  0  0  0  0  0  0  0  0  0  0  0
   -5.0373    2.1433   -0.2692 H   0  0  0  0  0  0  0  0  0  0  0  0
   -5.8653   -1.1961   -2.6365 H   0  0  0  0  0  0  0  0  0  0  0  0
   -6.6547   -1.2265   -0.9641 H   0  0  0  0  0  0  0  0  0  0  0  0
   -4.6248    0.7479   -2.1630 H   0  0  0  0  0  0  0  0  0  0  0  0
   -4.5019   -1.0009    0.1082 H   0  0  0  0  0  0  0  0  0  0  0  0
   -2.3128   -2.5267   -0.2811 H   0  0  0  0  0  0  0  0  0  0  0  0
   -1.5498   -0.3127    1.6070 H   0  0  0  0  0  0  0  0  0  0  0  0
   -3.1595   -1.0514    1.6237 H   0  0  0  0  0  0  0  0  0  0  0  0
   -2.3706   -2.8489    2.7414 H   0  0  0  0  0  0  0  0  0  0  0  0
   -0.8422   -1.9921    2.9174 H   0  0  0  0  0  0  0  0  0  0  0  0
   -0.2217   -4.0380    2.0398 H   0  0  0  0  0  0  0  0  0  0  0  0
   -1.5695   -4.1056    0.8663 H   0  0  0  0  0  0  0  0  0  0  0  0
    1.7388   -0.3075   -2.4851 H   0  0  0  0  0  0  0  0  0  0  0  0
    1.1200   -2.7747   -2.1778 H   0  0  0  0  0  0  0  0  0  0  0  0
    2.7876   -2.3928   -2.6119 H   0  0  0  0  0  0  0  0  0  0  0  0
    2.8294   -4.0858   -1.0227 H   0  0  0  0  0  0  0  0  0  0  0  0
    3.3016   -2.6997   -0.0126 H   0  0  0  0  0  0  0  0  0  0  0  0
    2.7337   -0.7829    0.2965 H   0  0  0  0  0  0  0  0  0  0  0  0
    5.2588    0.1885    3.1937 H   0  0  0  0  0  0  0  0  0  0  0  0
    6.9746    1.9686    3.0190 H   0  0  0  0  0  0  0  0  0  0  0  0
    8.0371    3.7242    1.6440 H   0  0  0  0  0  0  0  0  0  0  0  0
    8.1555    4.9440   -0.4829 H   0  0  0  0  0  0  0  0  0  0  0  0
    6.6326    4.3877   -2.3035 H   0  0  0  0  0  0  0  0  0  0  0  0
    5.0182    2.6356   -1.9926 H   0  0  0  0  0  0  0  0  0  0  0  0
  1  2  1  0
  2  3  1  0
  3  4  1  0
  4  5  1  0
  5  6  1  0
  6  7  2  0
  6  8  1  0
  8  9  1  0
  9 10  1  0
 10 11  1  0
 11 12  2  0
 11 13  1  0
 13 14  1  0
 14 15  1  0
 15 16  1  0
 16 17  1  0
 17 18  1  0
 18 19  1  0
 19 20  2  0
 19 21  1  0
 21 22  1  0
 22 23  1  0
 23 24  1  0
 24 25  2  0
 21 26  1  0
 26 27  1  0
 27 28  2  0
 27 29  1  0
 29 30  2  0
 30 31  1  0
 31 32  2  0
 32 33  1  0
 33 34  2  0
 34 35  1  0
 35 36  2  0
 36 37  1  0
 37 38  2  0
  9  4  1  0
 18 13  1  0
 38 29  1  0
 24 17  1  0
 38 33  1  0
  1 39  1  0
  1 40  1  0
  1 41  1  0
  2 42  1  0
  2 43  1  0
  4 44  1  1
  8 45  1  0
  8 46  1  0
  9 47  1  6
 10 48  1  0
 13 49  1  6
 14 50  1  0
 14 51  1  0
 15 52  1  0
 15 53  1  0
 16 54  1  0
 16 55  1  0
 21 56  1  6
 22 57  1  0
 22 58  1  0
 23 59  1  0
 23 60  1  0
 26 61  1  0
 31 62  1  0
 32 63  1  0
 34 64  1  0
 35 65  1  0
 36 66  1  0
 37 67  1  0
M  END
$$$$
