
     RDKit          3D

 62 65  0  0  0  0  0  0  0  0999 V2000
   -2.9457   -2.4853   -2.6341 C   0  0  0  0  0  0  0  0  0  0  0  0
   -2.3161   -1.5173   -2.6246 C   0  0  0  0  0  0  0  0  0  0  0  0
   -1.4836   -0.2358   -2.6287 C   0  0  0  0  0  0  0  0  0  0  0  0
   -1.1582    0.1364   -1.2773 N   0  0  0  0  0  0  0  0  0  0  0  0
   -0.5290   -0.9429   -0.6456 C   0  0  0  0  0  0  0  0  0  0  0  0
    0.2371   -0.7467    0.6061 C   0  0  0  0  0  0  0  0  0  0  0  0
    1.4945    0.0455    0.5206 C   0  0  0  0  0  0  0  0  0  0  0  0
    1.3747    1.4492    0.0115 C   0  0  0  0  0  0  0  0  0  0  0  0
    2.7435    2.0764    0.3069 C   0  0  0  0  0  0  0  0  0  0  0  0
    3.7664    1.4667   -0.4428 N   0  0  0  0  0  0  0  0  0  0  0  0
    5.1143    1.7432   -0.1667 C   0  0  0  0  0  0  0  0  0  0  0  0
    5.5561    1.5008    1.1887 C   0  0  0  0  0  0  0  0  0  0  0  0
    6.1006    0.2778    1.6281 C   0  0  0  0  0  0  0  0  0  0  0  0
    6.5638    0.1427    2.9327 C   0  0  0  0  0  0  0  0  0  0  0  0
    6.5434    1.1350    3.8858 C   0  0  0  0  0  0  0  0  0  0  0  0
    5.9906    2.3570    3.4325 C   0  0  0  0  0  0  0  0  0  0  0  0
    5.5506    2.4867    2.2004 C   0  0  0  0  0  0  0  0  0  0  0  0
    3.4423    0.2153   -1.0434 C   0  0  0  0  0  0  0  0  0  0  0  0
    2.5674   -0.6691   -0.2625 C   0  0  0  0  0  0  0  0  0  0  0  0
   -2.1595    0.8862   -0.6561 C   0  0  0  0  0  0  0  0  0  0  0  0
   -3.4364    0.1255   -0.3994 C   0  0  0  0  0  0  0  0  0  0  0  0
   -3.5989   -0.4992    0.8102 C   0  0  0  0  0  0  0  0  0  0  0  0
   -4.7336   -1.2362    0.9950 C   0  0  0  0  0  0  0  0  0  0  0  0
   -5.6739   -1.3399   -0.0109 C   0  0  0  0  0  0  0  0  0  0  0  0
   -6.7898   -2.1217    0.2199 C   0  0  0  0  0  0  0  0  0  0  0  0
   -7.7231   -2.2483   -0.8245 C   0  0  0  0  0  0  0  0  0  0  0  0
   -7.5113   -1.6157   -1.9900 C   0  0  0  0  0  0  0  0  0  0  0  0
   -6.4092   -0.8093   -2.2959 C   0  0  0  0  0  0  0  0  0  0  0  0
   -6.1972   -0.1643   -3.4878 O   0  0  0  0  0  0  0  0  0  0  0  0
   -5.5013   -0.7112   -1.2212 C   0  0  0  0  0  0  0  0  0  0  0  0
   -4.3714    0.0052   -1.3563 N   0  0  0  0  0  0  0  0  0  0  0  0
   -3.5290   -3.4041   -2.6528 H   0  0  0  0  0  0  0  0  0  0  0  0
   -2.2334    0.5198   -3.0582 H   0  0  0  0  0  0  0  0  0  0  0  0
   -0.6857   -0.3341   -3.3328 H   0  0  0  0  0  0  0  0  0  0  0  0
   -1.3408   -1.7483   -0.4161 H   0  0  0  0  0  0  0  0  0  0  0  0
    0.0952   -1.5034   -1.3870 H   0  0  0  0  0  0  0  0  0  0  0  0
    0.5229   -1.7584    1.0298 H   0  0  0  0  0  0  0  0  0  0  0  0
   -0.4099   -0.2511    1.3978 H   0  0  0  0  0  0  0  0  0  0  0  0
    1.9274    0.1797    1.5816 H   0  0  0  0  0  0  0  0  0  0  0  0
    0.6229    2.0218    0.5604 H   0  0  0  0  0  0  0  0  0  0  0  0
    1.1693    1.4936   -1.0760 H   0  0  0  0  0  0  0  0  0  0  0  0
    2.6594    3.1428    0.1204 H   0  0  0  0  0  0  0  0  0  0  0  0
    2.9322    1.8189    1.3963 H   0  0  0  0  0  0  0  0  0  0  0  0
    5.7352    1.1067   -0.8814 H   0  0  0  0  0  0  0  0  0  0  0  0
    5.3766    2.7946   -0.4995 H   0  0  0  0  0  0  0  0  0  0  0  0
    6.1548   -0.5414    0.9168 H   0  0  0  0  0  0  0  0  0  0  0  0
    6.9875   -0.8258    3.2342 H   0  0  0  0  0  0  0  0  0  0  0  0
    6.9252    1.0016    4.8767 H   0  0  0  0  0  0  0  0  0  0  0  0
    5.9727    3.1457    4.2081 H   0  0  0  0  0  0  0  0  0  0  0  0
    5.1129    3.4329    1.8204 H   0  0  0  0  0  0  0  0  0  0  0  0
    2.9856    0.4339   -2.0313 H   0  0  0  0  0  0  0  0  0  0  0  0
    4.4042   -0.3321   -1.2530 H   0  0  0  0  0  0  0  0  0  0  0  0
    2.0410   -1.4377   -0.8844 H   0  0  0  0  0  0  0  0  0  0  0  0
    3.2252   -1.2792    0.4377 H   0  0  0  0  0  0  0  0  0  0  0  0
   -1.9309    1.5159    0.2044 H   0  0  0  0  0  0  0  0  0  0  0  0
   -2.4893    1.6648   -1.4359 H   0  0  0  0  0  0  0  0  0  0  0  0
   -2.8466   -0.4012    1.6101 H   0  0  0  0  0  0  0  0  0  0  0  0
   -4.8877   -1.7463    1.9399 H   0  0  0  0  0  0  0  0  0  0  0  0
   -6.9463   -2.6245    1.1473 H   0  0  0  0  0  0  0  0  0  0  0  0
   -8.6051   -2.8615   -0.6835 H   0  0  0  0  0  0  0  0  0  0  0  0
   -8.2320   -1.7043   -2.8221 H   0  0  0  0  0  0  0  0  0  0  0  0
   -5.2208   -0.2262   -3.8350 H   0  0  0  0  0  0  0  0  0  0  0  0
  1  2  3  0
  2  3  1  0
  3  4  1  0
  4  5  1  0
  5  6  1  0
  6  7  1  0
  7  8  1  0
  8  9  1  0
  9 10  1  0
 10 11  1  0
 11 12  1  0
 12 13  2  0
 13 14  1  0
 14 15  2  0
 15 16  1  0
 16 17  2  0
 10 18  1  0
 18 19  1  0
  4 20  1  0
 20 21  1  0
 21 22  2  0
 22 23  1  0
 23 24  2  0
 24 25  1  0
 25 26  2  0
 26 27  1  0
 27 28  2  0
 28 29  1  0
 28 30  1  0
 30 31  2  0
 19  7  1  0
 31 21  1  0
 17 12  1  0
 30 24  1  0
  1 32  1  0
  3 33  1  0
  3 34  1  0
  5 35  1  0
  5 36  1  0
  6 37  1  0
  6 38  1  0
  7 39  1  0
  8 40  1  0
  8 41  1  0
  9 42  1  0
  9 43  1  0
 11 44  1  0
 11 45  1  0
 13 46  1  0
 14 47  1  0
 15 48  1  0
 16 49  1  0
 17 50  1  0
 18 51  1  0
 18 52  1  0
 19 53  1  0
 19 54  1  0
 20 55  1  0
 20 56  1  0
 22 57  1  0
 23 58  1  0
 25 59  1  0
 26 60  1  0
 27 61  1  0
 29 62  1  0
M  END
$$$$
