
     RDKit          3D

 32 34  0  0  0  0  0  0  0  0999 V2000
   -1.9299   -2.9106   -0.8842 O   0  0  0  0  0  0  0  0  0  0  0  0
   -1.4996   -1.8041   -0.5019 C   0  0  0  0  0  0  0  0  0  0  0  0
   -0.1239   -1.5330   -0.3813 C   0  0  0  0  0  0  0  0  0  0  0  0
    0.7482   -2.5535   -0.7070 O   0  0  0  0  0  0  0  0  0  0  0  0
    0.3238   -0.3270    0.0350 C   0  0  0  0  0  0  0  0  0  0  0  0
    1.7213    0.0305    0.1852 C   0  0  0  0  0  0  0  0  0  0  0  0
    2.0431    1.3275    0.6294 C   0  0  0  0  0  0  0  0  0  0  0  0
    3.3243    1.7703    0.8059 C   0  0  0  0  0  0  0  0  0  0  0  0
    4.3961    0.9426    0.5496 C   0  0  0  0  0  0  0  0  0  0  0  0
    5.7045    1.3804    0.7250 O   0  0  0  0  0  0  0  0  0  0  0  0
    4.1111   -0.3239    0.1165 C   0  0  0  0  0  0  0  0  0  0  0  0
    5.1863   -1.1666   -0.1449 O   0  0  0  0  0  0  0  0  0  0  0  0
    2.7940   -0.7700   -0.0619 C   0  0  0  0  0  0  0  0  0  0  0  0
   -0.6142    0.5879    0.3237 O   0  0  0  0  0  0  0  0  0  0  0  0
   -1.8770    0.4011    0.2339 C   0  0  0  0  0  0  0  0  0  0  0  0
   -2.7192    1.4335    0.5642 C   0  0  0  0  0  0  0  0  0  0  0  0
   -4.0843    1.2641    0.4781 C   0  0  0  0  0  0  0  0  0  0  0  0
   -4.9320    2.3074    0.8120 O   0  0  0  0  0  0  0  0  0  0  0  0
   -4.6369    0.0712    0.0641 C   0  0  0  0  0  0  0  0  0  0  0  0
   -3.7560   -0.9651   -0.2668 C   0  0  0  0  0  0  0  0  0  0  0  0
   -4.2670   -2.1737   -0.6853 O   0  0  0  0  0  0  0  0  0  0  0  0
   -2.3808   -0.8086   -0.1848 C   0  0  0  0  0  0  0  0  0  0  0  0
    0.5043   -3.1302   -1.5028 H   0  0  0  0  0  0  0  0  0  0  0  0
    1.2310    2.0034    0.8401 H   0  0  0  0  0  0  0  0  0  0  0  0
    3.5608    2.7689    1.1477 H   0  0  0  0  0  0  0  0  0  0  0  0
    6.0459    2.2407    0.3103 H   0  0  0  0  0  0  0  0  0  0  0  0
    6.0539   -0.8102   -0.5437 H   0  0  0  0  0  0  0  0  0  0  0  0
    2.6699   -1.7784   -0.4046 H   0  0  0  0  0  0  0  0  0  0  0  0
   -2.3348    2.3902    0.8950 H   0  0  0  0  0  0  0  0  0  0  0  0
   -4.9876    3.1338    0.2343 H   0  0  0  0  0  0  0  0  0  0  0  0
   -5.7074   -0.0858   -0.0116 H   0  0  0  0  0  0  0  0  0  0  0  0
   -4.5677   -2.9126   -0.0837 H   0  0  0  0  0  0  0  0  0  0  0  0
  1  2  2  0
  2  3  1  0
  3  4  1  0
  3  5  2  0
  5  6  1  0
  6  7  2  0
  7  8  1  0
  8  9  2  0
  9 10  1  0
  9 11  1  0
 11 12  1  0
 11 13  2  0
  5 14  1  0
 14 15  1  0
 15 16  2  0
 16 17  1  0
 17 18  1  0
 17 19  2  0
 19 20  1  0
 20 21  1  0
 20 22  2  0
 22  2  1  0
 13  6  1  0
 22 15  1  0
  4 23  1  0
  7 24  1  0
  8 25  1  0
 10 26  1  0
 12 27  1  0
 13 28  1  0
 16 29  1  0
 18 30  1  0
 19 31  1  0
 21 32  1  0
M  END
$$$$
