
     RDKit          3D

 68 73  0  0  0  0  0  0  0  0999 V2000
    9.1033    3.2195    0.5262 C   0  0  0  0  0  0  0  0  0  0  0  0
    8.0208    2.6810   -0.1642 O   0  0  0  0  0  0  0  0  0  0  0  0
    7.4102    1.4663    0.0707 C   0  0  0  0  0  0  0  0  0  0  0  0
    7.8404    0.6176    1.0739 C   0  0  0  0  0  0  0  0  0  0  0  0
    7.2349   -0.6051    1.3189 C   0  0  0  0  0  0  0  0  0  0  0  0
    7.7314   -1.3688    2.3122 N   0  0  0  0  0  0  0  0  0  0  0  0
    7.1848   -2.5560    2.5746 C   0  0  0  0  0  0  0  0  0  0  0  0
    6.1231   -2.9812    1.8275 C   0  0  0  0  0  0  0  0  0  0  0  0
    5.5706   -2.2113    0.7765 C   0  0  0  0  0  0  0  0  0  0  0  0
    4.5170   -2.7000    0.0796 O   0  0  0  0  0  0  0  0  0  0  0  0
    3.2363   -2.2731   -0.0714 C   0  0  0  0  0  0  0  0  0  0  0  0
    2.4071   -2.2809    1.0608 C   0  0  0  0  0  0  0  0  0  0  0  0
    1.0923   -1.8557    0.9313 C   0  0  0  0  0  0  0  0  0  0  0  0
    0.5414   -1.4250   -0.2331 C   0  0  0  0  0  0  0  0  0  0  0  0
   -0.8039   -0.9786   -0.4296 N   0  0  0  0  0  0  0  0  0  0  0  0
   -1.8146   -0.8938    0.5317 C   0  0  0  0  0  0  0  0  0  0  0  0
   -1.5261   -1.2490    1.7271 O   0  0  0  0  0  0  0  0  0  0  0  0
   -3.1669   -0.4395    0.3043 C   0  0  0  0  0  0  0  0  0  0  0  0
   -4.0632   -0.4152    1.3810 C   0  0  0  0  0  0  0  0  0  0  0  0
   -5.3696   -0.0036    1.2774 C   0  0  0  0  0  0  0  0  0  0  0  0
   -6.2336   -0.0068    2.4303 C   0  0  0  0  0  0  0  0  0  0  0  0
   -7.5791   -0.2260    2.2921 C   0  0  0  0  0  0  0  0  0  0  0  0
   -8.4037   -0.2274    3.4200 C   0  0  0  0  0  0  0  0  0  0  0  0
   -7.8732   -0.0098    4.6709 C   0  0  0  0  0  0  0  0  0  0  0  0
   -6.5517    0.2028    4.7815 N   0  0  0  0  0  0  0  0  0  0  0  0
   -5.7307    0.2073    3.6862 C   0  0  0  0  0  0  0  0  0  0  0  0
   -5.7835    0.4013    0.0247 C   0  0  0  0  0  0  0  0  0  0  0  0
   -4.9612    0.3960   -1.0378 N   0  0  0  0  0  0  0  0  0  0  0  0
   -5.4903    0.8302   -2.2748 C   0  0  0  0  0  0  0  0  0  0  0  0
   -5.4823    0.0503   -3.3975 C   0  0  0  0  0  0  0  0  0  0  0  0
   -6.0111    0.4929   -4.6107 C   0  0  0  0  0  0  0  0  0  0  0  0
   -6.5652    1.7505   -4.7117 C   0  0  0  0  0  0  0  0  0  0  0  0
   -6.5784    2.5461   -3.5846 C   0  0  0  0  0  0  0  0  0  0  0  0
   -6.0455    2.0849   -2.3846 C   0  0  0  0  0  0  0  0  0  0  0  0
   -3.6667   -0.0207   -0.8966 C   0  0  0  0  0  0  0  0  0  0  0  0
   -2.9991    0.0160   -1.9414 O   0  0  0  0  0  0  0  0  0  0  0  0
    1.3754   -1.4293   -1.3178 N   0  0  0  0  0  0  0  0  0  0  0  0
    2.6433   -1.8329   -1.2215 C   0  0  0  0  0  0  0  0  0  0  0  0
    6.1599   -1.0053    0.5412 C   0  0  0  0  0  0  0  0  0  0  0  0
    5.7492   -0.1414   -0.4541 C   0  0  0  0  0  0  0  0  0  0  0  0
    6.3391    1.0790   -0.7131 C   0  0  0  0  0  0  0  0  0  0  0  0
    5.8906    1.9182   -1.7277 O   0  0  0  0  0  0  0  0  0  0  0  0
    4.7925    1.4969   -2.5151 C   0  0  0  0  0  0  0  0  0  0  0  0
    8.7032    3.9134    1.3172 H   0  0  0  0  0  0  0  0  0  0  0  0
    9.7446    3.8693   -0.1346 H   0  0  0  0  0  0  0  0  0  0  0  0
    9.7974    2.4812    0.9649 H   0  0  0  0  0  0  0  0  0  0  0  0
    8.6779    0.9452    1.6706 H   0  0  0  0  0  0  0  0  0  0  0  0
    7.5977   -3.1723    3.3866 H   0  0  0  0  0  0  0  0  0  0  0  0
    5.6731   -3.9351    2.0282 H   0  0  0  0  0  0  0  0  0  0  0  0
    2.8099   -2.6166    2.0055 H   0  0  0  0  0  0  0  0  0  0  0  0
    0.5074   -1.8871    1.8433 H   0  0  0  0  0  0  0  0  0  0  0  0
   -1.0804   -0.6732   -1.4148 H   0  0  0  0  0  0  0  0  0  0  0  0
   -3.7201   -0.7345    2.3463 H   0  0  0  0  0  0  0  0  0  0  0  0
   -8.0461   -0.4003    1.3442 H   0  0  0  0  0  0  0  0  0  0  0  0
   -9.4603   -0.3956    3.3445 H   0  0  0  0  0  0  0  0  0  0  0  0
   -8.5052   -0.0076    5.5662 H   0  0  0  0  0  0  0  0  0  0  0  0
   -4.6631    0.3798    3.7817 H   0  0  0  0  0  0  0  0  0  0  0  0
   -6.8280    0.7277   -0.0468 H   0  0  0  0  0  0  0  0  0  0  0  0
   -5.0443   -0.9384   -3.3100 H   0  0  0  0  0  0  0  0  0  0  0  0
   -6.0022   -0.1274   -5.4927 H   0  0  0  0  0  0  0  0  0  0  0  0
   -6.9836    2.1213   -5.6410 H   0  0  0  0  0  0  0  0  0  0  0  0
   -7.0154    3.5290   -3.6774 H   0  0  0  0  0  0  0  0  0  0  0  0
   -6.0925    2.7669   -1.5465 H   0  0  0  0  0  0  0  0  0  0  0  0
    3.2912   -1.8283   -2.1086 H   0  0  0  0  0  0  0  0  0  0  0  0
    4.9340   -0.4450   -1.0647 H   0  0  0  0  0  0  0  0  0  0  0  0
    4.6266    2.1986   -3.3545 H   0  0  0  0  0  0  0  0  0  0  0  0
    4.9525    0.4909   -2.9672 H   0  0  0  0  0  0  0  0  0  0  0  0
    3.8619    1.4170   -1.9154 H   0  0  0  0  0  0  0  0  0  0  0  0
  1  2  1  0
  2  3  1  0
  3  4  2  0
  4  5  1  0
  5  6  2  0
  6  7  1  0
  7  8  2  0
  8  9  1  0
  9 10  1  0
 10 11  1  0
 11 12  2  0
 12 13  1  0
 13 14  2  0
 14 15  1  0
 15 16  1  0
 16 17  2  0
 16 18  1  0
 18 19  2  0
 19 20  1  0
 20 21  1  0
 21 22  2  0
 22 23  1  0
 23 24  2  0
 24 25  1  0
 25 26  2  0
 20 27  2  0
 27 28  1  0
 28 29  1  0
 29 30  2  0
 30 31  1  0
 31 32  2  0
 32 33  1  0
 33 34  2  0
 28 35  1  0
 35 36  2  0
 14 37  1  0
 37 38  2  0
  9 39  2  0
 39 40  1  0
 40 41  2  0
 41 42  1  0
 42 43  1  0
 41  3  1  0
 39  5  1  0
 38 11  1  0
 35 18  1  0
 26 21  1  0
 34 29  1  0
  1 44  1  0
  1 45  1  0
  1 46  1  0
  4 47  1  0
  7 48  1  0
  8 49  1  0
 12 50  1  0
 13 51  1  0
 15 52  1  0
 19 53  1  0
 22 54  1  0
 23 55  1  0
 24 56  1  0
 26 57  1  0
 27 58  1  0
 30 59  1  0
 31 60  1  0
 32 61  1  0
 33 62  1  0
 34 63  1  0
 38 64  1  0
 40 65  1  0
 43 66  1  0
 43 67  1  0
 43 68  1  0
M  END
$$$$
