
     RDKit          3D

 53 57  0  0  0  0  0  0  0  0999 V2000
   -2.1274    6.8311   -2.2319 F   0  0  0  0  0  0  0  0  0  0  0  0
   -1.7244    5.6010   -1.7875 C   0  0  0  0  0  0  0  0  0  0  0  0
   -1.3306    4.6940   -2.7535 C   0  0  0  0  0  0  0  0  0  0  0  0
   -0.9136    3.4329   -2.3476 C   0  0  0  0  0  0  0  0  0  0  0  0
   -0.9088    3.1378   -1.0093 C   0  0  0  0  0  0  0  0  0  0  0  0
   -1.3065    4.0524   -0.0275 C   0  0  0  0  0  0  0  0  0  0  0  0
   -1.3122    3.7897    1.2976 F   0  0  0  0  0  0  0  0  0  0  0  0
   -1.7202    5.3038   -0.4314 C   0  0  0  0  0  0  0  0  0  0  0  0
   -0.4713    1.8076   -0.5476 C   0  0  0  0  0  0  0  0  0  0  0  0
    0.8774    1.5914   -0.2464 C   0  0  0  0  0  0  0  0  0  0  0  0
    1.7913    2.7501   -0.4195 C   0  0  0  0  0  0  0  0  0  0  0  0
    3.1304    2.3745   -0.0732 N   0  0  0  0  0  0  0  0  0  0  0  0
    3.6206    1.1175    0.3767 C   0  0  0  0  0  0  0  0  0  0  0  0
    4.8281    0.9525    0.6384 O   0  0  0  0  0  0  0  0  0  0  0  0
    2.6169    0.1161    0.4880 N   0  0  0  0  0  0  0  0  0  0  0  0
    1.2454    0.3405    0.1801 C   0  0  0  0  0  0  0  0  0  0  0  0
    0.2974   -0.6546    0.2998 C   0  0  0  0  0  0  0  0  0  0  0  0
   -1.0279   -0.4915    0.0182 C   0  0  0  0  0  0  0  0  0  0  0  0
   -1.3779    0.7714   -0.4086 C   0  0  0  0  0  0  0  0  0  0  0  0
   -1.9702   -1.5308    0.1532 N   0  0  0  0  0  0  0  0  0  0  0  0
   -3.3688   -1.4422   -0.1431 C   0  0  0  0  0  0  0  0  0  0  0  0
   -3.9890   -2.7444   -0.5897 C   0  0  0  0  0  0  0  0  0  0  0  0
   -3.7977   -3.8115    0.3288 N   0  0  0  0  0  0  0  0  0  0  0  0
   -2.6952   -3.6133    1.2399 C   0  0  0  0  0  0  0  0  0  0  0  0
   -1.5558   -2.8281    0.6292 C   0  0  0  0  0  0  0  0  0  0  0  0
    3.0442   -1.1855    0.9393 C   0  0  0  0  0  0  0  0  0  0  0  0
    3.4133   -2.0074   -0.1149 C   0  0  0  0  0  0  0  0  0  0  0  0
    3.3664   -1.5197   -1.8105 Cl  0  0  0  0  0  0  0  0  0  0  0  0
    3.8520   -3.2952    0.1180 C   0  0  0  0  0  0  0  0  0  0  0  0
    3.9128   -3.7383    1.4138 C   0  0  0  0  0  0  0  0  0  0  0  0
    3.5477   -2.9263    2.4609 C   0  0  0  0  0  0  0  0  0  0  0  0
    3.1100   -1.6435    2.2388 C   0  0  0  0  0  0  0  0  0  0  0  0
    2.6080   -0.4773    3.4391 Cl  0  0  0  0  0  0  0  0  0  0  0  0
   -1.3399    4.9446   -3.8194 H   0  0  0  0  0  0  0  0  0  0  0  0
   -0.5946    2.6811   -3.0492 H   0  0  0  0  0  0  0  0  0  0  0  0
   -2.0534    6.1075    0.2130 H   0  0  0  0  0  0  0  0  0  0  0  0
    1.4570    3.6357    0.1418 H   0  0  0  0  0  0  0  0  0  0  0  0
    1.7311    3.0362   -1.5002 H   0  0  0  0  0  0  0  0  0  0  0  0
    3.8278    3.1660   -0.1776 H   0  0  0  0  0  0  0  0  0  0  0  0
    0.6924   -1.6010    0.6427 H   0  0  0  0  0  0  0  0  0  0  0  0
   -2.3919    1.0202   -0.6597 H   0  0  0  0  0  0  0  0  0  0  0  0
   -3.9239   -1.0525    0.7601 H   0  0  0  0  0  0  0  0  0  0  0  0
   -3.5114   -0.6594   -0.9151 H   0  0  0  0  0  0  0  0  0  0  0  0
   -3.5198   -2.9944   -1.5788 H   0  0  0  0  0  0  0  0  0  0  0  0
   -5.0632   -2.5407   -0.7741 H   0  0  0  0  0  0  0  0  0  0  0  0
   -3.7906   -4.7595   -0.1096 H   0  0  0  0  0  0  0  0  0  0  0  0
   -2.2838   -4.6183    1.4788 H   0  0  0  0  0  0  0  0  0  0  0  0
   -3.0290   -3.1743    2.1925 H   0  0  0  0  0  0  0  0  0  0  0  0
   -0.8480   -2.6295    1.4872 H   0  0  0  0  0  0  0  0  0  0  0  0
   -0.9951   -3.3958   -0.1131 H   0  0  0  0  0  0  0  0  0  0  0  0
    4.1453   -3.9569   -0.6799 H   0  0  0  0  0  0  0  0  0  0  0  0
    4.2515   -4.7392    1.6250 H   0  0  0  0  0  0  0  0  0  0  0  0
    3.5750   -3.2244    3.5184 H   0  0  0  0  0  0  0  0  0  0  0  0
  1  2  1  0
  2  3  2  0
  3  4  1  0
  4  5  2  0
  5  6  1  0
  6  7  1  0
  6  8  2  0
  5  9  1  0
  9 10  2  0
 10 11  1  0
 11 12  1  0
 12 13  1  0
 13 14  2  0
 13 15  1  0
 15 16  1  0
 16 17  2  0
 17 18  1  0
 18 19  2  0
 18 20  1  0
 20 21  1  0
 21 22  1  0
 22 23  1  0
 23 24  1  0
 24 25  1  0
 15 26  1  0
 26 27  2  0
 27 28  1  0
 27 29  1  0
 29 30  2  0
 30 31  1  0
 31 32  2  0
 32 33  1  0
  8  2  1  0
 19  9  1  0
 25 20  1  0
 32 26  1  0
 16 10  1  0
  3 34  1  0
  4 35  1  0
  8 36  1  0
 11 37  1  0
 11 38  1  0
 12 39  1  0
 17 40  1  0
 19 41  1  0
 21 42  1  0
 21 43  1  0
 22 44  1  0
 22 45  1  0
 23 46  1  0
 24 47  1  0
 24 48  1  0
 25 49  1  0
 25 50  1  0
 29 51  1  0
 30 52  1  0
 31 53  1  0
M  END
$$$$
