
     RDKit          3D

 53 57  0  0  0  0  0  0  0  0999 V2000
    2.5276    4.5644    1.6929 C   0  0  0  0  0  0  0  0  0  0  0  0
    2.3036    3.1998    1.1346 C   0  0  0  0  0  0  0  0  0  0  0  0
    2.1721    2.0964    1.9548 C   0  0  0  0  0  0  0  0  0  0  0  0
    1.9647    0.8329    1.4362 C   0  0  0  0  0  0  0  0  0  0  0  0
    1.8795    0.6167    0.0750 C   0  0  0  0  0  0  0  0  0  0  0  0
    1.6556   -0.7504   -0.4721 C   0  0  0  0  0  0  0  0  0  0  0  0
    2.8635   -1.5769   -0.0890 C   0  0  0  0  0  0  0  0  0  0  0  0
    2.6105   -3.0474   -0.3218 C   0  0  0  0  0  0  0  0  0  0  0  0
    2.2303   -3.2888   -1.7624 C   0  0  0  0  0  0  0  0  0  0  0  0
    0.7326   -3.0776   -1.7253 C   0  0  0  0  0  0  0  0  0  0  0  0
    0.3735   -2.8185   -0.2996 C   0  0  0  0  0  0  0  0  0  0  0  0
    0.3722   -1.3583    0.0345 C   0  0  0  0  0  0  0  0  0  0  0  0
   -0.7589   -0.6323   -0.5670 C   0  0  0  0  0  0  0  0  0  0  0  0
   -1.7235    0.0810    0.1295 C   0  0  0  0  0  0  0  0  0  0  0  0
   -2.5890    0.5993   -0.8088 C   0  0  0  0  0  0  0  0  0  0  0  0
   -3.7693    1.4267   -0.5396 C   0  0  0  0  0  0  0  0  0  0  0  0
   -4.5606    1.8874   -1.5633 C   0  0  0  0  0  0  0  0  0  0  0  0
   -5.6768    2.6655   -1.3647 C   0  0  0  0  0  0  0  0  0  0  0  0
   -6.0006    2.9884   -0.0617 C   0  0  0  0  0  0  0  0  0  0  0  0
   -7.4296    3.9841    0.1866 Cl  0  0  0  0  0  0  0  0  0  0  0  0
   -5.2226    2.5387    0.9872 C   0  0  0  0  0  0  0  0  0  0  0  0
   -4.1074    1.7586    0.7541 C   0  0  0  0  0  0  0  0  0  0  0  0
   -2.1272    0.1912   -1.9970 N   0  0  0  0  0  0  0  0  0  0  0  0
   -1.0488   -0.5325   -1.8282 O   0  0  0  0  0  0  0  0  0  0  0  0
    1.4556   -3.4272    0.4615 N   0  0  0  0  0  0  0  0  0  0  0  0
    1.3010   -4.8404    0.6163 C   0  0  0  0  0  0  0  0  0  0  0  0
    2.0120    1.7250   -0.7384 C   0  0  0  0  0  0  0  0  0  0  0  0
    2.2197    2.9921   -0.2269 C   0  0  0  0  0  0  0  0  0  0  0  0
    3.0371    4.5379    2.6728 H   0  0  0  0  0  0  0  0  0  0  0  0
    1.5471    5.0849    1.7200 H   0  0  0  0  0  0  0  0  0  0  0  0
    3.2088    5.0915    0.9846 H   0  0  0  0  0  0  0  0  0  0  0  0
    2.2376    2.2596    3.0117 H   0  0  0  0  0  0  0  0  0  0  0  0
    1.8633   -0.0219    2.0841 H   0  0  0  0  0  0  0  0  0  0  0  0
    1.6247   -0.6745   -1.5590 H   0  0  0  0  0  0  0  0  0  0  0  0
    3.7059   -1.2199   -0.7486 H   0  0  0  0  0  0  0  0  0  0  0  0
    3.1248   -1.4496    0.9855 H   0  0  0  0  0  0  0  0  0  0  0  0
    3.5174   -3.6057   -0.0231 H   0  0  0  0  0  0  0  0  0  0  0  0
    2.7383   -2.5655   -2.4332 H   0  0  0  0  0  0  0  0  0  0  0  0
    2.4243   -4.3141   -2.0963 H   0  0  0  0  0  0  0  0  0  0  0  0
    0.5066   -2.1994   -2.3281 H   0  0  0  0  0  0  0  0  0  0  0  0
    0.1754   -3.9320   -2.1619 H   0  0  0  0  0  0  0  0  0  0  0  0
   -0.5589   -3.3288    0.0165 H   0  0  0  0  0  0  0  0  0  0  0  0
    0.3804   -1.2740    1.1423 H   0  0  0  0  0  0  0  0  0  0  0  0
   -1.7924    0.2114    1.1989 H   0  0  0  0  0  0  0  0  0  0  0  0
   -4.2891    1.6219   -2.5891 H   0  0  0  0  0  0  0  0  0  0  0  0
   -6.2626    2.9995   -2.2139 H   0  0  0  0  0  0  0  0  0  0  0  0
   -5.4909    2.8010    1.9999 H   0  0  0  0  0  0  0  0  0  0  0  0
   -3.4985    1.4078    1.5905 H   0  0  0  0  0  0  0  0  0  0  0  0
    1.8227   -5.4352   -0.1699 H   0  0  0  0  0  0  0  0  0  0  0  0
    1.8054   -5.1162    1.5881 H   0  0  0  0  0  0  0  0  0  0  0  0
    0.2390   -5.1260    0.7350 H   0  0  0  0  0  0  0  0  0  0  0  0
    1.9487    1.5767   -1.7962 H   0  0  0  0  0  0  0  0  0  0  0  0
    2.3252    3.8726   -0.8645 H   0  0  0  0  0  0  0  0  0  0  0  0
  1  2  1  0
  2  3  2  0
  3  4  1  0
  4  5  2  0
  5  6  1  0
  6  7  1  0
  7  8  1  0
  8  9  1  0
  9 10  1  0
 10 11  1  0
 11 12  1  0
 12 13  1  0
 13 14  2  0
 14 15  1  0
 15 16  1  0
 16 17  2  0
 17 18  1  0
 18 19  2  0
 19 20  1  0
 19 21  1  0
 21 22  2  0
 15 23  2  0
 23 24  1  0
 11 25  1  0
 25 26  1  0
  5 27  1  0
 27 28  2  0
 28  2  1  0
 12  6  1  0
 24 13  1  0
 25  8  1  0
 22 16  1  0
  1 29  1  0
  1 30  1  0
  1 31  1  0
  3 32  1  0
  4 33  1  0
  6 34  1  0
  7 35  1  0
  7 36  1  0
  8 37  1  0
  9 38  1  0
  9 39  1  0
 10 40  1  0
 10 41  1  0
 11 42  1  0
 12 43  1  0
 14 44  1  0
 17 45  1  0
 18 46  1  0
 21 47  1  0
 22 48  1  0
 26 49  1  0
 26 50  1  0
 26 51  1  0
 27 52  1  0
 28 53  1  0
M  END
$$$$
