
     RDKit          3D

 59 63  0  0  0  0  0  0  0  0999 V2000
   -4.5235    3.2685    1.1565 C   0  0  0  0  0  0  0  0  0  0  0  0
   -4.8261    1.8758    0.7461 C   0  0  0  0  0  0  0  0  0  0  0  0
   -6.1458    1.4960    0.6548 C   0  0  0  0  0  0  0  0  0  0  0  0
   -6.4667    0.1983    0.2732 C   0  0  0  0  0  0  0  0  0  0  0  0
   -7.8609   -0.2027    0.1701 C   0  0  0  0  0  0  0  0  0  0  0  0
   -8.5548   -0.0689   -1.0304 C   0  0  0  0  0  0  0  0  0  0  0  0
   -7.6452    0.6018   -2.3806 Cl  0  0  0  0  0  0  0  0  0  0  0  0
   -9.8708   -0.4396   -1.1508 C   0  0  0  0  0  0  0  0  0  0  0  0
  -10.5478   -0.9594   -0.0758 C   0  0  0  0  0  0  0  0  0  0  0  0
   -9.8806   -1.1057    1.1396 C   0  0  0  0  0  0  0  0  0  0  0  0
   -8.5456   -0.7228    1.2377 C   0  0  0  0  0  0  0  0  0  0  0  0
   -7.7684   -0.9339    2.7966 Cl  0  0  0  0  0  0  0  0  0  0  0  0
   -5.4241   -0.6637   -0.0008 C   0  0  0  0  0  0  0  0  0  0  0  0
   -4.1003   -0.2597    0.0974 C   0  0  0  0  0  0  0  0  0  0  0  0
   -3.0791   -1.0834   -0.1690 N   0  0  0  0  0  0  0  0  0  0  0  0
   -1.8269   -0.6827   -0.0744 N   0  0  0  0  0  0  0  0  0  0  0  0
   -1.4534    0.5426    0.2840 C   0  0  0  0  0  0  0  0  0  0  0  0
   -0.1454    1.0477    0.3999 N   0  0  0  0  0  0  0  0  0  0  0  0
    1.0019    0.2874    0.1740 C   0  0  0  0  0  0  0  0  0  0  0  0
    1.0316   -1.0628    0.0621 C   0  0  0  0  0  0  0  0  0  0  0  0
    2.1791   -1.7914   -0.1835 C   0  0  0  0  0  0  0  0  0  0  0  0
    3.3978   -1.0880   -0.3268 C   0  0  0  0  0  0  0  0  0  0  0  0
    4.5410   -1.8034   -0.5765 O   0  0  0  0  0  0  0  0  0  0  0  0
    5.8068   -1.2687   -0.6866 C   0  0  0  0  0  0  0  0  0  0  0  0
    6.2876   -0.7261    0.6193 C   0  0  0  0  0  0  0  0  0  0  0  0
    7.6111   -0.1305    0.5196 N   0  0  0  0  0  0  0  0  0  0  0  0
    8.6271   -1.1293    0.2617 C   0  0  0  0  0  0  0  0  0  0  0  0
    9.0854   -0.9398   -1.1530 C   0  0  0  0  0  0  0  0  0  0  0  0
    8.4836    0.3357   -1.6496 C   0  0  0  0  0  0  0  0  0  0  0  0
    7.7131    0.8754   -0.4904 C   0  0  0  0  0  0  0  0  0  0  0  0
    3.4084    0.2753   -0.2214 C   0  0  0  0  0  0  0  0  0  0  0  0
    2.2094    0.9510    0.0291 C   0  0  0  0  0  0  0  0  0  0  0  0
   -2.4951    1.3938    0.5594 N   0  0  0  0  0  0  0  0  0  0  0  0
   -3.7807    1.0256    0.4752 C   0  0  0  0  0  0  0  0  0  0  0  0
   -3.7981    3.7703    0.4946 H   0  0  0  0  0  0  0  0  0  0  0  0
   -4.0693    3.2139    2.1801 H   0  0  0  0  0  0  0  0  0  0  0  0
   -5.4368    3.8792    1.2672 H   0  0  0  0  0  0  0  0  0  0  0  0
   -6.9810    2.1507    0.8638 H   0  0  0  0  0  0  0  0  0  0  0  0
  -10.3905   -0.3300   -2.0833 H   0  0  0  0  0  0  0  0  0  0  0  0
  -11.6041   -1.2600   -0.1618 H   0  0  0  0  0  0  0  0  0  0  0  0
  -10.4107   -1.5137    1.9841 H   0  0  0  0  0  0  0  0  0  0  0  0
   -5.6347   -1.6744   -0.2984 H   0  0  0  0  0  0  0  0  0  0  0  0
   -0.0489    2.0861    0.6829 H   0  0  0  0  0  0  0  0  0  0  0  0
    0.1385   -1.6721    0.1707 H   0  0  0  0  0  0  0  0  0  0  0  0
    2.2103   -2.8678   -0.2741 H   0  0  0  0  0  0  0  0  0  0  0  0
    6.5004   -2.0445   -1.1024 H   0  0  0  0  0  0  0  0  0  0  0  0
    5.7422   -0.4505   -1.4739 H   0  0  0  0  0  0  0  0  0  0  0  0
    5.6007   -0.0821    1.1166 H   0  0  0  0  0  0  0  0  0  0  0  0
    6.4891   -1.6668    1.2560 H   0  0  0  0  0  0  0  0  0  0  0  0
    9.4756   -0.9715    0.9636 H   0  0  0  0  0  0  0  0  0  0  0  0
    8.1686   -2.1242    0.4377 H   0  0  0  0  0  0  0  0  0  0  0  0
   10.2105   -0.9211   -1.1766 H   0  0  0  0  0  0  0  0  0  0  0  0
    8.7759   -1.7780   -1.8138 H   0  0  0  0  0  0  0  0  0  0  0  0
    9.3113    1.0291   -1.9057 H   0  0  0  0  0  0  0  0  0  0  0  0
    7.8069    0.1996   -2.5095 H   0  0  0  0  0  0  0  0  0  0  0  0
    8.2402    1.7688   -0.0510 H   0  0  0  0  0  0  0  0  0  0  0  0
    6.7238    1.2748   -0.8240 H   0  0  0  0  0  0  0  0  0  0  0  0
    4.3084    0.8472   -0.3604 H   0  0  0  0  0  0  0  0  0  0  0  0
    2.2287    2.0249    0.1119 H   0  0  0  0  0  0  0  0  0  0  0  0
  1  2  1  0
  2  3  2  0
  3  4  1  0
  4  5  1  0
  5  6  2  0
  6  7  1  0
  6  8  1  0
  8  9  2  0
  9 10  1  0
 10 11  2  0
 11 12  1  0
  4 13  2  0
 13 14  1  0
 14 15  2  0
 15 16  1  0
 16 17  2  0
 17 18  1  0
 18 19  1  0
 19 20  2  0
 20 21  1  0
 21 22  2  0
 22 23  1  0
 23 24  1  0
 24 25  1  0
 25 26  1  0
 26 27  1  0
 27 28  1  0
 28 29  1  0
 29 30  1  0
 22 31  1  0
 31 32  2  0
 17 33  1  0
 33 34  2  0
 34  2  1  0
 11  5  1  0
 34 14  1  0
 32 19  1  0
 30 26  1  0
  1 35  1  0
  1 36  1  0
  1 37  1  0
  3 38  1  0
  8 39  1  0
  9 40  1  0
 10 41  1  0
 13 42  1  0
 18 43  1  0
 20 44  1  0
 21 45  1  0
 24 46  1  0
 24 47  1  0
 25 48  1  0
 25 49  1  0
 27 50  1  0
 27 51  1  0
 28 52  1  0
 28 53  1  0
 29 54  1  0
 29 55  1  0
 30 56  1  0
 30 57  1  0
 31 58  1  0
 32 59  1  0
M  END
$$$$
