
     RDKit          3D

 55 59  0  0  0  0  0  0  0  0999 V2000
   -6.9232   -4.1305   -4.2028 C   0  0  0  0  0  0  0  0  0  0  0  0
   -6.4955   -3.5042   -5.8370 S   0  0  0  0  0  6  0  0  0  0  0  0
   -7.6376   -3.6807   -6.7612 O   0  0  0  0  0  0  0  0  0  0  0  0
   -5.3451   -4.3062   -6.3422 O   0  0  0  0  0  0  0  0  0  0  0  0
   -6.1269   -1.8546   -5.6477 N   0  0  0  0  0  0  0  0  0  0  0  0
   -5.0551   -1.4422   -4.8186 C   0  0  0  0  0  0  0  0  0  0  0  0
   -3.7789   -2.0222   -4.8970 C   0  0  0  0  0  0  0  0  0  0  0  0
   -2.7619   -1.5414   -4.0708 C   0  0  0  0  0  0  0  0  0  0  0  0
   -2.9527   -0.5127   -3.1702 C   0  0  0  0  0  0  0  0  0  0  0  0
   -1.8960    0.0077   -2.3357 C   0  0  0  0  0  0  0  0  0  0  0  0
   -1.7723    1.3911   -2.1695 C   0  0  0  0  0  0  0  0  0  0  0  0
   -0.8475    1.9517   -1.4370 O   0  0  0  0  0  0  0  0  0  0  0  0
    0.0585    1.2288   -0.7894 C   0  0  0  0  0  0  0  0  0  0  0  0
    1.0281    1.7845   -0.0327 C   0  0  0  0  0  0  0  0  0  0  0  0
    2.0209    1.0894    0.6739 C   0  0  0  0  0  0  0  0  0  0  0  0
    3.0129    1.7276    1.3578 C   0  0  0  0  0  0  0  0  0  0  0  0
    3.9589    2.3425    2.0132 C   0  0  0  0  0  0  0  0  0  0  0  0
    5.0131    3.0555    2.7397 C   0  0  0  0  0  0  0  0  0  0  0  0
    5.6948    2.0672    3.6753 C   0  0  0  0  0  0  0  0  0  0  0  0
    4.7819    2.4594    4.7143 N   0  0  0  0  0  0  0  0  0  0  0  0
    4.2753    1.8773    5.8936 C   0  0  0  0  0  0  0  0  0  0  0  0
    3.4284    2.5303    6.5880 O   0  0  0  0  0  0  0  0  0  0  0  0
    4.7421    0.5177    6.3007 C   0  0  0  0  0  0  0  0  0  0  0  0
    5.1593    0.3787    7.7322 C   0  0  0  0  0  0  0  0  0  0  0  0
    3.9215   -0.2688    7.2615 C   0  0  0  0  0  0  0  0  0  0  0  0
    4.5757    3.7229    4.0104 C   0  0  0  0  0  0  0  0  0  0  0  0
    1.9138   -0.3078    0.5257 C   0  0  0  0  0  0  0  0  0  0  0  0
    0.9602   -0.8998   -0.2212 C   0  0  0  0  0  0  0  0  0  0  0  0
    0.0123   -0.1593   -0.8962 C   0  0  0  0  0  0  0  0  0  0  0  0
   -0.9631   -0.7483   -1.6667 C   0  0  0  0  0  0  0  0  0  0  0  0
   -1.0415   -2.0180   -1.7941 O   0  0  0  0  0  0  0  0  0  0  0  0
   -4.2405    0.0406   -3.1139 C   0  0  0  0  0  0  0  0  0  0  0  0
   -5.2430   -0.4279   -3.9235 C   0  0  0  0  0  0  0  0  0  0  0  0
   -7.3709   -5.1230   -4.2442 H   0  0  0  0  0  0  0  0  0  0  0  0
   -6.0443   -4.0907   -3.5412 H   0  0  0  0  0  0  0  0  0  0  0  0
   -7.6668   -3.3884   -3.8165 H   0  0  0  0  0  0  0  0  0  0  0  0
   -6.6796   -1.1357   -6.1205 H   0  0  0  0  0  0  0  0  0  0  0  0
   -3.6253   -2.8163   -5.6025 H   0  0  0  0  0  0  0  0  0  0  0  0
   -1.7875   -1.9940   -4.1377 H   0  0  0  0  0  0  0  0  0  0  0  0
   -2.5054    2.0054   -2.6945 H   0  0  0  0  0  0  0  0  0  0  0  0
    1.1023    2.8761    0.0855 H   0  0  0  0  0  0  0  0  0  0  0  0
    5.7136    3.6122    2.0782 H   0  0  0  0  0  0  0  0  0  0  0  0
    6.7081    2.4201    3.9294 H   0  0  0  0  0  0  0  0  0  0  0  0
    5.6098    1.0019    3.3522 H   0  0  0  0  0  0  0  0  0  0  0  0
    5.4360    0.0220    5.5882 H   0  0  0  0  0  0  0  0  0  0  0  0
    5.0624    1.2647    8.4054 H   0  0  0  0  0  0  0  0  0  0  0  0
    6.0446   -0.2658    7.9757 H   0  0  0  0  0  0  0  0  0  0  0  0
    2.9124    0.0762    7.5886 H   0  0  0  0  0  0  0  0  0  0  0  0
    3.9086   -1.3793    7.0815 H   0  0  0  0  0  0  0  0  0  0  0  0
    3.4871    3.9885    3.9744 H   0  0  0  0  0  0  0  0  0  0  0  0
    5.2415    4.5282    4.3182 H   0  0  0  0  0  0  0  0  0  0  0  0
    2.7011   -0.8319    1.1023 H   0  0  0  0  0  0  0  0  0  0  0  0
    0.9301   -1.9694   -0.3020 H   0  0  0  0  0  0  0  0  0  0  0  0
   -4.4086    0.8584   -2.4110 H   0  0  0  0  0  0  0  0  0  0  0  0
   -6.2460   -0.0076   -3.8772 H   0  0  0  0  0  0  0  0  0  0  0  0
  1  2  1  0
  2  3  2  0
  2  4  2  0
  2  5  1  0
  5  6  1  0
  6  7  2  0
  7  8  1  0
  8  9  2  0
  9 10  1  0
 10 11  2  0
 11 12  1  0
 12 13  1  0
 13 14  2  0
 14 15  1  0
 15 16  1  0
 16 17  3  0
 17 18  1  0
 18 19  1  0
 19 20  1  0
 20 21  1  0
 21 22  2  0
 21 23  1  0
 23 24  1  0
 24 25  1  0
 20 26  1  0
 15 27  2  0
 27 28  1  0
 28 29  2  0
 29 30  1  0
 30 31  2  0
  9 32  1  0
 32 33  2  0
 33  6  1  0
 30 10  1  0
 29 13  1  0
 26 18  1  0
 25 23  1  0
  1 34  1  0
  1 35  1  0
  1 36  1  0
  5 37  1  0
  7 38  1  0
  8 39  1  0
 11 40  1  0
 14 41  1  0
 18 42  1  0
 19 43  1  0
 19 44  1  0
 23 45  1  0
 24 46  1  0
 24 47  1  0
 25 48  1  0
 25 49  1  0
 26 50  1  0
 26 51  1  0
 27 52  1  0
 28 53  1  0
 32 54  1  0
 33 55  1  0
M  END
$$$$
