
     RDKit          3D

 59 60  0  0  0  0  0  0  0  0999 V2000
   -1.4254    0.6259   -1.6168 C   0  0  1  0  0  0  0  0  0  0  0  0
   -0.7371    1.9571   -2.0218 C   0  0  0  0  0  0  0  0  0  0  0  0
   -0.7469   -0.4463   -2.4193 C   0  0  0  0  0  0  0  0  0  0  0  0
   -1.3411   -1.7981   -2.1188 C   0  0  0  0  0  0  0  0  0  0  0  0
   -1.2159    0.5383   -0.1380 C   0  0  2  0  0  0  0  0  0  0  0  0
    0.2187    0.5144    0.0820 N   0  0  0  0  0  0  0  0  0  0  0  0
    0.8728    1.5875    0.7316 C   0  0  0  0  0  0  0  0  0  0  0  0
    0.3000    2.6181    1.1618 O   0  0  0  0  0  0  0  0  0  0  0  0
    2.3274    1.6246    0.9853 C   0  0  1  0  0  0  0  0  0  0  0  0
    2.8421    0.4093    1.6082 O   0  0  0  0  0  0  0  0  0  0  0  0
    3.2099    0.6956    0.2704 C   0  0  2  0  0  0  0  0  0  0  0  0
    4.6703    0.9655    0.1492 C   0  0  0  0  0  0  0  0  0  0  0  0
    5.1208    1.7932    1.0132 O   0  0  0  0  0  0  0  0  0  0  0  0
    5.4267    0.3163   -0.8687 N   0  0  0  0  0  0  0  0  0  0  0  0
    6.8143    0.6433   -0.8981 C   0  0  0  0  0  0  0  0  0  0  0  0
    7.5791    0.3256    0.3311 C   0  0  0  0  0  0  0  0  0  0  0  0
    7.5369   -1.1581    0.6559 C   0  0  0  0  0  0  0  0  0  0  0  0
   -1.8829   -0.5909    0.5373 C   0  0  0  0  0  0  0  0  0  0  0  0
   -1.6117   -1.6013    1.2536 O   0  0  0  0  0  0  0  0  0  0  0  0
   -3.2343   -1.0033    0.6435 N   0  0  0  0  0  0  0  0  0  0  0  0
   -3.3347   -2.2109    1.4451 C   0  0  0  0  0  0  0  0  0  0  0  0
   -4.8519   -2.4269    1.4437 C   0  0  0  0  0  0  0  0  0  0  0  0
   -5.3540   -1.7442    0.1974 C   0  0  0  0  0  0  0  0  0  0  0  0
   -4.4989   -0.4954    0.1417 C   0  0  1  0  0  0  0  0  0  0  0  0
   -5.1046    0.4969    1.0622 C   0  0  0  0  0  0  0  0  0  0  0  0
   -6.2224    1.0158    0.7289 O   0  0  0  0  0  0  0  0  0  0  0  0
   -4.5825    0.9468    2.2898 O   0  0  0  0  0  0  0  0  0  0  0  0
   -5.3102    1.9106    3.0417 C   0  0  0  0  0  0  0  0  0  0  0  0
   -2.4499    0.7371   -1.9589 H   0  0  0  0  0  0  0  0  0  0  0  0
    0.2854    1.9964   -1.6278 H   0  0  0  0  0  0  0  0  0  0  0  0
   -0.8430    2.1237   -3.0961 H   0  0  0  0  0  0  0  0  0  0  0  0
   -1.3226    2.7247   -1.4755 H   0  0  0  0  0  0  0  0  0  0  0  0
    0.3470   -0.4965   -2.2401 H   0  0  0  0  0  0  0  0  0  0  0  0
   -0.9670   -0.2513   -3.4955 H   0  0  0  0  0  0  0  0  0  0  0  0
   -0.8806   -2.3171   -1.2659 H   0  0  0  0  0  0  0  0  0  0  0  0
   -1.1649   -2.4855   -2.9962 H   0  0  0  0  0  0  0  0  0  0  0  0
   -2.4364   -1.7297   -1.9090 H   0  0  0  0  0  0  0  0  0  0  0  0
   -1.5673    1.5115    0.2941 H   0  0  0  0  0  0  0  0  0  0  0  0
    0.7524   -0.3166   -0.2513 H   0  0  0  0  0  0  0  0  0  0  0  0
    2.7518    2.5043    1.5127 H   0  0  0  0  0  0  0  0  0  0  0  0
    2.7434   -0.0116   -0.4430 H   0  0  0  0  0  0  0  0  0  0  0  0
    4.8896   -0.3447   -1.5044 H   0  0  0  0  0  0  0  0  0  0  0  0
    7.3276    0.1786   -1.7593 H   0  0  0  0  0  0  0  0  0  0  0  0
    6.8818    1.7414   -1.0678 H   0  0  0  0  0  0  0  0  0  0  0  0
    8.6635    0.5318    0.0851 H   0  0  0  0  0  0  0  0  0  0  0  0
    7.3782    0.9717    1.1992 H   0  0  0  0  0  0  0  0  0  0  0  0
    6.6482   -1.6710    0.2314 H   0  0  0  0  0  0  0  0  0  0  0  0
    8.4050   -1.7165    0.2027 H   0  0  0  0  0  0  0  0  0  0  0  0
    7.6363   -1.3570    1.7553 H   0  0  0  0  0  0  0  0  0  0  0  0
   -2.8122   -3.0786    1.0129 H   0  0  0  0  0  0  0  0  0  0  0  0
   -3.0483   -1.9656    2.4792 H   0  0  0  0  0  0  0  0  0  0  0  0
   -5.2921   -1.8664    2.3065 H   0  0  0  0  0  0  0  0  0  0  0  0
   -5.1223   -3.4964    1.4667 H   0  0  0  0  0  0  0  0  0  0  0  0
   -6.4176   -1.4990    0.2538 H   0  0  0  0  0  0  0  0  0  0  0  0
   -5.0836   -2.3619   -0.6845 H   0  0  0  0  0  0  0  0  0  0  0  0
   -4.4156   -0.0866   -0.8758 H   0  0  0  0  0  0  0  0  0  0  0  0
   -6.3936    1.7968    2.9901 H   0  0  0  0  0  0  0  0  0  0  0  0
   -4.9345    1.8292    4.0940 H   0  0  0  0  0  0  0  0  0  0  0  0
   -5.0232    2.8956    2.5967 H   0  0  0  0  0  0  0  0  0  0  0  0
  1  2  1  0
  1  3  1  0
  3  4  1  0
  1  5  1  0
  5  6  1  0
  6  7  1  0
  7  8  2  0
  7  9  1  0
  9 10  1  0
 10 11  1  0
 11 12  1  0
 12 13  2  0
 12 14  1  0
 14 15  1  0
 15 16  1  0
 16 17  1  0
  5 18  1  0
 18 19  2  0
 18 20  1  0
 20 21  1  0
 21 22  1  0
 22 23  1  0
 23 24  1  0
 24 25  1  0
 25 26  2  0
 25 27  1  0
 27 28  1  0
 11  9  1  0
 24 20  1  0
  1 29  1  1
  2 30  1  0
  2 31  1  0
  2 32  1  0
  3 33  1  0
  3 34  1  0
  4 35  1  0
  4 36  1  0
  4 37  1  0
  5 38  1  1
  6 39  1  0
  9 40  1  1
 11 41  1  6
 14 42  1  0
 15 43  1  0
 15 44  1  0
 16 45  1  0
 16 46  1  0
 17 47  1  0
 17 48  1  0
 17 49  1  0
 21 50  1  0
 21 51  1  0
 22 52  1  0
 22 53  1  0
 23 54  1  0
 23 55  1  0
 24 56  1  6
 28 57  1  0
 28 58  1  0
 28 59  1  0
M  END
$$$$
