
     RDKit          3D

 18 19  0  0  0  0  0  0  0  0999 V2000
    3.9113    0.6350   -0.2276 O   0  0  0  0  0  0  0  0  0  0  0  0
    3.1124   -0.4992   -0.1671 C   0  0  0  0  0  0  0  0  0  0  0  0
    3.7609   -1.5513   -0.1761 O   0  0  0  0  0  0  0  0  0  0  0  0
    1.6505   -0.3618   -0.1016 C   0  0  0  0  0  0  0  0  0  0  0  0
    0.7851   -1.3823   -0.0404 N   0  0  0  0  0  0  0  0  0  0  0  0
   -0.4796   -0.9323    0.0096 C   0  0  0  0  0  0  0  0  0  0  0  0
   -1.7710   -1.4322    0.0802 C   0  0  0  0  0  0  0  0  0  0  0  0
   -2.8639   -0.5865    0.1141 C   0  0  0  0  0  0  0  0  0  0  0  0
   -2.7199    0.7857    0.0794 C   0  0  0  0  0  0  0  0  0  0  0  0
   -1.4424    1.3171    0.0089 C   0  0  0  0  0  0  0  0  0  0  0  0
   -0.3748    0.4439   -0.0233 C   0  0  0  0  0  0  0  0  0  0  0  0
    0.9152    0.7828   -0.0905 N   0  0  0  0  0  0  0  0  0  0  0  0
    4.7736    0.7057    0.3025 H   0  0  0  0  0  0  0  0  0  0  0  0
   -1.8619   -2.5095    0.1063 H   0  0  0  0  0  0  0  0  0  0  0  0
   -3.8704   -0.9878    0.1693 H   0  0  0  0  0  0  0  0  0  0  0  0
   -3.5551    1.4769    0.1044 H   0  0  0  0  0  0  0  0  0  0  0  0
   -1.3348    2.3873   -0.0179 H   0  0  0  0  0  0  0  0  0  0  0  0
    1.3649    1.7087   -0.1303 H   0  0  0  0  0  0  0  0  0  0  0  0
  1  2  1  0
  2  3  2  0
  2  4  1  0
  4  5  2  0
  5  6  1  0
  6  7  2  0
  7  8  1  0
  8  9  2  0
  9 10  1  0
 10 11  2  0
 11 12  1  0
 12  4  1  0
 11  6  1  0
  1 13  1  0
  7 14  1  0
  8 15  1  0
  9 16  1  0
 10 17  1  0
 12 18  1  0
M  END
$$$$
