
     RDKit          3D

 55 58  0  0  0  0  0  0  0  0999 V2000
    6.2235   -2.8337   -0.9216 C   0  0  0  0  0  0  0  0  0  0  0  0
    4.9764   -2.1857   -0.9962 O   0  0  0  0  0  0  0  0  0  0  0  0
    4.5761   -1.1367   -0.2059 C   0  0  0  0  0  0  0  0  0  0  0  0
    5.3672   -0.5911    0.7638 C   0  0  0  0  0  0  0  0  0  0  0  0
    4.9131    0.4582    1.5236 C   0  0  0  0  0  0  0  0  0  0  0  0
    5.7172    1.0960    2.5898 C   0  0  0  0  0  0  0  0  0  0  0  0
    3.6720    0.9276    1.2836 N   0  0  0  0  0  0  0  0  0  0  0  0
    2.8610    0.4186    0.3390 C   0  0  0  0  0  0  0  0  0  0  0  0
    1.7273    0.9214    0.1925 O   0  0  0  0  0  0  0  0  0  0  0  0
    3.2955   -0.6308   -0.4325 C   0  0  0  0  0  0  0  0  0  0  0  0
    2.4472   -1.2196   -1.4683 C   0  0  0  0  0  0  0  0  0  0  0  0
    1.1868   -0.5554   -1.6618 N   0  0  0  0  0  0  0  0  0  0  0  0
    1.0786    0.4957   -2.6356 C   0  0  0  0  0  0  0  0  0  0  0  0
   -0.0127    1.4743   -2.4360 C   0  0  0  0  0  0  0  0  0  0  0  0
   -1.1866    0.9868   -1.6667 C   0  0  0  0  0  0  0  0  0  0  0  0
   -2.3723    1.7275   -1.6765 C   0  0  0  0  0  0  0  0  0  0  0  0
   -2.3834    3.1930   -2.6294 Cl  0  0  0  0  0  0  0  0  0  0  0  0
   -3.4653    1.3007   -0.9609 C   0  0  0  0  0  0  0  0  0  0  0  0
   -3.4742    0.1525   -0.2073 C   0  0  0  0  0  0  0  0  0  0  0  0
   -4.6654   -0.2578    0.5378 C   0  0  2  0  0  0  0  0  0  0  0  0
   -5.8612    0.0378   -0.1139 O   0  0  0  0  0  0  0  0  0  0  0  0
   -6.6269   -1.0988   -0.3661 C   0  0  0  0  0  0  0  0  0  0  0  0
   -4.7444    0.3125    1.9221 C   0  0  0  0  0  0  0  0  0  0  0  0
   -4.7758    1.7984    2.0481 C   0  0  0  0  0  0  0  0  0  0  0  0
   -4.0540    1.6527    3.2571 O   0  0  0  0  0  0  0  0  0  0  0  0
   -3.4236    0.5631    2.6098 C   0  0  0  0  0  0  0  0  0  0  0  0
   -2.3029   -0.5760   -0.1997 C   0  0  0  0  0  0  0  0  0  0  0  0
   -2.1959   -2.0732    0.7359 Cl  0  0  0  0  0  0  0  0  0  0  0  0
   -1.1860   -0.1657   -0.9148 C   0  0  0  0  0  0  0  0  0  0  0  0
    0.0453   -0.9429   -0.9260 C   0  0  0  0  0  0  0  0  0  0  0  0
    0.0223   -2.0041   -0.2218 O   0  0  0  0  0  0  0  0  0  0  0  0
    6.1747   -3.6904   -1.6564 H   0  0  0  0  0  0  0  0  0  0  0  0
    6.4026   -3.2860    0.0955 H   0  0  0  0  0  0  0  0  0  0  0  0
    7.0669   -2.1918   -1.1955 H   0  0  0  0  0  0  0  0  0  0  0  0
    6.3585   -0.9953    0.9267 H   0  0  0  0  0  0  0  0  0  0  0  0
    6.7951    1.0044    2.4107 H   0  0  0  0  0  0  0  0  0  0  0  0
    5.4115    2.1693    2.6552 H   0  0  0  0  0  0  0  0  0  0  0  0
    5.4139    0.6385    3.5627 H   0  0  0  0  0  0  0  0  0  0  0  0
    3.3027    1.7366    1.8592 H   0  0  0  0  0  0  0  0  0  0  0  0
    3.0633   -1.2016   -2.4197 H   0  0  0  0  0  0  0  0  0  0  0  0
    2.3064   -2.3187   -1.2731 H   0  0  0  0  0  0  0  0  0  0  0  0
    2.0518    1.0839   -2.6283 H   0  0  0  0  0  0  0  0  0  0  0  0
    1.0807    0.0643   -3.6852 H   0  0  0  0  0  0  0  0  0  0  0  0
   -0.3439    1.8032   -3.4633 H   0  0  0  0  0  0  0  0  0  0  0  0
    0.3889    2.4227   -1.9851 H   0  0  0  0  0  0  0  0  0  0  0  0
   -4.3495    1.9363   -1.0233 H   0  0  0  0  0  0  0  0  0  0  0  0
   -4.6669   -1.3813    0.6774 H   0  0  0  0  0  0  0  0  0  0  0  0
   -6.0866   -1.8160   -1.0008 H   0  0  0  0  0  0  0  0  0  0  0  0
   -6.9951   -1.5547    0.5778 H   0  0  0  0  0  0  0  0  0  0  0  0
   -7.5277   -0.7624   -0.9268 H   0  0  0  0  0  0  0  0  0  0  0  0
   -5.5004   -0.2064    2.5162 H   0  0  0  0  0  0  0  0  0  0  0  0
   -5.7923    2.2388    2.2302 H   0  0  0  0  0  0  0  0  0  0  0  0
   -4.1378    2.3231    1.3332 H   0  0  0  0  0  0  0  0  0  0  0  0
   -2.6603    0.9524    1.9331 H   0  0  0  0  0  0  0  0  0  0  0  0
   -3.1354   -0.2142    3.3173 H   0  0  0  0  0  0  0  0  0  0  0  0
  1  2  1  0
  2  3  1  0
  3  4  1  0
  4  5  2  0
  5  6  1  0
  5  7  1  0
  7  8  1  0
  8  9  2  0
  8 10  1  0
 10 11  1  0
 11 12  1  0
 12 13  1  0
 13 14  1  0
 14 15  1  0
 15 16  2  0
 16 17  1  0
 16 18  1  0
 18 19  2  0
 19 20  1  0
 20 21  1  0
 21 22  1  0
 20 23  1  0
 23 24  1  0
 24 25  1  0
 25 26  1  0
 19 27  1  0
 27 28  1  0
 27 29  2  0
 29 30  1  0
 30 31  2  0
 10  3  2  0
 30 12  1  0
 29 15  1  0
 26 23  1  0
  1 32  1  0
  1 33  1  0
  1 34  1  0
  4 35  1  0
  6 36  1  0
  6 37  1  0
  6 38  1  0
  7 39  1  0
 11 40  1  0
 11 41  1  0
 13 42  1  0
 13 43  1  0
 14 44  1  0
 14 45  1  0
 18 46  1  0
 20 47  1  1
 22 48  1  0
 22 49  1  0
 22 50  1  0
 23 51  1  0
 24 52  1  0
 24 53  1  0
 26 54  1  0
 26 55  1  0
M  END
$$$$
