
     RDKit          3D

 45 47  0  0  0  0  0  0  0  0999 V2000
   -6.2238    0.0192   -0.6058 C   0  0  0  0  0  0  0  0  0  0  0  0
   -5.4916   -1.0370   -1.3712 C   0  0  0  0  0  0  0  0  0  0  0  0
   -4.5395   -1.8394   -0.5188 C   0  0  0  0  0  0  0  0  0  0  0  0
   -3.4931   -1.0521    0.1192 C   0  0  0  0  0  0  0  0  0  0  0  0
   -3.5680   -0.7474    1.4567 C   0  0  0  0  0  0  0  0  0  0  0  0
   -2.5791   -0.0001    2.0826 C   0  0  0  0  0  0  0  0  0  0  0  0
   -2.7034    0.3683    3.7782 Cl  0  0  0  0  0  0  0  0  0  0  0  0
   -1.4840    0.4564    1.3518 C   0  0  0  0  0  0  0  0  0  0  0  0
   -0.4344    1.1622    1.6830 O   0  0  0  0  0  0  0  0  0  0  0  0
    0.3635    1.3608    0.6406 C   0  0  0  0  0  0  0  0  0  0  0  0
    1.6069    2.1210    0.7520 C   0  0  0  0  0  0  0  0  0  0  0  0
    2.8445    1.3452    0.8223 C   0  0  0  0  0  0  0  0  0  0  0  0
    3.6250    1.2171   -0.3033 C   0  0  0  0  0  0  0  0  0  0  0  0
    4.8078    0.4894   -0.3213 C   0  0  0  0  0  0  0  0  0  0  0  0
    5.2497   -0.1445    0.8191 C   0  0  0  0  0  0  0  0  0  0  0  0
    6.4311   -0.8900    0.8588 O   0  0  0  0  0  0  0  0  0  0  0  0
    7.3002   -1.0958   -0.2047 C   0  0  0  0  0  0  0  0  0  0  0  0
    4.4599   -0.0103    1.9443 C   0  0  0  0  0  0  0  0  0  0  0  0
    3.2890    0.7092    1.9639 C   0  0  0  0  0  0  0  0  0  0  0  0
   -0.2300    0.7326   -0.4263 C   0  0  0  0  0  0  0  0  0  0  0  0
    0.2765    0.6833   -1.7994 C   0  0  0  0  0  0  0  0  0  0  0  0
   -1.4289    0.1358   -0.0032 C   0  0  0  0  0  0  0  0  0  0  0  0
   -2.4188   -0.6060   -0.6053 C   0  0  0  0  0  0  0  0  0  0  0  0
   -2.3334   -0.9045   -1.9443 O   0  0  0  0  0  0  0  0  0  0  0  0
   -5.5461    0.8896   -0.4296 H   0  0  0  0  0  0  0  0  0  0  0  0
   -7.0366    0.4040   -1.2703 H   0  0  0  0  0  0  0  0  0  0  0  0
   -6.7023   -0.3546    0.3068 H   0  0  0  0  0  0  0  0  0  0  0  0
   -6.2439   -1.7749   -1.7717 H   0  0  0  0  0  0  0  0  0  0  0  0
   -5.0063   -0.5805   -2.2429 H   0  0  0  0  0  0  0  0  0  0  0  0
   -4.1344   -2.6524   -1.1849 H   0  0  0  0  0  0  0  0  0  0  0  0
   -5.1721   -2.3983    0.2274 H   0  0  0  0  0  0  0  0  0  0  0  0
   -4.4024   -1.0854    2.0540 H   0  0  0  0  0  0  0  0  0  0  0  0
    1.6064    2.7835    1.6710 H   0  0  0  0  0  0  0  0  0  0  0  0
    1.7309    2.8679   -0.0818 H   0  0  0  0  0  0  0  0  0  0  0  0
    3.3457    1.6979   -1.2539 H   0  0  0  0  0  0  0  0  0  0  0  0
    5.3913    0.4120   -1.2232 H   0  0  0  0  0  0  0  0  0  0  0  0
    6.8944   -0.9373   -1.2027 H   0  0  0  0  0  0  0  0  0  0  0  0
    8.1571   -0.3743   -0.0691 H   0  0  0  0  0  0  0  0  0  0  0  0
    7.7710   -2.1129   -0.1380 H   0  0  0  0  0  0  0  0  0  0  0  0
    4.8199   -0.5181    2.8447 H   0  0  0  0  0  0  0  0  0  0  0  0
    2.6807    0.8080    2.8484 H   0  0  0  0  0  0  0  0  0  0  0  0
   -0.1525    1.5540   -2.3621 H   0  0  0  0  0  0  0  0  0  0  0  0
    1.3521    0.5988   -1.9141 H   0  0  0  0  0  0  0  0  0  0  0  0
   -0.1423   -0.2503   -2.2824 H   0  0  0  0  0  0  0  0  0  0  0  0
   -2.5366   -0.2611   -2.6944 H   0  0  0  0  0  0  0  0  0  0  0  0
  1  2  1  0
  2  3  1  0
  3  4  1  0
  4  5  2  0
  5  6  1  0
  6  7  1  0
  6  8  2  0
  8  9  1  0
  9 10  1  0
 10 11  1  0
 11 12  1  0
 12 13  2  0
 13 14  1  0
 14 15  2  0
 15 16  1  0
 16 17  1  0
 15 18  1  0
 18 19  2  0
 10 20  2  0
 20 21  1  0
 20 22  1  0
 22 23  2  0
 23 24  1  0
 23  4  1  0
 22  8  1  0
 19 12  1  0
  1 25  1  0
  1 26  1  0
  1 27  1  0
  2 28  1  0
  2 29  1  0
  3 30  1  0
  3 31  1  0
  5 32  1  0
 11 33  1  0
 11 34  1  0
 13 35  1  0
 14 36  1  0
 17 37  1  0
 17 38  1  0
 17 39  1  0
 18 40  1  0
 19 41  1  0
 21 42  1  0
 21 43  1  0
 21 44  1  0
 24 45  1  0
M  END
$$$$
