
     RDKit          3D

 55 56  0  0  0  0  0  0  0  0999 V2000
   -3.3817    0.2991   -0.3457 C   0  0  1  0  0  0  0  0  0  0  0  0
   -2.3204    0.2911    0.6415 N   0  0  0  0  0  0  0  0  0  0  0  0
   -0.9941    0.4899    0.1662 C   0  0  0  0  0  0  0  0  0  0  0  0
   -0.7196    0.6686   -1.0573 O   0  0  0  0  0  0  0  0  0  0  0  0
    0.1339    0.4877    1.1640 C   0  0  0  0  0  0  0  0  0  0  0  0
    1.3660    0.7002    0.4965 N   0  0  0  0  0  0  0  0  0  0  0  0
    1.7308    1.9847    0.2795 C   0  0  0  0  0  0  0  0  0  0  0  0
    0.9422    2.9329    0.6321 O   0  0  0  0  0  0  0  0  0  0  0  0
    2.9057    2.3526   -0.3015 C   0  0  0  0  0  0  0  0  0  0  0  0
    3.2539    3.7052   -0.5140 N   0  0  0  0  0  0  0  0  0  0  0  0
    4.7489    4.1168   -1.2244 S   0  0  0  0  0  0  0  0  0  0  0  0
    6.0647    3.5455   -0.2105 C   0  0  0  0  0  0  0  0  0  0  0  0
    4.8530    5.6241   -1.2922 O   0  0  0  0  0  0  0  0  0  0  0  0
    4.8666    3.6394   -2.6430 O   0  0  0  0  0  0  0  0  0  0  0  0
    3.7165    1.3368   -0.6623 C   0  0  0  0  0  0  0  0  0  0  0  0
    3.3112    0.1033   -0.4275 N   0  0  0  0  0  0  0  0  0  0  0  0
    2.1685   -0.3004    0.1381 C   0  0  0  0  0  0  0  0  0  0  0  0
    1.9430   -1.7145    0.2315 C   0  0  0  0  0  0  0  0  0  0  0  0
    0.8307   -2.4673    0.4341 C   0  0  0  0  0  0  0  0  0  0  0  0
    0.7310   -3.8283    0.4740 C   0  0  0  0  0  0  0  0  0  0  0  0
    1.8547   -4.5885    0.2936 C   0  0  0  0  0  0  0  0  0  0  0  0
    1.8665   -5.9994    0.3154 N   0  0  0  0  0  0  0  0  0  0  0  0
    3.0326   -3.9210    0.0798 C   0  0  0  0  0  0  0  0  0  0  0  0
    3.0511   -2.5523    0.0541 C   0  0  0  0  0  0  0  0  0  0  0  0
   -4.0752   -1.0570   -0.2877 C   0  0  0  0  0  0  0  0  0  0  0  0
   -4.6597   -1.3292    1.0594 C   0  0  0  0  0  0  0  0  0  0  0  0
   -5.1140   -1.0699   -1.3851 C   0  0  0  0  0  0  0  0  0  0  0  0
   -4.3470    1.4018   -0.1124 C   0  0  0  0  0  0  0  0  0  0  0  0
   -3.5776    1.6139    0.8283 O   0  0  0  0  0  0  0  0  0  0  0  0
   -5.3805    2.4533    0.0040 C   0  0  0  0  0  0  0  0  0  0  0  0
   -5.1355    3.2642    1.0711 F   0  0  0  0  0  0  0  0  0  0  0  0
   -6.6517    1.9079    0.1359 F   0  0  0  0  0  0  0  0  0  0  0  0
   -5.3837    3.2518   -1.1298 F   0  0  0  0  0  0  0  0  0  0  0  0
   -2.9541    0.4672   -1.3546 H   0  0  0  0  0  0  0  0  0  0  0  0
   -2.5663    0.1425    1.6441 H   0  0  0  0  0  0  0  0  0  0  0  0
   -0.0493    1.4355    1.7979 H   0  0  0  0  0  0  0  0  0  0  0  0
    0.0785   -0.2889    1.9189 H   0  0  0  0  0  0  0  0  0  0  0  0
    2.5556    4.4510   -0.2173 H   0  0  0  0  0  0  0  0  0  0  0  0
    5.6663    2.8643    0.5603 H   0  0  0  0  0  0  0  0  0  0  0  0
    6.5718    4.3744    0.3339 H   0  0  0  0  0  0  0  0  0  0  0  0
    6.7918    2.9964   -0.8665 H   0  0  0  0  0  0  0  0  0  0  0  0
    4.6768    1.4843   -1.1331 H   0  0  0  0  0  0  0  0  0  0  0  0
   -0.0963   -1.9869    0.5580 H   0  0  0  0  0  0  0  0  0  0  0  0
   -0.1973   -4.3508    0.6422 H   0  0  0  0  0  0  0  0  0  0  0  0
    1.1684   -6.6313   -0.1090 H   0  0  0  0  0  0  0  0  0  0  0  0
    2.6807   -6.4432    0.8224 H   0  0  0  0  0  0  0  0  0  0  0  0
    3.9385   -4.4844   -0.0650 H   0  0  0  0  0  0  0  0  0  0  0  0
    4.0528   -2.1222   -0.1247 H   0  0  0  0  0  0  0  0  0  0  0  0
   -3.3547   -1.8701   -0.5046 H   0  0  0  0  0  0  0  0  0  0  0  0
   -4.1756   -2.2113    1.5700 H   0  0  0  0  0  0  0  0  0  0  0  0
   -4.5395   -0.4528    1.7285 H   0  0  0  0  0  0  0  0  0  0  0  0
   -5.7573   -1.5467    0.9267 H   0  0  0  0  0  0  0  0  0  0  0  0
   -5.2919   -0.0322   -1.7937 H   0  0  0  0  0  0  0  0  0  0  0  0
   -4.7631   -1.6537   -2.2506 H   0  0  0  0  0  0  0  0  0  0  0  0
   -6.0668   -1.4842   -0.9896 H   0  0  0  0  0  0  0  0  0  0  0  0
  1  2  1  0
  2  3  1  0
  3  4  2  0
  3  5  1  0
  5  6  1  0
  6  7  1  0
  7  8  2  0
  7  9  1  0
  9 10  1  0
 10 11  1  0
 11 12  1  0
 11 13  2  0
 11 14  2  0
  9 15  2  0
 15 16  1  0
 16 17  2  0
 17 18  1  0
 18 19  2  0
 19 20  1  0
 20 21  2  0
 21 22  1  0
 21 23  1  0
 23 24  2  0
  1 25  1  0
 25 26  1  0
 25 27  1  0
  1 28  1  0
 28 29  2  0
 28 30  1  0
 30 31  1  0
 30 32  1  0
 30 33  1  0
 17  6  1  0
 24 18  1  0
  1 34  1  6
  2 35  1  0
  5 36  1  0
  5 37  1  0
 10 38  1  0
 12 39  1  0
 12 40  1  0
 12 41  1  0
 15 42  1  0
 19 43  1  0
 20 44  1  0
 22 45  1  0
 22 46  1  0
 23 47  1  0
 24 48  1  0
 25 49  1  0
 26 50  1  0
 26 51  1  0
 26 52  1  0
 27 53  1  0
 27 54  1  0
 27 55  1  0
M  END
$$$$
