
     RDKit          3D

 40 40  0  0  0  0  0  0  0  0999 V2000
    5.4194   -1.9422    0.0650 C   0  0  0  0  0  0  0  0  0  0  0  0
    4.5086   -1.6652   -1.0860 C   0  0  0  0  0  0  0  0  0  0  0  0
    3.8316   -0.3954   -0.9945 N   0  0  0  0  0  0  0  0  0  0  0  0
    4.4552    0.7693   -1.5699 C   0  0  0  0  0  0  0  0  0  0  0  0
    2.5764   -0.3359   -0.3421 C   0  0  0  0  0  0  0  0  0  0  0  0
    2.0167   -1.3412    0.1658 O   0  0  0  0  0  0  0  0  0  0  0  0
    1.8646    0.8711   -0.2191 O   0  0  0  0  0  0  0  0  0  0  0  0
    0.6413    0.9404    0.4143 C   0  0  0  0  0  0  0  0  0  0  0  0
    0.5182    1.1885    1.7574 C   0  0  0  0  0  0  0  0  0  0  0  0
   -0.7103    1.2587    2.3965 C   0  0  0  0  0  0  0  0  0  0  0  0
   -1.8283    1.0687    1.6321 C   0  0  0  0  0  0  0  0  0  0  0  0
   -1.7371    0.8212    0.2997 C   0  0  0  0  0  0  0  0  0  0  0  0
   -2.9674    0.6223   -0.4879 C   0  0  2  0  0  0  0  0  0  0  0  0
   -3.6643    1.9478   -0.7237 C   0  0  0  0  0  0  0  0  0  0  0  0
   -3.8368   -0.2685    0.2629 N   0  0  0  0  0  0  0  0  0  0  0  0
   -3.1497   -1.5253    0.4747 C   0  0  0  0  0  0  0  0  0  0  0  0
   -5.0460   -0.4314   -0.5070 C   0  0  0  0  0  0  0  0  0  0  0  0
   -0.4980    0.7535   -0.3288 C   0  0  0  0  0  0  0  0  0  0  0  0
    6.4690   -1.6390   -0.1885 H   0  0  0  0  0  0  0  0  0  0  0  0
    5.1067   -1.4101    0.9767 H   0  0  0  0  0  0  0  0  0  0  0  0
    5.4332   -3.0380    0.2389 H   0  0  0  0  0  0  0  0  0  0  0  0
    5.0736   -1.7387   -2.0389 H   0  0  0  0  0  0  0  0  0  0  0  0
    3.7282   -2.4589   -1.1225 H   0  0  0  0  0  0  0  0  0  0  0  0
    5.1846    0.5434   -2.3469 H   0  0  0  0  0  0  0  0  0  0  0  0
    4.8407    1.4065   -0.7478 H   0  0  0  0  0  0  0  0  0  0  0  0
    3.6343    1.3822   -2.0458 H   0  0  0  0  0  0  0  0  0  0  0  0
    1.3968    1.3395    2.3671 H   0  0  0  0  0  0  0  0  0  0  0  0
   -0.7692    1.4543    3.4470 H   0  0  0  0  0  0  0  0  0  0  0  0
   -2.8033    1.1161    2.0956 H   0  0  0  0  0  0  0  0  0  0  0  0
   -2.7576    0.1614   -1.4667 H   0  0  0  0  0  0  0  0  0  0  0  0
   -4.7610    1.8720   -0.6309 H   0  0  0  0  0  0  0  0  0  0  0  0
   -3.3304    2.6821    0.0455 H   0  0  0  0  0  0  0  0  0  0  0  0
   -3.4161    2.3449   -1.7212 H   0  0  0  0  0  0  0  0  0  0  0  0
   -3.6355   -2.0384    1.3246 H   0  0  0  0  0  0  0  0  0  0  0  0
   -2.1110   -1.3063    0.7658 H   0  0  0  0  0  0  0  0  0  0  0  0
   -3.1289   -2.1588   -0.4354 H   0  0  0  0  0  0  0  0  0  0  0  0
   -4.9602    0.0161   -1.5279 H   0  0  0  0  0  0  0  0  0  0  0  0
   -5.2749   -1.5126   -0.6155 H   0  0  0  0  0  0  0  0  0  0  0  0
   -5.8693    0.0906    0.0173 H   0  0  0  0  0  0  0  0  0  0  0  0
   -0.4437    0.5553   -1.3918 H   0  0  0  0  0  0  0  0  0  0  0  0
  1  2  1  0
  2  3  1  0
  3  4  1  0
  3  5  1  0
  5  6  2  0
  5  7  1  0
  7  8  1  0
  8  9  2  0
  9 10  1  0
 10 11  2  0
 11 12  1  0
 12 13  1  0
 13 14  1  0
 13 15  1  0
 15 16  1  0
 15 17  1  0
 12 18  2  0
 18  8  1  0
  1 19  1  0
  1 20  1  0
  1 21  1  0
  2 22  1  0
  2 23  1  0
  4 24  1  0
  4 25  1  0
  4 26  1  0
  9 27  1  0
 10 28  1  0
 11 29  1  0
 13 30  1  6
 14 31  1  0
 14 32  1  0
 14 33  1  0
 16 34  1  0
 16 35  1  0
 16 36  1  0
 17 37  1  0
 17 38  1  0
 17 39  1  0
 18 40  1  0
M  END
$$$$
