
     RDKit          3D

 53 57  0  0  0  0  0  0  0  0999 V2000
    9.1010    0.3875    1.1939 C   0  0  0  0  0  0  0  0  0  0  0  0
    8.0187    1.2947    1.2840 O   0  0  0  0  0  0  0  0  0  0  0  0
    6.7951    0.9287    0.7358 C   0  0  0  0  0  0  0  0  0  0  0  0
    5.6858    1.7431    0.7780 C   0  0  0  0  0  0  0  0  0  0  0  0
    4.4970    1.3613    0.2342 N   0  0  0  0  0  0  0  0  0  0  0  0
    4.3513    0.1685   -0.3698 C   0  0  0  0  0  0  0  0  0  0  0  0
    3.1533   -0.2118   -0.9107 C   0  0  0  0  0  0  0  0  0  0  0  0
    2.0049    0.6156   -0.8619 N   0  0  0  0  0  0  0  0  0  0  0  0
    0.7605    0.0845   -0.3923 C   0  0  0  0  0  0  0  0  0  0  0  0
    0.7331   -1.1520    0.2127 C   0  0  0  0  0  0  0  0  0  0  0  0
   -0.4399   -1.7160    0.6702 C   0  0  0  0  0  0  0  0  0  0  0  0
   -1.6185   -0.9873    0.4996 C   0  0  0  0  0  0  0  0  0  0  0  0
   -2.7507   -1.5211    0.9373 F   0  0  0  0  0  0  0  0  0  0  0  0
   -1.6296    0.2419   -0.0956 C   0  0  0  0  0  0  0  0  0  0  0  0
   -2.9213    0.9592   -0.2605 C   0  0  1  0  0  0  0  0  0  0  0  0
   -2.5591    2.1795   -1.1507 C   0  0  0  0  0  0  0  0  0  0  0  0
   -3.8441    0.2543   -1.0532 N   0  0  0  0  0  0  0  0  0  0  0  0
   -4.9380   -0.2900   -0.8966 C   0  0  0  0  0  0  0  0  0  0  0  0
   -5.5790   -0.9264   -1.9951 N   0  0  0  0  0  0  0  0  0  0  0  0
   -5.5971   -0.2947    0.4087 C   0  0  0  0  0  0  0  0  0  0  0  0
   -6.0038   -1.6428    0.9298 C   0  0  0  0  0  0  0  0  0  0  0  0
   -7.0022   -0.6210    0.5187 C   0  0  0  0  0  0  0  0  0  0  0  0
   -4.9585    0.9132    1.5182 S   0  0  0  0  0  6  0  0  0  0  0  0
   -6.0311    1.9913    1.6336 O   0  0  0  0  0  0  0  0  0  0  0  0
   -4.8643    0.3272    2.9229 O   0  0  0  0  0  0  0  0  0  0  0  0
   -3.4072    1.5749    1.0075 C   0  0  1  0  0  0  0  0  0  0  0  0
   -2.4557    1.4963    2.0227 F   0  0  0  0  0  0  0  0  0  0  0  0
   -0.4291    0.7581   -0.5334 C   0  0  0  0  0  0  0  0  0  0  0  0
    3.0649   -1.4327   -1.5075 N   0  0  0  0  0  0  0  0  0  0  0  0
    4.1107   -2.2617   -1.5767 C   0  0  0  0  0  0  0  0  0  0  0  0
    5.3153   -1.8797   -1.0320 C   0  0  0  0  0  0  0  0  0  0  0  0
    5.4750   -0.6503   -0.4103 C   0  0  0  0  0  0  0  0  0  0  0  0
    6.6479   -0.2743    0.1251 N   0  0  0  0  0  0  0  0  0  0  0  0
    9.8130    0.5430    2.0219 H   0  0  0  0  0  0  0  0  0  0  0  0
    8.6342   -0.6406    1.2565 H   0  0  0  0  0  0  0  0  0  0  0  0
    9.6062    0.3953    0.2081 H   0  0  0  0  0  0  0  0  0  0  0  0
    5.7958    2.7201    1.2698 H   0  0  0  0  0  0  0  0  0  0  0  0
    2.1064    1.6041   -1.1773 H   0  0  0  0  0  0  0  0  0  0  0  0
    1.6756   -1.6938    0.3358 H   0  0  0  0  0  0  0  0  0  0  0  0
   -0.4393   -2.6961    1.1492 H   0  0  0  0  0  0  0  0  0  0  0  0
   -2.1372    1.8778   -2.1046 H   0  0  0  0  0  0  0  0  0  0  0  0
   -1.9614    2.9144   -0.5658 H   0  0  0  0  0  0  0  0  0  0  0  0
   -3.5605    2.6626   -1.3639 H   0  0  0  0  0  0  0  0  0  0  0  0
   -5.4125   -1.9139   -2.1985 H   0  0  0  0  0  0  0  0  0  0  0  0
   -6.2188   -0.3651   -2.5839 H   0  0  0  0  0  0  0  0  0  0  0  0
   -5.7335   -1.8115    1.9905 H   0  0  0  0  0  0  0  0  0  0  0  0
   -5.7939   -2.5405    0.2962 H   0  0  0  0  0  0  0  0  0  0  0  0
   -7.6423   -0.2468    1.3672 H   0  0  0  0  0  0  0  0  0  0  0  0
   -7.5698   -0.8998   -0.4164 H   0  0  0  0  0  0  0  0  0  0  0  0
   -3.5721    2.6909    0.9199 H   0  0  0  0  0  0  0  0  0  0  0  0
   -0.4056    1.7257   -1.0125 H   0  0  0  0  0  0  0  0  0  0  0  0
    3.9541   -3.2104   -2.0661 H   0  0  0  0  0  0  0  0  0  0  0  0
    6.1763   -2.5333   -1.0741 H   0  0  0  0  0  0  0  0  0  0  0  0
  1  2  1  0
  2  3  1  0
  3  4  2  0
  4  5  1  0
  5  6  2  0
  6  7  1  0
  7  8  1  0
  8  9  1  0
  9 10  2  0
 10 11  1  0
 11 12  2  0
 12 13  1  0
 12 14  1  0
 14 15  1  0
 15 16  1  6
 15 17  1  0
 17 18  2  0
 18 19  1  0
 18 20  1  0
 20 21  1  0
 21 22  1  0
 20 23  1  0
 23 24  2  0
 23 25  2  0
 23 26  1  0
 26 27  1  0
 14 28  2  0
  7 29  2  0
 29 30  1  0
 30 31  2  0
 31 32  1  0
 32 33  2  0
 33  3  1  0
 32  6  1  0
 28  9  1  0
 26 15  1  0
 22 20  1  0
  1 34  1  0
  1 35  1  0
  1 36  1  0
  4 37  1  0
  8 38  1  0
 10 39  1  0
 11 40  1  0
 16 41  1  0
 16 42  1  0
 16 43  1  0
 19 44  1  0
 19 45  1  0
 21 46  1  0
 21 47  1  0
 22 48  1  0
 22 49  1  0
 26 50  1  6
 28 51  1  0
 30 52  1  0
 31 53  1  0
M  END
$$$$
