
     RDKit          3D

 40 43  0  0  0  0  0  0  0  0999 V2000
   -7.3731    0.9797   -0.3165 C   0  0  0  0  0  0  0  0  0  0  0  0
   -6.1118    0.1323   -0.3885 C   0  0  0  0  0  0  0  0  0  0  0  0
   -6.1257   -1.0296   -1.2373 N   0  0  0  0  0  0  0  0  0  0  0  0
   -4.4110   -1.6784   -0.9751 S   0  0  0  0  0  0  0  0  0  0  0  0
   -3.9753   -0.3655    0.1633 C   0  0  0  0  0  0  0  0  0  0  0  0
   -2.6294   -0.3033    0.7782 C   0  0  0  0  0  0  0  0  0  0  0  0
   -2.3927   -0.1500    2.0564 N   0  0  0  0  0  0  0  0  0  0  0  0
   -1.0773   -0.1382    2.2555 N   0  0  0  0  0  0  0  0  0  0  0  0
   -0.4690   -0.2911    1.0479 C   0  0  0  0  0  0  0  0  0  0  0  0
   -1.4486   -0.3908    0.1516 N   0  0  0  0  0  0  0  0  0  0  0  0
   -1.1475   -0.5633   -1.2504 C   0  0  0  0  0  0  0  0  0  0  0  0
    0.1838   -1.2603   -1.4592 C   0  0  0  0  0  0  0  0  0  0  0  0
    1.2164   -0.6299   -0.6573 N   0  0  0  0  0  0  0  0  0  0  0  0
    2.4429   -0.2982   -1.2632 C   0  0  0  0  0  0  0  0  0  0  0  0
    2.6439   -0.5592   -2.4993 O   0  0  0  0  0  0  0  0  0  0  0  0
    3.5394    0.3468   -0.5521 C   0  0  0  0  0  0  0  0  0  0  0  0
    4.6188   -0.3028   -0.0064 C   0  0  0  0  0  0  0  0  0  0  0  0
    5.6317    0.3668    0.6519 C   0  0  0  0  0  0  0  0  0  0  0  0
    5.5733    1.7351    0.7749 C   0  0  0  0  0  0  0  0  0  0  0  0
    4.5114    2.4342    0.2454 C   0  0  0  0  0  0  0  0  0  0  0  0
    4.4258    4.1884    0.3994 Cl  0  0  0  0  0  0  0  0  0  0  0  0
    3.5093    1.7298   -0.4111 C   0  0  0  0  0  0  0  0  0  0  0  0
    0.9854   -0.3443    0.7344 C   0  0  2  0  0  0  0  0  0  0  0  0
    1.5747   -1.4878    1.5657 C   0  0  0  0  0  0  0  0  0  0  0  0
   -4.9976    0.2977    0.2073 N   0  0  0  0  0  0  0  0  0  0  0  0
   -7.8857    0.9414   -1.2773 H   0  0  0  0  0  0  0  0  0  0  0  0
   -6.9999    2.0140   -0.0686 H   0  0  0  0  0  0  0  0  0  0  0  0
   -7.9346    0.6203    0.5504 H   0  0  0  0  0  0  0  0  0  0  0  0
   -1.1789    0.4225   -1.7743 H   0  0  0  0  0  0  0  0  0  0  0  0
   -1.9254   -1.1997   -1.7148 H   0  0  0  0  0  0  0  0  0  0  0  0
    0.4479   -1.2000   -2.5214 H   0  0  0  0  0  0  0  0  0  0  0  0
    0.0646   -2.2974   -1.0914 H   0  0  0  0  0  0  0  0  0  0  0  0
    4.6614   -1.3791   -0.1051 H   0  0  0  0  0  0  0  0  0  0  0  0
    6.4699   -0.1521    1.0746 H   0  0  0  0  0  0  0  0  0  0  0  0
    6.3809    2.2478    1.2990 H   0  0  0  0  0  0  0  0  0  0  0  0
    2.6784    2.2732   -0.8251 H   0  0  0  0  0  0  0  0  0  0  0  0
    1.4252    0.5893    1.0857 H   0  0  0  0  0  0  0  0  0  0  0  0
    0.8342   -1.8241    2.3253 H   0  0  0  0  0  0  0  0  0  0  0  0
    2.5075   -1.1302    2.0510 H   0  0  0  0  0  0  0  0  0  0  0  0
    1.7565   -2.3441    0.8958 H   0  0  0  0  0  0  0  0  0  0  0  0
  1  2  1  0
  2  3  2  0
  3  4  1  0
  4  5  1  0
  5  6  1  0
  6  7  2  0
  7  8  1  0
  8  9  2  0
  9 10  1  0
 10 11  1  0
 11 12  1  0
 12 13  1  0
 13 14  1  0
 14 15  2  0
 14 16  1  0
 16 17  2  0
 17 18  1  0
 18 19  2  0
 19 20  1  0
 20 21  1  0
 20 22  2  0
 13 23  1  0
 23 24  1  0
  5 25  2  0
 25  2  1  0
 10  6  1  0
 22 16  1  0
 23  9  1  0
  1 26  1  0
  1 27  1  0
  1 28  1  0
 11 29  1  0
 11 30  1  0
 12 31  1  0
 12 32  1  0
 17 33  1  0
 18 34  1  0
 19 35  1  0
 22 36  1  0
 23 37  1  1
 24 38  1  0
 24 39  1  0
 24 40  1  0
M  END
$$$$
