
     RDKit          3D

 60 63  0  0  0  0  0  0  0  0999 V2000
   -7.0524   -2.6185   -0.2670 C   0  0  0  0  0  0  0  0  0  0  0  0
   -6.7789   -1.2798   -0.6402 O   0  0  0  0  0  0  0  0  0  0  0  0
   -5.6623   -0.6027   -0.1342 C   0  0  0  0  0  0  0  0  0  0  0  0
   -4.8205   -1.2471    0.7368 C   0  0  0  0  0  0  0  0  0  0  0  0
   -3.6965   -0.5808    1.2527 C   0  0  0  0  0  0  0  0  0  0  0  0
   -3.4683    0.7128    0.8665 C   0  0  0  0  0  0  0  0  0  0  0  0
   -4.3568    1.3317   -0.0269 C   0  0  0  0  0  0  0  0  0  0  0  0
   -5.4601    0.6965   -0.5413 C   0  0  0  0  0  0  0  0  0  0  0  0
   -6.3598    1.2658   -1.4217 O   0  0  0  0  0  0  0  0  0  0  0  0
   -6.2868    2.5641   -1.9203 C   0  0  0  0  0  0  0  0  0  0  0  0
   -2.2597    1.1875    1.5262 C   0  0  0  0  0  0  0  0  0  0  0  0
   -1.7769    2.3533    1.3176 O   0  0  0  0  0  0  0  0  0  0  0  0
   -1.7630    0.1336    2.4059 C   0  0  0  0  0  0  0  0  0  0  0  0
   -0.3136   -0.1836    2.2909 C   0  0  0  0  0  0  0  0  0  0  0  0
    0.2229   -0.6742    1.0165 C   0  0  0  0  0  0  0  0  0  0  0  0
    0.0472    0.3067   -0.0976 C   0  0  0  0  0  0  0  0  0  0  0  0
    0.9328   -0.2044   -1.2484 C   0  0  0  0  0  0  0  0  0  0  0  0
    2.2841    0.2280   -0.9120 N   0  0  0  0  0  0  0  0  0  0  0  0
    3.2643   -0.3049   -1.7852 C   0  0  0  0  0  0  0  0  0  0  0  0
    4.6129    0.1694   -1.4219 C   0  0  0  0  0  0  0  0  0  0  0  0
    5.0073    1.4098   -1.9369 C   0  0  0  0  0  0  0  0  0  0  0  0
    6.2527    1.9377   -1.6785 C   0  0  0  0  0  0  0  0  0  0  0  0
    7.1455    1.2424   -0.8963 C   0  0  0  0  0  0  0  0  0  0  0  0
    6.7837    0.0229   -0.3786 C   0  0  0  0  0  0  0  0  0  0  0  0
    7.6946   -0.7867    0.4752 C   0  0  0  0  0  0  0  0  0  0  0  0
    5.5230   -0.4868   -0.6540 C   0  0  0  0  0  0  0  0  0  0  0  0
    2.5319    0.1893    0.4809 C   0  0  0  0  0  0  0  0  0  0  0  0
    1.7351   -0.8881    1.1950 C   0  0  0  0  0  0  0  0  0  0  0  0
   -2.6490   -1.0356    2.1871 C   0  0  0  0  0  0  0  0  0  0  0  0
   -6.9665   -2.6678    0.8489 H   0  0  0  0  0  0  0  0  0  0  0  0
   -8.0897   -2.8835   -0.5148 H   0  0  0  0  0  0  0  0  0  0  0  0
   -6.3095   -3.2749   -0.7413 H   0  0  0  0  0  0  0  0  0  0  0  0
   -4.9765   -2.2744    1.0615 H   0  0  0  0  0  0  0  0  0  0  0  0
   -4.1666    2.3490   -0.3231 H   0  0  0  0  0  0  0  0  0  0  0  0
   -5.9019    3.2248   -1.0966 H   0  0  0  0  0  0  0  0  0  0  0  0
   -5.5763    2.6976   -2.7578 H   0  0  0  0  0  0  0  0  0  0  0  0
   -7.3118    2.9312   -2.1553 H   0  0  0  0  0  0  0  0  0  0  0  0
   -1.9948    0.4857    3.4728 H   0  0  0  0  0  0  0  0  0  0  0  0
   -0.0916   -0.9338    3.1133 H   0  0  0  0  0  0  0  0  0  0  0  0
    0.2510    0.7318    2.6543 H   0  0  0  0  0  0  0  0  0  0  0  0
   -0.1502   -1.6956    0.7372 H   0  0  0  0  0  0  0  0  0  0  0  0
    0.4506    1.2876    0.2649 H   0  0  0  0  0  0  0  0  0  0  0  0
   -0.9674    0.4708   -0.4479 H   0  0  0  0  0  0  0  0  0  0  0  0
    0.9145   -1.2989   -1.2442 H   0  0  0  0  0  0  0  0  0  0  0  0
    0.5626    0.2052   -2.1877 H   0  0  0  0  0  0  0  0  0  0  0  0
    3.2164   -1.4328   -1.7460 H   0  0  0  0  0  0  0  0  0  0  0  0
    3.0379   -0.0412   -2.8636 H   0  0  0  0  0  0  0  0  0  0  0  0
    4.3228    1.9606   -2.5465 H   0  0  0  0  0  0  0  0  0  0  0  0
    6.5007    2.9053   -2.1068 H   0  0  0  0  0  0  0  0  0  0  0  0
    8.1147    1.6319   -0.6832 H   0  0  0  0  0  0  0  0  0  0  0  0
    7.6839   -1.8526    0.1848 H   0  0  0  0  0  0  0  0  0  0  0  0
    7.4086   -0.6546    1.5293 H   0  0  0  0  0  0  0  0  0  0  0  0
    8.7392   -0.4326    0.3578 H   0  0  0  0  0  0  0  0  0  0  0  0
    5.2315   -1.4645   -0.2456 H   0  0  0  0  0  0  0  0  0  0  0  0
    3.5871   -0.0268    0.6847 H   0  0  0  0  0  0  0  0  0  0  0  0
    2.3483    1.1905    0.9717 H   0  0  0  0  0  0  0  0  0  0  0  0
    2.0740   -1.8605    0.8272 H   0  0  0  0  0  0  0  0  0  0  0  0
    2.0180   -0.8258    2.2640 H   0  0  0  0  0  0  0  0  0  0  0  0
   -3.1484   -1.4069    3.1054 H   0  0  0  0  0  0  0  0  0  0  0  0
   -2.1439   -1.9030    1.7117 H   0  0  0  0  0  0  0  0  0  0  0  0
  1  2  1  0
  2  3  1  0
  3  4  2  0
  4  5  1  0
  5  6  2  0
  6  7  1  0
  7  8  2  0
  8  9  1  0
  9 10  1  0
  6 11  1  0
 11 12  2  0
 11 13  1  0
 13 14  1  0
 14 15  1  0
 15 16  1  0
 16 17  1  0
 17 18  1  0
 18 19  1  0
 19 20  1  0
 20 21  2  0
 21 22  1  0
 22 23  2  0
 23 24  1  0
 24 25  1  0
 24 26  2  0
 18 27  1  0
 27 28  1  0
 13 29  1  0
  8  3  1  0
 28 15  1  0
 29  5  1  0
 26 20  1  0
  1 30  1  0
  1 31  1  0
  1 32  1  0
  4 33  1  0
  7 34  1  0
 10 35  1  0
 10 36  1  0
 10 37  1  0
 13 38  1  0
 14 39  1  0
 14 40  1  0
 15 41  1  0
 16 42  1  0
 16 43  1  0
 17 44  1  0
 17 45  1  0
 19 46  1  0
 19 47  1  0
 21 48  1  0
 22 49  1  0
 23 50  1  0
 25 51  1  0
 25 52  1  0
 25 53  1  0
 26 54  1  0
 27 55  1  0
 27 56  1  0
 28 57  1  0
 28 58  1  0
 29 59  1  0
 29 60  1  0
M  END
$$$$
