
     RDKit          3D

 45 46  0  0  0  0  0  0  0  0999 V2000
   -1.4864   -2.3087   -1.1964 C   0  0  0  0  0  0  0  0  0  0  0  0
   -1.4870   -1.1729   -0.3340 N   0  0  0  0  0  0  0  0  0  0  0  0
   -2.7754   -0.7021    0.0570 C   0  0  0  0  0  0  0  0  0  0  0  0
   -2.8935    0.8045    0.0367 C   0  0  0  0  0  0  0  0  0  0  0  0
   -4.2694    1.1699    0.4597 C   0  0  0  0  0  0  0  0  0  0  0  0
   -5.3270    1.3140   -0.4305 C   0  0  0  0  0  0  0  0  0  0  0  0
   -6.5873    1.6516   -0.0185 C   0  0  0  0  0  0  0  0  0  0  0  0
   -6.8592    1.8645    1.3144 C   0  0  0  0  0  0  0  0  0  0  0  0
   -5.8331    1.7293    2.2194 C   0  0  0  0  0  0  0  0  0  0  0  0
   -4.5746    1.3898    1.7862 C   0  0  0  0  0  0  0  0  0  0  0  0
   -0.4221   -1.3280    1.0103 S   0  0  0  0  0  6  0  0  0  0  0  0
   -0.6007   -0.1529    1.9151 O   0  0  0  0  0  0  0  0  0  0  0  0
   -0.8013   -2.5635    1.8087 O   0  0  0  0  0  0  0  0  0  0  0  0
    1.2341   -1.5057    0.5238 C   0  0  0  0  0  0  0  0  0  0  0  0
    1.7359   -2.7648    0.3067 C   0  0  0  0  0  0  0  0  0  0  0  0
    3.0528   -2.8904   -0.0791 C   0  0  0  0  0  0  0  0  0  0  0  0
    3.8717   -1.7943   -0.2512 C   0  0  0  0  0  0  0  0  0  0  0  0
    3.3829   -0.5302   -0.0376 C   0  0  0  0  0  0  0  0  0  0  0  0
    4.1967    0.6876   -0.2010 C   0  0  0  0  0  0  0  0  0  0  0  0
    5.4626    0.6875   -0.5649 C   0  0  0  0  0  0  0  0  0  0  0  0
    6.2268    1.9295   -0.7127 C   0  0  0  0  0  0  0  0  0  0  0  0
    5.7511    3.0544   -0.5109 O   0  0  0  0  0  0  0  0  0  0  0  0
    7.5855    1.8354   -1.1086 N   0  0  0  0  0  0  0  0  0  0  0  0
    8.3812    2.9190   -1.2745 O   0  0  0  0  0  0  0  0  0  0  0  0
    2.0513   -0.4190    0.3517 C   0  0  0  0  0  0  0  0  0  0  0  0
   -1.0074   -3.1626   -0.6342 H   0  0  0  0  0  0  0  0  0  0  0  0
   -0.9890   -2.1192   -2.1528 H   0  0  0  0  0  0  0  0  0  0  0  0
   -2.5168   -2.6469   -1.4080 H   0  0  0  0  0  0  0  0  0  0  0  0
   -3.0886   -1.0943    1.0667 H   0  0  0  0  0  0  0  0  0  0  0  0
   -3.5294   -1.1000   -0.6528 H   0  0  0  0  0  0  0  0  0  0  0  0
   -2.1984    1.2919    0.7477 H   0  0  0  0  0  0  0  0  0  0  0  0
   -2.7594    1.1391   -1.0044 H   0  0  0  0  0  0  0  0  0  0  0  0
   -5.1305    1.1510   -1.4750 H   0  0  0  0  0  0  0  0  0  0  0  0
   -7.4152    1.7656   -0.7048 H   0  0  0  0  0  0  0  0  0  0  0  0
   -7.8727    2.1330    1.6210 H   0  0  0  0  0  0  0  0  0  0  0  0
   -6.0214    1.8909    3.2683 H   0  0  0  0  0  0  0  0  0  0  0  0
   -3.7480    1.2779    2.4883 H   0  0  0  0  0  0  0  0  0  0  0  0
    1.1216   -3.6660    0.4313 H   0  0  0  0  0  0  0  0  0  0  0  0
    3.4711   -3.8972   -0.2577 H   0  0  0  0  0  0  0  0  0  0  0  0
    4.9149   -1.9369   -0.5594 H   0  0  0  0  0  0  0  0  0  0  0  0
    3.7658    1.6700   -0.0202 H   0  0  0  0  0  0  0  0  0  0  0  0
    5.9539   -0.2508   -0.7603 H   0  0  0  0  0  0  0  0  0  0  0  0
    8.0314    0.8915   -1.2914 H   0  0  0  0  0  0  0  0  0  0  0  0
    8.3290    3.1607   -2.2342 H   0  0  0  0  0  0  0  0  0  0  0  0
    1.6736    0.5979    0.5192 H   0  0  0  0  0  0  0  0  0  0  0  0
  1  2  1  0
  2  3  1  0
  3  4  1  0
  4  5  1  0
  5  6  2  0
  6  7  1  0
  7  8  2  0
  8  9  1  0
  9 10  2  0
  2 11  1  0
 11 12  2  0
 11 13  2  0
 11 14  1  0
 14 15  2  0
 15 16  1  0
 16 17  2  0
 17 18  1  0
 18 19  1  0
 19 20  2  0
 20 21  1  0
 21 22  2  0
 21 23  1  0
 23 24  1  0
 18 25  2  0
 10  5  1  0
 25 14  1  0
  1 26  1  0
  1 27  1  0
  1 28  1  0
  3 29  1  0
  3 30  1  0
  4 31  1  0
  4 32  1  0
  6 33  1  0
  7 34  1  0
  8 35  1  0
  9 36  1  0
 10 37  1  0
 15 38  1  0
 16 39  1  0
 17 40  1  0
 19 41  1  0
 20 42  1  0
 23 43  1  0
 24 44  1  0
 25 45  1  0
M  END
$$$$
