
     RDKit          3D

 43 47  0  0  0  0  0  0  0  0999 V2000
    7.9864   -0.4726    0.6038 C   0  0  0  0  0  0  0  0  0  0  0  0
    7.0007   -0.5931    1.6090 O   0  0  0  0  0  0  0  0  0  0  0  0
    5.6737   -0.4164    1.2330 C   0  0  0  0  0  0  0  0  0  0  0  0
    5.3188   -0.1330   -0.0718 C   0  0  0  0  0  0  0  0  0  0  0  0
    4.0145    0.0471   -0.4751 C   0  0  0  0  0  0  0  0  0  0  0  0
    3.0233   -0.0600    0.4640 C   0  0  0  0  0  0  0  0  0  0  0  0
    1.5993    0.1192    0.1085 C   0  0  0  0  0  0  0  0  0  0  0  0
    0.7003    0.6345    1.0160 C   0  0  0  0  0  0  0  0  0  0  0  0
   -0.5967    0.7757    0.6304 N   0  0  0  0  0  0  0  0  0  0  0  0
   -1.0169    0.4281   -0.6015 C   0  0  0  0  0  0  0  0  0  0  0  0
   -2.2612    0.4860   -1.1897 C   0  0  0  0  0  0  0  0  0  0  0  0
   -3.4982    0.9648   -0.5891 C   0  0  0  0  0  0  0  0  0  0  0  0
   -3.8907    2.2939   -0.6708 C   0  0  0  0  0  0  0  0  0  0  0  0
   -5.0730    2.7413   -0.0947 C   0  0  0  0  0  0  0  0  0  0  0  0
   -5.8451    1.8419    0.5569 N   0  0  0  0  0  0  0  0  0  0  0  0
   -5.5256    0.5505    0.6719 C   0  0  0  0  0  0  0  0  0  0  0  0
   -6.3476   -0.3290    1.3476 C   0  0  0  0  0  0  0  0  0  0  0  0
   -6.0198   -1.6719    1.4697 C   0  0  0  0  0  0  0  0  0  0  0  0
   -4.8468   -2.1184    0.8987 C   0  0  0  0  0  0  0  0  0  0  0  0
   -4.0350   -1.2301    0.2267 C   0  0  0  0  0  0  0  0  0  0  0  0
   -4.3457    0.1136    0.0947 C   0  0  0  0  0  0  0  0  0  0  0  0
   -2.0752   -0.0064   -2.4634 C   0  0  0  0  0  0  0  0  0  0  0  0
   -0.7894   -0.3498   -2.6533 N   0  0  0  0  0  0  0  0  0  0  0  0
   -0.1690   -0.0781   -1.5143 N   0  0  0  0  0  0  0  0  0  0  0  0
    1.1360   -0.2247   -1.1390 C   0  0  0  0  0  0  0  0  0  0  0  0
    3.3757   -0.3427    1.7669 C   0  0  0  0  0  0  0  0  0  0  0  0
    4.6698   -0.5279    2.1993 C   0  0  0  0  0  0  0  0  0  0  0  0
    7.7314   -1.2384   -0.1735 H   0  0  0  0  0  0  0  0  0  0  0  0
    7.8651    0.5190    0.1314 H   0  0  0  0  0  0  0  0  0  0  0  0
    9.0058   -0.6458    0.9850 H   0  0  0  0  0  0  0  0  0  0  0  0
    6.1355   -0.0527   -0.8035 H   0  0  0  0  0  0  0  0  0  0  0  0
    3.7960    0.2670   -1.5095 H   0  0  0  0  0  0  0  0  0  0  0  0
    1.0530    0.9067    1.9954 H   0  0  0  0  0  0  0  0  0  0  0  0
   -3.2541    2.9831   -1.1959 H   0  0  0  0  0  0  0  0  0  0  0  0
   -5.3751    3.7851   -0.1627 H   0  0  0  0  0  0  0  0  0  0  0  0
   -7.2791   -0.0109    1.8093 H   0  0  0  0  0  0  0  0  0  0  0  0
   -6.6796   -2.3644    2.0089 H   0  0  0  0  0  0  0  0  0  0  0  0
   -4.5488   -3.1583    0.9676 H   0  0  0  0  0  0  0  0  0  0  0  0
   -3.0909   -1.5416   -0.2438 H   0  0  0  0  0  0  0  0  0  0  0  0
   -2.9008   -0.0848   -3.1829 H   0  0  0  0  0  0  0  0  0  0  0  0
    1.8609   -0.6274   -1.8345 H   0  0  0  0  0  0  0  0  0  0  0  0
    2.5914   -0.4295    2.5202 H   0  0  0  0  0  0  0  0  0  0  0  0
    4.9265   -0.7501    3.2318 H   0  0  0  0  0  0  0  0  0  0  0  0
  1  2  1  0
  2  3  1  0
  3  4  2  0
  4  5  1  0
  5  6  2  0
  6  7  1  0
  7  8  1  0
  8  9  2  0
  9 10  1  0
 10 11  2  0
 11 12  1  0
 12 13  2  0
 13 14  1  0
 14 15  2  0
 15 16  1  0
 16 17  2  0
 17 18  1  0
 18 19  2  0
 19 20  1  0
 20 21  2  0
 11 22  1  0
 22 23  2  0
 23 24  1  0
 24 25  1  0
  6 26  1  0
 26 27  2  0
 27  3  1  0
 25  7  2  0
 24 10  1  0
 21 12  1  0
 21 16  1  0
  1 28  1  0
  1 29  1  0
  1 30  1  0
  4 31  1  0
  5 32  1  0
  8 33  1  0
 13 34  1  0
 14 35  1  0
 17 36  1  0
 18 37  1  0
 19 38  1  0
 20 39  1  0
 22 40  1  0
 25 41  1  0
 26 42  1  0
 27 43  1  0
M  END
$$$$
