
     RDKit          3D

 23 24  0  0  0  0  0  0  0  0999 V2000
    4.4661   -1.5053    0.0770 N   0  0  0  0  0  0  0  0  0  0  0  0
    3.1524   -0.9404    0.0370 C   0  0  0  0  0  0  0  0  0  0  0  0
    2.8125    0.3538    0.0175 N   0  0  0  0  0  0  0  0  0  0  0  0
    1.5188    0.7019   -0.0201 C   0  0  0  0  0  0  0  0  0  0  0  0
    1.2387    2.0678   -0.0387 N   0  0  0  0  0  0  0  0  0  0  0  0
    0.4823   -0.1812   -0.0409 C   0  0  0  0  0  0  0  0  0  0  0  0
    0.9174   -1.4583   -0.0189 N   0  0  0  0  0  0  0  0  0  0  0  0
    2.1621   -1.8457    0.0177 N   0  0  0  0  0  0  0  0  0  0  0  0
   -0.9105    0.0704   -0.0804 C   0  0  0  0  0  0  0  0  0  0  0  0
   -1.7746   -1.0229   -0.0949 C   0  0  0  0  0  0  0  0  0  0  0  0
   -1.1414   -2.6783   -0.0645 Cl  0  0  0  0  0  0  0  0  0  0  0  0
   -3.1469   -0.9250   -0.1326 C   0  0  0  0  0  0  0  0  0  0  0  0
   -4.1788   -2.3348   -0.1489 Cl  0  0  0  0  0  0  0  0  0  0  0  0
   -3.7583    0.3097   -0.1590 C   0  0  0  0  0  0  0  0  0  0  0  0
   -2.9566    1.4191   -0.1463 C   0  0  0  0  0  0  0  0  0  0  0  0
   -1.5978    1.2454   -0.1084 C   0  0  0  0  0  0  0  0  0  0  0  0
    4.7781   -2.2234   -0.6306 H   0  0  0  0  0  0  0  0  0  0  0  0
    4.8993   -1.0260    0.9074 H   0  0  0  0  0  0  0  0  0  0  0  0
    1.1271    2.6753    0.8274 H   0  0  0  0  0  0  0  0  0  0  0  0
    1.1658    2.3491   -1.0619 H   0  0  0  0  0  0  0  0  0  0  0  0
   -4.8166    0.3954   -0.1881 H   0  0  0  0  0  0  0  0  0  0  0  0
   -3.4135    2.3947   -0.1665 H   0  0  0  0  0  0  0  0  0  0  0  0
   -1.0255    2.1584   -0.1004 H   0  0  0  0  0  0  0  0  0  0  0  0
  1  2  1  0
  2  3  2  0
  3  4  1  0
  4  5  1  0
  4  6  2  0
  6  7  1  0
  7  8  2  0
  6  9  1  0
  9 10  2  0
 10 11  1  0
 10 12  1  0
 12 13  1  0
 12 14  2  0
 14 15  1  0
 15 16  2  0
  8  2  1  0
 16  9  1  0
  1 17  1  0
  1 18  1  0
  5 19  1  0
  5 20  1  0
 14 21  1  0
 15 22  1  0
 16 23  1  0
M  END
$$$$
