
     RDKit          3D

 67 71  0  0  0  0  0  0  0  0999 V2000
    5.5507    0.6184   -3.6647 C   0  0  0  0  0  0  0  0  0  0  0  0
    4.1254    0.3845   -3.3374 C   0  0  0  0  0  0  0  0  0  0  0  0
    3.1850    0.4996   -4.3482 C   0  0  0  0  0  0  0  0  0  0  0  0
    1.8514    0.2848   -4.0258 C   0  0  0  0  0  0  0  0  0  0  0  0
    1.4508   -0.0343   -2.7472 C   0  0  0  0  0  0  0  0  0  0  0  0
    0.0573   -0.2470   -2.4694 N   0  0  0  0  0  0  0  0  0  0  0  0
   -0.7566    0.8416   -2.0768 C   0  0  0  0  0  0  0  0  0  0  0  0
   -0.2054    1.9655   -1.9891 O   0  0  0  0  0  0  0  0  0  0  0  0
   -2.1742    0.7451   -1.7718 C   0  0  0  0  0  0  0  0  0  0  0  0
   -2.8919    1.8659   -1.3963 C   0  0  0  0  0  0  0  0  0  0  0  0
   -4.2371    1.8170   -1.0997 C   0  0  0  0  0  0  0  0  0  0  0  0
   -4.9261    0.6027   -1.1732 C   0  0  0  0  0  0  0  0  0  0  0  0
   -6.3596    0.5346   -0.8616 C   0  0  0  0  0  0  0  0  0  0  0  0
   -6.6761    0.2740    0.5011 N   0  0  0  0  0  0  0  0  0  0  0  0
   -6.1793   -0.9562    1.0284 C   0  0  0  0  0  0  0  0  0  0  0  0
   -6.9894   -1.3393    2.2463 C   0  0  0  0  0  0  0  0  0  0  0  0
   -7.8181   -0.2181    2.6426 N   0  0  0  0  0  0  0  0  0  0  0  0
   -8.6727   -0.4969    3.7518 C   0  0  0  0  0  0  0  0  0  0  0  0
   -7.0624    0.9919    2.7453 C   0  0  0  0  0  0  0  0  0  0  0  0
   -6.5551    1.3977    1.3720 C   0  0  0  0  0  0  0  0  0  0  0  0
   -4.2156   -0.5177   -1.5469 C   0  0  0  0  0  0  0  0  0  0  0  0
   -2.8588   -0.4337   -1.8394 C   0  0  0  0  0  0  0  0  0  0  0  0
    2.4128   -0.1405   -1.7676 C   0  0  0  0  0  0  0  0  0  0  0  0
    3.7716    0.0686   -2.0514 C   0  0  0  0  0  0  0  0  0  0  0  0
    4.7340   -0.0668   -0.9736 C   0  0  0  0  0  0  0  0  0  0  0  0
    4.5645    0.5269    0.2537 C   0  0  0  0  0  0  0  0  0  0  0  0
    5.4715    0.4008    1.3005 C   0  0  0  0  0  0  0  0  0  0  0  0
    6.5993   -0.3534    1.1115 C   0  0  0  0  0  0  0  0  0  0  0  0
    7.5689   -0.4926    2.2200 C   0  0  0  0  0  0  0  0  0  0  0  0
    7.3677    0.1220    3.4529 C   0  0  0  0  0  0  0  0  0  0  0  0
    8.8314   -0.3865    4.3820 S   0  0  0  0  0  0  0  0  0  0  0  0
    9.5083   -1.3807    2.9156 C   0  0  0  0  0  0  0  0  0  0  0  0
   10.7756   -2.0230    3.2154 N   0  0  0  0  0  0  0  0  0  0  0  0
    8.6890   -1.1921    2.1554 N   0  0  0  0  0  0  0  0  0  0  0  0
    6.7994   -0.9626   -0.1080 C   0  0  0  0  0  0  0  0  0  0  0  0
    5.8712   -0.8203   -1.1462 C   0  0  0  0  0  0  0  0  0  0  0  0
    6.1705    0.9380   -2.8258 H   0  0  0  0  0  0  0  0  0  0  0  0
    5.9970   -0.2643   -4.1943 H   0  0  0  0  0  0  0  0  0  0  0  0
    5.6400    1.4491   -4.4303 H   0  0  0  0  0  0  0  0  0  0  0  0
    3.5064    0.7501   -5.3486 H   0  0  0  0  0  0  0  0  0  0  0  0
    1.1306    0.3778   -4.8230 H   0  0  0  0  0  0  0  0  0  0  0  0
   -0.3724   -1.1998   -2.5523 H   0  0  0  0  0  0  0  0  0  0  0  0
   -2.3903    2.8050   -1.3324 H   0  0  0  0  0  0  0  0  0  0  0  0
   -4.8094    2.6862   -0.8052 H   0  0  0  0  0  0  0  0  0  0  0  0
   -6.8632   -0.1566   -1.5747 H   0  0  0  0  0  0  0  0  0  0  0  0
   -6.7978    1.5470   -1.1048 H   0  0  0  0  0  0  0  0  0  0  0  0
   -5.1171   -0.8823    1.3708 H   0  0  0  0  0  0  0  0  0  0  0  0
   -6.1974   -1.7330    0.2481 H   0  0  0  0  0  0  0  0  0  0  0  0
   -6.3591   -1.7008    3.0838 H   0  0  0  0  0  0  0  0  0  0  0  0
   -7.6928   -2.1544    1.9081 H   0  0  0  0  0  0  0  0  0  0  0  0
   -9.6378   -0.9039    3.3341 H   0  0  0  0  0  0  0  0  0  0  0  0
   -8.1824   -1.2226    4.4286 H   0  0  0  0  0  0  0  0  0  0  0  0
   -8.8656    0.4704    4.2868 H   0  0  0  0  0  0  0  0  0  0  0  0
   -7.7065    1.7742    3.2048 H   0  0  0  0  0  0  0  0  0  0  0  0
   -6.1949    0.7884    3.4388 H   0  0  0  0  0  0  0  0  0  0  0  0
   -5.5130    1.7537    1.5112 H   0  0  0  0  0  0  0  0  0  0  0  0
   -7.1894    2.2261    0.9867 H   0  0  0  0  0  0  0  0  0  0  0  0
   -4.7088   -1.4798   -1.6172 H   0  0  0  0  0  0  0  0  0  0  0  0
   -2.3475   -1.3327   -2.1258 H   0  0  0  0  0  0  0  0  0  0  0  0
    2.1576   -0.3857   -0.7584 H   0  0  0  0  0  0  0  0  0  0  0  0
    3.6853    1.1202    0.4143 H   0  0  0  0  0  0  0  0  0  0  0  0
    5.2998    0.8850    2.2512 H   0  0  0  0  0  0  0  0  0  0  0  0
    6.5521    0.7646    3.8327 H   0  0  0  0  0  0  0  0  0  0  0  0
   10.7768   -3.0138    3.4839 H   0  0  0  0  0  0  0  0  0  0  0  0
   11.6234   -1.4657    3.1485 H   0  0  0  0  0  0  0  0  0  0  0  0
    7.6922   -1.5665   -0.2747 H   0  0  0  0  0  0  0  0  0  0  0  0
    6.1065   -1.3336   -2.0652 H   0  0  0  0  0  0  0  0  0  0  0  0
  1  2  1  0
  2  3  2  0
  3  4  1  0
  4  5  2  0
  5  6  1  0
  6  7  1  0
  7  8  2  0
  7  9  1  0
  9 10  2  0
 10 11  1  0
 11 12  2  0
 12 13  1  0
 13 14  1  0
 14 15  1  0
 15 16  1  0
 16 17  1  0
 17 18  1  0
 17 19  1  0
 19 20  1  0
 12 21  1  0
 21 22  2  0
  5 23  1  0
 23 24  2  0
 24 25  1  0
 25 26  2  0
 26 27  1  0
 27 28  2  0
 28 29  1  0
 29 30  2  0
 30 31  1  0
 31 32  1  0
 32 33  1  0
 32 34  2  0
 28 35  1  0
 35 36  2  0
 24  2  1  0
 36 25  1  0
 22  9  1  0
 34 29  1  0
 20 14  1  0
  1 37  1  0
  1 38  1  0
  1 39  1  0
  3 40  1  0
  4 41  1  0
  6 42  1  0
 10 43  1  0
 11 44  1  0
 13 45  1  0
 13 46  1  0
 15 47  1  0
 15 48  1  0
 16 49  1  0
 16 50  1  0
 18 51  1  0
 18 52  1  0
 18 53  1  0
 19 54  1  0
 19 55  1  0
 20 56  1  0
 20 57  1  0
 21 58  1  0
 22 59  1  0
 23 60  1  0
 26 61  1  0
 27 62  1  0
 30 63  1  0
 33 64  1  0
 33 65  1  0
 35 66  1  0
 36 67  1  0
M  END
$$$$
