
     RDKit          3D

 77 79  0  0  0  0  0  0  0  0999 V2000
   -4.2710    4.2659   -1.4765 C   0  0  0  0  0  0  0  0  0  0  0  0
   -4.2151    3.8964   -0.0262 C   0  0  0  0  0  0  0  0  0  0  0  0
   -2.9863    4.5112    0.6260 C   0  0  0  0  0  0  0  0  0  0  0  0
   -5.4096    4.4936    0.7251 C   0  0  0  0  0  0  0  0  0  0  0  0
   -4.2324    2.5009    0.1970 O   0  0  0  0  0  0  0  0  0  0  0  0
   -3.2995    1.6173   -0.2810 C   0  0  0  0  0  0  0  0  0  0  0  0
   -2.3575    2.0458   -0.9700 O   0  0  0  0  0  0  0  0  0  0  0  0
   -3.3761    0.2262   -0.0112 N   0  0  0  0  0  0  0  0  0  0  0  0
   -2.3625   -0.6622   -0.5365 C   0  0  1  0  0  0  0  0  0  0  0  0
   -1.4444   -1.1255    0.5814 C   0  0  0  0  0  0  0  0  0  0  0  0
   -1.7461   -0.7295    1.7367 O   0  0  0  0  0  0  0  0  0  0  0  0
   -0.3224   -1.9370    0.3918 N   0  0  0  0  0  0  0  0  0  0  0  0
    0.1615   -2.4699   -0.8454 C   0  0  0  0  0  0  0  0  0  0  0  0
    0.8614   -3.7685   -0.4486 C   0  0  0  0  0  0  0  0  0  0  0  0
    0.7383   -3.8453    1.0542 C   0  0  0  0  0  0  0  0  0  0  0  0
    0.5764   -2.3893    1.4177 C   0  0  1  0  0  0  0  0  0  0  0  0
    1.9049   -1.6938    1.3313 C   0  0  0  0  0  0  0  0  0  0  0  0
    2.0993   -0.7750    0.4822 O   0  0  0  0  0  0  0  0  0  0  0  0
    2.9776   -2.0356    2.1884 N   0  0  0  0  0  0  0  0  0  0  0  0
    4.2919   -1.3005    2.0494 C   0  0  0  0  0  0  0  0  0  0  0  0
    4.8241   -1.5730    0.7256 C   0  0  0  0  0  0  0  0  0  0  0  0
    4.1327   -2.2502   -0.1096 O   0  0  0  0  0  0  0  0  0  0  0  0
    4.1384    0.0425    2.5889 C   0  0  0  0  0  0  0  0  0  0  0  0
    5.2869    0.9555    2.5873 C   0  0  0  0  0  0  0  0  0  0  0  0
    5.8721    1.4462    1.3218 C   0  0  0  0  0  0  0  0  0  0  0  0
    6.9993    2.3581    1.6215 N   0  0  0  0  0  0  0  0  0  0  0  0
    6.7530    3.6120    2.2396 C   0  0  0  0  0  0  0  0  0  0  0  0
    5.5840    4.1462    2.2482 N   0  0  0  0  0  0  0  0  0  0  0  0
    7.8609    4.2727    2.8647 N   0  0  0  0  0  0  0  0  0  0  0  0
   -3.0633   -1.8338   -1.0946 C   0  0  0  0  0  0  0  0  0  0  0  0
   -3.5231   -2.8116   -0.2288 C   0  0  0  0  0  0  0  0  0  0  0  0
   -4.1598   -3.9278   -0.6852 C   0  0  0  0  0  0  0  0  0  0  0  0
   -4.3613   -4.1092   -2.0295 C   0  0  0  0  0  0  0  0  0  0  0  0
   -3.9033   -3.1334   -2.8941 C   0  0  0  0  0  0  0  0  0  0  0  0
   -4.0883   -3.2670   -4.2588 C   0  0  0  0  0  0  0  0  0  0  0  0
   -3.6510   -2.3119   -5.1505 C   0  0  0  0  0  0  0  0  0  0  0  0
   -3.0087   -1.1860   -4.6841 C   0  0  0  0  0  0  0  0  0  0  0  0
   -2.8042   -1.0189   -3.3114 C   0  0  0  0  0  0  0  0  0  0  0  0
   -3.2443   -1.9760   -2.4397 C   0  0  0  0  0  0  0  0  0  0  0  0
   -3.3877    4.8551   -1.8229 H   0  0  0  0  0  0  0  0  0  0  0  0
   -4.4102    3.3668   -2.1329 H   0  0  0  0  0  0  0  0  0  0  0  0
   -5.1705    4.9004   -1.6481 H   0  0  0  0  0  0  0  0  0  0  0  0
   -2.0387    4.0986    0.2168 H   0  0  0  0  0  0  0  0  0  0  0  0
   -3.0451    4.2475    1.7084 H   0  0  0  0  0  0  0  0  0  0  0  0
   -3.0307    5.5994    0.4477 H   0  0  0  0  0  0  0  0  0  0  0  0
   -6.2276    4.6774    0.0111 H   0  0  0  0  0  0  0  0  0  0  0  0
   -5.1298    5.4630    1.2206 H   0  0  0  0  0  0  0  0  0  0  0  0
   -5.7377    3.7644    1.4765 H   0  0  0  0  0  0  0  0  0  0  0  0
   -4.1400   -0.1909    0.5549 H   0  0  0  0  0  0  0  0  0  0  0  0
   -1.7087   -0.1207   -1.1923 H   0  0  0  0  0  0  0  0  0  0  0  0
    0.9146   -1.7450   -1.2674 H   0  0  0  0  0  0  0  0  0  0  0  0
   -0.5849   -2.6361   -1.6260 H   0  0  0  0  0  0  0  0  0  0  0  0
    0.4092   -4.6452   -0.9558 H   0  0  0  0  0  0  0  0  0  0  0  0
    1.9132   -3.7162   -0.7814 H   0  0  0  0  0  0  0  0  0  0  0  0
   -0.1355   -4.4360    1.3930 H   0  0  0  0  0  0  0  0  0  0  0  0
    1.6943   -4.1937    1.4966 H   0  0  0  0  0  0  0  0  0  0  0  0
    0.1440   -2.2665    2.4392 H   0  0  0  0  0  0  0  0  0  0  0  0
    2.8635   -2.7830    2.9032 H   0  0  0  0  0  0  0  0  0  0  0  0
    4.9653   -1.8744    2.7711 H   0  0  0  0  0  0  0  0  0  0  0  0
    5.7524   -1.3050    0.2714 H   0  0  0  0  0  0  0  0  0  0  0  0
    3.8741   -0.0997    3.7061 H   0  0  0  0  0  0  0  0  0  0  0  0
    3.1957    0.5613    2.1932 H   0  0  0  0  0  0  0  0  0  0  0  0
    6.1376    0.4264    3.1570 H   0  0  0  0  0  0  0  0  0  0  0  0
    5.1137    1.8444    3.2912 H   0  0  0  0  0  0  0  0  0  0  0  0
    5.1522    2.0744    0.7424 H   0  0  0  0  0  0  0  0  0  0  0  0
    6.3248    0.6669    0.7090 H   0  0  0  0  0  0  0  0  0  0  0  0
    7.9886    2.0641    1.3699 H   0  0  0  0  0  0  0  0  0  0  0  0
    4.7626    3.7097    1.8161 H   0  0  0  0  0  0  0  0  0  0  0  0
    8.0847    3.9898    3.8407 H   0  0  0  0  0  0  0  0  0  0  0  0
    8.3609    4.9842    2.3074 H   0  0  0  0  0  0  0  0  0  0  0  0
   -3.3795   -2.6913    0.8254 H   0  0  0  0  0  0  0  0  0  0  0  0
   -4.5225   -4.7068    0.0175 H   0  0  0  0  0  0  0  0  0  0  0  0
   -4.8587   -4.9772   -2.4201 H   0  0  0  0  0  0  0  0  0  0  0  0
   -4.5929   -4.1517   -4.6326 H   0  0  0  0  0  0  0  0  0  0  0  0
   -3.8207   -2.4611   -6.2253 H   0  0  0  0  0  0  0  0  0  0  0  0
   -2.6537   -0.4222   -5.3269 H   0  0  0  0  0  0  0  0  0  0  0  0
   -2.3082   -0.1304   -2.9472 H   0  0  0  0  0  0  0  0  0  0  0  0
  1  2  1  0
  2  3  1  0
  2  4  1  0
  2  5  1  0
  5  6  1  0
  6  7  2  0
  6  8  1  0
  8  9  1  0
  9 10  1  0
 10 11  2  0
 10 12  1  0
 12 13  1  0
 13 14  1  0
 14 15  1  0
 15 16  1  0
 16 17  1  0
 17 18  2  0
 17 19  1  0
 19 20  1  0
 20 21  1  0
 21 22  2  0
 20 23  1  0
 23 24  1  0
 24 25  1  0
 25 26  1  0
 26 27  1  0
 27 28  2  3
 27 29  1  0
  9 30  1  0
 30 31  2  0
 31 32  1  0
 32 33  2  0
 33 34  1  0
 34 35  2  0
 35 36  1  0
 36 37  2  0
 37 38  1  0
 38 39  2  0
 16 12  1  0
 39 30  1  0
 39 34  1  0
  1 40  1  0
  1 41  1  0
  1 42  1  0
  3 43  1  0
  3 44  1  0
  3 45  1  0
  4 46  1  0
  4 47  1  0
  4 48  1  0
  8 49  1  0
  9 50  1  6
 13 51  1  0
 13 52  1  0
 14 53  1  0
 14 54  1  0
 15 55  1  0
 15 56  1  0
 16 57  1  1
 19 58  1  0
 20 59  1  0
 21 60  1  0
 23 61  1  0
 23 62  1  0
 24 63  1  0
 24 64  1  0
 25 65  1  0
 25 66  1  0
 26 67  1  0
 28 68  1  0
 29 69  1  0
 29 70  1  0
 31 71  1  0
 32 72  1  0
 33 73  1  0
 35 74  1  0
 36 75  1  0
 37 76  1  0
 38 77  1  0
M  END
$$$$
