
     RDKit          3D

 39 41  0  0  0  0  0  0  0  0999 V2000
    6.6545    0.5932   -1.2886 Cl  0  0  0  0  0  0  0  0  0  0  0  0
    4.9726    0.5702   -0.7539 C   0  0  0  0  0  0  0  0  0  0  0  0
    4.1720    1.6862   -0.8882 C   0  0  0  0  0  0  0  0  0  0  0  0
    2.8604    1.6452   -0.4633 C   0  0  0  0  0  0  0  0  0  0  0  0
    2.3241    0.5073    0.0972 C   0  0  0  0  0  0  0  0  0  0  0  0
    0.9282    0.3426    0.5912 C   0  0  0  0  0  0  0  0  0  0  0  0
    0.0636   -0.1204   -0.4048 O   0  0  0  0  0  0  0  0  0  0  0  0
   -1.1895   -0.2249    0.1958 C   0  0  0  0  0  0  0  0  0  0  0  0
   -2.1861    0.7325   -0.4189 C   0  0  0  0  0  0  0  0  0  0  0  0
   -1.7268    2.0992   -0.2624 N   0  0  0  0  0  0  0  0  0  0  0  0
   -1.9852    2.9371    0.7688 C   0  0  0  0  0  0  0  0  0  0  0  0
   -1.3302    4.1228    0.4602 C   0  0  0  0  0  0  0  0  0  0  0  0
   -0.6943    4.0082   -0.7207 N   0  0  0  0  0  0  0  0  0  0  0  0
   -0.9423    2.7626   -1.1588 C   0  0  0  0  0  0  0  0  0  0  0  0
   -1.7054   -1.6031    0.2617 C   0  0  0  0  0  0  0  0  0  0  0  0
   -1.4718   -2.4388   -0.8089 C   0  0  0  0  0  0  0  0  0  0  0  0
   -0.5902   -1.9394   -2.2443 Cl  0  0  0  0  0  0  0  0  0  0  0  0
   -1.9397   -3.7427   -0.7877 C   0  0  0  0  0  0  0  0  0  0  0  0
   -2.6443   -4.1946    0.3219 C   0  0  0  0  0  0  0  0  0  0  0  0
   -3.2481   -5.8563    0.3642 Cl  0  0  0  0  0  0  0  0  0  0  0  0
   -2.9068   -3.3969    1.4240 C   0  0  0  0  0  0  0  0  0  0  0  0
   -2.4112   -2.1173    1.3292 C   0  0  0  0  0  0  0  0  0  0  0  0
    3.1712   -0.5996    0.2137 C   0  0  0  0  0  0  0  0  0  0  0  0
    4.4993   -0.6049   -0.2003 C   0  0  0  0  0  0  0  0  0  0  0  0
    4.5564    2.6122   -1.3280 H   0  0  0  0  0  0  0  0  0  0  0  0
    2.1911    2.4768   -0.5406 H   0  0  0  0  0  0  0  0  0  0  0  0
    0.5054    1.3360    0.9095 H   0  0  0  0  0  0  0  0  0  0  0  0
    0.8897   -0.3623    1.4220 H   0  0  0  0  0  0  0  0  0  0  0  0
   -1.0357    0.1036    1.2615 H   0  0  0  0  0  0  0  0  0  0  0  0
   -3.1339    0.6631    0.1531 H   0  0  0  0  0  0  0  0  0  0  0  0
   -2.3093    0.5527   -1.4965 H   0  0  0  0  0  0  0  0  0  0  0  0
   -2.5693    2.7447    1.6462 H   0  0  0  0  0  0  0  0  0  0  0  0
   -1.2780    5.0406    1.0091 H   0  0  0  0  0  0  0  0  0  0  0  0
   -0.5921    2.3177   -2.0751 H   0  0  0  0  0  0  0  0  0  0  0  0
   -1.7727   -4.4346   -1.6203 H   0  0  0  0  0  0  0  0  0  0  0  0
   -3.4513   -3.7344    2.2897 H   0  0  0  0  0  0  0  0  0  0  0  0
   -2.5921   -1.4473    2.1746 H   0  0  0  0  0  0  0  0  0  0  0  0
    2.8154   -1.5430    0.6506 H   0  0  0  0  0  0  0  0  0  0  0  0
    5.1024   -1.4940   -0.0825 H   0  0  0  0  0  0  0  0  0  0  0  0
  1  2  1  0
  2  3  2  0
  3  4  1  0
  4  5  2  0
  5  6  1  0
  6  7  1  0
  7  8  1  0
  8  9  1  0
  9 10  1  0
 10 11  1  0
 11 12  2  0
 12 13  1  0
 13 14  2  0
  8 15  1  0
 15 16  2  0
 16 17  1  0
 16 18  1  0
 18 19  2  0
 19 20  1  0
 19 21  1  0
 21 22  2  0
  5 23  1  0
 23 24  2  0
 24  2  1  0
 14 10  1  0
 22 15  1  0
  3 25  1  0
  4 26  1  0
  6 27  1  0
  6 28  1  0
  8 29  1  0
  9 30  1  0
  9 31  1  0
 11 32  1  0
 12 33  1  0
 14 34  1  0
 18 35  1  0
 21 36  1  0
 22 37  1  0
 23 38  1  0
 24 39  1  0
M  END
$$$$
