
     RDKit          3D

 60 63  0  0  0  0  0  0  0  0999 V2000
   -1.8710    6.3910   -0.8838 C   0  0  0  0  0  0  0  0  0  0  0  0
   -1.4141    5.2203   -0.2517 O   0  0  0  0  0  0  0  0  0  0  0  0
   -2.2542    4.1284   -0.1256 C   0  0  0  0  0  0  0  0  0  0  0  0
   -3.5431    4.1117   -0.5907 C   0  0  0  0  0  0  0  0  0  0  0  0
   -4.3607    2.9926   -0.4447 C   0  0  0  0  0  0  0  0  0  0  0  0
   -3.8668    1.8751    0.1804 C   0  0  0  0  0  0  0  0  0  0  0  0
   -2.5648    1.8797    0.6545 C   0  0  0  0  0  0  0  0  0  0  0  0
   -2.0672    0.6246    1.3249 C   0  0  0  0  0  0  0  0  0  0  0  0
   -1.4064   -0.2489    0.4015 N   0  0  0  0  0  0  0  0  0  0  0  0
   -2.2340   -1.1953   -0.3512 C   0  0  0  0  0  0  0  0  0  0  0  0
   -2.3267   -2.4518    0.4894 C   0  0  0  0  0  0  0  0  0  0  0  0
   -3.1173   -3.4787   -0.1321 N   0  0  0  0  0  0  0  0  0  0  0  0
   -2.4880   -4.0104   -1.3015 C   0  0  0  0  0  0  0  0  0  0  0  0
   -2.9912   -5.4413   -1.3354 C   0  0  0  0  0  0  0  0  0  0  0  0
   -2.8735   -5.8238    0.1314 C   0  0  0  0  0  0  0  0  0  0  0  0
   -3.3085   -4.5496    0.8144 C   0  0  0  0  0  0  0  0  0  0  0  0
    0.0156   -0.2785    0.1661 C   0  0  0  0  0  0  0  0  0  0  0  0
    0.4142   -1.0843   -0.7099 O   0  0  0  0  0  0  0  0  0  0  0  0
    0.9311    0.5295    0.8569 N   0  0  0  0  0  0  0  0  0  0  0  0
    2.3098    0.5374    0.6595 C   0  0  0  0  0  0  0  0  0  0  0  0
    2.9986   -0.2123   -0.2205 C   0  0  0  0  0  0  0  0  0  0  0  0
    4.3951   -0.1386   -0.3485 C   0  0  0  0  0  0  0  0  0  0  0  0
    5.1175    0.7232    0.4413 C   0  0  0  0  0  0  0  0  0  0  0  0
    6.5735    0.7636    0.2727 C   0  0  0  0  0  0  0  0  0  0  0  0
    7.4222    1.8296    0.4492 C   0  0  0  0  0  0  0  0  0  0  0  0
    8.6724    1.3946    0.1811 N   0  0  0  0  0  0  0  0  0  0  0  0
    8.6345    0.1252   -0.1486 N   0  0  0  0  0  0  0  0  0  0  0  0
    7.3581   -0.3023   -0.1044 C   0  0  0  0  0  0  0  0  0  0  0  0
    4.4430    1.4901    1.3371 C   0  0  0  0  0  0  0  0  0  0  0  0
    3.0734    1.4107    1.4554 C   0  0  0  0  0  0  0  0  0  0  0  0
   -1.7547    2.9894    0.5099 C   0  0  0  0  0  0  0  0  0  0  0  0
   -2.9043    6.6437   -0.5806 H   0  0  0  0  0  0  0  0  0  0  0  0
   -1.8707    6.2693   -2.0028 H   0  0  0  0  0  0  0  0  0  0  0  0
   -1.2023    7.2691   -0.6415 H   0  0  0  0  0  0  0  0  0  0  0  0
   -3.9455    4.9739   -1.0808 H   0  0  0  0  0  0  0  0  0  0  0  0
   -5.3516    3.0415   -0.8265 H   0  0  0  0  0  0  0  0  0  0  0  0
   -4.4905    0.9801    0.3190 H   0  0  0  0  0  0  0  0  0  0  0  0
   -2.9878    0.0960    1.7249 H   0  0  0  0  0  0  0  0  0  0  0  0
   -1.4217    0.9460    2.1540 H   0  0  0  0  0  0  0  0  0  0  0  0
   -3.2450   -0.8133   -0.5268 H   0  0  0  0  0  0  0  0  0  0  0  0
   -1.7657   -1.4043   -1.3448 H   0  0  0  0  0  0  0  0  0  0  0  0
   -1.2881   -2.7655    0.6964 H   0  0  0  0  0  0  0  0  0  0  0  0
   -2.7862   -2.1751    1.4556 H   0  0  0  0  0  0  0  0  0  0  0  0
   -1.3872   -4.0226   -1.2578 H   0  0  0  0  0  0  0  0  0  0  0  0
   -2.8222   -3.4862   -2.2238 H   0  0  0  0  0  0  0  0  0  0  0  0
   -4.0457   -5.4049   -1.6556 H   0  0  0  0  0  0  0  0  0  0  0  0
   -2.3574   -6.0862   -1.9747 H   0  0  0  0  0  0  0  0  0  0  0  0
   -1.8327   -6.0431    0.3605 H   0  0  0  0  0  0  0  0  0  0  0  0
   -3.5231   -6.6595    0.4125 H   0  0  0  0  0  0  0  0  0  0  0  0
   -4.3668   -4.5632    1.1093 H   0  0  0  0  0  0  0  0  0  0  0  0
   -2.6977   -4.3949    1.7324 H   0  0  0  0  0  0  0  0  0  0  0  0
    0.4751    1.1660    1.5934 H   0  0  0  0  0  0  0  0  0  0  0  0
    2.5368   -0.9051   -0.8733 H   0  0  0  0  0  0  0  0  0  0  0  0
    4.9256   -0.7500   -1.0611 H   0  0  0  0  0  0  0  0  0  0  0  0
    7.1550    2.8370    0.7478 H   0  0  0  0  0  0  0  0  0  0  0  0
    9.4510   -0.4670   -0.4046 H   0  0  0  0  0  0  0  0  0  0  0  0
    6.9768   -1.3096   -0.3230 H   0  0  0  0  0  0  0  0  0  0  0  0
    5.0246    2.1694    1.9580 H   0  0  0  0  0  0  0  0  0  0  0  0
    2.5729    2.0449    2.1885 H   0  0  0  0  0  0  0  0  0  0  0  0
   -0.7426    3.0128    0.8728 H   0  0  0  0  0  0  0  0  0  0  0  0
  1  2  1  0
  2  3  1  0
  3  4  2  0
  4  5  1  0
  5  6  2  0
  6  7  1  0
  7  8  1  0
  8  9  1  0
  9 10  1  0
 10 11  1  0
 11 12  1  0
 12 13  1  0
 13 14  1  0
 14 15  1  0
 15 16  1  0
  9 17  1  0
 17 18  2  0
 17 19  1  0
 19 20  1  0
 20 21  2  0
 21 22  1  0
 22 23  2  0
 23 24  1  0
 24 25  1  0
 25 26  2  0
 26 27  1  0
 27 28  1  0
 23 29  1  0
 29 30  2  0
  7 31  2  0
 31  3  1  0
 16 12  1  0
 30 20  1  0
 28 24  2  0
  1 32  1  0
  1 33  1  0
  1 34  1  0
  4 35  1  0
  5 36  1  0
  6 37  1  0
  8 38  1  0
  8 39  1  0
 10 40  1  0
 10 41  1  0
 11 42  1  0
 11 43  1  0
 13 44  1  0
 13 45  1  0
 14 46  1  0
 14 47  1  0
 15 48  1  0
 15 49  1  0
 16 50  1  0
 16 51  1  0
 19 52  1  0
 21 53  1  0
 22 54  1  0
 25 55  1  0
 27 56  1  0
 28 57  1  0
 29 58  1  0
 30 59  1  0
 31 60  1  0
M  END
$$$$
