
     RDKit          3D

 43 46  0  0  0  0  0  0  0  0999 V2000
    3.8884   -2.9341   -0.0753 C   0  0  0  0  0  0  0  0  0  0  0  0
    3.8445   -1.4648   -0.2570 C   0  0  0  0  0  0  0  0  0  0  0  0
    4.7465   -0.7050   -0.9047 N   0  0  0  0  0  0  0  0  0  0  0  0
    4.3400    0.5407   -0.8362 N   0  0  0  0  0  0  0  0  0  0  0  0
    3.1933    0.6247   -0.1608 C   0  0  0  0  0  0  0  0  0  0  0  0
    2.4644    1.8685    0.1257 C   0  0  0  0  0  0  0  0  0  0  0  0
    2.8589    3.1117   -0.2067 C   0  0  0  0  0  0  0  0  0  0  0  0
    4.1610    3.3183   -0.9990 C   0  0  0  0  0  0  0  0  0  0  0  0
    2.1345    4.1977    0.1345 C   0  0  0  0  0  0  0  0  0  0  0  0
    0.7435    3.4318    1.0165 S   0  0  0  0  0  0  0  0  0  0  0  0
    1.2589    1.8137    0.8401 C   0  0  0  0  0  0  0  0  0  0  0  0
    0.5360    0.6635    1.3488 N   0  0  0  0  0  0  0  0  0  0  0  0
   -0.5009    0.0649    0.5806 C   0  0  0  0  0  0  0  0  0  0  0  0
   -0.7738    0.5547   -0.5423 O   0  0  0  0  0  0  0  0  0  0  0  0
   -1.2315   -1.1020    1.0992 C   0  0  0  0  0  0  0  0  0  0  0  0
   -2.2533   -1.5169    0.1050 C   0  0  0  0  0  0  0  0  0  0  0  0
   -2.1105   -2.6056   -0.7043 C   0  0  0  0  0  0  0  0  0  0  0  0
   -3.0781   -2.9712   -1.6222 C   0  0  0  0  0  0  0  0  0  0  0  0
   -4.2223   -2.2079   -1.7189 C   0  0  0  0  0  0  0  0  0  0  0  0
   -4.4038   -1.1034   -0.9210 C   0  0  0  0  0  0  0  0  0  0  0  0
   -5.5272   -0.3783   -1.0359 N   0  0  0  0  0  0  0  0  0  0  0  0
   -5.7043    0.6882   -0.2669 C   0  0  0  0  0  0  0  0  0  0  0  0
   -4.7498    1.0636    0.6503 C   0  0  0  0  0  0  0  0  0  0  0  0
   -3.5907    0.3271    0.7787 C   0  0  0  0  0  0  0  0  0  0  0  0
   -3.4167   -0.7715   -0.0188 C   0  0  0  0  0  0  0  0  0  0  0  0
    2.8853   -0.6167    0.1988 N   0  0  0  0  0  0  0  0  0  0  0  0
    4.5765   -3.3899   -0.8133 H   0  0  0  0  0  0  0  0  0  0  0  0
    2.8724   -3.3597   -0.2699 H   0  0  0  0  0  0  0  0  0  0  0  0
    4.2026   -3.2016    0.9709 H   0  0  0  0  0  0  0  0  0  0  0  0
    4.2349    4.3275   -1.3788 H   0  0  0  0  0  0  0  0  0  0  0  0
    5.0043    3.1104   -0.3239 H   0  0  0  0  0  0  0  0  0  0  0  0
    4.1509    2.6465   -1.8941 H   0  0  0  0  0  0  0  0  0  0  0  0
    2.2616    5.2459   -0.0238 H   0  0  0  0  0  0  0  0  0  0  0  0
    0.7485    0.2543    2.2736 H   0  0  0  0  0  0  0  0  0  0  0  0
   -1.6474   -0.9279    2.1087 H   0  0  0  0  0  0  0  0  0  0  0  0
   -0.5017   -1.9528    1.2422 H   0  0  0  0  0  0  0  0  0  0  0  0
   -1.2013   -3.2041   -0.6214 H   0  0  0  0  0  0  0  0  0  0  0  0
   -2.9549   -3.8499   -2.2702 H   0  0  0  0  0  0  0  0  0  0  0  0
   -4.9869   -2.4819   -2.4319 H   0  0  0  0  0  0  0  0  0  0  0  0
   -6.5957    1.3277   -0.3053 H   0  0  0  0  0  0  0  0  0  0  0  0
   -4.9020    1.9471    1.2840 H   0  0  0  0  0  0  0  0  0  0  0  0
   -2.8372    0.5968    1.4803 H   0  0  0  0  0  0  0  0  0  0  0  0
    2.0831   -0.9801    0.7396 H   0  0  0  0  0  0  0  0  0  0  0  0
  1  2  1  0
  2  3  2  0
  3  4  1  0
  4  5  2  0
  5  6  1  0
  6  7  1  0
  7  8  1  0
  7  9  2  0
  9 10  1  0
 10 11  1  0
 11 12  1  0
 12 13  1  0
 13 14  2  0
 13 15  1  0
 15 16  1  0
 16 17  2  0
 17 18  1  0
 18 19  2  0
 19 20  1  0
 20 21  2  0
 21 22  1  0
 22 23  2  0
 23 24  1  0
 24 25  2  0
  5 26  1  0
 26  2  1  0
 11  6  2  0
 25 16  1  0
 25 20  1  0
  1 27  1  0
  1 28  1  0
  1 29  1  0
  8 30  1  0
  8 31  1  0
  8 32  1  0
  9 33  1  0
 12 34  1  0
 15 35  1  0
 15 36  1  0
 17 37  1  0
 18 38  1  0
 19 39  1  0
 22 40  1  0
 23 41  1  0
 24 42  1  0
 26 43  1  0
M  END
$$$$
