
     RDKit          3D

 60 63  0  0  0  0  0  0  0  0999 V2000
    6.0963    1.6401   -1.2269 C   0  0  0  0  0  0  0  0  0  0  0  0
    4.8725    1.0375   -0.5897 C   0  0  0  0  0  0  0  0  0  0  0  0
    4.3344    0.0942   -1.1955 O   0  0  0  0  0  0  0  0  0  0  0  0
    4.3726    1.5283    0.6337 N   0  0  0  0  0  0  0  0  0  0  0  0
    3.2489    1.0614    1.3846 C   0  0  0  0  0  0  0  0  0  0  0  0
    3.3176   -0.2760    2.0272 C   0  0  0  0  0  0  0  0  0  0  0  0
    3.4975   -1.3936    1.1191 C   0  0  0  0  0  0  0  0  0  0  0  0
    4.8062   -1.9236    1.0233 C   0  0  0  0  0  0  0  0  0  0  0  0
    5.0414   -2.9746    0.1719 C   0  0  0  0  0  0  0  0  0  0  0  0
    4.0303   -3.5053   -0.5746 C   0  0  0  0  0  0  0  0  0  0  0  0
    2.7448   -2.9676   -0.4634 C   0  0  0  0  0  0  0  0  0  0  0  0
    2.4515   -1.9050    0.3829 C   0  0  0  0  0  0  0  0  0  0  0  0
    1.1121   -1.3880    0.5849 C   0  0  0  0  0  0  0  0  0  0  0  0
    0.6810   -0.5991    1.5484 O   0  0  0  0  0  0  0  0  0  0  0  0
   -0.5685   -0.3202    1.4397 N   0  0  0  0  0  0  0  0  0  0  0  0
   -1.0920   -0.9030    0.3831 C   0  0  0  0  0  0  0  0  0  0  0  0
   -2.4352   -0.9401   -0.2280 C   0  0  1  0  0  0  0  0  0  0  0  0
   -3.1905   -2.1905    0.1471 C   0  0  0  0  0  0  0  0  0  0  0  0
   -4.2561   -2.3451   -0.8435 N   0  0  0  0  0  0  0  0  0  0  0  0
   -5.2134   -1.2609   -0.7134 C   0  0  0  0  0  0  0  0  0  0  0  0
   -4.5997    0.0787   -0.7384 C   0  0  0  0  0  0  0  0  0  0  0  0
   -3.2945    0.2386    0.0180 C   0  0  1  0  0  0  0  0  0  0  0  0
   -3.6443    0.3309    1.4511 C   0  0  0  0  0  0  0  0  0  0  0  0
   -4.6807    1.1667    1.9691 N   0  0  0  0  0  0  0  0  0  0  0  0
   -3.0270   -0.3463    2.3183 O   0  0  0  0  0  0  0  0  0  0  0  0
   -2.7176    1.5109   -0.5053 C   0  0  0  0  0  0  0  0  0  0  0  0
   -1.5988    1.5614   -1.2948 C   0  0  0  0  0  0  0  0  0  0  0  0
   -1.1317    2.7798   -1.7426 C   0  0  0  0  0  0  0  0  0  0  0  0
   -1.7343    3.9794   -1.4389 C   0  0  0  0  0  0  0  0  0  0  0  0
   -1.2351    5.1707   -1.9066 F   0  0  0  0  0  0  0  0  0  0  0  0
   -2.8561    3.9325   -0.6481 C   0  0  0  0  0  0  0  0  0  0  0  0
   -3.4749    5.0907   -0.3294 F   0  0  0  0  0  0  0  0  0  0  0  0
   -3.3332    2.6943   -0.1914 C   0  0  0  0  0  0  0  0  0  0  0  0
   -0.0058   -1.6048   -0.1876 C   0  0  0  0  0  0  0  0  0  0  0  0
   -0.1584   -2.6395   -1.8000 Br  0  0  0  0  0  0  0  0  0  0  0  0
    5.8968    2.5987   -1.7058 H   0  0  0  0  0  0  0  0  0  0  0  0
    6.8899    1.8004   -0.4658 H   0  0  0  0  0  0  0  0  0  0  0  0
    6.5294    0.9456   -1.9744 H   0  0  0  0  0  0  0  0  0  0  0  0
    4.9491    2.3658    1.0109 H   0  0  0  0  0  0  0  0  0  0  0  0
    2.3649    1.1265    0.6542 H   0  0  0  0  0  0  0  0  0  0  0  0
    2.9738    1.8667    2.1215 H   0  0  0  0  0  0  0  0  0  0  0  0
    4.2469   -0.2245    2.7065 H   0  0  0  0  0  0  0  0  0  0  0  0
    2.4575   -0.4007    2.7429 H   0  0  0  0  0  0  0  0  0  0  0  0
    5.5966   -1.4930    1.6189 H   0  0  0  0  0  0  0  0  0  0  0  0
    6.0709   -3.3561    0.1274 H   0  0  0  0  0  0  0  0  0  0  0  0
    4.1869   -4.3142   -1.2384 H   0  0  0  0  0  0  0  0  0  0  0  0
    1.9610   -3.4168   -1.0550 H   0  0  0  0  0  0  0  0  0  0  0  0
   -2.3221   -1.0101   -1.3611 H   0  0  0  0  0  0  0  0  0  0  0  0
   -2.5625   -3.1026    0.0548 H   0  0  0  0  0  0  0  0  0  0  0  0
   -3.6173   -2.1509    1.1459 H   0  0  0  0  0  0  0  0  0  0  0  0
   -4.7737   -3.2361   -0.6225 H   0  0  0  0  0  0  0  0  0  0  0  0
   -5.9113   -1.3464   -1.5712 H   0  0  0  0  0  0  0  0  0  0  0  0
   -5.8299   -1.4405    0.2030 H   0  0  0  0  0  0  0  0  0  0  0  0
   -4.3775    0.3393   -1.8144 H   0  0  0  0  0  0  0  0  0  0  0  0
   -5.3483    0.8162   -0.3247 H   0  0  0  0  0  0  0  0  0  0  0  0
   -5.6752    1.0576    1.6952 H   0  0  0  0  0  0  0  0  0  0  0  0
   -4.4581    1.9296    2.6553 H   0  0  0  0  0  0  0  0  0  0  0  0
   -1.1230    0.6271   -1.5447 H   0  0  0  0  0  0  0  0  0  0  0  0
   -0.2487    2.8260   -2.3666 H   0  0  0  0  0  0  0  0  0  0  0  0
   -4.2355    2.7794    0.4225 H   0  0  0  0  0  0  0  0  0  0  0  0
  1  2  1  0
  2  3  2  0
  2  4  1  0
  4  5  1  0
  5  6  1  0
  6  7  1  0
  7  8  2  0
  8  9  1  0
  9 10  2  0
 10 11  1  0
 11 12  2  0
 12 13  1  0
 13 14  1  0
 14 15  1  0
 15 16  2  0
 16 17  1  0
 17 18  1  0
 18 19  1  0
 19 20  1  0
 20 21  1  0
 21 22  1  0
 22 23  1  1
 23 24  1  0
 23 25  2  0
 22 26  1  0
 26 27  2  0
 27 28  1  0
 28 29  2  0
 29 30  1  0
 29 31  1  0
 31 32  1  0
 31 33  2  0
 16 34  1  0
 34 35  1  0
 12  7  1  0
 34 13  2  0
 22 17  1  0
 33 26  1  0
  1 36  1  0
  1 37  1  0
  1 38  1  0
  4 39  1  0
  5 40  1  0
  5 41  1  0
  6 42  1  0
  6 43  1  0
  8 44  1  0
  9 45  1  0
 10 46  1  0
 11 47  1  0
 17 48  1  6
 18 49  1  0
 18 50  1  0
 19 51  1  0
 20 52  1  0
 20 53  1  0
 21 54  1  0
 21 55  1  0
 24 56  1  0
 24 57  1  0
 27 58  1  0
 28 59  1  0
 33 60  1  0
M  END
$$$$
