
     RDKit          3D

 46 49  0  0  0  0  0  0  0  0999 V2000
   -1.7962   -1.3514    1.1822 O   0  0  0  0  0  0  0  0  0  0  0  0
   -1.6575   -0.2347    0.7396 C   0  0  0  0  0  0  0  0  0  0  0  0
   -0.2026    0.2490    0.7353 C   0  0  0  0  0  0  0  0  0  0  0  0
    0.6944   -0.8235    1.2988 C   0  0  0  0  0  0  0  0  0  0  0  0
    2.1046   -0.3072    1.2750 C   0  0  0  0  0  0  0  0  0  0  0  0
    3.0176   -0.4372    0.2576 C   0  0  0  0  0  0  0  0  0  0  0  0
    4.2188    0.1733    0.6058 N   0  0  0  0  0  0  0  0  0  0  0  0
    3.9545    0.6290    1.8027 C   0  0  0  0  0  0  0  0  0  0  0  0
    2.7204    0.3730    2.2462 N   0  0  0  0  0  0  0  0  0  0  0  0
    5.4947    1.4272    2.2827 S   0  0  0  0  0  0  0  0  0  0  0  0
    6.3506    1.0463    0.7696 C   0  0  0  0  0  0  0  0  0  0  0  0
    7.6343    1.3278    0.3413 C   0  0  0  0  0  0  0  0  0  0  0  0
    8.0424    0.8943   -0.9237 C   0  0  0  0  0  0  0  0  0  0  0  0
    9.2973    1.1279   -1.4320 O   0  0  0  0  0  0  0  0  0  0  0  0
    7.1289    0.2089   -1.6658 C   0  0  0  0  0  0  0  0  0  0  0  0
    5.8713   -0.0510   -1.2120 C   0  0  0  0  0  0  0  0  0  0  0  0
    5.4089    0.3665    0.0624 C   0  0  0  0  0  0  0  0  0  0  0  0
   -2.6660    0.5590    0.2762 N   0  0  0  0  0  0  0  0  0  0  0  0
   -3.9970    0.5669    0.0913 C   0  0  0  0  0  0  0  0  0  0  0  0
   -4.9940   -0.2293    0.2795 C   0  0  0  0  0  0  0  0  0  0  0  0
   -4.8626   -1.5312    0.8262 C   0  0  0  0  0  0  0  0  0  0  0  0
   -3.9086   -2.1743    1.1917 O   0  0  0  0  0  0  0  0  0  0  0  0
   -6.0963   -2.2586    0.9961 O   0  0  0  0  0  0  0  0  0  0  0  0
   -6.3773    0.2821   -0.1273 C   0  0  0  0  0  0  0  0  0  0  0  0
   -6.3884    0.7320   -1.5635 C   0  0  0  0  0  0  0  0  0  0  0  0
   -5.1022    1.5171   -1.8470 C   0  0  0  0  0  0  0  0  0  0  0  0
   -4.5400    1.9288   -0.5132 C   0  0  0  0  0  0  0  0  0  0  0  0
   -0.0959    1.1605    1.3270 H   0  0  0  0  0  0  0  0  0  0  0  0
    0.1221    0.4545   -0.3034 H   0  0  0  0  0  0  0  0  0  0  0  0
    0.3916   -1.1427    2.3038 H   0  0  0  0  0  0  0  0  0  0  0  0
    0.6059   -1.7268    0.6295 H   0  0  0  0  0  0  0  0  0  0  0  0
    2.7635   -0.9530   -0.6507 H   0  0  0  0  0  0  0  0  0  0  0  0
    8.2966    1.8712    0.9798 H   0  0  0  0  0  0  0  0  0  0  0  0
   10.1567    1.1063   -0.9354 H   0  0  0  0  0  0  0  0  0  0  0  0
    7.4170   -0.1377   -2.6463 H   0  0  0  0  0  0  0  0  0  0  0  0
    5.1982   -0.6131   -1.8819 H   0  0  0  0  0  0  0  0  0  0  0  0
   -2.2102    1.5486   -0.0620 H   0  0  0  0  0  0  0  0  0  0  0  0
   -6.0989   -2.8556    1.8418 H   0  0  0  0  0  0  0  0  0  0  0  0
   -7.0544   -0.5930    0.0142 H   0  0  0  0  0  0  0  0  0  0  0  0
   -6.6596    1.0399    0.6088 H   0  0  0  0  0  0  0  0  0  0  0  0
   -7.2736    1.3766   -1.7246 H   0  0  0  0  0  0  0  0  0  0  0  0
   -6.4013   -0.1636   -2.2150 H   0  0  0  0  0  0  0  0  0  0  0  0
   -5.2611    2.4030   -2.4527 H   0  0  0  0  0  0  0  0  0  0  0  0
   -4.3574    0.8135   -2.3034 H   0  0  0  0  0  0  0  0  0  0  0  0
   -5.2318    2.3167    0.2064 H   0  0  0  0  0  0  0  0  0  0  0  0
   -3.6574    2.5554   -0.7113 H   0  0  0  0  0  0  0  0  0  0  0  0
  1  2  2  0
  2  3  1  0
  3  4  1  0
  4  5  1  0
  5  6  2  0
  6  7  1  0
  7  8  1  0
  8  9  2  0
  8 10  1  0
 10 11  1  0
 11 12  2  0
 12 13  1  0
 13 14  1  0
 13 15  2  0
 15 16  1  0
 16 17  2  0
  2 18  1  0
 18 19  1  0
 19 20  2  0
 20 21  1  0
 21 22  2  0
 21 23  1  0
 20 24  1  0
 24 25  1  0
 25 26  1  0
 26 27  1  0
  9  5  1  0
 17 11  1  0
 27 19  1  0
 17  7  1  0
  3 28  1  0
  3 29  1  0
  4 30  1  0
  4 31  1  0
  6 32  1  0
 12 33  1  0
 14 34  1  0
 15 35  1  0
 16 36  1  0
 18 37  1  0
 23 38  1  0
 24 39  1  0
 24 40  1  0
 25 41  1  0
 25 42  1  0
 26 43  1  0
 26 44  1  0
 27 45  1  0
 27 46  1  0
M  END
$$$$
