
     RDKit          3D

 62 66  0  0  0  0  0  0  0  0999 V2000
   -7.5096    1.1611    1.6414 C   0  0  0  0  0  0  0  0  0  0  0  0
   -6.2012    1.8185    1.8578 C   0  0  0  0  0  0  0  0  0  0  0  0
   -6.2356    2.8755    2.4988 O   0  0  0  0  0  0  0  0  0  0  0  0
   -4.9643    1.2420    1.3412 C   0  0  0  0  0  0  0  0  0  0  0  0
   -3.7305    1.8736    1.5515 C   0  0  0  0  0  0  0  0  0  0  0  0
   -3.6885    3.1351    2.3015 C   0  0  0  0  0  0  0  0  0  0  0  0
   -2.6699    1.1953    0.9998 C   0  0  0  0  0  0  0  0  0  0  0  0
   -1.4253    1.7392    1.1570 C   0  0  0  0  0  0  0  0  0  0  0  0
   -0.3603    1.1164    0.6385 N   0  0  0  0  0  0  0  0  0  0  0  0
   -0.4003   -0.0344   -0.0465 C   0  0  0  0  0  0  0  0  0  0  0  0
    0.6997   -0.7129   -0.6028 N   0  0  0  0  0  0  0  0  0  0  0  0
    2.0672   -0.3503   -0.5704 C   0  0  0  0  0  0  0  0  0  0  0  0
    3.0063   -1.1135   -1.1555 N   0  0  0  0  0  0  0  0  0  0  0  0
    4.3141   -0.8278   -1.1610 C   0  0  0  0  0  0  0  0  0  0  0  0
    4.8300    0.2968   -0.5559 C   0  0  0  0  0  0  0  0  0  0  0  0
    3.9191    1.1235    0.0635 C   0  0  0  0  0  0  0  0  0  0  0  0
    2.5855    0.7738    0.0340 C   0  0  0  0  0  0  0  0  0  0  0  0
    6.2234    0.5422   -0.5966 N   0  0  0  0  0  0  0  0  0  0  0  0
    6.9529    1.6575   -0.0298 C   0  0  0  0  0  0  0  0  0  0  0  0
    7.9394    1.1737    1.0285 C   0  0  0  0  0  0  0  0  0  0  0  0
    8.5885   -0.0607    0.5850 N   0  0  0  0  0  0  0  0  0  0  0  0
    8.5177   -0.0706   -0.8648 C   0  0  0  0  0  0  0  0  0  0  0  0
    7.0974   -0.3948   -1.2719 C   0  0  0  0  0  0  0  0  0  0  0  0
   -1.6337   -0.5409   -0.1827 N   0  0  0  0  0  0  0  0  0  0  0  0
   -2.7245    0.0172    0.3004 C   0  0  0  0  0  0  0  0  0  0  0  0
   -3.9257   -0.5596    0.1184 N   0  0  0  0  0  0  0  0  0  0  0  0
   -4.0722   -1.7702   -0.5866 C   0  0  0  0  0  0  0  0  0  0  0  0
   -2.8546   -2.5264   -0.9565 C   0  0  0  0  0  0  0  0  0  0  0  0
   -3.5380   -3.7468   -1.6091 C   0  0  0  0  0  0  0  0  0  0  0  0
   -4.6702   -3.1045   -2.4127 C   0  0  0  0  0  0  0  0  0  0  0  0
   -4.7373   -1.6449   -1.9526 C   0  0  0  0  0  0  0  0  0  0  0  0
   -5.0169    0.0395    0.6269 C   0  0  0  0  0  0  0  0  0  0  0  0
   -6.1283   -0.5491    0.4255 O   0  0  0  0  0  0  0  0  0  0  0  0
   -7.7873    1.0547    0.5689 H   0  0  0  0  0  0  0  0  0  0  0  0
   -8.3514    1.7385    2.0871 H   0  0  0  0  0  0  0  0  0  0  0  0
   -7.5275    0.1513    2.1297 H   0  0  0  0  0  0  0  0  0  0  0  0
   -4.3003    3.9070    1.7788 H   0  0  0  0  0  0  0  0  0  0  0  0
   -2.6783    3.5561    2.3879 H   0  0  0  0  0  0  0  0  0  0  0  0
   -4.0871    3.0223    3.3403 H   0  0  0  0  0  0  0  0  0  0  0  0
   -1.1852    2.6371    1.6634 H   0  0  0  0  0  0  0  0  0  0  0  0
    0.4961   -1.6199   -1.1197 H   0  0  0  0  0  0  0  0  0  0  0  0
    4.9733   -1.5292   -1.6711 H   0  0  0  0  0  0  0  0  0  0  0  0
    4.2572    2.0106    0.5502 H   0  0  0  0  0  0  0  0  0  0  0  0
    1.9347    1.4551    0.5309 H   0  0  0  0  0  0  0  0  0  0  0  0
    7.4977    2.2501   -0.8033 H   0  0  0  0  0  0  0  0  0  0  0  0
    6.2527    2.3465    0.4379 H   0  0  0  0  0  0  0  0  0  0  0  0
    7.4715    1.0128    1.9999 H   0  0  0  0  0  0  0  0  0  0  0  0
    8.7250    1.9317    1.1028 H   0  0  0  0  0  0  0  0  0  0  0  0
    7.9964   -0.8570    0.9080 H   0  0  0  0  0  0  0  0  0  0  0  0
    9.1541   -0.8989   -1.2381 H   0  0  0  0  0  0  0  0  0  0  0  0
    8.8893    0.8517   -1.3197 H   0  0  0  0  0  0  0  0  0  0  0  0
    6.9147   -1.4427   -0.9494 H   0  0  0  0  0  0  0  0  0  0  0  0
    7.0517   -0.2908   -2.3811 H   0  0  0  0  0  0  0  0  0  0  0  0
   -4.7439   -2.4706   -0.0184 H   0  0  0  0  0  0  0  0  0  0  0  0
   -2.2013   -2.8452   -0.1357 H   0  0  0  0  0  0  0  0  0  0  0  0
   -2.2921   -2.0951   -1.8377 H   0  0  0  0  0  0  0  0  0  0  0  0
   -2.8355   -4.2428   -2.3186 H   0  0  0  0  0  0  0  0  0  0  0  0
   -3.9177   -4.4387   -0.8358 H   0  0  0  0  0  0  0  0  0  0  0  0
   -4.4862   -3.1514   -3.4902 H   0  0  0  0  0  0  0  0  0  0  0  0
   -5.6420   -3.5443   -2.1099 H   0  0  0  0  0  0  0  0  0  0  0  0
   -4.0683   -0.9883   -2.5557 H   0  0  0  0  0  0  0  0  0  0  0  0
   -5.7643   -1.2846   -1.8519 H   0  0  0  0  0  0  0  0  0  0  0  0
  1  2  1  0
  2  3  2  0
  2  4  1  0
  4  5  2  0
  5  6  1  0
  5  7  1  0
  7  8  2  0
  8  9  1  0
  9 10  2  0
 10 11  1  0
 11 12  1  0
 12 13  2  0
 13 14  1  0
 14 15  2  0
 15 16  1  0
 16 17  2  0
 15 18  1  0
 18 19  1  0
 19 20  1  0
 20 21  1  0
 21 22  1  0
 22 23  1  0
 10 24  1  0
 24 25  2  0
 25 26  1  0
 26 27  1  0
 27 28  1  0
 28 29  1  0
 29 30  1  0
 30 31  1  0
 26 32  1  0
 32 33  2  0
 32  4  1  0
 25  7  1  0
 31 27  1  0
 17 12  1  0
 23 18  1  0
  1 34  1  0
  1 35  1  0
  1 36  1  0
  6 37  1  0
  6 38  1  0
  6 39  1  0
  8 40  1  0
 11 41  1  0
 14 42  1  0
 16 43  1  0
 17 44  1  0
 19 45  1  0
 19 46  1  0
 20 47  1  0
 20 48  1  0
 21 49  1  0
 22 50  1  0
 22 51  1  0
 23 52  1  0
 23 53  1  0
 27 54  1  0
 28 55  1  0
 28 56  1  0
 29 57  1  0
 29 58  1  0
 30 59  1  0
 30 60  1  0
 31 61  1  0
 31 62  1  0
M  END
$$$$
