
     RDKit          3D

 25 25  0  0  0  0  0  0  0  0999 V2000
   -3.5341   -0.6857   -0.1507 C   0  0  0  0  0  0  0  0  0  0  0  0
   -2.2462   -0.0919   -0.4463 N   0  0  0  0  0  0  0  0  0  0  0  0
   -1.7389    0.6833    0.6586 C   0  0  0  0  0  0  0  0  0  0  0  0
   -0.3932    1.2537    0.2739 C   0  0  2  0  0  0  0  0  0  0  0  0
   -0.5174    2.0542   -0.8568 O   0  0  0  0  0  0  0  0  0  0  0  0
    0.6745    0.2705    0.1213 C   0  0  0  0  0  0  0  0  0  0  0  0
    1.7988    0.8329   -0.4852 C   0  0  0  0  0  0  0  0  0  0  0  0
    2.9426    0.0626   -0.7219 C   0  0  0  0  0  0  0  0  0  0  0  0
    4.0811    0.5701   -1.3185 O   0  0  0  0  0  0  0  0  0  0  0  0
    2.9446   -1.2699   -0.3452 C   0  0  0  0  0  0  0  0  0  0  0  0
    1.8378   -1.8310    0.2541 C   0  0  0  0  0  0  0  0  0  0  0  0
    0.7386   -1.0489    0.4698 C   0  0  0  0  0  0  0  0  0  0  0  0
   -4.1967    0.1614    0.1632 H   0  0  0  0  0  0  0  0  0  0  0  0
   -3.9844   -1.1654   -1.0183 H   0  0  0  0  0  0  0  0  0  0  0  0
   -3.4491   -1.3562    0.7245 H   0  0  0  0  0  0  0  0  0  0  0  0
   -1.5654   -0.7477   -0.8437 H   0  0  0  0  0  0  0  0  0  0  0  0
   -2.4255    1.5326    0.8538 H   0  0  0  0  0  0  0  0  0  0  0  0
   -1.6921    0.1193    1.5988 H   0  0  0  0  0  0  0  0  0  0  0  0
   -0.0748    1.9626    1.0944 H   0  0  0  0  0  0  0  0  0  0  0  0
   -1.2413    1.7299   -1.4624 H   0  0  0  0  0  0  0  0  0  0  0  0
    1.9150    1.8589   -0.8221 H   0  0  0  0  0  0  0  0  0  0  0  0
    4.6620    1.2768   -0.8828 H   0  0  0  0  0  0  0  0  0  0  0  0
    3.8214   -1.8760   -0.5224 H   0  0  0  0  0  0  0  0  0  0  0  0
    1.7872   -2.8730    0.5695 H   0  0  0  0  0  0  0  0  0  0  0  0
   -0.1445   -1.4231    0.9323 H   0  0  0  0  0  0  0  0  0  0  0  0
  1  2  1  0
  2  3  1  0
  3  4  1  0
  4  5  1  0
  4  6  1  0
  6  7  2  0
  7  8  1  0
  8  9  1  0
  8 10  2  0
 10 11  1  0
 11 12  2  0
 12  6  1  0
  1 13  1  0
  1 14  1  0
  1 15  1  0
  2 16  1  0
  3 17  1  0
  3 18  1  0
  4 19  1  1
  5 20  1  0
  7 21  1  0
  9 22  1  0
 10 23  1  0
 11 24  1  0
 12 25  1  0
M  END
$$$$
