
     RDKit          3D

 56 61  0  0  0  0  0  0  0  0999 V2000
    6.0184   -0.7707    1.3210 C   0  0  0  0  0  0  0  0  0  0  0  0
    5.8430    0.4343    0.5926 N   0  0  0  0  0  0  0  0  0  0  0  0
    6.9244    1.4427    0.7377 C   0  0  0  0  0  0  0  0  0  0  0  0
    4.7692    0.7552   -0.2342 C   0  0  0  0  0  0  0  0  0  0  0  0
    4.8282    1.9445   -0.8119 O   0  0  0  0  0  0  0  0  0  0  0  0
    3.6117    0.0543   -0.5851 N   0  0  0  0  0  0  0  0  0  0  0  0
    3.4036   -1.2555   -0.0380 C   0  0  0  0  0  0  0  0  0  0  0  0
    2.3054   -2.0112   -0.7962 C   0  0  0  0  0  0  0  0  0  0  0  0
    1.0261   -1.5031   -0.3173 N   0  0  0  0  0  0  0  0  0  0  0  0
    0.0264   -2.1467    0.2551 C   0  0  0  0  0  0  0  0  0  0  0  0
   -1.0241   -1.2698    0.5617 C   0  0  0  0  0  0  0  0  0  0  0  0
   -2.2672   -1.6273    1.2185 C   0  0  0  0  0  0  0  0  0  0  0  0
   -3.5032   -1.3607    0.8337 C   0  0  0  0  0  0  0  0  0  0  0  0
   -3.7972   -0.6234   -0.3928 C   0  0  0  0  0  0  0  0  0  0  0  0
   -3.2196   -0.8722   -1.6474 C   0  0  0  0  0  0  0  0  0  0  0  0
   -3.7256    0.0170   -2.5090 N   0  0  0  0  0  0  0  0  0  0  0  0
   -4.6077    0.8323   -1.8627 C   0  0  0  0  0  0  0  0  0  0  0  0
   -5.3779    1.8956   -2.2925 C   0  0  0  0  0  0  0  0  0  0  0  0
   -6.1818    2.5422   -1.3807 C   0  0  0  0  0  0  0  0  0  0  0  0
   -6.2219    2.1358   -0.0452 C   0  0  0  0  0  0  0  0  0  0  0  0
   -5.4220    1.0644    0.3028 C   0  0  0  0  0  0  0  0  0  0  0  0
   -4.6218    0.4151   -0.5933 N   0  0  0  0  0  0  0  0  0  0  0  0
   -4.4514   -1.9268    1.7971 C   0  0  0  0  0  0  0  0  0  0  0  0
   -5.7121   -1.8528    1.7215 O   0  0  0  0  0  0  0  0  0  0  0  0
   -3.7100   -2.5841    2.8445 N   0  0  0  0  0  0  0  0  0  0  0  0
   -2.3528   -2.3966    2.4828 C   0  0  0  0  0  0  0  0  0  0  0  0
   -1.3433   -2.8022    3.1075 O   0  0  0  0  0  0  0  0  0  0  0  0
   -0.5961   -0.0340    0.1358 C   0  0  0  0  0  0  0  0  0  0  0  0
   -1.1530    1.2268    0.1615 C   0  0  0  0  0  0  0  0  0  0  0  0
   -0.4274    2.2785   -0.3547 C   0  0  0  0  0  0  0  0  0  0  0  0
    0.8354    2.1301   -0.8976 C   0  0  0  0  0  0  0  0  0  0  0  0
    1.3688    0.8741   -0.9119 C   0  0  0  0  0  0  0  0  0  0  0  0
    0.6743   -0.2003   -0.4054 C   0  0  0  0  0  0  0  0  0  0  0  0
    2.7298    0.8018   -1.5094 C   0  0  0  0  0  0  0  0  0  0  0  0
    6.4304   -1.5706    0.6324 H   0  0  0  0  0  0  0  0  0  0  0  0
    6.8732   -0.6337    2.0866 H   0  0  0  0  0  0  0  0  0  0  0  0
    5.1556   -1.1279    1.9056 H   0  0  0  0  0  0  0  0  0  0  0  0
    7.8559    0.8936    0.8369 H   0  0  0  0  0  0  0  0  0  0  0  0
    6.7031    1.9715    1.6786 H   0  0  0  0  0  0  0  0  0  0  0  0
    6.9334    2.1051   -0.1581 H   0  0  0  0  0  0  0  0  0  0  0  0
    3.0648   -1.2512    1.0103 H   0  0  0  0  0  0  0  0  0  0  0  0
    4.2969   -1.8836   -0.1481 H   0  0  0  0  0  0  0  0  0  0  0  0
    2.4108   -1.8046   -1.8770 H   0  0  0  0  0  0  0  0  0  0  0  0
    2.4278   -3.0783   -0.6159 H   0  0  0  0  0  0  0  0  0  0  0  0
    0.0320   -3.2152    0.4554 H   0  0  0  0  0  0  0  0  0  0  0  0
   -2.5113   -1.6350   -1.8492 H   0  0  0  0  0  0  0  0  0  0  0  0
   -5.3642    2.2270   -3.3152 H   0  0  0  0  0  0  0  0  0  0  0  0
   -6.8034    3.3797   -1.6660 H   0  0  0  0  0  0  0  0  0  0  0  0
   -6.8540    2.6467    0.6680 H   0  0  0  0  0  0  0  0  0  0  0  0
   -5.4620    0.7729    1.3582 H   0  0  0  0  0  0  0  0  0  0  0  0
   -4.1250   -3.0711    3.6584 H   0  0  0  0  0  0  0  0  0  0  0  0
   -2.1364    1.3704    0.5973 H   0  0  0  0  0  0  0  0  0  0  0  0
   -0.8586    3.2659   -0.3372 H   0  0  0  0  0  0  0  0  0  0  0  0
    1.4160    2.9381   -1.3056 H   0  0  0  0  0  0  0  0  0  0  0  0
    3.1091    1.8294   -1.6294 H   0  0  0  0  0  0  0  0  0  0  0  0
    2.7575    0.2629   -2.4742 H   0  0  0  0  0  0  0  0  0  0  0  0
  1  2  1  0
  2  3  1  0
  2  4  1  0
  4  5  2  0
  4  6  1  0
  6  7  1  0
  7  8  1  0
  8  9  1  0
  9 10  1  0
 10 11  2  0
 11 12  1  0
 12 13  2  0
 13 14  1  0
 14 15  2  0
 15 16  1  0
 16 17  2  0
 17 18  1  0
 18 19  2  0
 19 20  1  0
 20 21  2  0
 21 22  1  0
 13 23  1  0
 23 24  2  0
 23 25  1  0
 25 26  1  0
 26 27  2  0
 11 28  1  0
 28 29  2  0
 29 30  1  0
 30 31  2  0
 31 32  1  0
 32 33  2  0
 32 34  1  0
 34  6  1  0
 33  9  1  0
 26 12  1  0
 33 28  1  0
 22 14  1  0
 22 17  1  0
  1 35  1  0
  1 36  1  0
  1 37  1  0
  3 38  1  0
  3 39  1  0
  3 40  1  0
  7 41  1  0
  7 42  1  0
  8 43  1  0
  8 44  1  0
 10 45  1  0
 15 46  1  0
 18 47  1  0
 19 48  1  0
 20 49  1  0
 21 50  1  0
 25 51  1  0
 29 52  1  0
 30 53  1  0
 31 54  1  0
 34 55  1  0
 34 56  1  0
M  END
$$$$
