
     RDKit          3D

 31 34  0  0  0  0  0  0  0  0999 V2000
    1.1313    3.6248   -0.4583 O   0  0  0  0  0  0  0  0  0  0  0  0
    1.1526    2.3715   -0.5267 C   0  0  0  0  0  0  0  0  0  0  0  0
    0.0091    1.7608   -1.2084 C   0  0  0  0  0  0  0  0  0  0  0  0
   -0.5829    0.5942   -0.5095 C   0  0  0  0  0  0  0  0  0  0  0  0
    0.1020   -0.4148    0.1646 C   0  0  0  0  0  0  0  0  0  0  0  0
   -0.8033   -1.2506    0.6405 N   0  0  0  0  0  0  0  0  0  0  0  0
   -2.0578   -0.8291    0.3042 C   0  0  0  0  0  0  0  0  0  0  0  0
   -3.3250   -1.3065    0.5337 C   0  0  0  0  0  0  0  0  0  0  0  0
   -4.4603   -0.6529    0.0580 C   0  0  0  0  0  0  0  0  0  0  0  0
   -4.3336    0.5121   -0.6690 C   0  0  0  0  0  0  0  0  0  0  0  0
   -5.9017    1.3922   -1.3118 Br  0  0  0  0  0  0  0  0  0  0  0  0
   -3.0606    1.0005   -0.9050 C   0  0  0  0  0  0  0  0  0  0  0  0
   -1.9429    0.3465   -0.4300 C   0  0  0  0  0  0  0  0  0  0  0  0
    1.5314   -0.5909    0.3552 C   0  0  0  0  0  0  0  0  0  0  0  0
    1.8922   -1.8929    0.5892 C   0  0  0  0  0  0  0  0  0  0  0  0
    3.2349   -2.2001    0.7931 C   0  0  0  0  0  0  0  0  0  0  0  0
    4.2134   -1.2368    0.7671 C   0  0  0  0  0  0  0  0  0  0  0  0
    3.8275    0.0609    0.5304 C   0  0  0  0  0  0  0  0  0  0  0  0
    2.5019    0.4137    0.3218 C   0  0  0  0  0  0  0  0  0  0  0  0
    2.3140    1.7996    0.0890 N   0  0  0  0  0  0  0  0  0  0  0  0
   -0.7954    2.5156   -1.3251 H   0  0  0  0  0  0  0  0  0  0  0  0
    0.2916    1.4882   -2.2675 H   0  0  0  0  0  0  0  0  0  0  0  0
   -0.6330   -2.1004    1.1910 H   0  0  0  0  0  0  0  0  0  0  0  0
   -3.4278   -2.2052    1.0942 H   0  0  0  0  0  0  0  0  0  0  0  0
   -5.4567   -1.0584    0.2574 H   0  0  0  0  0  0  0  0  0  0  0  0
   -2.9311    1.9065   -1.4686 H   0  0  0  0  0  0  0  0  0  0  0  0
    1.1413   -2.6634    0.6081 H   0  0  0  0  0  0  0  0  0  0  0  0
    3.4771   -3.2293    0.9732 H   0  0  0  0  0  0  0  0  0  0  0  0
    5.2566   -1.4414    0.9206 H   0  0  0  0  0  0  0  0  0  0  0  0
    4.5579    0.8597    0.4991 H   0  0  0  0  0  0  0  0  0  0  0  0
    3.0769    2.4262    0.3895 H   0  0  0  0  0  0  0  0  0  0  0  0
  1  2  2  0
  2  3  1  0
  3  4  1  0
  4  5  2  0
  5  6  1  0
  6  7  1  0
  7  8  2  0
  8  9  1  0
  9 10  2  0
 10 11  1  0
 10 12  1  0
 12 13  2  0
  5 14  1  0
 14 15  2  0
 15 16  1  0
 16 17  2  0
 17 18  1  0
 18 19  2  0
 19 20  1  0
 20  2  1  0
 13  4  1  0
 19 14  1  0
 13  7  1  0
  3 21  1  0
  3 22  1  0
  6 23  1  0
  8 24  1  0
  9 25  1  0
 12 26  1  0
 15 27  1  0
 16 28  1  0
 17 29  1  0
 18 30  1  0
 20 31  1  0
M  END
$$$$
