
     RDKit          3D

 76 82  0  0  0  0  0  0  0  0999 V2000
   -9.3647   -1.1247    2.0867 C   0  0  0  0  0  0  0  0  0  0  0  0
   -8.1432   -1.3278    1.3291 N   0  0  0  0  0  0  0  0  0  0  0  0
   -8.1619   -2.2922    0.2463 C   0  0  0  0  0  0  0  0  0  0  0  0
   -6.9500   -0.6356    1.6013 C   0  0  0  0  0  0  0  0  0  0  0  0
   -6.9136    0.1927    2.5253 O   0  0  0  0  0  0  0  0  0  0  0  0
   -5.7688   -0.8862    0.8097 C   0  0  0  0  0  0  0  0  0  0  0  0
   -5.1375   -2.1358    0.8617 C   0  0  0  0  0  0  0  0  0  0  0  0
   -4.0753   -2.0466    0.0041 C   0  0  0  0  0  0  0  0  0  0  0  0
   -3.1172   -2.9729   -0.3423 C   0  0  0  0  0  0  0  0  0  0  0  0
   -2.1955   -2.5924   -1.2237 N   0  0  0  0  0  0  0  0  0  0  0  0
   -2.1678   -1.3666   -1.7732 C   0  0  0  0  0  0  0  0  0  0  0  0
   -1.1488   -1.0741   -2.7137 N   0  0  0  0  0  0  0  0  0  0  0  0
    0.1699   -0.6659   -2.3249 C   0  0  0  0  0  0  0  0  0  0  0  0
    0.5245   -0.5372   -0.9967 C   0  0  0  0  0  0  0  0  0  0  0  0
    1.8245   -0.1487   -0.6570 C   0  0  0  0  0  0  0  0  0  0  0  0
    2.7746    0.1130   -1.6223 C   0  0  0  0  0  0  0  0  0  0  0  0
    4.0948    0.4993   -1.2849 N   0  0  0  0  0  0  0  0  0  0  0  0
    4.6187    0.6542    0.0634 C   0  0  0  0  0  0  0  0  0  0  0  0
    6.1085    0.4600   -0.0891 C   0  0  0  0  0  0  0  0  0  0  0  0
    6.8580    1.6159    0.4987 C   0  0  0  0  0  0  0  0  0  0  0  0
    8.2472    1.2628    0.9547 C   0  0  0  0  0  0  0  0  0  0  0  0
    9.0115    0.7323   -0.2276 C   0  0  0  0  0  0  0  0  0  0  0  0
    8.7833   -0.7625   -0.2063 C   0  0  0  0  0  0  0  0  0  0  0  0
    7.8837   -0.9458    0.9914 C   0  0  0  0  0  0  0  0  0  0  0  0
    6.4616   -0.8659    0.5141 C   0  0  0  0  0  0  0  0  0  0  0  0
    8.1477    0.1620    1.8849 N   0  0  0  0  0  0  0  0  0  0  0  0
    9.3742   -0.0320    2.6385 C   0  0  0  0  0  0  0  0  0  0  0  0
    6.3550    0.4366   -1.4674 O   0  0  0  0  0  0  0  0  0  0  0  0
    5.1993    0.8107   -2.1182 C   0  0  0  0  0  0  0  0  0  0  0  0
    5.0611    1.3486   -3.2687 O   0  0  0  0  0  0  0  0  0  0  0  0
    2.3761   -0.0275   -2.9366 C   0  0  0  0  0  0  0  0  0  0  0  0
    1.1197   -0.4025   -3.2422 N   0  0  0  0  0  0  0  0  0  0  0  0
   -3.0961   -0.4594   -1.4414 N   0  0  0  0  0  0  0  0  0  0  0  0
   -4.0417   -0.8062   -0.5564 C   0  0  0  0  0  0  0  0  0  0  0  0
   -5.0958   -0.0987   -0.0488 N   0  0  0  0  0  0  0  0  0  0  0  0
   -5.4393    1.2467   -0.3738 C   0  0  0  0  0  0  0  0  0  0  0  0
   -6.8583    1.4197   -0.8728 C   0  0  0  0  0  0  0  0  0  0  0  0
   -7.0422    2.9204   -0.6902 C   0  0  0  0  0  0  0  0  0  0  0  0
   -6.4653    3.1051    0.7143 C   0  0  0  0  0  0  0  0  0  0  0  0
   -5.2030    2.2543    0.6979 C   0  0  0  0  0  0  0  0  0  0  0  0
  -10.0741   -0.5641    1.4772 H   0  0  0  0  0  0  0  0  0  0  0  0
   -9.7798   -2.1478    2.2826 H   0  0  0  0  0  0  0  0  0  0  0  0
   -9.0892   -0.6715    3.0437 H   0  0  0  0  0  0  0  0  0  0  0  0
   -9.1861   -2.4754   -0.1095 H   0  0  0  0  0  0  0  0  0  0  0  0
   -7.8108   -3.2700    0.6779 H   0  0  0  0  0  0  0  0  0  0  0  0
   -7.5208   -1.9861   -0.6155 H   0  0  0  0  0  0  0  0  0  0  0  0
   -5.4191   -2.9964    1.4508 H   0  0  0  0  0  0  0  0  0  0  0  0
   -3.1511   -3.9523    0.1058 H   0  0  0  0  0  0  0  0  0  0  0  0
   -1.3496   -1.1509   -3.7288 H   0  0  0  0  0  0  0  0  0  0  0  0
   -0.2127   -0.7375   -0.2296 H   0  0  0  0  0  0  0  0  0  0  0  0
    2.0987   -0.0507    0.3850 H   0  0  0  0  0  0  0  0  0  0  0  0
    4.1647   -0.1057    0.7603 H   0  0  0  0  0  0  0  0  0  0  0  0
    4.4053    1.6400    0.5003 H   0  0  0  0  0  0  0  0  0  0  0  0
    6.9501    2.4565   -0.2225 H   0  0  0  0  0  0  0  0  0  0  0  0
    6.3166    2.0158    1.3804 H   0  0  0  0  0  0  0  0  0  0  0  0
    8.6865    2.1639    1.4059 H   0  0  0  0  0  0  0  0  0  0  0  0
   10.0906    0.9895   -0.2066 H   0  0  0  0  0  0  0  0  0  0  0  0
    8.5811    1.1118   -1.1741 H   0  0  0  0  0  0  0  0  0  0  0  0
    8.2396   -1.1271   -1.1012 H   0  0  0  0  0  0  0  0  0  0  0  0
    9.7480   -1.3109   -0.1118 H   0  0  0  0  0  0  0  0  0  0  0  0
    8.0611   -1.9245    1.4271 H   0  0  0  0  0  0  0  0  0  0  0  0
    5.8071   -1.1099    1.3783 H   0  0  0  0  0  0  0  0  0  0  0  0
    6.3088   -1.6735   -0.2324 H   0  0  0  0  0  0  0  0  0  0  0  0
    9.9891   -0.8428    2.2119 H   0  0  0  0  0  0  0  0  0  0  0  0
    9.0679   -0.3428    3.6655 H   0  0  0  0  0  0  0  0  0  0  0  0
    9.9414    0.9149    2.7699 H   0  0  0  0  0  0  0  0  0  0  0  0
    3.1015    0.1704   -3.7336 H   0  0  0  0  0  0  0  0  0  0  0  0
   -4.7958    1.5667   -1.2505 H   0  0  0  0  0  0  0  0  0  0  0  0
   -6.9266    1.1694   -1.9592 H   0  0  0  0  0  0  0  0  0  0  0  0
   -7.5965    0.9070   -0.2588 H   0  0  0  0  0  0  0  0  0  0  0  0
   -8.1163    3.1536   -0.7377 H   0  0  0  0  0  0  0  0  0  0  0  0
   -6.4385    3.4681   -1.4441 H   0  0  0  0  0  0  0  0  0  0  0  0
   -6.2225    4.1682    0.8875 H   0  0  0  0  0  0  0  0  0  0  0  0
   -7.1709    2.6792    1.4316 H   0  0  0  0  0  0  0  0  0  0  0  0
   -4.9310    1.8598    1.6772 H   0  0  0  0  0  0  0  0  0  0  0  0
   -4.3745    2.9778    0.4348 H   0  0  0  0  0  0  0  0  0  0  0  0
  1  2  1  0
  2  3  1  0
  2  4  1  0
  4  5  2  0
  4  6  1  0
  6  7  2  0
  7  8  1  0
  8  9  2  0
  9 10  1  0
 10 11  2  0
 11 12  1  0
 12 13  1  0
 13 14  2  0
 14 15  1  0
 15 16  2  0
 16 17  1  0
 17 18  1  0
 18 19  1  0
 19 20  1  0
 20 21  1  0
 21 22  1  0
 22 23  1  0
 23 24  1  0
 24 25  1  0
 24 26  1  0
 26 27  1  0
 19 28  1  0
 28 29  1  0
 29 30  2  0
 16 31  1  0
 31 32  2  0
 11 33  1  0
 33 34  2  0
 34 35  1  0
 35 36  1  0
 36 37  1  0
 37 38  1  0
 38 39  1  0
 39 40  1  0
 35  6  1  0
 40 36  1  0
 34  8  1  0
 32 13  1  0
 29 17  1  0
 25 19  1  0
 26 21  1  0
  1 41  1  0
  1 42  1  0
  1 43  1  0
  3 44  1  0
  3 45  1  0
  3 46  1  0
  7 47  1  0
  9 48  1  0
 12 49  1  0
 14 50  1  0
 15 51  1  0
 18 52  1  0
 18 53  1  0
 20 54  1  0
 20 55  1  0
 21 56  1  0
 22 57  1  0
 22 58  1  0
 23 59  1  0
 23 60  1  0
 24 61  1  0
 25 62  1  0
 25 63  1  0
 27 64  1  0
 27 65  1  0
 27 66  1  0
 31 67  1  0
 36 68  1  0
 37 69  1  0
 37 70  1  0
 38 71  1  0
 38 72  1  0
 39 73  1  0
 39 74  1  0
 40 75  1  0
 40 76  1  0
M  END
$$$$
