
     RDKit          3D

 54 58  0  0  0  0  0  0  0  0999 V2000
    2.1419    3.4140   -6.0191 C   0  0  0  0  0  0  0  0  0  0  0  0
    1.7564    3.8619   -4.6835 C   0  0  0  0  0  0  0  0  0  0  0  0
    1.4430    4.9830   -4.3686 O   0  0  0  0  0  0  0  0  0  0  0  0
    1.7773    2.7517   -3.6753 C   0  0  0  0  0  0  0  0  0  0  0  0
    1.9649    1.6341   -3.5883 N   0  0  0  0  0  0  0  0  0  0  0  0
    1.8983    0.7663   -2.6668 N   0  0  0  0  0  0  0  0  0  0  0  0
    2.2480   -0.6567   -2.7610 C   0  0  0  0  0  0  0  0  0  0  0  0
    1.3466   -1.6479   -2.9078 C   0  0  0  0  0  0  0  0  0  0  0  0
    1.7407   -3.0057   -2.9180 C   0  0  0  0  0  0  0  0  0  0  0  0
    3.0462   -3.3600   -2.7892 C   0  0  0  0  0  0  0  0  0  0  0  0
    3.9526   -2.3337   -2.6465 C   0  0  0  0  0  0  0  0  0  0  0  0
    3.6033   -0.9931   -2.6253 C   0  0  0  0  0  0  0  0  0  0  0  0
    1.5071    1.2877   -1.5007 C   0  0  0  0  0  0  0  0  0  0  0  0
    0.8825    1.1231   -0.4008 N   0  0  0  0  0  0  0  0  0  0  0  0
    0.2331    0.6459    0.5075 C   0  0  0  0  0  0  0  0  0  0  0  0
   -0.6310   -0.4175    0.2073 N   0  0  0  0  0  0  0  0  0  0  0  0
   -1.5005   -0.8862    1.0831 C   0  0  0  0  0  0  0  0  0  0  0  0
   -2.3078   -2.0309    0.6755 C   0  0  0  0  0  0  0  0  0  0  0  0
   -3.2343   -2.5892    1.5189 C   0  0  0  0  0  0  0  0  0  0  0  0
   -3.9815   -3.7193    1.1337 C   0  0  0  0  0  0  0  0  0  0  0  0
   -3.7905   -4.2751   -0.0991 C   0  0  0  0  0  0  0  0  0  0  0  0
   -2.8798   -3.7484   -0.9668 C   0  0  0  0  0  0  0  0  0  0  0  0
   -2.1652   -2.6394   -0.5478 C   0  0  0  0  0  0  0  0  0  0  0  0
   -1.5581   -0.3022    2.2965 C   0  0  0  0  0  0  0  0  0  0  0  0
   -0.7432    0.7767    2.7073 C   0  0  0  0  0  0  0  0  0  0  0  0
   -0.8756    1.3736    4.0059 C   0  0  0  0  0  0  0  0  0  0  0  0
   -2.1844    1.7028    4.4108 C   0  0  0  0  0  0  0  0  0  0  0  0
   -2.4146    2.2817    5.6275 C   0  0  0  0  0  0  0  0  0  0  0  0
   -1.4208    2.5737    6.5080 C   0  0  0  0  0  0  0  0  0  0  0  0
   -0.1170    2.2538    6.1122 C   0  0  0  0  0  0  0  0  0  0  0  0
    0.1305    1.6613    4.8717 C   0  0  0  0  0  0  0  0  0  0  0  0
    0.1268    1.2024    1.7953 C   0  0  0  0  0  0  0  0  0  0  0  0
    1.1556    2.2550    2.0738 C   0  0  0  0  0  0  0  0  0  0  0  0
    1.9211    3.0295    2.2961 N   0  0  0  0  0  0  0  0  0  0  0  0
    1.2762    3.1340   -1.9036 S   0  0  0  0  0  0  0  0  0  0  0  0
    3.2536    3.2999   -6.1712 H   0  0  0  0  0  0  0  0  0  0  0  0
    1.7343    2.3642   -6.2311 H   0  0  0  0  0  0  0  0  0  0  0  0
    1.7464    4.1337   -6.7592 H   0  0  0  0  0  0  0  0  0  0  0  0
    0.3091   -1.3919   -3.0280 H   0  0  0  0  0  0  0  0  0  0  0  0
    0.9950   -3.7474   -3.0183 H   0  0  0  0  0  0  0  0  0  0  0  0
    3.3931   -4.4111   -2.8070 H   0  0  0  0  0  0  0  0  0  0  0  0
    5.0077   -2.6275   -2.5543 H   0  0  0  0  0  0  0  0  0  0  0  0
    4.3013   -0.2179   -2.5215 H   0  0  0  0  0  0  0  0  0  0  0  0
   -3.3661   -2.1465    2.4633 H   0  0  0  0  0  0  0  0  0  0  0  0
   -4.7327   -4.1750    1.7973 H   0  0  0  0  0  0  0  0  0  0  0  0
   -4.3632   -5.1763   -0.4001 H   0  0  0  0  0  0  0  0  0  0  0  0
   -2.7319   -4.1692   -1.9286 H   0  0  0  0  0  0  0  0  0  0  0  0
   -1.4301   -2.2128   -1.2206 H   0  0  0  0  0  0  0  0  0  0  0  0
   -2.2566   -0.6145    3.0283 H   0  0  0  0  0  0  0  0  0  0  0  0
   -2.9851    1.4860    3.7455 H   0  0  0  0  0  0  0  0  0  0  0  0
   -3.4670    2.5335    5.9231 H   0  0  0  0  0  0  0  0  0  0  0  0
   -1.6064    3.0215    7.4655 H   0  0  0  0  0  0  0  0  0  0  0  0
    0.6608    2.4844    6.8155 H   0  0  0  0  0  0  0  0  0  0  0  0
    1.1901    1.4602    4.6385 H   0  0  0  0  0  0  0  0  0  0  0  0
  1  2  1  0
  2  3  2  0
  2  4  1  0
  4  5  2  0
  5  6  1  0
  6  7  1  0
  7  8  2  0
  8  9  1  0
  9 10  2  0
 10 11  1  0
 11 12  2  0
  6 13  1  0
 13 14  2  0
 14 15  1  0
 15 16  2  0
 16 17  1  0
 17 18  1  0
 18 19  2  0
 19 20  1  0
 20 21  2  0
 21 22  1  0
 22 23  2  0
 17 24  2  0
 24 25  1  0
 25 26  1  0
 26 27  2  0
 27 28  1  0
 28 29  2  0
 29 30  1  0
 30 31  2  0
 25 32  2  0
 32 33  1  0
 33 34  3  0
 13 35  1  0
 35  4  1  0
 12  7  1  0
 32 15  1  0
 23 18  1  0
 31 26  1  0
  1 36  1  0
  1 37  1  0
  1 38  1  0
  8 39  1  0
  9 40  1  0
 10 41  1  0
 11 42  1  0
 12 43  1  0
 19 44  1  0
 20 45  1  0
 21 46  1  0
 22 47  1  0
 23 48  1  0
 24 49  1  0
 27 50  1  0
 28 51  1  0
 29 52  1  0
 30 53  1  0
 31 54  1  0
M  END
$$$$
