
     RDKit          3D

 68 73  0  0  0  0  0  0  0  0999 V2000
    4.5775    1.1219    1.8151 C   0  0  0  0  0  0  0  0  0  0  0  0
    4.1434    0.8538    0.3595 C   0  0  1  0  0  0  0  0  0  0  0  0
    3.0274    0.1516    0.2438 O   0  0  0  0  0  0  0  0  0  0  0  0
    2.3469   -0.9292   -0.1117 C   0  0  0  0  0  0  0  0  0  0  0  0
    0.9789   -0.9694    0.0876 N   0  0  0  0  0  0  0  0  0  0  0  0
    0.2187   -2.0031   -0.2348 C   0  0  0  0  0  0  0  0  0  0  0  0
   -1.2347   -1.9690    0.0081 C   0  0  0  0  0  0  0  0  0  0  0  0
   -2.0683   -3.0038   -0.3025 C   0  0  0  0  0  0  0  0  0  0  0  0
   -3.4462   -2.9436   -0.0618 C   0  0  0  0  0  0  0  0  0  0  0  0
   -4.4760   -3.7767   -0.2561 N   0  0  0  0  0  0  0  0  0  0  0  0
   -5.5768   -3.1832    0.1683 N   0  0  0  0  0  0  0  0  0  0  0  0
   -6.9419   -3.7179    0.1539 C   0  0  0  0  0  0  0  0  0  0  0  0
   -5.3113   -1.9569    0.6492 C   0  0  0  0  0  0  0  0  0  0  0  0
   -3.9470   -1.7965    0.5048 C   0  0  0  0  0  0  0  0  0  0  0  0
   -3.0985   -0.7568    0.8152 C   0  0  0  0  0  0  0  0  0  0  0  0
   -3.6178    0.4189    1.3967 O   0  0  0  0  0  0  0  0  0  0  0  0
   -2.7852    1.4890    1.7254 C   0  0  2  0  0  0  0  0  0  0  0  0
   -2.8365    1.8592    3.1918 C   0  0  0  0  0  0  0  0  0  0  0  0
   -3.0924    2.7382    0.9289 C   0  0  1  0  0  0  0  0  0  0  0  0
   -2.9357    2.5261   -0.5485 C   0  0  0  0  0  0  0  0  0  0  0  0
   -4.2881    2.2358   -0.9787 N   0  0  0  0  0  0  0  0  0  0  0  0
   -5.2223    2.6258    0.0165 C   0  0  0  0  0  0  0  0  0  0  0  0
   -6.4626    2.4519   -0.0865 O   0  0  0  0  0  0  0  0  0  0  0  0
   -4.4863    3.2484    1.1470 C   0  0  0  0  0  0  0  0  0  0  0  0
   -1.7818   -0.8737    0.5600 N   0  0  0  0  0  0  0  0  0  0  0  0
    0.8457   -3.0851   -0.7975 C   0  0  0  0  0  0  0  0  0  0  0  0
    2.1999   -3.1198   -1.0264 C   0  0  0  0  0  0  0  0  0  0  0  0
    3.0436   -4.0440   -1.5523 N   0  0  0  0  0  0  0  0  0  0  0  0
    4.2805   -3.5741   -1.5447 N   0  0  0  0  0  0  0  0  0  0  0  0
    5.4759   -4.2572   -2.0209 C   0  0  0  0  0  0  0  0  0  0  0  0
    4.2901   -2.3381   -1.0188 C   0  0  0  0  0  0  0  0  0  0  0  0
    2.9793   -2.0390   -0.6869 C   0  0  0  0  0  0  0  0  0  0  0  0
    4.0759    2.2632   -0.2585 C   0  0  2  0  0  0  0  0  0  0  0  0
    3.6570    2.1506   -1.6993 C   0  0  0  0  0  0  0  0  0  0  0  0
    4.2411    3.3434   -2.3121 N   0  0  0  0  0  0  0  0  0  0  0  0
    5.2236    3.9002   -1.4706 C   0  0  0  0  0  0  0  0  0  0  0  0
    5.8227    5.0060   -1.5912 O   0  0  0  0  0  0  0  0  0  0  0  0
    5.4305    2.8959   -0.3667 C   0  0  0  0  0  0  0  0  0  0  0  0
    5.2955    1.9677    1.8177 H   0  0  0  0  0  0  0  0  0  0  0  0
    3.6441    1.3335    2.3683 H   0  0  0  0  0  0  0  0  0  0  0  0
    5.0809    0.2570    2.2531 H   0  0  0  0  0  0  0  0  0  0  0  0
    5.0462    0.3687   -0.0907 H   0  0  0  0  0  0  0  0  0  0  0  0
   -1.6817   -3.8911   -0.7420 H   0  0  0  0  0  0  0  0  0  0  0  0
   -6.8859   -4.7627   -0.1771 H   0  0  0  0  0  0  0  0  0  0  0  0
   -7.3577   -3.6212    1.1804 H   0  0  0  0  0  0  0  0  0  0  0  0
   -7.5285   -3.0578   -0.5005 H   0  0  0  0  0  0  0  0  0  0  0  0
   -5.9427   -1.2051    1.0678 H   0  0  0  0  0  0  0  0  0  0  0  0
   -1.7293    1.2115    1.4586 H   0  0  0  0  0  0  0  0  0  0  0  0
   -2.2734    1.1750    3.8381 H   0  0  0  0  0  0  0  0  0  0  0  0
   -3.9201    1.8557    3.4771 H   0  0  0  0  0  0  0  0  0  0  0  0
   -2.4920    2.9240    3.2674 H   0  0  0  0  0  0  0  0  0  0  0  0
   -2.3877    3.5379    1.2293 H   0  0  0  0  0  0  0  0  0  0  0  0
   -2.3154    1.6449   -0.7957 H   0  0  0  0  0  0  0  0  0  0  0  0
   -2.4799    3.3846   -1.0829 H   0  0  0  0  0  0  0  0  0  0  0  0
   -4.4962    1.7925   -1.9170 H   0  0  0  0  0  0  0  0  0  0  0  0
   -4.9299    2.9785    2.1100 H   0  0  0  0  0  0  0  0  0  0  0  0
   -4.5293    4.3675    1.0266 H   0  0  0  0  0  0  0  0  0  0  0  0
    0.2729   -3.9496   -1.0768 H   0  0  0  0  0  0  0  0  0  0  0  0
    5.2551   -5.3396   -2.1514 H   0  0  0  0  0  0  0  0  0  0  0  0
    6.3347   -4.0416   -1.3850 H   0  0  0  0  0  0  0  0  0  0  0  0
    5.6718   -3.8656   -3.0584 H   0  0  0  0  0  0  0  0  0  0  0  0
    5.1301   -1.7167   -0.8834 H   0  0  0  0  0  0  0  0  0  0  0  0
    3.4332    2.8897    0.3589 H   0  0  0  0  0  0  0  0  0  0  0  0
    4.0894    1.2164   -2.1093 H   0  0  0  0  0  0  0  0  0  0  0  0
    2.5471    2.1677   -1.7390 H   0  0  0  0  0  0  0  0  0  0  0  0
    3.9642    3.7195   -3.2372 H   0  0  0  0  0  0  0  0  0  0  0  0
    5.7104    3.4897    0.5273 H   0  0  0  0  0  0  0  0  0  0  0  0
    6.2248    2.2260   -0.7134 H   0  0  0  0  0  0  0  0  0  0  0  0
  1  2  1  0
  2  3  1  0
  3  4  1  0
  4  5  2  0
  5  6  1  0
  6  7  1  0
  7  8  2  0
  8  9  1  0
  9 10  2  0
 10 11  1  0
 11 12  1  0
 11 13  1  0
 13 14  2  0
 14 15  1  0
 15 16  1  0
 16 17  1  0
 17 18  1  0
 17 19  1  0
 19 20  1  0
 20 21  1  0
 21 22  1  0
 22 23  2  0
 22 24  1  0
 15 25  2  0
  6 26  2  0
 26 27  1  0
 27 28  2  0
 28 29  1  0
 29 30  1  0
 29 31  1  0
 31 32  2  0
  2 33  1  0
 33 34  1  0
 34 35  1  0
 35 36  1  0
 36 37  2  0
 36 38  1  0
 32  4  1  0
 38 33  1  0
 25  7  1  0
 32 27  1  0
 14  9  1  0
 24 19  1  0
  1 39  1  0
  1 40  1  0
  1 41  1  0
  2 42  1  6
  8 43  1  0
 12 44  1  0
 12 45  1  0
 12 46  1  0
 13 47  1  0
 17 48  1  6
 18 49  1  0
 18 50  1  0
 18 51  1  0
 19 52  1  1
 20 53  1  0
 20 54  1  0
 21 55  1  0
 24 56  1  0
 24 57  1  0
 26 58  1  0
 30 59  1  0
 30 60  1  0
 30 61  1  0
 31 62  1  0
 33 63  1  1
 34 64  1  0
 34 65  1  0
 35 66  1  0
 38 67  1  0
 38 68  1  0
M  END
$$$$
