
     RDKit          3D

 72 73  0  0  0  0  0  0  0  0999 V2000
    6.5463   -3.7244   -2.5722 C   0  0  0  0  0  0  0  0  0  0  0  0
    6.2963   -3.1730   -1.1990 C   0  0  0  0  0  0  0  0  0  0  0  0
    6.4966   -1.7684   -1.2530 O   0  0  0  0  0  0  0  0  0  0  0  0
    6.3301   -0.9741   -0.1349 C   0  0  0  0  0  0  0  0  0  0  0  0
    5.9906   -1.7236    0.8398 O   0  0  0  0  0  0  0  0  0  0  0  0
    6.3898    0.4022    0.3774 C   0  0  1  0  0  0  0  0  0  0  0  0
    6.7855    1.2594   -0.7344 N   0  0  0  0  0  0  0  0  0  0  0  0
    5.0454    0.8495    0.9421 C   0  0  0  0  0  0  0  0  0  0  0  0
    4.0592    0.7810   -0.1748 C   0  0  0  0  0  0  0  0  0  0  0  0
    2.6854    1.1875    0.2809 C   0  0  0  0  0  0  0  0  0  0  0  0
    2.8827    1.3892    1.5129 O   0  0  0  0  0  0  0  0  0  0  0  0
    1.4915    1.3080   -0.4811 N   0  0  0  0  0  0  0  0  0  0  0  0
    0.2985    1.7287    0.3049 C   0  0  1  0  0  0  0  0  0  0  0  0
   -0.1281    3.0909   -0.1178 C   0  0  0  0  0  0  0  0  0  0  0  0
   -0.5783    3.2800   -1.8323 S   0  0  0  0  0  0  0  0  0  0  0  0
   -2.1626    2.5096   -2.2465 C   0  0  0  0  0  0  0  0  0  0  0  0
   -3.2942    3.2739   -1.6427 C   0  0  0  0  0  0  0  0  0  0  0  0
   -3.8879    3.1711   -0.4170 C   0  0  0  0  0  0  0  0  0  0  0  0
   -4.9304    3.9719   -0.0219 C   0  0  0  0  0  0  0  0  0  0  0  0
   -5.4518    4.9355   -0.8328 C   0  0  0  0  0  0  0  0  0  0  0  0
   -4.8936    5.0861   -2.0829 C   0  0  0  0  0  0  0  0  0  0  0  0
   -3.8474    4.2628   -2.4432 C   0  0  0  0  0  0  0  0  0  0  0  0
   -0.6696    0.6540    0.1646 C   0  0  0  0  0  0  0  0  0  0  0  0
    0.2318    0.2831   -0.6761 O   0  0  0  0  0  0  0  0  0  0  0  0
   -1.8741   -0.0305    0.4553 N   0  0  0  0  0  0  0  0  0  0  0  0
   -2.1392   -1.2681   -0.2553 C   0  0  1  0  0  0  0  0  0  0  0  0
   -1.6463   -2.3398    0.7026 C   0  0  0  0  0  0  0  0  0  0  0  0
   -1.4339   -3.5251    1.0414 O   0  0  0  0  0  0  0  0  0  0  0  0
   -1.0869   -2.1179    1.9268 O   0  0  0  0  0  0  0  0  0  0  0  0
   -0.6140   -3.0495    2.8449 C   0  0  0  0  0  0  0  0  0  0  0  0
   -1.6670   -4.0119    3.3324 C   0  0  0  0  0  0  0  0  0  0  0  0
   -3.5793   -1.4757   -0.4385 C   0  0  0  0  0  0  0  0  0  0  0  0
   -4.1097   -2.7334   -0.1458 C   0  0  0  0  0  0  0  0  0  0  0  0
   -5.4563   -2.9782   -0.3007 C   0  0  0  0  0  0  0  0  0  0  0  0
   -6.3410   -2.0189   -0.7440 C   0  0  0  0  0  0  0  0  0  0  0  0
   -5.8617   -0.7475   -1.0490 C   0  0  0  0  0  0  0  0  0  0  0  0
   -4.5092   -0.5645   -0.8745 C   0  0  0  0  0  0  0  0  0  0  0  0
    6.3944   -2.9139   -3.3339 H   0  0  0  0  0  0  0  0  0  0  0  0
    7.5474   -4.1908   -2.6649 H   0  0  0  0  0  0  0  0  0  0  0  0
    5.8100   -4.5203   -2.8299 H   0  0  0  0  0  0  0  0  0  0  0  0
    5.2320   -3.3698   -0.9413 H   0  0  0  0  0  0  0  0  0  0  0  0
    6.9443   -3.6425   -0.4292 H   0  0  0  0  0  0  0  0  0  0  0  0
    7.1982    0.4529    1.1379 H   0  0  0  0  0  0  0  0  0  0  0  0
    6.3417    0.8966   -1.6064 H   0  0  0  0  0  0  0  0  0  0  0  0
    7.8127    1.3213   -0.8556 H   0  0  0  0  0  0  0  0  0  0  0  0
    4.8077    0.1638    1.7790 H   0  0  0  0  0  0  0  0  0  0  0  0
    5.2060    1.8610    1.3690 H   0  0  0  0  0  0  0  0  0  0  0  0
    4.0317   -0.2589   -0.5397 H   0  0  0  0  0  0  0  0  0  0  0  0
    4.4275    1.4130   -1.0053 H   0  0  0  0  0  0  0  0  0  0  0  0
    1.7635    1.0629   -1.4534 H   0  0  0  0  0  0  0  0  0  0  0  0
    0.6543    1.8503    1.3744 H   0  0  0  0  0  0  0  0  0  0  0  0
    0.6736    3.8585    0.0951 H   0  0  0  0  0  0  0  0  0  0  0  0
   -0.9580    3.3981    0.5743 H   0  0  0  0  0  0  0  0  0  0  0  0
   -2.2807    2.5319   -3.3416 H   0  0  0  0  0  0  0  0  0  0  0  0
   -2.1637    1.4680   -1.9192 H   0  0  0  0  0  0  0  0  0  0  0  0
   -3.4580    2.4029    0.2094 H   0  0  0  0  0  0  0  0  0  0  0  0
   -5.3313    3.8093    0.9698 H   0  0  0  0  0  0  0  0  0  0  0  0
   -6.2664    5.5839   -0.5703 H   0  0  0  0  0  0  0  0  0  0  0  0
   -5.2904    5.8417   -2.7467 H   0  0  0  0  0  0  0  0  0  0  0  0
   -3.4650    4.4501   -3.4505 H   0  0  0  0  0  0  0  0  0  0  0  0
   -2.2056    0.6530    1.1641 H   0  0  0  0  0  0  0  0  0  0  0  0
   -1.5319   -1.3279   -1.1835 H   0  0  0  0  0  0  0  0  0  0  0  0
    0.3053   -3.5754    2.5076 H   0  0  0  0  0  0  0  0  0  0  0  0
   -0.2747   -2.4630    3.7468 H   0  0  0  0  0  0  0  0  0  0  0  0
   -2.6640   -3.6396    3.0092 H   0  0  0  0  0  0  0  0  0  0  0  0
   -1.6323   -4.1080    4.4396 H   0  0  0  0  0  0  0  0  0  0  0  0
   -1.5085   -4.9889    2.8293 H   0  0  0  0  0  0  0  0  0  0  0  0
   -3.5775   -3.5980    0.2068 H   0  0  0  0  0  0  0  0  0  0  0  0
   -5.9246   -3.9387   -0.0891 H   0  0  0  0  0  0  0  0  0  0  0  0
   -7.4096   -2.1494   -0.8854 H   0  0  0  0  0  0  0  0  0  0  0  0
   -6.4806    0.0651   -1.4027 H   0  0  0  0  0  0  0  0  0  0  0  0
   -4.0949    0.4012   -1.1006 H   0  0  0  0  0  0  0  0  0  0  0  0
  1  2  1  0
  2  3  1  0
  3  4  1  0
  4  5  2  0
  4  6  1  0
  6  7  1  0
  6  8  1  0
  8  9  1  0
  9 10  1  0
 10 11  2  0
 10 12  1  0
 12 13  1  0
 13 14  1  0
 14 15  1  0
 15 16  1  0
 16 17  1  0
 17 18  2  0
 18 19  1  0
 19 20  2  0
 20 21  1  0
 21 22  2  0
 13 23  1  0
 23 24  2  0
 23 25  1  0
 25 26  1  0
 26 27  1  0
 27 28  2  0
 27 29  1  0
 29 30  1  0
 30 31  1  0
 26 32  1  0
 32 33  2  0
 33 34  1  0
 34 35  2  0
 35 36  1  0
 36 37  2  0
 22 17  1  0
 37 32  1  0
  1 38  1  0
  1 39  1  0
  1 40  1  0
  2 41  1  0
  2 42  1  0
  6 43  1  1
  7 44  1  0
  7 45  1  0
  8 46  1  0
  8 47  1  0
  9 48  1  0
  9 49  1  0
 12 50  1  0
 13 51  1  1
 14 52  1  0
 14 53  1  0
 16 54  1  0
 16 55  1  0
 18 56  1  0
 19 57  1  0
 20 58  1  0
 21 59  1  0
 22 60  1  0
 25 61  1  0
 26 62  1  6
 30 63  1  0
 30 64  1  0
 31 65  1  0
 31 66  1  0
 31 67  1  0
 33 68  1  0
 34 69  1  0
 35 70  1  0
 36 71  1  0
 37 72  1  0
M  END
$$$$
