
     RDKit          3D

 35 36  0  0  0  0  0  0  0  0999 V2000
    2.1943   -2.5800   -0.6152 C   0  0  0  0  0  0  0  0  0  0  0  0
    2.1423   -1.2707   -0.0079 N   0  0  0  0  0  0  0  0  0  0  0  0
    2.1211   -0.2054   -0.9649 C   0  0  0  0  0  0  0  0  0  0  0  0
    2.0864    1.0838   -0.1919 C   0  0  0  0  0  0  0  0  0  0  0  0
    3.2211    1.8138   -0.0570 C   0  0  0  0  0  0  0  0  0  0  0  0
    3.2137    2.9799    0.6485 C   0  0  0  0  0  0  0  0  0  0  0  0
    2.0255    3.3767    1.2078 C   0  0  0  0  0  0  0  0  0  0  0  0
    0.8526    2.6628    1.0928 C   0  0  0  0  0  0  0  0  0  0  0  0
    0.8421    1.4814    0.3827 C   0  0  0  0  0  0  0  0  0  0  0  0
   -0.1995    0.7192    0.2017 O   0  0  0  0  0  0  0  0  0  0  0  0
   -1.4805    0.4615    0.3874 C   0  0  0  0  0  0  0  0  0  0  0  0
   -2.3962    1.2399    1.1009 C   0  0  0  0  0  0  0  0  0  0  0  0
   -3.7207    0.8774    1.2342 C   0  0  0  0  0  0  0  0  0  0  0  0
   -4.1965   -0.2723    0.6665 C   0  0  0  0  0  0  0  0  0  0  0  0
   -5.8790   -0.7301    0.8365 Cl  0  0  0  0  0  0  0  0  0  0  0  0
   -3.3264   -1.0710   -0.0471 C   0  0  0  0  0  0  0  0  0  0  0  0
   -2.0338   -0.7254   -0.1820 C   0  0  0  0  0  0  0  0  0  0  0  0
   -1.1768   -1.5421   -0.9030 O   0  0  0  0  0  0  0  0  0  0  0  0
   -1.6167   -2.7427   -1.5109 C   0  0  0  0  0  0  0  0  0  0  0  0
    2.4275   -3.3549    0.1263 H   0  0  0  0  0  0  0  0  0  0  0  0
    3.0505   -2.5595   -1.3521 H   0  0  0  0  0  0  0  0  0  0  0  0
    1.2640   -2.7517   -1.1686 H   0  0  0  0  0  0  0  0  0  0  0  0
    1.4971   -1.1933    0.7777 H   0  0  0  0  0  0  0  0  0  0  0  0
    3.0290   -0.1974   -1.5704 H   0  0  0  0  0  0  0  0  0  0  0  0
    1.1904   -0.3210   -1.5705 H   0  0  0  0  0  0  0  0  0  0  0  0
    4.1839    1.5088   -0.4999 H   0  0  0  0  0  0  0  0  0  0  0  0
    4.1261    3.5460    0.7443 H   0  0  0  0  0  0  0  0  0  0  0  0
    2.0039    4.3086    1.7769 H   0  0  0  0  0  0  0  0  0  0  0  0
   -0.0580    3.0620    1.5793 H   0  0  0  0  0  0  0  0  0  0  0  0
   -2.0323    2.1490    1.5537 H   0  0  0  0  0  0  0  0  0  0  0  0
   -4.3821    1.5414    1.8108 H   0  0  0  0  0  0  0  0  0  0  0  0
   -3.7477   -1.9843   -0.4861 H   0  0  0  0  0  0  0  0  0  0  0  0
   -2.5398   -2.6140   -2.0862 H   0  0  0  0  0  0  0  0  0  0  0  0
   -1.8280   -3.5141   -0.7291 H   0  0  0  0  0  0  0  0  0  0  0  0
   -0.8574   -3.1824   -2.1851 H   0  0  0  0  0  0  0  0  0  0  0  0
  1  2  1  0
  2  3  1  0
  3  4  1  0
  4  5  2  0
  5  6  1  0
  6  7  2  0
  7  8  1  0
  8  9  2  0
  9 10  1  0
 10 11  1  0
 11 12  2  0
 12 13  1  0
 13 14  2  0
 14 15  1  0
 14 16  1  0
 16 17  2  0
 17 18  1  0
 18 19  1  0
  9  4  1  0
 17 11  1  0
  1 20  1  0
  1 21  1  0
  1 22  1  0
  2 23  1  0
  3 24  1  0
  3 25  1  0
  5 26  1  0
  6 27  1  0
  7 28  1  0
  8 29  1  0
 12 30  1  0
 13 31  1  0
 16 32  1  0
 19 33  1  0
 19 34  1  0
 19 35  1  0
M  END
$$$$
