
     RDKit          3D

 49 51  0  0  0  0  0  0  0  0999 V2000
    6.3339   -1.9533    2.3108 C   0  0  0  0  0  0  0  0  0  0  0  0
    5.3972   -1.2086    1.5507 O   0  0  0  0  0  0  0  0  0  0  0  0
    4.0419   -1.4758    1.5627 C   0  0  0  0  0  0  0  0  0  0  0  0
    3.6771   -2.4444    2.3076 O   0  0  0  0  0  0  0  0  0  0  0  0
    3.1002   -0.7388    0.8074 N   0  0  0  0  0  0  0  0  0  0  0  0
    3.3920    0.3652   -0.0562 C   0  0  0  0  0  0  0  0  0  0  0  0
    2.3064    0.3741   -1.0774 C   0  0  0  0  0  0  0  0  0  0  0  0
    1.3010   -0.5992   -0.6731 C   0  0  2  0  0  0  0  0  0  0  0  0
   -0.1175   -0.2054   -0.7452 N   0  0  0  0  0  0  0  0  0  0  0  0
   -0.9748   -1.3619   -0.8531 C   0  0  0  0  0  0  0  0  0  0  0  0
   -2.3945   -1.2732   -0.8681 C   0  0  0  0  0  0  0  0  0  0  0  0
   -3.1215   -1.5800   -2.0311 C   0  0  0  0  0  0  0  0  0  0  0  0
   -4.4907   -1.5697   -2.0692 C   0  0  0  0  0  0  0  0  0  0  0  0
   -5.2082   -1.2532   -0.9503 C   0  0  0  0  0  0  0  0  0  0  0  0
   -4.5364   -0.9450    0.2152 C   0  0  0  0  0  0  0  0  0  0  0  0
   -3.1430   -0.9571    0.2476 C   0  0  0  0  0  0  0  0  0  0  0  0
   -2.4695   -0.6206    1.5193 C   0  0  0  0  0  0  0  0  0  0  0  0
   -0.5797    1.1246   -0.5650 C   0  0  0  0  0  0  0  0  0  0  0  0
    0.2008    2.0919    0.0838 C   0  0  0  0  0  0  0  0  0  0  0  0
   -0.1430    3.4202    0.1937 C   0  0  0  0  0  0  0  0  0  0  0  0
   -1.3234    3.8657   -0.3544 C   0  0  0  0  0  0  0  0  0  0  0  0
   -1.7113    5.2502   -0.2554 C   0  0  0  0  0  0  0  0  0  0  0  0
   -2.0152    6.3662   -0.1584 N   0  0  0  0  0  0  0  0  0  0  0  0
   -2.1061    2.9331   -0.9947 C   0  0  0  0  0  0  0  0  0  0  0  0
   -3.6208    3.5147   -1.6931 Cl  0  0  0  0  0  0  0  0  0  0  0  0
   -1.7585    1.5924   -1.1075 C   0  0  0  0  0  0  0  0  0  0  0  0
    1.6756   -0.9669    0.7662 C   0  0  0  0  0  0  0  0  0  0  0  0
    5.8213   -2.7894    2.8603 H   0  0  0  0  0  0  0  0  0  0  0  0
    7.1507   -2.3526    1.6986 H   0  0  0  0  0  0  0  0  0  0  0  0
    6.7393   -1.2730    3.0849 H   0  0  0  0  0  0  0  0  0  0  0  0
    4.4134    0.2755   -0.5113 H   0  0  0  0  0  0  0  0  0  0  0  0
    3.4348    1.3147    0.5446 H   0  0  0  0  0  0  0  0  0  0  0  0
    1.9755    1.3720   -1.4282 H   0  0  0  0  0  0  0  0  0  0  0  0
    2.8229   -0.0725   -2.0240 H   0  0  0  0  0  0  0  0  0  0  0  0
    1.3870   -1.5215   -1.3175 H   0  0  0  0  0  0  0  0  0  0  0  0
   -0.5654   -1.9033   -1.7857 H   0  0  0  0  0  0  0  0  0  0  0  0
   -0.5943   -2.0630   -0.0350 H   0  0  0  0  0  0  0  0  0  0  0  0
   -2.5836   -1.8311   -2.9218 H   0  0  0  0  0  0  0  0  0  0  0  0
   -5.0281   -1.8096   -2.9770 H   0  0  0  0  0  0  0  0  0  0  0  0
   -6.2860   -1.2433   -0.9716 H   0  0  0  0  0  0  0  0  0  0  0  0
   -5.1240   -0.6980    1.0879 H   0  0  0  0  0  0  0  0  0  0  0  0
   -2.4922    0.4713    1.6489 H   0  0  0  0  0  0  0  0  0  0  0  0
   -3.0531   -1.0611    2.3713 H   0  0  0  0  0  0  0  0  0  0  0  0
   -1.4577   -1.0457    1.5964 H   0  0  0  0  0  0  0  0  0  0  0  0
    1.1120    1.7796    0.5719 H   0  0  0  0  0  0  0  0  0  0  0  0
    0.4767    4.1476    0.6972 H   0  0  0  0  0  0  0  0  0  0  0  0
   -2.4434    0.9753   -1.6626 H   0  0  0  0  0  0  0  0  0  0  0  0
    1.1530   -0.3639    1.4975 H   0  0  0  0  0  0  0  0  0  0  0  0
    1.4292   -2.0531    0.8626 H   0  0  0  0  0  0  0  0  0  0  0  0
  1  2  1  0
  2  3  1  0
  3  4  2  0
  3  5  1  0
  5  6  1  0
  6  7  1  0
  7  8  1  0
  8  9  1  0
  9 10  1  0
 10 11  1  0
 11 12  2  0
 12 13  1  0
 13 14  2  0
 14 15  1  0
 15 16  2  0
 16 17  1  0
  9 18  1  0
 18 19  2  0
 19 20  1  0
 20 21  2  0
 21 22  1  0
 22 23  3  0
 21 24  1  0
 24 25  1  0
 24 26  2  0
  8 27  1  0
 27  5  1  0
 16 11  1  0
 26 18  1  0
  1 28  1  0
  1 29  1  0
  1 30  1  0
  6 31  1  0
  6 32  1  0
  7 33  1  0
  7 34  1  0
  8 35  1  6
 10 36  1  0
 10 37  1  0
 12 38  1  0
 13 39  1  0
 14 40  1  0
 15 41  1  0
 17 42  1  0
 17 43  1  0
 17 44  1  0
 19 45  1  0
 20 46  1  0
 26 47  1  0
 27 48  1  0
 27 49  1  0
M  END
$$$$
