
     RDKit          3D

 49 53  0  0  0  0  0  0  0  0999 V2000
   -3.2597   -3.9067    1.2306 C   0  0  0  0  0  0  0  0  0  0  0  0
   -3.1042   -2.7147    0.3794 C   0  0  0  0  0  0  0  0  0  0  0  0
   -3.9768   -2.0935   -0.4789 C   0  0  0  0  0  0  0  0  0  0  0  0
   -3.3886   -1.0242   -1.0470 N   0  0  0  0  0  0  0  0  0  0  0  0
   -4.0812   -0.1762   -2.0021 C   0  0  0  0  0  0  0  0  0  0  0  0
   -2.1459   -0.9481   -0.5650 C   0  0  0  0  0  0  0  0  0  0  0  0
   -1.9256   -1.9667    0.3155 C   0  0  0  0  0  0  0  0  0  0  0  0
   -0.5591   -1.8254    0.7936 C   0  0  0  0  0  0  0  0  0  0  0  0
    0.0089   -2.5977    1.6346 O   0  0  0  0  0  0  0  0  0  0  0  0
    0.0497   -0.6825    0.1719 N   0  0  0  0  0  0  0  0  0  0  0  0
    1.3964   -0.2928    0.4105 C   0  0  0  0  0  0  0  0  0  0  0  0
    1.7769    0.5422    1.4322 C   0  0  0  0  0  0  0  0  0  0  0  0
    3.0868    0.9142    1.6456 C   0  0  0  0  0  0  0  0  0  0  0  0
    3.4483    1.8190    2.7632 C   0  0  0  0  0  0  0  0  0  0  0  0
    4.0618    0.4356    0.8076 C   0  0  0  0  0  0  0  0  0  0  0  0
    5.4035    0.5918    0.7297 N   0  0  0  0  0  0  0  0  0  0  0  0
    5.8445   -0.1136   -0.2947 N   0  0  0  0  0  0  0  0  0  0  0  0
    4.8164   -0.7292   -0.8894 C   0  0  0  0  0  0  0  0  0  0  0  0
    4.8560   -1.6340   -2.0918 C   0  0  0  0  0  0  0  0  0  0  0  0
    4.1727   -0.9405   -3.0950 F   0  0  0  0  0  0  0  0  0  0  0  0
    4.2394   -2.8261   -1.8174 F   0  0  0  0  0  0  0  0  0  0  0  0
    3.7072   -0.3815   -0.1956 N   0  0  0  0  0  0  0  0  0  0  0  0
    2.4071   -0.7499   -0.4067 C   0  0  0  0  0  0  0  0  0  0  0  0
   -0.9351   -0.1038   -0.6797 C   0  0  0  0  0  0  0  0  0  0  0  0
   -1.2287    1.3251   -0.4168 C   0  0  0  0  0  0  0  0  0  0  0  0
   -1.2857    2.2487   -1.4405 C   0  0  0  0  0  0  0  0  0  0  0  0
   -1.5639    3.5795   -1.2324 C   0  0  0  0  0  0  0  0  0  0  0  0
   -1.7988    4.0293    0.0472 C   0  0  0  0  0  0  0  0  0  0  0  0
   -2.1535    5.7319    0.3035 Cl  0  0  0  0  0  0  0  0  0  0  0  0
   -1.7476    3.1239    1.0917 C   0  0  0  0  0  0  0  0  0  0  0  0
   -1.4639    1.7776    0.8615 C   0  0  0  0  0  0  0  0  0  0  0  0
   -3.5091   -3.5636    2.2530 H   0  0  0  0  0  0  0  0  0  0  0  0
   -4.0678   -4.5378    0.7919 H   0  0  0  0  0  0  0  0  0  0  0  0
   -2.3297   -4.5433    1.2354 H   0  0  0  0  0  0  0  0  0  0  0  0
   -4.9904   -2.4534   -0.6425 H   0  0  0  0  0  0  0  0  0  0  0  0
   -3.3602    0.5130   -2.4861 H   0  0  0  0  0  0  0  0  0  0  0  0
   -4.5814   -0.8296   -2.7433 H   0  0  0  0  0  0  0  0  0  0  0  0
   -4.9090    0.4081   -1.5093 H   0  0  0  0  0  0  0  0  0  0  0  0
    0.9736    0.9079    2.0926 H   0  0  0  0  0  0  0  0  0  0  0  0
    4.4928    1.6567    3.1047 H   0  0  0  0  0  0  0  0  0  0  0  0
    3.3714    2.8629    2.3691 H   0  0  0  0  0  0  0  0  0  0  0  0
    2.7924    1.6609    3.6438 H   0  0  0  0  0  0  0  0  0  0  0  0
    5.8900   -1.7201   -2.4245 H   0  0  0  0  0  0  0  0  0  0  0  0
    2.1805   -1.4109   -1.2310 H   0  0  0  0  0  0  0  0  0  0  0  0
   -0.5307   -0.1714   -1.7325 H   0  0  0  0  0  0  0  0  0  0  0  0
   -1.0969    1.8706   -2.4424 H   0  0  0  0  0  0  0  0  0  0  0  0
   -1.6068    4.3033   -2.0501 H   0  0  0  0  0  0  0  0  0  0  0  0
   -1.9359    3.5031    2.0872 H   0  0  0  0  0  0  0  0  0  0  0  0
   -1.4405    1.1320    1.7185 H   0  0  0  0  0  0  0  0  0  0  0  0
  1  2  1  0
  2  3  2  0
  3  4  1  0
  4  5  1  0
  4  6  1  0
  6  7  2  0
  7  8  1  0
  8  9  2  0
  8 10  1  0
 10 11  1  0
 11 12  1  0
 12 13  2  0
 13 14  1  0
 13 15  1  0
 15 16  2  0
 16 17  1  0
 17 18  2  0
 18 19  1  0
 19 20  1  0
 19 21  1  0
 18 22  1  0
 22 23  1  0
 10 24  1  0
 24 25  1  0
 25 26  2  0
 26 27  1  0
 27 28  2  0
 28 29  1  0
 28 30  1  0
 30 31  2  0
  7  2  1  0
 23 11  2  0
 31 25  1  0
 24  6  1  0
 22 15  1  0
  1 32  1  0
  1 33  1  0
  1 34  1  0
  3 35  1  0
  5 36  1  0
  5 37  1  0
  5 38  1  0
 12 39  1  0
 14 40  1  0
 14 41  1  0
 14 42  1  0
 19 43  1  0
 23 44  1  0
 24 45  1  0
 26 46  1  0
 27 47  1  0
 30 48  1  0
 31 49  1  0
M  END
$$$$
