
     RDKit          3D

 44 46  0  0  0  0  0  0  0  0999 V2000
   -6.3125   -0.2757   -2.3817 C   0  0  0  0  0  0  0  0  0  0  0  0
   -5.2826    0.1516   -1.4000 C   0  0  0  0  0  0  0  0  0  0  0  0
   -4.3683    1.1472   -1.7107 C   0  0  0  0  0  0  0  0  0  0  0  0
   -3.4194    1.5362   -0.7975 C   0  0  0  0  0  0  0  0  0  0  0  0
   -3.3230    0.9602    0.4756 C   0  0  0  0  0  0  0  0  0  0  0  0
   -2.1403    1.4805    1.6231 S   0  0  0  0  0  6  0  0  0  0  0  0
   -2.5847    1.1814    3.0481 O   0  0  0  0  0  0  0  0  0  0  0  0
   -2.0183    2.9743    1.5058 O   0  0  0  0  0  0  0  0  0  0  0  0
   -0.5623    0.8109    1.3538 N   0  0  0  0  0  0  0  0  0  0  0  0
    0.5389    1.4917    1.0532 C   0  0  0  0  0  0  0  0  0  0  0  0
    1.6420    0.6350    0.8786 C   0  0  0  0  0  0  0  0  0  0  0  0
    2.9539    1.0881    0.5349 C   0  0  0  0  0  0  0  0  0  0  0  0
    3.0551    2.4043    0.4305 O   0  0  0  0  0  0  0  0  0  0  0  0
    4.1897    0.4441    0.2753 C   0  0  0  0  0  0  0  0  0  0  0  0
    4.4801   -0.7765    0.2625 O   0  0  0  0  0  0  0  0  0  0  0  0
    5.3792    1.2513   -0.0388 N   0  0  0  0  0  0  0  0  0  0  0  0
    6.6432    0.5988   -0.3061 C   0  0  0  0  0  0  0  0  0  0  0  0
    6.4907   -0.2850   -1.4828 C   0  0  0  0  0  0  0  0  0  0  0  0
    7.4776   -0.9641   -1.8856 O   0  0  0  0  0  0  0  0  0  0  0  0
    5.3141   -0.4281   -2.1971 O   0  0  0  0  0  0  0  0  0  0  0  0
    1.1138   -0.6107    1.0994 C   0  0  0  0  0  0  0  0  0  0  0  0
    1.6403   -1.8815    1.0959 C   0  0  0  0  0  0  0  0  0  0  0  0
    0.8488   -2.9778    1.3703 C   0  0  0  0  0  0  0  0  0  0  0  0
   -0.4882   -2.8356    1.6559 C   0  0  0  0  0  0  0  0  0  0  0  0
   -1.0535   -1.5884    1.6705 C   0  0  0  0  0  0  0  0  0  0  0  0
   -0.2567   -0.4912    1.3941 C   0  0  0  0  0  0  0  0  0  0  0  0
   -4.2221   -0.0173    0.7787 C   0  0  0  0  0  0  0  0  0  0  0  0
   -5.1767   -0.4058   -0.1458 C   0  0  0  0  0  0  0  0  0  0  0  0
   -6.5793   -1.3271   -2.1390 H   0  0  0  0  0  0  0  0  0  0  0  0
   -7.1981    0.3745   -2.2761 H   0  0  0  0  0  0  0  0  0  0  0  0
   -5.9112   -0.2823   -3.4204 H   0  0  0  0  0  0  0  0  0  0  0  0
   -4.4167    1.6076   -2.6782 H   0  0  0  0  0  0  0  0  0  0  0  0
   -2.7147    2.3188   -1.0662 H   0  0  0  0  0  0  0  0  0  0  0  0
    0.5806    2.5690    0.9552 H   0  0  0  0  0  0  0  0  0  0  0  0
    5.3316    2.2639   -0.0721 H   0  0  0  0  0  0  0  0  0  0  0  0
    6.9096   -0.0656    0.5675 H   0  0  0  0  0  0  0  0  0  0  0  0
    7.4402    1.3483   -0.4373 H   0  0  0  0  0  0  0  0  0  0  0  0
    5.2991   -0.5207   -3.2148 H   0  0  0  0  0  0  0  0  0  0  0  0
    2.6713   -1.9753    0.8793 H   0  0  0  0  0  0  0  0  0  0  0  0
    1.3308   -3.9599    1.3505 H   0  0  0  0  0  0  0  0  0  0  0  0
   -1.0709   -3.7437    1.8671 H   0  0  0  0  0  0  0  0  0  0  0  0
   -2.0892   -1.5025    1.9021 H   0  0  0  0  0  0  0  0  0  0  0  0
   -4.2514   -0.5374    1.7374 H   0  0  0  0  0  0  0  0  0  0  0  0
   -5.8906   -1.1857    0.1017 H   0  0  0  0  0  0  0  0  0  0  0  0
  1  2  1  0
  2  3  2  0
  3  4  1  0
  4  5  2  0
  5  6  1  0
  6  7  2  0
  6  8  2  0
  6  9  1  0
  9 10  1  0
 10 11  2  0
 11 12  1  0
 12 13  2  0
 12 14  1  0
 14 15  2  0
 14 16  1  0
 16 17  1  0
 17 18  1  0
 18 19  2  0
 18 20  1  0
 11 21  1  0
 21 22  2  0
 22 23  1  0
 23 24  2  0
 24 25  1  0
 25 26  2  0
  5 27  1  0
 27 28  2  0
 28  2  1  0
 26  9  1  0
 26 21  1  0
  1 29  1  0
  1 30  1  0
  1 31  1  0
  3 32  1  0
  4 33  1  0
 10 34  1  0
 16 35  1  0
 17 36  1  0
 17 37  1  0
 20 38  1  0
 22 39  1  0
 23 40  1  0
 24 41  1  0
 25 42  1  0
 27 43  1  0
 28 44  1  0
M  END
$$$$
