
     RDKit          3D

 17 16  0  0  0  0  0  0  0  0999 V2000
    3.6260    0.1448    0.5092 O   0  0  0  0  0  0  0  0  0  0  0  0
    2.2377    0.0112    0.6560 C   0  0  0  0  0  0  0  0  0  0  0  0
    1.5364    0.1952   -0.6478 C   0  0  0  0  0  0  0  0  0  0  0  0
    2.1764    0.4275   -1.6490 O   0  0  0  0  0  0  0  0  0  0  0  0
    0.0571    0.0797   -0.6404 C   0  0  0  0  0  0  0  0  0  0  0  0
   -0.4614   -0.1916    0.6257 O   0  0  0  0  0  0  0  0  0  0  0  0
   -2.1483   -0.2828    0.4108 P   0  0  0  0  0  0  0  0  0  0  0  0
   -2.7862    1.2811    0.5263 O   0  0  0  0  0  0  0  0  0  0  0  0
   -2.4584   -0.9261   -1.1393 O   0  0  0  0  0  0  0  0  0  0  0  0
   -2.8122   -1.1821    1.4112 O   0  0  0  0  0  0  0  0  0  0  0  0
    3.9974   -0.5244   -0.0877 H   0  0  0  0  0  0  0  0  0  0  0  0
    2.0001   -1.0081    1.0391 H   0  0  0  0  0  0  0  0  0  0  0  0
    1.8860    0.7645    1.3913 H   0  0  0  0  0  0  0  0  0  0  0  0
   -0.4264    0.9839   -1.0586 H   0  0  0  0  0  0  0  0  0  0  0  0
   -0.2909   -0.7799   -1.2734 H   0  0  0  0  0  0  0  0  0  0  0  0
   -2.9136    1.4615    1.4919 H   0  0  0  0  0  0  0  0  0  0  0  0
   -3.2198   -0.4545   -1.5653 H   0  0  0  0  0  0  0  0  0  0  0  0
  1  2  1  0
  2  3  1  0
  3  4  2  0
  3  5  1  0
  5  6  1  0
  6  7  1  0
  7  8  1  0
  7  9  1  0
  7 10  2  0
  1 11  1  0
  2 12  1  0
  2 13  1  0
  5 14  1  0
  5 15  1  0
  8 16  1  0
  9 17  1  0
M  END
$$$$
