
     RDKit          3D

 31 31  0  0  0  0  0  0  0  0999 V2000
   -1.6299   -0.6136    0.4382 C   0  0  1  0  0  0  0  0  0  0  0  0
   -2.5218   -1.7682    0.0385 C   0  0  0  0  0  0  0  0  0  0  0  0
   -1.9753   -2.9431    0.5107 O   0  0  0  0  0  0  0  0  0  0  0  0
   -0.3869   -0.8516   -0.1358 O   0  0  0  0  0  0  0  0  0  0  0  0
    0.4331    0.2441    0.1850 C   0  0  1  0  0  0  0  0  0  0  0  0
    1.7915   -0.2442    0.0786 N   0  0  0  0  0  0  0  0  0  0  0  0
    2.4664   -0.7869    1.0078 C   0  0  0  0  0  0  0  0  0  0  0  0
    2.0569   -1.0285    2.3124 O   0  0  0  0  0  0  0  0  0  0  0  0
    3.7546   -1.1661    0.6324 O   0  0  0  0  0  0  0  0  0  0  0  0
    4.4529   -0.4910   -0.3775 C   0  0  0  0  0  0  0  0  0  0  0  0
    0.1392    1.2988   -0.8511 C   0  0  2  0  0  0  0  0  0  0  0  0
    0.5554    2.5338   -0.3375 O   0  0  0  0  0  0  0  0  0  0  0  0
   -1.3412    1.2881   -1.1372 C   0  0  1  0  0  0  0  0  0  0  0  0
   -1.6497    0.5754   -2.2924 O   0  0  0  0  0  0  0  0  0  0  0  0
   -2.1656    0.7127   -0.0241 C   0  0  2  0  0  0  0  0  0  0  0  0
   -2.2040    1.6240    1.0257 O   0  0  0  0  0  0  0  0  0  0  0  0
   -1.5406   -0.6385    1.5340 H   0  0  0  0  0  0  0  0  0  0  0  0
   -2.5909   -1.8424   -1.0641 H   0  0  0  0  0  0  0  0  0  0  0  0
   -3.5466   -1.5702    0.4164 H   0  0  0  0  0  0  0  0  0  0  0  0
   -2.1550   -2.9980    1.4812 H   0  0  0  0  0  0  0  0  0  0  0  0
    0.2233    0.6528    1.1847 H   0  0  0  0  0  0  0  0  0  0  0  0
    1.0487   -1.0427    2.4504 H   0  0  0  0  0  0  0  0  0  0  0  0
    5.4603   -0.9607   -0.5124 H   0  0  0  0  0  0  0  0  0  0  0  0
    4.5950    0.5608   -0.0188 H   0  0  0  0  0  0  0  0  0  0  0  0
    3.9316   -0.4470   -1.3416 H   0  0  0  0  0  0  0  0  0  0  0  0
    0.6906    1.0816   -1.8066 H   0  0  0  0  0  0  0  0  0  0  0  0
    0.4919    2.5919    0.6393 H   0  0  0  0  0  0  0  0  0  0  0  0
   -1.6853    2.3337   -1.2815 H   0  0  0  0  0  0  0  0  0  0  0  0
   -1.0556    0.8636   -3.0100 H   0  0  0  0  0  0  0  0  0  0  0  0
   -3.1810    0.5222   -0.4556 H   0  0  0  0  0  0  0  0  0  0  0  0
   -2.4621    2.5090    0.7109 H   0  0  0  0  0  0  0  0  0  0  0  0
  1  2  1  0
  2  3  1  0
  1  4  1  0
  4  5  1  0
  5  6  1  0
  6  7  2  3
  7  8  1  0
  7  9  1  0
  9 10  1  0
  5 11  1  0
 11 12  1  0
 11 13  1  0
 13 14  1  0
 13 15  1  0
 15 16  1  0
 15  1  1  0
  1 17  1  1
  2 18  1  0
  2 19  1  0
  3 20  1  0
  5 21  1  1
  8 22  1  0
 10 23  1  0
 10 24  1  0
 10 25  1  0
 11 26  1  6
 12 27  1  0
 13 28  1  6
 14 29  1  0
 15 30  1  6
 16 31  1  0
M  END
$$$$
