
     RDKit          3D

 45 47  0  0  0  0  0  0  0  0999 V2000
   -2.6058    1.4821   -1.1201 C   0  0  0  0  0  0  0  0  0  0  0  0
   -2.3574    0.0995   -0.6722 N   0  0  0  0  0  0  0  0  0  0  0  0
   -1.0119    0.1155   -0.1347 C   0  0  0  0  0  0  0  0  0  0  0  0
   -0.5205   -1.2194    0.3310 C   0  0  0  0  0  0  0  0  0  0  0  0
    0.8803   -1.0411    0.8539 C   0  0  0  0  0  0  0  0  0  0  0  0
    1.2718   -0.7443    2.1422 C   0  0  0  0  0  0  0  0  0  0  0  0
    2.6124   -0.6796    2.1350 N   0  0  0  0  0  0  0  0  0  0  0  0
    3.1108   -0.9137    0.9351 N   0  0  0  0  0  0  0  0  0  0  0  0
    4.4778   -0.9221    0.5505 C   0  0  0  0  0  0  0  0  0  0  0  0
    5.1423    0.2594    0.3120 C   0  0  0  0  0  0  0  0  0  0  0  0
    6.4634    0.3051   -0.0651 C   0  0  0  0  0  0  0  0  0  0  0  0
    7.0898    1.5923   -0.2970 C   0  0  0  0  0  0  0  0  0  0  0  0
    8.3025    1.6391   -0.6455 O   0  0  0  0  0  0  0  0  0  0  0  0
    6.3484    2.7403   -0.1323 O   0  0  0  0  0  0  0  0  0  0  0  0
    7.1604   -0.9001   -0.2121 C   0  0  0  0  0  0  0  0  0  0  0  0
    6.4694   -2.0647    0.0333 C   0  0  0  0  0  0  0  0  0  0  0  0
    5.1534   -2.0720    0.4074 N   0  0  0  0  0  0  0  0  0  0  0  0
    2.0491   -1.1409    0.1237 C   0  0  0  0  0  0  0  0  0  0  0  0
   -3.2664   -0.1025    0.4570 C   0  0  0  0  0  0  0  0  0  0  0  0
   -4.6884    0.0590    0.0780 C   0  0  0  0  0  0  0  0  0  0  0  0
   -5.4111   -1.0477   -0.3571 C   0  0  0  0  0  0  0  0  0  0  0  0
   -6.7414   -0.9374   -0.7200 C   0  0  0  0  0  0  0  0  0  0  0  0
   -7.4079    0.2752   -0.6657 C   0  0  0  0  0  0  0  0  0  0  0  0
   -8.7217    0.3712   -1.0275 F   0  0  0  0  0  0  0  0  0  0  0  0
   -6.6923    1.3715   -0.2345 C   0  0  0  0  0  0  0  0  0  0  0  0
   -5.3563    1.2598    0.1297 C   0  0  0  0  0  0  0  0  0  0  0  0
   -1.7528    1.7249   -1.8218 H   0  0  0  0  0  0  0  0  0  0  0  0
   -3.5310    1.5575   -1.6998 H   0  0  0  0  0  0  0  0  0  0  0  0
   -2.5308    2.1842   -0.2660 H   0  0  0  0  0  0  0  0  0  0  0  0
   -0.3185    0.4712   -0.9239 H   0  0  0  0  0  0  0  0  0  0  0  0
   -1.0451    0.8209    0.7301 H   0  0  0  0  0  0  0  0  0  0  0  0
   -0.4163   -1.9058   -0.5553 H   0  0  0  0  0  0  0  0  0  0  0  0
   -1.1500   -1.7181    1.0836 H   0  0  0  0  0  0  0  0  0  0  0  0
    0.6020   -0.5907    3.0042 H   0  0  0  0  0  0  0  0  0  0  0  0
    4.6148    1.1915    0.4228 H   0  0  0  0  0  0  0  0  0  0  0  0
    6.6457    3.5642   -0.6684 H   0  0  0  0  0  0  0  0  0  0  0  0
    8.1867   -0.8482   -0.5052 H   0  0  0  0  0  0  0  0  0  0  0  0
    7.0281   -2.9927   -0.0861 H   0  0  0  0  0  0  0  0  0  0  0  0
    2.1205   -1.3678   -0.9414 H   0  0  0  0  0  0  0  0  0  0  0  0
   -3.0605   -1.1456    0.8257 H   0  0  0  0  0  0  0  0  0  0  0  0
   -2.9552    0.5966    1.2687 H   0  0  0  0  0  0  0  0  0  0  0  0
   -4.8964   -1.9827   -0.3995 H   0  0  0  0  0  0  0  0  0  0  0  0
   -7.2827   -1.8076   -1.0541 H   0  0  0  0  0  0  0  0  0  0  0  0
   -7.2044    2.3228   -0.1887 H   0  0  0  0  0  0  0  0  0  0  0  0
   -4.8047    2.1409    0.4703 H   0  0  0  0  0  0  0  0  0  0  0  0
  1  2  1  0
  2  3  1  0
  3  4  1  0
  4  5  1  0
  5  6  1  0
  6  7  2  0
  7  8  1  0
  8  9  1  0
  9 10  2  0
 10 11  1  0
 11 12  1  0
 12 13  2  0
 12 14  1  0
 11 15  2  0
 15 16  1  0
 16 17  2  0
  8 18  1  0
  2 19  1  0
 19 20  1  0
 20 21  2  0
 21 22  1  0
 22 23  2  0
 23 24  1  0
 23 25  1  0
 25 26  2  0
 18  5  2  0
 26 20  1  0
 17  9  1  0
  1 27  1  0
  1 28  1  0
  1 29  1  0
  3 30  1  0
  3 31  1  0
  4 32  1  0
  4 33  1  0
  6 34  1  0
 10 35  1  0
 14 36  1  0
 15 37  1  0
 16 38  1  0
 18 39  1  0
 19 40  1  0
 19 41  1  0
 21 42  1  0
 22 43  1  0
 25 44  1  0
 26 45  1  0
M  END
$$$$
