
     RDKit          3D

 61 66  0  0  0  0  0  0  0  0999 V2000
   -7.7040   -1.0149    1.9977 C   0  0  0  0  0  0  0  0  0  0  0  0
   -7.5087   -0.5227    0.5947 C   0  0  0  0  0  0  0  0  0  0  0  0
   -8.6110   -0.3057   -0.2096 C   0  0  0  0  0  0  0  0  0  0  0  0
   -8.4236    0.1456   -1.4944 C   0  0  0  0  0  0  0  0  0  0  0  0
   -9.9511    0.4467   -2.6100 Br  0  0  0  0  0  0  0  0  0  0  0  0
   -7.1660    0.3820   -1.9865 C   0  0  0  0  0  0  0  0  0  0  0  0
   -6.1075    0.1646   -1.1876 N   0  0  0  0  0  0  0  0  0  0  0  0
   -6.2739   -0.2757    0.0685 C   0  0  0  0  0  0  0  0  0  0  0  0
   -5.0582   -0.4863    0.8725 C   0  0  0  0  0  0  0  0  0  0  0  0
   -5.2290   -0.8941    2.0347 O   0  0  0  0  0  0  0  0  0  0  0  0
   -3.7721   -0.2394    0.3536 N   0  0  0  0  0  0  0  0  0  0  0  0
   -2.5586   -0.4165    1.0602 C   0  0  0  0  0  0  0  0  0  0  0  0
   -2.4509   -0.8497    2.3513 C   0  0  0  0  0  0  0  0  0  0  0  0
   -1.1809   -0.9891    2.9483 C   0  0  0  0  0  0  0  0  0  0  0  0
   -0.0301   -0.6979    2.2623 C   0  0  0  0  0  0  0  0  0  0  0  0
   -0.1157   -0.2571    0.9646 C   0  0  0  0  0  0  0  0  0  0  0  0
   -1.3722   -0.1232    0.3769 C   0  0  0  0  0  0  0  0  0  0  0  0
    1.0184    0.1539    0.1099 C   0  0  0  0  0  0  0  0  0  0  0  0
    1.0265    1.6706   -0.0346 C   0  0  0  0  0  0  0  0  0  0  0  0
    0.1314    2.2760   -1.0457 C   0  0  0  0  0  0  0  0  0  0  0  0
    0.3416    1.4395   -2.6317 S   0  0  0  0  0  0  0  0  0  0  0  0
    0.8549   -0.2337   -2.2972 C   0  0  0  0  0  0  0  0  0  0  0  0
    0.9857   -1.1421   -3.4157 N   0  0  0  0  0  0  0  0  0  0  0  0
    1.0842   -0.5662   -1.1104 N   0  0  0  0  0  0  0  0  0  0  0  0
    2.3289   -0.1115    0.8076 C   0  0  0  0  0  0  0  0  0  0  0  0
    3.5160    0.1623    0.1014 C   0  0  0  0  0  0  0  0  0  0  0  0
    4.7579    0.0051    0.6677 C   0  0  0  0  0  0  0  0  0  0  0  0
    5.9982    0.2784   -0.0365 C   0  0  0  0  0  0  0  0  0  0  0  0
    7.1526    0.1081    0.5779 C   0  0  0  0  0  0  0  0  0  0  0  0
    8.3792    0.4050   -0.1959 C   0  0  0  0  0  0  0  0  0  0  0  0
    8.3526    0.0374   -1.5089 O   0  0  0  0  0  0  0  0  0  0  0  0
    7.1307   -0.1509   -2.0896 C   0  0  0  0  0  0  0  0  0  0  0  0
    6.0657    0.7434   -1.4359 C   0  0  0  0  0  0  0  0  0  0  0  0
    4.7693   -0.4335    1.9587 N   0  0  0  0  0  0  0  0  0  0  0  0
    3.6494   -0.7011    2.6492 C   0  0  0  0  0  0  0  0  0  0  0  0
    3.6867   -1.1360    3.9320 F   0  0  0  0  0  0  0  0  0  0  0  0
    2.3744   -0.5459    2.0826 C   0  0  0  0  0  0  0  0  0  0  0  0
    1.2341   -0.8388    2.8197 O   0  0  0  0  0  0  0  0  0  0  0  0
   -7.3610   -0.2984    2.7528 H   0  0  0  0  0  0  0  0  0  0  0  0
   -8.8065   -1.1729    2.1490 H   0  0  0  0  0  0  0  0  0  0  0  0
   -7.2636   -2.0198    2.1222 H   0  0  0  0  0  0  0  0  0  0  0  0
   -9.6062   -0.5034    0.2108 H   0  0  0  0  0  0  0  0  0  0  0  0
   -7.0111    0.7434   -3.0146 H   0  0  0  0  0  0  0  0  0  0  0  0
   -3.7511    0.1060   -0.6498 H   0  0  0  0  0  0  0  0  0  0  0  0
   -3.3237   -1.0836    2.9125 H   0  0  0  0  0  0  0  0  0  0  0  0
   -1.1515   -1.3356    3.9712 H   0  0  0  0  0  0  0  0  0  0  0  0
   -1.4604    0.1867   -0.6319 H   0  0  0  0  0  0  0  0  0  0  0  0
    0.8670    2.0713    0.9970 H   0  0  0  0  0  0  0  0  0  0  0  0
    2.0794    1.9738   -0.3217 H   0  0  0  0  0  0  0  0  0  0  0  0
    0.5498    3.3247   -1.2242 H   0  0  0  0  0  0  0  0  0  0  0  0
   -0.9370    2.3839   -0.7452 H   0  0  0  0  0  0  0  0  0  0  0  0
    0.2449   -1.8754   -3.4697 H   0  0  0  0  0  0  0  0  0  0  0  0
    1.7602   -1.0600   -4.1034 H   0  0  0  0  0  0  0  0  0  0  0  0
    3.4163    0.5099   -0.9264 H   0  0  0  0  0  0  0  0  0  0  0  0
    7.1736   -0.2301    1.5899 H   0  0  0  0  0  0  0  0  0  0  0  0
    8.5319    1.5236   -0.1614 H   0  0  0  0  0  0  0  0  0  0  0  0
    9.2885   -0.0202    0.2770 H   0  0  0  0  0  0  0  0  0  0  0  0
    6.7802   -1.1959   -1.8908 H   0  0  0  0  0  0  0  0  0  0  0  0
    7.1683    0.0447   -3.1819 H   0  0  0  0  0  0  0  0  0  0  0  0
    6.3640    1.8085   -1.5193 H   0  0  0  0  0  0  0  0  0  0  0  0
    5.1228    0.6321   -1.9749 H   0  0  0  0  0  0  0  0  0  0  0  0
  1  2  1  0
  2  3  2  0
  3  4  1  0
  4  5  1  0
  4  6  2  0
  6  7  1  0
  7  8  2  0
  8  9  1  0
  9 10  2  0
  9 11  1  0
 11 12  1  0
 12 13  2  0
 13 14  1  0
 14 15  2  0
 15 16  1  0
 16 17  2  0
 16 18  1  0
 18 19  1  0
 19 20  1  0
 20 21  1  0
 21 22  1  0
 22 23  1  0
 22 24  2  0
 18 25  1  0
 25 26  2  0
 26 27  1  0
 27 28  1  0
 28 29  2  0
 29 30  1  0
 30 31  1  0
 31 32  1  0
 32 33  1  0
 27 34  2  0
 34 35  1  0
 35 36  1  0
 35 37  2  0
 37 38  1  0
  8  2  1  0
 17 12  1  0
 24 18  1  0
 37 25  1  0
 38 15  1  0
 33 28  1  0
  1 39  1  0
  1 40  1  0
  1 41  1  0
  3 42  1  0
  6 43  1  0
 11 44  1  0
 13 45  1  0
 14 46  1  0
 17 47  1  0
 19 48  1  0
 19 49  1  0
 20 50  1  0
 20 51  1  0
 23 52  1  0
 23 53  1  0
 26 54  1  0
 29 55  1  0
 30 56  1  0
 30 57  1  0
 32 58  1  0
 32 59  1  0
 33 60  1  0
 33 61  1  0
M  END
$$$$
