
     RDKit          3D

 51 55  0  0  0  0  0  0  0  0999 V2000
   -1.0929    1.4059    0.8067 O   0  0  0  0  0  0  0  0  0  0  0  0
   -1.7326    0.7690   -0.0578 C   0  0  0  0  0  0  0  0  0  0  0  0
   -3.1617    1.0345   -0.2343 C   0  0  0  0  0  0  0  0  0  0  0  0
   -3.5562    2.0065   -1.1548 C   0  0  0  0  0  0  0  0  0  0  0  0
   -4.8982    2.2217   -1.2889 C   0  0  0  0  0  0  0  0  0  0  0  0
   -5.4806    3.4210   -2.4188 Cl  0  0  0  0  0  0  0  0  0  0  0  0
   -5.8352    1.5181   -0.5548 C   0  0  0  0  0  0  0  0  0  0  0  0
   -5.4234    0.5524    0.3585 C   0  0  0  0  0  0  0  0  0  0  0  0
   -4.0585    0.3105    0.5174 C   0  0  0  0  0  0  0  0  0  0  0  0
   -3.5696   -0.6545    1.4357 N   0  0  0  0  0  0  0  0  0  0  0  0
   -2.8233   -1.7118    1.2967 N   0  0  0  0  0  0  0  0  0  0  0  0
   -2.6179   -2.3297    2.4787 C   0  0  0  0  0  0  0  0  0  0  0  0
   -3.3096   -1.5661    3.4146 C   0  0  0  0  0  0  0  0  0  0  0  0
   -3.8664   -0.5697    2.7431 N   0  0  0  0  0  0  0  0  0  0  0  0
   -1.0470   -0.1957   -0.8444 N   0  0  0  0  0  0  0  0  0  0  0  0
   -1.7223   -0.9765   -1.8564 C   0  0  0  0  0  0  0  0  0  0  0  0
   -0.9389   -1.2054   -3.1066 C   0  0  0  0  0  0  0  0  0  0  0  0
    0.4144   -1.2756   -2.9264 O   0  0  0  0  0  0  0  0  0  0  0  0
    0.7055   -1.5895   -1.6087 C   0  0  0  0  0  0  0  0  0  0  0  0
    0.3879   -0.4554   -0.6635 C   0  0  1  0  0  0  0  0  0  0  0  0
    1.2354    0.7242   -0.9292 C   0  0  0  0  0  0  0  0  0  0  0  0
    2.6811    0.4859   -0.7284 C   0  0  0  0  0  0  0  0  0  0  0  0
    3.2431    0.7544    0.5315 C   0  0  0  0  0  0  0  0  0  0  0  0
    4.5457    0.5394    0.8557 C   0  0  0  0  0  0  0  0  0  0  0  0
    5.0971    0.8284    2.1815 C   0  0  0  0  0  0  0  0  0  0  0  0
    6.2771    1.3713    2.4944 N   0  0  0  0  0  0  0  0  0  0  0  0
    6.3096    1.4243    3.8535 C   0  0  0  0  0  0  0  0  0  0  0  0
    5.1826    0.9283    4.3492 O   0  0  0  0  0  0  0  0  0  0  0  0
    4.4708    0.5778    3.3415 N   0  0  0  0  0  0  0  0  0  0  0  0
    5.3938    0.0179   -0.1157 C   0  0  0  0  0  0  0  0  0  0  0  0
    4.8765   -0.2562   -1.3618 C   0  0  0  0  0  0  0  0  0  0  0  0
    3.5296   -0.0252   -1.6727 C   0  0  0  0  0  0  0  0  0  0  0  0
    3.1721   -0.2998   -2.9450 F   0  0  0  0  0  0  0  0  0  0  0  0
   -2.7980    2.5426   -1.7171 H   0  0  0  0  0  0  0  0  0  0  0  0
   -6.9039    1.6951   -0.6662 H   0  0  0  0  0  0  0  0  0  0  0  0
   -6.1174   -0.0219    0.9538 H   0  0  0  0  0  0  0  0  0  0  0  0
   -2.0469   -3.2231    2.6891 H   0  0  0  0  0  0  0  0  0  0  0  0
   -3.3192   -1.8350    4.4699 H   0  0  0  0  0  0  0  0  0  0  0  0
   -1.9604   -1.9563   -1.3707 H   0  0  0  0  0  0  0  0  0  0  0  0
   -2.6909   -0.5248   -2.1589 H   0  0  0  0  0  0  0  0  0  0  0  0
   -1.1739   -0.3883   -3.8537 H   0  0  0  0  0  0  0  0  0  0  0  0
   -1.3466   -2.1471   -3.5748 H   0  0  0  0  0  0  0  0  0  0  0  0
    0.0089   -2.4745   -1.3855 H   0  0  0  0  0  0  0  0  0  0  0  0
    1.7351   -1.9693   -1.5350 H   0  0  0  0  0  0  0  0  0  0  0  0
    0.5600   -0.8624    0.3720 H   0  0  0  0  0  0  0  0  0  0  0  0
    1.0954    1.0267   -2.0020 H   0  0  0  0  0  0  0  0  0  0  0  0
    0.8993    1.5705   -0.2608 H   0  0  0  0  0  0  0  0  0  0  0  0
    2.6007    1.1666    1.3208 H   0  0  0  0  0  0  0  0  0  0  0  0
    7.0953    1.7980    4.4956 H   0  0  0  0  0  0  0  0  0  0  0  0
    6.4232   -0.1522    0.1424 H   0  0  0  0  0  0  0  0  0  0  0  0
    5.5514   -0.6632   -2.1097 H   0  0  0  0  0  0  0  0  0  0  0  0
  1  2  2  0
  2  3  1  0
  3  4  2  0
  4  5  1  0
  5  6  1  0
  5  7  2  0
  7  8  1  0
  8  9  2  0
  9 10  1  0
 10 11  1  0
 11 12  2  0
 12 13  1  0
 13 14  2  0
  2 15  1  0
 15 16  1  0
 16 17  1  0
 17 18  1  0
 18 19  1  0
 19 20  1  0
 20 21  1  0
 21 22  1  0
 22 23  2  0
 23 24  1  0
 24 25  1  0
 25 26  1  0
 26 27  2  0
 27 28  1  0
 28 29  1  0
 24 30  2  0
 30 31  1  0
 31 32  2  0
 32 33  1  0
  9  3  1  0
 14 10  1  0
 20 15  1  0
 32 22  1  0
 29 25  2  0
  4 34  1  0
  7 35  1  0
  8 36  1  0
 12 37  1  0
 13 38  1  0
 16 39  1  0
 16 40  1  0
 17 41  1  0
 17 42  1  0
 19 43  1  0
 19 44  1  0
 20 45  1  1
 21 46  1  0
 21 47  1  0
 23 48  1  0
 27 49  1  0
 30 50  1  0
 31 51  1  0
M  END
$$$$
