
     RDKit          3D

 41 43  0  0  0  0  0  0  0  0999 V2000
   -4.2168    0.0051   -0.7166 C   0  0  0  0  0  0  0  0  0  0  0  0
   -3.2482    1.1269   -0.5137 C   0  0  0  0  0  0  0  0  0  0  0  0
   -2.3827    1.3784   -1.7129 C   0  0  0  0  0  0  0  0  0  0  0  0
   -2.3925    0.7860    0.6509 C   0  0  0  0  0  0  0  0  0  0  0  0
   -1.1902    0.0788    0.5116 C   0  0  0  0  0  0  0  0  0  0  0  0
   -0.3732   -0.2521    1.5633 C   0  0  0  0  0  0  0  0  0  0  0  0
    0.8299   -1.0313    1.4826 C   0  0  0  0  0  0  0  0  0  0  0  0
    1.2036   -1.6425    2.5491 O   0  0  0  0  0  0  0  0  0  0  0  0
    1.6553   -1.1911    0.3282 N   0  0  0  0  0  0  0  0  0  0  0  0
    2.7666   -2.1335    0.5440 C   0  0  0  0  0  0  0  0  0  0  0  0
    3.4051   -2.4883   -0.7889 C   0  0  0  0  0  0  0  0  0  0  0  0
    3.7166   -1.2085   -1.4801 C   0  0  0  0  0  0  0  0  0  0  0  0
    5.1881   -0.6120   -2.3325 S   0  0  0  0  0  0  0  0  0  0  0  0
    4.4642    1.0224   -2.7135 C   0  0  0  0  0  0  0  0  0  0  0  0
    3.2357    0.9564   -2.1820 C   0  0  0  0  0  0  0  0  0  0  0  0
    2.8358   -0.1714   -1.5500 C   0  0  0  0  0  0  0  0  0  0  0  0
    1.4762   -0.4806   -0.8964 C   0  0  0  0  0  0  0  0  0  0  0  0
   -0.7618    0.1360    2.8599 C   0  0  0  0  0  0  0  0  0  0  0  0
    0.0322   -0.1758    3.9757 O   0  0  0  0  0  0  0  0  0  0  0  0
   -1.9337    0.8242    2.9949 C   0  0  0  0  0  0  0  0  0  0  0  0
   -2.7430    1.1513    1.9296 C   0  0  0  0  0  0  0  0  0  0  0  0
   -3.9432    1.8619    2.1042 O   0  0  0  0  0  0  0  0  0  0  0  0
   -4.9917    0.2068   -1.4589 H   0  0  0  0  0  0  0  0  0  0  0  0
   -4.6699   -0.2857    0.2429 H   0  0  0  0  0  0  0  0  0  0  0  0
   -3.6208   -0.8705   -1.1078 H   0  0  0  0  0  0  0  0  0  0  0  0
   -3.8089    2.0459   -0.2346 H   0  0  0  0  0  0  0  0  0  0  0  0
   -2.9567    1.9693   -2.4769 H   0  0  0  0  0  0  0  0  0  0  0  0
   -1.4752    1.9363   -1.3942 H   0  0  0  0  0  0  0  0  0  0  0  0
   -2.0812    0.4306   -2.1985 H   0  0  0  0  0  0  0  0  0  0  0  0
   -0.9957   -0.2191   -0.5049 H   0  0  0  0  0  0  0  0  0  0  0  0
    3.5246   -1.6310    1.1506 H   0  0  0  0  0  0  0  0  0  0  0  0
    2.4489   -3.0516    1.0358 H   0  0  0  0  0  0  0  0  0  0  0  0
    4.3436   -3.0445   -0.6200 H   0  0  0  0  0  0  0  0  0  0  0  0
    2.7005   -3.0442   -1.4349 H   0  0  0  0  0  0  0  0  0  0  0  0
    5.0021    1.7766   -3.2471 H   0  0  0  0  0  0  0  0  0  0  0  0
    2.5617    1.8553   -2.2805 H   0  0  0  0  0  0  0  0  0  0  0  0
    0.8498   -0.9906   -1.6267 H   0  0  0  0  0  0  0  0  0  0  0  0
    1.0107    0.5140   -0.6609 H   0  0  0  0  0  0  0  0  0  0  0  0
    0.6703    0.4857    4.3746 H   0  0  0  0  0  0  0  0  0  0  0  0
   -2.2405    1.1288    4.0032 H   0  0  0  0  0  0  0  0  0  0  0  0
   -3.8956    2.8477    1.8312 H   0  0  0  0  0  0  0  0  0  0  0  0
  1  2  1  0
  2  3  1  0
  2  4  1  0
  4  5  2  0
  5  6  1  0
  6  7  1  0
  7  8  2  0
  7  9  1  0
  9 10  1  0
 10 11  1  0
 11 12  1  0
 12 13  1  0
 13 14  1  0
 14 15  2  0
 15 16  1  0
 16 17  1  0
  6 18  2  0
 18 19  1  0
 18 20  1  0
 20 21  2  0
 21 22  1  0
 21  4  1  0
 17  9  1  0
 16 12  2  0
  1 23  1  0
  1 24  1  0
  1 25  1  0
  2 26  1  0
  3 27  1  0
  3 28  1  0
  3 29  1  0
  5 30  1  0
 10 31  1  0
 10 32  1  0
 11 33  1  0
 11 34  1  0
 14 35  1  0
 15 36  1  0
 17 37  1  0
 17 38  1  0
 19 39  1  0
 20 40  1  0
 22 41  1  0
M  END
$$$$
