
     RDKit          3D

 64 68  0  0  0  0  0  0  0  0999 V2000
    9.3879   -0.5404   -1.1775 C   0  0  0  0  0  0  0  0  0  0  0  0
    8.6683    0.1469   -0.0727 C   0  0  0  0  0  0  0  0  0  0  0  0
    9.2830    0.5408    0.9635 O   0  0  0  0  0  0  0  0  0  0  0  0
    7.2839    0.3739   -0.1581 N   0  0  0  0  0  0  0  0  0  0  0  0
    6.5601   -0.0622   -1.3230 C   0  0  0  0  0  0  0  0  0  0  0  0
    5.2887   -0.7500   -0.8075 C   0  0  0  0  0  0  0  0  0  0  0  0
    4.5570    0.2353   -0.0477 N   0  0  0  0  0  0  0  0  0  0  0  0
    3.1642    0.0115    0.1636 C   0  0  0  0  0  0  0  0  0  0  0  0
    2.3425    0.9701    0.6973 C   0  0  0  0  0  0  0  0  0  0  0  0
    1.0134    0.7125    0.8922 C   0  0  0  0  0  0  0  0  0  0  0  0
    0.4190   -0.4967    0.5748 C   0  0  0  0  0  0  0  0  0  0  0  0
   -0.9334   -0.7408    0.7798 O   0  0  0  0  0  0  0  0  0  0  0  0
   -1.7098    0.3129    1.3382 C   0  0  0  0  0  0  0  0  0  0  0  0
   -3.1241   -0.2149    1.4535 C   0  0  1  0  0  0  0  0  0  0  0  0
   -4.1050    0.8003    1.9295 C   0  0  0  0  0  0  0  0  0  0  0  0
   -5.0909    0.8612    0.9821 O   0  0  0  0  0  0  0  0  0  0  0  0
   -4.8225   -0.1184    0.0199 C   0  0  2  0  0  0  0  0  0  0  0  0
   -5.0435    0.5362   -1.3270 C   0  0  0  0  0  0  0  0  0  0  0  0
   -4.1689    1.6733   -1.5179 N   0  0  0  0  0  0  0  0  0  0  0  0
   -4.3983    2.9560   -1.2004 C   0  0  0  0  0  0  0  0  0  0  0  0
   -3.2995    3.7001   -1.5563 C   0  0  0  0  0  0  0  0  0  0  0  0
   -2.4208    2.8228   -2.0900 N   0  0  0  0  0  0  0  0  0  0  0  0
   -2.9465    1.5872   -2.0684 C   0  0  0  0  0  0  0  0  0  0  0  0
   -5.7551   -1.2621    0.1577 C   0  0  0  0  0  0  0  0  0  0  0  0
   -6.7376   -1.1602    1.1364 C   0  0  0  0  0  0  0  0  0  0  0  0
   -7.6296   -2.1973    1.2659 C   0  0  0  0  0  0  0  0  0  0  0  0
   -7.5856   -3.3235    0.4681 C   0  0  0  0  0  0  0  0  0  0  0  0
   -8.7220   -4.6428    0.6334 Cl  0  0  0  0  0  0  0  0  0  0  0  0
   -6.6195   -3.4286   -0.4971 C   0  0  0  0  0  0  0  0  0  0  0  0
   -5.7162   -2.3858   -0.6323 C   0  0  0  0  0  0  0  0  0  0  0  0
   -4.4709   -2.5553   -1.8474 Cl  0  0  0  0  0  0  0  0  0  0  0  0
   -3.5434   -0.5502    0.1699 O   0  0  0  0  0  0  0  0  0  0  0  0
    1.2644   -1.4450    0.0396 C   0  0  0  0  0  0  0  0  0  0  0  0
    2.6055   -1.2094   -0.1660 C   0  0  0  0  0  0  0  0  0  0  0  0
    5.1665    1.4209    0.5082 C   0  0  0  0  0  0  0  0  0  0  0  0
    6.5891    1.0381    0.9097 C   0  0  0  0  0  0  0  0  0  0  0  0
    8.8965   -1.5182   -1.3438 H   0  0  0  0  0  0  0  0  0  0  0  0
    9.4137    0.0973   -2.0739 H   0  0  0  0  0  0  0  0  0  0  0  0
   10.4259   -0.7241   -0.8353 H   0  0  0  0  0  0  0  0  0  0  0  0
    7.1206   -0.7449   -1.9752 H   0  0  0  0  0  0  0  0  0  0  0  0
    6.1937    0.8378   -1.8729 H   0  0  0  0  0  0  0  0  0  0  0  0
    4.6939   -1.1378   -1.6640 H   0  0  0  0  0  0  0  0  0  0  0  0
    5.6017   -1.5483   -0.1024 H   0  0  0  0  0  0  0  0  0  0  0  0
    2.7463    1.9223    0.9584 H   0  0  0  0  0  0  0  0  0  0  0  0
    0.3472    1.4783    1.3210 H   0  0  0  0  0  0  0  0  0  0  0  0
   -1.3303    0.6150    2.3284 H   0  0  0  0  0  0  0  0  0  0  0  0
   -1.6928    1.1849    0.6537 H   0  0  0  0  0  0  0  0  0  0  0  0
   -3.1184   -1.1410    2.0795 H   0  0  0  0  0  0  0  0  0  0  0  0
   -3.5902    1.7795    2.1011 H   0  0  0  0  0  0  0  0  0  0  0  0
   -4.4981    0.4461    2.9195 H   0  0  0  0  0  0  0  0  0  0  0  0
   -4.8923   -0.1611   -2.1546 H   0  0  0  0  0  0  0  0  0  0  0  0
   -6.0825    0.9219   -1.4079 H   0  0  0  0  0  0  0  0  0  0  0  0
   -5.2966    3.3821   -0.7345 H   0  0  0  0  0  0  0  0  0  0  0  0
   -3.1253    4.7772   -1.4504 H   0  0  0  0  0  0  0  0  0  0  0  0
   -2.4169    0.7253   -2.4464 H   0  0  0  0  0  0  0  0  0  0  0  0
   -6.7634   -0.2864    1.7477 H   0  0  0  0  0  0  0  0  0  0  0  0
   -8.3899   -2.1148    2.0258 H   0  0  0  0  0  0  0  0  0  0  0  0
   -6.5467   -4.2894   -1.1430 H   0  0  0  0  0  0  0  0  0  0  0  0
    0.8198   -2.4036   -0.2181 H   0  0  0  0  0  0  0  0  0  0  0  0
    3.2238   -2.0152   -0.5961 H   0  0  0  0  0  0  0  0  0  0  0  0
    5.2033    2.2655   -0.1786 H   0  0  0  0  0  0  0  0  0  0  0  0
    4.6883    1.7693    1.4478 H   0  0  0  0  0  0  0  0  0  0  0  0
    7.1340    1.9235    1.2947 H   0  0  0  0  0  0  0  0  0  0  0  0
    6.4846    0.3428    1.7655 H   0  0  0  0  0  0  0  0  0  0  0  0
  1  2  1  0
  2  3  2  0
  2  4  1  0
  4  5  1  0
  5  6  1  0
  6  7  1  0
  7  8  1  0
  8  9  2  0
  9 10  1  0
 10 11  2  0
 11 12  1  0
 12 13  1  0
 13 14  1  0
 14 15  1  0
 15 16  1  0
 16 17  1  0
 17 18  1  6
 18 19  1  0
 19 20  1  0
 20 21  2  0
 21 22  1  0
 22 23  2  0
 17 24  1  0
 24 25  2  0
 25 26  1  0
 26 27  2  0
 27 28  1  0
 27 29  1  0
 29 30  2  0
 30 31  1  0
 17 32  1  0
 11 33  1  0
 33 34  2  0
  7 35  1  0
 35 36  1  0
 36  4  1  0
 34  8  1  0
 32 14  1  0
 23 19  1  0
 30 24  1  0
  1 37  1  0
  1 38  1  0
  1 39  1  0
  5 40  1  0
  5 41  1  0
  6 42  1  0
  6 43  1  0
  9 44  1  0
 10 45  1  0
 13 46  1  0
 13 47  1  0
 14 48  1  1
 15 49  1  0
 15 50  1  0
 18 51  1  0
 18 52  1  0
 20 53  1  0
 21 54  1  0
 23 55  1  0
 25 56  1  0
 26 57  1  0
 29 58  1  0
 33 59  1  0
 34 60  1  0
 35 61  1  0
 35 62  1  0
 36 63  1  0
 36 64  1  0
M  END
$$$$
