
     RDKit          3D

 47 50  0  0  0  0  0  0  0  0999 V2000
    4.3583    0.7275   -2.3993 C   0  0  0  0  0  0  0  0  0  0  0  0
    2.9800    1.3964   -2.3847 C   0  0  0  0  0  0  0  0  0  0  0  0
    2.3621    1.0537   -1.1348 O   0  0  0  0  0  0  0  0  0  0  0  0
    2.9161    1.3898    0.0764 C   0  0  0  0  0  0  0  0  0  0  0  0
    4.0185    2.0287    0.0151 O   0  0  0  0  0  0  0  0  0  0  0  0
    2.3470    1.0757    1.3750 C   0  0  0  0  0  0  0  0  0  0  0  0
    2.8914    1.4076    2.5930 C   0  0  0  0  0  0  0  0  0  0  0  0
    2.0428    0.9258    3.5345 N   0  0  0  0  0  0  0  0  0  0  0  0
    0.9934    0.3081    2.9386 C   0  0  0  0  0  0  0  0  0  0  0  0
   -0.1308   -0.3399    3.3999 C   0  0  0  0  0  0  0  0  0  0  0  0
   -1.0413   -0.8804    2.5215 C   0  0  0  0  0  0  0  0  0  0  0  0
   -0.8363   -0.7782    1.1637 C   0  0  0  0  0  0  0  0  0  0  0  0
   -1.7639   -1.3302    0.1827 C   0  0  0  0  0  0  0  0  0  0  0  0
   -2.4473   -0.5541   -0.7592 C   0  0  0  0  0  0  0  0  0  0  0  0
   -2.3173    0.8929   -0.8739 C   0  0  0  0  0  0  0  0  0  0  0  0
   -1.8410    1.4711   -2.0289 C   0  0  0  0  0  0  0  0  0  0  0  0
   -1.7179    2.8569   -2.1356 C   0  0  0  0  0  0  0  0  0  0  0  0
   -2.0812    3.6362   -1.0650 C   0  0  0  0  0  0  0  0  0  0  0  0
   -1.9535    4.9925   -1.1893 F   0  0  0  0  0  0  0  0  0  0  0  0
   -2.5626    3.0874    0.1077 C   0  0  0  0  0  0  0  0  0  0  0  0
   -2.6710    1.6962    0.1750 C   0  0  0  0  0  0  0  0  0  0  0  0
   -3.1933   -1.3990   -1.4748 N   0  0  0  0  0  0  0  0  0  0  0  0
   -3.0062   -2.6512   -1.0248 C   0  0  0  0  0  0  0  0  0  0  0  0
   -2.1295   -2.6087   -0.0082 N   0  0  0  0  0  0  0  0  0  0  0  0
   -1.6637   -3.7511    0.7469 C   0  0  0  0  0  0  0  0  0  0  0  0
   -0.4233   -4.3542    0.1216 C   0  0  0  0  0  0  0  0  0  0  0  0
   -0.6579   -4.7797   -1.1649 F   0  0  0  0  0  0  0  0  0  0  0  0
    0.6114   -3.4465    0.0656 F   0  0  0  0  0  0  0  0  0  0  0  0
    0.3181   -0.1119    0.7553 C   0  0  0  0  0  0  0  0  0  0  0  0
    1.2048    0.4144    1.6095 N   0  0  0  0  0  0  0  0  0  0  0  0
    4.6101    0.3306   -3.3920 H   0  0  0  0  0  0  0  0  0  0  0  0
    5.1184    1.4280   -1.9961 H   0  0  0  0  0  0  0  0  0  0  0  0
    4.3397   -0.1393   -1.6835 H   0  0  0  0  0  0  0  0  0  0  0  0
    3.0756    2.4895   -2.4169 H   0  0  0  0  0  0  0  0  0  0  0  0
    2.4093    0.9490   -3.2007 H   0  0  0  0  0  0  0  0  0  0  0  0
    3.8193    1.9491    2.7375 H   0  0  0  0  0  0  0  0  0  0  0  0
   -0.2699   -0.4070    4.4895 H   0  0  0  0  0  0  0  0  0  0  0  0
   -1.9125   -1.3819    2.9144 H   0  0  0  0  0  0  0  0  0  0  0  0
   -1.5533    0.8667   -2.8744 H   0  0  0  0  0  0  0  0  0  0  0  0
   -1.3417    3.2967   -3.0501 H   0  0  0  0  0  0  0  0  0  0  0  0
   -2.8380    3.7223    0.9259 H   0  0  0  0  0  0  0  0  0  0  0  0
   -3.0504    1.3008    1.1055 H   0  0  0  0  0  0  0  0  0  0  0  0
   -3.4884   -3.5593   -1.4204 H   0  0  0  0  0  0  0  0  0  0  0  0
   -1.4036   -3.4422    1.7863 H   0  0  0  0  0  0  0  0  0  0  0  0
   -2.4714   -4.5106    0.7655 H   0  0  0  0  0  0  0  0  0  0  0  0
   -0.1272   -5.2358    0.7306 H   0  0  0  0  0  0  0  0  0  0  0  0
    0.4778   -0.0324   -0.3262 H   0  0  0  0  0  0  0  0  0  0  0  0
  1  2  1  0
  2  3  1  0
  3  4  1  0
  4  5  2  0
  4  6  1  0
  6  7  2  0
  7  8  1  0
  8  9  2  0
  9 10  1  0
 10 11  2  0
 11 12  1  0
 12 13  1  0
 13 14  2  0
 14 15  1  0
 15 16  2  0
 16 17  1  0
 17 18  2  0
 18 19  1  0
 18 20  1  0
 20 21  2  0
 14 22  1  0
 22 23  2  0
 23 24  1  0
 24 25  1  0
 25 26  1  0
 26 27  1  0
 26 28  1  0
 12 29  2  0
 29 30  1  0
 30  6  1  0
 30  9  1  0
 24 13  1  0
 21 15  1  0
  1 31  1  0
  1 32  1  0
  1 33  1  0
  2 34  1  0
  2 35  1  0
  7 36  1  0
 10 37  1  0
 11 38  1  0
 16 39  1  0
 17 40  1  0
 20 41  1  0
 21 42  1  0
 23 43  1  0
 25 44  1  0
 25 45  1  0
 26 46  1  0
 29 47  1  0
M  END
$$$$
