
     RDKit          3D

 53 58  0  0  0  0  0  0  0  0999 V2000
    3.8642   -1.3344   -3.5655 C   0  0  0  0  0  0  0  0  0  0  0  0
    3.2819   -0.9978   -2.2254 C   0  0  0  0  0  0  0  0  0  0  0  0
    1.9202   -0.9127   -2.0220 C   0  0  0  0  0  0  0  0  0  0  0  0
    1.3801   -0.6011   -0.7828 C   0  0  0  0  0  0  0  0  0  0  0  0
   -0.0121   -0.5315   -0.5761 N   0  0  0  0  0  0  0  0  0  0  0  0
   -0.8079   -1.6119   -0.1230 C   0  0  0  0  0  0  0  0  0  0  0  0
   -0.4240   -2.7680    0.1787 O   0  0  0  0  0  0  0  0  0  0  0  0
   -2.1880   -1.1694   -0.0559 C   0  0  0  0  0  0  0  0  0  0  0  0
   -2.2023    0.1446   -0.4610 C   0  0  0  0  0  0  0  0  0  0  0  0
   -3.5346    0.5404   -0.4037 C   0  0  0  0  0  0  0  0  0  0  0  0
   -4.1565    1.8434   -0.7429 C   0  0  0  0  0  0  0  0  0  0  0  0
   -4.2417    1.9774   -2.1394 O   0  0  0  0  0  0  0  0  0  0  0  0
   -4.2174   -0.5300    0.0219 N   0  0  0  0  0  0  0  0  0  0  0  0
   -3.4210   -1.5606    0.2336 N   0  0  0  0  0  0  0  0  0  0  0  0
   -3.8809   -2.8537    0.6981 C   0  0  0  0  0  0  0  0  0  0  0  0
   -4.3532   -2.8525    2.1583 C   0  0  0  0  0  0  0  0  0  0  0  0
   -3.1708   -3.6456    1.6885 C   0  0  0  0  0  0  0  0  0  0  0  0
   -0.8555    0.6089   -0.7840 C   0  0  1  0  0  0  0  0  0  0  0  0
   -0.4042    1.8089   -0.0374 C   0  0  0  0  0  0  0  0  0  0  0  0
    0.8210    2.3295   -0.3984 C   0  0  0  0  0  0  0  0  0  0  0  0
    1.3417    3.4298    0.2534 C   0  0  0  0  0  0  0  0  0  0  0  0
    0.5978    3.9724    1.2584 C   0  0  0  0  0  0  0  0  0  0  0  0
    1.2404    5.3687    2.0973 Cl  0  0  0  0  0  0  0  0  0  0  0  0
   -0.6223    3.4765    1.6381 C   0  0  0  0  0  0  0  0  0  0  0  0
   -1.1239    2.3817    0.9789 C   0  0  0  0  0  0  0  0  0  0  0  0
    2.2891   -0.3757    0.2579 C   0  0  0  0  0  0  0  0  0  0  0  0
    3.6161   -0.4528    0.0842 N   0  0  0  0  0  0  0  0  0  0  0  0
    4.6524   -0.2723    0.9514 C   0  0  0  0  0  0  0  0  0  0  0  0
    4.4979    0.0715    2.3680 C   0  0  0  0  0  0  0  0  0  0  0  0
    5.7695   -0.4750    0.2301 N   0  0  0  0  0  0  0  0  0  0  0  0
    5.4360   -0.7671   -1.0247 N   0  0  0  0  0  0  0  0  0  0  0  0
    4.0958   -0.7582   -1.1353 C   0  0  0  0  0  0  0  0  0  0  0  0
    4.8747   -0.8679   -3.5986 H   0  0  0  0  0  0  0  0  0  0  0  0
    3.9528   -2.4286   -3.7088 H   0  0  0  0  0  0  0  0  0  0  0  0
    3.2024   -0.9544   -4.3617 H   0  0  0  0  0  0  0  0  0  0  0  0
    1.2397   -1.0893   -2.8344 H   0  0  0  0  0  0  0  0  0  0  0  0
   -3.6524    2.7211   -0.3474 H   0  0  0  0  0  0  0  0  0  0  0  0
   -5.2240    1.8296   -0.3956 H   0  0  0  0  0  0  0  0  0  0  0  0
   -4.9596    1.3514   -2.4633 H   0  0  0  0  0  0  0  0  0  0  0  0
   -4.5396   -3.3645   -0.0325 H   0  0  0  0  0  0  0  0  0  0  0  0
   -5.3162   -3.3865    2.3793 H   0  0  0  0  0  0  0  0  0  0  0  0
   -4.1702   -1.9621    2.7690 H   0  0  0  0  0  0  0  0  0  0  0  0
   -2.2260   -3.3887    2.1602 H   0  0  0  0  0  0  0  0  0  0  0  0
   -3.3591   -4.7586    1.6544 H   0  0  0  0  0  0  0  0  0  0  0  0
   -0.7477    0.8707   -1.8740 H   0  0  0  0  0  0  0  0  0  0  0  0
    1.3908    1.8916   -1.2059 H   0  0  0  0  0  0  0  0  0  0  0  0
    2.2987    3.7938   -0.0665 H   0  0  0  0  0  0  0  0  0  0  0  0
   -1.1647    3.9649    2.4552 H   0  0  0  0  0  0  0  0  0  0  0  0
   -2.0664    1.9710    1.2552 H   0  0  0  0  0  0  0  0  0  0  0  0
    1.9045   -0.1319    1.2316 H   0  0  0  0  0  0  0  0  0  0  0  0
    3.8016   -0.6287    2.9066 H   0  0  0  0  0  0  0  0  0  0  0  0
    4.1104    1.0915    2.5525 H   0  0  0  0  0  0  0  0  0  0  0  0
    5.4626   -0.0077    2.9053 H   0  0  0  0  0  0  0  0  0  0  0  0
  1  2  1  0
  2  3  2  0
  3  4  1  0
  4  5  1  0
  5  6  1  0
  6  7  2  0
  6  8  1  0
  8  9  2  0
  9 10  1  0
 10 11  1  0
 11 12  1  0
 10 13  2  0
 13 14  1  0
 14 15  1  0
 15 16  1  0
 16 17  1  0
  9 18  1  0
 18 19  1  0
 19 20  2  0
 20 21  1  0
 21 22  2  0
 22 23  1  0
 22 24  1  0
 24 25  2  0
  4 26  2  0
 26 27  1  0
 27 28  1  0
 28 29  1  0
 28 30  2  0
 30 31  1  0
 31 32  2  0
 32  2  1  0
 18  5  1  0
 25 19  1  0
 32 27  1  0
 14  8  1  0
 17 15  1  0
  1 33  1  0
  1 34  1  0
  1 35  1  0
  3 36  1  0
 11 37  1  0
 11 38  1  0
 12 39  1  0
 15 40  1  0
 16 41  1  0
 16 42  1  0
 17 43  1  0
 17 44  1  0
 18 45  1  6
 20 46  1  0
 21 47  1  0
 24 48  1  0
 25 49  1  0
 26 50  1  0
 29 51  1  0
 29 52  1  0
 29 53  1  0
M  END
$$$$
