
     RDKit          3D

 29 29  0  0  0  0  0  0  0  0999 V2000
    5.6599   -0.1063    0.8567 O   0  0  0  0  0  0  0  0  0  0  0  0
    4.5684   -0.6989    0.8115 N   0  0  0  0  0  4  0  0  0  0  0  0
    4.5207   -1.9825    1.2975 O   0  0  0  0  0  1  0  0  0  0  0  0
    3.3977   -0.0885    0.2795 C   0  0  0  0  0  0  0  0  0  0  0  0
    3.4328    1.1968   -0.2103 C   0  0  0  0  0  0  0  0  0  0  0  0
    2.3288    1.8300   -0.7344 C   0  0  0  0  0  0  0  0  0  0  0  0
    1.1092    1.1641   -0.7836 C   0  0  0  0  0  0  0  0  0  0  0  0
    1.0491   -0.1237   -0.2988 C   0  0  0  0  0  0  0  0  0  0  0  0
   -0.1827   -0.8453   -0.3209 N   0  0  0  0  0  0  0  0  0  0  0  0
   -1.4099   -0.2954   -0.8070 C   0  0  0  0  0  0  0  0  0  0  0  0
   -2.0435    1.0918    0.1402 P   0  0  0  0  0  5  0  0  0  0  0  0
   -2.4069    2.2277   -0.7866 O   0  0  0  0  0  0  0  0  0  0  0  0
   -0.9483    1.6820    1.2821 O   0  0  0  0  0  0  0  0  0  0  0  0
   -3.4306    0.6336    1.0378 O   0  0  0  0  0  0  0  0  0  0  0  0
   -2.6952   -1.5960   -0.7957 P   0  0  0  0  0  5  0  0  0  0  0  0
   -2.0779   -2.9455   -1.0116 O   0  0  0  0  0  0  0  0  0  0  0  0
   -3.8551   -1.3116   -1.9786 O   0  0  0  0  0  0  0  0  0  0  0  0
   -3.4565   -1.5122    0.7128 O   0  0  0  0  0  0  0  0  0  0  0  0
    2.1843   -0.7364    0.2251 C   0  0  0  0  0  0  0  0  0  0  0  0
    4.3914    1.7065   -0.1664 H   0  0  0  0  0  0  0  0  0  0  0  0
    2.3608    2.8406   -1.1185 H   0  0  0  0  0  0  0  0  0  0  0  0
    0.2233    1.6031   -1.1832 H   0  0  0  0  0  0  0  0  0  0  0  0
   -0.1781   -1.8389    0.0438 H   0  0  0  0  0  0  0  0  0  0  0  0
   -1.2674    0.0358   -1.8746 H   0  0  0  0  0  0  0  0  0  0  0  0
   -1.0693    2.6390    1.3729 H   0  0  0  0  0  0  0  0  0  0  0  0
   -3.2073    0.4411    1.9737 H   0  0  0  0  0  0  0  0  0  0  0  0
   -4.7768   -1.3554   -1.6260 H   0  0  0  0  0  0  0  0  0  0  0  0
   -4.3672   -1.9007    0.6995 H   0  0  0  0  0  0  0  0  0  0  0  0
    2.1461   -1.7546    0.6105 H   0  0  0  0  0  0  0  0  0  0  0  0
  1  2  2  0
  2  3  1  0
  2  4  1  0
  4  5  2  0
  5  6  1  0
  6  7  2  0
  7  8  1  0
  8  9  1  0
  9 10  1  0
 10 11  1  0
 11 12  2  0
 11 13  1  0
 11 14  1  0
 10 15  1  0
 15 16  2  0
 15 17  1  0
 15 18  1  0
  8 19  2  0
 19  4  1  0
  5 20  1  0
  6 21  1  0
  7 22  1  0
  9 23  1  0
 10 24  1  0
 13 25  1  0
 14 26  1  0
 17 27  1  0
 18 28  1  0
 19 29  1  0
M  CHG  2   2   1   3  -1
M  END
$$$$
