
     RDKit          3D

 51 55  0  0  0  0  0  0  0  0999 V2000
   -4.9173    4.9057   -2.7936 N   0  0  0  0  0  0  0  0  0  0  0  0
   -4.5802    4.0975   -1.6485 C   0  0  0  0  0  0  0  0  0  0  0  0
   -3.6623    3.2337   -1.7554 N   0  0  0  0  0  0  0  0  0  0  0  0
   -3.2324    2.3761   -0.6921 C   0  0  1  0  0  0  0  0  0  0  0  0
   -3.0525    0.9783   -1.1983 C   0  0  0  0  0  0  0  0  0  0  0  0
   -1.8738    0.3010   -1.1145 C   0  0  0  0  0  0  0  0  0  0  0  0
   -1.7083   -1.0358   -1.5203 C   0  0  0  0  0  0  0  0  0  0  0  0
   -0.3846   -1.5777   -1.3689 N   0  0  0  0  0  0  0  0  0  0  0  0
   -0.0622   -1.9441   -0.0071 C   0  0  0  0  0  0  0  0  0  0  0  0
   -0.9008   -1.8220    0.9274 O   0  0  0  0  0  0  0  0  0  0  0  0
    1.2536   -2.4384    0.2605 C   0  0  0  0  0  0  0  0  0  0  0  0
    1.7830   -2.4324    1.4654 C   0  0  0  0  0  0  0  0  0  0  0  0
    3.1219   -2.6979    1.7559 C   0  0  0  0  0  0  0  0  0  0  0  0
    3.9550   -2.9850    0.6695 C   0  0  0  0  0  0  0  0  0  0  0  0
    5.3560   -3.0201    0.8959 C   0  0  0  0  0  0  0  0  0  0  0  0
    6.4353   -3.0420    1.0675 C   0  0  0  0  0  0  0  0  0  0  0  0
    8.0077   -3.0998    1.3075 C   0  0  0  0  0  0  0  0  0  0  0  0
    8.3571   -1.6451    1.8316 C   0  0  0  0  0  0  0  0  0  0  0  0
    8.4379   -2.9124    2.6785 C   0  0  0  0  0  0  0  0  0  0  0  0
    3.3698   -2.9849   -0.5388 C   0  0  0  0  0  0  0  0  0  0  0  0
    2.0558   -2.7270   -0.8466 N   0  0  0  0  0  0  0  0  0  0  0  0
   -2.7805   -1.6699   -2.0193 C   0  0  0  0  0  0  0  0  0  0  0  0
   -4.0023   -1.0362   -2.1367 C   0  0  0  0  0  0  0  0  0  0  0  0
   -4.1340    0.2962   -1.7217 C   0  0  0  0  0  0  0  0  0  0  0  0
   -5.3448    0.8802   -1.8547 F   0  0  0  0  0  0  0  0  0  0  0  0
   -1.8727    2.9181   -0.2611 C   0  0  0  0  0  0  0  0  0  0  0  0
   -2.0082    4.2486    0.1245 F   0  0  0  0  0  0  0  0  0  0  0  0
   -1.4452    2.2264    0.8798 F   0  0  0  0  0  0  0  0  0  0  0  0
   -4.1171    2.3122    0.4947 C   0  0  1  0  0  0  0  0  0  0  0  0
   -4.2415    3.3121    1.5540 C   0  0  0  0  0  0  0  0  0  0  0  0
   -5.3053    3.1914    0.4565 C   0  0  1  0  0  0  0  0  0  0  0  0
   -5.2457    4.2436   -0.4503 O   0  0  0  0  0  0  0  0  0  0  0  0
   -4.7064    5.9495   -2.7618 H   0  0  0  0  0  0  0  0  0  0  0  0
   -5.3520    4.5293   -3.6490 H   0  0  0  0  0  0  0  0  0  0  0  0
   -1.0101    0.7985   -0.7373 H   0  0  0  0  0  0  0  0  0  0  0  0
    0.2499   -1.6826   -2.1432 H   0  0  0  0  0  0  0  0  0  0  0  0
    1.1634   -2.2076    2.3446 H   0  0  0  0  0  0  0  0  0  0  0  0
    3.5388   -2.7047    2.7398 H   0  0  0  0  0  0  0  0  0  0  0  0
    8.5256   -3.4399    0.4701 H   0  0  0  0  0  0  0  0  0  0  0  0
    7.4365   -1.0259    2.0172 H   0  0  0  0  0  0  0  0  0  0  0  0
    9.2155   -1.1999    1.3811 H   0  0  0  0  0  0  0  0  0  0  0  0
    7.7122   -3.0020    3.5320 H   0  0  0  0  0  0  0  0  0  0  0  0
    9.4680   -3.1002    3.0309 H   0  0  0  0  0  0  0  0  0  0  0  0
    3.9813   -3.2026   -1.4155 H   0  0  0  0  0  0  0  0  0  0  0  0
   -2.6692   -2.7215   -2.3324 H   0  0  0  0  0  0  0  0  0  0  0  0
   -4.8280   -1.5739   -2.5360 H   0  0  0  0  0  0  0  0  0  0  0  0
   -1.1292    2.8853   -1.0676 H   0  0  0  0  0  0  0  0  0  0  0  0
   -4.3576    1.2524    0.8466 H   0  0  0  0  0  0  0  0  0  0  0  0
   -4.5626    2.9793    2.5811 H   0  0  0  0  0  0  0  0  0  0  0  0
   -3.6428    4.2358    1.6184 H   0  0  0  0  0  0  0  0  0  0  0  0
   -6.2946    2.7803    0.7106 H   0  0  0  0  0  0  0  0  0  0  0  0
  1  2  1  0
  2  3  2  0
  3  4  1  0
  4  5  1  0
  5  6  2  0
  6  7  1  0
  7  8  1  0
  8  9  1  0
  9 10  2  0
  9 11  1  0
 11 12  2  0
 12 13  1  0
 13 14  2  0
 14 15  1  0
 15 16  3  0
 16 17  1  0
 17 18  1  0
 18 19  1  0
 14 20  1  0
 20 21  2  0
  7 22  2  0
 22 23  1  0
 23 24  2  0
 24 25  1  0
  4 26  1  1
 26 27  1  0
 26 28  1  0
  4 29  1  0
 29 30  1  0
 30 31  1  0
 31 32  1  0
 32  2  1  0
 24  5  1  0
 31 29  1  0
 21 11  1  0
 19 17  1  0
  1 33  1  0
  1 34  1  0
  6 35  1  0
  8 36  1  0
 12 37  1  0
 13 38  1  0
 17 39  1  0
 18 40  1  0
 18 41  1  0
 19 42  1  0
 19 43  1  0
 20 44  1  0
 22 45  1  0
 23 46  1  0
 26 47  1  0
 29 48  1  1
 30 49  1  0
 30 50  1  0
 31 51  1  1
M  END
$$$$
