
     RDKit          3D

 43 47  0  0  0  0  0  0  0  0999 V2000
    7.6425    1.2132   -1.0337 C   0  0  0  0  0  0  0  0  0  0  0  0
    7.1865    0.0952   -0.2943 O   0  0  0  0  0  0  0  0  0  0  0  0
    5.8169   -0.1001   -0.1739 C   0  0  0  0  0  0  0  0  0  0  0  0
    4.9099    0.7677   -0.7560 C   0  0  0  0  0  0  0  0  0  0  0  0
    3.5664    0.5882   -0.6460 C   0  0  0  0  0  0  0  0  0  0  0  0
    3.0355   -0.4892    0.0653 C   0  0  0  0  0  0  0  0  0  0  0  0
    1.5884   -0.6347    0.1518 C   0  0  0  0  0  0  0  0  0  0  0  0
    0.7788   -0.2181   -0.8812 C   0  0  0  0  0  0  0  0  0  0  0  0
   -0.5372   -0.3609   -0.7802 N   0  0  0  0  0  0  0  0  0  0  0  0
   -1.1094   -0.9077    0.3165 C   0  0  0  0  0  0  0  0  0  0  0  0
   -2.4082   -1.1772    0.6959 C   0  0  0  0  0  0  0  0  0  0  0  0
   -3.5912   -0.8923   -0.1091 C   0  0  0  0  0  0  0  0  0  0  0  0
   -4.1140   -1.8091   -1.0066 C   0  0  0  0  0  0  0  0  0  0  0  0
   -5.2296   -1.5600   -1.7762 C   0  0  0  0  0  0  0  0  0  0  0  0
   -5.8245   -0.3526   -1.6283 N   0  0  0  0  0  0  0  0  0  0  0  0
   -5.3576    0.5695   -0.7730 C   0  0  0  0  0  0  0  0  0  0  0  0
   -6.0085    1.7804   -0.6684 C   0  0  0  0  0  0  0  0  0  0  0  0
   -5.5731    2.7677    0.1953 C   0  0  0  0  0  0  0  0  0  0  0  0
   -4.4563    2.5291    0.9713 C   0  0  0  0  0  0  0  0  0  0  0  0
   -3.8078    1.3148    0.8630 C   0  0  0  0  0  0  0  0  0  0  0  0
   -4.2407    0.3274    0.0012 C   0  0  0  0  0  0  0  0  0  0  0  0
   -2.3839   -1.7523    1.9490 C   0  0  0  0  0  0  0  0  0  0  0  0
   -1.0685   -1.8188    2.3019 N   0  0  0  0  0  0  0  0  0  0  0  0
   -0.3267   -1.3183    1.3324 N   0  0  0  0  0  0  0  0  0  0  0  0
    1.0216   -1.1895    1.2666 C   0  0  0  0  0  0  0  0  0  0  0  0
    3.9266   -1.3593    0.6489 C   0  0  0  0  0  0  0  0  0  0  0  0
    5.3077   -1.1753    0.5362 C   0  0  0  0  0  0  0  0  0  0  0  0
    8.7385    1.2523   -1.0843 H   0  0  0  0  0  0  0  0  0  0  0  0
    7.1975    2.1299   -0.5642 H   0  0  0  0  0  0  0  0  0  0  0  0
    7.2184    1.1925   -2.0729 H   0  0  0  0  0  0  0  0  0  0  0  0
    5.2968    1.6202   -1.3188 H   0  0  0  0  0  0  0  0  0  0  0  0
    2.8773    1.2684   -1.1026 H   0  0  0  0  0  0  0  0  0  0  0  0
    1.2453    0.2167   -1.7510 H   0  0  0  0  0  0  0  0  0  0  0  0
   -3.6104   -2.7808   -1.1055 H   0  0  0  0  0  0  0  0  0  0  0  0
   -5.6367   -2.2737   -2.4750 H   0  0  0  0  0  0  0  0  0  0  0  0
   -6.8957    2.0275   -1.2546 H   0  0  0  0  0  0  0  0  0  0  0  0
   -6.0882    3.7348    0.2826 H   0  0  0  0  0  0  0  0  0  0  0  0
   -4.1271    3.3098    1.6423 H   0  0  0  0  0  0  0  0  0  0  0  0
   -2.9414    1.1515    1.4767 H   0  0  0  0  0  0  0  0  0  0  0  0
   -3.2251   -2.0932    2.5561 H   0  0  0  0  0  0  0  0  0  0  0  0
    1.6638   -1.5109    2.0668 H   0  0  0  0  0  0  0  0  0  0  0  0
    3.5529   -2.2089    1.2097 H   0  0  0  0  0  0  0  0  0  0  0  0
    5.9905   -1.8736    1.0042 H   0  0  0  0  0  0  0  0  0  0  0  0
  1  2  1  0
  2  3  1  0
  3  4  2  0
  4  5  1  0
  5  6  2  0
  6  7  1  0
  7  8  1  0
  8  9  2  0
  9 10  1  0
 10 11  2  0
 11 12  1  0
 12 13  2  0
 13 14  1  0
 14 15  2  0
 15 16  1  0
 16 17  2  0
 17 18  1  0
 18 19  2  0
 19 20  1  0
 20 21  2  0
 11 22  1  0
 22 23  2  0
 23 24  1  0
 24 25  1  0
  6 26  1  0
 26 27  2  0
 27  3  1  0
 25  7  2  0
 24 10  1  0
 21 12  1  0
 21 16  1  0
  1 28  1  0
  1 29  1  0
  1 30  1  0
  4 31  1  0
  5 32  1  0
  8 33  1  0
 13 34  1  0
 14 35  1  0
 17 36  1  0
 18 37  1  0
 19 38  1  0
 20 39  1  0
 22 40  1  0
 25 41  1  0
 26 42  1  0
 27 43  1  0
M  END
$$$$
