
     RDKit          3D

117117  0  0  0  0  0  0  0  0999 V2000
   10.1916    0.2705    2.4352 C   0  0  0  0  0  0  0  0  0  0  0  0
    9.2674    0.4558    1.2429 C   0  0  0  0  0  0  0  0  0  0  0  0
    7.8619    0.0731    1.5626 C   0  0  2  0  0  0  0  0  0  0  0  0
    7.7656   -1.3876    1.9612 C   0  0  0  0  0  0  0  0  0  0  0  0
    6.8697    0.3789    0.4844 C   0  0  2  0  0  0  0  0  0  0  0  0
    5.5355   -0.0581    0.9876 N   0  0  0  0  0  0  0  0  0  0  0  0
    4.4294    0.8205    0.8660 C   0  0  0  0  0  0  0  0  0  0  0  0
    4.6411    1.9478    0.3242 O   0  0  0  0  0  0  0  0  0  0  0  0
    3.0713    0.4436    1.3488 C   0  0  0  0  0  0  0  0  0  0  0  0
    2.0506    1.4834    0.9280 C   0  0  0  0  0  0  0  0  0  0  0  0
    0.7048    1.0485    1.4604 C   0  0  2  0  0  0  0  0  0  0  0  0
    0.4542   -0.2268    0.8895 O   0  0  0  0  0  0  0  0  0  0  0  0
   -0.4065    1.9328    0.9231 C   0  0  2  0  0  0  0  0  0  0  0  0
   -0.2795    3.3043    1.4951 C   0  0  0  0  0  0  0  0  0  0  0  0
   -0.3864    3.3611    2.9729 C   0  0  0  0  0  0  0  0  0  0  0  0
    0.7272    3.2635    3.7690 C   0  0  0  0  0  0  0  0  0  0  0  0
    0.5848    3.3186    5.1471 C   0  0  0  0  0  0  0  0  0  0  0  0
   -0.6557    3.4694    5.7148 C   0  0  0  0  0  0  0  0  0  0  0  0
   -1.7649    3.5661    4.8981 C   0  0  0  0  0  0  0  0  0  0  0  0
   -1.6474    3.5136    3.5289 C   0  0  0  0  0  0  0  0  0  0  0  0
   -1.6482    1.2856    1.3807 N   0  0  0  0  0  0  0  0  0  0  0  0
   -2.4910    0.5731    0.4425 C   0  0  0  0  0  0  0  0  0  0  0  0
   -2.0968    0.5432   -0.7267 O   0  0  0  0  0  0  0  0  0  0  0  0
   -3.7296   -0.0418    0.9763 C   0  0  1  0  0  0  0  0  0  0  0  0
   -4.4626   -0.7496   -0.0516 N   0  0  0  0  0  0  0  0  0  0  0  0
   -5.7781   -0.3863   -0.4400 C   0  0  0  0  0  0  0  0  0  0  0  0
   -6.3066    0.5979    0.1265 O   0  0  0  0  0  0  0  0  0  0  0  0
   -6.4504   -1.2040   -1.4892 C   0  0  2  0  0  0  0  0  0  0  0  0
   -5.6955   -1.3952   -2.7292 C   0  0  0  0  0  0  0  0  0  0  0  0
   -5.2932   -0.3034   -3.5995 C   0  0  0  0  0  0  0  0  0  0  0  0
   -6.4892    0.4709   -4.1542 C   0  0  0  0  0  0  0  0  0  0  0  0
   -4.2323    0.6420   -3.1532 C   0  0  0  0  0  0  0  0  0  0  0  0
   -7.8314   -0.7803   -1.6461 N   0  0  0  0  0  0  0  0  0  0  0  0
   -8.8496   -1.5859   -1.0712 C   0  0  0  0  0  0  0  0  0  0  0  0
   -8.6248   -2.6501   -0.4319 O   0  0  0  0  0  0  0  0  0  0  0  0
  -10.2632   -1.1512   -1.2282 C   0  0  0  0  0  0  0  0  0  0  0  0
  -11.2130   -2.0403   -0.4495 C   0  0  0  0  0  0  0  0  0  0  0  0
  -10.8847   -2.0148    1.0345 C   0  0  0  0  0  0  0  0  0  0  0  0
  -12.6131   -1.4797   -0.5863 C   0  0  0  0  0  0  0  0  0  0  0  0
   -3.3185   -1.0226    2.0849 C   0  0  0  0  0  0  0  0  0  0  0  0
   -4.5089   -1.7046    2.7078 C   0  0  0  0  0  0  0  0  0  0  0  0
   -2.3342   -2.0374    1.5476 C   0  0  0  0  0  0  0  0  0  0  0  0
    7.0892   -0.3993   -0.7636 C   0  0  0  0  0  0  0  0  0  0  0  0
    6.2863   -1.3421   -1.0814 O   0  0  0  0  0  0  0  0  0  0  0  0
    8.1458   -0.1822   -1.6777 N   0  0  0  0  0  0  0  0  0  0  0  0
    8.2919   -0.9825   -2.8863 C   0  0  2  0  0  0  0  0  0  0  0  0
    9.5936   -1.6923   -2.8574 C   0  0  0  0  0  0  0  0  0  0  0  0
    9.9203   -2.4475   -3.8054 O   0  0  0  0  0  0  0  0  0  0  0  0
   10.4764   -1.5474   -1.8029 O   0  0  0  0  0  0  0  0  0  0  0  0
    8.1804   -0.1090   -4.1245 C   0  0  0  0  0  0  0  0  0  0  0  0
    8.3297   -0.9656   -5.3561 C   0  0  0  0  0  0  0  0  0  0  0  0
    9.3300    0.8907   -4.1463 C   0  0  0  0  0  0  0  0  0  0  0  0
    9.6437    0.3100    3.4042 H   0  0  0  0  0  0  0  0  0  0  0  0
   10.7378   -0.7049    2.3836 H   0  0  0  0  0  0  0  0  0  0  0  0
   10.9178    1.1039    2.4524 H   0  0  0  0  0  0  0  0  0  0  0  0
    9.6597   -0.2679    0.4747 H   0  0  0  0  0  0  0  0  0  0  0  0
    9.3961    1.4796    0.8711 H   0  0  0  0  0  0  0  0  0  0  0  0
    7.5800    0.6343    2.5079 H   0  0  0  0  0  0  0  0  0  0  0  0
    6.9134   -1.4996    2.6543 H   0  0  0  0  0  0  0  0  0  0  0  0
    8.6873   -1.6424    2.5454 H   0  0  0  0  0  0  0  0  0  0  0  0
    7.6572   -2.0381    1.0511 H   0  0  0  0  0  0  0  0  0  0  0  0
    6.8128    1.4498    0.2791 H   0  0  0  0  0  0  0  0  0  0  0  0
    5.4047   -0.9762    1.4134 H   0  0  0  0  0  0  0  0  0  0  0  0
    2.7870   -0.5704    0.9960 H   0  0  0  0  0  0  0  0  0  0  0  0
    3.1210    0.3919    2.4558 H   0  0  0  0  0  0  0  0  0  0  0  0
    2.0578    1.4395   -0.2029 H   0  0  0  0  0  0  0  0  0  0  0  0
    2.3595    2.4873    1.1884 H   0  0  0  0  0  0  0  0  0  0  0  0
    0.6852    0.9525    2.5296 H   0  0  0  0  0  0  0  0  0  0  0  0
    0.6895   -0.9371    1.5391 H   0  0  0  0  0  0  0  0  0  0  0  0
   -0.3125    1.9440   -0.1570 H   0  0  0  0  0  0  0  0  0  0  0  0
    0.7294    3.7018    1.2301 H   0  0  0  0  0  0  0  0  0  0  0  0
   -0.9986    4.0292    1.0660 H   0  0  0  0  0  0  0  0  0  0  0  0
    1.7419    3.1434    3.3561 H   0  0  0  0  0  0  0  0  0  0  0  0
    1.4725    3.2406    5.7582 H   0  0  0  0  0  0  0  0  0  0  0  0
   -0.7400    3.5102    6.7824 H   0  0  0  0  0  0  0  0  0  0  0  0
   -2.7624    3.6872    5.3292 H   0  0  0  0  0  0  0  0  0  0  0  0
   -2.5253    3.5914    2.8715 H   0  0  0  0  0  0  0  0  0  0  0  0
   -1.9509    1.3205    2.3726 H   0  0  0  0  0  0  0  0  0  0  0  0
   -4.3477    0.7741    1.4109 H   0  0  0  0  0  0  0  0  0  0  0  0
   -3.9639   -1.5656   -0.5098 H   0  0  0  0  0  0  0  0  0  0  0  0
   -6.5067   -2.2305   -0.9958 H   0  0  0  0  0  0  0  0  0  0  0  0
   -4.7911   -2.0358   -2.4617 H   0  0  0  0  0  0  0  0  0  0  0  0
   -6.2957   -2.1309   -3.3691 H   0  0  0  0  0  0  0  0  0  0  0  0
   -4.8538   -0.7916   -4.5387 H   0  0  0  0  0  0  0  0  0  0  0  0
   -6.2151    0.8916   -5.1767 H   0  0  0  0  0  0  0  0  0  0  0  0
   -7.3535   -0.1811   -4.3749 H   0  0  0  0  0  0  0  0  0  0  0  0
   -6.7162    1.3775   -3.5650 H   0  0  0  0  0  0  0  0  0  0  0  0
   -4.2213    1.5814   -3.7925 H   0  0  0  0  0  0  0  0  0  0  0  0
   -3.2219    0.2535   -3.1723 H   0  0  0  0  0  0  0  0  0  0  0  0
   -4.4703    1.0163   -2.1424 H   0  0  0  0  0  0  0  0  0  0  0  0
   -8.0765    0.1018   -2.1617 H   0  0  0  0  0  0  0  0  0  0  0  0
  -10.3367   -0.1175   -0.8446 H   0  0  0  0  0  0  0  0  0  0  0  0
  -10.5817   -1.2342   -2.3074 H   0  0  0  0  0  0  0  0  0  0  0  0
  -11.1491   -3.0705   -0.7929 H   0  0  0  0  0  0  0  0  0  0  0  0
  -10.5637   -0.9834    1.3549 H   0  0  0  0  0  0  0  0  0  0  0  0
  -10.1559   -2.7787    1.3356 H   0  0  0  0  0  0  0  0  0  0  0  0
  -11.8311   -2.2181    1.5748 H   0  0  0  0  0  0  0  0  0  0  0  0
  -12.7169   -0.8555   -1.5094 H   0  0  0  0  0  0  0  0  0  0  0  0
  -12.8286   -0.7784    0.2675 H   0  0  0  0  0  0  0  0  0  0  0  0
  -13.3967   -2.2552   -0.5871 H   0  0  0  0  0  0  0  0  0  0  0  0
   -2.7939   -0.4590    2.8823 H   0  0  0  0  0  0  0  0  0  0  0  0
   -5.4784   -1.1834    2.4767 H   0  0  0  0  0  0  0  0  0  0  0  0
   -4.4452   -1.6589    3.8371 H   0  0  0  0  0  0  0  0  0  0  0  0
   -4.5509   -2.7843    2.4619 H   0  0  0  0  0  0  0  0  0  0  0  0
   -2.8396   -3.0262    1.5165 H   0  0  0  0  0  0  0  0  0  0  0  0
   -1.4530   -2.1450    2.2070 H   0  0  0  0  0  0  0  0  0  0  0  0
   -1.9636   -1.7639    0.5328 H   0  0  0  0  0  0  0  0  0  0  0  0
    8.8372    0.5753   -1.5032 H   0  0  0  0  0  0  0  0  0  0  0  0
    7.4429   -1.7016   -2.9092 H   0  0  0  0  0  0  0  0  0  0  0  0
   11.3601   -2.0628   -1.7517 H   0  0  0  0  0  0  0  0  0  0  0  0
    7.2118    0.4096   -4.1118 H   0  0  0  0  0  0  0  0  0  0  0  0
    9.4099   -1.0499   -5.5932 H   0  0  0  0  0  0  0  0  0  0  0  0
    7.7723   -0.5345   -6.2256 H   0  0  0  0  0  0  0  0  0  0  0  0
    7.9443   -1.9904   -5.1012 H   0  0  0  0  0  0  0  0  0  0  0  0
    9.2490    1.5607   -3.2730 H   0  0  0  0  0  0  0  0  0  0  0  0
   10.2644    0.2774   -4.1052 H   0  0  0  0  0  0  0  0  0  0  0  0
    9.3188    1.4257   -5.1175 H   0  0  0  0  0  0  0  0  0  0  0  0
  1  2  1  0
  2  3  1  0
  3  4  1  0
  3  5  1  0
  5  6  1  0
  6  7  1  0
  7  8  2  0
  7  9  1  0
  9 10  1  0
 10 11  1  0
 11 12  1  0
 11 13  1  0
 13 14  1  0
 14 15  1  0
 15 16  2  0
 16 17  1  0
 17 18  2  0
 18 19  1  0
 19 20  2  0
 13 21  1  0
 21 22  1  0
 22 23  2  0
 22 24  1  0
 24 25  1  0
 25 26  1  0
 26 27  2  0
 26 28  1  0
 28 29  1  0
 29 30  1  0
 30 31  1  0
 30 32  1  0
 28 33  1  0
 33 34  1  0
 34 35  2  0
 34 36  1  0
 36 37  1  0
 37 38  1  0
 37 39  1  0
 24 40  1  0
 40 41  1  0
 40 42  1  0
  5 43  1  0
 43 44  2  0
 43 45  1  0
 45 46  1  0
 46 47  1  0
 47 48  2  0
 47 49  1  0
 46 50  1  0
 50 51  1  0
 50 52  1  0
 20 15  1  0
  1 53  1  0
  1 54  1  0
  1 55  1  0
  2 56  1  0
  2 57  1  0
  3 58  1  1
  4 59  1  0
  4 60  1  0
  4 61  1  0
  5 62  1  6
  6 63  1  0
  9 64  1  0
  9 65  1  0
 10 66  1  0
 10 67  1  0
 11 68  1  1
 12 69  1  0
 13 70  1  6
 14 71  1  0
 14 72  1  0
 16 73  1  0
 17 74  1  0
 18 75  1  0
 19 76  1  0
 20 77  1  0
 21 78  1  0
 24 79  1  1
 25 80  1  0
 28 81  1  1
 29 82  1  0
 29 83  1  0
 30 84  1  0
 31 85  1  0
 31 86  1  0
 31 87  1  0
 32 88  1  0
 32 89  1  0
 32 90  1  0
 33 91  1  0
 36 92  1  0
 36 93  1  0
 37 94  1  0
 38 95  1  0
 38 96  1  0
 38 97  1  0
 39 98  1  0
 39 99  1  0
 39100  1  0
 40101  1  0
 41102  1  0
 41103  1  0
 41104  1  0
 42105  1  0
 42106  1  0
 42107  1  0
 45108  1  0
 46109  1  6
 49110  1  0
 50111  1  0
 51112  1  0
 51113  1  0
 51114  1  0
 52115  1  0
 52116  1  0
 52117  1  0
M  END
$$$$
