
     RDKit          3D

 44 46  0  0  0  0  0  0  0  0999 V2000
   -7.7820    1.4510   -0.7629 C   0  0  0  0  0  0  0  0  0  0  0  0
   -7.0776    1.1128    0.3887 O   0  0  0  0  0  0  0  0  0  0  0  0
   -5.8969    0.3913    0.4105 C   0  0  0  0  0  0  0  0  0  0  0  0
   -5.2872    0.1159    1.6260 C   0  0  0  0  0  0  0  0  0  0  0  0
   -4.1097   -0.5978    1.7183 C   0  0  0  0  0  0  0  0  0  0  0  0
   -3.4859   -1.0712    0.5868 C   0  0  0  0  0  0  0  0  0  0  0  0
   -1.9949   -1.9748    0.7069 S   0  0  0  0  0  6  0  0  0  0  0  0
   -2.0175   -2.7800    1.9519 O   0  0  0  0  0  0  0  0  0  0  0  0
   -1.8807   -2.9288   -0.4585 O   0  0  0  0  0  0  0  0  0  0  0  0
   -0.6213   -0.9290    0.6401 N   0  0  0  0  0  0  0  0  0  0  0  0
   -0.5705   -0.2171   -0.6189 C   0  0  0  0  0  0  0  0  0  0  0  0
    0.8658    0.2058   -0.6695 C   0  0  0  0  0  0  0  0  0  0  0  0
    1.4825    1.2658   -1.2968 C   0  0  0  0  0  0  0  0  0  0  0  0
    2.8380    1.4075   -1.1690 C   0  0  0  0  0  0  0  0  0  0  0  0
    3.6120    0.5132   -0.4245 C   0  0  0  0  0  0  0  0  0  0  0  0
    5.0472    0.7469   -0.3468 C   0  0  0  0  0  0  0  0  0  0  0  0
    5.8703   -0.0319    0.3263 C   0  0  0  0  0  0  0  0  0  0  0  0
    7.2926    0.2098    0.3964 C   0  0  0  0  0  0  0  0  0  0  0  0
    8.0551   -0.5622    1.0548 O   0  0  0  0  0  0  0  0  0  0  0  0
    7.9272    1.3000   -0.2487 N   0  0  0  0  0  0  0  0  0  0  0  0
    9.2657    1.4926   -0.1587 O   0  0  0  0  0  0  0  0  0  0  0  0
    2.9594   -0.5350    0.1888 C   0  0  0  0  0  0  0  0  0  0  0  0
    1.5802   -0.7046    0.0762 C   0  0  0  0  0  0  0  0  0  0  0  0
    0.6077   -1.7011    0.6024 C   0  0  0  0  0  0  0  0  0  0  0  0
   -4.0777   -0.8068   -0.6294 C   0  0  0  0  0  0  0  0  0  0  0  0
   -5.2681   -0.0851   -0.7213 C   0  0  0  0  0  0  0  0  0  0  0  0
   -8.8658    1.6123   -0.5900 H   0  0  0  0  0  0  0  0  0  0  0  0
   -7.3794    2.4148   -1.1453 H   0  0  0  0  0  0  0  0  0  0  0  0
   -7.6397    0.7084   -1.6020 H   0  0  0  0  0  0  0  0  0  0  0  0
   -5.7916    0.4976    2.5267 H   0  0  0  0  0  0  0  0  0  0  0  0
   -3.6653   -0.7912    2.6948 H   0  0  0  0  0  0  0  0  0  0  0  0
   -1.2545    0.6469   -0.6574 H   0  0  0  0  0  0  0  0  0  0  0  0
   -0.7090   -0.9308   -1.4475 H   0  0  0  0  0  0  0  0  0  0  0  0
    0.8604    1.9382   -1.8633 H   0  0  0  0  0  0  0  0  0  0  0  0
    3.3127    2.2425   -1.6650 H   0  0  0  0  0  0  0  0  0  0  0  0
    5.4541    1.5994   -0.8660 H   0  0  0  0  0  0  0  0  0  0  0  0
    5.4910   -0.9116    0.8690 H   0  0  0  0  0  0  0  0  0  0  0  0
    7.4038    1.9969   -0.8155 H   0  0  0  0  0  0  0  0  0  0  0  0
    9.7692    0.6553   -0.1103 H   0  0  0  0  0  0  0  0  0  0  0  0
    3.5339   -1.2535    0.7791 H   0  0  0  0  0  0  0  0  0  0  0  0
    0.5431   -2.5141   -0.1512 H   0  0  0  0  0  0  0  0  0  0  0  0
    0.8932   -2.1226    1.5681 H   0  0  0  0  0  0  0  0  0  0  0  0
   -3.5919   -1.1763   -1.5206 H   0  0  0  0  0  0  0  0  0  0  0  0
   -5.6979    0.1006   -1.6856 H   0  0  0  0  0  0  0  0  0  0  0  0
  1  2  1  0
  2  3  1  0
  3  4  2  0
  4  5  1  0
  5  6  2  0
  6  7  1  0
  7  8  2  0
  7  9  2  0
  7 10  1  0
 10 11  1  0
 11 12  1  0
 12 13  2  0
 13 14  1  0
 14 15  2  0
 15 16  1  0
 16 17  2  0
 17 18  1  0
 18 19  2  0
 18 20  1  0
 20 21  1  0
 15 22  1  0
 22 23  2  0
 23 24  1  0
  6 25  1  0
 25 26  2  0
 26  3  1  0
 24 10  1  0
 23 12  1  0
  1 27  1  0
  1 28  1  0
  1 29  1  0
  4 30  1  0
  5 31  1  0
 11 32  1  0
 11 33  1  0
 13 34  1  0
 14 35  1  0
 16 36  1  0
 17 37  1  0
 20 38  1  0
 21 39  1  0
 22 40  1  0
 24 41  1  0
 24 42  1  0
 25 43  1  0
 26 44  1  0
M  END
$$$$
