
     RDKit          3D

 56 59  0  0  0  0  0  0  0  0999 V2000
    7.7311   -2.4258    0.1806 C   0  0  0  0  0  0  0  0  0  0  0  0
    6.3369   -2.6656    0.1642 O   0  0  0  0  0  0  0  0  0  0  0  0
    5.4342   -1.6424   -0.1909 C   0  0  0  0  0  0  0  0  0  0  0  0
    4.0939   -1.8715   -0.2054 C   0  0  0  0  0  0  0  0  0  0  0  0
    3.1764   -0.9357   -0.5351 N   0  0  0  0  0  0  0  0  0  0  0  0
    3.6170    0.3130   -0.8737 C   0  0  0  0  0  0  0  0  0  0  0  0
    2.7253    1.3072   -1.2144 C   0  0  0  0  0  0  0  0  0  0  0  0
    1.3270    1.0836   -1.2321 N   0  0  0  0  0  0  0  0  0  0  0  0
    0.5601    1.1696   -0.0415 C   0  0  0  0  0  0  0  0  0  0  0  0
    1.1954    1.3531    1.1743 C   0  0  0  0  0  0  0  0  0  0  0  0
    0.4958    1.4371    2.3565 C   0  0  0  0  0  0  0  0  0  0  0  0
   -0.9021    1.3405    2.3837 C   0  0  0  0  0  0  0  0  0  0  0  0
   -1.5385    1.4414    3.5816 F   0  0  0  0  0  0  0  0  0  0  0  0
   -1.5285    1.1594    1.1810 C   0  0  0  0  0  0  0  0  0  0  0  0
   -3.0257    1.0344    1.1609 C   0  0  1  0  0  0  0  0  0  0  0  0
   -3.5598    2.3711    1.6660 C   0  0  0  0  0  0  0  0  0  0  0  0
   -3.4941    0.8796   -0.1643 N   0  0  0  0  0  0  0  0  0  0  0  0
   -4.0711    0.0174   -0.8319 C   0  0  0  0  0  0  0  0  0  0  0  0
   -4.4253    0.1749   -2.2259 N   0  0  0  0  0  0  0  0  0  0  0  0
   -4.4740   -1.3209   -0.2579 C   0  0  0  0  0  0  0  0  0  0  0  0
   -5.8867   -1.2982    0.2529 C   0  0  0  0  0  0  0  0  0  0  0  0
   -4.3087   -2.3732   -1.3235 C   0  0  0  0  0  0  0  0  0  0  0  0
   -3.3392   -1.5960    1.0858 S   0  0  0  0  0  6  0  0  0  0  0  0
   -3.7355   -2.7903    1.9015 O   0  0  0  0  0  0  0  0  0  0  0  0
   -1.9520   -1.7020    0.5514 O   0  0  0  0  0  0  0  0  0  0  0  0
   -3.4677   -0.0926    2.0586 C   0  0  2  0  0  0  0  0  0  0  0  0
   -4.8501    0.0833    2.2597 F   0  0  0  0  0  0  0  0  0  0  0  0
   -0.8119    1.0753   -0.0144 C   0  0  0  0  0  0  0  0  0  0  0  0
    3.2280    2.5272   -1.5370 N   0  0  0  0  0  0  0  0  0  0  0  0
    4.5320    2.7901   -1.5351 C   0  0  0  0  0  0  0  0  0  0  0  0
    5.4616    1.8347   -1.2033 C   0  0  0  0  0  0  0  0  0  0  0  0
    4.9715    0.5682   -0.8661 C   0  0  0  0  0  0  0  0  0  0  0  0
    5.9126   -0.3941   -0.5273 C   0  0  0  0  0  0  0  0  0  0  0  0
    8.2073   -3.3922    0.4700 H   0  0  0  0  0  0  0  0  0  0  0  0
    8.1186   -2.0304   -0.7792 H   0  0  0  0  0  0  0  0  0  0  0  0
    8.0073   -1.6763    0.9602 H   0  0  0  0  0  0  0  0  0  0  0  0
    3.7244   -2.8719    0.0651 H   0  0  0  0  0  0  0  0  0  0  0  0
    0.8661    0.8560   -2.1229 H   0  0  0  0  0  0  0  0  0  0  0  0
    2.2853    1.4267    1.1426 H   0  0  0  0  0  0  0  0  0  0  0  0
    0.9909    1.5796    3.3059 H   0  0  0  0  0  0  0  0  0  0  0  0
   -4.4782    2.2523    2.2561 H   0  0  0  0  0  0  0  0  0  0  0  0
   -2.7978    2.8620    2.3029 H   0  0  0  0  0  0  0  0  0  0  0  0
   -3.6851    3.0616    0.7793 H   0  0  0  0  0  0  0  0  0  0  0  0
   -4.6677    1.1302   -2.5271 H   0  0  0  0  0  0  0  0  0  0  0  0
   -4.4449   -0.5983   -2.9056 H   0  0  0  0  0  0  0  0  0  0  0  0
   -5.9220   -1.6959    1.3001 H   0  0  0  0  0  0  0  0  0  0  0  0
   -6.3381   -0.2831    0.2002 H   0  0  0  0  0  0  0  0  0  0  0  0
   -6.5093   -1.9919   -0.3536 H   0  0  0  0  0  0  0  0  0  0  0  0
   -5.2023   -2.3023   -1.9737 H   0  0  0  0  0  0  0  0  0  0  0  0
   -3.4107   -2.2084   -1.9335 H   0  0  0  0  0  0  0  0  0  0  0  0
   -4.2946   -3.3613   -0.8689 H   0  0  0  0  0  0  0  0  0  0  0  0
   -2.9449   -0.1829    3.0041 H   0  0  0  0  0  0  0  0  0  0  0  0
   -1.3311    0.9309   -0.9574 H   0  0  0  0  0  0  0  0  0  0  0  0
    4.9068    3.7801   -1.7995 H   0  0  0  0  0  0  0  0  0  0  0  0
    6.5281    2.0249   -1.1956 H   0  0  0  0  0  0  0  0  0  0  0  0
    6.9637   -0.1619   -0.5319 H   0  0  0  0  0  0  0  0  0  0  0  0
  1  2  1  0
  2  3  1  0
  3  4  2  0
  4  5  1  0
  5  6  2  0
  6  7  1  0
  7  8  1  0
  8  9  1  0
  9 10  2  0
 10 11  1  0
 11 12  2  0
 12 13  1  0
 12 14  1  0
 14 15  1  0
 15 16  1  1
 15 17  1  0
 17 18  2  0
 18 19  1  0
 18 20  1  0
 20 21  1  0
 20 22  1  0
 20 23  1  0
 23 24  2  0
 23 25  2  0
 23 26  1  0
 26 27  1  0
 14 28  2  0
  7 29  2  0
 29 30  1  0
 30 31  2  0
 31 32  1  0
 32 33  2  0
 33  3  1  0
 32  6  1  0
 28  9  1  0
 26 15  1  0
  1 34  1  0
  1 35  1  0
  1 36  1  0
  4 37  1  0
  8 38  1  0
 10 39  1  0
 11 40  1  0
 16 41  1  0
 16 42  1  0
 16 43  1  0
 19 44  1  0
 19 45  1  0
 21 46  1  0
 21 47  1  0
 21 48  1  0
 22 49  1  0
 22 50  1  0
 22 51  1  0
 26 52  1  1
 28 53  1  0
 30 54  1  0
 31 55  1  0
 33 56  1  0
M  END
$$$$
