
     RDKit          3D

 53 55  0  0  0  0  0  0  0  0999 V2000
    8.8692    2.7956    0.4454 C   0  0  0  0  0  0  0  0  0  0  0  0
    7.6373    3.2443    0.3823 C   0  0  0  0  0  0  0  0  0  0  0  0
    6.4688    2.3814    0.4087 C   0  0  0  0  0  0  0  0  0  0  0  0
    5.3123    2.8670    0.3443 O   0  0  0  0  0  0  0  0  0  0  0  0
    6.5466    0.9664    0.5065 N   0  0  0  0  0  0  0  0  0  0  0  0
    5.3876    0.1278    0.5316 C   0  0  0  0  0  0  0  0  0  0  0  0
    4.8356   -0.3788   -0.6255 C   0  0  0  0  0  0  0  0  0  0  0  0
    3.7176   -1.1880   -0.6156 C   0  0  0  0  0  0  0  0  0  0  0  0
    3.0918   -1.5327    0.5644 C   0  0  0  0  0  0  0  0  0  0  0  0
    1.6728   -2.5587    0.6071 S   0  0  0  0  0  6  0  0  0  0  0  0
    1.7632   -3.3761    1.8563 O   0  0  0  0  0  0  0  0  0  0  0  0
    1.7119   -3.5252   -0.5707 O   0  0  0  0  0  0  0  0  0  0  0  0
    0.2190   -1.6879    0.4829 N   0  0  0  0  0  0  0  0  0  0  0  0
   -0.0027   -0.7457    1.5551 C   0  0  0  0  0  0  0  0  0  0  0  0
   -1.4744   -0.3409    1.6227 C   0  0  0  0  0  0  0  0  0  0  0  0
   -2.0030   -0.4015    0.2763 N   0  0  0  0  0  0  0  0  0  0  0  0
   -3.3383   -0.7420   -0.0508 C   0  0  0  0  0  0  0  0  0  0  0  0
   -4.1849   -1.0238    0.8546 O   0  0  0  0  0  0  0  0  0  0  0  0
   -3.7828   -0.7854   -1.3410 O   0  0  0  0  0  0  0  0  0  0  0  0
   -5.0445   -1.0956   -1.8277 C   0  0  0  0  0  0  0  0  0  0  0  0
   -6.1412   -0.2352   -1.3823 C   0  0  0  0  0  0  0  0  0  0  0  0
   -6.9449   -0.5150   -0.3067 C   0  0  0  0  0  0  0  0  0  0  0  0
   -7.9712    0.2901    0.1278 C   0  0  0  0  0  0  0  0  0  0  0  0
   -8.7115   -0.0714    1.2022 F   0  0  0  0  0  0  0  0  0  0  0  0
   -8.2185    1.4709   -0.5654 C   0  0  0  0  0  0  0  0  0  0  0  0
   -7.4423    1.7937   -1.6474 C   0  0  0  0  0  0  0  0  0  0  0  0
   -7.7194    2.9600   -2.2984 F   0  0  0  0  0  0  0  0  0  0  0  0
   -6.4259    0.9582   -2.0466 C   0  0  0  0  0  0  0  0  0  0  0  0
   -1.0816   -0.0885   -0.7881 C   0  0  0  0  0  0  0  0  0  0  0  0
    0.0307   -1.0742   -0.7840 C   0  0  0  0  0  0  0  0  0  0  0  0
    3.6460   -1.0238    1.7296 C   0  0  0  0  0  0  0  0  0  0  0  0
    4.7637   -0.2155    1.7121 C   0  0  0  0  0  0  0  0  0  0  0  0
    9.1050    1.7330    0.5227 H   0  0  0  0  0  0  0  0  0  0  0  0
    9.7170    3.4532    0.4240 H   0  0  0  0  0  0  0  0  0  0  0  0
    7.4833    4.3074    0.3074 H   0  0  0  0  0  0  0  0  0  0  0  0
    7.4712    0.5226    0.5618 H   0  0  0  0  0  0  0  0  0  0  0  0
    5.3101   -0.1218   -1.5723 H   0  0  0  0  0  0  0  0  0  0  0  0
    3.2814   -1.5894   -1.5428 H   0  0  0  0  0  0  0  0  0  0  0  0
    0.3714   -1.0716    2.5245 H   0  0  0  0  0  0  0  0  0  0  0  0
    0.5476    0.1737    1.2685 H   0  0  0  0  0  0  0  0  0  0  0  0
   -1.4904    0.7154    1.9491 H   0  0  0  0  0  0  0  0  0  0  0  0
   -2.0355   -0.9395    2.3418 H   0  0  0  0  0  0  0  0  0  0  0  0
   -4.9816   -1.1022   -2.9484 H   0  0  0  0  0  0  0  0  0  0  0  0
   -5.3133   -2.1431   -1.5605 H   0  0  0  0  0  0  0  0  0  0  0  0
   -6.7765   -1.4282    0.2367 H   0  0  0  0  0  0  0  0  0  0  0  0
   -9.0314    2.1063   -0.2194 H   0  0  0  0  0  0  0  0  0  0  0  0
   -5.8406    1.2503   -2.9026 H   0  0  0  0  0  0  0  0  0  0  0  0
   -0.6446    0.9346   -0.6678 H   0  0  0  0  0  0  0  0  0  0  0  0
   -1.6546   -0.0636   -1.7396 H   0  0  0  0  0  0  0  0  0  0  0  0
   -0.0525   -1.8410   -1.5878 H   0  0  0  0  0  0  0  0  0  0  0  0
    0.9820   -0.5170   -1.0334 H   0  0  0  0  0  0  0  0  0  0  0  0
    3.1647   -1.2872    2.6609 H   0  0  0  0  0  0  0  0  0  0  0  0
    5.2004    0.1841    2.6174 H   0  0  0  0  0  0  0  0  0  0  0  0
  1  2  2  3
  2  3  1  0
  3  4  2  0
  3  5  1  0
  5  6  1  0
  6  7  2  0
  7  8  1  0
  8  9  2  0
  9 10  1  0
 10 11  2  0
 10 12  2  0
 10 13  1  0
 13 14  1  0
 14 15  1  0
 15 16  1  0
 16 17  1  0
 17 18  2  0
 17 19  1  0
 19 20  1  0
 20 21  1  0
 21 22  2  0
 22 23  1  0
 23 24  1  0
 23 25  2  0
 25 26  1  0
 26 27  1  0
 26 28  2  0
 16 29  1  0
 29 30  1  0
  9 31  1  0
 31 32  2  0
 32  6  1  0
 30 13  1  0
 28 21  1  0
  1 33  1  0
  1 34  1  0
  2 35  1  0
  5 36  1  0
  7 37  1  0
  8 38  1  0
 14 39  1  0
 14 40  1  0
 15 41  1  0
 15 42  1  0
 20 43  1  0
 20 44  1  0
 22 45  1  0
 25 46  1  0
 28 47  1  0
 29 48  1  0
 29 49  1  0
 30 50  1  0
 30 51  1  0
 31 52  1  0
 32 53  1  0
M  END
$$$$
