
     RDKit          3D

 49 54  0  0  0  0  0  0  0  0999 V2000
   -8.1270    0.4605    0.0438 C   0  0  0  0  0  0  0  0  0  0  0  0
   -6.7438    0.6787   -0.3285 N   0  0  0  0  0  0  0  0  0  0  0  0
   -6.3720    1.2838   -1.5712 C   0  0  0  0  0  0  0  0  0  0  0  0
   -7.2292    1.4251   -2.4749 O   0  0  0  0  0  0  0  0  0  0  0  0
   -4.9878    1.7555   -1.8281 C   0  0  0  0  0  0  0  0  0  0  0  0
   -4.0468    1.0815   -1.0119 O   0  0  0  0  0  0  0  0  0  0  0  0
   -4.4155    0.4938    0.1942 C   0  0  0  0  0  0  0  0  0  0  0  0
   -5.7133    0.2772    0.5708 C   0  0  0  0  0  0  0  0  0  0  0  0
   -6.0008   -0.3142    1.7896 C   0  0  0  0  0  0  0  0  0  0  0  0
   -5.0271   -0.6920    2.6358 N   0  0  0  0  0  0  0  0  0  0  0  0
   -3.7399   -0.4860    2.2809 C   0  0  0  0  0  0  0  0  0  0  0  0
   -2.6923   -0.8535    3.1064 C   0  0  0  0  0  0  0  0  0  0  0  0
   -1.3849   -0.6358    2.7246 C   0  0  0  0  0  0  0  0  0  0  0  0
   -1.0539   -0.0501    1.5200 C   0  0  0  0  0  0  0  0  0  0  0  0
    0.6665    0.2053    1.0733 S   0  0  0  0  0  0  0  0  0  0  0  0
    1.2917   -1.2019    0.1918 C   0  0  0  0  0  0  0  0  0  0  0  0
    0.6386   -2.3241   -0.1308 N   0  0  0  0  0  0  0  0  0  0  0  0
    1.4510   -3.1367   -0.7910 N   0  0  0  0  0  0  0  0  0  0  0  0
    2.6413   -2.5533   -0.9057 C   0  0  0  0  0  0  0  0  0  0  0  0
    3.8138   -2.9700   -1.4948 C   0  0  0  0  0  0  0  0  0  0  0  0
    3.8515   -4.1811   -2.0893 F   0  0  0  0  0  0  0  0  0  0  0  0
    4.9157   -2.1656   -1.4734 C   0  0  0  0  0  0  0  0  0  0  0  0
    4.8290   -0.9307   -0.8509 C   0  0  0  0  0  0  0  0  0  0  0  0
    5.9976   -0.0434   -0.8108 C   0  0  0  0  0  0  0  0  0  0  0  0
    6.9944    0.0696   -1.7577 C   0  0  0  0  0  0  0  0  0  0  0  0
    7.8716    0.9962   -1.3288 N   0  0  0  0  0  0  0  0  0  0  0  0
    7.4872    1.4777   -0.1624 N   0  0  0  0  0  0  0  0  0  0  0  0
    8.2025    2.5059    0.6053 C   0  0  0  0  0  0  0  0  0  0  0  0
    6.3424    0.8585    0.1782 C   0  0  0  0  0  0  0  0  0  0  0  0
    3.6331   -0.5573   -0.2749 C   0  0  0  0  0  0  0  0  0  0  0  0
    2.5344   -1.3411   -0.2876 N   0  0  0  0  0  0  0  0  0  0  0  0
   -2.0923    0.3192    0.6914 C   0  0  0  0  0  0  0  0  0  0  0  0
   -3.4101    0.0997    1.0763 C   0  0  0  0  0  0  0  0  0  0  0  0
   -8.8094    0.8046   -0.7538 H   0  0  0  0  0  0  0  0  0  0  0  0
   -8.3353    0.9568    1.0163 H   0  0  0  0  0  0  0  0  0  0  0  0
   -8.2514   -0.6559    0.1614 H   0  0  0  0  0  0  0  0  0  0  0  0
   -4.7718    1.5764   -2.9175 H   0  0  0  0  0  0  0  0  0  0  0  0
   -4.9697    2.8552   -1.6628 H   0  0  0  0  0  0  0  0  0  0  0  0
   -7.0596   -0.4520    2.0158 H   0  0  0  0  0  0  0  0  0  0  0  0
   -2.9383   -1.3188    4.0647 H   0  0  0  0  0  0  0  0  0  0  0  0
   -0.5725   -0.9281    3.3806 H   0  0  0  0  0  0  0  0  0  0  0  0
    5.8650   -2.4390   -1.9196 H   0  0  0  0  0  0  0  0  0  0  0  0
    7.0807   -0.4831   -2.6994 H   0  0  0  0  0  0  0  0  0  0  0  0
    8.8699    3.0540   -0.0893 H   0  0  0  0  0  0  0  0  0  0  0  0
    8.8015    2.0175    1.4056 H   0  0  0  0  0  0  0  0  0  0  0  0
    7.4589    3.2192    1.0229 H   0  0  0  0  0  0  0  0  0  0  0  0
    5.7802    1.0305    1.0721 H   0  0  0  0  0  0  0  0  0  0  0  0
    3.5929    0.4307    0.2129 H   0  0  0  0  0  0  0  0  0  0  0  0
   -1.8666    0.7807   -0.2594 H   0  0  0  0  0  0  0  0  0  0  0  0
  1  2  1  0
  2  3  1  0
  3  4  2  0
  3  5  1  0
  5  6  1  0
  6  7  1  0
  7  8  2  0
  8  9  1  0
  9 10  2  0
 10 11  1  0
 11 12  2  0
 12 13  1  0
 13 14  2  0
 14 15  1  0
 15 16  1  0
 16 17  2  0
 17 18  1  0
 18 19  2  0
 19 20  1  0
 20 21  1  0
 20 22  2  0
 22 23  1  0
 23 24  1  0
 24 25  1  0
 25 26  2  0
 26 27  1  0
 27 28  1  0
 27 29  1  0
 23 30  2  0
 30 31  1  0
 14 32  1  0
 32 33  2  0
  8  2  1  0
 33 11  1  0
 33  7  1  0
 31 16  1  0
 31 19  1  0
 29 24  2  0
  1 34  1  0
  1 35  1  0
  1 36  1  0
  5 37  1  0
  5 38  1  0
  9 39  1  0
 12 40  1  0
 13 41  1  0
 22 42  1  0
 25 43  1  0
 28 44  1  0
 28 45  1  0
 28 46  1  0
 29 47  1  0
 30 48  1  0
 32 49  1  0
M  END
$$$$
