
     RDKit          3D

 47 47  0  0  0  0  0  0  0  0999 V2000
    0.1548   -1.7065    0.2368 C   0  0  1  0  0  0  0  0  0  0  0  0
   -0.8075   -0.7541   -0.2906 N   0  0  0  0  0  0  0  0  0  0  0  0
   -1.9385   -0.3327    0.5000 C   0  0  0  0  0  0  0  0  0  0  0  0
   -2.1782   -0.7401    1.6717 O   0  0  0  0  0  0  0  0  0  0  0  0
   -2.8388    0.5623   -0.0016 O   0  0  0  0  0  0  0  0  0  0  0  0
   -3.9771    1.0775    0.6103 C   0  0  0  0  0  0  0  0  0  0  0  0
   -4.9283   -0.0316    0.9604 C   0  0  0  0  0  0  0  0  0  0  0  0
   -4.5996    2.0480   -0.4007 C   0  0  0  0  0  0  0  0  0  0  0  0
   -3.6682    1.9144    1.8313 C   0  0  0  0  0  0  0  0  0  0  0  0
    0.2634   -2.9676   -0.5454 C   0  0  0  0  0  0  0  0  0  0  0  0
    1.2600   -3.9590   -0.0035 C   0  0  0  0  0  0  0  0  0  0  0  0
    0.5180   -2.7310   -2.0184 C   0  0  0  0  0  0  0  0  0  0  0  0
    1.4401   -0.9827    0.4183 C   0  0  0  0  0  0  0  0  0  0  0  0
    2.5680   -1.4024    0.8535 O   0  0  0  0  0  0  0  0  0  0  0  0
    1.5768    0.4179    0.0915 N   0  0  0  0  0  0  0  0  0  0  0  0
    2.7866    1.1492    0.2494 C   0  0  0  0  0  0  0  0  0  0  0  0
    2.9618    1.7671    1.4933 C   0  0  0  0  0  0  0  0  0  0  0  0
    4.0904    2.5093    1.7838 C   0  0  0  0  0  0  0  0  0  0  0  0
    5.0992    2.6698    0.8439 C   0  0  0  0  0  0  0  0  0  0  0  0
    4.9180    2.0525   -0.3908 C   0  0  0  0  0  0  0  0  0  0  0  0
    6.1356    2.1885   -1.6627 Cl  0  0  0  0  0  0  0  0  0  0  0  0
    3.7922    1.3131   -0.6780 C   0  0  0  0  0  0  0  0  0  0  0  0
    3.5945    0.6720   -1.9484 C   0  0  0  0  0  0  0  0  0  0  0  0
    2.5474    0.0077   -2.1607 O   0  0  0  0  0  0  0  0  0  0  0  0
   -0.2101   -1.9520    1.2620 H   0  0  0  0  0  0  0  0  0  0  0  0
   -0.7452   -0.3232   -1.2519 H   0  0  0  0  0  0  0  0  0  0  0  0
   -4.7561   -0.2505    2.0519 H   0  0  0  0  0  0  0  0  0  0  0  0
   -4.7709   -0.9422    0.3754 H   0  0  0  0  0  0  0  0  0  0  0  0
   -5.9759    0.3482    0.8811 H   0  0  0  0  0  0  0  0  0  0  0  0
   -4.7294    1.5549   -1.3688 H   0  0  0  0  0  0  0  0  0  0  0  0
   -3.8207    2.8558   -0.5221 H   0  0  0  0  0  0  0  0  0  0  0  0
   -5.5001    2.4993    0.0158 H   0  0  0  0  0  0  0  0  0  0  0  0
   -2.8855    2.6573    1.5913 H   0  0  0  0  0  0  0  0  0  0  0  0
   -4.6220    2.4455    2.0732 H   0  0  0  0  0  0  0  0  0  0  0  0
   -3.4104    1.3005    2.6992 H   0  0  0  0  0  0  0  0  0  0  0  0
   -0.7237   -3.4720   -0.4805 H   0  0  0  0  0  0  0  0  0  0  0  0
    2.2846   -3.5915    0.0869 H   0  0  0  0  0  0  0  0  0  0  0  0
    1.2631   -4.8335   -0.6867 H   0  0  0  0  0  0  0  0  0  0  0  0
    0.9501   -4.3681    0.9801 H   0  0  0  0  0  0  0  0  0  0  0  0
    1.5851   -2.5659   -2.2590 H   0  0  0  0  0  0  0  0  0  0  0  0
    0.1235   -3.6387   -2.5631 H   0  0  0  0  0  0  0  0  0  0  0  0
   -0.1423   -1.9098   -2.3830 H   0  0  0  0  0  0  0  0  0  0  0  0
    0.7407    0.9538   -0.2900 H   0  0  0  0  0  0  0  0  0  0  0  0
    2.1908    1.6707    2.2744 H   0  0  0  0  0  0  0  0  0  0  0  0
    4.2218    2.9866    2.7499 H   0  0  0  0  0  0  0  0  0  0  0  0
    6.0105    3.2336    0.9938 H   0  0  0  0  0  0  0  0  0  0  0  0
    4.1514    0.5997   -2.8506 H   0  0  0  0  0  0  0  0  0  0  0  0
  1  2  1  0
  2  3  1  0
  3  4  2  0
  3  5  1  0
  5  6  1  0
  6  7  1  0
  6  8  1  0
  6  9  1  0
  1 10  1  0
 10 11  1  0
 10 12  1  0
  1 13  1  0
 13 14  2  0
 13 15  1  0
 15 16  1  0
 16 17  2  0
 17 18  1  0
 18 19  2  0
 19 20  1  0
 20 21  1  0
 20 22  2  0
 22 23  1  0
 23 24  2  0
 22 16  1  0
  1 25  1  1
  2 26  1  0
  7 27  1  0
  7 28  1  0
  7 29  1  0
  8 30  1  0
  8 31  1  0
  8 32  1  0
  9 33  1  0
  9 34  1  0
  9 35  1  0
 10 36  1  0
 11 37  1  0
 11 38  1  0
 11 39  1  0
 12 40  1  0
 12 41  1  0
 12 42  1  0
 15 43  1  0
 17 44  1  0
 18 45  1  0
 19 46  1  0
 23 47  1  0
M  END
$$$$
