
     RDKit          3D

 66 71  0  0  0  0  0  0  0  0999 V2000
   -2.3267   -4.8421    3.5203 N   0  0  0  0  0  0  0  0  0  0  0  0
   -3.6758   -4.3848    2.5431 S   0  0  0  0  0  6  0  0  0  0  0  0
   -4.8608   -3.9832    3.3747 O   0  0  0  0  0  0  0  0  0  0  0  0
   -4.1067   -5.5599    1.6880 O   0  0  0  0  0  0  0  0  0  0  0  0
   -3.2763   -2.9976    1.5343 C   0  0  0  0  0  0  0  0  0  0  0  0
   -3.4869   -1.7131    1.9851 C   0  0  0  0  0  0  0  0  0  0  0  0
   -3.1719   -0.6160    1.1881 C   0  0  0  0  0  0  0  0  0  0  0  0
   -2.6365   -0.7555   -0.0849 C   0  0  0  0  0  0  0  0  0  0  0  0
   -2.3026    0.4069   -0.9483 C   0  0  0  0  0  0  0  0  0  0  0  0
   -0.9702    0.9645   -0.7379 C   0  0  0  0  0  0  0  0  0  0  0  0
    0.2544    0.4961   -1.1438 C   0  0  0  0  0  0  0  0  0  0  0  0
    0.6101   -0.6766   -1.9087 C   0  0  0  0  0  0  0  0  0  0  0  0
   -0.0170   -0.9890   -3.0898 C   0  0  0  0  0  0  0  0  0  0  0  0
    0.3876   -2.1344   -3.7470 C   0  0  0  0  0  0  0  0  0  0  0  0
    1.3885   -2.9423   -3.2391 C   0  0  0  0  0  0  0  0  0  0  0  0
    2.0270   -2.6400   -2.0538 C   0  0  0  0  0  0  0  0  0  0  0  0
    3.0863   -3.4656   -1.4856 C   0  0  0  0  0  0  0  0  0  0  0  0
    3.0851   -4.8224   -1.6766 C   0  0  0  0  0  0  0  0  0  0  0  0
    4.0677   -5.6508   -1.1581 C   0  0  0  0  0  0  0  0  0  0  0  0
    5.0993   -5.1137   -0.4165 C   0  0  0  0  0  0  0  0  0  0  0  0
    5.1195   -3.7396   -0.2108 C   0  0  0  0  0  0  0  0  0  0  0  0
    4.1205   -2.9346   -0.7432 C   0  0  0  0  0  0  0  0  0  0  0  0
    1.6088   -1.4862   -1.4059 C   0  0  0  0  0  0  0  0  0  0  0  0
    1.2049    1.3567   -0.6892 N   0  0  0  0  0  0  0  0  0  0  0  0
    0.6440    2.3249   -0.0308 N   0  0  0  0  0  0  0  0  0  0  0  0
    1.3362    3.4529    0.6211 C   0  0  0  0  0  0  0  0  0  0  0  0
    1.2056    4.5851    0.8452 N   0  0  0  0  0  0  0  0  0  0  0  0
    2.0066    5.4198    1.4772 C   0  0  0  0  0  0  0  0  0  0  0  0
    1.7519    6.8728    1.7199 C   0  0  0  0  0  0  0  0  0  0  0  0
    0.7079    7.3777    1.3091 O   0  0  0  0  0  0  0  0  0  0  0  0
    2.6800    7.6237    2.3943 O   0  0  0  0  0  0  0  0  0  0  0  0
    3.1929    4.8167    1.9391 C   0  0  0  0  0  0  0  0  0  0  0  0
    2.9849    3.1269    1.3951 S   0  0  0  0  0  0  0  0  0  0  0  0
   -0.6898    2.1254   -0.0359 C   0  0  0  0  0  0  0  0  0  0  0  0
   -1.6350    3.0334    0.6124 C   0  0  0  0  0  0  0  0  0  0  0  0
   -2.4054    3.9124   -0.3467 C   0  0  0  0  0  0  0  0  0  0  0  0
   -1.6896    4.8454   -1.2419 C   0  0  0  0  0  0  0  0  0  0  0  0
   -2.4067    5.4123   -0.0807 C   0  0  0  0  0  0  0  0  0  0  0  0
   -2.4326   -2.0456   -0.5202 C   0  0  0  0  0  0  0  0  0  0  0  0
   -2.7460   -3.1558    0.2739 C   0  0  0  0  0  0  0  0  0  0  0  0
   -1.7172   -4.0186    3.6192 H   0  0  0  0  0  0  0  0  0  0  0  0
   -1.8527   -5.6384    3.0330 H   0  0  0  0  0  0  0  0  0  0  0  0
   -3.9035   -1.5741    2.9747 H   0  0  0  0  0  0  0  0  0  0  0  0
   -3.3408    0.3884    1.5436 H   0  0  0  0  0  0  0  0  0  0  0  0
   -2.5255    0.0822   -1.9876 H   0  0  0  0  0  0  0  0  0  0  0  0
   -3.0626    1.1885   -0.7250 H   0  0  0  0  0  0  0  0  0  0  0  0
   -0.7989   -0.3885   -3.5292 H   0  0  0  0  0  0  0  0  0  0  0  0
   -0.1177   -2.3761   -4.6882 H   0  0  0  0  0  0  0  0  0  0  0  0
    1.7089   -3.8425   -3.7529 H   0  0  0  0  0  0  0  0  0  0  0  0
    2.2680   -5.2466   -2.2636 H   0  0  0  0  0  0  0  0  0  0  0  0
    4.0720   -6.7210   -1.3056 H   0  0  0  0  0  0  0  0  0  0  0  0
    5.8996   -5.7143    0.0166 H   0  0  0  0  0  0  0  0  0  0  0  0
    5.9220   -3.2830    0.3714 H   0  0  0  0  0  0  0  0  0  0  0  0
    4.1792   -1.8725   -0.5564 H   0  0  0  0  0  0  0  0  0  0  0  0
    2.1192   -1.2537   -0.4682 H   0  0  0  0  0  0  0  0  0  0  0  0
    2.6566    8.6416    2.4394 H   0  0  0  0  0  0  0  0  0  0  0  0
    4.0312    5.2518    2.4872 H   0  0  0  0  0  0  0  0  0  0  0  0
   -1.1043    3.7181    1.3413 H   0  0  0  0  0  0  0  0  0  0  0  0
   -2.3917    2.5265    1.2423 H   0  0  0  0  0  0  0  0  0  0  0  0
   -3.4048    3.5621   -0.7078 H   0  0  0  0  0  0  0  0  0  0  0  0
   -0.5907    4.7483   -1.2749 H   0  0  0  0  0  0  0  0  0  0  0  0
   -2.1186    5.0135   -2.2753 H   0  0  0  0  0  0  0  0  0  0  0  0
   -3.3206    5.9925   -0.1937 H   0  0  0  0  0  0  0  0  0  0  0  0
   -1.7369    5.7258    0.7661 H   0  0  0  0  0  0  0  0  0  0  0  0
   -2.0223   -2.2432   -1.5059 H   0  0  0  0  0  0  0  0  0  0  0  0
   -2.5814   -4.1719   -0.0785 H   0  0  0  0  0  0  0  0  0  0  0  0
  1  2  1  0
  2  3  2  0
  2  4  2  0
  2  5  1  0
  5  6  2  0
  6  7  1  0
  7  8  2  0
  8  9  1  0
  9 10  1  0
 10 11  1  0
 11 12  1  0
 12 13  2  0
 13 14  1  0
 14 15  2  0
 15 16  1  0
 16 17  1  0
 17 18  2  0
 18 19  1  0
 19 20  2  0
 20 21  1  0
 21 22  2  0
 16 23  2  0
 11 24  2  0
 24 25  1  0
 25 26  1  0
 26 27  2  0
 27 28  1  0
 28 29  1  0
 29 30  2  0
 29 31  1  0
 28 32  2  0
 32 33  1  0
 25 34  1  0
 34 35  1  0
 35 36  1  0
 36 37  1  0
 37 38  1  0
  8 39  1  0
 39 40  2  0
 40  5  1  0
 34 10  2  0
 38 36  1  0
 23 12  1  0
 33 26  1  0
 22 17  1  0
  1 41  1  0
  1 42  1  0
  6 43  1  0
  7 44  1  0
  9 45  1  0
  9 46  1  0
 13 47  1  0
 14 48  1  0
 15 49  1  0
 18 50  1  0
 19 51  1  0
 20 52  1  0
 21 53  1  0
 22 54  1  0
 23 55  1  0
 31 56  1  0
 32 57  1  0
 35 58  1  0
 35 59  1  0
 36 60  1  0
 37 61  1  0
 37 62  1  0
 38 63  1  0
 38 64  1  0
 39 65  1  0
 40 66  1  0
M  END
$$$$
