
     RDKit          3D

 76 78  0  0  0  0  0  0  0  0999 V2000
   -5.4145    1.0829   -1.8724 C   0  0  0  0  0  0  0  0  0  0  0  0
   -6.4299    1.8312   -1.3354 O   0  0  0  0  0  0  0  0  0  0  0  0
   -6.0689    3.0494   -0.8582 C   0  0  0  0  0  0  0  0  0  0  0  0
   -5.1385    3.0766    0.3264 C   0  0  0  0  0  0  0  0  0  0  0  0
   -5.7454    2.4250    1.5207 C   0  0  0  0  0  0  0  0  0  0  0  0
   -6.0353    1.0895    1.4789 O   0  0  0  0  0  0  0  0  0  0  0  0
   -5.1859    0.0060    1.4136 C   0  0  0  0  0  0  0  0  0  0  0  0
   -3.8180    0.0682    1.4250 C   0  0  0  0  0  0  0  0  0  0  0  0
   -2.9908   -1.0605    1.3597 C   0  0  0  0  0  0  0  0  0  0  0  0
   -1.5623   -0.8299    1.4314 C   0  0  0  0  0  0  0  0  0  0  0  0
   -1.0236   -1.2082    2.5252 O   0  0  0  0  0  0  0  0  0  0  0  0
   -0.7628   -0.2387    0.4238 N   0  0  0  0  0  0  0  0  0  0  0  0
    0.6348   -0.0676    0.6290 C   0  0  0  0  0  0  0  0  0  0  0  0
    1.5637   -1.0871    0.0856 C   0  0  2  0  0  0  0  0  0  0  0  0
    1.3858   -2.4990    0.5278 C   0  0  0  0  0  0  0  0  0  0  0  0
    2.4194   -2.7894    1.4649 N   0  0  0  0  0  0  0  0  0  0  0  0
    2.9648   -1.5564    1.8744 C   0  0  0  0  0  0  0  0  0  0  0  0
    2.9604   -0.6906    0.6321 C   0  0  1  0  0  0  0  0  0  0  0  0
    3.9003   -1.0639   -0.3180 O   0  0  0  0  0  0  0  0  0  0  0  0
    4.8693   -0.1796   -0.8107 C   0  0  0  0  0  0  0  0  0  0  0  0
    4.8149    0.9672   -0.3307 O   0  0  0  0  0  0  0  0  0  0  0  0
    5.8226   -0.5566   -1.7633 N   0  0  0  0  0  0  0  0  0  0  0  0
    6.8281    0.3517   -2.2659 C   0  0  0  0  0  0  0  0  0  0  0  0
    7.9428    0.6006   -1.3524 C   0  0  0  0  0  0  0  0  0  0  0  0
    9.0095   -0.2787   -1.3560 C   0  0  0  0  0  0  0  0  0  0  0  0
   10.0559   -0.0361   -0.5032 C   0  0  0  0  0  0  0  0  0  0  0  0
   10.0580    1.0515    0.3415 C   0  0  0  0  0  0  0  0  0  0  0  0
    8.9935    1.9143    0.3329 C   0  0  0  0  0  0  0  0  0  0  0  0
    7.9354    1.6770   -0.5238 C   0  0  0  0  0  0  0  0  0  0  0  0
   -1.4001    0.1650   -0.8162 C   0  0  0  0  0  0  0  0  0  0  0  0
   -1.2591    1.6184   -1.1216 C   0  0  0  0  0  0  0  0  0  0  0  0
   -0.8922   -0.6802   -1.9954 C   0  0  0  0  0  0  0  0  0  0  0  0
   -3.5734   -2.2811    1.2780 C   0  0  0  0  0  0  0  0  0  0  0  0
   -4.9425   -2.4145    1.2614 C   0  0  0  0  0  0  0  0  0  0  0  0
   -5.7211   -1.2870    1.3289 C   0  0  0  0  0  0  0  0  0  0  0  0
   -7.1027   -1.3728    1.3177 O   0  0  0  0  0  0  0  0  0  0  0  0
   -7.8294   -2.5792    1.2417 C   0  0  0  0  0  0  0  0  0  0  0  0
   -4.5805    0.8547   -1.2249 H   0  0  0  0  0  0  0  0  0  0  0  0
   -5.9022    0.1334   -2.2566 H   0  0  0  0  0  0  0  0  0  0  0  0
   -4.9907    1.5332   -2.8210 H   0  0  0  0  0  0  0  0  0  0  0  0
   -5.6465    3.7312   -1.6303 H   0  0  0  0  0  0  0  0  0  0  0  0
   -7.0135    3.5577   -0.4978 H   0  0  0  0  0  0  0  0  0  0  0  0
   -4.1344    2.7324    0.1001 H   0  0  0  0  0  0  0  0  0  0  0  0
   -5.0269    4.1730    0.5835 H   0  0  0  0  0  0  0  0  0  0  0  0
   -4.9952    2.5805    2.3671 H   0  0  0  0  0  0  0  0  0  0  0  0
   -6.6422    3.0020    1.8689 H   0  0  0  0  0  0  0  0  0  0  0  0
   -3.3498    1.0446    1.4983 H   0  0  0  0  0  0  0  0  0  0  0  0
    0.8370   -0.0251    1.7434 H   0  0  0  0  0  0  0  0  0  0  0  0
    1.0036    0.9329    0.2813 H   0  0  0  0  0  0  0  0  0  0  0  0
    1.5880   -1.0632   -1.0236 H   0  0  0  0  0  0  0  0  0  0  0  0
    0.3800   -2.7483    0.9319 H   0  0  0  0  0  0  0  0  0  0  0  0
    1.5893   -3.2116   -0.3565 H   0  0  0  0  0  0  0  0  0  0  0  0
    3.1592   -3.3892    1.0595 H   0  0  0  0  0  0  0  0  0  0  0  0
    3.9792   -1.6247    2.3236 H   0  0  0  0  0  0  0  0  0  0  0  0
    2.3296   -1.0790    2.6334 H   0  0  0  0  0  0  0  0  0  0  0  0
    2.9942    0.3528    0.9556 H   0  0  0  0  0  0  0  0  0  0  0  0
    5.7739   -1.5663   -2.1136 H   0  0  0  0  0  0  0  0  0  0  0  0
    7.2156   -0.0215   -3.2428 H   0  0  0  0  0  0  0  0  0  0  0  0
    6.2936    1.3107   -2.5453 H   0  0  0  0  0  0  0  0  0  0  0  0
    9.0338   -1.1385   -2.0091 H   0  0  0  0  0  0  0  0  0  0  0  0
   10.9140   -0.7184   -0.4839 H   0  0  0  0  0  0  0  0  0  0  0  0
   10.9101    1.1991    0.9992 H   0  0  0  0  0  0  0  0  0  0  0  0
    9.0126    2.7651    1.0000 H   0  0  0  0  0  0  0  0  0  0  0  0
    7.1129    2.3815   -0.5116 H   0  0  0  0  0  0  0  0  0  0  0  0
   -2.4789   -0.0748   -0.7652 H   0  0  0  0  0  0  0  0  0  0  0  0
   -0.2086    1.9628   -1.1671 H   0  0  0  0  0  0  0  0  0  0  0  0
   -1.8669    2.2642   -0.4661 H   0  0  0  0  0  0  0  0  0  0  0  0
   -1.6487    1.7594   -2.1727 H   0  0  0  0  0  0  0  0  0  0  0  0
   -0.6321   -1.6861   -1.6558 H   0  0  0  0  0  0  0  0  0  0  0  0
   -1.7154   -0.8287   -2.7560 H   0  0  0  0  0  0  0  0  0  0  0  0
   -0.0963   -0.1528   -2.5516 H   0  0  0  0  0  0  0  0  0  0  0  0
   -2.9397   -3.1546    1.2251 H   0  0  0  0  0  0  0  0  0  0  0  0
   -5.4066   -3.4149    1.1956 H   0  0  0  0  0  0  0  0  0  0  0  0
   -7.7868   -3.0572    2.2497 H   0  0  0  0  0  0  0  0  0  0  0  0
   -8.8906   -2.3190    1.0534 H   0  0  0  0  0  0  0  0  0  0  0  0
   -7.4370   -3.2147    0.4398 H   0  0  0  0  0  0  0  0  0  0  0  0
  1  2  1  0
  2  3  1  0
  3  4  1  0
  4  5  1  0
  5  6  1  0
  6  7  1  0
  7  8  2  0
  8  9  1  0
  9 10  1  0
 10 11  2  0
 10 12  1  0
 12 13  1  0
 13 14  1  0
 14 15  1  0
 15 16  1  0
 16 17  1  0
 17 18  1  0
 18 19  1  0
 19 20  1  0
 20 21  2  0
 20 22  1  0
 22 23  1  0
 23 24  1  0
 24 25  2  0
 25 26  1  0
 26 27  2  0
 27 28  1  0
 28 29  2  0
 12 30  1  0
 30 31  1  0
 30 32  1  0
  9 33  2  0
 33 34  1  0
 34 35  2  0
 35 36  1  0
 36 37  1  0
 35  7  1  0
 18 14  1  0
 29 24  1  0
  1 38  1  0
  1 39  1  0
  1 40  1  0
  3 41  1  0
  3 42  1  0
  4 43  1  0
  4 44  1  0
  5 45  1  0
  5 46  1  0
  8 47  1  0
 13 48  1  0
 13 49  1  0
 14 50  1  6
 15 51  1  0
 15 52  1  0
 16 53  1  0
 17 54  1  0
 17 55  1  0
 18 56  1  1
 22 57  1  0
 23 58  1  0
 23 59  1  0
 25 60  1  0
 26 61  1  0
 27 62  1  0
 28 63  1  0
 29 64  1  0
 30 65  1  0
 31 66  1  0
 31 67  1  0
 31 68  1  0
 32 69  1  0
 32 70  1  0
 32 71  1  0
 33 72  1  0
 34 73  1  0
 37 74  1  0
 37 75  1  0
 37 76  1  0
M  END
$$$$
