
     RDKit          3D

 43 46  0  0  0  0  0  0  0  0999 V2000
    0.2911   -3.1065   -1.0020 C   0  0  0  0  0  0  0  0  0  0  0  0
    1.4291   -2.3911   -1.6673 C   0  0  0  0  0  0  0  0  0  0  0  0
    1.1397   -2.3023   -3.1509 C   0  0  0  0  0  0  0  0  0  0  0  0
    2.2207   -1.6301   -3.7475 O   0  0  0  0  0  0  0  0  0  0  0  0
    1.7690   -1.1237   -1.0767 N   0  0  0  0  0  0  0  0  0  0  0  0
    3.0659   -0.6905   -1.0556 C   0  0  0  0  0  0  0  0  0  0  0  0
    3.0843    0.4921   -0.4545 N   0  0  0  0  0  0  0  0  0  0  0  0
    1.8363    0.8236   -0.0923 C   0  0  0  0  0  0  0  0  0  0  0  0
    1.4278    2.0411    0.5950 C   0  0  0  0  0  0  0  0  0  0  0  0
    1.9786    2.2943    1.8340 C   0  0  0  0  0  0  0  0  0  0  0  0
    1.6167    3.4516    2.5427 C   0  0  0  0  0  0  0  0  0  0  0  0
    0.7135    4.3447    2.0170 C   0  0  0  0  0  0  0  0  0  0  0  0
    0.3894    5.4604    2.7479 F   0  0  0  0  0  0  0  0  0  0  0  0
    0.1646    4.0933    0.7835 C   0  0  0  0  0  0  0  0  0  0  0  0
    0.5268    2.9456    0.0858 C   0  0  0  0  0  0  0  0  0  0  0  0
    1.0092   -0.2119   -0.4936 C   0  0  0  0  0  0  0  0  0  0  0  0
   -0.4264   -0.2575   -0.2932 C   0  0  0  0  0  0  0  0  0  0  0  0
   -1.3591   -0.1851   -1.3046 C   0  0  0  0  0  0  0  0  0  0  0  0
   -2.7161   -0.2323   -1.0659 C   0  0  0  0  0  0  0  0  0  0  0  0
   -3.1695   -0.3579    0.2473 C   0  0  0  0  0  0  0  0  0  0  0  0
   -4.4173   -0.4258    0.7429 N   0  0  0  0  0  0  0  0  0  0  0  0
   -4.3022   -0.5423    2.0792 C   0  0  0  0  0  0  0  0  0  0  0  0
   -2.9393   -0.5454    2.4083 C   0  0  0  0  0  0  0  0  0  0  0  0
   -2.3877   -0.6518    3.7288 C   0  0  0  0  0  0  0  0  0  0  0  0
   -1.9345   -0.7237    4.7997 N   0  0  0  0  0  0  0  0  0  0  0  0
   -2.2731   -0.4294    1.2455 N   0  0  0  0  0  0  0  0  0  0  0  0
   -0.9435   -0.3808    0.9842 C   0  0  0  0  0  0  0  0  0  0  0  0
   -0.6762   -2.9739   -1.5320 H   0  0  0  0  0  0  0  0  0  0  0  0
    0.5376   -4.2075   -1.0206 H   0  0  0  0  0  0  0  0  0  0  0  0
    0.1767   -2.8663    0.0640 H   0  0  0  0  0  0  0  0  0  0  0  0
    2.3256   -3.0870   -1.6034 H   0  0  0  0  0  0  0  0  0  0  0  0
    1.1183   -3.3327   -3.5751 H   0  0  0  0  0  0  0  0  0  0  0  0
    0.1805   -1.8399   -3.3705 H   0  0  0  0  0  0  0  0  0  0  0  0
    2.1692   -1.8032   -4.7114 H   0  0  0  0  0  0  0  0  0  0  0  0
    3.9445   -1.1852   -1.4439 H   0  0  0  0  0  0  0  0  0  0  0  0
    2.6950    1.6385    2.3133 H   0  0  0  0  0  0  0  0  0  0  0  0
    2.0339    3.6749    3.5170 H   0  0  0  0  0  0  0  0  0  0  0  0
   -0.5401    4.7972    0.3833 H   0  0  0  0  0  0  0  0  0  0  0  0
    0.0841    2.7487   -0.9028 H   0  0  0  0  0  0  0  0  0  0  0  0
   -1.0305   -0.0843   -2.3251 H   0  0  0  0  0  0  0  0  0  0  0  0
   -3.4466   -0.1738   -1.8763 H   0  0  0  0  0  0  0  0  0  0  0  0
   -5.0835   -0.6195    2.7961 H   0  0  0  0  0  0  0  0  0  0  0  0
   -0.2824   -0.4447    1.8496 H   0  0  0  0  0  0  0  0  0  0  0  0
  1  2  1  0
  2  3  1  0
  3  4  1  0
  2  5  1  0
  5  6  1  0
  6  7  2  0
  7  8  1  0
  8  9  1  0
  9 10  2  0
 10 11  1  0
 11 12  2  0
 12 13  1  0
 12 14  1  0
 14 15  2  0
  8 16  2  0
 16 17  1  0
 17 18  1  0
 18 19  2  0
 19 20  1  0
 20 21  2  0
 21 22  1  0
 22 23  2  0
 23 24  1  0
 24 25  3  0
 23 26  1  0
 26 27  1  0
 16  5  1  0
 27 17  2  0
 15  9  1  0
 26 20  1  0
  1 28  1  0
  1 29  1  0
  1 30  1  0
  2 31  1  0
  3 32  1  0
  3 33  1  0
  4 34  1  0
  6 35  1  0
 10 36  1  0
 11 37  1  0
 14 38  1  0
 15 39  1  0
 18 40  1  0
 19 41  1  0
 22 42  1  0
 27 43  1  0
M  END
$$$$
