
     RDKit          3D

 47 50  0  0  0  0  0  0  0  0999 V2000
    8.0128    1.0229    2.1949 C   0  0  0  0  0  0  0  0  0  0  0  0
    7.4469    1.4702    1.0002 O   0  0  0  0  0  0  0  0  0  0  0  0
    6.3688    0.8112    0.3960 C   0  0  0  0  0  0  0  0  0  0  0  0
    5.8577    1.3073   -0.7848 C   0  0  0  0  0  0  0  0  0  0  0  0
    4.7868    0.6633   -1.3968 C   0  0  0  0  0  0  0  0  0  0  0  0
    4.2204   -0.4634   -0.8511 C   0  0  0  0  0  0  0  0  0  0  0  0
    3.1380   -1.1035   -1.4815 N   0  0  0  0  0  0  0  0  0  0  0  0
    1.7736   -0.8020   -1.2385 C   0  0  0  0  0  0  0  0  0  0  0  0
    1.4892    0.0807   -0.4202 O   0  0  0  0  0  0  0  0  0  0  0  0
    0.7098   -1.4859   -1.9094 N   0  0  0  0  0  0  0  0  0  0  0  0
   -0.6484   -1.1586   -1.6420 C   0  0  0  0  0  0  0  0  0  0  0  0
   -1.3543   -1.8117   -0.6351 C   0  0  0  0  0  0  0  0  0  0  0  0
   -2.6799   -1.4661   -0.4018 C   0  0  0  0  0  0  0  0  0  0  0  0
   -3.3426   -0.5026   -1.1184 C   0  0  0  0  0  0  0  0  0  0  0  0
   -4.7273   -0.1524   -0.8514 C   0  0  0  0  0  0  0  0  0  0  0  0
   -5.6543   -0.2793   -1.8453 N   0  0  0  0  0  0  0  0  0  0  0  0
   -6.9350    0.0432   -1.6207 C   0  0  0  0  0  0  0  0  0  0  0  0
   -7.3489    0.4957   -0.4325 N   0  0  0  0  0  0  0  0  0  0  0  0
   -6.4889    0.6468    0.5891 C   0  0  0  0  0  0  0  0  0  0  0  0
   -6.6943    1.0995    1.8317 N   0  0  0  0  0  0  0  0  0  0  0  0
   -5.5097    1.0729    2.4288 C   0  0  0  0  0  0  0  0  0  0  0  0
   -4.5336    0.5984    1.5627 C   0  0  0  0  0  0  0  0  0  0  0  0
   -3.0897    0.4713    1.8592 C   0  0  0  0  0  0  0  0  0  0  0  0
   -5.1526    0.3158    0.3706 C   0  0  0  0  0  0  0  0  0  0  0  0
   -2.6176    0.1445   -2.1278 C   0  0  0  0  0  0  0  0  0  0  0  0
   -1.3015   -0.1875   -2.3714 C   0  0  0  0  0  0  0  0  0  0  0  0
   -0.5918    0.4352   -3.3483 F   0  0  0  0  0  0  0  0  0  0  0  0
    4.7324   -0.9526    0.3233 C   0  0  0  0  0  0  0  0  0  0  0  0
    5.8053   -0.3128    0.9423 C   0  0  0  0  0  0  0  0  0  0  0  0
    7.4324    1.3855    3.0666 H   0  0  0  0  0  0  0  0  0  0  0  0
    8.1167   -0.0685    2.2075 H   0  0  0  0  0  0  0  0  0  0  0  0
    9.0502    1.4650    2.2449 H   0  0  0  0  0  0  0  0  0  0  0  0
    6.3162    2.1951   -1.1997 H   0  0  0  0  0  0  0  0  0  0  0  0
    4.4113    1.0716   -2.3128 H   0  0  0  0  0  0  0  0  0  0  0  0
    3.3109   -1.8720   -2.1961 H   0  0  0  0  0  0  0  0  0  0  0  0
    0.9386   -2.2329   -2.6022 H   0  0  0  0  0  0  0  0  0  0  0  0
   -0.8851   -2.5683   -0.0490 H   0  0  0  0  0  0  0  0  0  0  0  0
   -3.1866   -2.0148    0.3954 H   0  0  0  0  0  0  0  0  0  0  0  0
   -7.6211   -0.0825   -2.4568 H   0  0  0  0  0  0  0  0  0  0  0  0
   -7.5857    1.4191    2.2824 H   0  0  0  0  0  0  0  0  0  0  0  0
   -5.2846    1.3694    3.4476 H   0  0  0  0  0  0  0  0  0  0  0  0
   -2.8267    1.2045    2.7150 H   0  0  0  0  0  0  0  0  0  0  0  0
   -2.4674    0.8615    1.0388 H   0  0  0  0  0  0  0  0  0  0  0  0
   -2.7763   -0.5063    2.1938 H   0  0  0  0  0  0  0  0  0  0  0  0
   -3.1523    0.8990   -2.6823 H   0  0  0  0  0  0  0  0  0  0  0  0
    4.3307   -1.8191    0.7848 H   0  0  0  0  0  0  0  0  0  0  0  0
    6.2075   -0.7069    1.8757 H   0  0  0  0  0  0  0  0  0  0  0  0
  1  2  1  0
  2  3  1  0
  3  4  2  0
  4  5  1  0
  5  6  2  0
  6  7  1  0
  7  8  1  0
  8  9  2  0
  8 10  1  0
 10 11  1  0
 11 12  2  0
 12 13  1  0
 13 14  2  0
 14 15  1  0
 15 16  2  0
 16 17  1  0
 17 18  2  0
 18 19  1  0
 19 20  1  0
 20 21  1  0
 21 22  2  0
 22 23  1  0
 22 24  1  0
 14 25  1  0
 25 26  2  0
 26 27  1  0
  6 28  1  0
 28 29  2  0
 29  3  1  0
 26 11  1  0
 24 15  1  0
 24 19  2  0
  1 30  1  0
  1 31  1  0
  1 32  1  0
  4 33  1  0
  5 34  1  0
  7 35  1  0
 10 36  1  0
 12 37  1  0
 13 38  1  0
 17 39  1  0
 20 40  1  0
 21 41  1  0
 23 42  1  0
 23 43  1  0
 23 44  1  0
 25 45  1  0
 28 46  1  0
 29 47  1  0
M  END
$$$$
