
     RDKit          3D

 67 70  0  0  0  0  0  0  0  0999 V2000
    7.3485   -3.8529    0.4118 C   0  0  0  0  0  0  0  0  0  0  0  0
    7.4397   -2.4495    0.9291 C   0  0  0  0  0  0  0  0  0  0  0  0
    7.0330   -1.4103   -0.0742 C   0  0  0  0  0  0  0  0  0  0  0  0
    5.6076   -1.5770   -0.5405 C   0  0  0  0  0  0  0  0  0  0  0  0
    4.6587   -1.4859    0.5326 N   0  0  0  0  0  0  0  0  0  0  0  0
    3.2764   -1.6200    0.2516 C   0  0  0  0  0  0  0  0  0  0  0  0
    2.6590   -2.8145    0.2695 N   0  0  0  0  0  0  0  0  0  0  0  0
    1.3476   -2.9698    0.0112 C   0  0  0  0  0  0  0  0  0  0  0  0
    0.5273   -1.8658   -0.2995 C   0  0  0  0  0  0  0  0  0  0  0  0
   -0.9184   -2.1076   -0.3436 C   0  0  0  0  0  0  0  0  0  0  0  0
   -1.9035   -1.1943   -0.2540 C   0  0  0  0  0  0  0  0  0  0  0  0
   -3.2812   -1.5226   -0.2109 C   0  0  0  0  0  0  0  0  0  0  0  0
   -4.2267   -0.4781   -0.1208 N   0  0  0  0  0  0  0  0  0  0  0  0
   -5.6175   -0.6249   -0.0623 C   0  0  0  0  0  0  0  0  0  0  0  0
   -6.2240   -1.8557   -0.0881 C   0  0  0  0  0  0  0  0  0  0  0  0
   -7.6251   -1.8888   -0.0238 C   0  0  0  0  0  0  0  0  0  0  0  0
   -8.3955   -0.7567    0.0623 C   0  0  0  0  0  0  0  0  0  0  0  0
   -7.7502    0.4473    0.0851 C   0  0  0  0  0  0  0  0  0  0  0  0
   -6.4031    0.5474    0.0263 C   0  0  0  0  0  0  0  0  0  0  0  0
   -5.7366    1.7865    0.0497 O   0  0  0  0  0  0  0  0  0  0  0  0
   -6.4098    3.0025    0.1350 C   0  0  0  0  0  0  0  0  0  0  0  0
   -3.5755   -2.8104   -0.2611 N   0  0  0  0  0  0  0  0  0  0  0  0
   -2.6176   -3.7301   -0.3470 C   0  0  0  0  0  0  0  0  0  0  0  0
   -1.3288   -3.4132   -0.3881 N   0  0  0  0  0  0  0  0  0  0  0  0
    1.1658   -0.6780   -0.3201 C   0  0  0  0  0  0  0  0  0  0  0  0
    0.5352    0.4738   -0.8319 N   0  0  0  0  0  0  0  0  0  0  0  0
    1.1064    1.8017   -0.7008 C   0  0  1  0  0  0  0  0  0  0  0  0
    0.2270    2.8536   -1.3278 C   0  0  0  0  0  0  0  0  0  0  0  0
    0.9817    4.1815   -1.1869 C   0  0  0  0  0  0  0  0  0  0  0  0
    1.0885    4.5700    0.2517 C   0  0  2  0  0  0  0  0  0  0  0  0
    2.4221    4.8262    0.5707 O   0  0  0  0  0  0  0  0  0  0  0  0
    0.6156    3.4243    1.1257 C   0  0  0  0  0  0  0  0  0  0  0  0
    1.4197    2.1911    0.7001 C   0  0  0  0  0  0  0  0  0  0  0  0
    2.5069   -0.5614   -0.0472 N   0  0  0  0  0  0  0  0  0  0  0  0
    7.7899   -4.5178    1.1967 H   0  0  0  0  0  0  0  0  0  0  0  0
    7.8798   -3.9289   -0.5502 H   0  0  0  0  0  0  0  0  0  0  0  0
    6.3176   -4.2090    0.2612 H   0  0  0  0  0  0  0  0  0  0  0  0
    6.8084   -2.3024    1.8294 H   0  0  0  0  0  0  0  0  0  0  0  0
    8.4914   -2.2511    1.2067 H   0  0  0  0  0  0  0  0  0  0  0  0
    7.6757   -1.4329   -0.9810 H   0  0  0  0  0  0  0  0  0  0  0  0
    7.0940   -0.4209    0.4231 H   0  0  0  0  0  0  0  0  0  0  0  0
    5.4049   -0.6971   -1.2197 H   0  0  0  0  0  0  0  0  0  0  0  0
    5.4639   -2.4691   -1.1786 H   0  0  0  0  0  0  0  0  0  0  0  0
    4.9774   -1.3248    1.4964 H   0  0  0  0  0  0  0  0  0  0  0  0
    0.8725   -3.9428    0.0302 H   0  0  0  0  0  0  0  0  0  0  0  0
   -1.6748   -0.1572   -0.1445 H   0  0  0  0  0  0  0  0  0  0  0  0
   -3.8272    0.5122   -0.0969 H   0  0  0  0  0  0  0  0  0  0  0  0
   -5.7055   -2.8036   -0.1541 H   0  0  0  0  0  0  0  0  0  0  0  0
   -8.1038   -2.8591   -0.0442 H   0  0  0  0  0  0  0  0  0  0  0  0
   -9.4889   -0.8492    0.1094 H   0  0  0  0  0  0  0  0  0  0  0  0
   -8.3821    1.3463    0.1544 H   0  0  0  0  0  0  0  0  0  0  0  0
   -5.6739    3.7647    0.5089 H   0  0  0  0  0  0  0  0  0  0  0  0
   -7.3165    2.9729    0.7706 H   0  0  0  0  0  0  0  0  0  0  0  0
   -6.6878    3.3413   -0.8846 H   0  0  0  0  0  0  0  0  0  0  0  0
   -2.8579   -4.8114   -0.3893 H   0  0  0  0  0  0  0  0  0  0  0  0
   -0.3275    0.3863   -1.3925 H   0  0  0  0  0  0  0  0  0  0  0  0
    2.0537    1.7871   -1.2957 H   0  0  0  0  0  0  0  0  0  0  0  0
    0.2066    2.6364   -2.4265 H   0  0  0  0  0  0  0  0  0  0  0  0
   -0.7795    2.9040   -0.8989 H   0  0  0  0  0  0  0  0  0  0  0  0
    2.0038    3.9891   -1.5986 H   0  0  0  0  0  0  0  0  0  0  0  0
    0.4738    4.9764   -1.7842 H   0  0  0  0  0  0  0  0  0  0  0  0
    0.4760    5.4801    0.4167 H   0  0  0  0  0  0  0  0  0  0  0  0
    2.5528    5.6242    1.1116 H   0  0  0  0  0  0  0  0  0  0  0  0
    0.9858    3.6610    2.1583 H   0  0  0  0  0  0  0  0  0  0  0  0
   -0.4602    3.2567    1.0847 H   0  0  0  0  0  0  0  0  0  0  0  0
    2.4970    2.5212    0.7884 H   0  0  0  0  0  0  0  0  0  0  0  0
    1.3076    1.3790    1.4437 H   0  0  0  0  0  0  0  0  0  0  0  0
  1  2  1  0
  2  3  1  0
  3  4  1  0
  4  5  1  0
  5  6  1  0
  6  7  2  0
  7  8  1  0
  8  9  2  0
  9 10  1  0
 10 11  2  0
 11 12  1  0
 12 13  1  0
 13 14  1  0
 14 15  2  0
 15 16  1  0
 16 17  2  0
 17 18  1  0
 18 19  2  0
 19 20  1  0
 20 21  1  0
 12 22  2  0
 22 23  1  0
 23 24  2  0
  9 25  1  0
 25 26  1  0
 26 27  1  0
 27 28  1  0
 28 29  1  0
 29 30  1  0
 30 31  1  0
 30 32  1  0
 32 33  1  0
 25 34  2  0
 34  6  1  0
 24 10  1  0
 33 27  1  0
 19 14  1  0
  1 35  1  0
  1 36  1  0
  1 37  1  0
  2 38  1  0
  2 39  1  0
  3 40  1  0
  3 41  1  0
  4 42  1  0
  4 43  1  0
  5 44  1  0
  8 45  1  0
 11 46  1  0
 13 47  1  0
 15 48  1  0
 16 49  1  0
 17 50  1  0
 18 51  1  0
 21 52  1  0
 21 53  1  0
 21 54  1  0
 23 55  1  0
 26 56  1  0
 27 57  1  6
 28 58  1  0
 28 59  1  0
 29 60  1  0
 29 61  1  0
 30 62  1  6
 31 63  1  0
 32 64  1  0
 32 65  1  0
 33 66  1  0
 33 67  1  0
M  END
$$$$
