
     RDKit          3D

 40 41  0  0  0  0  0  0  0  0999 V2000
   -0.9278   -2.7142   -1.4193 C   0  0  0  0  0  0  0  0  0  0  0  0
   -1.4365   -1.4381   -0.9859 N   0  0  0  0  0  0  0  0  0  0  0  0
   -2.6178   -1.2441   -0.4723 N   0  0  0  0  0  0  0  0  0  0  0  0
   -2.8069    0.0409   -0.1668 C   0  0  0  0  0  0  0  0  0  0  0  0
   -1.6433    0.6839   -0.5243 C   0  0  0  0  0  0  0  0  0  0  0  0
   -0.7651   -0.2568   -1.0478 C   0  0  0  0  0  0  0  0  0  0  0  0
    0.5473   -0.0020   -1.5347 N   0  0  0  0  0  0  0  0  0  0  0  0
    1.6764   -0.0667   -0.6811 C   0  0  0  0  0  0  0  0  0  0  0  0
    1.4429   -0.3562    0.4995 O   0  0  0  0  0  0  0  0  0  0  0  0
    2.9905    0.1710   -1.0906 N   0  0  0  0  0  0  0  0  0  0  0  0
    4.1896    0.1374   -0.3413 C   0  0  0  0  0  0  0  0  0  0  0  0
    4.3251   -0.1460    0.9960 C   0  0  0  0  0  0  0  0  0  0  0  0
    5.5210   -0.1652    1.6792 C   0  0  0  0  0  0  0  0  0  0  0  0
    6.6890    0.1154    1.0047 C   0  0  0  0  0  0  0  0  0  0  0  0
    8.2587    0.1221    1.7587 Cl  0  0  0  0  0  0  0  0  0  0  0  0
    6.5843    0.4010   -0.3270 C   0  0  0  0  0  0  0  0  0  0  0  0
    5.3839    0.4102   -0.9673 C   0  0  0  0  0  0  0  0  0  0  0  0
   -4.0332    0.6006    0.4301 C   0  0  0  0  0  0  0  0  0  0  0  0
   -3.9592    2.0818    0.6638 C   0  0  0  0  0  0  0  0  0  0  0  0
   -5.2374    0.3206   -0.4750 C   0  0  0  0  0  0  0  0  0  0  0  0
   -4.3215   -0.0499    1.7663 C   0  0  0  0  0  0  0  0  0  0  0  0
   -1.4861   -3.1017   -2.2897 H   0  0  0  0  0  0  0  0  0  0  0  0
    0.1491   -2.6328   -1.6926 H   0  0  0  0  0  0  0  0  0  0  0  0
   -1.0401   -3.4603   -0.5877 H   0  0  0  0  0  0  0  0  0  0  0  0
   -1.4574    1.7251   -0.4143 H   0  0  0  0  0  0  0  0  0  0  0  0
    0.6781    0.2375   -2.5424 H   0  0  0  0  0  0  0  0  0  0  0  0
    3.0494    0.4052   -2.1104 H   0  0  0  0  0  0  0  0  0  0  0  0
    3.4440   -0.3729    1.5727 H   0  0  0  0  0  0  0  0  0  0  0  0
    5.5581   -0.3932    2.7190 H   0  0  0  0  0  0  0  0  0  0  0  0
    7.4769    0.6260   -0.8895 H   0  0  0  0  0  0  0  0  0  0  0  0
    5.3774    0.6495   -2.0428 H   0  0  0  0  0  0  0  0  0  0  0  0
   -4.8695    2.3668    1.2309 H   0  0  0  0  0  0  0  0  0  0  0  0
   -3.0767    2.3268    1.2680 H   0  0  0  0  0  0  0  0  0  0  0  0
   -3.9732    2.6456   -0.3005 H   0  0  0  0  0  0  0  0  0  0  0  0
   -4.9652    0.7418   -1.4811 H   0  0  0  0  0  0  0  0  0  0  0  0
   -6.0975    0.8748   -0.0508 H   0  0  0  0  0  0  0  0  0  0  0  0
   -5.4209   -0.7750   -0.5494 H   0  0  0  0  0  0  0  0  0  0  0  0
   -4.9190    0.6583    2.3792 H   0  0  0  0  0  0  0  0  0  0  0  0
   -3.3592   -0.1966    2.2881 H   0  0  0  0  0  0  0  0  0  0  0  0
   -4.9281   -0.9706    1.6648 H   0  0  0  0  0  0  0  0  0  0  0  0
  1  2  1  0
  2  3  1  0
  3  4  2  0
  4  5  1  0
  5  6  2  0
  6  7  1  0
  7  8  1  0
  8  9  2  0
  8 10  1  0
 10 11  1  0
 11 12  2  0
 12 13  1  0
 13 14  2  0
 14 15  1  0
 14 16  1  0
 16 17  2  0
  4 18  1  0
 18 19  1  0
 18 20  1  0
 18 21  1  0
  6  2  1  0
 17 11  1  0
  1 22  1  0
  1 23  1  0
  1 24  1  0
  5 25  1  0
  7 26  1  0
 10 27  1  0
 12 28  1  0
 13 29  1  0
 16 30  1  0
 17 31  1  0
 19 32  1  0
 19 33  1  0
 19 34  1  0
 20 35  1  0
 20 36  1  0
 20 37  1  0
 21 38  1  0
 21 39  1  0
 21 40  1  0
M  END
$$$$
