
     RDKit          3D

 42 44  0  0  0  0  0  0  0  0999 V2000
   -0.6322    0.2444    1.7496 C   0  0  0  0  0  0  0  0  0  0  0  0
   -0.4269   -0.8709    0.7921 C   0  0  0  0  0  0  0  0  0  0  0  0
    0.7757   -1.1572    0.1889 C   0  0  0  0  0  0  0  0  0  0  0  0
    2.0642   -0.4678    0.3391 C   0  0  0  0  0  0  0  0  0  0  0  0
    2.1375    0.5151    1.1015 O   0  0  0  0  0  0  0  0  0  0  0  0
    3.1808   -0.9387   -0.3839 N   0  0  0  0  0  0  0  0  0  0  0  0
    4.4533   -0.2863   -0.2582 C   0  0  0  0  0  0  0  0  0  0  0  0
    5.5913   -0.6480   -0.9008 C   0  0  0  0  0  0  0  0  0  0  0  0
    6.5798    0.2153   -0.5184 C   0  0  0  0  0  0  0  0  0  0  0  0
    6.0093    1.0678    0.3399 N   0  0  0  0  0  0  0  0  0  0  0  0
    6.7366    2.1579    0.9847 C   0  0  0  0  0  0  0  0  0  0  0  0
    4.7377    0.7768    0.5026 N   0  0  0  0  0  0  0  0  0  0  0  0
    0.5257   -2.2343   -0.5951 N   0  0  0  0  0  0  0  0  0  0  0  0
   -0.7691   -2.5748   -0.4647 C   0  0  0  0  0  0  0  0  0  0  0  0
   -1.3874   -1.7257    0.4070 N   0  0  0  0  0  0  0  0  0  0  0  0
   -2.7906   -1.7722    0.8049 C   0  0  0  0  0  0  0  0  0  0  0  0
   -3.6151   -0.9487   -0.1107 C   0  0  0  0  0  0  0  0  0  0  0  0
   -4.1828   -1.4762   -1.2645 C   0  0  0  0  0  0  0  0  0  0  0  0
   -4.9458   -0.6877   -2.0980 C   0  0  0  0  0  0  0  0  0  0  0  0
   -5.1559    0.6447   -1.7934 C   0  0  0  0  0  0  0  0  0  0  0  0
   -4.5911    1.1720   -0.6442 C   0  0  0  0  0  0  0  0  0  0  0  0
   -4.8214    2.6109   -0.3206 C   0  0  0  0  0  0  0  0  0  0  0  0
   -4.2163    2.9077    0.8867 F   0  0  0  0  0  0  0  0  0  0  0  0
   -6.1947    2.8157   -0.2041 F   0  0  0  0  0  0  0  0  0  0  0  0
   -4.2607    3.4395   -1.2718 F   0  0  0  0  0  0  0  0  0  0  0  0
   -3.8227    0.3796    0.1959 C   0  0  0  0  0  0  0  0  0  0  0  0
    0.2153    0.4108    2.4235 H   0  0  0  0  0  0  0  0  0  0  0  0
   -1.5381    0.0351    2.3892 H   0  0  0  0  0  0  0  0  0  0  0  0
   -0.8528    1.1967    1.2254 H   0  0  0  0  0  0  0  0  0  0  0  0
    3.0783   -1.7633   -1.0107 H   0  0  0  0  0  0  0  0  0  0  0  0
    5.7140   -1.4816   -1.6049 H   0  0  0  0  0  0  0  0  0  0  0  0
    7.6024    0.1580   -0.8819 H   0  0  0  0  0  0  0  0  0  0  0  0
    7.4917    2.6034    0.3188 H   0  0  0  0  0  0  0  0  0  0  0  0
    6.0138    2.9625    1.2455 H   0  0  0  0  0  0  0  0  0  0  0  0
    7.1911    1.7830    1.9092 H   0  0  0  0  0  0  0  0  0  0  0  0
   -1.3027   -3.3822   -0.9446 H   0  0  0  0  0  0  0  0  0  0  0  0
   -2.8782   -1.3964    1.8230 H   0  0  0  0  0  0  0  0  0  0  0  0
   -3.1647   -2.8071    0.7421 H   0  0  0  0  0  0  0  0  0  0  0  0
   -4.0045   -2.5196   -1.4813 H   0  0  0  0  0  0  0  0  0  0  0  0
   -5.4017   -1.0803   -3.0098 H   0  0  0  0  0  0  0  0  0  0  0  0
   -5.7494    1.2920   -2.4255 H   0  0  0  0  0  0  0  0  0  0  0  0
   -3.3935    0.8303    1.0939 H   0  0  0  0  0  0  0  0  0  0  0  0
  1  2  1  0
  2  3  2  0
  3  4  1  0
  4  5  2  0
  4  6  1  0
  6  7  1  0
  7  8  1  0
  8  9  2  0
  9 10  1  0
 10 11  1  0
 10 12  1  0
  3 13  1  0
 13 14  2  0
 14 15  1  0
 15 16  1  0
 16 17  1  0
 17 18  2  0
 18 19  1  0
 19 20  2  0
 20 21  1  0
 21 22  1  0
 22 23  1  0
 22 24  1  0
 22 25  1  0
 21 26  2  0
 15  2  1  0
 26 17  1  0
 12  7  2  0
  1 27  1  0
  1 28  1  0
  1 29  1  0
  6 30  1  0
  8 31  1  0
  9 32  1  0
 11 33  1  0
 11 34  1  0
 11 35  1  0
 14 36  1  0
 16 37  1  0
 16 38  1  0
 18 39  1  0
 19 40  1  0
 20 41  1  0
 26 42  1  0
M  END
$$$$
