
     RDKit          3D

 49 51  0  0  0  0  0  0  0  0999 V2000
   -3.2327    1.8759   -0.0116 C   0  0  0  0  0  0  0  0  0  0  0  0
   -2.9252    0.4016   -0.3010 C   0  0  0  0  0  0  0  0  0  0  0  0
   -1.5619    0.3669   -0.9516 C   0  0  2  0  0  0  0  0  0  0  0  0
   -1.1126   -1.0191   -1.3006 C   0  0  0  0  0  0  0  0  0  0  0  0
    0.3666   -0.8107   -1.4404 C   0  0  0  0  0  0  0  0  0  0  0  0
    1.1712   -1.3650   -2.2048 O   0  0  0  0  0  0  0  0  0  0  0  0
    0.7402    0.1901   -0.4982 N   0  0  0  0  0  0  0  0  0  0  0  0
    2.0852    0.5083   -0.0461 C   0  0  0  0  0  0  0  0  0  0  0  0
    2.4891   -0.2755    1.1547 C   0  0  0  0  0  0  0  0  0  0  0  0
    3.7748    0.0403    1.5519 O   0  0  0  0  0  0  0  0  0  0  0  0
    4.9698   -0.1230    0.9456 C   0  0  0  0  0  0  0  0  0  0  0  0
    6.1170    0.3418    1.6097 C   0  0  0  0  0  0  0  0  0  0  0  0
    7.3734    0.2208    1.0799 C   0  0  0  0  0  0  0  0  0  0  0  0
    7.5671   -0.3660   -0.1352 C   0  0  0  0  0  0  0  0  0  0  0  0
    8.8164   -0.4738   -0.6378 F   0  0  0  0  0  0  0  0  0  0  0  0
    6.4687   -0.8333   -0.8141 C   0  0  0  0  0  0  0  0  0  0  0  0
    6.6619   -1.4150   -2.0187 F   0  0  0  0  0  0  0  0  0  0  0  0
    5.1909   -0.7066   -0.2672 C   0  0  0  0  0  0  0  0  0  0  0  0
   -0.4657    0.8549   -0.0491 C   0  0  0  0  0  0  0  0  0  0  0  0
   -2.9609   -0.3160    1.0055 C   0  0  0  0  0  0  0  0  0  0  0  0
   -4.0959   -1.3179    1.1082 C   0  0  0  0  0  0  0  0  0  0  0  0
   -5.6517   -0.5922    0.6291 S   0  0  0  0  0  6  0  0  0  0  0  0
   -6.1640    0.3718    1.6291 O   0  0  0  0  0  0  0  0  0  0  0  0
   -6.6439   -1.7102    0.5049 O   0  0  0  0  0  0  0  0  0  0  0  0
   -5.3392    0.1832   -0.9516 C   0  0  0  0  0  0  0  0  0  0  0  0
   -3.9090   -0.1278   -1.3146 C   0  0  0  0  0  0  0  0  0  0  0  0
   -4.2469    2.0062    0.3983 H   0  0  0  0  0  0  0  0  0  0  0  0
   -2.5312    2.2106    0.7956 H   0  0  0  0  0  0  0  0  0  0  0  0
   -3.1626    2.4923   -0.9224 H   0  0  0  0  0  0  0  0  0  0  0  0
   -1.5284    0.9755   -1.8777 H   0  0  0  0  0  0  0  0  0  0  0  0
   -1.2292   -1.7382   -0.4633 H   0  0  0  0  0  0  0  0  0  0  0  0
   -1.5345   -1.3951   -2.2489 H   0  0  0  0  0  0  0  0  0  0  0  0
    2.0331    1.5907    0.3138 H   0  0  0  0  0  0  0  0  0  0  0  0
    2.8058    0.5249   -0.8486 H   0  0  0  0  0  0  0  0  0  0  0  0
    1.7856   -0.0791    2.0083 H   0  0  0  0  0  0  0  0  0  0  0  0
    2.4287   -1.3759    0.9732 H   0  0  0  0  0  0  0  0  0  0  0  0
    6.0038    0.8089    2.5674 H   0  0  0  0  0  0  0  0  0  0  0  0
    8.2275    0.5898    1.6200 H   0  0  0  0  0  0  0  0  0  0  0  0
    4.3606   -1.1116   -0.8345 H   0  0  0  0  0  0  0  0  0  0  0  0
   -0.6084    0.5657    1.0102 H   0  0  0  0  0  0  0  0  0  0  0  0
   -0.3136    1.9334   -0.1855 H   0  0  0  0  0  0  0  0  0  0  0  0
   -3.0835    0.3768    1.8884 H   0  0  0  0  0  0  0  0  0  0  0  0
   -2.0340   -0.8917    1.2309 H   0  0  0  0  0  0  0  0  0  0  0  0
   -4.1325   -1.6674    2.1526 H   0  0  0  0  0  0  0  0  0  0  0  0
   -3.9225   -2.1939    0.4645 H   0  0  0  0  0  0  0  0  0  0  0  0
   -5.9837   -0.3202   -1.6864 H   0  0  0  0  0  0  0  0  0  0  0  0
   -5.5808    1.2451   -0.9557 H   0  0  0  0  0  0  0  0  0  0  0  0
   -3.6928    0.3385   -2.2905 H   0  0  0  0  0  0  0  0  0  0  0  0
   -3.7902   -1.2127   -1.3853 H   0  0  0  0  0  0  0  0  0  0  0  0
  1  2  1  0
  2  3  1  0
  3  4  1  0
  4  5  1  0
  5  6  2  0
  5  7  1  0
  7  8  1  0
  8  9  1  0
  9 10  1  0
 10 11  1  0
 11 12  2  0
 12 13  1  0
 13 14  2  0
 14 15  1  0
 14 16  1  0
 16 17  1  0
 16 18  2  0
  7 19  1  0
  2 20  1  0
 20 21  1  0
 21 22  1  0
 22 23  2  0
 22 24  2  0
 22 25  1  0
 25 26  1  0
 26  2  1  0
 19  3  1  0
 18 11  1  0
  1 27  1  0
  1 28  1  0
  1 29  1  0
  3 30  1  6
  4 31  1  0
  4 32  1  0
  8 33  1  0
  8 34  1  0
  9 35  1  0
  9 36  1  0
 12 37  1  0
 13 38  1  0
 18 39  1  0
 19 40  1  0
 19 41  1  0
 20 42  1  0
 20 43  1  0
 21 44  1  0
 21 45  1  0
 25 46  1  0
 25 47  1  0
 26 48  1  0
 26 49  1  0
M  END
$$$$
