
     RDKit          3D

 29 29  0  0  0  0  0  0  0  0999 V2000
   -3.0352   -0.5266    0.1743 C   0  0  1  0  0  0  0  0  0  0  0  0
   -2.9418   -0.5537   -1.2721 N   0  0  0  0  0  0  0  0  0  0  0  0
   -1.8574   -1.2636    0.7767 C   0  0  0  0  0  0  0  0  0  0  0  0
   -0.5664   -0.6747    0.4038 C   0  0  0  0  0  0  0  0  0  0  0  0
    0.0539   -1.1440   -0.7489 C   0  0  0  0  0  0  0  0  0  0  0  0
    1.2699   -0.6550   -1.1852 C   0  0  0  0  0  0  0  0  0  0  0  0
    1.8441    0.3318   -0.4128 C   0  0  0  0  0  0  0  0  0  0  0  0
    3.1557    0.8853   -0.8496 C   0  0  0  0  0  0  0  0  0  0  0  0
    4.2509    0.0579   -0.2131 C   0  0  0  0  0  0  0  0  0  0  0  0
    4.1356    0.1298    1.1578 F   0  0  0  0  0  0  0  0  0  0  0  0
    4.1703   -1.2656   -0.5874 F   0  0  0  0  0  0  0  0  0  0  0  0
    5.4805    0.5213   -0.6102 F   0  0  0  0  0  0  0  0  0  0  0  0
    1.2635    0.8280    0.7398 C   0  0  0  0  0  0  0  0  0  0  0  0
    0.0588    0.3136    1.1332 C   0  0  0  0  0  0  0  0  0  0  0  0
   -3.1116    0.8514    0.6880 C   0  0  0  0  0  0  0  0  0  0  0  0
   -3.1128    2.1037    0.0852 O   0  0  0  0  0  0  0  0  0  0  0  0
   -3.1992    1.1642    1.9044 O   0  0  0  0  0  0  0  0  0  0  0  0
   -3.9452   -1.1044    0.4757 H   0  0  0  0  0  0  0  0  0  0  0  0
   -3.5047    0.2346   -1.7026 H   0  0  0  0  0  0  0  0  0  0  0  0
   -3.2715   -1.4797   -1.6278 H   0  0  0  0  0  0  0  0  0  0  0  0
   -1.9870   -1.2909    1.8792 H   0  0  0  0  0  0  0  0  0  0  0  0
   -1.9081   -2.3116    0.4042 H   0  0  0  0  0  0  0  0  0  0  0  0
   -0.3873   -1.9201   -1.3654 H   0  0  0  0  0  0  0  0  0  0  0  0
    1.7646   -1.0160   -2.0874 H   0  0  0  0  0  0  0  0  0  0  0  0
    3.2229    0.7880   -1.9643 H   0  0  0  0  0  0  0  0  0  0  0  0
    3.2157    1.9312   -0.5364 H   0  0  0  0  0  0  0  0  0  0  0  0
    1.7330    1.6121    1.3418 H   0  0  0  0  0  0  0  0  0  0  0  0
   -0.4312    0.6649    2.0187 H   0  0  0  0  0  0  0  0  0  0  0  0
   -2.3598    2.7881    0.2387 H   0  0  0  0  0  0  0  0  0  0  0  0
  1  2  1  0
  1  3  1  0
  3  4  1  0
  4  5  2  0
  5  6  1  0
  6  7  2  0
  7  8  1  0
  8  9  1  0
  9 10  1  0
  9 11  1  0
  9 12  1  0
  7 13  1  0
 13 14  2  0
  1 15  1  0
 15 16  1  0
 15 17  2  0
 14  4  1  0
  1 18  1  6
  2 19  1  0
  2 20  1  0
  3 21  1  0
  3 22  1  0
  5 23  1  0
  6 24  1  0
  8 25  1  0
  8 26  1  0
 13 27  1  0
 14 28  1  0
 16 29  1  0
M  END
$$$$
