
     RDKit          3D

 36 37  0  0  0  0  0  0  0  0999 V2000
    3.8416    0.8564    1.3885 N   0  0  0  0  0  0  0  0  0  0  0  0
    2.5485    0.3208    0.9453 C   0  0  0  0  0  0  0  0  0  0  0  0
    2.8250   -0.6093   -0.1927 C   0  0  0  0  0  0  0  0  0  0  0  0
    1.5729   -1.2609   -0.7742 C   0  0  2  0  0  0  0  0  0  0  0  0
    2.0291   -2.1437   -1.8850 N   0  0  0  0  0  0  0  0  0  0  0  0
    0.6606   -0.2749   -1.3896 C   0  0  0  0  0  0  0  0  0  0  0  0
    0.9035   -0.0078   -2.6407 O   0  0  0  0  0  0  0  0  0  0  0  0
   -0.4062    0.3658   -0.7379 N   0  0  0  0  0  0  0  0  0  0  0  0
   -1.1904    1.4054   -1.4472 C   0  0  0  0  0  0  0  0  0  0  0  0
   -1.7069    2.2516   -0.2706 C   0  0  0  0  0  0  0  0  0  0  0  0
   -2.1641    1.1033    0.6178 C   0  0  1  0  0  0  0  0  0  0  0  0
   -3.2262    0.2867   -0.0325 C   0  0  0  0  0  0  0  0  0  0  0  0
   -2.7022   -1.1056   -0.2098 C   0  0  0  0  0  0  0  0  0  0  0  0
   -1.5914   -1.1272    0.8538 C   0  0  0  0  0  0  0  0  0  0  0  0
   -0.9313    0.1852    0.5663 C   0  0  1  0  0  0  0  0  0  0  0  0
    4.6389    0.3022    0.9978 H   0  0  0  0  0  0  0  0  0  0  0  0
    3.9757    1.8369    1.0864 H   0  0  0  0  0  0  0  0  0  0  0  0
    2.0451   -0.2383    1.7517 H   0  0  0  0  0  0  0  0  0  0  0  0
    1.9164    1.1771    0.5676 H   0  0  0  0  0  0  0  0  0  0  0  0
    3.4540   -1.4540    0.1729 H   0  0  0  0  0  0  0  0  0  0  0  0
    3.3728   -0.0548   -0.9946 H   0  0  0  0  0  0  0  0  0  0  0  0
    1.1123   -1.8215    0.0086 H   0  0  0  0  0  0  0  0  0  0  0  0
    1.2731   -2.8539   -2.0181 H   0  0  0  0  0  0  0  0  0  0  0  0
    2.8402   -2.6669   -1.4857 H   0  0  0  0  0  0  0  0  0  0  0  0
   -0.5540    2.0562   -2.0408 H   0  0  0  0  0  0  0  0  0  0  0  0
   -1.9952    1.0046   -2.0419 H   0  0  0  0  0  0  0  0  0  0  0  0
   -2.5186    2.9126   -0.5720 H   0  0  0  0  0  0  0  0  0  0  0  0
   -0.8901    2.7764    0.2239 H   0  0  0  0  0  0  0  0  0  0  0  0
   -2.3827    1.4268    1.6431 H   0  0  0  0  0  0  0  0  0  0  0  0
   -4.0935    0.2769    0.6982 H   0  0  0  0  0  0  0  0  0  0  0  0
   -3.6645    0.7182   -0.9504 H   0  0  0  0  0  0  0  0  0  0  0  0
   -3.4459   -1.8964   -0.0283 H   0  0  0  0  0  0  0  0  0  0  0  0
   -2.1847   -1.2035   -1.1822 H   0  0  0  0  0  0  0  0  0  0  0  0
   -1.0001   -2.0216    0.8024 H   0  0  0  0  0  0  0  0  0  0  0  0
   -2.1373   -1.0072    1.8245 H   0  0  0  0  0  0  0  0  0  0  0  0
   -0.2246    0.4846    1.3813 H   0  0  0  0  0  0  0  0  0  0  0  0
  1  2  1  0
  2  3  1  0
  3  4  1  0
  4  5  1  0
  4  6  1  0
  6  7  2  0
  6  8  1  0
  8  9  1  0
  9 10  1  0
 10 11  1  0
 11 12  1  0
 12 13  1  0
 13 14  1  0
 14 15  1  0
 15  8  1  0
 15 11  1  0
  1 16  1  0
  1 17  1  0
  2 18  1  0
  2 19  1  0
  3 20  1  0
  3 21  1  0
  4 22  1  1
  5 23  1  0
  5 24  1  0
  9 25  1  0
  9 26  1  0
 10 27  1  0
 10 28  1  0
 11 29  1  1
 12 30  1  0
 12 31  1  0
 13 32  1  0
 13 33  1  0
 14 34  1  0
 14 35  1  0
 15 36  1  1
M  END
$$$$
