
     RDKit          3D

 50 53  0  0  0  0  0  0  0  0999 V2000
    1.7478   -1.2969    0.3240 C   0  0  2  0  0  0  0  0  0  0  0  0
    3.2379   -1.4444    0.6485 C   0  0  0  0  0  0  0  0  0  0  0  0
    3.9827   -0.2398    0.2686 C   0  0  0  0  0  0  0  0  0  0  0  0
    5.3005    0.0573   -0.0277 C   0  0  0  0  0  0  0  0  0  0  0  0
    5.4512    1.3836   -0.3259 N   0  0  0  0  0  0  0  0  0  0  0  0
    4.2725    1.9968   -0.2406 C   0  0  0  0  0  0  0  0  0  0  0  0
    3.7024    3.2520   -0.3951 C   0  0  0  0  0  0  0  0  0  0  0  0
    2.3337    3.4779   -0.1966 C   0  0  0  0  0  0  0  0  0  0  0  0
    1.4657    2.4603    0.1666 C   0  0  0  0  0  0  0  0  0  0  0  0
    2.0234    1.2020    0.3241 C   0  0  0  0  0  0  0  0  0  0  0  0
    3.3922    0.9981    0.1210 C   0  0  0  0  0  0  0  0  0  0  0  0
    1.2154    0.0270    0.7092 C   0  0  0  0  0  0  0  0  0  0  0  0
    0.1129    0.2798    1.3518 C   0  0  0  0  0  0  0  0  0  0  0  0
   -0.7256   -0.8789    1.7563 C   0  0  2  0  0  0  0  0  0  0  0  0
   -0.3246   -2.1954    1.2503 C   0  0  0  0  0  0  0  0  0  0  0  0
    0.9667   -2.3937    0.7302 N   0  0  0  0  0  0  0  0  0  0  0  0
    1.1276   -3.5857   -0.0624 C   0  0  0  0  0  0  0  0  0  0  0  0
   -2.1808   -0.5773    1.5322 C   0  0  0  0  0  0  0  0  0  0  0  0
   -3.0629   -0.5730    2.4549 O   0  0  0  0  0  0  0  0  0  0  0  0
   -2.6350   -0.2749    0.2264 N   0  0  0  0  0  0  0  0  0  0  0  0
   -3.9258    0.0464   -0.2915 C   0  0  1  0  0  0  0  0  0  0  0  0
   -3.9338    1.4791   -0.7907 C   0  0  0  0  0  0  0  0  0  0  0  0
   -3.6053    2.4241    0.3490 C   0  0  0  0  0  0  0  0  0  0  0  0
   -4.4359   -0.8788   -1.3516 C   0  0  0  0  0  0  0  0  0  0  0  0
   -4.5209   -2.1732   -0.8199 O   0  0  0  0  0  0  0  0  0  0  0  0
    1.7341   -1.2946   -0.8069 H   0  0  0  0  0  0  0  0  0  0  0  0
    3.3985   -1.7656    1.6908 H   0  0  0  0  0  0  0  0  0  0  0  0
    3.5976   -2.2879   -0.0078 H   0  0  0  0  0  0  0  0  0  0  0  0
    6.1372   -0.6604   -0.0305 H   0  0  0  0  0  0  0  0  0  0  0  0
    6.3196    1.9011   -0.5869 H   0  0  0  0  0  0  0  0  0  0  0  0
    4.3904    4.0424   -0.6797 H   0  0  0  0  0  0  0  0  0  0  0  0
    1.9550    4.4644   -0.3304 H   0  0  0  0  0  0  0  0  0  0  0  0
    0.4291    2.6192    0.3173 H   0  0  0  0  0  0  0  0  0  0  0  0
   -0.2496    1.2586    1.6210 H   0  0  0  0  0  0  0  0  0  0  0  0
   -0.6360   -0.9011    2.8829 H   0  0  0  0  0  0  0  0  0  0  0  0
   -1.0450   -2.4499    0.4153 H   0  0  0  0  0  0  0  0  0  0  0  0
   -0.5152   -3.0134    1.9888 H   0  0  0  0  0  0  0  0  0  0  0  0
    0.1644   -4.0905   -0.1579 H   0  0  0  0  0  0  0  0  0  0  0  0
    1.8109   -4.2506    0.5417 H   0  0  0  0  0  0  0  0  0  0  0  0
    1.5897   -3.3964   -1.0427 H   0  0  0  0  0  0  0  0  0  0  0  0
   -2.0084   -0.2459   -0.6199 H   0  0  0  0  0  0  0  0  0  0  0  0
   -4.6550    0.0352    0.5576 H   0  0  0  0  0  0  0  0  0  0  0  0
   -3.1355    1.5774   -1.5464 H   0  0  0  0  0  0  0  0  0  0  0  0
   -4.9162    1.7149   -1.2367 H   0  0  0  0  0  0  0  0  0  0  0  0
   -4.1071    2.1175    1.3070 H   0  0  0  0  0  0  0  0  0  0  0  0
   -3.9525    3.4376    0.0516 H   0  0  0  0  0  0  0  0  0  0  0  0
   -2.5320    2.4186    0.5726 H   0  0  0  0  0  0  0  0  0  0  0  0
   -3.8792   -0.8421   -2.2862 H   0  0  0  0  0  0  0  0  0  0  0  0
   -5.4828   -0.5841   -1.5693 H   0  0  0  0  0  0  0  0  0  0  0  0
   -5.3939   -2.3765   -0.4315 H   0  0  0  0  0  0  0  0  0  0  0  0
  1  2  1  0
  2  3  1  0
  3  4  2  0
  4  5  1  0
  5  6  1  0
  6  7  2  0
  7  8  1  0
  8  9  2  0
  9 10  1  0
 10 11  2  0
 10 12  1  0
 12 13  2  0
 13 14  1  0
 14 15  1  0
 15 16  1  0
 16 17  1  0
 14 18  1  0
 18 19  2  0
 18 20  1  0
 20 21  1  0
 21 22  1  0
 22 23  1  0
 21 24  1  0
 24 25  1  0
 12  1  1  0
 16  1  1  0
 11  3  1  0
 11  6  1  0
  1 26  1  6
  2 27  1  0
  2 28  1  0
  4 29  1  0
  5 30  1  0
  7 31  1  0
  8 32  1  0
  9 33  1  0
 13 34  1  0
 14 35  1  1
 15 36  1  0
 15 37  1  0
 17 38  1  0
 17 39  1  0
 17 40  1  0
 20 41  1  0
 21 42  1  1
 22 43  1  0
 22 44  1  0
 23 45  1  0
 23 46  1  0
 23 47  1  0
 24 48  1  0
 24 49  1  0
 25 50  1  0
M  END
$$$$
