
     RDKit          3D

 38 39  0  0  0  0  0  0  0  0999 V2000
    4.6511    1.7247   -1.0758 C   0  0  0  0  0  0  0  0  0  0  0  0
    4.2519    0.7282   -0.1666 O   0  0  0  0  0  0  0  0  0  0  0  0
    2.9285    0.2992   -0.0913 C   0  0  0  0  0  0  0  0  0  0  0  0
    1.9364    0.8002   -0.8756 C   0  0  0  0  0  0  0  0  0  0  0  0
    0.6383    0.3557   -0.7777 C   0  0  0  0  0  0  0  0  0  0  0  0
    0.3394   -0.6199    0.1373 C   0  0  0  0  0  0  0  0  0  0  0  0
   -0.9770   -1.0499    0.2128 C   0  0  0  0  0  0  0  0  0  0  0  0
   -1.9713   -0.4608   -0.6620 C   0  0  0  0  0  0  0  0  0  0  0  0
   -2.3492   -1.2830   -2.0206 S   0  0  0  0  0  0  0  0  0  0  0  0
   -2.6058    0.7753   -0.3786 N   0  0  0  0  0  0  0  0  0  0  0  0
   -2.3164    1.5534    0.8014 C   0  0  0  0  0  0  0  0  0  0  0  0
   -3.5962    1.3018   -1.2969 C   0  0  0  0  0  0  0  0  0  0  0  0
   -4.7919    0.4269   -1.2567 C   0  0  0  0  0  0  0  0  0  0  0  0
   -4.8250   -0.5724   -0.5095 O   0  0  0  0  0  0  0  0  0  0  0  0
   -5.9182    0.6764   -2.0399 O   0  0  0  0  0  0  0  0  0  0  0  0
   -1.2934   -2.0316    1.1262 C   0  0  0  0  0  0  0  0  0  0  0  0
   -0.3277   -2.5732    1.9442 C   0  0  0  0  0  0  0  0  0  0  0  0
    0.9900   -2.1272    1.8529 C   0  0  0  0  0  0  0  0  0  0  0  0
    1.3557   -1.1425    0.9503 C   0  0  0  0  0  0  0  0  0  0  0  0
    2.6537   -0.6990    0.8536 C   0  0  0  0  0  0  0  0  0  0  0  0
    3.7611   -1.2012    1.6692 C   0  0  0  0  0  0  0  0  0  0  0  0
    4.7303   -1.7692    0.7993 F   0  0  0  0  0  0  0  0  0  0  0  0
    4.3731   -0.0466    2.2412 F   0  0  0  0  0  0  0  0  0  0  0  0
    3.5620   -2.1028    2.6300 F   0  0  0  0  0  0  0  0  0  0  0  0
    4.2331    2.6951   -0.7298 H   0  0  0  0  0  0  0  0  0  0  0  0
    5.7542    1.8383   -1.0782 H   0  0  0  0  0  0  0  0  0  0  0  0
    4.3435    1.5357   -2.1211 H   0  0  0  0  0  0  0  0  0  0  0  0
    2.1682    1.5728   -1.6008 H   0  0  0  0  0  0  0  0  0  0  0  0
   -0.1609    0.7460   -1.3963 H   0  0  0  0  0  0  0  0  0  0  0  0
   -2.1635    2.6101    0.4683 H   0  0  0  0  0  0  0  0  0  0  0  0
   -3.2249    1.5436    1.4479 H   0  0  0  0  0  0  0  0  0  0  0  0
   -1.4012    1.2515    1.3209 H   0  0  0  0  0  0  0  0  0  0  0  0
   -3.1852    1.2504   -2.3251 H   0  0  0  0  0  0  0  0  0  0  0  0
   -3.8456    2.3563   -1.0798 H   0  0  0  0  0  0  0  0  0  0  0  0
   -6.5085   -0.1101   -2.2695 H   0  0  0  0  0  0  0  0  0  0  0  0
   -2.3328   -2.3393    1.1526 H   0  0  0  0  0  0  0  0  0  0  0  0
   -0.5824   -3.3430    2.6586 H   0  0  0  0  0  0  0  0  0  0  0  0
    1.7067   -2.5696    2.4978 H   0  0  0  0  0  0  0  0  0  0  0  0
  1  2  1  0
  2  3  1  0
  3  4  2  0
  4  5  1  0
  5  6  2  0
  6  7  1  0
  7  8  1  0
  8  9  2  0
  8 10  1  0
 10 11  1  0
 10 12  1  0
 12 13  1  0
 13 14  2  0
 13 15  1  0
  7 16  2  0
 16 17  1  0
 17 18  2  0
 18 19  1  0
 19 20  2  0
 20 21  1  0
 21 22  1  0
 21 23  1  0
 21 24  1  0
 20  3  1  0
 19  6  1  0
  1 25  1  0
  1 26  1  0
  1 27  1  0
  4 28  1  0
  5 29  1  0
 11 30  1  0
 11 31  1  0
 11 32  1  0
 12 33  1  0
 12 34  1  0
 15 35  1  0
 16 36  1  0
 17 37  1  0
 18 38  1  0
M  END
$$$$
