
     RDKit          3D

 53 58  0  0  0  0  0  0  0  0999 V2000
    3.6991    2.9442    1.0670 Cl  0  0  0  0  0  0  0  0  0  0  0  0
    3.1430    1.3522    0.5546 C   0  0  0  0  0  0  0  0  0  0  0  0
    1.7826    1.1153    0.4024 C   0  0  0  0  0  0  0  0  0  0  0  0
    1.3030   -0.1133    0.0044 C   0  0  0  0  0  0  0  0  0  0  0  0
   -0.1174   -0.3781   -0.1598 C   0  0  0  0  0  0  0  0  0  0  0  0
   -0.9404    0.6438   -0.5663 C   0  0  0  0  0  0  0  0  0  0  0  0
   -2.2515    0.3974   -0.7167 N   0  0  0  0  0  0  0  0  0  0  0  0
   -2.7639   -0.8343   -0.4743 C   0  0  0  0  0  0  0  0  0  0  0  0
   -4.0616   -1.2892   -0.5673 C   0  0  0  0  0  0  0  0  0  0  0  0
   -5.2236   -0.4705   -0.9774 C   0  0  0  0  0  0  0  0  0  0  0  0
   -5.6077   -0.3651   -2.2997 C   0  0  0  0  0  0  0  0  0  0  0  0
   -6.6928    0.4060   -2.6604 C   0  0  0  0  0  0  0  0  0  0  0  0
   -7.4362    1.0991   -1.7296 C   0  0  0  0  0  0  0  0  0  0  0  0
   -7.0582    0.9982   -0.4063 C   0  0  0  0  0  0  0  0  0  0  0  0
   -7.7736    1.6707    0.5291 N   0  0  0  0  0  0  0  0  0  0  0  0
   -7.4307    1.5932    1.8299 C   0  0  0  0  0  0  0  0  0  0  0  0
   -6.3450    0.8252    2.2156 C   0  0  0  0  0  0  0  0  0  0  0  0
   -5.5970    0.1293    1.2893 C   0  0  0  0  0  0  0  0  0  0  0  0
   -5.9594    0.2178   -0.0391 C   0  0  0  0  0  0  0  0  0  0  0  0
   -4.0459   -2.6084   -0.2147 C   0  0  0  0  0  0  0  0  0  0  0  0
   -2.7729   -2.9190    0.0773 N   0  0  0  0  0  0  0  0  0  0  0  0
   -1.9979   -1.8611   -0.0758 N   0  0  0  0  0  0  0  0  0  0  0  0
   -0.6858   -1.6066    0.0726 C   0  0  0  0  0  0  0  0  0  0  0  0
    2.2076   -1.1217   -0.2451 C   0  0  0  0  0  0  0  0  0  0  0  0
    3.5584   -0.8830   -0.0929 C   0  0  0  0  0  0  0  0  0  0  0  0
    4.0491    0.3461    0.3059 C   0  0  0  0  0  0  0  0  0  0  0  0
    5.4408    0.5295    0.4431 N   0  0  0  0  0  0  0  0  0  0  0  0
    6.1890    1.5137   -0.3333 C   0  0  0  0  0  0  0  0  0  0  0  0
    7.4870    0.8652   -0.7543 C   0  0  0  0  0  0  0  0  0  0  0  0
    7.4550   -0.5659   -0.7026 N   0  0  0  0  0  0  0  0  0  0  0  0
    7.2144   -1.1130    0.5948 C   0  0  0  0  0  0  0  0  0  0  0  0
    6.2345   -0.2636    1.3843 C   0  0  0  0  0  0  0  0  0  0  0  0
    1.0902    1.9242    0.6046 H   0  0  0  0  0  0  0  0  0  0  0  0
   -0.5401    1.6320   -0.7626 H   0  0  0  0  0  0  0  0  0  0  0  0
   -5.0203   -0.9103   -3.0184 H   0  0  0  0  0  0  0  0  0  0  0  0
   -7.0006    0.4937   -3.6975 H   0  0  0  0  0  0  0  0  0  0  0  0
   -8.2931    1.7116   -1.9901 H   0  0  0  0  0  0  0  0  0  0  0  0
   -7.9858    2.1184    2.5788 H   0  0  0  0  0  0  0  0  0  0  0  0
   -6.0322    0.7334    3.2530 H   0  0  0  0  0  0  0  0  0  0  0  0
   -4.7493   -0.4709    1.5885 H   0  0  0  0  0  0  0  0  0  0  0  0
   -4.8978   -3.2694   -0.1795 H   0  0  0  0  0  0  0  0  0  0  0  0
   -0.0066   -2.4040    0.3955 H   0  0  0  0  0  0  0  0  0  0  0  0
    1.8161   -2.0791   -0.5568 H   0  0  0  0  0  0  0  0  0  0  0  0
    4.2192   -1.7121   -0.3029 H   0  0  0  0  0  0  0  0  0  0  0  0
    6.4050    2.4110    0.2810 H   0  0  0  0  0  0  0  0  0  0  0  0
    5.6112    1.8468   -1.2221 H   0  0  0  0  0  0  0  0  0  0  0  0
    7.6599    1.1367   -1.8361 H   0  0  0  0  0  0  0  0  0  0  0  0
    8.3231    1.2936   -0.2013 H   0  0  0  0  0  0  0  0  0  0  0  0
    6.9158   -0.9888   -1.4699 H   0  0  0  0  0  0  0  0  0  0  0  0
    6.8473   -2.1608    0.4897 H   0  0  0  0  0  0  0  0  0  0  0  0
    8.1852   -1.1497    1.1582 H   0  0  0  0  0  0  0  0  0  0  0  0
    5.6050   -0.8892    2.0263 H   0  0  0  0  0  0  0  0  0  0  0  0
    6.8459    0.4787    1.9663 H   0  0  0  0  0  0  0  0  0  0  0  0
  1  2  1  0
  2  3  2  0
  3  4  1  0
  4  5  1  0
  5  6  1  0
  6  7  2  0
  7  8  1  0
  8  9  2  0
  9 10  1  0
 10 11  2  0
 11 12  1  0
 12 13  2  0
 13 14  1  0
 14 15  2  0
 15 16  1  0
 16 17  2  0
 17 18  1  0
 18 19  2  0
  9 20  1  0
 20 21  2  0
 21 22  1  0
 22 23  1  0
  4 24  2  0
 24 25  1  0
 25 26  2  0
 26 27  1  0
 27 28  1  0
 28 29  1  0
 29 30  1  0
 30 31  1  0
 31 32  1  0
 26  2  1  0
 32 27  1  0
 23  5  2  0
 22  8  1  0
 19 10  1  0
 19 14  1  0
  3 33  1  0
  6 34  1  0
 11 35  1  0
 12 36  1  0
 13 37  1  0
 16 38  1  0
 17 39  1  0
 18 40  1  0
 20 41  1  0
 23 42  1  0
 24 43  1  0
 25 44  1  0
 28 45  1  0
 28 46  1  0
 29 47  1  0
 29 48  1  0
 30 49  1  0
 31 50  1  0
 31 51  1  0
 32 52  1  0
 32 53  1  0
M  END
$$$$
