
     RDKit          3D

 60 62  0  0  0  0  0  0  0  0999 V2000
   -0.5184   -0.7296   -3.4979 C   0  0  0  0  0  0  0  0  0  0  0  0
    0.0544    0.3257   -2.5804 C   0  0  0  0  0  0  0  0  0  0  0  0
   -0.4601    0.1889   -1.1847 C   0  0  0  0  0  0  0  0  0  0  0  0
   -1.4185    1.0607   -0.7219 C   0  0  0  0  0  0  0  0  0  0  0  0
   -1.9544    0.9895    0.5583 C   0  0  0  0  0  0  0  0  0  0  0  0
   -2.9879    1.9637    1.0035 C   0  0  0  0  0  0  0  0  0  0  0  0
   -4.3480    1.6301    0.5673 C   0  0  0  0  0  0  0  0  0  0  0  0
   -4.8877    2.3014   -0.5298 C   0  0  0  0  0  0  0  0  0  0  0  0
   -6.1221    1.9670   -0.9137 N   0  0  0  0  0  0  0  0  0  0  0  0
   -6.8797    1.0330   -0.3206 C   0  0  0  0  0  0  0  0  0  0  0  0
   -8.2054    0.7367   -0.8051 N   0  0  0  0  0  0  0  0  0  0  0  0
   -6.3576    0.3924    0.7316 N   0  0  0  0  0  0  0  0  0  0  0  0
   -5.1192    0.6733    1.1788 C   0  0  0  0  0  0  0  0  0  0  0  0
   -4.6500   -0.0576    2.3247 N   0  0  0  0  0  0  0  0  0  0  0  0
   -1.5202    0.0113    1.4166 C   0  0  0  0  0  0  0  0  0  0  0  0
   -0.5629   -0.8769    0.9838 C   0  0  0  0  0  0  0  0  0  0  0  0
   -0.1619   -1.9381    1.9368 C   0  0  0  0  0  0  0  0  0  0  0  0
   -0.8474   -3.2147    1.4342 C   0  0  0  0  0  0  0  0  0  0  0  0
   -0.0208   -0.8077   -0.3041 C   0  0  0  0  0  0  0  0  0  0  0  0
    0.9169   -1.6625   -0.7653 O   0  0  0  0  0  0  0  0  0  0  0  0
    2.2744   -1.7207   -0.8528 C   0  0  0  0  0  0  0  0  0  0  0  0
    3.0934   -1.6607    0.3996 C   0  0  0  0  0  0  0  0  0  0  0  0
    2.9552   -0.5434    1.1616 O   0  0  0  0  0  0  0  0  0  0  0  0
    3.3552    0.6530    0.6581 C   0  0  0  0  0  0  0  0  0  0  0  0
    4.7898    0.7968    0.3750 C   0  0  0  0  0  0  0  0  0  0  0  0
    5.6635    1.2230    1.3721 C   0  0  0  0  0  0  0  0  0  0  0  0
    6.9881    1.3468    1.0678 C   0  0  0  0  0  0  0  0  0  0  0  0
    7.5077    1.0723   -0.1743 C   0  0  0  0  0  0  0  0  0  0  0  0
    6.6435    0.6518   -1.1578 C   0  0  0  0  0  0  0  0  0  0  0  0
    5.2759    0.5145   -0.8768 C   0  0  0  0  0  0  0  0  0  0  0  0
   -0.7575   -0.3261   -4.5034 H   0  0  0  0  0  0  0  0  0  0  0  0
    0.2230   -1.5436   -3.5820 H   0  0  0  0  0  0  0  0  0  0  0  0
   -1.4364   -1.1567   -3.0446 H   0  0  0  0  0  0  0  0  0  0  0  0
    1.1483    0.2911   -2.6649 H   0  0  0  0  0  0  0  0  0  0  0  0
   -0.2933    1.3021   -3.0172 H   0  0  0  0  0  0  0  0  0  0  0  0
   -1.7678    1.8407   -1.4002 H   0  0  0  0  0  0  0  0  0  0  0  0
   -2.6995    2.9663    0.5857 H   0  0  0  0  0  0  0  0  0  0  0  0
   -2.8931    2.0555    2.1062 H   0  0  0  0  0  0  0  0  0  0  0  0
   -4.3251    3.0752   -1.0621 H   0  0  0  0  0  0  0  0  0  0  0  0
   -9.0351    1.0903   -0.2863 H   0  0  0  0  0  0  0  0  0  0  0  0
   -8.3367    0.1753   -1.6638 H   0  0  0  0  0  0  0  0  0  0  0  0
   -4.8240   -1.0830    2.3278 H   0  0  0  0  0  0  0  0  0  0  0  0
   -4.1664    0.3827    3.1120 H   0  0  0  0  0  0  0  0  0  0  0  0
   -1.9124   -0.0733    2.4421 H   0  0  0  0  0  0  0  0  0  0  0  0
   -0.6231   -1.7375    2.9366 H   0  0  0  0  0  0  0  0  0  0  0  0
    0.8986   -2.0585    2.1070 H   0  0  0  0  0  0  0  0  0  0  0  0
   -0.1258   -4.0562    1.6089 H   0  0  0  0  0  0  0  0  0  0  0  0
   -1.1249   -3.1349    0.3750 H   0  0  0  0  0  0  0  0  0  0  0  0
   -1.7635   -3.4328    2.0130 H   0  0  0  0  0  0  0  0  0  0  0  0
    2.5224   -2.7685   -1.2822 H   0  0  0  0  0  0  0  0  0  0  0  0
    2.6793   -1.0654   -1.6562 H   0  0  0  0  0  0  0  0  0  0  0  0
    2.8662   -2.5575    1.0100 H   0  0  0  0  0  0  0  0  0  0  0  0
    4.1856   -1.8337    0.1095 H   0  0  0  0  0  0  0  0  0  0  0  0
    3.0917    1.4352    1.4197 H   0  0  0  0  0  0  0  0  0  0  0  0
    2.8151    0.9713   -0.2578 H   0  0  0  0  0  0  0  0  0  0  0  0
    5.3019    1.4545    2.3757 H   0  0  0  0  0  0  0  0  0  0  0  0
    7.6743    1.6801    1.8438 H   0  0  0  0  0  0  0  0  0  0  0  0
    8.5750    1.1813   -0.3861 H   0  0  0  0  0  0  0  0  0  0  0  0
    6.9785    0.4171   -2.1617 H   0  0  0  0  0  0  0  0  0  0  0  0
    4.6292    0.1886   -1.6742 H   0  0  0  0  0  0  0  0  0  0  0  0
  1  2  1  0
  2  3  1  0
  3  4  2  0
  4  5  1  0
  5  6  1  0
  6  7  1  0
  7  8  2  0
  8  9  1  0
  9 10  2  0
 10 11  1  0
 10 12  1  0
 12 13  2  0
 13 14  1  0
  5 15  2  0
 15 16  1  0
 16 17  1  0
 17 18  1  0
 16 19  2  0
 19 20  1  0
 20 21  1  0
 21 22  1  0
 22 23  1  0
 23 24  1  0
 24 25  1  0
 25 26  2  0
 26 27  1  0
 27 28  2  0
 28 29  1  0
 29 30  2  0
 19  3  1  0
 30 25  1  0
 13  7  1  0
  1 31  1  0
  1 32  1  0
  1 33  1  0
  2 34  1  0
  2 35  1  0
  4 36  1  0
  6 37  1  0
  6 38  1  0
  8 39  1  0
 11 40  1  0
 11 41  1  0
 14 42  1  0
 14 43  1  0
 15 44  1  0
 17 45  1  0
 17 46  1  0
 18 47  1  0
 18 48  1  0
 18 49  1  0
 21 50  1  0
 21 51  1  0
 22 52  1  0
 22 53  1  0
 24 54  1  0
 24 55  1  0
 26 56  1  0
 27 57  1  0
 28 58  1  0
 29 59  1  0
 30 60  1  0
M  END
$$$$
