
     RDKit          3D

 96102  0  0  0  0  0  0  0  0999 V2000
  -10.5497    2.4680   -0.3893 N   0  0  0  0  0  0  0  0  0  0  0  0
   -9.4992    1.5452   -0.6247 C   0  0  0  0  0  0  0  0  0  0  0  0
   -9.8139    0.3346   -1.2000 C   0  0  0  0  0  0  0  0  0  0  0  0
   -8.8497   -0.6330   -1.4728 C   0  0  0  0  0  0  0  0  0  0  0  0
   -7.5444   -0.3589   -1.1527 C   0  0  0  0  0  0  0  0  0  0  0  0
   -6.5727   -1.2996   -1.4129 C   0  0  0  0  0  0  0  0  0  0  0  0
   -6.8296   -2.5136   -1.9815 C   0  0  0  0  0  0  0  0  0  0  0  0
   -5.7875   -3.3872   -2.2022 C   0  0  0  0  0  0  0  0  0  0  0  0
   -4.4878   -3.1021   -1.8787 C   0  0  0  0  0  0  0  0  0  0  0  0
   -3.5224   -3.9612   -2.1083 N   0  0  0  0  0  4  0  0  0  0  0  0
   -4.1740   -1.8947   -1.3037 C   0  0  0  0  0  0  0  0  0  0  0  0
   -5.1617   -0.9745   -1.0545 C   0  0  0  0  0  0  0  0  0  0  0  0
   -4.9168    0.2328   -0.4912 N   0  0  0  0  0  0  0  0  0  0  0  0
   -3.5401    0.5771   -0.1516 C   0  0  0  0  0  0  0  0  0  0  0  0
   -3.1451    0.1033    1.1782 C   0  0  0  0  0  0  0  0  0  0  0  0
   -1.7872    0.4275    1.6921 C   0  0  0  0  0  0  0  0  0  0  0  0
   -0.6758    0.0209    0.9125 N   0  0  0  0  0  0  0  0  0  0  0  0
   -0.3510    0.8725   -0.1726 C   0  0  0  0  0  0  0  0  0  0  0  0
    0.6807    0.2143   -1.0728 C   0  0  0  0  0  0  0  0  0  0  0  0
    1.9690   -0.1046   -0.3584 C   0  0  0  0  0  0  0  0  0  0  0  0
    1.7727   -0.9970    0.7532 N   0  0  0  0  0  0  0  0  0  0  0  0
    3.0744   -1.3004    1.3911 C   0  0  0  0  0  0  0  0  0  0  0  0
    3.9228   -2.1835    0.5580 C   0  0  0  0  0  0  0  0  0  0  0  0
    5.2110   -2.6596    1.0566 C   0  0  0  0  0  0  0  0  0  0  0  0
    6.3259   -1.8785    1.3573 N   0  0  0  0  0  0  0  0  0  0  0  0
    6.9462   -0.8318    0.6386 C   0  0  0  0  0  0  0  0  0  0  0  0
    7.8043   -1.1068   -0.4444 C   0  0  0  0  0  0  0  0  0  0  0  0
    8.4554   -0.0641   -1.0812 C   0  0  0  0  0  0  0  0  0  0  0  0
    8.2826    1.2032   -0.6867 N   0  0  0  0  0  0  0  0  0  0  0  0
    7.4682    1.4816    0.3463 C   0  0  0  0  0  0  0  0  0  0  0  0
    7.3341    2.7738    0.7584 C   0  0  0  0  0  0  0  0  0  0  0  0
    6.5346    3.0720    1.8406 C   0  0  0  0  0  0  0  0  0  0  0  0
    5.8520    2.1030    2.5378 C   0  0  0  0  0  0  0  0  0  0  0  0
    5.9995    0.7982    2.1040 C   0  0  0  0  0  0  0  0  0  0  0  0
    6.7888    0.4706    1.0253 C   0  0  0  0  0  0  0  0  0  0  0  0
    9.4082   -0.3086   -2.2148 C   0  0  0  0  0  0  0  0  0  0  0  0
   10.0024   -1.6900   -1.8916 C   0  0  0  0  0  0  0  0  0  0  0  0
    8.8777   -2.6880   -1.9709 C   0  0  0  0  0  0  0  0  0  0  0  0
    7.9229   -2.5292   -0.8349 C   0  0  0  0  0  0  0  0  0  0  0  0
   -5.8717    1.1153   -0.2542 C   0  0  0  0  0  0  0  0  0  0  0  0
   -5.5650    2.4032    0.3179 C   0  0  0  0  0  0  0  0  0  0  0  0
   -5.6569    2.5716    1.6777 C   0  0  0  0  0  0  0  0  0  0  0  0
   -5.3859    3.7745    2.3019 C   0  0  0  0  0  0  0  0  0  0  0  0
   -5.0092    4.8522    1.5476 C   0  0  0  0  0  0  0  0  0  0  0  0
   -4.9123    4.6932    0.1673 C   0  0  0  0  0  0  0  0  0  0  0  0
   -5.1858    3.4860   -0.4401 C   0  0  0  0  0  0  0  0  0  0  0  0
   -7.1841    0.8504   -0.5709 C   0  0  0  0  0  0  0  0  0  0  0  0
   -8.1733    1.7697   -0.3226 C   0  0  0  0  0  0  0  0  0  0  0  0
  -11.1812    2.6693   -1.2214 H   0  0  0  0  0  0  0  0  0  0  0  0
  -10.7526    2.9495    0.4902 H   0  0  0  0  0  0  0  0  0  0  0  0
  -10.8461    0.0924   -1.4647 H   0  0  0  0  0  0  0  0  0  0  0  0
   -9.1572   -1.5512   -1.9210 H   0  0  0  0  0  0  0  0  0  0  0  0
   -7.8338   -2.7810   -2.2530 H   0  0  0  0  0  0  0  0  0  0  0  0
   -5.9847   -4.3446   -2.6516 H   0  0  0  0  0  0  0  0  0  0  0  0
   -2.5497   -3.7099   -1.8487 H   0  0  0  0  0  0  0  0  0  0  0  0
   -3.6842   -4.8845   -2.5386 H   0  0  0  0  0  0  0  0  0  0  0  0
   -3.1565   -1.6453   -1.0364 H   0  0  0  0  0  0  0  0  0  0  0  0
   -3.4499    1.6967   -0.1973 H   0  0  0  0  0  0  0  0  0  0  0  0
   -2.8673    0.1964   -0.9529 H   0  0  0  0  0  0  0  0  0  0  0  0
   -3.1966   -1.0463    1.2142 H   0  0  0  0  0  0  0  0  0  0  0  0
   -3.9064    0.3566    1.9768 H   0  0  0  0  0  0  0  0  0  0  0  0
   -1.6798    0.1239    2.7771 H   0  0  0  0  0  0  0  0  0  0  0  0
   -1.7080    1.5701    1.7540 H   0  0  0  0  0  0  0  0  0  0  0  0
   -0.7069   -0.9993    0.6499 H   0  0  0  0  0  0  0  0  0  0  0  0
   -1.1351    1.3647   -0.7333 H   0  0  0  0  0  0  0  0  0  0  0  0
    0.2422    1.7620    0.2790 H   0  0  0  0  0  0  0  0  0  0  0  0
    0.2607   -0.6506   -1.6122 H   0  0  0  0  0  0  0  0  0  0  0  0
    0.9414    0.9962   -1.8373 H   0  0  0  0  0  0  0  0  0  0  0  0
    2.4374    0.8617   -0.0305 H   0  0  0  0  0  0  0  0  0  0  0  0
    2.6598   -0.5620   -1.0886 H   0  0  0  0  0  0  0  0  0  0  0  0
    1.4358   -1.9560    0.4112 H   0  0  0  0  0  0  0  0  0  0  0  0
    3.5663   -0.2865    1.4538 H   0  0  0  0  0  0  0  0  0  0  0  0
    2.9064   -1.6627    2.4150 H   0  0  0  0  0  0  0  0  0  0  0  0
    3.2901   -3.1247    0.3682 H   0  0  0  0  0  0  0  0  0  0  0  0
    4.0199   -1.7830   -0.5110 H   0  0  0  0  0  0  0  0  0  0  0  0
    5.5718   -3.5868    0.4772 H   0  0  0  0  0  0  0  0  0  0  0  0
    4.9299   -3.1837    2.0782 H   0  0  0  0  0  0  0  0  0  0  0  0
    6.8292   -2.0790    2.2874 H   0  0  0  0  0  0  0  0  0  0  0  0
    7.8532    3.6005    0.2435 H   0  0  0  0  0  0  0  0  0  0  0  0
    6.4419    4.1208    2.1544 H   0  0  0  0  0  0  0  0  0  0  0  0
    5.2152    2.3105    3.3965 H   0  0  0  0  0  0  0  0  0  0  0  0
    5.5016   -0.0051    2.6352 H   0  0  0  0  0  0  0  0  0  0  0  0
    8.9498   -0.2551   -3.1981 H   0  0  0  0  0  0  0  0  0  0  0  0
   10.2222    0.4332   -2.1042 H   0  0  0  0  0  0  0  0  0  0  0  0
   10.3677   -1.6170   -0.8485 H   0  0  0  0  0  0  0  0  0  0  0  0
   10.8332   -1.9248   -2.5748 H   0  0  0  0  0  0  0  0  0  0  0  0
    9.2722   -3.7296   -2.0458 H   0  0  0  0  0  0  0  0  0  0  0  0
    8.3069   -2.5043   -2.9334 H   0  0  0  0  0  0  0  0  0  0  0  0
    6.9176   -2.8951   -1.2383 H   0  0  0  0  0  0  0  0  0  0  0  0
    8.1659   -3.1623    0.0438 H   0  0  0  0  0  0  0  0  0  0  0  0
   -5.9506    1.7549    2.3261 H   0  0  0  0  0  0  0  0  0  0  0  0
   -5.4697    3.8680    3.3805 H   0  0  0  0  0  0  0  0  0  0  0  0
   -4.7948    5.7946    2.0164 H   0  0  0  0  0  0  0  0  0  0  0  0
   -4.6124    5.5695   -0.3932 H   0  0  0  0  0  0  0  0  0  0  0  0
   -5.0981    3.3962   -1.5211 H   0  0  0  0  0  0  0  0  0  0  0  0
   -7.8973    2.6947    0.1228 H   0  0  0  0  0  0  0  0  0  0  0  0
  1  2  1  0
  2  3  1  0
  3  4  2  0
  4  5  1  0
  5  6  2  0
  6  7  1  0
  7  8  2  0
  8  9  1  0
  9 10  2  3
  9 11  1  0
 11 12  2  0
 12 13  1  0
 13 14  1  0
 14 15  1  0
 15 16  1  0
 16 17  1  0
 17 18  1  0
 18 19  1  0
 19 20  1  0
 20 21  1  0
 21 22  1  0
 22 23  1  0
 23 24  1  0
 24 25  1  0
 25 26  1  0
 26 27  2  0
 27 28  1  0
 28 29  2  0
 29 30  1  0
 30 31  2  0
 31 32  1  0
 32 33  2  0
 33 34  1  0
 34 35  2  0
 28 36  1  0
 36 37  1  0
 37 38  1  0
 38 39  1  0
 13 40  1  0
 40 41  1  0
 41 42  2  0
 42 43  1  0
 43 44  2  0
 44 45  1  0
 45 46  2  0
 40 47  2  0
 47 48  1  0
 48  2  2  0
 47  5  1  0
 12  6  1  0
 35 26  1  0
 46 41  1  0
 39 27  1  0
 35 30  1  0
  1 49  1  0
  1 50  1  0
  3 51  1  0
  4 52  1  0
  7 53  1  0
  8 54  1  0
 10 55  1  0
 10 56  1  0
 11 57  1  0
 14 58  1  0
 14 59  1  0
 15 60  1  0
 15 61  1  0
 16 62  1  0
 16 63  1  0
 17 64  1  0
 18 65  1  0
 18 66  1  0
 19 67  1  0
 19 68  1  0
 20 69  1  0
 20 70  1  0
 21 71  1  0
 22 72  1  0
 22 73  1  0
 23 74  1  0
 23 75  1  0
 24 76  1  0
 24 77  1  0
 25 78  1  0
 31 79  1  0
 32 80  1  0
 33 81  1  0
 34 82  1  0
 36 83  1  0
 36 84  1  0
 37 85  1  0
 37 86  1  0
 38 87  1  0
 38 88  1  0
 39 89  1  0
 39 90  1  0
 42 91  1  0
 43 92  1  0
 44 93  1  0
 45 94  1  0
 46 95  1  0
 48 96  1  0
M  CHG  1  10   1
M  END
$$$$
