
     RDKit          3D

 87 91  0  0  0  0  0  0  0  0999 V2000
   -0.4902   -0.5603    1.5342 C   0  0  1  0  0  0  0  0  0  0  0  0
    0.9482   -0.7939    2.0212 C   0  0  0  0  0  0  0  0  0  0  0  0
    1.9184   -0.5485    0.8878 C   0  0  1  0  0  0  0  0  0  0  0  0
    1.4398   -1.2009   -0.2619 O   0  0  0  0  0  0  0  0  0  0  0  0
    1.9771    0.9226    0.5107 C   0  0  0  0  0  0  0  0  0  0  0  0
    0.5695    1.3968    0.4711 C   0  0  0  0  0  0  0  0  0  0  0  0
    0.4932    2.6659   -0.1163 C   0  0  0  0  0  0  0  0  0  0  0  0
    1.5839    3.4044   -0.6086 O   0  0  0  0  0  0  0  0  0  0  0  0
   -0.7186    3.3288   -0.2674 C   0  0  0  0  0  0  0  0  0  0  0  0
   -1.8640    2.7037    0.1788 C   0  0  0  0  0  0  0  0  0  0  0  0
   -1.7925    1.4531    0.7579 C   0  0  0  0  0  0  0  0  0  0  0  0
   -2.9397    0.8420    1.1979 O   0  0  0  0  0  0  0  0  0  0  0  0
   -0.5913    0.7948    0.9083 C   0  0  0  0  0  0  0  0  0  0  0  0
   -3.1814    3.3270    0.0609 C   0  0  0  0  0  0  0  0  0  0  0  0
   -4.2657    2.8105    0.4481 O   0  0  0  0  0  0  0  0  0  0  0  0
   -3.3203    4.6642   -0.5496 C   0  0  0  0  0  0  0  0  0  0  0  0
   -4.5328    5.3277   -0.6998 C   0  0  0  0  0  0  0  0  0  0  0  0
   -5.6396    4.6292   -0.2241 O   0  0  0  0  0  0  0  0  0  0  0  0
   -6.8928    5.2867   -0.3655 C   0  0  0  0  0  0  0  0  0  0  0  0
   -4.5710    6.5767   -1.2815 C   0  0  0  0  0  0  0  0  0  0  0  0
   -3.4004    7.1725   -1.7173 C   0  0  0  0  0  0  0  0  0  0  0  0
   -2.1792    6.5111   -1.5694 C   0  0  0  0  0  0  0  0  0  0  0  0
   -2.1612    5.2636   -0.9857 C   0  0  0  0  0  0  0  0  0  0  0  0
   -0.8479    4.6411   -0.8673 C   0  0  0  0  0  0  0  0  0  0  0  0
    0.1916    5.2142   -1.2750 O   0  0  0  0  0  0  0  0  0  0  0  0
    3.2416   -1.0949    1.2015 C   0  0  0  0  0  0  0  0  0  0  0  0
    3.5468   -0.4493    2.2137 O   0  0  0  0  0  0  0  0  0  0  0  0
    3.8788   -2.1603    0.3747 C   0  0  0  0  0  0  0  0  0  0  0  0
    5.1399   -2.5222    0.8492 O   0  0  0  0  0  0  0  0  0  0  0  0
    6.1318   -1.5285    0.9054 C   0  0  0  0  0  0  0  0  0  0  0  0
    5.5171   -0.5403    0.4720 O   0  0  0  0  0  0  0  0  0  0  0  0
    7.4534   -2.0016    1.4268 C   0  0  0  0  0  0  0  0  0  0  0  0
    8.4116   -0.8260    1.4243 C   0  0  0  0  0  0  0  0  0  0  0  0
    8.5557   -0.3143   -0.0071 C   0  0  0  0  0  0  0  0  0  0  0  0
    9.5184    0.8646    0.0036 C   0  0  0  0  0  0  0  0  0  0  0  0
   -0.7326   -1.5494    0.6121 O   0  0  0  0  0  0  0  0  0  0  0  0
   -1.7903   -2.3937    0.9370 C   0  0  1  0  0  0  0  0  0  0  0  0
   -2.8932   -2.1451   -0.0573 C   0  0  0  0  0  0  0  0  0  0  0  0
   -3.0110   -3.3994   -0.8952 C   0  0  2  0  0  0  0  0  0  0  0  0
   -3.7430   -3.2566   -2.0941 N   0  0  0  0  0  0  0  0  0  0  0  0
   -3.1248   -3.4557   -3.3517 C   0  0  0  0  0  0  0  0  0  0  0  0
   -1.9412   -3.7633   -3.6234 O   0  0  0  0  0  0  0  0  0  0  0  0
   -3.6048   -3.3829   -4.7551 C   0  0  0  0  0  0  0  0  0  0  0  0
   -2.5077   -3.6945   -5.5547 F   0  0  0  0  0  0  0  0  0  0  0  0
   -3.9794   -2.1075   -5.1311 F   0  0  0  0  0  0  0  0  0  0  0  0
   -4.6824   -4.2136   -4.9900 F   0  0  0  0  0  0  0  0  0  0  0  0
   -3.4403   -4.4681    0.0572 C   0  0  2  0  0  0  0  0  0  0  0  0
   -4.5244   -4.0043    0.8003 O   0  0  0  0  0  0  0  0  0  0  0  0
   -2.3003   -4.6940    1.0150 C   0  0  2  0  0  0  0  0  0  0  0  0
   -2.8990   -5.0530    2.3592 C   0  0  0  0  0  0  0  0  0  0  0  0
   -1.4469   -3.6692    1.1829 O   0  0  0  0  0  0  0  0  0  0  0  0
   -1.2149   -0.6695    2.3649 H   0  0  0  0  0  0  0  0  0  0  0  0
    1.1798   -0.1500    2.8858 H   0  0  0  0  0  0  0  0  0  0  0  0
    1.0801   -1.8456    2.3434 H   0  0  0  0  0  0  0  0  0  0  0  0
    1.3974   -2.1736   -0.1183 H   0  0  0  0  0  0  0  0  0  0  0  0
    2.5707    1.4784    1.2709 H   0  0  0  0  0  0  0  0  0  0  0  0
    2.5101    1.0201   -0.4510 H   0  0  0  0  0  0  0  0  0  0  0  0
    2.0720    4.0079    0.0458 H   0  0  0  0  0  0  0  0  0  0  0  0
   -3.7037    0.5495    0.6281 H   0  0  0  0  0  0  0  0  0  0  0  0
   -7.0241    5.6053   -1.4189 H   0  0  0  0  0  0  0  0  0  0  0  0
   -6.9447    6.2004    0.2606 H   0  0  0  0  0  0  0  0  0  0  0  0
   -7.7367    4.6358   -0.0175 H   0  0  0  0  0  0  0  0  0  0  0  0
   -5.5552    7.0467   -1.3714 H   0  0  0  0  0  0  0  0  0  0  0  0
   -3.4628    8.1603   -2.1729 H   0  0  0  0  0  0  0  0  0  0  0  0
   -1.2769    7.0034   -1.9218 H   0  0  0  0  0  0  0  0  0  0  0  0
    3.9583   -1.8188   -0.6996 H   0  0  0  0  0  0  0  0  0  0  0  0
    3.2282   -3.0600    0.3548 H   0  0  0  0  0  0  0  0  0  0  0  0
    7.8277   -2.7477    0.6966 H   0  0  0  0  0  0  0  0  0  0  0  0
    7.3702   -2.4022    2.4422 H   0  0  0  0  0  0  0  0  0  0  0  0
    8.0519   -0.0206    2.0854 H   0  0  0  0  0  0  0  0  0  0  0  0
    9.4112   -1.1503    1.7759 H   0  0  0  0  0  0  0  0  0  0  0  0
    8.9782   -1.1418   -0.6045 H   0  0  0  0  0  0  0  0  0  0  0  0
    7.6026    0.0180   -0.4201 H   0  0  0  0  0  0  0  0  0  0  0  0
   10.1785    0.7498   -0.8611 H   0  0  0  0  0  0  0  0  0  0  0  0
   10.1499    0.7942    0.9188 H   0  0  0  0  0  0  0  0  0  0  0  0
    8.9413    1.8110    0.0035 H   0  0  0  0  0  0  0  0  0  0  0  0
   -2.1714   -1.9835    1.9239 H   0  0  0  0  0  0  0  0  0  0  0  0
   -3.8726   -1.9782    0.4421 H   0  0  0  0  0  0  0  0  0  0  0  0
   -2.6377   -1.2778   -0.7066 H   0  0  0  0  0  0  0  0  0  0  0  0
   -1.9531   -3.6664   -1.1899 H   0  0  0  0  0  0  0  0  0  0  0  0
   -4.7436   -3.0102   -2.2515 H   0  0  0  0  0  0  0  0  0  0  0  0
   -3.6513   -5.4473   -0.4185 H   0  0  0  0  0  0  0  0  0  0  0  0
   -4.2686   -3.5623    1.6463 H   0  0  0  0  0  0  0  0  0  0  0  0
   -1.7230   -5.5903    0.7026 H   0  0  0  0  0  0  0  0  0  0  0  0
   -2.2386   -5.7802    2.9088 H   0  0  0  0  0  0  0  0  0  0  0  0
   -3.9168   -5.4520    2.3112 H   0  0  0  0  0  0  0  0  0  0  0  0
   -2.9194   -4.1620    3.0498 H   0  0  0  0  0  0  0  0  0  0  0  0
  1  2  1  0
  2  3  1  0
  3  4  1  6
  3  5  1  0
  5  6  1  0
  6  7  2  0
  7  8  1  0
  7  9  1  0
  9 10  2  0
 10 11  1  0
 11 12  1  0
 11 13  2  0
 10 14  1  0
 14 15  2  0
 14 16  1  0
 16 17  2  0
 17 18  1  0
 18 19  1  0
 17 20  1  0
 20 21  2  0
 21 22  1  0
 22 23  2  0
 23 24  1  0
 24 25  2  0
  3 26  1  0
 26 27  2  0
 26 28  1  0
 28 29  1  0
 29 30  1  0
 30 31  2  0
 30 32  1  0
 32 33  1  0
 33 34  1  0
 34 35  1  0
  1 36  1  0
 36 37  1  0
 37 38  1  0
 38 39  1  0
 39 40  1  0
 40 41  1  0
 41 42  2  0
 41 43  1  0
 43 44  1  0
 43 45  1  0
 43 46  1  0
 39 47  1  0
 47 48  1  0
 47 49  1  0
 49 50  1  0
 49 51  1  0
 13  1  1  0
 23 16  1  0
 51 37  1  0
 13  6  1  0
 24  9  1  0
  1 52  1  1
  2 53  1  0
  2 54  1  0
  4 55  1  0
  5 56  1  0
  5 57  1  0
  8 58  1  0
 12 59  1  0
 19 60  1  0
 19 61  1  0
 19 62  1  0
 20 63  1  0
 21 64  1  0
 22 65  1  0
 28 66  1  0
 28 67  1  0
 32 68  1  0
 32 69  1  0
 33 70  1  0
 33 71  1  0
 34 72  1  0
 34 73  1  0
 35 74  1  0
 35 75  1  0
 35 76  1  0
 37 77  1  1
 38 78  1  0
 38 79  1  0
 39 80  1  6
 40 81  1  0
 47 82  1  6
 48 83  1  0
 49 84  1  6
 50 85  1  0
 50 86  1  0
 50 87  1  0
M  END
$$$$
