
     RDKit          3D

 38 40  0  0  0  0  0  0  0  0999 V2000
    7.9243    0.9430    0.7967 O   0  0  0  0  0  0  0  0  0  0  0  0
    6.7578    0.7061    0.4124 C   0  0  0  0  0  0  0  0  0  0  0  0
    5.8919    1.7701    0.2416 O   0  0  0  0  0  0  0  0  0  0  0  0
    6.3131   -0.6819    0.1462 C   0  0  0  0  0  0  0  0  0  0  0  0
    4.9286   -0.7260   -0.2865 N   0  0  0  0  0  0  0  0  0  0  0  0
    3.9226   -0.2292    0.5646 C   0  0  0  0  0  0  0  0  0  0  0  0
    4.3082    0.2452    1.7034 O   0  0  0  0  0  0  0  0  0  0  0  0
    2.5006   -0.1907    0.3047 C   0  0  0  0  0  0  0  0  0  0  0  0
    1.6622    0.3394    1.2520 N   0  0  0  0  0  0  0  0  0  0  0  0
    0.3383    0.4163    1.1005 C   0  0  0  0  0  0  0  0  0  0  0  0
   -0.2851   -0.0442   -0.0469 C   0  0  0  0  0  0  0  0  0  0  0  0
   -1.7297    0.0449   -0.2010 C   0  0  0  0  0  0  0  0  0  0  0  0
   -2.3071    0.2099   -1.4396 C   0  0  0  0  0  0  0  0  0  0  0  0
   -3.6731    0.2974   -1.6134 C   0  0  0  0  0  0  0  0  0  0  0  0
   -4.5162    0.2189   -0.5148 C   0  0  0  0  0  0  0  0  0  0  0  0
   -5.9021    0.3054   -0.6715 C   0  0  0  0  0  0  0  0  0  0  0  0
   -6.7317    0.2267    0.4237 C   0  0  0  0  0  0  0  0  0  0  0  0
   -6.1975    0.0623    1.6769 C   0  0  0  0  0  0  0  0  0  0  0  0
   -4.8284   -0.0211    1.8127 C   0  0  0  0  0  0  0  0  0  0  0  0
   -3.9723    0.0541    0.7372 C   0  0  0  0  0  0  0  0  0  0  0  0
   -2.5952   -0.0313    0.8866 C   0  0  0  0  0  0  0  0  0  0  0  0
    0.5408   -0.5777   -1.0045 C   0  0  0  0  0  0  0  0  0  0  0  0
    1.9301   -0.6532   -0.8343 C   0  0  0  0  0  0  0  0  0  0  0  0
    2.6853   -1.2028   -1.8435 O   0  0  0  0  0  0  0  0  0  0  0  0
    6.1424    2.7295    0.4086 H   0  0  0  0  0  0  0  0  0  0  0  0
    6.4122   -1.2487    1.1097 H   0  0  0  0  0  0  0  0  0  0  0  0
    6.9676   -1.1263   -0.6161 H   0  0  0  0  0  0  0  0  0  0  0  0
    4.7049   -1.1130   -1.1949 H   0  0  0  0  0  0  0  0  0  0  0  0
   -0.2404    0.8567    1.9154 H   0  0  0  0  0  0  0  0  0  0  0  0
   -1.6846    0.2753   -2.3175 H   0  0  0  0  0  0  0  0  0  0  0  0
   -4.1151    0.4285   -2.6043 H   0  0  0  0  0  0  0  0  0  0  0  0
   -6.2898    0.4344   -1.6701 H   0  0  0  0  0  0  0  0  0  0  0  0
   -7.7976    0.2924    0.3125 H   0  0  0  0  0  0  0  0  0  0  0  0
   -6.8684    0.0005    2.5455 H   0  0  0  0  0  0  0  0  0  0  0  0
   -4.4089   -0.1487    2.7851 H   0  0  0  0  0  0  0  0  0  0  0  0
   -2.1705   -0.1586    1.8536 H   0  0  0  0  0  0  0  0  0  0  0  0
    0.0773   -0.9460   -1.9135 H   0  0  0  0  0  0  0  0  0  0  0  0
    2.3054   -1.7577   -2.6003 H   0  0  0  0  0  0  0  0  0  0  0  0
  1  2  2  0
  2  3  1  0
  2  4  1  0
  4  5  1  0
  5  6  1  0
  6  7  2  0
  6  8  1  0
  8  9  2  0
  9 10  1  0
 10 11  2  0
 11 12  1  0
 12 13  2  0
 13 14  1  0
 14 15  2  0
 15 16  1  0
 16 17  2  0
 17 18  1  0
 18 19  2  0
 19 20  1  0
 20 21  2  0
 11 22  1  0
 22 23  2  0
 23 24  1  0
 23  8  1  0
 21 12  1  0
 20 15  1  0
  3 25  1  0
  4 26  1  0
  4 27  1  0
  5 28  1  0
 10 29  1  0
 13 30  1  0
 14 31  1  0
 16 32  1  0
 17 33  1  0
 18 34  1  0
 19 35  1  0
 21 36  1  0
 22 37  1  0
 24 38  1  0
M  END
$$$$
