
     RDKit          3D

 57 61  0  0  0  0  0  0  0  0999 V2000
    7.7591    2.0039   -1.1937 C   0  0  0  0  0  0  0  0  0  0  0  0
    6.8656    0.9585   -0.6236 C   0  0  0  0  0  0  0  0  0  0  0  0
    7.3571   -0.2289   -0.1064 C   0  0  0  0  0  0  0  0  0  0  0  0
    6.5106   -1.1885    0.4191 C   0  0  0  0  0  0  0  0  0  0  0  0
    5.1448   -0.9943    0.4456 C   0  0  0  0  0  0  0  0  0  0  0  0
    4.6409    0.1705   -0.0599 C   0  0  0  0  0  0  0  0  0  0  0  0
    3.3640    0.6332   -0.1676 C   0  0  0  0  0  0  0  0  0  0  0  0
    2.1311    0.0352    0.2208 N   0  0  0  0  0  0  0  0  0  0  0  0
    1.4017    0.3560    1.3128 C   0  0  0  0  0  0  0  0  0  0  0  0
    1.7187    1.2323    2.1365 O   0  0  0  0  0  0  0  0  0  0  0  0
    0.2968   -0.4075    1.3700 N   0  0  0  0  0  0  0  0  0  0  0  0
   -0.7280   -0.3583    2.3924 C   0  0  0  0  0  0  0  0  0  0  0  0
   -1.8069    0.6117    2.0445 C   0  0  0  0  0  0  0  0  0  0  0  0
   -1.6468    1.9165    2.4553 C   0  0  0  0  0  0  0  0  0  0  0  0
   -2.6037    2.8567    2.1675 C   0  0  0  0  0  0  0  0  0  0  0  0
   -3.7459    2.4712    1.4499 C   0  0  0  0  0  0  0  0  0  0  0  0
   -4.9368    3.7096    1.1086 Cl  0  0  0  0  0  0  0  0  0  0  0  0
   -3.9473    1.1797    1.0199 C   0  0  0  0  0  0  0  0  0  0  0  0
   -5.0102    0.7033    0.3230 O   0  0  0  0  0  0  0  0  0  0  0  0
   -6.1665    1.1701   -0.1909 C   0  0  2  0  0  0  0  0  0  0  0  0
   -7.3995    0.3960    0.3300 C   0  0  0  0  0  0  0  0  0  0  0  0
   -6.1217    0.9582   -1.6938 C   0  0  0  0  0  0  0  0  0  0  0  0
   -5.1185    0.4282   -2.2292 O   0  0  0  0  0  0  0  0  0  0  0  0
   -7.1704    1.3370   -2.5098 O   0  0  0  0  0  0  0  0  0  0  0  0
   -2.9312    0.2473    1.3420 C   0  0  0  0  0  0  0  0  0  0  0  0
    0.2760   -1.2448    0.3194 C   0  0  0  0  0  0  0  0  0  0  0  0
   -0.5882   -2.2247   -0.1238 C   0  0  0  0  0  0  0  0  0  0  0  0
   -0.3312   -2.9381   -1.2749 C   0  0  0  0  0  0  0  0  0  0  0  0
   -1.2689   -4.0050   -1.7605 C   0  0  0  0  0  0  0  0  0  0  0  0
   -1.7361   -4.7869   -0.7418 F   0  0  0  0  0  0  0  0  0  0  0  0
   -0.5895   -4.7562   -2.6976 F   0  0  0  0  0  0  0  0  0  0  0  0
   -2.3439   -3.4286   -2.4284 F   0  0  0  0  0  0  0  0  0  0  0  0
    0.8225   -2.6365   -1.9683 C   0  0  0  0  0  0  0  0  0  0  0  0
    1.6977   -1.6609   -1.5407 C   0  0  0  0  0  0  0  0  0  0  0  0
    1.4454   -0.9442   -0.3898 C   0  0  0  0  0  0  0  0  0  0  0  0
    3.4727    1.8595   -0.7550 N   0  0  0  0  0  0  0  0  0  0  0  0
    4.7258    2.1094   -0.9812 O   0  0  0  0  0  0  0  0  0  0  0  0
    5.4889    1.1259   -0.5835 C   0  0  0  0  0  0  0  0  0  0  0  0
    8.6579    1.5681   -1.6395 H   0  0  0  0  0  0  0  0  0  0  0  0
    7.1339    2.5623   -1.9403 H   0  0  0  0  0  0  0  0  0  0  0  0
    7.9687    2.7171   -0.3681 H   0  0  0  0  0  0  0  0  0  0  0  0
    8.4192   -0.3701   -0.1316 H   0  0  0  0  0  0  0  0  0  0  0  0
    6.9601   -2.0881    0.8043 H   0  0  0  0  0  0  0  0  0  0  0  0
    4.4677   -1.7214    0.8469 H   0  0  0  0  0  0  0  0  0  0  0  0
   -0.2460   -0.0163    3.3455 H   0  0  0  0  0  0  0  0  0  0  0  0
   -1.1485   -1.3753    2.4928 H   0  0  0  0  0  0  0  0  0  0  0  0
   -0.7748    2.2072    3.0022 H   0  0  0  0  0  0  0  0  0  0  0  0
   -2.4811    3.8898    2.4904 H   0  0  0  0  0  0  0  0  0  0  0  0
   -6.4370    2.2275   -0.0759 H   0  0  0  0  0  0  0  0  0  0  0  0
   -8.1332    0.4013   -0.4958 H   0  0  0  0  0  0  0  0  0  0  0  0
   -7.1461   -0.6385    0.5757 H   0  0  0  0  0  0  0  0  0  0  0  0
   -7.8490    0.9732    1.1572 H   0  0  0  0  0  0  0  0  0  0  0  0
   -7.3888    0.8430   -3.3797 H   0  0  0  0  0  0  0  0  0  0  0  0
   -3.0667   -0.7613    1.0187 H   0  0  0  0  0  0  0  0  0  0  0  0
   -1.4871   -2.4571    0.4216 H   0  0  0  0  0  0  0  0  0  0  0  0
    1.0130   -3.2043   -2.8714 H   0  0  0  0  0  0  0  0  0  0  0  0
    2.6091   -1.4237   -2.0899 H   0  0  0  0  0  0  0  0  0  0  0  0
  1  2  1  0
  2  3  2  0
  3  4  1  0
  4  5  2  0
  5  6  1  0
  6  7  1  0
  7  8  1  0
  8  9  1  0
  9 10  2  0
  9 11  1  0
 11 12  1  0
 12 13  1  0
 13 14  2  0
 14 15  1  0
 15 16  2  0
 16 17  1  0
 16 18  1  0
 18 19  1  0
 19 20  1  0
 20 21  1  0
 20 22  1  0
 22 23  2  0
 22 24  1  0
 18 25  2  0
 11 26  1  0
 26 27  2  0
 27 28  1  0
 28 29  1  0
 29 30  1  0
 29 31  1  0
 29 32  1  0
 28 33  2  0
 33 34  1  0
 34 35  2  0
  7 36  2  0
 36 37  1  0
 37 38  1  0
 38  2  1  0
 38  6  2  0
 35  8  1  0
 25 13  1  0
 35 26  1  0
  1 39  1  0
  1 40  1  0
  1 41  1  0
  3 42  1  0
  4 43  1  0
  5 44  1  0
 12 45  1  0
 12 46  1  0
 14 47  1  0
 15 48  1  0
 20 49  1  6
 21 50  1  0
 21 51  1  0
 21 52  1  0
 24 53  1  0
 25 54  1  0
 27 55  1  0
 33 56  1  0
 34 57  1  0
M  END
$$$$
