
     RDKit          3D

 47 51  0  0  0  0  0  0  0  0999 V2000
   -3.9828   -4.1330    1.8248 C   0  0  0  0  0  0  0  0  0  0  0  0
   -4.7475   -2.9870    1.8846 C   0  0  0  0  0  0  0  0  0  0  0  0
   -4.1417   -1.7593    1.8730 C   0  0  0  0  0  0  0  0  0  0  0  0
   -2.7711   -1.6320    1.8017 C   0  0  0  0  0  0  0  0  0  0  0  0
   -2.1461   -0.2883    1.7943 C   0  0  0  0  0  0  0  0  0  0  0  0
   -2.0917    0.3252    0.4575 C   0  0  0  0  0  0  0  0  0  0  0  0
   -3.0629    1.2044    0.0894 N   0  0  0  0  0  0  0  0  0  0  0  0
   -3.0861    1.7668   -1.1340 C   0  0  0  0  0  0  0  0  0  0  0  0
   -4.0605    2.6545   -1.5304 C   0  0  0  0  0  0  0  0  0  0  0  0
   -4.0861    3.2252   -2.7826 C   0  0  0  0  0  0  0  0  0  0  0  0
   -3.1021    2.9160   -3.7139 C   0  0  0  0  0  0  0  0  0  0  0  0
   -2.1346    2.0277   -3.3049 C   0  0  0  0  0  0  0  0  0  0  0  0
   -2.0998    1.4529   -2.0592 C   0  0  0  0  0  0  0  0  0  0  0  0
   -1.1495    0.5846   -1.6793 N   0  0  0  0  0  0  0  0  0  0  0  0
   -1.1174    0.0091   -0.4394 C   0  0  0  0  0  0  0  0  0  0  0  0
   -0.0774   -0.8675   -0.1251 N   0  0  0  0  0  0  0  0  0  0  0  0
    1.1279   -0.6108    0.0186 N   0  0  0  0  0  0  0  0  0  0  0  0
    1.7901    0.6520   -0.0975 C   0  0  0  0  0  0  0  0  0  0  0  0
    3.2594    0.5407    0.1676 C   0  0  0  0  0  0  0  0  0  0  0  0
    3.7630    0.6947    1.4334 C   0  0  0  0  0  0  0  0  0  0  0  0
    5.0998    0.6051    1.7368 C   0  0  0  0  0  0  0  0  0  0  0  0
    5.9896    0.3451    0.7124 C   0  0  0  0  0  0  0  0  0  0  0  0
    5.5223    0.1822   -0.5846 C   0  0  0  0  0  0  0  0  0  0  0  0
    4.1682    0.2803   -0.8482 C   0  0  0  0  0  0  0  0  0  0  0  0
    6.6062   -0.0616   -1.3896 O   0  0  0  0  0  0  0  0  0  0  0  0
    7.7669    0.0140   -0.6240 C   0  0  0  0  0  0  0  0  0  0  0  0
    7.3707    0.2017    0.7162 O   0  0  0  0  0  0  0  0  0  0  0  0
   -2.0002   -2.7556    1.7423 C   0  0  0  0  0  0  0  0  0  0  0  0
   -2.6110   -4.0140    1.7539 C   0  0  0  0  0  0  0  0  0  0  0  0
   -4.4832   -5.0952    1.8354 H   0  0  0  0  0  0  0  0  0  0  0  0
   -5.8431   -3.0853    1.9459 H   0  0  0  0  0  0  0  0  0  0  0  0
   -4.7883   -0.8676    1.9227 H   0  0  0  0  0  0  0  0  0  0  0  0
   -1.1395   -0.4137    2.2488 H   0  0  0  0  0  0  0  0  0  0  0  0
   -2.7039    0.3488    2.5373 H   0  0  0  0  0  0  0  0  0  0  0  0
   -4.8450    2.9245   -0.8382 H   0  0  0  0  0  0  0  0  0  0  0  0
   -4.8558    3.9292   -3.1067 H   0  0  0  0  0  0  0  0  0  0  0  0
   -3.1250    3.3610   -4.6894 H   0  0  0  0  0  0  0  0  0  0  0  0
   -1.3550    1.7701   -4.0143 H   0  0  0  0  0  0  0  0  0  0  0  0
    1.3958    1.3157    0.7157 H   0  0  0  0  0  0  0  0  0  0  0  0
    1.6073    1.1828   -1.0392 H   0  0  0  0  0  0  0  0  0  0  0  0
    3.1000    0.8993    2.2721 H   0  0  0  0  0  0  0  0  0  0  0  0
    5.4774    0.7285    2.7453 H   0  0  0  0  0  0  0  0  0  0  0  0
    3.7897    0.1563   -1.8592 H   0  0  0  0  0  0  0  0  0  0  0  0
    8.3669    0.8813   -0.9908 H   0  0  0  0  0  0  0  0  0  0  0  0
    8.3297   -0.9325   -0.7738 H   0  0  0  0  0  0  0  0  0  0  0  0
   -0.9103   -2.7597    1.6893 H   0  0  0  0  0  0  0  0  0  0  0  0
   -2.0132   -4.9166    1.7053 H   0  0  0  0  0  0  0  0  0  0  0  0
  1  2  2  0
  2  3  1  0
  3  4  2  0
  4  5  1  0
  5  6  1  0
  6  7  2  0
  7  8  1  0
  8  9  2  0
  9 10  1  0
 10 11  2  0
 11 12  1  0
 12 13  2  0
 13 14  1  0
 14 15  2  0
 15 16  1  0
 16 17  2  3
 17 18  1  0
 18 19  1  0
 19 20  2  0
 20 21  1  0
 21 22  2  0
 22 23  1  0
 23 24  2  0
 23 25  1  0
 25 26  1  0
 26 27  1  0
  4 28  1  0
 28 29  2  0
 29  1  1  0
 15  6  1  0
 24 19  1  0
 13  8  1  0
 27 22  1  0
  1 30  1  0
  2 31  1  0
  3 32  1  0
  5 33  1  0
  5 34  1  0
  9 35  1  0
 10 36  1  0
 11 37  1  0
 12 38  1  0
 18 39  1  0
 18 40  1  0
 20 41  1  0
 21 42  1  0
 24 43  1  0
 26 44  1  0
 26 45  1  0
 28 46  1  0
 29 47  1  0
M  END
$$$$
