
     RDKit          3D

 79 83  0  0  0  0  0  0  0  0999 V2000
    8.5350    3.5600   -0.2236 C   0  0  0  0  0  0  0  0  0  0  0  0
    9.2644    2.3385    0.2923 C   0  0  0  0  0  0  0  0  0  0  0  0
    8.6676    1.1512   -0.1756 O   0  0  0  0  0  0  0  0  0  0  0  0
    7.3630    0.8228    0.1242 C   0  0  0  0  0  0  0  0  0  0  0  0
    6.6982    1.5953    0.8386 O   0  0  0  0  0  0  0  0  0  0  0  0
    6.7615   -0.4137   -0.3915 C   0  0  0  0  0  0  0  0  0  0  0  0
    5.4027   -0.6433   -0.0401 N   0  0  0  0  0  0  0  0  0  0  0  0
    4.8354   -1.7812   -0.7513 C   0  0  0  0  0  0  0  0  0  0  0  0
    3.4583   -2.0773   -0.2034 C   0  0  0  0  0  0  0  0  0  0  0  0
    2.8913   -0.9985    0.5211 N   0  0  0  0  0  0  0  0  0  0  0  0
    1.4899   -0.8410    0.5193 C   0  0  0  0  0  0  0  0  0  0  0  0
    0.9362   -0.4550   -0.8079 C   0  0  0  0  0  0  0  0  0  0  0  0
   -0.5300   -0.3152   -0.8999 C   0  0  0  0  0  0  0  0  0  0  0  0
   -1.3620   -1.4599   -0.4837 C   0  0  0  0  0  0  0  0  0  0  0  0
   -2.5631   -1.3601    0.2128 C   0  0  0  0  0  0  0  0  0  0  0  0
   -3.3411   -0.1377    0.5148 C   0  0  0  0  0  0  0  0  0  0  0  0
   -3.8665    0.5746   -0.4528 C   0  0  0  0  0  0  0  0  0  0  0  0
   -3.7778    0.2899   -1.8672 C   0  0  0  0  0  0  0  0  0  0  0  0
   -3.2505   -0.6594   -2.4944 O   0  0  0  0  0  0  0  0  0  0  0  0
   -4.4490    1.3437   -2.5480 N   0  0  0  0  0  0  0  0  0  0  0  0
   -4.9426    2.2529   -1.5640 C   0  0  0  0  0  0  0  0  0  0  0  0
   -5.6693    3.4240   -1.7066 C   0  0  0  0  0  0  0  0  0  0  0  0
   -6.0449    4.1265   -0.5922 C   0  0  0  0  0  0  0  0  0  0  0  0
   -5.7203    3.7033    0.6935 C   0  0  0  0  0  0  0  0  0  0  0  0
   -6.2899    4.6902    2.0280 S   0  0  0  0  0  6  0  0  0  0  0  0
   -5.4487    4.5024    3.2568 O   0  0  0  0  0  0  0  0  0  0  0  0
   -6.3469    6.1268    1.6836 O   0  0  0  0  0  0  0  0  0  0  0  0
   -7.8794    4.0718    2.4211 N   0  0  0  0  0  0  0  0  0  0  0  0
   -8.7682    4.2227    1.2855 C   0  0  0  0  0  0  0  0  0  0  0  0
   -5.0009    2.5476    0.8445 C   0  0  0  0  0  0  0  0  0  0  0  0
   -4.6239    1.8427   -0.2969 C   0  0  0  0  0  0  0  0  0  0  0  0
   -2.9405   -2.6114    0.4989 N   0  0  0  0  0  0  0  0  0  0  0  0
   -2.0722   -3.4965    0.0342 C   0  0  0  0  0  0  0  0  0  0  0  0
   -1.0710   -2.7944   -0.5903 C   0  0  0  0  0  0  0  0  0  0  0  0
    0.0322   -3.5979   -1.1877 C   0  0  0  0  0  0  0  0  0  0  0  0
   -0.6151   -4.7009   -2.0176 C   0  0  0  0  0  0  0  0  0  0  0  0
   -1.6715   -5.4639   -1.3131 C   0  0  0  0  0  0  0  0  0  0  0  0
   -1.9589   -4.9833    0.0653 C   0  0  0  0  0  0  0  0  0  0  0  0
    3.6475   -0.5983    1.6493 C   0  0  0  0  0  0  0  0  0  0  0  0
    5.1452   -0.7655    1.3809 C   0  0  0  0  0  0  0  0  0  0  0  0
    9.1269    4.4512    0.0496 H   0  0  0  0  0  0  0  0  0  0  0  0
    8.3374    3.4980   -1.3167 H   0  0  0  0  0  0  0  0  0  0  0  0
    7.5581    3.6563    0.2744 H   0  0  0  0  0  0  0  0  0  0  0  0
   10.3362    2.3810   -0.0175 H   0  0  0  0  0  0  0  0  0  0  0  0
    9.2108    2.3217    1.3933 H   0  0  0  0  0  0  0  0  0  0  0  0
    6.9193   -0.4319   -1.5040 H   0  0  0  0  0  0  0  0  0  0  0  0
    7.3372   -1.3308   -0.0501 H   0  0  0  0  0  0  0  0  0  0  0  0
    4.8371   -1.5998   -1.8440 H   0  0  0  0  0  0  0  0  0  0  0  0
    5.4828   -2.6501   -0.5528 H   0  0  0  0  0  0  0  0  0  0  0  0
    3.5848   -2.9247    0.5291 H   0  0  0  0  0  0  0  0  0  0  0  0
    2.7617   -2.4777   -0.9676 H   0  0  0  0  0  0  0  0  0  0  0  0
    1.2238   -0.0418    1.2546 H   0  0  0  0  0  0  0  0  0  0  0  0
    1.0378   -1.7838    0.9264 H   0  0  0  0  0  0  0  0  0  0  0  0
    1.3396   -0.9600   -1.6814 H   0  0  0  0  0  0  0  0  0  0  0  0
    1.3139    0.6544   -0.9232 H   0  0  0  0  0  0  0  0  0  0  0  0
   -0.8564    0.5592   -0.2386 H   0  0  0  0  0  0  0  0  0  0  0  0
   -0.7943    0.0540   -1.9169 H   0  0  0  0  0  0  0  0  0  0  0  0
   -3.4609    0.1403    1.5252 H   0  0  0  0  0  0  0  0  0  0  0  0
   -4.5708    1.4546   -3.5742 H   0  0  0  0  0  0  0  0  0  0  0  0
   -5.9194    3.7522   -2.6967 H   0  0  0  0  0  0  0  0  0  0  0  0
   -6.6161    5.0500   -0.7221 H   0  0  0  0  0  0  0  0  0  0  0  0
   -7.7910    3.0319    2.5695 H   0  0  0  0  0  0  0  0  0  0  0  0
   -8.6695    5.2579    0.8809 H   0  0  0  0  0  0  0  0  0  0  0  0
   -8.5021    3.5119    0.4502 H   0  0  0  0  0  0  0  0  0  0  0  0
   -9.7943    4.0012    1.6202 H   0  0  0  0  0  0  0  0  0  0  0  0
   -4.7398    2.2071    1.8157 H   0  0  0  0  0  0  0  0  0  0  0  0
   -3.8295   -2.8289    1.0313 H   0  0  0  0  0  0  0  0  0  0  0  0
    0.6220   -3.0241   -1.9202 H   0  0  0  0  0  0  0  0  0  0  0  0
    0.7036   -3.9896   -0.4151 H   0  0  0  0  0  0  0  0  0  0  0  0
    0.1976   -5.4075   -2.3471 H   0  0  0  0  0  0  0  0  0  0  0  0
   -1.0083   -4.2094   -2.9338 H   0  0  0  0  0  0  0  0  0  0  0  0
   -1.4434   -6.5647   -1.2558 H   0  0  0  0  0  0  0  0  0  0  0  0
   -2.6427   -5.4201   -1.8843 H   0  0  0  0  0  0  0  0  0  0  0  0
   -2.9353   -5.3898    0.4165 H   0  0  0  0  0  0  0  0  0  0  0  0
   -1.1752   -5.2396    0.8067 H   0  0  0  0  0  0  0  0  0  0  0  0
    3.3968    0.4178    1.9552 H   0  0  0  0  0  0  0  0  0  0  0  0
    3.4132   -1.2669    2.4973 H   0  0  0  0  0  0  0  0  0  0  0  0
    5.3988   -1.8182    1.6363 H   0  0  0  0  0  0  0  0  0  0  0  0
    5.6853   -0.0735    1.9961 H   0  0  0  0  0  0  0  0  0  0  0  0
  1  2  1  0
  2  3  1  0
  3  4  1  0
  4  5  2  0
  4  6  1  0
  6  7  1  0
  7  8  1  0
  8  9  1  0
  9 10  1  0
 10 11  1  0
 11 12  1  0
 12 13  1  0
 13 14  1  0
 14 15  2  0
 15 16  1  0
 16 17  2  0
 17 18  1  0
 18 19  2  0
 18 20  1  0
 20 21  1  0
 21 22  2  0
 22 23  1  0
 23 24  2  0
 24 25  1  0
 25 26  2  0
 25 27  2  0
 25 28  1  0
 28 29  1  0
 24 30  1  0
 30 31  2  0
 15 32  1  0
 32 33  1  0
 33 34  2  0
 34 35  1  0
 35 36  1  0
 36 37  1  0
 37 38  1  0
 10 39  1  0
 39 40  1  0
 40  7  1  0
 34 14  1  0
 31 17  1  0
 38 33  1  0
 31 21  1  0
  1 41  1  0
  1 42  1  0
  1 43  1  0
  2 44  1  0
  2 45  1  0
  6 46  1  0
  6 47  1  0
  8 48  1  0
  8 49  1  0
  9 50  1  0
  9 51  1  0
 11 52  1  0
 11 53  1  0
 12 54  1  0
 12 55  1  0
 13 56  1  0
 13 57  1  0
 16 58  1  0
 20 59  1  0
 22 60  1  0
 23 61  1  0
 28 62  1  0
 29 63  1  0
 29 64  1  0
 29 65  1  0
 30 66  1  0
 32 67  1  0
 35 68  1  0
 35 69  1  0
 36 70  1  0
 36 71  1  0
 37 72  1  0
 37 73  1  0
 38 74  1  0
 38 75  1  0
 39 76  1  0
 39 77  1  0
 40 78  1  0
 40 79  1  0
M  END
$$$$
