
     RDKit          3D

 44 47  0  0  0  0  0  0  0  0999 V2000
   -3.4648   -4.5448    1.6814 Cl  0  0  0  0  0  0  0  0  0  0  0  0
   -2.7899   -3.0825    0.9888 C   0  0  0  0  0  0  0  0  0  0  0  0
   -1.9034   -3.0852   -0.0829 C   0  0  0  0  0  0  0  0  0  0  0  0
   -1.4079   -1.9071   -0.5835 C   0  0  0  0  0  0  0  0  0  0  0  0
   -1.7917   -0.6893   -0.0182 C   0  0  0  0  0  0  0  0  0  0  0  0
   -2.6616   -0.7359    1.0291 C   0  0  0  0  0  0  0  0  0  0  0  0
   -3.1842   -1.8962    1.5642 C   0  0  0  0  0  0  0  0  0  0  0  0
   -1.1902    0.4878   -0.6508 C   0  0  0  0  0  0  0  0  0  0  0  0
   -1.5495    1.8006    0.0134 C   0  0  0  0  0  0  0  0  0  0  0  0
   -2.7272    2.4657   -0.6421 C   0  0  0  0  0  0  0  0  0  0  0  0
   -3.6079    1.4832   -1.2355 N   0  0  0  0  0  0  0  0  0  0  0  0
   -3.0137    0.7912   -2.3404 C   0  0  0  0  0  0  0  0  0  0  0  0
   -1.5521    0.4948   -2.1160 C   0  0  0  0  0  0  0  0  0  0  0  0
    0.2896    0.3638   -0.5447 C   0  0  0  0  0  0  0  0  0  0  0  0
    1.2375    0.2267   -1.5516 C   0  0  0  0  0  0  0  0  0  0  0  0
    2.5644    0.1289   -1.2252 C   0  0  0  0  0  0  0  0  0  0  0  0
    3.0474    0.1570    0.0739 C   0  0  0  0  0  0  0  0  0  0  0  0
    2.0750    0.2938    1.0411 C   0  0  0  0  0  0  0  0  0  0  0  0
    0.7105    0.3991    0.7909 C   0  0  0  0  0  0  0  0  0  0  0  0
    4.4594    0.0550    0.3937 C   0  0  0  0  0  0  0  0  0  0  0  0
    5.1254   -0.4862    1.4974 C   0  0  0  0  0  0  0  0  0  0  0  0
    6.4503   -0.3302    1.3181 N   0  0  0  0  0  0  0  0  0  0  0  0
    6.6680    0.2849    0.1529 N   0  0  0  0  0  0  0  0  0  0  0  0
    5.4652    0.5166   -0.4035 C   0  0  0  0  0  0  0  0  0  0  0  0
   -1.6861   -4.0821   -0.4287 H   0  0  0  0  0  0  0  0  0  0  0  0
   -0.7363   -2.1077   -1.4093 H   0  0  0  0  0  0  0  0  0  0  0  0
   -2.9500    0.1930    1.4530 H   0  0  0  0  0  0  0  0  0  0  0  0
   -3.8626   -1.8636    2.3859 H   0  0  0  0  0  0  0  0  0  0  0  0
   -1.6592    1.7186    1.1129 H   0  0  0  0  0  0  0  0  0  0  0  0
   -0.6795    2.5142   -0.1128 H   0  0  0  0  0  0  0  0  0  0  0  0
   -3.3220    3.0368    0.1020 H   0  0  0  0  0  0  0  0  0  0  0  0
   -2.3921    3.1921   -1.4134 H   0  0  0  0  0  0  0  0  0  0  0  0
   -4.5339    1.8491   -1.4684 H   0  0  0  0  0  0  0  0  0  0  0  0
   -3.5952   -0.1588   -2.4867 H   0  0  0  0  0  0  0  0  0  0  0  0
   -3.1778    1.3867   -3.2603 H   0  0  0  0  0  0  0  0  0  0  0  0
   -0.9740    1.2136   -2.7143 H   0  0  0  0  0  0  0  0  0  0  0  0
   -1.3532   -0.5205   -2.5128 H   0  0  0  0  0  0  0  0  0  0  0  0
    0.8106    0.2115   -2.5220 H   0  0  0  0  0  0  0  0  0  0  0  0
    3.2674    0.0240   -2.0344 H   0  0  0  0  0  0  0  0  0  0  0  0
    2.4284    0.3189    2.0793 H   0  0  0  0  0  0  0  0  0  0  0  0
    0.0678    0.5010    1.6556 H   0  0  0  0  0  0  0  0  0  0  0  0
    4.5597   -0.9390    2.3184 H   0  0  0  0  0  0  0  0  0  0  0  0
    7.0720   -0.6992    2.0863 H   0  0  0  0  0  0  0  0  0  0  0  0
    5.4675    1.0197   -1.3723 H   0  0  0  0  0  0  0  0  0  0  0  0
  1  2  1  0
  2  3  2  0
  3  4  1  0
  4  5  2  0
  5  6  1  0
  6  7  2  0
  5  8  1  0
  8  9  1  0
  9 10  1  0
 10 11  1  0
 11 12  1  0
 12 13  1  0
  8 14  1  0
 14 15  2  0
 15 16  1  0
 16 17  2  0
 17 18  1  0
 18 19  2  0
 17 20  1  0
 20 21  2  0
 21 22  1  0
 22 23  1  0
 23 24  2  0
  7  2  1  0
 13  8  1  0
 19 14  1  0
 24 20  1  0
  3 25  1  0
  4 26  1  0
  6 27  1  0
  7 28  1  0
  9 29  1  0
  9 30  1  0
 10 31  1  0
 10 32  1  0
 11 33  1  0
 12 34  1  0
 12 35  1  0
 13 36  1  0
 13 37  1  0
 15 38  1  0
 16 39  1  0
 18 40  1  0
 19 41  1  0
 21 42  1  0
 22 43  1  0
 24 44  1  0
M  END
$$$$
