
     RDKit          3D

 39 41  0  0  0  0  0  0  0  0999 V2000
   -1.5355   -0.9070    1.2180 C   0  0  0  0  0  0  0  0  0  0  0  0
   -2.2045   -0.6923   -0.0983 C   0  0  0  0  0  0  0  0  0  0  0  0
   -3.5951   -0.5738   -0.3105 C   0  0  0  0  0  0  0  0  0  0  0  0
   -4.2200   -0.6836    0.8715 O   0  0  0  0  0  0  0  0  0  0  0  0
   -5.5142   -0.6448    1.3175 C   0  0  0  0  0  0  0  0  0  0  0  0
   -6.2832    0.6211    1.1324 C   0  0  0  0  0  0  0  0  0  0  0  0
   -5.6163    1.6508    1.8055 F   0  0  0  0  0  0  0  0  0  0  0  0
   -6.5594    0.9342   -0.1627 F   0  0  0  0  0  0  0  0  0  0  0  0
   -7.5311    0.5262    1.7842 F   0  0  0  0  0  0  0  0  0  0  0  0
   -3.9214   -0.3869   -1.6216 C   0  0  0  0  0  0  0  0  0  0  0  0
   -3.0669   -0.3101   -2.6726 C   0  0  0  0  0  0  0  0  0  0  0  0
   -1.7651   -0.4310   -2.3930 N   0  0  0  0  0  0  0  0  0  0  0  0
   -1.2739   -0.6210   -1.1457 C   0  0  0  0  0  0  0  0  0  0  0  0
    0.1825   -0.7321   -0.9778 C   0  0  0  0  0  0  0  0  0  0  0  0
    0.8324    0.8166   -0.3286 S   0  0  0  0  0  0  0  0  0  0  0  0
    0.5637    1.9026   -1.3620 O   0  0  0  0  0  0  0  0  0  0  0  0
    2.5880    0.7209   -0.1136 C   0  0  0  0  0  0  0  0  0  0  0  0
    3.5256    1.0331   -1.0238 N   0  0  0  0  0  0  0  0  0  0  0  0
    4.7555    0.8414   -0.5175 C   0  0  0  0  0  0  0  0  0  0  0  0
    5.9855    1.0425   -1.1207 C   0  0  0  0  0  0  0  0  0  0  0  0
    7.1175    0.7649   -0.3667 C   0  0  0  0  0  0  0  0  0  0  0  0
    6.9629    0.3070    0.9329 C   0  0  0  0  0  0  0  0  0  0  0  0
    5.6984    0.1207    1.4954 C   0  0  0  0  0  0  0  0  0  0  0  0
    4.5590    0.3882    0.7702 C   0  0  0  0  0  0  0  0  0  0  0  0
    3.2399    0.3219    0.9959 N   0  0  0  0  0  0  0  0  0  0  0  0
   -0.6722   -0.2741    1.3998 H   0  0  0  0  0  0  0  0  0  0  0  0
   -2.3059   -0.5912    1.9831 H   0  0  0  0  0  0  0  0  0  0  0  0
   -1.3960   -1.9916    1.3719 H   0  0  0  0  0  0  0  0  0  0  0  0
   -6.1238   -1.4936    0.8790 H   0  0  0  0  0  0  0  0  0  0  0  0
   -5.5566   -0.8794    2.4316 H   0  0  0  0  0  0  0  0  0  0  0  0
   -4.9680   -0.3112   -1.7806 H   0  0  0  0  0  0  0  0  0  0  0  0
   -3.4833   -0.1583   -3.6563 H   0  0  0  0  0  0  0  0  0  0  0  0
    0.4849   -1.5970   -0.3534 H   0  0  0  0  0  0  0  0  0  0  0  0
    0.6528   -0.9009   -1.9614 H   0  0  0  0  0  0  0  0  0  0  0  0
    6.0314    1.4051   -2.1480 H   0  0  0  0  0  0  0  0  0  0  0  0
    8.0827    0.9211   -0.8360 H   0  0  0  0  0  0  0  0  0  0  0  0
    7.8802    0.1022    1.4880 H   0  0  0  0  0  0  0  0  0  0  0  0
    5.6206   -0.2397    2.5169 H   0  0  0  0  0  0  0  0  0  0  0  0
    2.8289   -0.0008    1.9213 H   0  0  0  0  0  0  0  0  0  0  0  0
  1  2  1  0
  2  3  2  0
  3  4  1  0
  4  5  1  0
  5  6  1  0
  6  7  1  0
  6  8  1  0
  6  9  1  0
  3 10  1  0
 10 11  2  0
 11 12  1  0
 12 13  2  0
 13 14  1  0
 14 15  1  0
 15 16  2  0
 15 17  1  0
 17 18  2  0
 18 19  1  0
 19 20  2  0
 20 21  1  0
 21 22  2  0
 22 23  1  0
 23 24  2  0
 24 25  1  0
 13  2  1  0
 25 17  1  0
 24 19  1  0
  1 26  1  0
  1 27  1  0
  1 28  1  0
  5 29  1  0
  5 30  1  0
 10 31  1  0
 11 32  1  0
 14 33  1  0
 14 34  1  0
 20 35  1  0
 21 36  1  0
 22 37  1  0
 23 38  1  0
 25 39  1  0
M  END
$$$$
