
     RDKit          3D

 55 59  0  0  0  0  0  0  0  0999 V2000
   -4.5324    1.5215   -2.1921 C   0  0  0  0  0  0  0  0  0  0  0  0
   -3.1484    1.7084   -1.7094 C   0  0  0  0  0  0  0  0  0  0  0  0
   -2.3030    2.5759   -2.3843 C   0  0  0  0  0  0  0  0  0  0  0  0
   -1.0119    2.7492   -1.9325 C   0  0  0  0  0  0  0  0  0  0  0  0
   -0.5739    2.0650   -0.8226 C   0  0  0  0  0  0  0  0  0  0  0  0
   -1.4466    1.1933   -0.1565 C   0  0  0  0  0  0  0  0  0  0  0  0
   -1.0264    0.4509    1.0186 C   0  0  0  0  0  0  0  0  0  0  0  0
   -1.1374    0.8632    2.1959 O   0  0  0  0  0  0  0  0  0  0  0  0
   -0.4461   -0.8333    0.8602 N   0  0  0  0  0  0  0  0  0  0  0  0
   -0.2906   -1.3643   -0.4740 C   0  0  0  0  0  0  0  0  0  0  0  0
   -0.2745   -2.8879   -0.4780 C   0  0  0  0  0  0  0  0  0  0  0  0
    0.6200   -3.3255    0.5261 O   0  0  0  0  0  0  0  0  0  0  0  0
    0.0054   -3.0556    1.7357 C   0  0  0  0  0  0  0  0  0  0  0  0
   -0.0123   -1.6059    2.0283 C   0  0  1  0  0  0  0  0  0  0  0  0
    1.2002   -1.0205    2.6584 C   0  0  0  0  0  0  0  0  0  0  0  0
    2.4016   -0.9353    1.8067 C   0  0  0  0  0  0  0  0  0  0  0  0
    2.6828    0.2674    1.1458 C   0  0  0  0  0  0  0  0  0  0  0  0
    3.7692    0.4067    0.3151 C   0  0  0  0  0  0  0  0  0  0  0  0
    4.0709    1.6197   -0.3641 N   0  0  0  0  0  0  0  0  0  0  0  0
    5.2855    2.1127   -0.6037 N   0  0  0  0  0  0  0  0  0  0  0  0
    5.2107    3.2684   -1.2630 C   0  0  0  0  0  0  0  0  0  0  0  0
    3.8691    3.5173   -1.4493 C   0  0  0  0  0  0  0  0  0  0  0  0
    3.2138    2.4863   -0.8852 N   0  0  0  0  0  0  0  0  0  0  0  0
    4.5698   -0.6977    0.1642 C   0  0  0  0  0  0  0  0  0  0  0  0
    4.3182   -1.8885    0.8001 C   0  0  0  0  0  0  0  0  0  0  0  0
    3.2196   -2.0214    1.6378 C   0  0  0  0  0  0  0  0  0  0  0  0
    3.0071   -3.2184    2.2860 F   0  0  0  0  0  0  0  0  0  0  0  0
   -2.7376    1.0109   -0.5966 C   0  0  0  0  0  0  0  0  0  0  0  0
   -3.6006    0.1251    0.0926 N   0  0  0  0  0  0  0  0  0  0  0  0
   -3.7089   -1.1673    0.0865 N   0  0  0  0  0  0  0  0  0  0  0  0
   -4.6875   -1.5612    0.9162 C   0  0  0  0  0  0  0  0  0  0  0  0
   -5.2271   -0.4244    1.4796 C   0  0  0  0  0  0  0  0  0  0  0  0
   -4.5201    0.5790    0.9366 N   0  0  0  0  0  0  0  0  0  0  0  0
   -4.9356    2.5238   -2.4727 H   0  0  0  0  0  0  0  0  0  0  0  0
   -5.1413    1.0016   -1.4460 H   0  0  0  0  0  0  0  0  0  0  0  0
   -4.4774    0.9343   -3.1516 H   0  0  0  0  0  0  0  0  0  0  0  0
   -2.6028    3.1320   -3.2566 H   0  0  0  0  0  0  0  0  0  0  0  0
   -0.3168    3.4263   -2.4410 H   0  0  0  0  0  0  0  0  0  0  0  0
    0.4270    2.1598   -0.4219 H   0  0  0  0  0  0  0  0  0  0  0  0
    0.6986   -1.0576   -0.9257 H   0  0  0  0  0  0  0  0  0  0  0  0
   -1.1201   -1.0712   -1.1573 H   0  0  0  0  0  0  0  0  0  0  0  0
    0.1713   -3.2209   -1.4384 H   0  0  0  0  0  0  0  0  0  0  0  0
   -1.2713   -3.3092   -0.3056 H   0  0  0  0  0  0  0  0  0  0  0  0
    0.3943   -3.6511    2.5870 H   0  0  0  0  0  0  0  0  0  0  0  0
   -1.0577   -3.3929    1.6133 H   0  0  0  0  0  0  0  0  0  0  0  0
   -0.8378   -1.4775    2.8213 H   0  0  0  0  0  0  0  0  0  0  0  0
    1.4631   -1.6238    3.5779 H   0  0  0  0  0  0  0  0  0  0  0  0
    0.8994    0.0039    3.0325 H   0  0  0  0  0  0  0  0  0  0  0  0
    2.0417    1.1359    1.2724 H   0  0  0  0  0  0  0  0  0  0  0  0
    6.0680    3.8589   -1.5703 H   0  0  0  0  0  0  0  0  0  0  0  0
    3.4930    4.3917   -1.9585 H   0  0  0  0  0  0  0  0  0  0  0  0
    5.4412   -0.6096   -0.4939 H   0  0  0  0  0  0  0  0  0  0  0  0
    4.9823   -2.7453    0.6524 H   0  0  0  0  0  0  0  0  0  0  0  0
   -5.0323   -2.5830    1.1391 H   0  0  0  0  0  0  0  0  0  0  0  0
   -6.0452   -0.3398    2.2054 H   0  0  0  0  0  0  0  0  0  0  0  0
  1  2  1  0
  2  3  2  0
  3  4  1  0
  4  5  2  0
  5  6  1  0
  6  7  1  0
  7  8  2  0
  7  9  1  0
  9 10  1  0
 10 11  1  0
 11 12  1  0
 12 13  1  0
 13 14  1  0
 14 15  1  0
 15 16  1  0
 16 17  2  0
 17 18  1  0
 18 19  1  0
 19 20  1  0
 20 21  2  0
 21 22  1  0
 22 23  2  0
 18 24  2  0
 24 25  1  0
 25 26  2  0
 26 27  1  0
  6 28  2  0
 28 29  1  0
 29 30  1  0
 30 31  2  0
 31 32  1  0
 32 33  2  0
 28  2  1  0
 33 29  1  0
 14  9  1  0
 26 16  1  0
 23 19  1  0
  1 34  1  0
  1 35  1  0
  1 36  1  0
  3 37  1  0
  4 38  1  0
  5 39  1  0
 10 40  1  0
 10 41  1  0
 11 42  1  0
 11 43  1  0
 13 44  1  0
 13 45  1  0
 14 46  1  1
 15 47  1  0
 15 48  1  0
 17 49  1  0
 21 50  1  0
 22 51  1  0
 24 52  1  0
 25 53  1  0
 31 54  1  0
 32 55  1  0
M  END
$$$$
