
     RDKit          3D

 54 56  0  0  0  0  0  0  0  0999 V2000
   -5.3254    2.7854   -1.8645 N   0  0  0  0  0  0  0  0  0  0  0  0
   -4.9950    1.6656   -0.9705 C   0  0  0  0  0  0  0  0  0  0  0  0
   -4.7111    0.4812   -1.8514 C   0  0  0  0  0  0  0  0  0  0  0  0
   -4.3538   -0.7631   -1.0923 C   0  0  0  0  0  0  0  0  0  0  0  0
   -3.1120   -0.5228   -0.2592 C   0  0  0  0  0  0  0  0  0  0  0  0
   -2.7200   -1.7611    0.5214 C   0  0  0  0  0  0  0  0  0  0  0  0
   -1.5628   -1.4564    1.2744 N   0  0  0  0  0  0  0  0  0  0  0  0
   -0.3871   -1.0477    0.5938 C   0  0  1  0  0  0  0  0  0  0  0  0
    0.6353   -0.7957    1.7201 C   0  0  0  0  0  0  0  0  0  0  0  0
    1.9440   -0.3569    1.2223 C   0  0  0  0  0  0  0  0  0  0  0  0
    2.9021   -1.3125    0.9561 C   0  0  0  0  0  0  0  0  0  0  0  0
    4.1671   -0.9553    0.4801 C   0  0  0  0  0  0  0  0  0  0  0  0
    4.4685    0.3836    0.2701 C   0  0  0  0  0  0  0  0  0  0  0  0
    3.5183    1.3478    0.5328 C   0  0  0  0  0  0  0  0  0  0  0  0
    2.2670    0.9540    1.0068 C   0  0  0  0  0  0  0  0  0  0  0  0
    4.0680    2.4922    0.2498 O   0  0  0  0  0  0  0  0  0  0  0  0
    5.2882    2.3853   -0.1746 C   0  0  0  0  0  0  0  0  0  0  0  0
    6.2741    3.2761   -0.5928 C   0  0  0  0  0  0  0  0  0  0  0  0
    7.5226    2.8758   -1.0046 C   0  0  0  0  0  0  0  0  0  0  0  0
    7.8135    1.5301   -1.0042 C   0  0  0  0  0  0  0  0  0  0  0  0
    6.8425    0.6223   -0.5900 C   0  0  0  0  0  0  0  0  0  0  0  0
    5.5942    1.0410   -0.1796 C   0  0  0  0  0  0  0  0  0  0  0  0
    0.1352   -2.0043   -0.3857 C   0  0  0  0  0  0  0  0  0  0  0  0
   -0.4197   -3.1173   -0.5461 O   0  0  0  0  0  0  0  0  0  0  0  0
    1.2442   -1.7368   -1.1705 O   0  0  0  0  0  0  0  0  0  0  0  0
   -4.1197   -2.0496    1.6811 P   0  0  0  0  0  5  0  0  0  0  0  0
   -3.6052   -2.5798    2.9988 O   0  0  0  0  0  0  0  0  0  0  0  0
   -5.2681   -3.0586    0.9863 O   0  0  0  0  0  0  0  0  0  0  0  0
   -4.8867   -0.5659    2.0215 O   0  0  0  0  0  0  0  0  0  0  0  0
   -5.4618    3.6449   -1.2871 H   0  0  0  0  0  0  0  0  0  0  0  0
   -6.2505    2.5290   -2.3070 H   0  0  0  0  0  0  0  0  0  0  0  0
   -5.8267    1.5044   -0.2771 H   0  0  0  0  0  0  0  0  0  0  0  0
   -4.0793    1.9476   -0.4024 H   0  0  0  0  0  0  0  0  0  0  0  0
   -5.6320    0.2573   -2.4323 H   0  0  0  0  0  0  0  0  0  0  0  0
   -3.9034    0.6999   -2.5510 H   0  0  0  0  0  0  0  0  0  0  0  0
   -4.1523   -1.5696   -1.7969 H   0  0  0  0  0  0  0  0  0  0  0  0
   -5.2036   -0.9956   -0.4219 H   0  0  0  0  0  0  0  0  0  0  0  0
   -3.3199    0.2767    0.4781 H   0  0  0  0  0  0  0  0  0  0  0  0
   -2.2515   -0.2170   -0.9107 H   0  0  0  0  0  0  0  0  0  0  0  0
   -2.6399   -2.6261   -0.1697 H   0  0  0  0  0  0  0  0  0  0  0  0
   -1.8104   -0.7247    1.9747 H   0  0  0  0  0  0  0  0  0  0  0  0
   -0.5556   -0.0285    0.1360 H   0  0  0  0  0  0  0  0  0  0  0  0
    0.1861   -0.0689    2.4272 H   0  0  0  0  0  0  0  0  0  0  0  0
    0.7219   -1.7578    2.2628 H   0  0  0  0  0  0  0  0  0  0  0  0
    2.7117   -2.3702    1.1051 H   0  0  0  0  0  0  0  0  0  0  0  0
    4.9275   -1.6937    0.2673 H   0  0  0  0  0  0  0  0  0  0  0  0
    1.5174    1.7041    1.2148 H   0  0  0  0  0  0  0  0  0  0  0  0
    6.0526    4.3338   -0.5956 H   0  0  0  0  0  0  0  0  0  0  0  0
    8.2856    3.5988   -1.3308 H   0  0  0  0  0  0  0  0  0  0  0  0
    8.7877    1.2090   -1.3249 H   0  0  0  0  0  0  0  0  0  0  0  0
    7.0588   -0.4242   -0.5861 H   0  0  0  0  0  0  0  0  0  0  0  0
    1.8659   -2.4656   -1.5071 H   0  0  0  0  0  0  0  0  0  0  0  0
   -4.8932   -3.8934    0.6304 H   0  0  0  0  0  0  0  0  0  0  0  0
   -5.3534   -0.6268    2.8967 H   0  0  0  0  0  0  0  0  0  0  0  0
  1  2  1  0
  2  3  1  0
  3  4  1  0
  4  5  1  0
  5  6  1  0
  6  7  1  0
  7  8  1  0
  8  9  1  0
  9 10  1  0
 10 11  2  0
 11 12  1  0
 12 13  2  0
 13 14  1  0
 14 15  2  0
 14 16  1  0
 16 17  1  0
 17 18  2  0
 18 19  1  0
 19 20  2  0
 20 21  1  0
 21 22  2  0
  8 23  1  0
 23 24  2  0
 23 25  1  0
  6 26  1  0
 26 27  2  0
 26 28  1  0
 26 29  1  0
 15 10  1  0
 22 17  1  0
 22 13  1  0
  1 30  1  0
  1 31  1  0
  2 32  1  0
  2 33  1  0
  3 34  1  0
  3 35  1  0
  4 36  1  0
  4 37  1  0
  5 38  1  0
  5 39  1  0
  6 40  1  0
  7 41  1  0
  8 42  1  6
  9 43  1  0
  9 44  1  0
 11 45  1  0
 12 46  1  0
 15 47  1  0
 18 48  1  0
 19 49  1  0
 20 50  1  0
 21 51  1  0
 25 52  1  0
 28 53  1  0
 29 54  1  0
M  END
$$$$
