
     RDKit          3D

 64 69  0  0  0  0  0  0  0  0999 V2000
    2.1602   -2.0273   -1.0116 O   0  0  0  0  0  0  0  0  0  0  0  0
    1.3508   -1.3800   -0.3141 C   0  0  0  0  0  0  0  0  0  0  0  0
    0.0929   -1.8894   -0.0956 O   0  0  0  0  0  0  0  0  0  0  0  0
    1.7612   -0.0865    0.2608 C   0  0  2  0  0  0  0  0  0  0  0  0
    0.8913    0.9972   -0.2757 C   0  0  0  0  0  0  0  0  0  0  0  0
   -0.5445    0.8672   -0.0041 C   0  0  0  0  0  0  0  0  0  0  0  0
   -1.4255    0.2668   -0.8692 C   0  0  0  0  0  0  0  0  0  0  0  0
   -2.7658    0.1413   -0.6039 C   0  0  0  0  0  0  0  0  0  0  0  0
   -3.2746    0.6251    0.5628 C   0  0  0  0  0  0  0  0  0  0  0  0
   -4.6575    0.5395    0.9246 N   0  0  0  0  0  0  0  0  0  0  0  0
   -5.7270    0.5817    0.1103 C   0  0  0  0  0  0  0  0  0  0  0  0
   -5.7164    0.7257   -1.3409 C   0  0  0  0  0  0  0  0  0  0  0  0
   -6.1955   -0.2469   -2.1926 C   0  0  0  0  0  0  0  0  0  0  0  0
   -6.1786   -0.0956   -3.5639 C   0  0  0  0  0  0  0  0  0  0  0  0
   -5.6628    1.0743   -4.1174 C   0  0  0  0  0  0  0  0  0  0  0  0
   -5.2031    2.0053   -3.2740 N   0  0  0  0  0  0  0  0  0  0  0  0
   -5.2134    1.8709   -1.9327 C   0  0  0  0  0  0  0  0  0  0  0  0
   -6.8157    0.4653    0.8911 N   0  0  0  0  0  0  0  0  0  0  0  0
   -6.4671    0.3494    2.1873 C   0  0  0  0  0  0  0  0  0  0  0  0
   -7.1702    0.2078    3.3626 C   0  0  0  0  0  0  0  0  0  0  0  0
   -6.4874    0.1149    4.5488 C   0  0  0  0  0  0  0  0  0  0  0  0
   -5.1060    0.1626    4.5683 C   0  0  0  0  0  0  0  0  0  0  0  0
   -4.4694    0.3020    3.3919 N   0  0  0  0  0  0  0  0  0  0  0  0
   -5.0869    0.3971    2.2071 C   0  0  0  0  0  0  0  0  0  0  0  0
   -2.4035    1.2319    1.4439 C   0  0  0  0  0  0  0  0  0  0  0  0
   -1.0574    1.3640    1.1899 C   0  0  0  0  0  0  0  0  0  0  0  0
    3.1516    0.2176   -0.0482 N   0  0  0  0  0  0  0  0  0  0  0  0
    4.2128   -0.6623    0.3841 C   0  0  0  0  0  0  0  0  0  0  0  0
    4.2671   -1.5363    1.3268 C   0  0  0  0  0  0  0  0  0  0  0  0
    3.0071   -2.1636    2.6704 Br  0  0  0  0  0  0  0  0  0  0  0  0
    5.6079   -1.8882    1.0281 C   0  0  0  0  0  0  0  0  0  0  0  0
    6.4348   -2.7184    1.5231 O   0  0  0  0  0  0  0  0  0  0  0  0
    5.5746   -0.9121   -0.0362 C   0  0  0  0  0  0  0  0  0  0  0  0
    5.7317   -1.4690   -1.4459 C   0  0  0  0  0  0  0  0  0  0  0  0
    6.2377   -0.3380   -2.3157 C   0  0  0  0  0  0  0  0  0  0  0  0
    7.6996   -0.0672   -1.9481 C   0  0  0  0  0  0  0  0  0  0  0  0
    7.8700   -0.1939   -0.4463 C   0  0  0  0  0  0  0  0  0  0  0  0
    6.5465    0.2439    0.1817 C   0  0  0  0  0  0  0  0  0  0  0  0
   -0.0386   -2.8992   -0.0801 H   0  0  0  0  0  0  0  0  0  0  0  0
    1.6196   -0.0760    1.3835 H   0  0  0  0  0  0  0  0  0  0  0  0
    1.2209    2.0133    0.0540 H   0  0  0  0  0  0  0  0  0  0  0  0
    1.0101    1.0255   -1.3987 H   0  0  0  0  0  0  0  0  0  0  0  0
   -1.0492   -0.1167   -1.8006 H   0  0  0  0  0  0  0  0  0  0  0  0
   -3.4361   -0.3370   -1.3044 H   0  0  0  0  0  0  0  0  0  0  0  0
   -6.5980   -1.1575   -1.7875 H   0  0  0  0  0  0  0  0  0  0  0  0
   -6.5520   -0.8545   -4.2177 H   0  0  0  0  0  0  0  0  0  0  0  0
   -5.6265    1.2427   -5.1872 H   0  0  0  0  0  0  0  0  0  0  0  0
   -4.8262    2.6636   -1.3245 H   0  0  0  0  0  0  0  0  0  0  0  0
   -8.2364    0.1696    3.3609 H   0  0  0  0  0  0  0  0  0  0  0  0
   -7.0348    0.0016    5.4936 H   0  0  0  0  0  0  0  0  0  0  0  0
   -4.5761    0.0889    5.5043 H   0  0  0  0  0  0  0  0  0  0  0  0
   -2.7719    1.6292    2.3823 H   0  0  0  0  0  0  0  0  0  0  0  0
   -0.3760    1.8477    1.8971 H   0  0  0  0  0  0  0  0  0  0  0  0
    3.3610    1.0792   -0.5850 H   0  0  0  0  0  0  0  0  0  0  0  0
    6.4185   -2.3355   -1.4484 H   0  0  0  0  0  0  0  0  0  0  0  0
    4.7589   -1.7852   -1.8777 H   0  0  0  0  0  0  0  0  0  0  0  0
    6.1736   -0.6575   -3.3756 H   0  0  0  0  0  0  0  0  0  0  0  0
    5.6457    0.5517   -2.1044 H   0  0  0  0  0  0  0  0  0  0  0  0
    8.3023   -0.7999   -2.5122 H   0  0  0  0  0  0  0  0  0  0  0  0
    7.9420    0.9595   -2.2772 H   0  0  0  0  0  0  0  0  0  0  0  0
    8.7105    0.4244   -0.0658 H   0  0  0  0  0  0  0  0  0  0  0  0
    8.0806   -1.2390   -0.1330 H   0  0  0  0  0  0  0  0  0  0  0  0
    6.7120    0.3017    1.2797 H   0  0  0  0  0  0  0  0  0  0  0  0
    6.1966    1.1827   -0.2451 H   0  0  0  0  0  0  0  0  0  0  0  0
  1  2  2  0
  2  3  1  0
  2  4  1  0
  4  5  1  0
  5  6  1  0
  6  7  2  0
  7  8  1  0
  8  9  2  0
  9 10  1  0
 10 11  1  0
 11 12  1  0
 12 13  2  0
 13 14  1  0
 14 15  2  0
 15 16  1  0
 16 17  2  0
 11 18  2  0
 18 19  1  0
 19 20  2  0
 20 21  1  0
 21 22  2  0
 22 23  1  0
 23 24  2  0
  9 25  1  0
 25 26  2  0
  4 27  1  0
 27 28  1  0
 28 29  2  0
 29 30  1  0
 29 31  1  0
 31 32  2  0
 31 33  1  0
 33 34  1  0
 34 35  1  0
 35 36  1  0
 36 37  1  0
 37 38  1  0
 26  6  1  0
 33 28  1  0
 24 10  1  0
 38 33  1  0
 17 12  1  0
 24 19  1  0
  3 39  1  0
  4 40  1  1
  5 41  1  0
  5 42  1  0
  7 43  1  0
  8 44  1  0
 13 45  1  0
 14 46  1  0
 15 47  1  0
 17 48  1  0
 20 49  1  0
 21 50  1  0
 22 51  1  0
 25 52  1  0
 26 53  1  0
 27 54  1  0
 34 55  1  0
 34 56  1  0
 35 57  1  0
 35 58  1  0
 36 59  1  0
 36 60  1  0
 37 61  1  0
 37 62  1  0
 38 63  1  0
 38 64  1  0
M  END
$$$$
