
     RDKit          3D

 46 49  0  0  0  0  0  0  0  0999 V2000
   -3.7488    2.4509    0.8356 N   0  0  0  0  0  0  0  0  0  0  0  0
   -4.7944    2.2329   -0.0928 C   0  0  0  0  0  0  0  0  0  0  0  0
   -5.6348    3.1388   -0.2973 O   0  0  0  0  0  0  0  0  0  0  0  0
   -4.9353    0.9853   -0.8286 C   0  0  0  0  0  0  0  0  0  0  0  0
   -5.9614    0.7899   -1.7255 C   0  0  0  0  0  0  0  0  0  0  0  0
   -6.0747   -0.3820   -2.4014 N   0  0  0  0  0  0  0  0  0  0  0  0
   -5.2103   -1.3961   -2.2371 C   0  0  0  0  0  0  0  0  0  0  0  0
   -4.1748   -1.2219   -1.3437 C   0  0  0  0  0  0  0  0  0  0  0  0
   -3.2784   -2.2344   -1.1490 O   0  0  0  0  0  0  0  0  0  0  0  0
   -2.1020   -2.1380   -0.4174 C   0  0  0  0  0  0  0  0  0  0  0  0
   -1.9362   -2.8641    0.7524 C   0  0  0  0  0  0  0  0  0  0  0  0
   -0.7854   -2.7775    1.4823 C   0  0  0  0  0  0  0  0  0  0  0  0
    0.2658   -1.9486    1.0673 C   0  0  0  0  0  0  0  0  0  0  0  0
    0.1320   -1.2206   -0.0855 C   0  0  0  0  0  0  0  0  0  0  0  0
    1.1726   -0.3771   -0.5491 C   0  0  0  0  0  0  0  0  0  0  0  0
    2.3692   -0.3511    0.2043 N   0  0  0  0  0  0  0  0  0  0  0  0
    3.3325    0.6785    0.0895 C   0  0  0  0  0  0  0  0  0  0  0  0
    3.1832    1.6463   -0.6861 O   0  0  0  0  0  0  0  0  0  0  0  0
    4.5849    0.6709    0.8870 C   0  0  0  0  0  0  0  0  0  0  0  0
    4.8971   -0.2924    1.7997 C   0  0  0  0  0  0  0  0  0  0  0  0
    6.0906   -0.2710    2.5342 C   0  0  0  0  0  0  0  0  0  0  0  0
    6.9990    0.7418    2.3522 C   0  0  0  0  0  0  0  0  0  0  0  0
    6.6895    1.7185    1.4314 C   0  0  0  0  0  0  0  0  0  0  0  0
    5.5142    1.6947    0.7102 C   0  0  0  0  0  0  0  0  0  0  0  0
    1.0074    0.3296   -1.7125 C   0  0  0  0  0  0  0  0  0  0  0  0
   -0.1830    0.2001   -2.4121 C   0  0  0  0  0  0  0  0  0  0  0  0
   -1.2007   -0.6046   -1.9888 C   0  0  0  0  0  0  0  0  0  0  0  0
   -1.0434   -1.3243   -0.8092 C   0  0  0  0  0  0  0  0  0  0  0  0
   -4.0304   -0.0262   -0.6316 C   0  0  0  0  0  0  0  0  0  0  0  0
   -3.5582    1.7672    1.5856 H   0  0  0  0  0  0  0  0  0  0  0  0
   -3.1669    3.3039    0.7648 H   0  0  0  0  0  0  0  0  0  0  0  0
   -6.6650    1.6015   -1.8664 H   0  0  0  0  0  0  0  0  0  0  0  0
   -5.3232   -2.3290   -2.7923 H   0  0  0  0  0  0  0  0  0  0  0  0
   -2.7682   -3.5052    1.0587 H   0  0  0  0  0  0  0  0  0  0  0  0
   -0.6509   -3.3485    2.4056 H   0  0  0  0  0  0  0  0  0  0  0  0
    1.1551   -1.9026    1.6823 H   0  0  0  0  0  0  0  0  0  0  0  0
    2.5988   -1.1411    0.8858 H   0  0  0  0  0  0  0  0  0  0  0  0
    4.1946   -1.1114    1.9681 H   0  0  0  0  0  0  0  0  0  0  0  0
    6.2820   -1.0607    3.2420 H   0  0  0  0  0  0  0  0  0  0  0  0
    7.9351    0.7760    2.9150 H   0  0  0  0  0  0  0  0  0  0  0  0
    7.3958    2.5390    1.2653 H   0  0  0  0  0  0  0  0  0  0  0  0
    5.2773    2.4758   -0.0196 H   0  0  0  0  0  0  0  0  0  0  0  0
    1.7922    0.9584   -2.0821 H   0  0  0  0  0  0  0  0  0  0  0  0
   -0.3128    0.7576   -3.3298 H   0  0  0  0  0  0  0  0  0  0  0  0
   -2.1239   -0.7282   -2.5396 H   0  0  0  0  0  0  0  0  0  0  0  0
   -3.2059    0.1082    0.0780 H   0  0  0  0  0  0  0  0  0  0  0  0
  1  2  1  0
  2  3  2  0
  2  4  1  0
  4  5  2  0
  5  6  1  0
  6  7  2  0
  7  8  1  0
  8  9  1  0
  9 10  1  0
 10 11  2  0
 11 12  1  0
 12 13  2  0
 13 14  1  0
 14 15  2  0
 15 16  1  0
 16 17  1  0
 17 18  2  0
 17 19  1  0
 19 20  2  0
 20 21  1  0
 21 22  2  0
 22 23  1  0
 23 24  2  0
 15 25  1  0
 25 26  2  0
 26 27  1  0
 27 28  2  0
  8 29  2  0
 29  4  1  0
 28 10  1  0
 28 14  1  0
 24 19  1  0
  1 30  1  0
  1 31  1  0
  5 32  1  0
  7 33  1  0
 11 34  1  0
 12 35  1  0
 13 36  1  0
 16 37  1  0
 20 38  1  0
 21 39  1  0
 22 40  1  0
 23 41  1  0
 24 42  1  0
 25 43  1  0
 26 44  1  0
 27 45  1  0
 29 46  1  0
M  END
$$$$
