
     RDKit          3D

 39 42  0  0  0  0  0  0  0  0999 V2000
    0.1886   -0.5030   -0.7440 O   0  0  0  0  0  0  0  0  0  0  0  0
    0.3174    0.7200   -0.4618 C   0  0  0  0  0  0  0  0  0  0  0  0
   -0.6932    1.7406   -0.0693 C   0  0  0  0  0  0  0  0  0  0  0  0
   -2.0606    1.1944   -0.0113 C   0  0  0  0  0  0  0  0  0  0  0  0
   -2.7165    0.6186    1.0635 C   0  0  0  0  0  0  0  0  0  0  0  0
   -4.0020    0.1537    0.9558 C   0  0  0  0  0  0  0  0  0  0  0  0
   -4.7157    0.2301   -0.2207 C   0  0  0  0  0  0  0  0  0  0  0  0
   -5.9968   -0.2421   -0.2985 C   0  0  0  0  0  0  0  0  0  0  0  0
   -6.6071   -0.8103    0.8100 C   0  0  0  0  0  0  0  0  0  0  0  0
   -5.8804   -0.8800    1.9810 C   0  0  0  0  0  0  0  0  0  0  0  0
   -4.5815   -0.4092    2.0864 C   0  0  0  0  0  0  0  0  0  0  0  0
   -4.0545    0.8054   -1.2872 C   0  0  0  0  0  0  0  0  0  0  0  0
   -2.7607    1.2859   -1.2207 C   0  0  0  0  0  0  0  0  0  0  0  0
    1.6253    1.2956   -0.5043 N   0  0  0  0  0  0  0  0  0  0  0  0
    2.7913    0.5538   -0.8502 C   0  0  0  0  0  0  0  0  0  0  0  0
    3.6524   -0.1586   -0.0085 C   0  0  0  0  0  0  0  0  0  0  0  0
    4.6112   -0.6848   -0.8516 C   0  0  0  0  0  0  0  0  0  0  0  0
    4.3344   -0.3072   -2.1128 N   0  0  0  0  0  0  0  0  0  0  0  0
    3.2387    0.4419   -2.1355 N   0  0  0  0  0  0  0  0  0  0  0  0
    5.7778   -1.5414   -0.4346 C   0  0  0  0  0  0  0  0  0  0  0  0
    5.8114   -2.1602    0.8894 C   0  0  0  0  0  0  0  0  0  0  0  0
    6.5773   -0.9076    0.6962 C   0  0  0  0  0  0  0  0  0  0  0  0
   -0.6654    2.6427   -0.6975 H   0  0  0  0  0  0  0  0  0  0  0  0
   -0.4235    2.0761    0.9681 H   0  0  0  0  0  0  0  0  0  0  0  0
   -2.1293    0.5772    1.9600 H   0  0  0  0  0  0  0  0  0  0  0  0
   -6.5124   -0.1628   -1.2288 H   0  0  0  0  0  0  0  0  0  0  0  0
   -7.6295   -1.1872    0.7480 H   0  0  0  0  0  0  0  0  0  0  0  0
   -6.3866   -1.3285    2.8244 H   0  0  0  0  0  0  0  0  0  0  0  0
   -4.0758   -0.4974    3.0336 H   0  0  0  0  0  0  0  0  0  0  0  0
   -4.5908    0.8790   -2.2252 H   0  0  0  0  0  0  0  0  0  0  0  0
   -2.3312    1.7234   -2.1262 H   0  0  0  0  0  0  0  0  0  0  0  0
    1.8990    2.2889   -0.2988 H   0  0  0  0  0  0  0  0  0  0  0  0
    3.5543   -0.2498    1.0452 H   0  0  0  0  0  0  0  0  0  0  0  0
    2.8523    0.8377   -3.0211 H   0  0  0  0  0  0  0  0  0  0  0  0
    6.4505   -1.8743   -1.2674 H   0  0  0  0  0  0  0  0  0  0  0  0
    4.8829   -2.1703    1.4918 H   0  0  0  0  0  0  0  0  0  0  0  0
    6.4242   -3.0806    0.9965 H   0  0  0  0  0  0  0  0  0  0  0  0
    6.1535   -0.0288    1.2313 H   0  0  0  0  0  0  0  0  0  0  0  0
    7.6707   -0.8811    0.6589 H   0  0  0  0  0  0  0  0  0  0  0  0
  1  2  2  0
  2  3  1  0
  3  4  1  0
  4  5  2  0
  5  6  1  0
  6  7  2  0
  7  8  1  0
  8  9  2  0
  9 10  1  0
 10 11  2  0
  7 12  1  0
 12 13  2  0
  2 14  1  0
 14 15  1  0
 15 16  2  0
 16 17  1  0
 17 18  2  0
 18 19  1  0
 17 20  1  0
 20 21  1  0
 21 22  1  0
 13  4  1  0
 19 15  1  0
 22 20  1  0
 11  6  1  0
  3 23  1  0
  3 24  1  0
  5 25  1  0
  8 26  1  0
  9 27  1  0
 10 28  1  0
 11 29  1  0
 12 30  1  0
 13 31  1  0
 14 32  1  0
 16 33  1  0
 19 34  1  0
 20 35  1  0
 21 36  1  0
 21 37  1  0
 22 38  1  0
 22 39  1  0
M  END
$$$$
