
     RDKit          3D

 46 50  0  0  0  0  0  0  0  0999 V2000
    3.5262   -4.0666   -0.6765 N   0  0  0  0  0  0  0  0  0  0  0  0
    3.4282   -3.2047    0.1112 C   0  0  0  0  0  0  0  0  0  0  0  0
    3.3127   -2.1343    1.0567 C   0  0  0  0  0  0  0  0  0  0  0  0
    4.1749   -1.9592    2.1446 C   0  0  0  0  0  0  0  0  0  0  0  0
    3.7387   -0.8753    2.7702 N   0  0  0  0  0  0  0  0  0  0  0  0
    2.6757   -0.3783    2.1442 C   0  0  0  0  0  0  0  0  0  0  0  0
    1.8963    0.7233    2.4254 C   0  0  0  0  0  0  0  0  0  0  0  0
    0.8309    1.0245    1.6005 C   0  0  0  0  0  0  0  0  0  0  0  0
    0.5286    0.2411    0.4942 C   0  0  0  0  0  0  0  0  0  0  0  0
   -0.5861    0.5533   -0.3689 C   0  0  0  0  0  0  0  0  0  0  0  0
   -0.7015    1.7555   -1.0694 C   0  0  0  0  0  0  0  0  0  0  0  0
    0.2386    2.8743   -1.0571 C   0  0  0  0  0  0  0  0  0  0  0  0
    1.5299    2.7750   -1.5011 C   0  0  0  0  0  0  0  0  0  0  0  0
    2.3703    3.8581   -1.4666 C   0  0  0  0  0  0  0  0  0  0  0  0
    1.9604    5.0931   -0.9864 C   0  0  0  0  0  0  0  0  0  0  0  0
    2.7596    6.1805   -0.9377 F   0  0  0  0  0  0  0  0  0  0  0  0
    0.6628    5.2094   -0.5356 C   0  0  0  0  0  0  0  0  0  0  0  0
   -0.1838    4.1146   -0.5715 C   0  0  0  0  0  0  0  0  0  0  0  0
   -1.8603    1.6384   -1.7402 N   0  0  0  0  0  0  0  0  0  0  0  0
   -2.4151    0.4417   -1.4661 C   0  0  0  0  0  0  0  0  0  0  0  0
   -1.6356   -0.2473   -0.6140 N   0  0  0  0  0  0  0  0  0  0  0  0
   -1.9166   -1.5742   -0.1012 C   0  0  0  0  0  0  0  0  0  0  0  0
   -3.2876   -1.6295    0.5595 C   0  0  0  0  0  0  0  0  0  0  0  0
   -3.5862   -3.0953    0.5381 C   0  0  0  0  0  0  0  0  0  0  0  0
   -2.8663   -3.6570   -0.6595 C   0  0  0  0  0  0  0  0  0  0  0  0
   -2.0897   -2.5106   -1.2681 C   0  0  0  0  0  0  0  0  0  0  0  0
    1.3387   -0.8499    0.2564 C   0  0  0  0  0  0  0  0  0  0  0  0
    2.3896   -1.1440    1.0732 N   0  0  0  0  0  0  0  0  0  0  0  0
    5.0165   -2.5506    2.4419 H   0  0  0  0  0  0  0  0  0  0  0  0
    2.1606    1.3082    3.2926 H   0  0  0  0  0  0  0  0  0  0  0  0
    0.2483    1.8980    1.8607 H   0  0  0  0  0  0  0  0  0  0  0  0
    1.8899    1.8448   -1.8789 H   0  0  0  0  0  0  0  0  0  0  0  0
    3.4082    3.8188   -1.8125 H   0  0  0  0  0  0  0  0  0  0  0  0
    0.2791    6.1565   -0.1449 H   0  0  0  0  0  0  0  0  0  0  0  0
   -1.1984    4.2027   -0.2202 H   0  0  0  0  0  0  0  0  0  0  0  0
   -3.3545    0.0766   -1.8687 H   0  0  0  0  0  0  0  0  0  0  0  0
   -1.1978   -1.9111    0.6421 H   0  0  0  0  0  0  0  0  0  0  0  0
   -3.9681   -1.0283   -0.0646 H   0  0  0  0  0  0  0  0  0  0  0  0
   -3.2484   -1.1943    1.5797 H   0  0  0  0  0  0  0  0  0  0  0  0
   -4.6903   -3.2916    0.4762 H   0  0  0  0  0  0  0  0  0  0  0  0
   -3.2589   -3.5529    1.4898 H   0  0  0  0  0  0  0  0  0  0  0  0
   -2.1078   -4.3905   -0.2843 H   0  0  0  0  0  0  0  0  0  0  0  0
   -3.5320   -4.1448   -1.3804 H   0  0  0  0  0  0  0  0  0  0  0  0
   -1.1479   -2.8819   -1.6881 H   0  0  0  0  0  0  0  0  0  0  0  0
   -2.7231   -1.9920   -2.0192 H   0  0  0  0  0  0  0  0  0  0  0  0
    1.1911   -1.5239   -0.5755 H   0  0  0  0  0  0  0  0  0  0  0  0
  1  2  3  0
  2  3  1  0
  3  4  2  0
  4  5  1  0
  5  6  2  0
  6  7  1  0
  7  8  2  0
  8  9  1  0
  9 10  1  0
 10 11  2  0
 11 12  1  0
 12 13  2  0
 13 14  1  0
 14 15  2  0
 15 16  1  0
 15 17  1  0
 17 18  2  0
 11 19  1  0
 19 20  2  0
 20 21  1  0
 21 22  1  0
 22 23  1  0
 23 24  1  0
 24 25  1  0
 25 26  1  0
  9 27  2  0
 27 28  1  0
 28  3  1  0
 28  6  1  0
 21 10  1  0
 26 22  1  0
 18 12  1  0
  4 29  1  0
  7 30  1  0
  8 31  1  0
 13 32  1  0
 14 33  1  0
 17 34  1  0
 18 35  1  0
 20 36  1  0
 22 37  1  0
 23 38  1  0
 23 39  1  0
 24 40  1  0
 24 41  1  0
 25 42  1  0
 25 43  1  0
 26 44  1  0
 26 45  1  0
 27 46  1  0
M  END
$$$$
