
     RDKit          3D

 69 71  0  0  0  0  0  0  0  0999 V2000
    7.6428   -1.5261    1.0972 C   0  0  0  0  0  0  0  0  0  0  0  0
    6.5383   -0.7041    0.5251 N   0  0  0  0  0  0  0  0  0  0  0  0
    5.5114   -0.7742    1.5802 C   0  0  0  0  0  0  0  0  0  0  0  0
    6.0971   -1.3348   -0.6731 C   0  0  0  0  0  0  0  0  0  0  0  0
    5.1321   -0.5852   -1.5280 C   0  0  0  0  0  0  0  0  0  0  0  0
    3.8976   -0.2122   -0.9836 N   0  0  0  0  0  0  0  0  0  0  0  0
    2.7585   -1.1059   -1.0755 C   0  0  0  0  0  0  0  0  0  0  0  0
    1.5684   -0.4030   -1.6078 C   0  0  0  0  0  0  0  0  0  0  0  0
    0.8592    0.4888   -0.6935 N   0  0  0  0  0  0  0  0  0  0  0  0
   -0.4579    0.0830   -0.3678 C   0  0  0  0  0  0  0  0  0  0  0  0
   -0.8118   -1.0781   -0.8030 O   0  0  0  0  0  0  0  0  0  0  0  0
   -1.4481    0.8557    0.4118 C   0  0  0  0  0  0  0  0  0  0  0  0
   -1.5695    2.2003    0.4720 C   0  0  0  0  0  0  0  0  0  0  0  0
   -2.5705    2.7745    1.1500 C   0  0  0  0  0  0  0  0  0  0  0  0
   -2.9402    4.1916    1.3793 C   0  0  0  0  0  0  0  0  0  0  0  0
   -3.8842    4.7104    0.3238 C   0  0  0  0  0  0  0  0  0  0  0  0
   -3.4962    4.3281    2.7758 C   0  0  0  0  0  0  0  0  0  0  0  0
   -1.6682    5.0044    1.3016 C   0  0  0  0  0  0  0  0  0  0  0  0
   -3.4994    1.3640    1.8084 S   0  0  0  0  0  0  0  0  0  0  0  0
   -2.4247    0.1365    1.0906 C   0  0  0  0  0  0  0  0  0  0  0  0
   -2.5917   -1.2710    1.2213 N   0  0  0  0  0  0  0  0  0  0  0  0
   -3.3913   -1.8955    0.2063 C   0  0  0  0  0  0  0  0  0  0  0  0
   -3.8943   -1.1988   -0.7229 O   0  0  0  0  0  0  0  0  0  0  0  0
   -3.6540   -3.2926    0.1897 N   0  0  0  0  0  0  0  0  0  0  0  0
   -4.4455   -3.8221   -0.8633 C   0  0  0  0  0  0  0  0  0  0  0  0
   -3.8605   -4.2672   -2.0179 C   0  0  0  0  0  0  0  0  0  0  0  0
   -4.6139   -4.7779   -3.0484 C   0  0  0  0  0  0  0  0  0  0  0  0
   -5.9800   -4.8439   -2.9211 C   0  0  0  0  0  0  0  0  0  0  0  0
   -6.5820   -4.4024   -1.7720 C   0  0  0  0  0  0  0  0  0  0  0  0
   -8.3326   -4.4943   -1.6254 Cl  0  0  0  0  0  0  0  0  0  0  0  0
   -5.8093   -3.8831   -0.7241 C   0  0  0  0  0  0  0  0  0  0  0  0
   -6.6091   -3.3300    0.7262 Cl  0  0  0  0  0  0  0  0  0  0  0  0
    1.3594    1.6665   -0.0644 C   0  0  0  0  0  0  0  0  0  0  0  0
    2.7241    1.4924    0.5299 C   0  0  0  0  0  0  0  0  0  0  0  0
    3.7977    1.0726   -0.3630 C   0  0  0  0  0  0  0  0  0  0  0  0
    4.6997    1.9089   -0.5989 O   0  0  0  0  0  0  0  0  0  0  0  0
    8.5815   -1.2623    0.5827 H   0  0  0  0  0  0  0  0  0  0  0  0
    7.3822   -2.5836    0.9316 H   0  0  0  0  0  0  0  0  0  0  0  0
    7.7749   -1.3077    2.1649 H   0  0  0  0  0  0  0  0  0  0  0  0
    5.8799   -1.3943    2.4315 H   0  0  0  0  0  0  0  0  0  0  0  0
    4.6209   -1.2276    1.1090 H   0  0  0  0  0  0  0  0  0  0  0  0
    5.2684    0.2502    1.9377 H   0  0  0  0  0  0  0  0  0  0  0  0
    5.7345   -2.3710   -0.4503 H   0  0  0  0  0  0  0  0  0  0  0  0
    7.0078   -1.5105   -1.3260 H   0  0  0  0  0  0  0  0  0  0  0  0
    5.7247    0.3273   -1.8972 H   0  0  0  0  0  0  0  0  0  0  0  0
    5.0272   -1.1849   -2.4858 H   0  0  0  0  0  0  0  0  0  0  0  0
    3.0265   -1.9043   -1.7943 H   0  0  0  0  0  0  0  0  0  0  0  0
    2.5263   -1.5953   -0.1255 H   0  0  0  0  0  0  0  0  0  0  0  0
    1.7729    0.1895   -2.5290 H   0  0  0  0  0  0  0  0  0  0  0  0
    0.8314   -1.1858   -1.9298 H   0  0  0  0  0  0  0  0  0  0  0  0
   -0.8711    2.9042   -0.0832 H   0  0  0  0  0  0  0  0  0  0  0  0
   -4.9490    4.4975    0.6162 H   0  0  0  0  0  0  0  0  0  0  0  0
   -3.8064    5.8156    0.2689 H   0  0  0  0  0  0  0  0  0  0  0  0
   -3.6531    4.2648   -0.6654 H   0  0  0  0  0  0  0  0  0  0  0  0
   -4.5059    3.9011    2.7821 H   0  0  0  0  0  0  0  0  0  0  0  0
   -3.4891    5.3980    3.1156 H   0  0  0  0  0  0  0  0  0  0  0  0
   -2.8729    3.6750    3.4292 H   0  0  0  0  0  0  0  0  0  0  0  0
   -1.5781    5.7410    2.1234 H   0  0  0  0  0  0  0  0  0  0  0  0
   -1.6237    5.5714    0.3303 H   0  0  0  0  0  0  0  0  0  0  0  0
   -0.7612    4.3665    1.3448 H   0  0  0  0  0  0  0  0  0  0  0  0
   -2.1816   -1.8317    1.9783 H   0  0  0  0  0  0  0  0  0  0  0  0
   -3.2449   -3.8680    0.9643 H   0  0  0  0  0  0  0  0  0  0  0  0
   -2.7749   -4.1957   -2.0752 H   0  0  0  0  0  0  0  0  0  0  0  0
   -4.0872   -5.1089   -3.9246 H   0  0  0  0  0  0  0  0  0  0  0  0
   -6.5561   -5.2530   -3.7547 H   0  0  0  0  0  0  0  0  0  0  0  0
    0.7384    1.8960    0.8768 H   0  0  0  0  0  0  0  0  0  0  0  0
    1.3528    2.5640   -0.6894 H   0  0  0  0  0  0  0  0  0  0  0  0
    2.6523    0.8466    1.4488 H   0  0  0  0  0  0  0  0  0  0  0  0
    3.0014    2.5009    0.9592 H   0  0  0  0  0  0  0  0  0  0  0  0
  1  2  1  0
  2  3  1  0
  2  4  1  0
  4  5  1  0
  5  6  1  0
  6  7  1  0
  7  8  1  0
  8  9  1  0
  9 10  1  0
 10 11  2  0
 10 12  1  0
 12 13  1  0
 13 14  2  0
 14 15  1  0
 15 16  1  0
 15 17  1  0
 15 18  1  0
 14 19  1  0
 19 20  1  0
 20 21  1  0
 21 22  1  0
 22 23  2  0
 22 24  1  0
 24 25  1  0
 25 26  2  0
 26 27  1  0
 27 28  2  0
 28 29  1  0
 29 30  1  0
 29 31  2  0
 31 32  1  0
  9 33  1  0
 33 34  1  0
 34 35  1  0
 35 36  2  0
 35  6  1  0
 20 12  2  0
 31 25  1  0
  1 37  1  0
  1 38  1  0
  1 39  1  0
  3 40  1  0
  3 41  1  0
  3 42  1  0
  4 43  1  0
  4 44  1  0
  5 45  1  0
  5 46  1  0
  7 47  1  0
  7 48  1  0
  8 49  1  0
  8 50  1  0
 13 51  1  0
 16 52  1  0
 16 53  1  0
 16 54  1  0
 17 55  1  0
 17 56  1  0
 17 57  1  0
 18 58  1  0
 18 59  1  0
 18 60  1  0
 21 61  1  0
 24 62  1  0
 26 63  1  0
 27 64  1  0
 28 65  1  0
 33 66  1  0
 33 67  1  0
 34 68  1  0
 34 69  1  0
M  END
$$$$
