
     RDKit          3D

 69 74  0  0  0  0  0  0  0  0999 V2000
   -5.7160    3.3787   -0.8566 C   0  0  0  0  0  0  0  0  0  0  0  0
   -6.4349    2.2400   -0.2086 C   0  0  0  0  0  0  0  0  0  0  0  0
   -7.7917    2.0657   -0.3683 C   0  0  0  0  0  0  0  0  0  0  0  0
   -8.4347    1.0180    0.2297 C   0  0  0  0  0  0  0  0  0  0  0  0
   -7.7342    0.1178    1.0035 C   0  0  0  0  0  0  0  0  0  0  0  0
   -6.4262    0.3239    1.1308 N   0  0  0  0  0  0  0  0  0  0  0  0
   -5.7467    1.3377    0.5640 C   0  0  0  0  0  0  0  0  0  0  0  0
   -4.2878    1.4673    0.7779 C   0  0  0  0  0  0  0  0  0  0  0  0
   -3.5209    1.0477   -0.3849 N   0  0  0  0  0  0  0  0  0  0  0  0
   -3.7482   -0.3206   -0.7313 C   0  0  0  0  0  0  0  0  0  0  0  0
   -2.4982   -0.9585   -1.3484 C   0  0  0  0  0  0  0  0  0  0  0  0
   -1.3341   -0.9045   -0.4242 C   0  0  0  0  0  0  0  0  0  0  0  0
   -1.5314    0.1764    0.5898 C   0  0  0  0  0  0  0  0  0  0  0  0
   -2.1314    1.3726   -0.1476 C   0  0  0  0  0  0  0  0  0  0  0  0
   -0.0360   -0.5700   -1.1311 C   0  0  0  0  0  0  0  0  0  0  0  0
    0.0840    0.0252   -2.2233 O   0  0  0  0  0  0  0  0  0  0  0  0
    1.0418   -1.0577   -0.3285 N   0  0  0  0  0  0  0  0  0  0  0  0
    2.4041   -0.6096   -0.3196 C   0  0  0  0  0  0  0  0  0  0  0  0
    3.3772   -1.1935    0.4539 C   0  0  0  0  0  0  0  0  0  0  0  0
    4.6860   -0.7468    0.4678 C   0  0  0  0  0  0  0  0  0  0  0  0
    5.0844    0.3187   -0.3026 C   0  0  0  0  0  0  0  0  0  0  0  0
    6.4616    0.7883   -0.2852 C   0  0  0  0  0  0  0  0  0  0  0  0
    7.2213    0.6806    0.8863 C   0  0  0  0  0  0  0  0  0  0  0  0
    8.5288    1.1085    0.9576 C   0  0  0  0  0  0  0  0  0  0  0  0
    9.1365    1.6665   -0.1474 C   0  0  0  0  0  0  0  0  0  0  0  0
   10.5300    2.1283   -0.0907 C   0  0  0  0  0  0  0  0  0  0  0  0
   11.2261    2.0392    0.9476 O   0  0  0  0  0  0  0  0  0  0  0  0
   11.1061    2.6837   -1.2195 O   0  0  0  0  0  0  0  0  0  0  0  0
    8.3892    1.7725   -1.3004 C   0  0  0  0  0  0  0  0  0  0  0  0
    7.0798    1.3479   -1.3844 C   0  0  0  0  0  0  0  0  0  0  0  0
    4.1262    0.9169   -1.0840 C   0  0  0  0  0  0  0  0  0  0  0  0
    2.8007    0.4624   -1.0961 C   0  0  0  0  0  0  0  0  0  0  0  0
    0.4469   -2.0827    0.4838 C   0  0  0  0  0  0  0  0  0  0  0  0
    1.0323   -2.7850    1.3417 O   0  0  0  0  0  0  0  0  0  0  0  0
   -0.9637   -2.1842    0.1543 N   0  0  0  0  0  0  0  0  0  0  0  0
   -1.7093   -3.3559    0.4032 C   0  0  0  0  0  0  0  0  0  0  0  0
   -2.3643   -3.5056    1.6129 C   0  0  0  0  0  0  0  0  0  0  0  0
   -3.0817   -4.6124    1.8845 N   0  0  0  0  0  0  0  0  0  0  0  0
   -3.2013   -5.6300    0.9988 C   0  0  0  0  0  0  0  0  0  0  0  0
   -2.5472   -5.4764   -0.2045 C   0  0  0  0  0  0  0  0  0  0  0  0
   -1.8309   -4.3733   -0.4780 N   0  0  0  0  0  0  0  0  0  0  0  0
   -4.9441    3.7972   -0.1801 H   0  0  0  0  0  0  0  0  0  0  0  0
   -6.4713    4.1755   -1.0206 H   0  0  0  0  0  0  0  0  0  0  0  0
   -5.2569    3.0034   -1.7769 H   0  0  0  0  0  0  0  0  0  0  0  0
   -8.3314    2.7982   -0.9916 H   0  0  0  0  0  0  0  0  0  0  0  0
   -9.5015    0.8835    0.1022 H   0  0  0  0  0  0  0  0  0  0  0  0
   -8.2563   -0.7143    1.4762 H   0  0  0  0  0  0  0  0  0  0  0  0
   -4.0288    0.8315    1.6660 H   0  0  0  0  0  0  0  0  0  0  0  0
   -3.9987    2.5040    1.0744 H   0  0  0  0  0  0  0  0  0  0  0  0
   -4.0931   -0.8981    0.1479 H   0  0  0  0  0  0  0  0  0  0  0  0
   -4.5463   -0.3770   -1.4886 H   0  0  0  0  0  0  0  0  0  0  0  0
   -2.2748   -0.3611   -2.2585 H   0  0  0  0  0  0  0  0  0  0  0  0
   -2.7909   -1.9793   -1.6709 H   0  0  0  0  0  0  0  0  0  0  0  0
   -0.5416    0.4507    1.0316 H   0  0  0  0  0  0  0  0  0  0  0  0
   -2.2479   -0.0999    1.3766 H   0  0  0  0  0  0  0  0  0  0  0  0
   -2.0111    2.2450    0.4931 H   0  0  0  0  0  0  0  0  0  0  0  0
   -1.6501    1.5268   -1.1376 H   0  0  0  0  0  0  0  0  0  0  0  0
    3.1197   -2.0299    1.0730 H   0  0  0  0  0  0  0  0  0  0  0  0
    5.3748   -1.2849    1.1196 H   0  0  0  0  0  0  0  0  0  0  0  0
    6.7095    0.2340    1.7430 H   0  0  0  0  0  0  0  0  0  0  0  0
    9.0766    1.0054    1.8810 H   0  0  0  0  0  0  0  0  0  0  0  0
   11.9133    3.3231   -1.1459 H   0  0  0  0  0  0  0  0  0  0  0  0
    8.8823    2.2147   -2.1645 H   0  0  0  0  0  0  0  0  0  0  0  0
    6.5092    1.4431   -2.3084 H   0  0  0  0  0  0  0  0  0  0  0  0
    4.3380    1.7649   -1.7286 H   0  0  0  0  0  0  0  0  0  0  0  0
    2.0643    0.9525   -1.7159 H   0  0  0  0  0  0  0  0  0  0  0  0
   -2.3254   -2.7338    2.3922 H   0  0  0  0  0  0  0  0  0  0  0  0
   -3.7816   -6.5190    1.2265 H   0  0  0  0  0  0  0  0  0  0  0  0
   -2.6280   -6.2743   -0.9253 H   0  0  0  0  0  0  0  0  0  0  0  0
  1  2  1  0
  2  3  2  0
  3  4  1  0
  4  5  2  0
  5  6  1  0
  6  7  2  0
  7  8  1  0
  8  9  1  0
  9 10  1  0
 10 11  1  0
 11 12  1  0
 12 13  1  0
 13 14  1  0
 12 15  1  0
 15 16  2  0
 15 17  1  0
 17 18  1  0
 18 19  2  0
 19 20  1  0
 20 21  2  0
 21 22  1  0
 22 23  2  0
 23 24  1  0
 24 25  2  0
 25 26  1  0
 26 27  2  0
 26 28  1  0
 25 29  1  0
 29 30  2  0
 21 31  1  0
 31 32  2  0
 17 33  1  0
 33 34  2  0
 33 35  1  0
 35 36  1  0
 36 37  2  0
 37 38  1  0
 38 39  2  0
 39 40  1  0
 40 41  2  0
  7  2  1  0
 14  9  1  0
 32 18  1  0
 41 36  1  0
 35 12  1  0
 30 22  1  0
  1 42  1  0
  1 43  1  0
  1 44  1  0
  3 45  1  0
  4 46  1  0
  5 47  1  0
  8 48  1  0
  8 49  1  0
 10 50  1  0
 10 51  1  0
 11 52  1  0
 11 53  1  0
 13 54  1  0
 13 55  1  0
 14 56  1  0
 14 57  1  0
 19 58  1  0
 20 59  1  0
 23 60  1  0
 24 61  1  0
 28 62  1  0
 29 63  1  0
 30 64  1  0
 31 65  1  0
 32 66  1  0
 37 67  1  0
 39 68  1  0
 40 69  1  0
M  END
$$$$
