
     RDKit          3D

 48 52  0  0  0  0  0  0  0  0999 V2000
   -6.2228    1.9453   -0.4370 N   0  0  0  0  0  0  0  0  0  0  0  0
   -6.1959    0.8196   -0.0815 C   0  0  0  0  0  0  0  0  0  0  0  0
   -6.1686   -0.5423    0.3232 C   0  0  0  0  0  0  0  0  0  0  0  0
   -7.2190   -1.3897   -0.0531 C   0  0  0  0  0  0  0  0  0  0  0  0
   -7.2150   -2.7145    0.3246 C   0  0  0  0  0  0  0  0  0  0  0  0
   -8.2160   -3.5580   -0.0235 F   0  0  0  0  0  0  0  0  0  0  0  0
   -6.1810   -3.2247    1.0757 C   0  0  0  0  0  0  0  0  0  0  0  0
   -5.1703   -2.3665    1.4257 C   0  0  0  0  0  0  0  0  0  0  0  0
   -5.1223   -1.0313    1.0755 C   0  0  0  0  0  0  0  0  0  0  0  0
   -4.0240   -0.1582    1.4766 C   0  0  0  0  0  0  0  0  0  0  0  0
   -2.7081   -0.5837    1.3410 C   0  0  0  0  0  0  0  0  0  0  0  0
   -1.6473    0.2139    1.7138 C   0  0  0  0  0  0  0  0  0  0  0  0
   -1.8438    1.4734    2.2397 C   0  0  0  0  0  0  0  0  0  0  0  0
   -0.6975    2.3407    2.6473 C   0  0  0  0  0  0  0  0  0  0  0  0
   -0.1554    3.3636    1.2725 S   0  0  0  0  0  0  0  0  0  0  0  0
    0.5184    2.2934    0.0101 C   0  0  0  0  0  0  0  0  0  0  0  0
   -0.1286    1.7101   -1.0188 N   0  0  0  0  0  0  0  0  0  0  0  0
    0.7937    1.0207   -1.6672 N   0  0  0  0  0  0  0  0  0  0  0  0
    1.9868    1.1633   -1.0671 C   0  0  0  0  0  0  0  0  0  0  0  0
    3.2428    0.5570   -1.4864 C   0  0  0  0  0  0  0  0  0  0  0  0
    3.3032   -0.2505   -2.6012 C   0  0  0  0  0  0  0  0  0  0  0  0
    4.4716   -0.8412   -3.0209 C   0  0  0  0  0  0  0  0  0  0  0  0
    5.6496   -0.6355   -2.3162 C   0  0  0  0  0  0  0  0  0  0  0  0
    5.6127    0.1671   -1.2001 C   0  0  0  0  0  0  0  0  0  0  0  0
    4.4240    0.7466   -0.8036 C   0  0  0  0  0  0  0  0  0  0  0  0
    6.7966    0.3640   -0.5056 O   0  0  0  0  0  0  0  0  0  0  0  0
    8.0422    0.2624   -1.1446 C   0  0  0  0  0  0  0  0  0  0  0  0
    8.0862   -0.8362   -2.1626 C   0  0  0  0  0  0  0  0  0  0  0  0
    6.8377   -1.1993   -2.6902 O   0  0  0  0  0  0  0  0  0  0  0  0
    1.7794    1.9443   -0.0509 O   0  0  0  0  0  0  0  0  0  0  0  0
   -3.1476    1.9007    2.3763 C   0  0  0  0  0  0  0  0  0  0  0  0
   -4.2107    1.1029    2.0033 C   0  0  0  0  0  0  0  0  0  0  0  0
   -8.0326   -1.0118   -0.6371 H   0  0  0  0  0  0  0  0  0  0  0  0
   -6.1737   -4.2659    1.3760 H   0  0  0  0  0  0  0  0  0  0  0  0
   -4.3336   -2.7299    2.0189 H   0  0  0  0  0  0  0  0  0  0  0  0
   -2.5690   -1.5837    0.9228 H   0  0  0  0  0  0  0  0  0  0  0  0
   -0.6295   -0.1280    1.6036 H   0  0  0  0  0  0  0  0  0  0  0  0
    0.1721    1.7482    2.9886 H   0  0  0  0  0  0  0  0  0  0  0  0
   -0.9592    3.0145    3.4952 H   0  0  0  0  0  0  0  0  0  0  0  0
    2.3921   -0.4264   -3.1698 H   0  0  0  0  0  0  0  0  0  0  0  0
    4.5235   -1.4827   -3.9055 H   0  0  0  0  0  0  0  0  0  0  0  0
    4.4383    1.3600    0.0652 H   0  0  0  0  0  0  0  0  0  0  0  0
    8.7957    0.0865   -0.3192 H   0  0  0  0  0  0  0  0  0  0  0  0
    8.2984    1.2627   -1.5501 H   0  0  0  0  0  0  0  0  0  0  0  0
    8.6850   -0.4480   -3.0388 H   0  0  0  0  0  0  0  0  0  0  0  0
    8.6351   -1.7122   -1.7443 H   0  0  0  0  0  0  0  0  0  0  0  0
   -3.2858    2.9049    2.7960 H   0  0  0  0  0  0  0  0  0  0  0  0
   -5.2277    1.4628    2.1234 H   0  0  0  0  0  0  0  0  0  0  0  0
  1  2  3  0
  2  3  1  0
  3  4  2  0
  4  5  1  0
  5  6  1  0
  5  7  2  0
  7  8  1  0
  8  9  2  0
  9 10  1  0
 10 11  2  0
 11 12  1  0
 12 13  2  0
 13 14  1  0
 14 15  1  0
 15 16  1  0
 16 17  2  0
 17 18  1  0
 18 19  2  0
 19 20  1  0
 20 21  2  0
 21 22  1  0
 22 23  2  0
 23 24  1  0
 24 25  2  0
 24 26  1  0
 26 27  1  0
 27 28  1  0
 28 29  1  0
 19 30  1  0
 13 31  1  0
 31 32  2  0
  9  3  1  0
 32 10  1  0
 30 16  1  0
 25 20  1  0
 29 23  1  0
  4 33  1  0
  7 34  1  0
  8 35  1  0
 11 36  1  0
 12 37  1  0
 14 38  1  0
 14 39  1  0
 21 40  1  0
 22 41  1  0
 25 42  1  0
 27 43  1  0
 27 44  1  0
 28 45  1  0
 28 46  1  0
 31 47  1  0
 32 48  1  0
M  END
$$$$
