
     RDKit          3D

 48 49  0  0  0  0  0  0  0  0999 V2000
   -6.7705    0.0041   -0.1740 C   0  0  0  0  0  0  0  0  0  0  0  0
   -5.2923   -0.0150    0.1499 C   0  0  0  0  0  0  0  0  0  0  0  0
   -4.5975    1.0092   -0.7221 C   0  0  0  0  0  0  0  0  0  0  0  0
   -3.0958    1.0298   -0.4342 C   0  0  0  0  0  0  0  0  0  0  0  0
   -2.5103   -0.2111   -0.6859 O   0  0  0  0  0  0  0  0  0  0  0  0
   -1.1852   -0.5302   -0.5344 C   0  0  0  0  0  0  0  0  0  0  0  0
   -0.3194   -0.3706   -1.5853 C   0  0  0  0  0  0  0  0  0  0  0  0
   -0.7862    0.1138   -2.8004 O   0  0  0  0  0  0  0  0  0  0  0  0
    0.0829    0.2938   -3.9148 C   0  0  0  0  0  0  0  0  0  0  0  0
    1.0394   -0.6846   -1.4726 C   0  0  0  0  0  0  0  0  0  0  0  0
    1.5277   -1.1645   -0.2840 C   0  0  0  0  0  0  0  0  0  0  0  0
    2.9645   -1.4891   -0.1759 C   0  0  0  0  0  0  0  0  0  0  0  0
    3.7769   -0.4159    0.4577 C   0  0  0  0  0  0  0  0  0  0  0  0
    4.1658   -0.5322    1.8011 C   0  0  0  0  0  0  0  0  0  0  0  0
    4.8899    0.4225    2.4026 N   0  0  0  0  0  0  0  0  0  0  0  0
    5.2816    1.5355    1.7614 C   0  0  0  0  0  0  0  0  0  0  0  0
    6.0560    2.5412    2.4308 N   0  0  0  0  0  0  0  0  0  0  0  0
    4.9209    1.6693    0.4738 N   0  0  0  0  0  0  0  0  0  0  0  0
    4.1845    0.7270   -0.1864 C   0  0  0  0  0  0  0  0  0  0  0  0
    3.8426    0.9022   -1.5452 N   0  0  0  0  0  0  0  0  0  0  0  0
    0.6585   -1.3289    0.7848 C   0  0  0  0  0  0  0  0  0  0  0  0
   -0.6966   -1.0108    0.6552 C   0  0  0  0  0  0  0  0  0  0  0  0
   -1.5608   -1.1754    1.7208 O   0  0  0  0  0  0  0  0  0  0  0  0
   -1.0504   -1.6743    2.9554 C   0  0  0  0  0  0  0  0  0  0  0  0
   -7.1945    0.9217    0.2395 H   0  0  0  0  0  0  0  0  0  0  0  0
   -6.8603   -0.0853   -1.2790 H   0  0  0  0  0  0  0  0  0  0  0  0
   -7.2910   -0.8651    0.3234 H   0  0  0  0  0  0  0  0  0  0  0  0
   -5.1179    0.2117    1.2280 H   0  0  0  0  0  0  0  0  0  0  0  0
   -4.9075   -1.0254   -0.1350 H   0  0  0  0  0  0  0  0  0  0  0  0
   -5.0538    1.9797   -0.5235 H   0  0  0  0  0  0  0  0  0  0  0  0
   -4.7811    0.7476   -1.7829 H   0  0  0  0  0  0  0  0  0  0  0  0
   -2.9568    1.3002    0.6545 H   0  0  0  0  0  0  0  0  0  0  0  0
   -2.6303    1.8184   -1.0403 H   0  0  0  0  0  0  0  0  0  0  0  0
   -0.4839    0.5966   -4.8174 H   0  0  0  0  0  0  0  0  0  0  0  0
    0.5313   -0.7046   -4.1539 H   0  0  0  0  0  0  0  0  0  0  0  0
    0.9192    0.9884   -3.6996 H   0  0  0  0  0  0  0  0  0  0  0  0
    1.6283   -0.5268   -2.3647 H   0  0  0  0  0  0  0  0  0  0  0  0
    3.3370   -1.7096   -1.2149 H   0  0  0  0  0  0  0  0  0  0  0  0
    3.0808   -2.4565    0.3809 H   0  0  0  0  0  0  0  0  0  0  0  0
    3.8404   -1.4359    2.2988 H   0  0  0  0  0  0  0  0  0  0  0  0
    5.6652    3.5140    2.6124 H   0  0  0  0  0  0  0  0  0  0  0  0
    7.0175    2.3910    2.7712 H   0  0  0  0  0  0  0  0  0  0  0  0
    3.9217    0.1028   -2.2068 H   0  0  0  0  0  0  0  0  0  0  0  0
    3.5125    1.8199   -1.9015 H   0  0  0  0  0  0  0  0  0  0  0  0
    1.0226   -1.7063    1.7311 H   0  0  0  0  0  0  0  0  0  0  0  0
   -0.2725   -1.0357    3.3755 H   0  0  0  0  0  0  0  0  0  0  0  0
   -0.5946   -2.6618    2.7497 H   0  0  0  0  0  0  0  0  0  0  0  0
   -1.8589   -1.8252    3.6876 H   0  0  0  0  0  0  0  0  0  0  0  0
  1  2  1  0
  2  3  1  0
  3  4  1  0
  4  5  1  0
  5  6  1  0
  6  7  2  0
  7  8  1  0
  8  9  1  0
  7 10  1  0
 10 11  2  0
 11 12  1  0
 12 13  1  0
 13 14  2  0
 14 15  1  0
 15 16  2  0
 16 17  1  0
 16 18  1  0
 18 19  2  0
 19 20  1  0
 11 21  1  0
 21 22  2  0
 22 23  1  0
 23 24  1  0
 22  6  1  0
 19 13  1  0
  1 25  1  0
  1 26  1  0
  1 27  1  0
  2 28  1  0
  2 29  1  0
  3 30  1  0
  3 31  1  0
  4 32  1  0
  4 33  1  0
  9 34  1  0
  9 35  1  0
  9 36  1  0
 10 37  1  0
 12 38  1  0
 12 39  1  0
 14 40  1  0
 17 41  1  0
 17 42  1  0
 20 43  1  0
 20 44  1  0
 21 45  1  0
 24 46  1  0
 24 47  1  0
 24 48  1  0
M  END
$$$$
