
     RDKit          3D

 29 30  0  0  0  0  0  0  0  0999 V2000
    3.7499    2.5505    0.5171 N   0  0  0  0  0  0  0  0  0  0  0  0
    3.6448    1.1875    0.2104 C   0  0  0  0  0  0  0  0  0  0  0  0
    4.7826    0.4835    0.0879 N   0  0  0  0  0  0  0  0  0  0  0  0
    4.7586   -0.8253   -0.2138 C   0  0  0  0  0  0  0  0  0  0  0  0
    3.5384   -1.4482   -0.3993 C   0  0  0  0  0  0  0  0  0  0  0  0
    2.3495   -0.7345   -0.2768 C   0  0  0  0  0  0  0  0  0  0  0  0
    1.1158   -1.4008   -0.5023 N   0  0  0  0  0  0  0  0  0  0  0  0
   -0.1517   -0.7931   -0.3130 C   0  0  0  0  0  0  0  0  0  0  0  0
   -1.2356   -1.3150   -1.0300 C   0  0  0  0  0  0  0  0  0  0  0  0
   -2.4881   -0.8058   -0.9001 C   0  0  0  0  0  0  0  0  0  0  0  0
   -2.7195    0.2666   -0.0318 C   0  0  0  0  0  0  0  0  0  0  0  0
   -4.3664    0.8536    0.0400 S   0  0  0  0  0  6  0  0  0  0  0  0
   -5.3461   -0.1119    1.1052 N   0  0  0  0  0  0  0  0  0  0  0  0
   -4.9823    0.7433   -1.3299 O   0  0  0  0  0  0  0  0  0  0  0  0
   -4.4113    2.2816    0.5170 O   0  0  0  0  0  0  0  0  0  0  0  0
   -1.6900    0.7896    0.6738 C   0  0  0  0  0  0  0  0  0  0  0  0
   -0.4070    0.2596    0.5327 C   0  0  0  0  0  0  0  0  0  0  0  0
    2.4429    0.5673    0.0259 N   0  0  0  0  0  0  0  0  0  0  0  0
    3.3175    3.2568   -0.1178 H   0  0  0  0  0  0  0  0  0  0  0  0
    4.2437    2.9079    1.3600 H   0  0  0  0  0  0  0  0  0  0  0  0
    5.6776   -1.4176   -0.3177 H   0  0  0  0  0  0  0  0  0  0  0  0
    3.4762   -2.5228   -0.6449 H   0  0  0  0  0  0  0  0  0  0  0  0
    1.1432   -2.4137   -0.8322 H   0  0  0  0  0  0  0  0  0  0  0  0
   -1.0861   -2.1518   -1.7142 H   0  0  0  0  0  0  0  0  0  0  0  0
   -3.3013   -1.2367   -1.4747 H   0  0  0  0  0  0  0  0  0  0  0  0
   -5.6772   -0.9336    0.5472 H   0  0  0  0  0  0  0  0  0  0  0  0
   -4.8782   -0.3450    1.9971 H   0  0  0  0  0  0  0  0  0  0  0  0
   -1.8899    1.6130    1.3388 H   0  0  0  0  0  0  0  0  0  0  0  0
    0.3902    0.6950    1.1128 H   0  0  0  0  0  0  0  0  0  0  0  0
  1  2  1  0
  2  3  2  0
  3  4  1  0
  4  5  2  0
  5  6  1  0
  6  7  1  0
  7  8  1  0
  8  9  2  0
  9 10  1  0
 10 11  2  0
 11 12  1  0
 12 13  1  0
 12 14  2  0
 12 15  2  0
 11 16  1  0
 16 17  2  0
  6 18  2  0
 18  2  1  0
 17  8  1  0
  1 19  1  0
  1 20  1  0
  4 21  1  0
  5 22  1  0
  7 23  1  0
  9 24  1  0
 10 25  1  0
 13 26  1  0
 13 27  1  0
 16 28  1  0
 17 29  1  0
M  END
$$$$
