
     RDKit          3D

 54 58  0  0  0  0  0  0  0  0999 V2000
   -5.7266   -1.0858    0.8386 N   0  0  0  0  0  0  0  0  0  0  0  0
   -5.0619    0.1341    0.4068 C   0  0  1  0  0  0  0  0  0  0  0  0
   -3.6809    0.1813    0.9826 C   0  0  0  0  0  0  0  0  0  0  0  0
   -2.7049    0.7843    0.1410 N   0  0  0  0  0  0  0  0  0  0  0  0
   -1.5330    1.2735    0.7697 C   0  0  0  0  0  0  0  0  0  0  0  0
   -1.4833    2.5261    1.3444 C   0  0  0  0  0  0  0  0  0  0  0  0
   -0.3553    2.9631    2.0172 C   0  0  0  0  0  0  0  0  0  0  0  0
    0.7115    2.1706    2.1215 N   0  0  0  0  0  0  0  0  0  0  0  0
    0.6905    0.9241    1.5619 C   0  0  0  0  0  0  0  0  0  0  0  0
   -0.3872    0.4416    0.8857 C   0  0  0  0  0  0  0  0  0  0  0  0
   -0.4364   -0.7907    0.2932 N   0  0  0  0  0  0  0  0  0  0  0  0
    0.5007   -1.7726   -0.0790 C   0  0  0  0  0  0  0  0  0  0  0  0
    0.1605   -3.0573   -0.4543 N   0  0  0  0  0  0  0  0  0  0  0  0
    1.2061   -3.7602   -0.8100 C   0  0  0  0  0  0  0  0  0  0  0  0
    2.2980   -2.9597   -0.6863 C   0  0  0  0  0  0  0  0  0  0  0  0
    3.6493   -3.1018   -0.9041 C   0  0  0  0  0  0  0  0  0  0  0  0
    4.5365   -2.0830   -0.6888 C   0  0  0  0  0  0  0  0  0  0  0  0
    4.0394   -0.8554   -0.2309 C   0  0  0  0  0  0  0  0  0  0  0  0
    4.9880    0.2436    0.0273 C   0  0  0  0  0  0  0  0  0  0  0  0
    4.9135    1.0132    1.1145 N   0  0  0  0  0  0  0  0  0  0  0  0
    5.8135    1.9962    1.3279 C   0  0  0  0  0  0  0  0  0  0  0  0
    6.8443    2.2463    0.4317 C   0  0  0  0  0  0  0  0  0  0  0  0
    6.9370    1.4651   -0.6928 C   0  0  0  0  0  0  0  0  0  0  0  0
    6.0021    0.4691   -0.8787 C   0  0  0  0  0  0  0  0  0  0  0  0
    6.1248   -0.2964   -2.0124 F   0  0  0  0  0  0  0  0  0  0  0  0
    2.7313   -0.7995   -0.0468 N   0  0  0  0  0  0  0  0  0  0  0  0
    1.8290   -1.7459   -0.2356 N   0  0  0  0  0  0  0  0  0  0  0  0
   -2.8023    0.9321   -1.2898 C   0  0  0  0  0  0  0  0  0  0  0  0
   -3.8790    0.0519   -1.8298 C   0  0  1  0  0  0  0  0  0  0  0  0
   -3.4453   -1.3117   -1.8603 N   0  0  0  0  0  0  0  0  0  0  0  0
   -5.1430    0.2798   -1.0617 C   0  0  2  0  0  0  0  0  0  0  0  0
   -5.5959    1.5688   -1.3825 O   0  0  0  0  0  0  0  0  0  0  0  0
   -5.0878   -1.8968    0.9117 H   0  0  0  0  0  0  0  0  0  0  0  0
   -6.6184   -1.2588    0.3649 H   0  0  0  0  0  0  0  0  0  0  0  0
   -5.6672    0.9654    0.8730 H   0  0  0  0  0  0  0  0  0  0  0  0
   -3.7166    0.7678    1.9503 H   0  0  0  0  0  0  0  0  0  0  0  0
   -3.3624   -0.8226    1.2875 H   0  0  0  0  0  0  0  0  0  0  0  0
   -2.3348    3.1838    1.2726 H   0  0  0  0  0  0  0  0  0  0  0  0
   -0.2940    3.9438    2.4699 H   0  0  0  0  0  0  0  0  0  0  0  0
    1.5552    0.3390    1.7268 H   0  0  0  0  0  0  0  0  0  0  0  0
   -1.4607   -1.1378    0.0270 H   0  0  0  0  0  0  0  0  0  0  0  0
    1.2770   -4.7888   -1.1549 H   0  0  0  0  0  0  0  0  0  0  0  0
    3.9877   -4.0667   -1.2593 H   0  0  0  0  0  0  0  0  0  0  0  0
    5.5855   -2.1707   -0.8490 H   0  0  0  0  0  0  0  0  0  0  0  0
    5.7907    2.6526    2.2101 H   0  0  0  0  0  0  0  0  0  0  0  0
    7.5732    3.0247    0.5752 H   0  0  0  0  0  0  0  0  0  0  0  0
    7.7455    1.6354   -1.4137 H   0  0  0  0  0  0  0  0  0  0  0  0
   -2.9478    1.9996   -1.5745 H   0  0  0  0  0  0  0  0  0  0  0  0
   -1.7926    0.6249   -1.6884 H   0  0  0  0  0  0  0  0  0  0  0  0
   -4.0803    0.4200   -2.8804 H   0  0  0  0  0  0  0  0  0  0  0  0
   -3.5535   -1.7421   -0.9206 H   0  0  0  0  0  0  0  0  0  0  0  0
   -2.4367   -1.3294   -2.1087 H   0  0  0  0  0  0  0  0  0  0  0  0
   -5.9591   -0.3954   -1.4465 H   0  0  0  0  0  0  0  0  0  0  0  0
   -5.9438    2.0077   -0.5726 H   0  0  0  0  0  0  0  0  0  0  0  0
  1  2  1  0
  2  3  1  0
  3  4  1  0
  4  5  1  0
  5  6  2  0
  6  7  1  0
  7  8  2  0
  8  9  1  0
  9 10  2  0
 10 11  1  0
 11 12  1  0
 12 13  2  0
 13 14  1  0
 14 15  2  0
 15 16  1  0
 16 17  2  0
 17 18  1  0
 18 19  1  0
 19 20  2  0
 20 21  1  0
 21 22  2  0
 22 23  1  0
 23 24  2  0
 24 25  1  0
 18 26  2  0
 26 27  1  0
  4 28  1  0
 28 29  1  0
 29 30  1  0
 29 31  1  0
 31 32  1  0
 31  2  1  0
 10  5  1  0
 27 12  1  0
 27 15  1  0
 24 19  1  0
  1 33  1  0
  1 34  1  0
  2 35  1  1
  3 36  1  0
  3 37  1  0
  6 38  1  0
  7 39  1  0
  9 40  1  0
 11 41  1  0
 14 42  1  0
 16 43  1  0
 17 44  1  0
 21 45  1  0
 22 46  1  0
 23 47  1  0
 28 48  1  0
 28 49  1  0
 29 50  1  6
 30 51  1  0
 30 52  1  0
 31 53  1  6
 32 54  1  0
M  END
$$$$
