
     RDKit          3D

 40 42  0  0  0  0  0  0  0  0999 V2000
    6.9160    2.2169   -2.3989 O   0  0  0  0  0  0  0  0  0  0  0  0
    6.6698    1.7425   -1.2660 C   0  0  0  0  0  0  0  0  0  0  0  0
    6.3538    2.5876   -0.2188 O   0  0  0  0  0  0  0  0  0  0  0  0
    6.7272    0.2739   -1.0885 C   0  0  0  0  0  0  0  0  0  0  0  0
    5.3891   -0.2445   -1.3718 N   0  0  0  0  0  0  0  0  0  0  0  0
    4.9127   -0.6405   -2.5358 N   0  0  0  0  0  0  0  0  0  0  0  0
    3.6600   -1.0483   -2.4100 N   0  0  0  0  0  0  0  0  0  0  0  0
    3.3112   -0.9093   -1.1045 C   0  0  0  0  0  0  0  0  0  0  0  0
    2.0150   -1.2434   -0.5324 C   0  0  0  0  0  0  0  0  0  0  0  0
    1.7922   -1.4844    0.7952 C   0  0  0  0  0  0  0  0  0  0  0  0
    0.4264   -1.7669    0.9323 C   0  0  0  0  0  0  0  0  0  0  0  0
   -0.1539   -2.0610    2.1195 O   0  0  0  0  0  0  0  0  0  0  0  0
   -1.4087   -2.3450    2.5140 C   0  0  0  0  0  0  0  0  0  0  0  0
   -2.4710   -1.3097    2.4374 C   0  0  0  0  0  0  0  0  0  0  0  0
   -2.6814   -0.7727    1.0722 C   0  0  0  0  0  0  0  0  0  0  0  0
   -3.7880    0.1434    1.1640 O   0  0  0  0  0  0  0  0  0  0  0  0
   -4.2424    0.8209    0.0547 C   0  0  0  0  0  0  0  0  0  0  0  0
   -3.6608    0.6509   -1.1794 C   0  0  0  0  0  0  0  0  0  0  0  0
   -4.1512    1.3577   -2.2839 C   0  0  0  0  0  0  0  0  0  0  0  0
   -3.5967    1.2097   -3.5143 F   0  0  0  0  0  0  0  0  0  0  0  0
   -5.2147    2.2241   -2.1425 C   0  0  0  0  0  0  0  0  0  0  0  0
   -5.7984    2.3951   -0.9052 C   0  0  0  0  0  0  0  0  0  0  0  0
   -5.3029    1.6881    0.1836 C   0  0  0  0  0  0  0  0  0  0  0  0
   -6.1597    1.9750    1.8615 Br  0  0  0  0  0  0  0  0  0  0  0  0
   -0.0600   -1.6742   -0.3136 N   0  0  0  0  0  0  0  0  0  0  0  0
    0.8729   -1.3693   -1.1571 O   0  0  0  0  0  0  0  0  0  0  0  0
    4.4031   -0.4134   -0.5071 N   0  0  0  0  0  0  0  0  0  0  0  0
    6.7591    3.5344   -0.1724 H   0  0  0  0  0  0  0  0  0  0  0  0
    6.9989    0.0394   -0.0411 H   0  0  0  0  0  0  0  0  0  0  0  0
    7.4851   -0.2044   -1.7424 H   0  0  0  0  0  0  0  0  0  0  0  0
    2.4997   -1.4716    1.6193 H   0  0  0  0  0  0  0  0  0  0  0  0
   -1.8310   -3.2857    2.0030 H   0  0  0  0  0  0  0  0  0  0  0  0
   -1.4415   -2.7018    3.6152 H   0  0  0  0  0  0  0  0  0  0  0  0
   -3.4213   -1.7033    2.8988 H   0  0  0  0  0  0  0  0  0  0  0  0
   -2.1749   -0.4362    3.0844 H   0  0  0  0  0  0  0  0  0  0  0  0
   -2.7812   -1.4956    0.2636 H   0  0  0  0  0  0  0  0  0  0  0  0
   -1.7729   -0.1341    0.8420 H   0  0  0  0  0  0  0  0  0  0  0  0
   -2.8263   -0.0132   -1.3500 H   0  0  0  0  0  0  0  0  0  0  0  0
   -5.6217    2.7896   -2.9793 H   0  0  0  0  0  0  0  0  0  0  0  0
   -6.6315    3.0792   -0.8148 H   0  0  0  0  0  0  0  0  0  0  0  0
  1  2  2  0
  2  3  1  0
  2  4  1  0
  4  5  1  0
  5  6  1  0
  6  7  2  0
  7  8  1  0
  8  9  1  0
  9 10  2  0
 10 11  1  0
 11 12  1  0
 12 13  1  0
 13 14  1  0
 14 15  1  0
 15 16  1  0
 16 17  1  0
 17 18  2  0
 18 19  1  0
 19 20  1  0
 19 21  2  0
 21 22  1  0
 22 23  2  0
 23 24  1  0
 11 25  2  0
 25 26  1  0
  8 27  2  0
 27  5  1  0
 26  9  1  0
 23 17  1  0
  3 28  1  0
  4 29  1  0
  4 30  1  0
 10 31  1  0
 13 32  1  0
 13 33  1  0
 14 34  1  0
 14 35  1  0
 15 36  1  0
 15 37  1  0
 18 38  1  0
 21 39  1  0
 22 40  1  0
M  END
$$$$
