
     RDKit          3D

 40 42  0  0  0  0  0  0  0  0999 V2000
    6.3415    1.0982   -0.4195 C   0  0  0  0  0  0  0  0  0  0  0  0
    4.8847    0.9520   -0.2194 C   0  0  0  0  0  0  0  0  0  0  0  0
    4.2431   -0.2253   -0.5170 C   0  0  0  0  0  0  0  0  0  0  0  0
    2.8804   -0.4269   -0.3522 C   0  0  0  0  0  0  0  0  0  0  0  0
    2.1041    0.5863    0.1343 C   0  0  0  0  0  0  0  0  0  0  0  0
    0.3733    0.4556    0.4480 S   0  0  0  0  0  0  0  0  0  0  0  0
   -0.2965   -1.1486    0.6341 C   0  0  0  0  0  0  0  0  0  0  0  0
    0.4511   -2.2445    0.9496 C   0  0  0  0  0  0  0  0  0  0  0  0
   -0.1561   -3.4879    1.0310 C   0  0  0  0  0  0  0  0  0  0  0  0
   -1.5109   -3.6163    0.7955 C   0  0  0  0  0  0  0  0  0  0  0  0
   -2.2661   -2.5074    0.4782 C   0  0  0  0  0  0  0  0  0  0  0  0
   -1.6832   -1.2720    0.3927 C   0  0  0  0  0  0  0  0  0  0  0  0
   -2.4564   -0.1139    0.0645 N   0  0  0  0  0  0  0  0  0  0  0  0
   -2.5075    0.9755    1.0206 C   0  0  0  0  0  0  0  0  0  0  0  0
   -3.9044    1.5048    1.1994 C   0  0  0  0  0  0  0  0  0  0  0  0
   -4.7236    1.2928    0.0244 N   0  0  0  0  0  0  0  0  0  0  0  0
   -3.9428    1.2564   -1.1969 C   0  0  0  0  0  0  0  0  0  0  0  0
   -3.1672   -0.0444   -1.1977 C   0  0  0  0  0  0  0  0  0  0  0  0
    2.7296    1.7958    0.4448 C   0  0  0  0  0  0  0  0  0  0  0  0
    1.7979    3.1211    1.0643 Cl  0  0  0  0  0  0  0  0  0  0  0  0
    4.0799    1.9634    0.2696 C   0  0  0  0  0  0  0  0  0  0  0  0
    6.5550    0.9623   -1.5028 H   0  0  0  0  0  0  0  0  0  0  0  0
    6.7287    2.0267   -0.0047 H   0  0  0  0  0  0  0  0  0  0  0  0
    6.8162    0.2282    0.1209 H   0  0  0  0  0  0  0  0  0  0  0  0
    4.8142   -1.0800   -0.9115 H   0  0  0  0  0  0  0  0  0  0  0  0
    2.4481   -1.4012   -0.6530 H   0  0  0  0  0  0  0  0  0  0  0  0
    1.5044   -2.1737    1.1724 H   0  0  0  0  0  0  0  0  0  0  0  0
    0.4446   -4.3629    1.2823 H   0  0  0  0  0  0  0  0  0  0  0  0
   -1.9311   -4.6158    0.8738 H   0  0  0  0  0  0  0  0  0  0  0  0
   -3.3108   -2.6234    0.3000 H   0  0  0  0  0  0  0  0  0  0  0  0
   -2.1558    0.6239    2.0128 H   0  0  0  0  0  0  0  0  0  0  0  0
   -1.8017    1.7717    0.6922 H   0  0  0  0  0  0  0  0  0  0  0  0
   -4.3872    0.9451    2.0267 H   0  0  0  0  0  0  0  0  0  0  0  0
   -3.8179    2.5790    1.4634 H   0  0  0  0  0  0  0  0  0  0  0  0
   -5.5336    1.9130   -0.0255 H   0  0  0  0  0  0  0  0  0  0  0  0
   -4.6888    1.2858   -2.0356 H   0  0  0  0  0  0  0  0  0  0  0  0
   -3.2355    2.0886   -1.2397 H   0  0  0  0  0  0  0  0  0  0  0  0
   -3.8553   -0.9186   -1.2287 H   0  0  0  0  0  0  0  0  0  0  0  0
   -2.4582   -0.0680   -2.0626 H   0  0  0  0  0  0  0  0  0  0  0  0
    4.5937    2.9044    0.5065 H   0  0  0  0  0  0  0  0  0  0  0  0
  1  2  1  0
  2  3  2  0
  3  4  1  0
  4  5  2  0
  5  6  1  0
  6  7  1  0
  7  8  2  0
  8  9  1  0
  9 10  2  0
 10 11  1  0
 11 12  2  0
 12 13  1  0
 13 14  1  0
 14 15  1  0
 15 16  1  0
 16 17  1  0
 17 18  1  0
  5 19  1  0
 19 20  1  0
 19 21  2  0
 21  2  1  0
 12  7  1  0
 18 13  1  0
  1 22  1  0
  1 23  1  0
  1 24  1  0
  3 25  1  0
  4 26  1  0
  8 27  1  0
  9 28  1  0
 10 29  1  0
 11 30  1  0
 14 31  1  0
 14 32  1  0
 15 33  1  0
 15 34  1  0
 16 35  1  0
 17 36  1  0
 17 37  1  0
 18 38  1  0
 18 39  1  0
 21 40  1  0
M  END
$$$$
