
     RDKit          3D

 39 41  0  0  0  0  0  0  0  0999 V2000
    6.2353    1.1509   -1.6816 O   0  0  0  0  0  0  0  0  0  0  0  0
    5.2593    0.4033   -1.4387 C   0  0  0  0  0  0  0  0  0  0  0  0
    5.0260   -0.6725   -2.2535 O   0  0  0  0  0  0  0  0  0  0  0  0
    4.4063    0.6995   -0.3024 C   0  0  0  0  0  0  0  0  0  0  0  0
    4.6520    1.7863    0.5108 C   0  0  0  0  0  0  0  0  0  0  0  0
    3.8492    2.0806    1.5953 C   0  0  0  0  0  0  0  0  0  0  0  0
    2.7732    1.2777    1.8836 C   0  0  0  0  0  0  0  0  0  0  0  0
    2.4924    0.1661    1.0811 C   0  0  0  0  0  0  0  0  0  0  0  0
    1.1407   -0.8752    1.4124 S   0  0  0  0  0  6  0  0  0  0  0  0
    0.9166   -0.8893    2.8973 O   0  0  0  0  0  0  0  0  0  0  0  0
    1.4363   -2.2853    0.9244 O   0  0  0  0  0  0  0  0  0  0  0  0
   -0.2864   -0.3626    0.6180 N   0  0  0  0  0  0  0  0  0  0  0  0
   -0.1777   -0.3573   -0.8017 C   0  0  0  0  0  0  0  0  0  0  0  0
   -1.2978   -1.0706   -1.5255 C   0  0  0  0  0  0  0  0  0  0  0  0
   -2.5765   -0.6060   -0.9254 C   0  0  0  0  0  0  0  0  0  0  0  0
   -3.6710   -0.2000   -1.6601 C   0  0  0  0  0  0  0  0  0  0  0  0
   -4.8393    0.2237   -1.0122 C   0  0  0  0  0  0  0  0  0  0  0  0
   -5.9512    0.6362   -1.7714 N   0  0  0  0  0  4  0  0  0  0  0  0
   -6.9794    1.0091   -1.2025 O   0  0  0  0  0  0  0  0  0  0  0  0
   -5.8969    0.6255   -3.1309 O   0  0  0  0  0  1  0  0  0  0  0  0
   -4.8939    0.2343    0.3732 C   0  0  0  0  0  0  0  0  0  0  0  0
   -3.7787   -0.1791    1.0967 C   0  0  0  0  0  0  0  0  0  0  0  0
   -2.6321   -0.5949    0.4540 C   0  0  0  0  0  0  0  0  0  0  0  0
   -1.4100   -1.0473    1.1686 C   0  0  0  0  0  0  0  0  0  0  0  0
    3.3137   -0.0897    0.0158 C   0  0  0  0  0  0  0  0  0  0  0  0
    5.7583   -1.1288   -2.8158 H   0  0  0  0  0  0  0  0  0  0  0  0
    5.5044    2.4046    0.2651 H   0  0  0  0  0  0  0  0  0  0  0  0
    4.0795    2.9565    2.2186 H   0  0  0  0  0  0  0  0  0  0  0  0
    2.1161    1.4794    2.7332 H   0  0  0  0  0  0  0  0  0  0  0  0
   -0.2446    0.7206   -1.1335 H   0  0  0  0  0  0  0  0  0  0  0  0
    0.8195   -0.7402   -1.1577 H   0  0  0  0  0  0  0  0  0  0  0  0
   -1.2429   -0.7976   -2.5962 H   0  0  0  0  0  0  0  0  0  0  0  0
   -1.2040   -2.1784   -1.4303 H   0  0  0  0  0  0  0  0  0  0  0  0
   -3.6048   -0.2170   -2.7449 H   0  0  0  0  0  0  0  0  0  0  0  0
   -5.7765    0.5540    0.9232 H   0  0  0  0  0  0  0  0  0  0  0  0
   -3.7642   -0.1918    2.1836 H   0  0  0  0  0  0  0  0  0  0  0  0
   -1.4594   -0.8322    2.2445 H   0  0  0  0  0  0  0  0  0  0  0  0
   -1.2481   -2.1489    0.9770 H   0  0  0  0  0  0  0  0  0  0  0  0
    3.1565   -0.9435   -0.6584 H   0  0  0  0  0  0  0  0  0  0  0  0
  1  2  2  0
  2  3  1  0
  2  4  1  0
  4  5  2  0
  5  6  1  0
  6  7  2  0
  7  8  1  0
  8  9  1  0
  9 10  2  0
  9 11  2  0
  9 12  1  0
 12 13  1  0
 13 14  1  0
 14 15  1  0
 15 16  2  0
 16 17  1  0
 17 18  1  0
 18 19  2  0
 18 20  1  0
 17 21  2  0
 21 22  1  0
 22 23  2  0
 23 24  1  0
  8 25  2  0
 25  4  1  0
 24 12  1  0
 23 15  1  0
  3 26  1  0
  5 27  1  0
  6 28  1  0
  7 29  1  0
 13 30  1  0
 13 31  1  0
 14 32  1  0
 14 33  1  0
 16 34  1  0
 21 35  1  0
 22 36  1  0
 24 37  1  0
 24 38  1  0
 25 39  1  0
M  CHG  2  18   1  20  -1
M  END
$$$$
