
     RDKit          3D

 56 60  0  0  0  0  0  0  0  0999 V2000
    4.7467   -3.6747    0.3457 N   0  0  0  0  0  0  0  0  0  0  0  0
    3.7103   -2.9317   -0.8185 S   0  0  0  0  0  6  0  0  0  0  0  0
    2.3014   -2.9611   -0.3069 O   0  0  0  0  0  0  0  0  0  0  0  0
    3.8135   -3.7032   -2.1022 O   0  0  0  0  0  0  0  0  0  0  0  0
    4.2641   -1.2803   -1.0372 C   0  0  0  0  0  0  0  0  0  0  0  0
    5.2079   -0.9449   -1.9843 C   0  0  0  0  0  0  0  0  0  0  0  0
    5.6319    0.3568   -2.1434 C   0  0  0  0  0  0  0  0  0  0  0  0
    5.1043    1.3627   -1.3378 C   0  0  0  0  0  0  0  0  0  0  0  0
    4.1569    1.0425   -0.3834 C   0  0  0  0  0  0  0  0  0  0  0  0
    3.6234    2.1125    0.4521 C   0  0  0  0  0  0  0  0  0  0  0  0
    4.3138    3.0877    1.0921 N   0  0  0  0  0  0  0  0  0  0  0  0
    3.4511    3.8560    1.7351 N   0  0  0  0  0  0  0  0  0  0  0  0
    2.1966    3.4132    1.5370 C   0  0  0  0  0  0  0  0  0  0  0  0
    0.9456    3.8159    1.9507 C   0  0  0  0  0  0  0  0  0  0  0  0
   -0.1824    3.1263    1.5588 C   0  0  0  0  0  0  0  0  0  0  0  0
   -0.1271    2.0150    0.7460 C   0  0  0  0  0  0  0  0  0  0  0  0
   -1.2815    1.2966    0.3349 N   0  0  0  0  0  0  0  0  0  0  0  0
   -1.7350    0.2269    1.1493 C   0  0  0  0  0  0  0  0  0  0  0  0
   -1.0712   -0.0225    2.2002 O   0  0  0  0  0  0  0  0  0  0  0  0
   -2.9274   -0.5688    0.7956 C   0  0  0  0  0  0  0  0  0  0  0  0
   -2.5091   -1.9640    0.2851 C   0  0  0  0  0  0  0  0  0  0  0  0
   -1.9434   -2.1894   -0.8966 C   0  0  0  0  0  0  0  0  0  0  0  0
   -1.6022   -3.4946   -1.2623 C   0  0  0  0  0  0  0  0  0  0  0  0
   -2.1308   -4.4415    0.1858 S   0  0  0  0  0  0  0  0  0  0  0  0
   -2.7499   -3.0278    1.1329 C   0  0  0  0  0  0  0  0  0  0  0  0
   -3.5659    0.0564   -0.3442 N   0  0  0  0  0  0  0  0  0  0  0  0
   -4.6848   -0.7522   -0.8211 C   0  0  0  0  0  0  0  0  0  0  0  0
   -5.6923   -0.5706    0.2832 C   0  0  0  0  0  0  0  0  0  0  0  0
   -5.5722    0.9155    0.5471 C   0  0  0  0  0  0  0  0  0  0  0  0
   -4.1953    1.3124    0.0224 C   0  0  0  0  0  0  0  0  0  0  0  0
    1.1449    1.6142    0.3317 C   0  0  0  0  0  0  0  0  0  0  0  0
    2.2825    2.2920    0.7143 C   0  0  0  0  0  0  0  0  0  0  0  0
    3.7419   -0.2636   -0.2347 C   0  0  0  0  0  0  0  0  0  0  0  0
    4.9983   -4.6483    0.0864 H   0  0  0  0  0  0  0  0  0  0  0  0
    4.3280   -3.6306    1.3013 H   0  0  0  0  0  0  0  0  0  0  0  0
    5.6125   -1.7318   -2.6059 H   0  0  0  0  0  0  0  0  0  0  0  0
    6.3709    0.5537   -2.8999 H   0  0  0  0  0  0  0  0  0  0  0  0
    5.4149    2.3739   -1.4410 H   0  0  0  0  0  0  0  0  0  0  0  0
    3.6931    4.6975    2.3223 H   0  0  0  0  0  0  0  0  0  0  0  0
    0.9044    4.6913    2.5907 H   0  0  0  0  0  0  0  0  0  0  0  0
   -1.1758    3.4588    1.8968 H   0  0  0  0  0  0  0  0  0  0  0  0
   -1.7507    1.5780   -0.5548 H   0  0  0  0  0  0  0  0  0  0  0  0
   -3.5880   -0.6547    1.6487 H   0  0  0  0  0  0  0  0  0  0  0  0
   -1.7325   -1.3304   -1.6172 H   0  0  0  0  0  0  0  0  0  0  0  0
   -1.1547   -3.8659   -2.1404 H   0  0  0  0  0  0  0  0  0  0  0  0
   -3.1755   -3.0810    2.0885 H   0  0  0  0  0  0  0  0  0  0  0  0
   -4.4142   -1.7883   -1.0209 H   0  0  0  0  0  0  0  0  0  0  0  0
   -5.0786   -0.2347   -1.7358 H   0  0  0  0  0  0  0  0  0  0  0  0
   -5.4929   -1.1884    1.1599 H   0  0  0  0  0  0  0  0  0  0  0  0
   -6.6925   -0.7690   -0.1611 H   0  0  0  0  0  0  0  0  0  0  0  0
   -6.3422    1.4535   -0.0185 H   0  0  0  0  0  0  0  0  0  0  0  0
   -5.6524    1.0530    1.6410 H   0  0  0  0  0  0  0  0  0  0  0  0
   -4.2918    1.9242   -0.8833 H   0  0  0  0  0  0  0  0  0  0  0  0
   -3.6456    1.8603    0.8186 H   0  0  0  0  0  0  0  0  0  0  0  0
    1.1866    0.7292   -0.3190 H   0  0  0  0  0  0  0  0  0  0  0  0
    3.0124   -0.5626    0.4935 H   0  0  0  0  0  0  0  0  0  0  0  0
  1  2  1  0
  2  3  2  0
  2  4  2  0
  2  5  1  0
  5  6  2  0
  6  7  1  0
  7  8  2  0
  8  9  1  0
  9 10  1  0
 10 11  2  0
 11 12  1  0
 12 13  1  0
 13 14  2  0
 14 15  1  0
 15 16  2  0
 16 17  1  0
 17 18  1  0
 18 19  2  0
 18 20  1  0
 20 21  1  0
 21 22  1  0
 22 23  2  0
 23 24  1  0
 24 25  1  0
 20 26  1  0
 26 27  1  0
 27 28  1  0
 28 29  1  0
 29 30  1  0
 16 31  1  0
 31 32  2  0
  9 33  2  0
 33  5  1  0
 32 10  1  0
 32 13  1  0
 25 21  2  0
 30 26  1  0
  1 34  1  0
  1 35  1  0
  6 36  1  0
  7 37  1  0
  8 38  1  0
 12 39  1  0
 14 40  1  0
 15 41  1  0
 17 42  1  0
 20 43  1  0
 22 44  1  0
 23 45  1  0
 25 46  1  0
 27 47  1  0
 27 48  1  0
 28 49  1  0
 28 50  1  0
 29 51  1  0
 29 52  1  0
 30 53  1  0
 30 54  1  0
 31 55  1  0
 33 56  1  0
M  END
$$$$
