
     RDKit          3D

 70 74  0  0  0  0  0  0  0  0999 V2000
   -0.3964   -3.3069    3.3709 O   0  0  0  0  0  0  0  0  0  0  0  0
    0.4758   -3.6418    2.1603 S   0  0  0  0  0  6  0  0  0  0  0  0
    1.3720   -4.8080    2.6417 O   0  0  0  0  0  0  0  0  0  0  0  0
   -0.4429   -4.1903    0.8675 N   0  0  0  0  0  0  0  0  0  0  0  0
   -1.4776   -3.5201    0.1590 C   0  0  0  0  0  0  0  0  0  0  0  0
   -2.5737   -4.3142   -0.2517 C   0  0  0  0  0  0  0  0  0  0  0  0
   -3.6128   -3.7376   -0.9210 C   0  0  0  0  0  0  0  0  0  0  0  0
   -3.6513   -2.3973   -1.2220 C   0  0  0  0  0  0  0  0  0  0  0  0
   -4.8188   -1.8770   -1.9440 C   0  0  0  0  0  0  0  0  0  0  0  0
   -6.0237   -1.8059   -0.9972 C   0  0  0  0  0  0  0  0  0  0  0  0
   -5.8911   -0.9780    0.1227 N   0  0  0  0  0  0  0  0  0  0  0  0
   -5.9246    0.4339   -0.0362 C   0  0  0  0  0  0  0  0  0  0  0  0
   -7.3169    0.8978   -0.4143 C   0  0  2  0  0  0  0  0  0  0  0  0
   -7.8008    0.4195   -1.5969 O   0  0  0  0  0  0  0  0  0  0  0  0
   -7.4834    2.3434   -0.3155 C   0  0  0  0  0  0  0  0  0  0  0  0
   -8.7445    2.8459   -0.6526 C   0  0  0  0  0  0  0  0  0  0  0  0
   -8.9621    4.1990   -0.5657 C   0  0  0  0  0  0  0  0  0  0  0  0
   -7.9435    5.0178   -0.1536 C   0  0  0  0  0  0  0  0  0  0  0  0
   -6.7406    4.4907    0.1635 N   0  0  0  0  0  0  0  0  0  0  0  0
   -6.4830    3.1898    0.0939 C   0  0  0  0  0  0  0  0  0  0  0  0
   -2.6063   -1.6377   -0.8342 C   0  0  0  0  0  0  0  0  0  0  0  0
   -1.5077   -2.2205   -0.1345 C   0  0  0  0  0  0  0  0  0  0  0  0
    1.5001   -2.2866    1.7761 C   0  0  0  0  0  0  0  0  0  0  0  0
    1.1958   -0.9603    1.8954 C   0  0  0  0  0  0  0  0  0  0  0  0
    2.1040    0.0492    1.6089 C   0  0  0  0  0  0  0  0  0  0  0  0
    3.3797   -0.2280    1.1831 C   0  0  0  0  0  0  0  0  0  0  0  0
    4.3654    0.7902    0.8879 C   0  0  0  0  0  0  0  0  0  0  0  0
    5.5540    0.8584    0.6134 N   0  0  0  0  0  0  0  0  0  0  0  0
    6.3184    1.8461    0.4082 C   0  0  0  0  0  0  0  0  0  0  0  0
    7.7939    1.7896    0.1168 C   0  0  0  0  0  0  0  0  0  0  0  0
    8.4284    0.5645    0.0610 C   0  0  0  0  0  0  0  0  0  0  0  0
    9.7554    0.4054   -0.1785 C   0  0  0  0  0  0  0  0  0  0  0  0
   10.5050    1.5620   -0.3772 C   0  0  0  0  0  0  0  0  0  0  0  0
   11.9714    1.3993   -0.6343 C   0  0  0  0  0  0  0  0  0  0  0  0
   12.3723    0.2319   -0.0355 F   0  0  0  0  0  0  0  0  0  0  0  0
   12.6077    2.4953   -0.1277 F   0  0  0  0  0  0  0  0  0  0  0  0
   12.1560    1.3306   -2.0137 F   0  0  0  0  0  0  0  0  0  0  0  0
    9.9058    2.8050   -0.3302 C   0  0  0  0  0  0  0  0  0  0  0  0
    8.5314    2.9179   -0.0802 C   0  0  0  0  0  0  0  0  0  0  0  0
    5.7350    3.1339    0.4968 C   0  0  0  0  0  0  0  0  0  0  0  0
    3.9858    2.6192    0.9124 S   0  0  0  0  0  0  0  0  0  0  0  0
    3.7133   -1.5651    1.0540 C   0  0  0  0  0  0  0  0  0  0  0  0
    2.8210   -2.5575    1.3344 C   0  0  0  0  0  0  0  0  0  0  0  0
   -0.2100   -5.2034    0.5267 H   0  0  0  0  0  0  0  0  0  0  0  0
   -2.5282   -5.3617   -0.0126 H   0  0  0  0  0  0  0  0  0  0  0  0
   -4.4423   -4.3767   -1.2148 H   0  0  0  0  0  0  0  0  0  0  0  0
   -5.0951   -2.5935   -2.7372 H   0  0  0  0  0  0  0  0  0  0  0  0
   -4.6185   -0.9144   -2.4289 H   0  0  0  0  0  0  0  0  0  0  0  0
   -6.9027   -1.6798   -1.6443 H   0  0  0  0  0  0  0  0  0  0  0  0
   -6.1093   -2.8703   -0.6157 H   0  0  0  0  0  0  0  0  0  0  0  0
   -4.9966   -1.2277    0.6314 H   0  0  0  0  0  0  0  0  0  0  0  0
   -5.1577    0.7640   -0.7480 H   0  0  0  0  0  0  0  0  0  0  0  0
   -5.6832    0.8993    0.9406 H   0  0  0  0  0  0  0  0  0  0  0  0
   -7.9796    0.4028    0.3918 H   0  0  0  0  0  0  0  0  0  0  0  0
   -8.7486    0.1340   -1.5608 H   0  0  0  0  0  0  0  0  0  0  0  0
   -9.5621    2.2181   -0.9747 H   0  0  0  0  0  0  0  0  0  0  0  0
   -9.9023    4.6094   -0.8134 H   0  0  0  0  0  0  0  0  0  0  0  0
   -8.0305    6.0932   -0.0546 H   0  0  0  0  0  0  0  0  0  0  0  0
   -5.4981    2.8470    0.3572 H   0  0  0  0  0  0  0  0  0  0  0  0
   -2.5399   -0.5886   -1.0225 H   0  0  0  0  0  0  0  0  0  0  0  0
   -0.6890   -1.5748    0.1397 H   0  0  0  0  0  0  0  0  0  0  0  0
    0.1955   -0.7068    2.2232 H   0  0  0  0  0  0  0  0  0  0  0  0
    1.8170    1.0860    1.7182 H   0  0  0  0  0  0  0  0  0  0  0  0
    7.7927   -0.3125    0.2235 H   0  0  0  0  0  0  0  0  0  0  0  0
   10.2720   -0.5588   -0.2261 H   0  0  0  0  0  0  0  0  0  0  0  0
   10.5089    3.6662   -0.4868 H   0  0  0  0  0  0  0  0  0  0  0  0
    8.0783    3.9034   -0.0481 H   0  0  0  0  0  0  0  0  0  0  0  0
    6.0589    4.1079    0.3938 H   0  0  0  0  0  0  0  0  0  0  0  0
    4.7380   -1.7644    0.7136 H   0  0  0  0  0  0  0  0  0  0  0  0
    3.0866   -3.6015    1.2359 H   0  0  0  0  0  0  0  0  0  0  0  0
  1  2  2  0
  2  3  2  0
  2  4  1  0
  4  5  1  0
  5  6  2  0
  6  7  1  0
  7  8  2  0
  8  9  1  0
  9 10  1  0
 10 11  1  0
 11 12  1  0
 12 13  1  0
 13 14  1  0
 13 15  1  0
 15 16  2  0
 16 17  1  0
 17 18  2  0
 18 19  1  0
 19 20  2  0
  8 21  1  0
 21 22  2  0
  2 23  1  0
 23 24  2  0
 24 25  1  0
 25 26  2  0
 26 27  1  0
 27 28  2  0
 28 29  1  0
 29 30  1  0
 30 31  2  0
 31 32  1  0
 32 33  2  0
 33 34  1  0
 34 35  1  0
 34 36  1  0
 34 37  1  0
 33 38  1  0
 38 39  2  0
 29 40  2  0
 40 41  1  0
 26 42  1  0
 42 43  2  0
 22  5  1  0
 43 23  1  0
 20 15  1  0
 41 27  1  0
 39 30  1  0
  4 44  1  0
  6 45  1  0
  7 46  1  0
  9 47  1  0
  9 48  1  0
 10 49  1  0
 10 50  1  0
 11 51  1  0
 12 52  1  0
 12 53  1  0
 13 54  1  1
 14 55  1  0
 16 56  1  0
 17 57  1  0
 18 58  1  0
 20 59  1  0
 21 60  1  0
 22 61  1  0
 24 62  1  0
 25 63  1  0
 31 64  1  0
 32 65  1  0
 38 66  1  0
 39 67  1  0
 40 68  1  0
 42 69  1  0
 43 70  1  0
M  END
$$$$
