
     RDKit          3D

 50 52  0  0  0  0  0  0  0  0999 V2000
   -6.1259    1.7252   -2.8248 C   0  0  0  0  0  0  0  0  0  0  0  0
   -6.2418    1.0068   -1.5338 C   0  0  0  0  0  0  0  0  0  0  0  0
   -5.3606    1.2814   -0.4878 C   0  0  0  0  0  0  0  0  0  0  0  0
   -5.4598    0.6199    0.7175 C   0  0  0  0  0  0  0  0  0  0  0  0
   -4.5546    0.8729    1.8388 C   0  0  0  0  0  0  0  0  0  0  0  0
   -3.3944    0.0207    1.8971 N   0  0  0  0  0  0  0  0  0  0  0  0
   -2.2390    0.1403    1.0851 C   0  0  0  0  0  0  0  0  0  0  0  0
   -2.2015    1.0581    0.2393 O   0  0  0  0  0  0  0  0  0  0  0  0
   -1.1012   -0.7588    1.1978 C   0  0  0  0  0  0  0  0  0  0  0  0
   -0.0030   -0.5825    0.3757 C   0  0  0  0  0  0  0  0  0  0  0  0
    1.0887   -1.4170    0.4615 C   0  0  0  0  0  0  0  0  0  0  0  0
    2.2388   -1.2222   -0.4060 C   0  0  0  0  0  0  0  0  0  0  0  0
    2.2350   -0.2677   -1.2603 O   0  0  0  0  0  0  0  0  0  0  0  0
    3.3479   -2.0942   -0.2911 N   0  0  0  0  0  0  0  0  0  0  0  0
    4.5168   -1.9662   -1.1055 C   0  0  0  0  0  0  0  0  0  0  0  0
    5.4423   -0.8912   -0.7161 C   0  0  0  0  0  0  0  0  0  0  0  0
    6.4144   -1.1252    0.2689 C   0  0  0  0  0  0  0  0  0  0  0  0
    7.2966   -0.1340    0.6347 C   0  0  0  0  0  0  0  0  0  0  0  0
    7.2474    1.1045    0.0467 C   0  0  0  0  0  0  0  0  0  0  0  0
    8.1068    2.1116    0.3849 F   0  0  0  0  0  0  0  0  0  0  0  0
    6.2877    1.3082   -0.9140 C   0  0  0  0  0  0  0  0  0  0  0  0
    6.1848    2.6497   -1.5964 C   0  0  0  0  0  0  0  0  0  0  0  0
    5.3787    0.3419   -1.3154 C   0  0  0  0  0  0  0  0  0  0  0  0
    1.0647   -2.3994    1.3543 N   0  0  0  0  0  0  0  0  0  0  0  0
    0.0071   -2.6009    2.1743 C   0  0  0  0  0  0  0  0  0  0  0  0
   -1.0462   -1.7801    2.0775 N   0  0  0  0  0  0  0  0  0  0  0  0
   -6.4575   -0.3167    0.8463 C   0  0  0  0  0  0  0  0  0  0  0  0
   -7.3282   -0.5920   -0.1789 C   0  0  0  0  0  0  0  0  0  0  0  0
   -7.2388    0.0686   -1.4006 C   0  0  0  0  0  0  0  0  0  0  0  0
   -8.1092   -0.2193   -2.3980 F   0  0  0  0  0  0  0  0  0  0  0  0
   -7.1432    1.9428   -3.2623 H   0  0  0  0  0  0  0  0  0  0  0  0
   -5.6180    2.7151   -2.6721 H   0  0  0  0  0  0  0  0  0  0  0  0
   -5.5860    1.1445   -3.5943 H   0  0  0  0  0  0  0  0  0  0  0  0
   -4.5989    2.0195   -0.6227 H   0  0  0  0  0  0  0  0  0  0  0  0
   -5.0655    0.8406    2.8294 H   0  0  0  0  0  0  0  0  0  0  0  0
   -4.2137    1.9448    1.7436 H   0  0  0  0  0  0  0  0  0  0  0  0
   -3.3834   -0.7725    2.6027 H   0  0  0  0  0  0  0  0  0  0  0  0
   -0.0132    0.2301   -0.3456 H   0  0  0  0  0  0  0  0  0  0  0  0
    3.2652   -2.8652    0.4474 H   0  0  0  0  0  0  0  0  0  0  0  0
    5.0691   -2.9307   -1.0710 H   0  0  0  0  0  0  0  0  0  0  0  0
    4.2622   -1.8194   -2.1950 H   0  0  0  0  0  0  0  0  0  0  0  0
    6.4874   -2.0877    0.7574 H   0  0  0  0  0  0  0  0  0  0  0  0
    8.0622   -0.2782    1.3929 H   0  0  0  0  0  0  0  0  0  0  0  0
    6.1193    2.5124   -2.6978 H   0  0  0  0  0  0  0  0  0  0  0  0
    7.0760    3.2451   -1.3528 H   0  0  0  0  0  0  0  0  0  0  0  0
    5.2976    3.2072   -1.2282 H   0  0  0  0  0  0  0  0  0  0  0  0
    4.6423    0.5840   -2.1025 H   0  0  0  0  0  0  0  0  0  0  0  0
    0.0005   -3.4001    2.8924 H   0  0  0  0  0  0  0  0  0  0  0  0
   -6.5496   -0.8452    1.7869 H   0  0  0  0  0  0  0  0  0  0  0  0
   -8.1062   -1.3295   -0.0634 H   0  0  0  0  0  0  0  0  0  0  0  0
  1  2  1  0
  2  3  2  0
  3  4  1  0
  4  5  1  0
  5  6  1  0
  6  7  1  0
  7  8  2  0
  7  9  1  0
  9 10  2  0
 10 11  1  0
 11 12  1  0
 12 13  2  0
 12 14  1  0
 14 15  1  0
 15 16  1  0
 16 17  2  0
 17 18  1  0
 18 19  2  0
 19 20  1  0
 19 21  1  0
 21 22  1  0
 21 23  2  0
 11 24  2  0
 24 25  1  0
 25 26  2  0
  4 27  2  0
 27 28  1  0
 28 29  2  0
 29 30  1  0
 29  2  1  0
 26  9  1  0
 23 16  1  0
  1 31  1  0
  1 32  1  0
  1 33  1  0
  3 34  1  0
  5 35  1  0
  5 36  1  0
  6 37  1  0
 10 38  1  0
 14 39  1  0
 15 40  1  0
 15 41  1  0
 17 42  1  0
 18 43  1  0
 22 44  1  0
 22 45  1  0
 22 46  1  0
 23 47  1  0
 25 48  1  0
 27 49  1  0
 28 50  1  0
M  END
$$$$
