
     RDKit          3D

 56 59  0  0  0  0  0  0  0  0999 V2000
    8.9032   -1.2088   -0.9228 C   0  0  0  0  0  0  0  0  0  0  0  0
    8.2156    0.0083   -0.8069 O   0  0  0  0  0  0  0  0  0  0  0  0
    6.8629    0.0153   -0.4972 C   0  0  0  0  0  0  0  0  0  0  0  0
    6.2590    1.2641   -0.4017 C   0  0  0  0  0  0  0  0  0  0  0  0
    4.9500    1.2988   -0.1033 N   0  0  0  0  0  0  0  0  0  0  0  0
    4.1969    0.2212    0.1060 C   0  0  0  0  0  0  0  0  0  0  0  0
    2.8302    0.3379    0.4121 C   0  0  0  0  0  0  0  0  0  0  0  0
    2.2978    1.6310    0.5135 N   0  0  0  0  0  0  0  0  0  0  0  0
    0.9230    1.8562    0.7005 C   0  0  0  0  0  0  0  0  0  0  0  0
    0.5303    3.0202    1.3662 C   0  0  0  0  0  0  0  0  0  0  0  0
   -0.8103    3.2572    1.5285 C   0  0  0  0  0  0  0  0  0  0  0  0
   -1.7509    2.3663    1.0454 C   0  0  0  0  0  0  0  0  0  0  0  0
   -3.0848    2.5767    1.1929 F   0  0  0  0  0  0  0  0  0  0  0  0
   -1.3795    1.2106    0.3845 C   0  0  0  0  0  0  0  0  0  0  0  0
   -2.4307    0.2575   -0.1425 C   0  0  2  0  0  0  0  0  0  0  0  0
   -1.6260   -0.9571   -0.6670 C   0  0  0  0  0  0  0  0  0  0  0  0
   -3.0825    0.9793   -1.2653 C   0  0  0  0  0  0  0  0  0  0  0  0
   -4.8405    0.8885   -1.1812 S   0  0  0  0  0  6  0  0  0  0  0  0
   -5.4190    0.6517   -2.5653 O   0  0  0  0  0  0  0  0  0  0  0  0
   -5.4544    2.1640   -0.6823 O   0  0  0  0  0  0  0  0  0  0  0  0
   -5.2722   -0.4950   -0.1751 C   0  0  0  0  0  0  0  0  0  0  0  0
   -6.7340   -0.3894    0.2932 C   0  0  0  0  0  0  0  0  0  0  0  0
   -5.2085   -1.7423   -1.0096 C   0  0  0  0  0  0  0  0  0  0  0  0
   -4.4052   -0.5202    1.0219 C   0  0  0  0  0  0  0  0  0  0  0  0
   -4.9997   -0.9480    2.2665 N   0  0  0  0  0  0  0  0  0  0  0  0
   -3.2007   -0.1807    0.9415 N   0  0  0  0  0  0  0  0  0  0  0  0
   -0.0341    0.9802    0.2256 C   0  0  0  0  0  0  0  0  0  0  0  0
    2.1684   -0.8052    0.6004 N   0  0  0  0  0  0  0  0  0  0  0  0
    2.6909   -2.0202    0.5224 C   0  0  0  0  0  0  0  0  0  0  0  0
    4.0346   -2.1626    0.2224 C   0  0  0  0  0  0  0  0  0  0  0  0
    4.6062   -3.3669    0.1332 F   0  0  0  0  0  0  0  0  0  0  0  0
    4.7767   -1.0097    0.0155 C   0  0  0  0  0  0  0  0  0  0  0  0
    6.1203   -1.1204   -0.2882 C   0  0  0  0  0  0  0  0  0  0  0  0
    8.3240   -2.0088   -1.4114 H   0  0  0  0  0  0  0  0  0  0  0  0
    9.8099   -1.0472   -1.5442 H   0  0  0  0  0  0  0  0  0  0  0  0
    9.2602   -1.5188    0.1010 H   0  0  0  0  0  0  0  0  0  0  0  0
    6.8380    2.1578   -0.5648 H   0  0  0  0  0  0  0  0  0  0  0  0
    2.9760    2.4583    0.4463 H   0  0  0  0  0  0  0  0  0  0  0  0
    1.3058    3.6775    1.7211 H   0  0  0  0  0  0  0  0  0  0  0  0
   -1.1318    4.1513    2.0405 H   0  0  0  0  0  0  0  0  0  0  0  0
   -1.0443   -0.7152   -1.5555 H   0  0  0  0  0  0  0  0  0  0  0  0
   -2.3379   -1.8091   -0.8769 H   0  0  0  0  0  0  0  0  0  0  0  0
   -1.0412   -1.3138    0.2031 H   0  0  0  0  0  0  0  0  0  0  0  0
   -2.7646    0.4761   -2.2294 H   0  0  0  0  0  0  0  0  0  0  0  0
   -2.7906    2.0710   -1.3283 H   0  0  0  0  0  0  0  0  0  0  0  0
   -6.8038    0.2198    1.2050 H   0  0  0  0  0  0  0  0  0  0  0  0
   -7.3548   -0.0398   -0.5395 H   0  0  0  0  0  0  0  0  0  0  0  0
   -7.0022   -1.4433    0.5933 H   0  0  0  0  0  0  0  0  0  0  0  0
   -6.1847   -2.0372   -1.4467 H   0  0  0  0  0  0  0  0  0  0  0  0
   -4.7503   -2.5970   -0.4366 H   0  0  0  0  0  0  0  0  0  0  0  0
   -4.5186   -1.6133   -1.8936 H   0  0  0  0  0  0  0  0  0  0  0  0
   -4.7168   -0.5050    3.1566 H   0  0  0  0  0  0  0  0  0  0  0  0
   -5.7087   -1.7044    2.2236 H   0  0  0  0  0  0  0  0  0  0  0  0
    0.2990    0.0974   -0.2970 H   0  0  0  0  0  0  0  0  0  0  0  0
    2.1175   -2.9241    0.6828 H   0  0  0  0  0  0  0  0  0  0  0  0
    6.5864   -2.0906   -0.3607 H   0  0  0  0  0  0  0  0  0  0  0  0
  1  2  1  0
  2  3  1  0
  3  4  2  0
  4  5  1  0
  5  6  2  0
  6  7  1  0
  7  8  1  0
  8  9  1  0
  9 10  2  0
 10 11  1  0
 11 12  2  0
 12 13  1  0
 12 14  1  0
 14 15  1  0
 15 16  1  6
 15 17  1  0
 17 18  1  0
 18 19  2  0
 18 20  2  0
 18 21  1  0
 21 22  1  0
 21 23  1  0
 21 24  1  0
 24 25  1  0
 24 26  2  0
 14 27  2  0
  7 28  2  0
 28 29  1  0
 29 30  2  0
 30 31  1  0
 30 32  1  0
 32 33  2  0
 33  3  1  0
 32  6  1  0
 27  9  1  0
 26 15  1  0
  1 34  1  0
  1 35  1  0
  1 36  1  0
  4 37  1  0
  8 38  1  0
 10 39  1  0
 11 40  1  0
 16 41  1  0
 16 42  1  0
 16 43  1  0
 17 44  1  0
 17 45  1  0
 22 46  1  0
 22 47  1  0
 22 48  1  0
 23 49  1  0
 23 50  1  0
 23 51  1  0
 25 52  1  0
 25 53  1  0
 27 54  1  0
 29 55  1  0
 33 56  1  0
M  END
$$$$
