
     RDKit          3D

 91 93  0  0  0  0  0  0  0  0999 V2000
   -3.1855   -2.8582    0.1789 C   0  0  2  0  0  0  0  0  0  0  0  0
   -4.0313   -3.7592   -0.4934 O   0  0  0  0  0  0  0  0  0  0  0  0
   -3.9898   -1.6260    0.4530 C   0  0  0  0  0  0  0  0  0  0  0  0
   -5.1845   -1.9633    1.3075 C   0  0  0  0  0  0  0  0  0  0  0  0
   -5.1272   -1.9292    2.6779 C   0  0  0  0  0  0  0  0  0  0  0  0
   -6.3015   -2.2598    3.3397 C   0  0  0  0  0  0  0  0  0  0  0  0
   -7.4908   -2.6112    2.7166 C   0  0  0  0  0  0  0  0  0  0  0  0
   -8.6278   -2.9299    3.4389 O   0  0  0  0  0  0  0  0  0  0  0  0
   -7.4904   -2.6284    1.3351 C   0  0  0  0  0  0  0  0  0  0  0  0
   -6.3447   -2.3065    0.6552 C   0  0  0  0  0  0  0  0  0  0  0  0
   -1.9837   -2.5971   -0.6754 C   0  0  0  0  0  0  0  0  0  0  0  0
   -1.4325   -3.8834   -0.8423 O   0  0  0  0  0  0  0  0  0  0  0  0
   -1.2611   -1.7674   -1.2967 N   0  0  0  0  0  0  0  0  0  0  0  0
   -1.4056   -0.3468   -1.4262 C   0  0  1  0  0  0  0  0  0  0  0  0
   -0.2494    0.3693   -0.9064 C   0  0  0  0  0  0  0  0  0  0  0  0
    0.0817   -0.8290   -0.7492 O   0  0  0  0  0  0  0  0  0  0  0  0
    0.5527    1.4343   -0.5497 N   0  0  0  0  0  0  0  0  0  0  0  0
    1.8159    1.0102    0.0091 C   0  0  1  0  0  0  0  0  0  0  0  0
    2.5025    2.3088    0.3602 C   0  0  0  0  0  0  0  0  0  0  0  0
    1.9354    3.2730   -0.6327 C   0  0  2  0  0  0  0  0  0  0  0  0
    2.1332    4.7062   -0.2878 C   0  0  0  0  0  0  0  0  0  0  0  0
    0.8294    5.4420   -0.5161 C   0  0  0  0  0  0  0  0  0  0  0  0
   -0.1971    4.9548    0.5076 C   0  0  2  0  0  0  0  0  0  0  0  0
   -0.1283    3.4538    0.6637 C   0  0  0  0  0  0  0  0  0  0  0  0
    0.4510    2.8694   -0.5924 C   0  0  2  0  0  0  0  0  0  0  0  0
   -1.4389    5.3804    0.0376 O   0  0  0  0  0  0  0  0  0  0  0  0
   -2.1128    6.5545    1.0353 S   0  0  0  0  0  0  0  0  0  0  0  0
   -0.9015    7.1495    2.0249 O   0  0  0  0  0  0  0  0  0  0  0  0
   -3.1950    5.8994    1.8390 O   0  0  0  0  0  0  0  0  0  0  0  0
   -2.7292    7.6730    0.2448 O   0  0  0  0  0  0  0  0  0  0  0  0
    1.6755    0.0916    1.1646 C   0  0  0  0  0  0  0  0  0  0  0  0
    1.3436   -0.4713    2.3801 O   0  0  0  0  0  0  0  0  0  0  0  0
    2.1440   -1.1070    1.3330 N   0  0  0  0  0  0  0  0  0  0  0  0
    2.9355   -1.8353    0.3945 C   0  0  0  0  0  0  0  0  0  0  0  0
    4.4229   -1.8118    0.6931 C   0  0  0  0  0  0  0  0  0  0  0  0
    5.2122   -2.5847   -0.3209 C   0  0  0  0  0  0  0  0  0  0  0  0
    6.7089   -2.5447    0.0063 C   0  0  0  0  0  0  0  0  0  0  0  0
    6.9248   -3.1304    1.3163 N   0  0  0  0  0  0  0  0  0  0  0  0
    8.3078   -3.1460    1.7227 C   0  0  0  0  0  0  0  0  0  0  0  0
    8.7160   -3.9524    2.8357 N   0  0  0  0  0  0  0  0  0  0  0  0
    9.2495   -2.4806    1.1627 N   0  0  0  0  0  0  0  0  0  0  0  0
   -1.6291   -0.0835   -2.9108 C   0  0  2  0  0  0  0  0  0  0  0  0
   -1.7925    1.4019   -3.1045 C   0  0  0  0  0  0  0  0  0  0  0  0
   -2.7967   -0.8793   -3.4484 C   0  0  0  0  0  0  0  0  0  0  0  0
   -2.9929   -0.5969   -4.9224 C   0  0  0  0  0  0  0  0  0  0  0  0
   -2.8820   -3.2779    1.1534 H   0  0  0  0  0  0  0  0  0  0  0  0
   -3.7444   -4.6873   -0.3115 H   0  0  0  0  0  0  0  0  0  0  0  0
   -3.4393   -0.8679    1.0488 H   0  0  0  0  0  0  0  0  0  0  0  0
   -4.3535   -1.1570   -0.4587 H   0  0  0  0  0  0  0  0  0  0  0  0
   -4.2259   -1.6626    3.1890 H   0  0  0  0  0  0  0  0  0  0  0  0
   -6.2831   -2.2400    4.4242 H   0  0  0  0  0  0  0  0  0  0  0  0
   -9.3300   -3.5332    3.0318 H   0  0  0  0  0  0  0  0  0  0  0  0
   -8.4213   -2.9025    0.8743 H   0  0  0  0  0  0  0  0  0  0  0  0
   -6.4290   -2.3414   -0.4214 H   0  0  0  0  0  0  0  0  0  0  0  0
   -0.5183   -4.0235   -1.2523 H   0  0  0  0  0  0  0  0  0  0  0  0
   -2.2936   -0.0308   -0.8482 H   0  0  0  0  0  0  0  0  0  0  0  0
    2.3937    0.4729   -0.7752 H   0  0  0  0  0  0  0  0  0  0  0  0
    3.5995    2.1237    0.1764 H   0  0  0  0  0  0  0  0  0  0  0  0
    2.3489    2.5816    1.4148 H   0  0  0  0  0  0  0  0  0  0  0  0
    2.2995    2.9709   -1.6327 H   0  0  0  0  0  0  0  0  0  0  0  0
    2.5156    4.8644    0.7458 H   0  0  0  0  0  0  0  0  0  0  0  0
    2.8509    5.1272   -1.0404 H   0  0  0  0  0  0  0  0  0  0  0  0
    0.4945    5.1983   -1.5458 H   0  0  0  0  0  0  0  0  0  0  0  0
    0.9979    6.5270   -0.4270 H   0  0  0  0  0  0  0  0  0  0  0  0
    0.0695    5.4832    1.4467 H   0  0  0  0  0  0  0  0  0  0  0  0
   -1.2050    3.1230    0.7503 H   0  0  0  0  0  0  0  0  0  0  0  0
    0.4135    3.1770    1.5922 H   0  0  0  0  0  0  0  0  0  0  0  0
   -0.1181    3.2559   -1.4379 H   0  0  0  0  0  0  0  0  0  0  0  0
   -0.3156    7.7297    1.4712 H   0  0  0  0  0  0  0  0  0  0  0  0
    0.8381    0.0847    3.0788 H   0  0  0  0  0  0  0  0  0  0  0  0
    2.6531   -2.9280    0.4381 H   0  0  0  0  0  0  0  0  0  0  0  0
    2.7406   -1.5247   -0.6327 H   0  0  0  0  0  0  0  0  0  0  0  0
    4.7617   -0.7565    0.6388 H   0  0  0  0  0  0  0  0  0  0  0  0
    4.6418   -2.1746    1.7077 H   0  0  0  0  0  0  0  0  0  0  0  0
    5.1237   -2.1352   -1.3328 H   0  0  0  0  0  0  0  0  0  0  0  0
    4.9225   -3.6504   -0.3875 H   0  0  0  0  0  0  0  0  0  0  0  0
    7.2843   -3.1232   -0.7318 H   0  0  0  0  0  0  0  0  0  0  0  0
    7.0355   -1.4976    0.0145 H   0  0  0  0  0  0  0  0  0  0  0  0
    6.2758   -3.5324    2.0023 H   0  0  0  0  0  0  0  0  0  0  0  0
    8.7551   -3.5524    3.8176 H   0  0  0  0  0  0  0  0  0  0  0  0
    9.0080   -4.9639    2.8404 H   0  0  0  0  0  0  0  0  0  0  0  0
    9.0264   -1.8678    0.3422 H   0  0  0  0  0  0  0  0  0  0  0  0
   -0.7495   -0.3851   -3.5082 H   0  0  0  0  0  0  0  0  0  0  0  0
   -2.1087    1.9201   -2.1560 H   0  0  0  0  0  0  0  0  0  0  0  0
   -2.5646    1.6533   -3.8693 H   0  0  0  0  0  0  0  0  0  0  0  0
   -0.8457    1.8951   -3.4192 H   0  0  0  0  0  0  0  0  0  0  0  0
   -2.4756   -1.9596   -3.3643 H   0  0  0  0  0  0  0  0  0  0  0  0
   -3.7205   -0.7849   -2.8680 H   0  0  0  0  0  0  0  0  0  0  0  0
   -3.8309    0.0600   -5.1549 H   0  0  0  0  0  0  0  0  0  0  0  0
   -3.1073   -1.5545   -5.4887 H   0  0  0  0  0  0  0  0  0  0  0  0
   -2.0111   -0.1860   -5.2935 H   0  0  0  0  0  0  0  0  0  0  0  0
  1  2  1  0
  1  3  1  0
  3  4  1  0
  4  5  2  0
  5  6  1  0
  6  7  2  0
  7  8  1  0
  7  9  1  0
  9 10  2  0
  1 11  1  0
 11 12  1  0
 11 13  2  3
 13 14  1  0
 14 15  1  0
 15 16  2  0
 15 17  1  0
 17 18  1  0
 18 19  1  0
 19 20  1  0
 20 21  1  0
 21 22  1  0
 22 23  1  0
 23 24  1  0
 24 25  1  0
 23 26  1  0
 26 27  1  0
 27 28  1  0
 27 29  2  0
 27 30  2  0
 18 31  1  0
 31 32  1  0
 31 33  2  3
 33 34  1  0
 34 35  1  0
 35 36  1  0
 36 37  1  0
 37 38  1  0
 38 39  1  0
 39 40  1  0
 39 41  2  3
 14 42  1  0
 42 43  1  0
 42 44  1  0
 44 45  1  0
 10  4  1  0
 25 17  1  0
 25 20  1  0
  1 46  1  1
  2 47  1  0
  3 48  1  0
  3 49  1  0
  5 50  1  0
  6 51  1  0
  8 52  1  0
  9 53  1  0
 10 54  1  0
 12 55  1  0
 14 56  1  1
 18 57  1  6
 19 58  1  0
 19 59  1  0
 20 60  1  6
 21 61  1  0
 21 62  1  0
 22 63  1  0
 22 64  1  0
 23 65  1  1
 24 66  1  0
 24 67  1  0
 25 68  1  6
 28 69  1  0
 32 70  1  0
 34 71  1  0
 34 72  1  0
 35 73  1  0
 35 74  1  0
 36 75  1  0
 36 76  1  0
 37 77  1  0
 37 78  1  0
 38 79  1  0
 40 80  1  0
 40 81  1  0
 41 82  1  0
 42 83  1  6
 43 84  1  0
 43 85  1  0
 43 86  1  0
 44 87  1  0
 44 88  1  0
 45 89  1  0
 45 90  1  0
 45 91  1  0
M  END
$$$$
