
     RDKit          3D

 33 35  0  0  0  0  0  0  0  0999 V2000
   -0.3566   -1.7060    1.0419 O   0  0  0  0  0  0  0  0  0  0  0  0
   -0.2145   -0.6744    0.3692 C   0  0  0  0  0  0  0  0  0  0  0  0
    1.1907   -0.2262    0.2016 C   0  0  0  0  0  0  0  0  0  0  0  0
    2.1963   -0.8912    0.7371 C   0  0  0  0  0  0  0  0  0  0  0  0
    3.5879   -0.4969    0.6041 C   0  0  0  0  0  0  0  0  0  0  0  0
    4.0371    0.5988   -0.0828 C   0  0  0  0  0  0  0  0  0  0  0  0
    5.4044    0.9043   -0.1591 C   0  0  0  0  0  0  0  0  0  0  0  0
    6.3311    0.1110    0.4544 C   0  0  0  0  0  0  0  0  0  0  0  0
    5.8860   -0.9630    1.1273 N   0  0  0  0  0  0  0  0  0  0  0  0
    4.5816   -1.2756    1.2141 C   0  0  0  0  0  0  0  0  0  0  0  0
   -1.2938    0.0545   -0.2156 C   0  0  0  0  0  0  0  0  0  0  0  0
   -1.0567    1.2143   -0.9648 C   0  0  0  0  0  0  0  0  0  0  0  0
   -2.0614    1.9531   -1.5492 C   0  0  0  0  0  0  0  0  0  0  0  0
   -3.3519    1.5561   -1.4050 C   0  0  0  0  0  0  0  0  0  0  0  0
   -3.6621    0.4261   -0.6824 C   0  0  0  0  0  0  0  0  0  0  0  0
   -4.9753    0.0309   -0.5414 C   0  0  0  0  0  0  0  0  0  0  0  0
   -5.3309   -1.0862    0.1684 C   0  0  0  0  0  0  0  0  0  0  0  0
   -4.3333   -1.8207    0.7493 C   0  0  0  0  0  0  0  0  0  0  0  0
   -2.9904   -1.4283    0.6130 C   0  0  0  0  0  0  0  0  0  0  0  0
   -2.6200   -0.3082   -0.0975 C   0  0  0  0  0  0  0  0  0  0  0  0
    1.4611    0.6486   -0.3550 H   0  0  0  0  0  0  0  0  0  0  0  0
    1.9333   -1.7848    1.3069 H   0  0  0  0  0  0  0  0  0  0  0  0
    3.3288    1.2386   -0.5740 H   0  0  0  0  0  0  0  0  0  0  0  0
    5.7121    1.7968   -0.7240 H   0  0  0  0  0  0  0  0  0  0  0  0
    7.3793    0.3657    0.3824 H   0  0  0  0  0  0  0  0  0  0  0  0
    4.2374   -2.1512    1.7644 H   0  0  0  0  0  0  0  0  0  0  0  0
   -0.0376    1.5271   -1.0782 H   0  0  0  0  0  0  0  0  0  0  0  0
   -1.8109    2.8482   -2.1211 H   0  0  0  0  0  0  0  0  0  0  0  0
   -4.1788    2.1024   -1.8448 H   0  0  0  0  0  0  0  0  0  0  0  0
   -5.7564    0.6176   -1.0039 H   0  0  0  0  0  0  0  0  0  0  0  0
   -6.3711   -1.3792    0.2667 H   0  0  0  0  0  0  0  0  0  0  0  0
   -4.6062   -2.7012    1.3094 H   0  0  0  0  0  0  0  0  0  0  0  0
   -2.2594   -2.0422    1.0889 H   0  0  0  0  0  0  0  0  0  0  0  0
  1  2  2  0
  2  3  1  0
  3  4  2  0
  4  5  1  0
  5  6  2  0
  6  7  1  0
  7  8  2  0
  8  9  1  0
  9 10  2  0
  2 11  1  0
 11 12  2  0
 12 13  1  0
 13 14  2  0
 14 15  1  0
 15 16  2  0
 16 17  1  0
 17 18  2  0
 18 19  1  0
 19 20  2  0
 10  5  1  0
 20 11  1  0
 20 15  1  0
  3 21  1  0
  4 22  1  0
  6 23  1  0
  7 24  1  0
  8 25  1  0
 10 26  1  0
 12 27  1  0
 13 28  1  0
 14 29  1  0
 16 30  1  0
 17 31  1  0
 18 32  1  0
 19 33  1  0
M  END
$$$$
