
     RDKit          3D

 55 59  0  0  0  0  0  0  0  0999 V2000
    5.8068   -1.2551   -1.3702 C   0  0  0  0  0  0  0  0  0  0  0  0
    5.7616   -0.0166   -0.4937 C   0  0  0  0  0  0  0  0  0  0  0  0
    6.3255    1.1367   -1.2879 C   0  0  0  0  0  0  0  0  0  0  0  0
    6.5996   -0.3120    0.7233 C   0  0  0  0  0  0  0  0  0  0  0  0
    4.3922    0.3352   -0.0909 C   0  0  0  0  0  0  0  0  0  0  0  0
    3.7651    1.1973    0.5821 N   0  0  0  0  0  0  0  0  0  0  0  0
    2.4915    1.1797    0.7162 N   0  0  0  0  0  0  0  0  0  0  0  0
    1.7299    0.3668    0.2369 C   0  0  0  0  0  0  0  0  0  0  0  0
    0.3067    0.0052    0.1846 C   0  0  0  0  0  0  0  0  0  0  0  0
   -0.2010   -1.1516   -0.3225 N   0  0  0  0  0  0  0  0  0  0  0  0
   -1.5035   -1.1789   -0.1390 N   0  0  0  0  0  0  0  0  0  0  0  0
   -2.2901   -2.2744   -0.5713 C   0  0  0  0  0  0  0  0  0  0  0  0
   -2.0029   -3.4982    0.0460 C   0  0  0  0  0  0  0  0  0  0  0  0
   -2.7283   -4.6018   -0.3264 C   0  0  0  0  0  0  0  0  0  0  0  0
   -3.7112   -4.4907   -1.2855 C   0  0  0  0  0  0  0  0  0  0  0  0
   -3.9810   -3.2770   -1.8835 C   0  0  0  0  0  0  0  0  0  0  0  0
   -3.2606   -2.1355   -1.5268 C   0  0  0  0  0  0  0  0  0  0  0  0
   -3.5908   -0.5947   -2.2822 Cl  0  0  0  0  0  0  0  0  0  0  0  0
   -1.8975   -0.0400    0.4949 C   0  0  0  0  0  0  0  0  0  0  0  0
   -3.2757    0.2216    0.8633 C   0  0  0  0  0  0  0  0  0  0  0  0
   -3.9762   -0.7885    1.5516 C   0  0  0  0  0  0  0  0  0  0  0  0
   -5.2732   -0.6900    1.9405 C   0  0  0  0  0  0  0  0  0  0  0  0
   -5.9677    0.4714    1.6504 C   0  0  0  0  0  0  0  0  0  0  0  0
   -7.7982    0.6371    2.1916 Br  0  0  0  0  0  0  0  0  0  0  0  0
   -5.3044    1.4693    0.9796 C   0  0  0  0  0  0  0  0  0  0  0  0
   -3.9715    1.3496    0.5876 C   0  0  0  0  0  0  0  0  0  0  0  0
   -0.7428    0.6918    0.6861 C   0  0  0  0  0  0  0  0  0  0  0  0
   -0.7263    2.0058    1.3437 C   0  0  0  0  0  0  0  0  0  0  0  0
   -0.5756    3.1526    0.4974 N   0  0  0  0  0  0  0  0  0  0  0  0
    0.5537    3.7802    0.1688 C   0  0  0  0  0  0  0  0  0  0  0  0
    0.3031    4.8276   -0.6669 N   0  0  0  0  0  0  0  0  0  0  0  0
   -1.0066    4.8476   -0.8572 C   0  0  0  0  0  0  0  0  0  0  0  0
   -1.5195    3.8490   -0.1613 N   0  0  0  0  0  0  0  0  0  0  0  0
    2.9203   -0.7003   -0.6431 S   0  0  0  0  0  0  0  0  0  0  0  0
    5.2433   -0.9926   -2.2936 H   0  0  0  0  0  0  0  0  0  0  0  0
    5.2653   -2.0845   -0.8813 H   0  0  0  0  0  0  0  0  0  0  0  0
    6.8669   -1.4789   -1.5715 H   0  0  0  0  0  0  0  0  0  0  0  0
    6.3357    2.0618   -0.6844 H   0  0  0  0  0  0  0  0  0  0  0  0
    7.3100    0.8666   -1.6800 H   0  0  0  0  0  0  0  0  0  0  0  0
    5.6527    1.2734   -2.1708 H   0  0  0  0  0  0  0  0  0  0  0  0
    6.9872    0.5921    1.2223 H   0  0  0  0  0  0  0  0  0  0  0  0
    7.5048   -0.8646    0.3495 H   0  0  0  0  0  0  0  0  0  0  0  0
    6.0649   -0.9940    1.3883 H   0  0  0  0  0  0  0  0  0  0  0  0
   -1.2217   -3.5702    0.8019 H   0  0  0  0  0  0  0  0  0  0  0  0
   -2.5415   -5.5853    0.1267 H   0  0  0  0  0  0  0  0  0  0  0  0
   -4.2792   -5.3870   -1.5690 H   0  0  0  0  0  0  0  0  0  0  0  0
   -4.7500   -3.1750   -2.6374 H   0  0  0  0  0  0  0  0  0  0  0  0
   -3.4247   -1.6829    1.7729 H   0  0  0  0  0  0  0  0  0  0  0  0
   -5.8157   -1.4584    2.4674 H   0  0  0  0  0  0  0  0  0  0  0  0
   -5.8289    2.3909    0.7392 H   0  0  0  0  0  0  0  0  0  0  0  0
   -3.4824    2.1388    0.0510 H   0  0  0  0  0  0  0  0  0  0  0  0
   -1.6767    2.1871    1.9228 H   0  0  0  0  0  0  0  0  0  0  0  0
    0.0743    2.0678    2.1246 H   0  0  0  0  0  0  0  0  0  0  0  0
    1.5658    3.5870    0.4757 H   0  0  0  0  0  0  0  0  0  0  0  0
   -1.5014    5.5883   -1.4907 H   0  0  0  0  0  0  0  0  0  0  0  0
  1  2  1  0
  2  3  1  0
  2  4  1  0
  2  5  1  0
  5  6  2  0
  6  7  1  0
  7  8  2  0
  8  9  1  0
  9 10  2  0
 10 11  1  0
 11 12  1  0
 12 13  2  0
 13 14  1  0
 14 15  2  0
 15 16  1  0
 16 17  2  0
 17 18  1  0
 11 19  1  0
 19 20  1  0
 20 21  2  0
 21 22  1  0
 22 23  2  0
 23 24  1  0
 23 25  1  0
 25 26  2  0
 19 27  2  0
 27 28  1  0
 28 29  1  0
 29 30  1  0
 30 31  2  0
 31 32  1  0
 32 33  2  0
  8 34  1  0
 34  5  1  0
 27  9  1  0
 33 29  1  0
 17 12  1  0
 26 20  1  0
  1 35  1  0
  1 36  1  0
  1 37  1  0
  3 38  1  0
  3 39  1  0
  3 40  1  0
  4 41  1  0
  4 42  1  0
  4 43  1  0
 13 44  1  0
 14 45  1  0
 15 46  1  0
 16 47  1  0
 21 48  1  0
 22 49  1  0
 25 50  1  0
 26 51  1  0
 28 52  1  0
 28 53  1  0
 30 54  1  0
 32 55  1  0
M  END
$$$$
