
     RDKit          3D

 75 78  0  0  0  0  0  0  0  0999 V2000
   -8.5759    3.9172    2.1833 C   0  0  0  0  0  0  0  0  0  0  0  0
   -8.1659    2.6827    2.6943 O   0  0  0  0  0  0  0  0  0  0  0  0
   -7.3497    1.8520    1.9076 C   0  0  0  0  0  0  0  0  0  0  0  0
   -6.9426    2.2207    0.6472 C   0  0  0  0  0  0  0  0  0  0  0  0
   -6.1323    1.3563   -0.0900 C   0  0  0  0  0  0  0  0  0  0  0  0
   -5.7847    0.1659    0.5026 C   0  0  0  0  0  0  0  0  0  0  0  0
   -4.9177   -0.7745   -0.2682 C   0  0  0  0  0  0  0  0  0  0  0  0
   -3.4964   -0.4068    0.0611 C   0  0  0  0  0  0  0  0  0  0  0  0
   -2.5935   -1.2758   -0.6345 N   0  0  0  0  0  0  0  0  0  0  0  0
   -1.1874   -1.1015   -0.5229 C   0  0  0  0  0  0  0  0  0  0  0  0
   -0.6930   -0.0851    0.2010 N   0  0  0  0  0  0  0  0  0  0  0  0
    0.6575    0.0730    0.3042 C   0  0  0  0  0  0  0  0  0  0  0  0
    1.5688   -0.7815   -0.3132 C   0  0  0  0  0  0  0  0  0  0  0  0
    2.9859   -0.5627   -0.1631 C   0  0  0  0  0  0  0  0  0  0  0  0
    3.8521   -1.3096   -0.6980 O   0  0  0  0  0  0  0  0  0  0  0  0
    3.4663    0.5285    0.6134 N   0  0  0  0  0  0  0  0  0  0  0  0
    4.8853    0.7993    0.8043 C   0  0  0  0  0  0  0  0  0  0  0  0
    5.6181    1.0669   -0.4719 C   0  0  0  0  0  0  0  0  0  0  0  0
    7.0716    1.3329   -0.2975 C   0  0  0  0  0  0  0  0  0  0  0  0
    7.4344    2.4450    0.5114 N   0  0  0  0  0  0  0  0  0  0  0  0
    7.7177    2.4095    1.9304 C   0  0  0  0  0  0  0  0  0  0  0  0
    8.6242    3.6123    2.1774 C   0  0  0  0  0  0  0  0  0  0  0  0
    8.2006    4.6254    1.1279 C   0  0  0  0  0  0  0  0  0  0  0  0
    7.6130    3.8018    0.0613 C   0  0  0  0  0  0  0  0  0  0  0  0
    7.3065    4.2063   -1.0832 O   0  0  0  0  0  0  0  0  0  0  0  0
    1.0234   -1.8029   -1.0394 C   0  0  0  0  0  0  0  0  0  0  0  0
    1.7811   -2.7466   -1.7123 N   0  0  0  0  0  0  0  0  0  0  0  0
    1.1334   -3.8028   -2.4625 C   0  0  0  0  0  0  0  0  0  0  0  0
    0.2648   -4.6217   -1.5241 C   0  0  0  0  0  0  0  0  0  0  0  0
   -1.0765   -4.7702   -2.1819 C   0  0  0  0  0  0  0  0  0  0  0  0
   -0.8716   -4.2964   -3.6028 C   0  0  0  0  0  0  0  0  0  0  0  0
    0.2426   -3.2874   -3.5616 C   0  0  0  0  0  0  0  0  0  0  0  0
   -0.3284   -1.9133   -1.1090 N   0  0  0  0  0  0  0  0  0  0  0  0
   -6.1898   -0.2115    1.7678 C   0  0  0  0  0  0  0  0  0  0  0  0
   -6.9946    0.6563    2.4898 C   0  0  0  0  0  0  0  0  0  0  0  0
   -7.4245    0.3273    3.7539 O   0  0  0  0  0  0  0  0  0  0  0  0
   -7.0472   -0.9002    4.3271 C   0  0  0  0  0  0  0  0  0  0  0  0
   -7.7681    4.6861    2.2370 H   0  0  0  0  0  0  0  0  0  0  0  0
   -9.3950    4.3212    2.8390 H   0  0  0  0  0  0  0  0  0  0  0  0
   -8.9233    3.8358    1.1493 H   0  0  0  0  0  0  0  0  0  0  0  0
   -7.2379    3.1587    0.2284 H   0  0  0  0  0  0  0  0  0  0  0  0
   -5.8049    1.6301   -1.0785 H   0  0  0  0  0  0  0  0  0  0  0  0
   -5.1285   -0.6011   -1.3467 H   0  0  0  0  0  0  0  0  0  0  0  0
   -5.1293   -1.8354   -0.0353 H   0  0  0  0  0  0  0  0  0  0  0  0
   -3.2958    0.6413   -0.1622 H   0  0  0  0  0  0  0  0  0  0  0  0
   -3.3782   -0.5640    1.1612 H   0  0  0  0  0  0  0  0  0  0  0  0
   -2.9804   -2.0414   -1.2293 H   0  0  0  0  0  0  0  0  0  0  0  0
    0.9497    0.9220    0.9082 H   0  0  0  0  0  0  0  0  0  0  0  0
    2.7845    1.1545    1.0608 H   0  0  0  0  0  0  0  0  0  0  0  0
    5.3651    0.0074    1.4178 H   0  0  0  0  0  0  0  0  0  0  0  0
    4.9358    1.7353    1.3979 H   0  0  0  0  0  0  0  0  0  0  0  0
    5.5549    0.1752   -1.1656 H   0  0  0  0  0  0  0  0  0  0  0  0
    5.1219    1.8781   -1.0751 H   0  0  0  0  0  0  0  0  0  0  0  0
    7.5114    0.4126    0.1803 H   0  0  0  0  0  0  0  0  0  0  0  0
    7.5365    1.4282   -1.3076 H   0  0  0  0  0  0  0  0  0  0  0  0
    8.2986    1.4985    2.2227 H   0  0  0  0  0  0  0  0  0  0  0  0
    6.8095    2.5364    2.5140 H   0  0  0  0  0  0  0  0  0  0  0  0
    9.6772    3.3536    2.0342 H   0  0  0  0  0  0  0  0  0  0  0  0
    8.4242    4.0849    3.1593 H   0  0  0  0  0  0  0  0  0  0  0  0
    9.0728    5.2057    0.7806 H   0  0  0  0  0  0  0  0  0  0  0  0
    7.4807    5.3653    1.5316 H   0  0  0  0  0  0  0  0  0  0  0  0
    2.8005   -2.7550   -1.7194 H   0  0  0  0  0  0  0  0  0  0  0  0
    1.9099   -4.4507   -2.9191 H   0  0  0  0  0  0  0  0  0  0  0  0
    0.1597   -4.1481   -0.5347 H   0  0  0  0  0  0  0  0  0  0  0  0
    0.7656   -5.6235   -1.3799 H   0  0  0  0  0  0  0  0  0  0  0  0
   -1.8697   -4.1556   -1.7262 H   0  0  0  0  0  0  0  0  0  0  0  0
   -1.3361   -5.8612   -2.1536 H   0  0  0  0  0  0  0  0  0  0  0  0
   -1.8074   -3.8582   -4.0132 H   0  0  0  0  0  0  0  0  0  0  0  0
   -0.6023   -5.1505   -4.2505 H   0  0  0  0  0  0  0  0  0  0  0  0
    0.7630   -3.3365   -4.5427 H   0  0  0  0  0  0  0  0  0  0  0  0
   -0.0866   -2.2521   -3.4416 H   0  0  0  0  0  0  0  0  0  0  0  0
   -5.9138   -1.1479    2.2300 H   0  0  0  0  0  0  0  0  0  0  0  0
   -5.9862   -0.8574    4.6618 H   0  0  0  0  0  0  0  0  0  0  0  0
   -7.2545   -1.7350    3.6334 H   0  0  0  0  0  0  0  0  0  0  0  0
   -7.6988   -1.0860    5.2292 H   0  0  0  0  0  0  0  0  0  0  0  0
  1  2  1  0
  2  3  1  0
  3  4  2  0
  4  5  1  0
  5  6  2  0
  6  7  1  0
  7  8  1  0
  8  9  1  0
  9 10  1  0
 10 11  2  0
 11 12  1  0
 12 13  2  0
 13 14  1  0
 14 15  2  0
 14 16  1  0
 16 17  1  0
 17 18  1  0
 18 19  1  0
 19 20  1  0
 20 21  1  0
 21 22  1  0
 22 23  1  0
 23 24  1  0
 24 25  2  0
 13 26  1  0
 26 27  1  0
 27 28  1  0
 28 29  1  0
 29 30  1  0
 30 31  1  0
 31 32  1  0
 26 33  2  0
  6 34  1  0
 34 35  2  0
 35 36  1  0
 36 37  1  0
 35  3  1  0
 33 10  1  0
 24 20  1  0
 32 28  1  0
  1 38  1  0
  1 39  1  0
  1 40  1  0
  4 41  1  0
  5 42  1  0
  7 43  1  0
  7 44  1  0
  8 45  1  0
  8 46  1  0
  9 47  1  0
 12 48  1  0
 16 49  1  0
 17 50  1  0
 17 51  1  0
 18 52  1  0
 18 53  1  0
 19 54  1  0
 19 55  1  0
 21 56  1  0
 21 57  1  0
 22 58  1  0
 22 59  1  0
 23 60  1  0
 23 61  1  0
 27 62  1  0
 28 63  1  0
 29 64  1  0
 29 65  1  0
 30 66  1  0
 30 67  1  0
 31 68  1  0
 31 69  1  0
 32 70  1  0
 32 71  1  0
 34 72  1  0
 37 73  1  0
 37 74  1  0
 37 75  1  0
M  END
$$$$
