
     RDKit          3D

 66 70  0  0  0  0  0  0  0  0999 V2000
   -5.2426    0.9650   -1.9869 C   0  0  0  0  0  0  0  0  0  0  0  0
   -4.9302    0.7000   -0.4890 C   0  0  1  0  0  0  0  0  0  0  0  0
   -3.7055    0.2524   -0.3285 O   0  0  0  0  0  0  0  0  0  0  0  0
   -2.8177   -0.6720    0.0233 C   0  0  0  0  0  0  0  0  0  0  0  0
   -1.4265   -0.3854   -0.1112 C   0  0  0  0  0  0  0  0  0  0  0  0
   -0.4626   -1.2734    0.2245 C   0  0  0  0  0  0  0  0  0  0  0  0
    0.9622   -1.0010    0.0992 C   0  0  0  0  0  0  0  0  0  0  0  0
    1.4627    0.2578    0.2642 C   0  0  0  0  0  0  0  0  0  0  0  0
    2.8256    0.5171    0.1516 C   0  0  0  0  0  0  0  0  0  0  0  0
    3.7131   -0.5330   -0.1381 C   0  0  0  0  0  0  0  0  0  0  0  0
    5.0664   -0.1977   -0.2115 N   0  0  0  0  0  0  0  0  0  0  0  0
    5.8172   -0.2251   -1.4195 C   0  0  0  0  0  0  0  0  0  0  0  0
    6.7255    0.9855   -1.5676 C   0  0  0  0  0  0  0  0  0  0  0  0
    6.5830    1.8134   -0.4081 N   0  0  0  0  0  0  0  0  0  0  0  0
    7.3859    3.0200   -0.4777 C   0  0  0  0  0  0  0  0  0  0  0  0
    6.9429    1.0134    0.7612 C   0  0  0  0  0  0  0  0  0  0  0  0
    5.6933    0.2010    1.0655 C   0  0  0  0  0  0  0  0  0  0  0  0
    3.2298   -1.7842   -0.3049 C   0  0  0  0  0  0  0  0  0  0  0  0
    4.1019   -2.9269   -0.6270 C   0  0  0  0  0  0  0  0  0  0  0  0
    3.3042   -4.0786   -0.6523 F   0  0  0  0  0  0  0  0  0  0  0  0
    5.1834   -3.0440    0.1899 F   0  0  0  0  0  0  0  0  0  0  0  0
    4.4538   -2.7737   -1.9795 F   0  0  0  0  0  0  0  0  0  0  0  0
    1.8549   -2.0105   -0.1847 C   0  0  0  0  0  0  0  0  0  0  0  0
   -0.8746   -2.5118    0.7196 C   0  0  0  0  0  0  0  0  0  0  0  0
   -2.2084   -2.8120    0.8589 C   0  0  0  0  0  0  0  0  0  0  0  0
   -2.8476   -3.9133    1.3058 N   0  0  0  0  0  0  0  0  0  0  0  0
   -4.1482   -3.7311    1.2553 N   0  0  0  0  0  0  0  0  0  0  0  0
   -5.1405   -4.7061    1.6598 C   0  0  0  0  0  0  0  0  0  0  0  0
   -4.4281   -2.4910    0.7688 C   0  0  0  0  0  0  0  0  0  0  0  0
   -3.2002   -1.9138    0.5197 C   0  0  0  0  0  0  0  0  0  0  0  0
   -5.2968    1.9440    0.3151 C   0  0  1  0  0  0  0  0  0  0  0  0
   -4.5650    3.1732   -0.0724 C   0  0  0  0  0  0  0  0  0  0  0  0
   -5.3987    4.2157    0.5528 N   0  0  0  0  0  0  0  0  0  0  0  0
   -6.7044    3.7163    0.7708 C   0  0  0  0  0  0  0  0  0  0  0  0
   -7.6771    4.2639    1.3350 O   0  0  0  0  0  0  0  0  0  0  0  0
   -6.7442    2.3299    0.1783 C   0  0  0  0  0  0  0  0  0  0  0  0
   -6.3173    1.0866   -2.0965 H   0  0  0  0  0  0  0  0  0  0  0  0
   -4.6415    1.8056   -2.3577 H   0  0  0  0  0  0  0  0  0  0  0  0
   -4.9071    0.0110   -2.4941 H   0  0  0  0  0  0  0  0  0  0  0  0
   -5.7442   -0.0292   -0.1971 H   0  0  0  0  0  0  0  0  0  0  0  0
   -1.1715    0.6011   -0.5042 H   0  0  0  0  0  0  0  0  0  0  0  0
    0.8334    1.1110    0.4885 H   0  0  0  0  0  0  0  0  0  0  0  0
    3.2137    1.5155    0.2840 H   0  0  0  0  0  0  0  0  0  0  0  0
    6.4459   -1.1602   -1.4939 H   0  0  0  0  0  0  0  0  0  0  0  0
    5.1399   -0.2346   -2.2891 H   0  0  0  0  0  0  0  0  0  0  0  0
    6.4963    1.5179   -2.5138 H   0  0  0  0  0  0  0  0  0  0  0  0
    7.7642    0.6069   -1.6501 H   0  0  0  0  0  0  0  0  0  0  0  0
    6.7298    3.8354   -0.8444 H   0  0  0  0  0  0  0  0  0  0  0  0
    7.6469    3.2824    0.5880 H   0  0  0  0  0  0  0  0  0  0  0  0
    8.2999    2.8988   -1.0800 H   0  0  0  0  0  0  0  0  0  0  0  0
    7.7497    0.2795    0.5211 H   0  0  0  0  0  0  0  0  0  0  0  0
    7.1800    1.6238    1.6471 H   0  0  0  0  0  0  0  0  0  0  0  0
    5.8872   -0.6507    1.7139 H   0  0  0  0  0  0  0  0  0  0  0  0
    4.9707    0.8718    1.5601 H   0  0  0  0  0  0  0  0  0  0  0  0
    1.4689   -3.0088   -0.3173 H   0  0  0  0  0  0  0  0  0  0  0  0
   -0.1037   -3.2085    0.9824 H   0  0  0  0  0  0  0  0  0  0  0  0
   -5.9998   -4.6933    0.9397 H   0  0  0  0  0  0  0  0  0  0  0  0
   -4.7021   -5.6970    1.7886 H   0  0  0  0  0  0  0  0  0  0  0  0
   -5.5192   -4.3846    2.6695 H   0  0  0  0  0  0  0  0  0  0  0  0
   -5.4038   -2.0670    0.6174 H   0  0  0  0  0  0  0  0  0  0  0  0
   -5.1129    1.7435    1.3887 H   0  0  0  0  0  0  0  0  0  0  0  0
   -3.5641    3.2585    0.4263 H   0  0  0  0  0  0  0  0  0  0  0  0
   -4.5195    3.3896   -1.1363 H   0  0  0  0  0  0  0  0  0  0  0  0
   -5.1156    5.1828    0.8119 H   0  0  0  0  0  0  0  0  0  0  0  0
   -7.0947    2.4712   -0.8485 H   0  0  0  0  0  0  0  0  0  0  0  0
   -7.3965    1.6575    0.7659 H   0  0  0  0  0  0  0  0  0  0  0  0
  1  2  1  0
  2  3  1  0
  3  4  1  0
  4  5  2  0
  5  6  1  0
  6  7  1  0
  7  8  2  0
  8  9  1  0
  9 10  2  0
 10 11  1  0
 11 12  1  0
 12 13  1  0
 13 14  1  0
 14 15  1  0
 14 16  1  0
 16 17  1  0
 10 18  1  0
 18 19  1  0
 19 20  1  0
 19 21  1  0
 19 22  1  0
 18 23  2  0
  6 24  2  0
 24 25  1  0
 25 26  2  0
 26 27  1  0
 27 28  1  0
 27 29  1  0
 29 30  2  0
  2 31  1  0
 31 32  1  0
 32 33  1  0
 33 34  1  0
 34 35  2  0
 34 36  1  0
 30  4  1  0
 36 31  1  0
 23  7  1  0
 30 25  1  0
 17 11  1  0
  1 37  1  0
  1 38  1  0
  1 39  1  0
  2 40  1  1
  5 41  1  0
  8 42  1  0
  9 43  1  0
 12 44  1  0
 12 45  1  0
 13 46  1  0
 13 47  1  0
 15 48  1  0
 15 49  1  0
 15 50  1  0
 16 51  1  0
 16 52  1  0
 17 53  1  0
 17 54  1  0
 23 55  1  0
 24 56  1  0
 28 57  1  0
 28 58  1  0
 28 59  1  0
 29 60  1  0
 31 61  1  1
 32 62  1  0
 32 63  1  0
 33 64  1  0
 36 65  1  0
 36 66  1  0
M  END
$$$$
