
     RDKit          3D

 68 72  0  0  0  0  0  0  0  0999 V2000
   -7.2239   -1.2400    3.2708 C   0  0  0  0  0  0  0  0  0  0  0  0
   -6.7236   -0.6760    2.0823 O   0  0  0  0  0  0  0  0  0  0  0  0
   -5.3638   -0.4773    1.8736 C   0  0  0  0  0  0  0  0  0  0  0  0
   -4.4121   -0.8168    2.8115 C   0  0  0  0  0  0  0  0  0  0  0  0
   -3.0553   -0.5944    2.5486 C   0  0  0  0  0  0  0  0  0  0  0  0
   -2.6455   -0.0358    1.3562 C   0  0  0  0  0  0  0  0  0  0  0  0
   -1.2598    0.1789    1.1160 N   0  0  0  0  0  0  0  0  0  0  0  0
   -0.4383   -0.8128    0.5000 C   0  0  0  0  0  0  0  0  0  0  0  0
   -1.0376   -1.8863    0.1888 O   0  0  0  0  0  0  0  0  0  0  0  0
    0.9778   -0.6253    0.2411 C   0  0  0  0  0  0  0  0  0  0  0  0
    1.6760    0.4997    0.5513 C   0  0  0  0  0  0  0  0  0  0  0  0
    3.0312    0.6584    0.2946 C   0  0  0  0  0  0  0  0  0  0  0  0
    3.7352   -0.3587   -0.3048 C   0  0  0  0  0  0  0  0  0  0  0  0
    5.1478   -0.2401   -0.5858 C   0  0  0  0  0  0  0  0  0  0  0  0
    5.6355   -0.5319   -1.8451 C   0  0  0  0  0  0  0  0  0  0  0  0
    6.9932   -0.4182   -2.1611 C   0  0  0  0  0  0  0  0  0  0  0  0
    7.8615   -0.0084   -1.2017 C   0  0  0  0  0  0  0  0  0  0  0  0
    9.2791    0.1199   -1.4996 C   0  0  0  0  0  0  0  0  0  0  0  0
    9.9037    0.7104   -2.5335 N   0  0  0  0  0  0  0  0  0  0  0  0
   11.1974    0.5746   -2.3778 O   0  0  0  0  0  0  0  0  0  0  0  0
   11.4485   -0.0853   -1.2767 C   0  0  0  0  0  0  0  0  0  0  0  0
   12.7828   -0.4458   -0.7434 C   0  0  0  0  0  0  0  0  0  0  0  0
   10.2511   -0.3772   -0.7148 N   0  0  0  0  0  0  0  0  0  0  0  0
    7.4133    0.2892    0.0579 C   0  0  0  0  0  0  0  0  0  0  0  0
    6.0508    0.1682    0.3518 C   0  0  0  0  0  0  0  0  0  0  0  0
    5.6228    0.4857    1.7200 C   0  0  0  0  0  0  0  0  0  0  0  0
    3.0210   -1.5197   -0.6266 C   0  0  0  0  0  0  0  0  0  0  0  0
    1.6746   -1.6529   -0.3613 C   0  0  0  0  0  0  0  0  0  0  0  0
   -3.5972    0.2954    0.4373 C   0  0  0  0  0  0  0  0  0  0  0  0
   -4.9604    0.0836    0.6749 C   0  0  0  0  0  0  0  0  0  0  0  0
   -5.9424    0.4309   -0.2859 N   0  0  0  0  0  0  0  0  0  0  0  0
   -7.0074    1.3816   -0.0455 C   0  0  0  0  0  0  0  0  0  0  0  0
   -7.6197    1.7117   -1.3999 C   0  0  0  0  0  0  0  0  0  0  0  0
   -8.2132    0.5110   -1.9308 N   0  0  0  0  0  0  0  0  0  0  0  0
   -9.3414    0.1520   -1.1184 C   0  0  0  0  0  0  0  0  0  0  0  0
   -7.2825   -0.5664   -2.0694 C   0  0  0  0  0  0  0  0  0  0  0  0
   -5.8950   -0.1916   -1.5927 C   0  0  0  0  0  0  0  0  0  0  0  0
   -7.0010   -2.3131    3.2690 H   0  0  0  0  0  0  0  0  0  0  0  0
   -8.3373   -1.0527    3.2876 H   0  0  0  0  0  0  0  0  0  0  0  0
   -6.8204   -0.7091    4.1580 H   0  0  0  0  0  0  0  0  0  0  0  0
   -4.7404   -1.2559    3.7475 H   0  0  0  0  0  0  0  0  0  0  0  0
   -2.3056   -0.8576    3.2777 H   0  0  0  0  0  0  0  0  0  0  0  0
   -0.8200    1.0853    1.3945 H   0  0  0  0  0  0  0  0  0  0  0  0
    1.1664    1.3223    1.0219 H   0  0  0  0  0  0  0  0  0  0  0  0
    3.5158    1.6024    0.5742 H   0  0  0  0  0  0  0  0  0  0  0  0
    4.9695   -0.8551   -2.6115 H   0  0  0  0  0  0  0  0  0  0  0  0
    7.3589   -0.6501   -3.1503 H   0  0  0  0  0  0  0  0  0  0  0  0
   13.4340   -0.9144   -1.4846 H   0  0  0  0  0  0  0  0  0  0  0  0
   13.3060    0.4483   -0.3310 H   0  0  0  0  0  0  0  0  0  0  0  0
   12.6611   -1.1692    0.0956 H   0  0  0  0  0  0  0  0  0  0  0  0
    8.1196    0.6111    0.7988 H   0  0  0  0  0  0  0  0  0  0  0  0
    6.3664    0.0944    2.4723 H   0  0  0  0  0  0  0  0  0  0  0  0
    4.6490    0.0590    2.0130 H   0  0  0  0  0  0  0  0  0  0  0  0
    5.5439    1.5964    1.8072 H   0  0  0  0  0  0  0  0  0  0  0  0
    3.5513   -2.3440   -1.1029 H   0  0  0  0  0  0  0  0  0  0  0  0
    1.1945   -2.5949   -0.6461 H   0  0  0  0  0  0  0  0  0  0  0  0
   -3.3060    0.7369   -0.5108 H   0  0  0  0  0  0  0  0  0  0  0  0
   -7.7284    0.8912    0.6327 H   0  0  0  0  0  0  0  0  0  0  0  0
   -6.6291    2.3422    0.3596 H   0  0  0  0  0  0  0  0  0  0  0  0
   -6.7996    2.1111   -2.0296 H   0  0  0  0  0  0  0  0  0  0  0  0
   -8.4203    2.4589   -1.2354 H   0  0  0  0  0  0  0  0  0  0  0  0
  -10.2784    0.0769   -1.7251 H   0  0  0  0  0  0  0  0  0  0  0  0
   -9.5437    0.8685   -0.2979 H   0  0  0  0  0  0  0  0  0  0  0  0
   -9.1381   -0.8326   -0.6290 H   0  0  0  0  0  0  0  0  0  0  0  0
   -7.1927   -0.7896   -3.1624 H   0  0  0  0  0  0  0  0  0  0  0  0
   -7.6690   -1.4315   -1.4924 H   0  0  0  0  0  0  0  0  0  0  0  0
   -5.2908   -1.1215   -1.5993 H   0  0  0  0  0  0  0  0  0  0  0  0
   -5.4996    0.5630   -2.3032 H   0  0  0  0  0  0  0  0  0  0  0  0
  1  2  1  0
  2  3  1  0
  3  4  2  0
  4  5  1  0
  5  6  2  0
  6  7  1  0
  7  8  1  0
  8  9  2  0
  8 10  1  0
 10 11  2  0
 11 12  1  0
 12 13  2  0
 13 14  1  0
 14 15  2  0
 15 16  1  0
 16 17  2  0
 17 18  1  0
 18 19  2  0
 19 20  1  0
 20 21  1  0
 21 22  1  0
 21 23  2  0
 17 24  1  0
 24 25  2  0
 25 26  1  0
 13 27  1  0
 27 28  2  0
  6 29  1  0
 29 30  2  0
 30 31  1  0
 31 32  1  0
 32 33  1  0
 33 34  1  0
 34 35  1  0
 34 36  1  0
 36 37  1  0
 30  3  1  0
 37 31  1  0
 28 10  1  0
 25 14  1  0
 23 18  1  0
  1 38  1  0
  1 39  1  0
  1 40  1  0
  4 41  1  0
  5 42  1  0
  7 43  1  0
 11 44  1  0
 12 45  1  0
 15 46  1  0
 16 47  1  0
 22 48  1  0
 22 49  1  0
 22 50  1  0
 24 51  1  0
 26 52  1  0
 26 53  1  0
 26 54  1  0
 27 55  1  0
 28 56  1  0
 29 57  1  0
 32 58  1  0
 32 59  1  0
 33 60  1  0
 33 61  1  0
 35 62  1  0
 35 63  1  0
 35 64  1  0
 36 65  1  0
 36 66  1  0
 37 67  1  0
 37 68  1  0
M  END
$$$$
