
     RDKit          3D

 26 26  0  0  0  0  0  0  0  0999 V2000
   -1.0021   -0.8378    0.4529 C   0  0  2  0  0  0  0  0  0  0  0  0
   -2.2925   -1.3022    1.1196 C   0  0  0  0  0  0  0  0  0  0  0  0
   -0.1918   -0.3425    1.4518 O   0  0  0  0  0  0  0  0  0  0  0  0
    1.0181    0.0572    0.8426 C   0  0  1  0  0  0  0  0  0  0  0  0
    1.3912   -0.8528   -0.1239 O   0  0  0  0  0  0  0  0  0  0  0  0
    2.6241   -1.4262    0.0799 C   0  0  0  0  0  0  0  0  0  0  0  0
    0.6980    1.3651    0.1488 C   0  0  1  0  0  0  0  0  0  0  0  0
    1.8189    2.0706   -0.2368 O   0  0  0  0  0  0  0  0  0  0  0  0
   -0.1726    1.0116   -1.0421 C   0  0  2  0  0  0  0  0  0  0  0  0
   -0.6898    2.1806   -1.5980 O   0  0  0  0  0  0  0  0  0  0  0  0
   -1.3414    0.1810   -0.5983 C   0  0  2  0  0  0  0  0  0  0  0  0
   -2.3988    0.9989   -0.1745 O   0  0  0  0  0  0  0  0  0  0  0  0
   -0.5333   -1.7493    0.0135 H   0  0  0  0  0  0  0  0  0  0  0  0
   -2.0355   -1.9254    2.0229 H   0  0  0  0  0  0  0  0  0  0  0  0
   -2.8678   -1.9470    0.4355 H   0  0  0  0  0  0  0  0  0  0  0  0
   -2.8647   -0.4276    1.4792 H   0  0  0  0  0  0  0  0  0  0  0  0
    1.7903    0.1733    1.6339 H   0  0  0  0  0  0  0  0  0  0  0  0
    3.4100   -0.6443    0.0980 H   0  0  0  0  0  0  0  0  0  0  0  0
    2.6246   -2.0818    0.9682 H   0  0  0  0  0  0  0  0  0  0  0  0
    2.8467   -2.0530   -0.8130 H   0  0  0  0  0  0  0  0  0  0  0  0
    0.0938    2.0150    0.8012 H   0  0  0  0  0  0  0  0  0  0  0  0
    2.2726    1.5730   -0.9378 H   0  0  0  0  0  0  0  0  0  0  0  0
    0.4773    0.4944   -1.7728 H   0  0  0  0  0  0  0  0  0  0  0  0
    0.0623    2.7536   -1.8422 H   0  0  0  0  0  0  0  0  0  0  0  0
   -1.6939   -0.4074   -1.4811 H   0  0  0  0  0  0  0  0  0  0  0  0
   -3.0438    1.1229   -0.9275 H   0  0  0  0  0  0  0  0  0  0  0  0
  1  2  1  0
  1  3  1  0
  3  4  1  0
  4  5  1  0
  5  6  1  0
  4  7  1  0
  7  8  1  0
  7  9  1  0
  9 10  1  0
  9 11  1  0
 11 12  1  0
 11  1  1  0
  1 13  1  6
  2 14  1  0
  2 15  1  0
  2 16  1  0
  4 17  1  1
  6 18  1  0
  6 19  1  0
  6 20  1  0
  7 21  1  1
  8 22  1  0
  9 23  1  6
 10 24  1  0
 11 25  1  6
 12 26  1  0
M  END
$$$$
