
     RDKit          3D

 55 60  0  0  0  0  0  0  0  0999 V2000
    3.0789    3.1365   -1.2009 C   0  0  0  0  0  0  0  0  0  0  0  0
    3.0350    1.7642   -0.6081 C   0  0  0  0  0  0  0  0  0  0  0  0
    3.9691    1.0559   -0.0072 N   0  0  0  0  0  0  0  0  0  0  0  0
    3.5236   -0.1258    0.3775 N   0  0  0  0  0  0  0  0  0  0  0  0
    4.2705   -1.1352    1.0538 C   0  0  0  0  0  0  0  0  0  0  0  0
    5.4442   -1.6924    0.5357 C   0  0  0  0  0  0  0  0  0  0  0  0
    5.9027   -2.6270    1.4348 C   0  0  0  0  0  0  0  0  0  0  0  0
    5.0280   -2.6192    2.4467 N   0  0  0  0  0  0  0  0  0  0  0  0
    4.0675   -1.7380    2.2173 N   0  0  0  0  0  0  0  0  0  0  0  0
    2.9572   -1.4644    3.0970 C   0  0  0  0  0  0  0  0  0  0  0  0
    2.2158   -0.1854    0.0005 C   0  0  0  0  0  0  0  0  0  0  0  0
    1.8801    0.9845   -0.6196 C   0  0  0  0  0  0  0  0  0  0  0  0
    0.4545    0.9304   -1.0301 C   0  0  0  0  0  0  0  0  0  0  0  0
   -0.3160    2.0713   -0.5183 C   0  0  0  0  0  0  0  0  0  0  0  0
   -0.6950    2.1906    0.7870 C   0  0  0  0  0  0  0  0  0  0  0  0
   -1.4232    3.2769    1.2577 C   0  0  0  0  0  0  0  0  0  0  0  0
   -1.7649    4.2574    0.3596 C   0  0  0  0  0  0  0  0  0  0  0  0
   -2.6875    5.6741    0.8601 Cl  0  0  0  0  0  0  0  0  0  0  0  0
   -1.4036    4.1859   -0.9853 C   0  0  0  0  0  0  0  0  0  0  0  0
   -0.6829    3.0805   -1.3790 C   0  0  0  0  0  0  0  0  0  0  0  0
    0.0018   -0.3462   -0.6208 N   0  0  0  0  0  0  0  0  0  0  0  0
   -1.3045   -0.9451   -0.7895 C   0  0  0  0  0  0  0  0  0  0  0  0
   -1.5983   -1.6577   -1.9370 C   0  0  0  0  0  0  0  0  0  0  0  0
   -2.8441   -2.2458   -2.1206 C   0  0  0  0  0  0  0  0  0  0  0  0
   -3.1206   -3.0072   -3.3750 C   0  0  0  0  0  0  0  0  0  0  0  0
   -3.7669   -2.0907   -1.1201 C   0  0  0  0  0  0  0  0  0  0  0  0
   -5.0400   -2.5456   -1.0268 N   0  0  0  0  0  0  0  0  0  0  0  0
   -5.5772   -2.1623    0.1194 N   0  0  0  0  0  0  0  0  0  0  0  0
   -4.6080   -1.4492    0.7542 C   0  0  0  0  0  0  0  0  0  0  0  0
   -4.7318   -0.7990    2.0993 C   0  0  0  0  0  0  0  0  0  0  0  0
   -3.5007   -1.4082   -0.0094 N   0  0  0  0  0  0  0  0  0  0  0  0
   -2.2845   -0.8344    0.1694 C   0  0  0  0  0  0  0  0  0  0  0  0
    1.0560   -1.0392    0.0145 C   0  0  0  0  0  0  0  0  0  0  0  0
    1.0646   -2.1927    0.5261 O   0  0  0  0  0  0  0  0  0  0  0  0
    2.3042    3.7988   -0.7591 H   0  0  0  0  0  0  0  0  0  0  0  0
    4.0687    3.5604   -0.9483 H   0  0  0  0  0  0  0  0  0  0  0  0
    2.9336    3.0625   -2.3146 H   0  0  0  0  0  0  0  0  0  0  0  0
    5.8957   -1.4181   -0.4142 H   0  0  0  0  0  0  0  0  0  0  0  0
    6.7997   -3.2193    1.2946 H   0  0  0  0  0  0  0  0  0  0  0  0
    2.5312   -0.4649    2.8891 H   0  0  0  0  0  0  0  0  0  0  0  0
    3.3603   -1.4500    4.1357 H   0  0  0  0  0  0  0  0  0  0  0  0
    2.1925   -2.2676    3.0672 H   0  0  0  0  0  0  0  0  0  0  0  0
    0.3798    0.9388   -2.1654 H   0  0  0  0  0  0  0  0  0  0  0  0
   -0.4441    1.4372    1.5261 H   0  0  0  0  0  0  0  0  0  0  0  0
   -1.7228    3.3747    2.2812 H   0  0  0  0  0  0  0  0  0  0  0  0
   -1.6946    4.9830   -1.6604 H   0  0  0  0  0  0  0  0  0  0  0  0
   -0.4023    3.0278   -2.4302 H   0  0  0  0  0  0  0  0  0  0  0  0
   -0.8457   -1.7562   -2.6989 H   0  0  0  0  0  0  0  0  0  0  0  0
   -4.1716   -2.9560   -3.6809 H   0  0  0  0  0  0  0  0  0  0  0  0
   -2.8619   -4.0675   -3.1466 H   0  0  0  0  0  0  0  0  0  0  0  0
   -2.4513   -2.6604   -4.1933 H   0  0  0  0  0  0  0  0  0  0  0  0
   -4.3459   -1.4658    2.8967 H   0  0  0  0  0  0  0  0  0  0  0  0
   -4.1910    0.1637    2.1291 H   0  0  0  0  0  0  0  0  0  0  0  0
   -5.8179   -0.6246    2.3417 H   0  0  0  0  0  0  0  0  0  0  0  0
   -2.1163   -0.2938    1.0879 H   0  0  0  0  0  0  0  0  0  0  0  0
  1  2  1  0
  2  3  2  0
  3  4  1  0
  4  5  1  0
  5  6  2  0
  6  7  1  0
  7  8  2  0
  8  9  1  0
  9 10  1  0
  4 11  1  0
 11 12  2  0
 12 13  1  0
 13 14  1  0
 14 15  2  0
 15 16  1  0
 16 17  2  0
 17 18  1  0
 17 19  1  0
 19 20  2  0
 13 21  1  0
 21 22  1  0
 22 23  1  0
 23 24  2  0
 24 25  1  0
 24 26  1  0
 26 27  2  0
 27 28  1  0
 28 29  2  0
 29 30  1  0
 29 31  1  0
 31 32  1  0
 21 33  1  0
 33 34  2  0
 12  2  1  0
 20 14  1  0
 32 22  2  0
  9  5  1  0
 33 11  1  0
 31 26  1  0
  1 35  1  0
  1 36  1  0
  1 37  1  0
  6 38  1  0
  7 39  1  0
 10 40  1  0
 10 41  1  0
 10 42  1  0
 13 43  1  0
 15 44  1  0
 16 45  1  0
 19 46  1  0
 20 47  1  0
 23 48  1  0
 25 49  1  0
 25 50  1  0
 25 51  1  0
 30 52  1  0
 30 53  1  0
 30 54  1  0
 32 55  1  0
M  END
$$$$
