
     RDKit          3D

110114  0  0  0  0  0  0  0  0999 V2000
   -7.3002    0.8858   -1.0780 C   0  0  0  0  0  0  0  0  0  0  0  0
   -8.1924    1.7155   -0.2436 C   0  0  0  0  0  0  0  0  0  0  0  0
   -7.7209    3.0305    0.2308 C   0  0  0  0  0  0  0  0  0  0  0  0
   -7.3145    3.9688   -0.8858 C   0  0  0  0  0  0  0  0  0  0  0  0
   -8.4255    4.2599   -1.8397 C   0  0  0  0  0  0  0  0  0  0  0  0
   -6.7480    3.0996    1.3461 C   0  0  0  0  0  0  0  0  0  0  0  0
   -5.4359    2.4385    1.1972 C   0  0  0  0  0  0  0  0  0  0  0  0
   -5.5791    1.0618    1.0724 O   0  0  0  0  0  0  0  0  0  0  0  0
   -4.5623    0.1642    0.8850 C   0  0  0  0  0  0  0  0  0  0  0  0
   -4.8431   -1.1950    0.7863 C   0  0  0  0  0  0  0  0  0  0  0  0
   -3.8522   -2.1231    0.5934 C   0  0  0  0  0  0  0  0  0  0  0  0
   -4.1429   -3.5744    0.5027 C   0  0  0  0  0  0  0  0  0  0  0  0
   -4.4648   -3.9689   -0.9147 C   0  0  0  0  0  0  0  0  0  0  0  0
   -5.6753   -3.2637   -1.4485 C   0  0  0  0  0  0  0  0  0  0  0  0
   -6.8222   -3.4945   -0.7338 O   0  0  0  0  0  0  0  0  0  0  0  0
   -7.1329   -4.8377   -0.7273 C   0  0  0  0  0  0  0  0  0  0  0  0
   -2.5344   -1.6496    0.4983 C   0  0  0  0  0  0  0  0  0  0  0  0
   -2.2315   -0.3214    0.5920 C   0  0  0  0  0  0  0  0  0  0  0  0
   -0.8747    0.2049    0.4064 C   0  0  0  0  0  0  0  0  0  0  0  0
    0.1279   -0.1416    1.3549 N   0  0  0  0  0  0  0  0  0  0  0  0
    1.2028   -1.0064    1.0474 C   0  0  0  0  0  0  0  0  0  0  0  0
    1.9436   -1.2678    2.1030 O   0  0  0  0  0  0  0  0  0  0  0  0
    1.6172   -1.6264   -0.2023 C   0  0  1  0  0  0  0  0  0  0  0  0
    0.6539   -2.5571   -0.8660 C   0  0  0  0  0  0  0  0  0  0  0  0
    1.3943   -3.2650   -1.9259 N   0  0  0  0  0  0  0  0  0  0  0  0
    1.7953   -2.3751   -2.9654 C   0  0  0  0  0  0  0  0  0  0  0  0
    1.5634   -0.9519   -2.6074 C   0  0  0  0  0  0  0  0  0  0  0  0
    2.1083   -0.6420   -1.2408 C   0  0  2  0  0  0  0  0  0  0  0  0
    3.5672   -0.4628   -1.2669 C   0  0  0  0  0  0  0  0  0  0  0  0
    4.4905   -1.4795   -1.3080 C   0  0  0  0  0  0  0  0  0  0  0  0
    5.8716   -1.2417   -1.3356 C   0  0  0  0  0  0  0  0  0  0  0  0
    6.3792    0.0352   -1.3213 C   0  0  0  0  0  0  0  0  0  0  0  0
    7.7018    0.3422   -1.3414 O   0  0  0  0  0  0  0  0  0  0  0  0
    8.8381   -0.4220   -1.3579 C   0  0  0  0  0  0  0  0  0  0  0  0
    9.0672   -1.2897   -0.1747 C   0  0  0  0  0  0  0  0  0  0  0  0
    9.2027   -0.6598    1.0630 O   0  0  0  0  0  0  0  0  0  0  0  0
   10.2125    0.2193    1.3463 C   0  0  0  0  0  0  0  0  0  0  0  0
   10.0985    1.5701    1.2936 C   0  0  0  0  0  0  0  0  0  0  0  0
    8.5679    2.3224    0.9235 Cl  0  0  0  0  0  0  0  0  0  0  0  0
   11.2110    2.3833    1.5979 C   0  0  0  0  0  0  0  0  0  0  0  0
   12.4087    1.8051    1.9496 C   0  0  0  0  0  0  0  0  0  0  0  0
   13.5926    2.6596    2.2765 C   0  0  0  0  0  0  0  0  0  0  0  0
   12.5111    0.4376    2.0010 C   0  0  0  0  0  0  0  0  0  0  0  0
   11.4438   -0.3692    1.7084 C   0  0  0  0  0  0  0  0  0  0  0  0
   11.5791   -2.1160    1.7789 Cl  0  0  0  0  0  0  0  0  0  0  0  0
    5.4210    1.0716   -1.2794 C   0  0  0  0  0  0  0  0  0  0  0  0
    4.0773    0.8207   -1.2539 C   0  0  0  0  0  0  0  0  0  0  0  0
    0.0895    0.4582    2.6850 C   0  0  0  0  0  0  0  0  0  0  0  0
   -0.6488    1.6768    2.9918 C   0  0  0  0  0  0  0  0  0  0  0  0
   -1.1986    0.4204    3.4985 C   0  0  0  0  0  0  0  0  0  0  0  0
   -3.2752    0.5769    0.7881 C   0  0  0  0  0  0  0  0  0  0  0  0
   -8.9854    3.6711    0.8258 C   0  0  0  0  0  0  0  0  0  0  0  0
   -9.3540    4.7589    0.3749 O   0  0  0  0  0  0  0  0  0  0  0  0
   -9.6749    3.0337    1.8341 O   0  0  0  0  0  0  0  0  0  0  0  0
   -6.3707    1.3601   -1.4407 H   0  0  0  0  0  0  0  0  0  0  0  0
   -7.8623    0.6919   -2.0597 H   0  0  0  0  0  0  0  0  0  0  0  0
   -7.1568   -0.1611   -0.7055 H   0  0  0  0  0  0  0  0  0  0  0  0
   -8.4474    1.1099    0.6774 H   0  0  0  0  0  0  0  0  0  0  0  0
   -9.1967    1.8297   -0.7461 H   0  0  0  0  0  0  0  0  0  0  0  0
   -6.3844    3.6369   -1.3896 H   0  0  0  0  0  0  0  0  0  0  0  0
   -7.0396    4.9364   -0.3800 H   0  0  0  0  0  0  0  0  0  0  0  0
   -9.3021    3.6305   -1.6436 H   0  0  0  0  0  0  0  0  0  0  0  0
   -8.0851    4.1718   -2.9084 H   0  0  0  0  0  0  0  0  0  0  0  0
   -8.7906    5.3300   -1.7914 H   0  0  0  0  0  0  0  0  0  0  0  0
   -7.2989    2.7595    2.2740 H   0  0  0  0  0  0  0  0  0  0  0  0
   -6.6075    4.2094    1.5571 H   0  0  0  0  0  0  0  0  0  0  0  0
   -4.7818    2.8911    0.4236 H   0  0  0  0  0  0  0  0  0  0  0  0
   -4.8624    2.6073    2.1579 H   0  0  0  0  0  0  0  0  0  0  0  0
   -5.8519   -1.5092    0.8661 H   0  0  0  0  0  0  0  0  0  0  0  0
   -5.0125   -3.8560    1.1439 H   0  0  0  0  0  0  0  0  0  0  0  0
   -3.2192   -4.1234    0.8335 H   0  0  0  0  0  0  0  0  0  0  0  0
   -4.5147   -5.0572   -1.0460 H   0  0  0  0  0  0  0  0  0  0  0  0
   -3.6116   -3.6384   -1.5774 H   0  0  0  0  0  0  0  0  0  0  0  0
   -5.5132   -2.1647   -1.5334 H   0  0  0  0  0  0  0  0  0  0  0  0
   -5.8319   -3.5985   -2.5116 H   0  0  0  0  0  0  0  0  0  0  0  0
   -8.0746   -4.9637   -0.1381 H   0  0  0  0  0  0  0  0  0  0  0  0
   -6.3236   -5.4436   -0.2695 H   0  0  0  0  0  0  0  0  0  0  0  0
   -7.3141   -5.2088   -1.7701 H   0  0  0  0  0  0  0  0  0  0  0  0
   -1.8029   -2.4112    0.3613 H   0  0  0  0  0  0  0  0  0  0  0  0
   -0.5599   -0.0196   -0.6380 H   0  0  0  0  0  0  0  0  0  0  0  0
   -0.9387    1.3495    0.4440 H   0  0  0  0  0  0  0  0  0  0  0  0
    2.4924   -2.3238    0.0652 H   0  0  0  0  0  0  0  0  0  0  0  0
   -0.1996   -2.1183   -1.3700 H   0  0  0  0  0  0  0  0  0  0  0  0
    0.3838   -3.3480   -0.1319 H   0  0  0  0  0  0  0  0  0  0  0  0
    2.1767   -3.8143   -1.5781 H   0  0  0  0  0  0  0  0  0  0  0  0
    1.2034   -2.5719   -3.8996 H   0  0  0  0  0  0  0  0  0  0  0  0
    2.8631   -2.5119   -3.2874 H   0  0  0  0  0  0  0  0  0  0  0  0
    2.0911   -0.2834   -3.3506 H   0  0  0  0  0  0  0  0  0  0  0  0
    0.4907   -0.6646   -2.6948 H   0  0  0  0  0  0  0  0  0  0  0  0
    1.6731    0.3576   -0.9629 H   0  0  0  0  0  0  0  0  0  0  0  0
    4.1226   -2.4851   -1.3096 H   0  0  0  0  0  0  0  0  0  0  0  0
    6.5263   -2.1103   -1.3892 H   0  0  0  0  0  0  0  0  0  0  0  0
    9.7675    0.2064   -1.5094 H   0  0  0  0  0  0  0  0  0  0  0  0
    8.7712   -1.1375   -2.2512 H   0  0  0  0  0  0  0  0  0  0  0  0
   10.0629   -1.8554   -0.3938 H   0  0  0  0  0  0  0  0  0  0  0  0
    8.3645   -2.1651   -0.1103 H   0  0  0  0  0  0  0  0  0  0  0  0
   11.0661    3.4516    1.5392 H   0  0  0  0  0  0  0  0  0  0  0  0
   14.0314    2.2708    3.2247 H   0  0  0  0  0  0  0  0  0  0  0  0
   13.2487    3.7108    2.3807 H   0  0  0  0  0  0  0  0  0  0  0  0
   14.3055    2.6302    1.4496 H   0  0  0  0  0  0  0  0  0  0  0  0
   13.4629   -0.0082    2.2817 H   0  0  0  0  0  0  0  0  0  0  0  0
    5.8374    2.0788   -1.2695 H   0  0  0  0  0  0  0  0  0  0  0  0
    3.3881    1.6781   -1.2210 H   0  0  0  0  0  0  0  0  0  0  0  0
    0.9897    0.1913    3.3285 H   0  0  0  0  0  0  0  0  0  0  0  0
   -0.2089    2.3804    3.7452 H   0  0  0  0  0  0  0  0  0  0  0  0
   -1.2540    2.2188    2.2516 H   0  0  0  0  0  0  0  0  0  0  0  0
   -1.9685   -0.2009    3.0622 H   0  0  0  0  0  0  0  0  0  0  0  0
   -1.0862    0.2449    4.6189 H   0  0  0  0  0  0  0  0  0  0  0  0
   -3.0686    1.6241    0.8609 H   0  0  0  0  0  0  0  0  0  0  0  0
  -10.5267    3.4057    2.2504 H   0  0  0  0  0  0  0  0  0  0  0  0
  1  2  1  0
  2  3  1  0
  3  4  1  0
  4  5  1  0
  3  6  1  0
  6  7  1  0
  7  8  1  0
  8  9  1  0
  9 10  2  0
 10 11  1  0
 11 12  1  0
 12 13  1  0
 13 14  1  0
 14 15  1  0
 15 16  1  0
 11 17  2  0
 17 18  1  0
 18 19  1  0
 19 20  1  0
 20 21  1  0
 21 22  2  0
 21 23  1  0
 23 24  1  0
 24 25  1  0
 25 26  1  0
 26 27  1  0
 27 28  1  0
 28 29  1  0
 29 30  2  0
 30 31  1  0
 31 32  2  0
 32 33  1  0
 33 34  1  0
 34 35  1  0
 35 36  1  0
 36 37  1  0
 37 38  2  0
 38 39  1  0
 38 40  1  0
 40 41  2  0
 41 42  1  0
 41 43  1  0
 43 44  2  0
 44 45  1  0
 32 46  1  0
 46 47  2  0
 20 48  1  0
 48 49  1  0
 49 50  1  0
 18 51  2  0
  3 52  1  0
 52 53  2  0
 52 54  1  0
 51  9  1  0
 28 23  1  0
 47 29  1  0
 50 48  1  0
 44 37  1  0
  1 55  1  0
  1 56  1  0
  1 57  1  0
  2 58  1  0
  2 59  1  0
  4 60  1  0
  4 61  1  0
  5 62  1  0
  5 63  1  0
  5 64  1  0
  6 65  1  0
  6 66  1  0
  7 67  1  0
  7 68  1  0
 10 69  1  0
 12 70  1  0
 12 71  1  0
 13 72  1  0
 13 73  1  0
 14 74  1  0
 14 75  1  0
 16 76  1  0
 16 77  1  0
 16 78  1  0
 17 79  1  0
 19 80  1  0
 19 81  1  0
 23 82  1  1
 24 83  1  0
 24 84  1  0
 25 85  1  0
 26 86  1  0
 26 87  1  0
 27 88  1  0
 27 89  1  0
 28 90  1  1
 30 91  1  0
 31 92  1  0
 34 93  1  0
 34 94  1  0
 35 95  1  0
 35 96  1  0
 40 97  1  0
 42 98  1  0
 42 99  1  0
 42100  1  0
 43101  1  0
 46102  1  0
 47103  1  0
 48104  1  0
 49105  1  0
 49106  1  0
 50107  1  0
 50108  1  0
 51109  1  0
 54110  1  0
M  END
$$$$
