
     RDKit          3D

 50 53  0  0  0  0  0  0  0  0999 V2000
    6.7303   -1.9669   -0.1833 C   0  0  0  0  0  0  0  0  0  0  0  0
    6.0652   -0.7793    0.0977 O   0  0  0  0  0  0  0  0  0  0  0  0
    4.7084   -0.5944    0.0543 C   0  0  0  0  0  0  0  0  0  0  0  0
    4.1861    0.6386    0.3541 C   0  0  0  0  0  0  0  0  0  0  0  0
    2.8213    0.8702    0.3213 C   0  0  0  0  0  0  0  0  0  0  0  0
    1.9498   -0.1292   -0.0126 C   0  0  0  0  0  0  0  0  0  0  0  0
    0.5423   -0.0048   -0.0824 N   0  0  0  0  0  0  0  0  0  0  0  0
   -0.1501    1.0347   -0.0190 C   0  0  0  0  0  0  0  0  0  0  0  0
    0.4039    2.2084    0.1329 O   0  0  0  0  0  0  0  0  0  0  0  0
   -0.2567    3.3238    0.2093 C   0  0  0  0  0  0  0  0  0  0  0  0
    0.4569    4.5040    0.3684 C   0  0  0  0  0  0  0  0  0  0  0  0
   -0.1976    5.7063    0.4523 C   0  0  0  0  0  0  0  0  0  0  0  0
    0.4653    6.9210    0.6151 O   0  0  0  0  0  0  0  0  0  0  0  0
   -1.5842    5.7054    0.3727 C   0  0  0  0  0  0  0  0  0  0  0  0
   -2.3222    4.5513    0.2144 C   0  0  0  0  0  0  0  0  0  0  0  0
   -1.6387    3.3537    0.1333 C   0  0  0  0  0  0  0  0  0  0  0  0
   -2.2914    2.1503   -0.0276 C   0  0  0  0  0  0  0  0  0  0  0  0
   -1.5385    1.0047   -0.1021 C   0  0  0  0  0  0  0  0  0  0  0  0
   -2.1987   -0.2876   -0.2983 C   0  0  0  0  0  0  0  0  0  0  0  0
   -1.7695   -1.0723   -1.1811 O   0  0  0  0  0  0  0  0  0  0  0  0
   -3.3151   -0.6866    0.4715 N   0  0  0  0  0  0  0  0  0  0  0  0
   -4.0340   -1.8961    0.3581 C   0  0  0  0  0  0  0  0  0  0  0  0
   -3.8024   -2.9170   -0.5019 C   0  0  0  0  0  0  0  0  0  0  0  0
   -4.5848   -4.0664   -0.5366 C   0  0  0  0  0  0  0  0  0  0  0  0
   -5.6531   -4.2076    0.3293 C   0  0  0  0  0  0  0  0  0  0  0  0
   -5.8665   -3.1531    1.1940 C   0  0  0  0  0  0  0  0  0  0  0  0
   -5.0925   -2.0586    1.2009 N   0  0  0  0  0  0  0  0  0  0  0  0
    2.4644   -1.3834   -0.3180 C   0  0  0  0  0  0  0  0  0  0  0  0
    1.6143   -2.4047   -0.6573 O   0  0  0  0  0  0  0  0  0  0  0  0
    2.0073   -3.7049   -0.9837 C   0  0  0  0  0  0  0  0  0  0  0  0
    3.8097   -1.5918   -0.2806 C   0  0  0  0  0  0  0  0  0  0  0  0
    6.5631   -2.2409   -1.2511 H   0  0  0  0  0  0  0  0  0  0  0  0
    7.8386   -1.8067   -0.0921 H   0  0  0  0  0  0  0  0  0  0  0  0
    6.5016   -2.7947    0.5017 H   0  0  0  0  0  0  0  0  0  0  0  0
    4.8505    1.4751    0.6292 H   0  0  0  0  0  0  0  0  0  0  0  0
    2.4628    1.8898    0.5807 H   0  0  0  0  0  0  0  0  0  0  0  0
    1.5539    4.5065    0.4312 H   0  0  0  0  0  0  0  0  0  0  0  0
    0.6405    7.4251   -0.2711 H   0  0  0  0  0  0  0  0  0  0  0  0
   -2.1068    6.6527    0.4399 H   0  0  0  0  0  0  0  0  0  0  0  0
   -3.3989    4.5160    0.1478 H   0  0  0  0  0  0  0  0  0  0  0  0
   -3.3498    2.0980   -0.0948 H   0  0  0  0  0  0  0  0  0  0  0  0
   -3.6100    0.0336    1.2068 H   0  0  0  0  0  0  0  0  0  0  0  0
   -3.0008   -2.8752   -1.1849 H   0  0  0  0  0  0  0  0  0  0  0  0
   -4.3662   -4.8718   -1.2448 H   0  0  0  0  0  0  0  0  0  0  0  0
   -6.2922   -5.0770    0.3470 H   0  0  0  0  0  0  0  0  0  0  0  0
   -6.7127   -3.2359    1.8881 H   0  0  0  0  0  0  0  0  0  0  0  0
    2.2014   -4.3335   -0.0841 H   0  0  0  0  0  0  0  0  0  0  0  0
    2.9053   -3.6837   -1.6156 H   0  0  0  0  0  0  0  0  0  0  0  0
    1.1510   -4.1855   -1.5134 H   0  0  0  0  0  0  0  0  0  0  0  0
    4.2394   -2.5597   -0.5154 H   0  0  0  0  0  0  0  0  0  0  0  0
  1  2  1  0
  2  3  1  0
  3  4  2  0
  4  5  1  0
  5  6  2  0
  6  7  1  0
  7  8  2  0
  8  9  1  0
  9 10  1  0
 10 11  2  0
 11 12  1  0
 12 13  1  0
 12 14  2  0
 14 15  1  0
 15 16  2  0
 16 17  1  0
 17 18  2  0
 18 19  1  0
 19 20  2  0
 19 21  1  0
 21 22  1  0
 22 23  2  0
 23 24  1  0
 24 25  2  0
 25 26  1  0
 26 27  2  0
  6 28  1  0
 28 29  1  0
 29 30  1  0
 28 31  2  0
 31  3  1  0
 18  8  1  0
 27 22  1  0
 16 10  1  0
  1 32  1  0
  1 33  1  0
  1 34  1  0
  4 35  1  0
  5 36  1  0
 11 37  1  0
 13 38  1  0
 14 39  1  0
 15 40  1  0
 17 41  1  0
 21 42  1  0
 23 43  1  0
 24 44  1  0
 25 45  1  0
 26 46  1  0
 30 47  1  0
 30 48  1  0
 30 49  1  0
 31 50  1  0
M  END
$$$$
