
     RDKit          3D

 37 39  0  0  0  0  0  0  0  0999 V2000
   -3.2701   -2.5005    1.0628 C   0  0  0  0  0  0  0  0  0  0  0  0
   -3.2735   -1.2596    0.3992 N   0  0  0  0  0  0  0  0  0  0  0  0
   -2.1404   -0.4109    0.6001 C   0  0  2  0  0  0  0  0  0  0  0  0
   -2.4064    0.8438   -0.2222 C   0  0  0  0  0  0  0  0  0  0  0  0
   -1.2611    1.7489   -0.2417 C   0  0  0  0  0  0  0  0  0  0  0  0
   -1.4735    3.1093   -0.1407 C   0  0  0  0  0  0  0  0  0  0  0  0
   -0.3646    3.9464   -0.1592 C   0  0  0  0  0  0  0  0  0  0  0  0
    0.9066    3.4332   -0.2748 C   0  0  0  0  0  0  0  0  0  0  0  0
    1.0707    2.0444   -0.3745 C   0  0  0  0  0  0  0  0  0  0  0  0
   -0.0098    1.2009   -0.3583 C   0  0  0  0  0  0  0  0  0  0  0  0
    0.1465   -0.2477   -0.4642 C   0  0  1  0  0  0  0  0  0  0  0  0
    1.5509   -0.6920   -0.2873 C   0  0  0  0  0  0  0  0  0  0  0  0
    2.1510   -0.9403    0.9269 C   0  0  0  0  0  0  0  0  0  0  0  0
    3.4629   -1.3525    1.0147 C   0  0  0  0  0  0  0  0  0  0  0  0
    4.2194   -1.5300   -0.1151 C   0  0  0  0  0  0  0  0  0  0  0  0
    5.8797   -2.0475   -0.0850 Cl  0  0  0  0  0  0  0  0  0  0  0  0
    3.6503   -1.2897   -1.3584 C   0  0  0  0  0  0  0  0  0  0  0  0
    4.5618   -1.4970   -2.8448 Cl  0  0  0  0  0  0  0  0  0  0  0  0
    2.3398   -0.8800   -1.4059 C   0  0  0  0  0  0  0  0  0  0  0  0
   -0.8337   -1.0541    0.3487 C   0  0  0  0  0  0  0  0  0  0  0  0
   -2.3069   -2.8804    1.4058 H   0  0  0  0  0  0  0  0  0  0  0  0
   -3.9118   -2.4053    1.9882 H   0  0  0  0  0  0  0  0  0  0  0  0
   -3.8017   -3.2838    0.4478 H   0  0  0  0  0  0  0  0  0  0  0  0
   -3.5203   -1.4043   -0.6073 H   0  0  0  0  0  0  0  0  0  0  0  0
   -2.1797   -0.0671    1.6663 H   0  0  0  0  0  0  0  0  0  0  0  0
   -2.6426    0.5714   -1.2811 H   0  0  0  0  0  0  0  0  0  0  0  0
   -3.3091    1.3262    0.2039 H   0  0  0  0  0  0  0  0  0  0  0  0
   -2.4498    3.5639   -0.0480 H   0  0  0  0  0  0  0  0  0  0  0  0
   -0.5338    5.0303   -0.0787 H   0  0  0  0  0  0  0  0  0  0  0  0
    1.7408    4.1071   -0.2858 H   0  0  0  0  0  0  0  0  0  0  0  0
    2.0894    1.6878   -0.4636 H   0  0  0  0  0  0  0  0  0  0  0  0
   -0.1210   -0.5022   -1.5400 H   0  0  0  0  0  0  0  0  0  0  0  0
    1.5573   -0.7982    1.8187 H   0  0  0  0  0  0  0  0  0  0  0  0
    3.9095   -1.5404    1.9767 H   0  0  0  0  0  0  0  0  0  0  0  0
    1.9206   -0.6990   -2.3998 H   0  0  0  0  0  0  0  0  0  0  0  0
   -0.3327   -1.2689    1.3134 H   0  0  0  0  0  0  0  0  0  0  0  0
   -1.0147   -2.0623   -0.1368 H   0  0  0  0  0  0  0  0  0  0  0  0
  1  2  1  0
  2  3  1  0
  3  4  1  0
  4  5  1  0
  5  6  2  0
  6  7  1  0
  7  8  2  0
  8  9  1  0
  9 10  2  0
 10 11  1  0
 11 12  1  0
 12 13  2  0
 13 14  1  0
 14 15  2  0
 15 16  1  0
 15 17  1  0
 17 18  1  0
 17 19  2  0
 11 20  1  0
 20  3  1  0
 10  5  1  0
 19 12  1  0
  1 21  1  0
  1 22  1  0
  1 23  1  0
  2 24  1  0
  3 25  1  1
  4 26  1  0
  4 27  1  0
  6 28  1  0
  7 29  1  0
  8 30  1  0
  9 31  1  0
 11 32  1  6
 13 33  1  0
 14 34  1  0
 19 35  1  0
 20 36  1  0
 20 37  1  0
M  END
$$$$
