
     RDKit          3D

 48 50  0  0  0  0  0  0  0  0999 V2000
   -0.8496    4.2058    3.2022 C   0  0  0  0  0  0  0  0  0  0  0  0
   -0.0096    3.7002    2.1795 O   0  0  0  0  0  0  0  0  0  0  0  0
   -0.3255    2.5561    1.4643 C   0  0  0  0  0  0  0  0  0  0  0  0
   -1.4692    1.8240    1.6858 C   0  0  0  0  0  0  0  0  0  0  0  0
   -1.7627    0.6928    0.9642 C   0  0  0  0  0  0  0  0  0  0  0  0
   -0.9349    0.2320   -0.0166 C   0  0  0  0  0  0  0  0  0  0  0  0
    0.2223    0.9813   -0.2304 C   0  0  0  0  0  0  0  0  0  0  0  0
    0.5158    2.1096    0.4894 C   0  0  0  0  0  0  0  0  0  0  0  0
    0.9241    0.3366   -1.2209 C   0  0  0  0  0  0  0  0  0  0  0  0
    2.2341    0.7718   -1.7801 C   0  0  0  0  0  0  0  0  0  0  0  0
    3.3483    0.4543   -0.8494 C   0  0  0  0  0  0  0  0  0  0  0  0
    3.1099   -0.1082    0.2428 O   0  0  0  0  0  0  0  0  0  0  0  0
    4.6948    0.7708   -1.1596 N   0  0  0  0  0  0  0  0  0  0  0  0
    6.0373    0.4420   -0.1518 S   0  0  0  0  0  6  0  0  0  0  0  0
    6.6485    1.7818    0.2231 O   0  0  0  0  0  0  0  0  0  0  0  0
    7.1223   -0.3220   -0.8711 O   0  0  0  0  0  0  0  0  0  0  0  0
    5.6094   -0.3671    1.3386 C   0  0  0  0  0  0  0  0  0  0  0  0
    5.0036   -1.5827    1.1761 F   0  0  0  0  0  0  0  0  0  0  0  0
    4.8152    0.4205    2.1312 F   0  0  0  0  0  0  0  0  0  0  0  0
    6.8025   -0.6147    2.0327 F   0  0  0  0  0  0  0  0  0  0  0  0
    0.1878   -0.7465   -1.5626 C   0  0  0  0  0  0  0  0  0  0  0  0
    0.5968   -1.7147   -2.6076 C   0  0  0  0  0  0  0  0  0  0  0  0
   -0.9697   -0.8248   -0.8267 N   0  0  0  0  0  0  0  0  0  0  0  0
   -1.8788   -1.8921   -0.9459 C   0  0  0  0  0  0  0  0  0  0  0  0
   -1.4629   -2.9467   -1.6179 O   0  0  0  0  0  0  0  0  0  0  0  0
   -3.2177   -2.0290   -0.4518 C   0  0  0  0  0  0  0  0  0  0  0  0
   -3.6453   -3.2863   -0.0100 C   0  0  0  0  0  0  0  0  0  0  0  0
   -4.9459   -3.5113    0.3864 C   0  0  0  0  0  0  0  0  0  0  0  0
   -5.8854   -2.5104    0.3666 C   0  0  0  0  0  0  0  0  0  0  0  0
   -7.5378   -2.8395    0.8816 Cl  0  0  0  0  0  0  0  0  0  0  0  0
   -5.4990   -1.2624   -0.0625 C   0  0  0  0  0  0  0  0  0  0  0  0
   -4.1814   -1.0554   -0.4588 C   0  0  0  0  0  0  0  0  0  0  0  0
   -1.2331    3.3615    3.8365 H   0  0  0  0  0  0  0  0  0  0  0  0
   -1.6884    4.8117    2.8030 H   0  0  0  0  0  0  0  0  0  0  0  0
   -0.2522    4.8423    3.8679 H   0  0  0  0  0  0  0  0  0  0  0  0
   -2.1609    2.1618    2.4643 H   0  0  0  0  0  0  0  0  0  0  0  0
   -2.6338    0.1476    1.1996 H   0  0  0  0  0  0  0  0  0  0  0  0
    1.4411    2.6572    0.2744 H   0  0  0  0  0  0  0  0  0  0  0  0
    2.1822    1.8884   -1.9653 H   0  0  0  0  0  0  0  0  0  0  0  0
    2.4141    0.3552   -2.7930 H   0  0  0  0  0  0  0  0  0  0  0  0
    4.8261    1.2471   -2.1012 H   0  0  0  0  0  0  0  0  0  0  0  0
   -0.2556   -1.8915   -3.3161 H   0  0  0  0  0  0  0  0  0  0  0  0
    1.5046   -1.4245   -3.1309 H   0  0  0  0  0  0  0  0  0  0  0  0
    0.7999   -2.7249   -2.1586 H   0  0  0  0  0  0  0  0  0  0  0  0
   -2.8943   -4.0710    0.0018 H   0  0  0  0  0  0  0  0  0  0  0  0
   -5.2517   -4.4919    0.7241 H   0  0  0  0  0  0  0  0  0  0  0  0
   -6.2185   -0.4784   -0.0827 H   0  0  0  0  0  0  0  0  0  0  0  0
   -3.8767   -0.0563   -0.8141 H   0  0  0  0  0  0  0  0  0  0  0  0
  1  2  1  0
  2  3  1  0
  3  4  2  0
  4  5  1  0
  5  6  2  0
  6  7  1  0
  7  8  2  0
  7  9  1  0
  9 10  1  0
 10 11  1  0
 11 12  2  0
 11 13  1  0
 13 14  1  0
 14 15  2  0
 14 16  2  0
 14 17  1  0
 17 18  1  0
 17 19  1  0
 17 20  1  0
  9 21  2  0
 21 22  1  0
 21 23  1  0
 23 24  1  0
 24 25  2  0
 24 26  1  0
 26 27  2  0
 27 28  1  0
 28 29  2  0
 29 30  1  0
 29 31  1  0
 31 32  2  0
  8  3  1  0
 32 26  1  0
 23  6  1  0
  1 33  1  0
  1 34  1  0
  1 35  1  0
  4 36  1  0
  5 37  1  0
  8 38  1  0
 10 39  1  0
 10 40  1  0
 13 41  1  0
 22 42  1  0
 22 43  1  0
 22 44  1  0
 27 45  1  0
 28 46  1  0
 31 47  1  0
 32 48  1  0
M  END
$$$$
