
     RDKit          3D

 43 46  0  0  0  0  0  0  0  0999 V2000
    7.3483   -0.4394    1.0826 C   0  0  0  0  0  0  0  0  0  0  0  0
    6.7369   -0.0529   -0.5869 S   0  0  0  0  0  4  0  0  0  0  0  0
    7.2177    1.3526   -0.9655 O   0  0  0  0  0  0  0  0  0  0  0  0
    4.9695   -0.0459   -0.4816 C   0  0  0  0  0  0  0  0  0  0  0  0
    4.3130    1.1298   -0.1921 C   0  0  0  0  0  0  0  0  0  0  0  0
    2.9184    1.1534   -0.1043 C   0  0  0  0  0  0  0  0  0  0  0  0
    2.2092   -0.0069   -0.3096 C   0  0  0  0  0  0  0  0  0  0  0  0
    0.7543   -0.0278   -0.2285 C   0  0  0  0  0  0  0  0  0  0  0  0
   -0.0268   -1.1157   -0.4114 N   0  0  0  0  0  0  0  0  0  0  0  0
   -1.3212   -0.7837   -0.2653 C   0  0  0  0  0  0  0  0  0  0  0  0
   -2.4388   -1.7051   -0.3961 C   0  0  0  0  0  0  0  0  0  0  0  0
   -3.2800   -1.9515    0.6663 C   0  0  0  0  0  0  0  0  0  0  0  0
   -4.3533   -2.8345    0.5509 C   0  0  0  0  0  0  0  0  0  0  0  0
   -4.5762   -3.4608   -0.6182 N   0  0  0  0  0  0  0  0  0  0  0  0
   -3.7564   -3.2241   -1.6623 C   0  0  0  0  0  0  0  0  0  0  0  0
   -2.6839   -2.3565   -1.5854 C   0  0  0  0  0  0  0  0  0  0  0  0
   -1.3514    0.5841    0.0245 C   0  0  0  0  0  0  0  0  0  0  0  0
   -2.5323    1.3859    0.2661 C   0  0  0  0  0  0  0  0  0  0  0  0
   -2.6946    2.0405    1.4639 C   0  0  0  0  0  0  0  0  0  0  0  0
   -3.8288    2.8176    1.7173 C   0  0  0  0  0  0  0  0  0  0  0  0
   -4.7882    2.9201    0.7458 C   0  0  0  0  0  0  0  0  0  0  0  0
   -5.9079    3.6538    0.9249 F   0  0  0  0  0  0  0  0  0  0  0  0
   -4.6554    2.2746   -0.4697 C   0  0  0  0  0  0  0  0  0  0  0  0
   -3.5114    1.5092   -0.6861 C   0  0  0  0  0  0  0  0  0  0  0  0
   -0.0539    0.9936    0.0341 N   0  0  0  0  0  0  0  0  0  0  0  0
    2.9071   -1.1687   -0.5987 C   0  0  0  0  0  0  0  0  0  0  0  0
    4.2650   -1.2129   -0.6886 C   0  0  0  0  0  0  0  0  0  0  0  0
    7.2443    0.4703    1.6736 H   0  0  0  0  0  0  0  0  0  0  0  0
    6.7484   -1.2947    1.4856 H   0  0  0  0  0  0  0  0  0  0  0  0
    8.3974   -0.7252    1.0138 H   0  0  0  0  0  0  0  0  0  0  0  0
    4.9188    2.0125   -0.0400 H   0  0  0  0  0  0  0  0  0  0  0  0
    2.4283    2.0948    0.1256 H   0  0  0  0  0  0  0  0  0  0  0  0
   -3.1509   -1.4806    1.6231 H   0  0  0  0  0  0  0  0  0  0  0  0
   -5.0215   -3.0369    1.3774 H   0  0  0  0  0  0  0  0  0  0  0  0
   -3.9256   -3.7214   -2.6067 H   0  0  0  0  0  0  0  0  0  0  0  0
   -2.0634   -2.2126   -2.4661 H   0  0  0  0  0  0  0  0  0  0  0  0
   -1.9638    1.9891    2.2605 H   0  0  0  0  0  0  0  0  0  0  0  0
   -3.9705    3.3324    2.6419 H   0  0  0  0  0  0  0  0  0  0  0  0
   -5.4026    2.3578   -1.2189 H   0  0  0  0  0  0  0  0  0  0  0  0
   -3.4378    1.0203   -1.6390 H   0  0  0  0  0  0  0  0  0  0  0  0
    0.2397    1.9742    0.2232 H   0  0  0  0  0  0  0  0  0  0  0  0
    2.3182   -2.0674   -0.7553 H   0  0  0  0  0  0  0  0  0  0  0  0
    4.7621   -2.1413   -0.9159 H   0  0  0  0  0  0  0  0  0  0  0  0
  1  2  1  0
  2  3  2  0
  2  4  1  0
  4  5  2  0
  5  6  1  0
  6  7  2  0
  7  8  1  0
  8  9  2  0
  9 10  1  0
 10 11  1  0
 11 12  2  0
 12 13  1  0
 13 14  2  0
 14 15  1  0
 15 16  2  0
 10 17  2  0
 17 18  1  0
 18 19  2  0
 19 20  1  0
 20 21  2  0
 21 22  1  0
 21 23  1  0
 23 24  2  0
 17 25  1  0
  7 26  1  0
 26 27  2  0
 27  4  1  0
 25  8  1  0
 16 11  1  0
 24 18  1  0
  1 28  1  0
  1 29  1  0
  1 30  1  0
  5 31  1  0
  6 32  1  0
 12 33  1  0
 13 34  1  0
 15 35  1  0
 16 36  1  0
 19 37  1  0
 20 38  1  0
 23 39  1  0
 24 40  1  0
 25 41  1  0
 26 42  1  0
 27 43  1  0
M  END
$$$$
