
     RDKit          3D

 19 19  0  0  0  0  0  0  0  0999 V2000
   -2.0660    0.8333    0.0877 C   0  0  0  0  0  0  0  0  0  0  0  0
   -0.6220    0.6707    0.0363 N   0  0  0  0  0  0  0  0  0  0  0  0
    0.1169    1.7889   -0.0554 C   0  0  0  0  0  0  0  0  0  0  0  0
    1.4886    1.7001   -0.1078 C   0  0  0  0  0  0  0  0  0  0  0  0
    2.1308    0.4803   -0.0682 C   0  0  0  0  0  0  0  0  0  0  0  0
    3.3779    0.3757   -0.1146 O   0  0  0  0  0  0  0  0  0  0  0  0
    1.3703   -0.6622    0.0256 C   0  0  0  0  0  0  0  0  0  0  0  0
    1.9086   -1.9585    0.0737 O   0  0  0  0  0  0  0  0  0  0  0  0
   -0.0101   -0.5280    0.0759 C   0  0  0  0  0  0  0  0  0  0  0  0
   -0.8396   -1.7373    0.1763 C   0  0  0  0  0  0  0  0  0  0  0  0
   -2.3458    1.8077    0.5147 H   0  0  0  0  0  0  0  0  0  0  0  0
   -2.5631   -0.0180    0.6058 H   0  0  0  0  0  0  0  0  0  0  0  0
   -2.4004    0.7289   -0.9767 H   0  0  0  0  0  0  0  0  0  0  0  0
   -0.2899    2.7711   -0.0918 H   0  0  0  0  0  0  0  0  0  0  0  0
    2.1190    2.5663   -0.1811 H   0  0  0  0  0  0  0  0  0  0  0  0
    1.9002   -2.5655   -0.7469 H   0  0  0  0  0  0  0  0  0  0  0  0
   -1.5229   -1.8953   -0.6817 H   0  0  0  0  0  0  0  0  0  0  0  0
   -0.2312   -2.6505    0.3504 H   0  0  0  0  0  0  0  0  0  0  0  0
   -1.5215   -1.7077    1.0778 H   0  0  0  0  0  0  0  0  0  0  0  0
  1  2  1  0
  2  3  1  0
  3  4  2  0
  4  5  1  0
  5  6  2  0
  5  7  1  0
  7  8  1  0
  7  9  2  0
  9 10  1  0
  9  2  1  0
  1 11  1  0
  1 12  1  0
  1 13  1  0
  3 14  1  0
  4 15  1  0
  8 16  1  0
 10 17  1  0
 10 18  1  0
 10 19  1  0
M  END
$$$$
