
     RDKit          3D

 38 37  0  0  0  0  0  0  0  0999 V2000
   -2.8897    3.6711    1.1858 C   0  0  0  0  0  0  0  0  0  0  0  0
   -3.6946    2.7707    0.2503 C   0  0  0  0  0  0  0  0  0  0  0  0
   -3.0061    1.5849   -0.0409 O   0  0  0  0  0  0  0  0  0  0  0  0
   -1.7509    1.5154   -0.6321 C   0  0  0  0  0  0  0  0  0  0  0  0
   -1.4026    2.6782   -0.8292 O   0  0  0  0  0  0  0  0  0  0  0  0
   -1.1831    0.1421   -0.8590 C   0  0  0  0  0  0  0  0  0  0  0  0
   -0.7053   -0.4168    0.4466 C   0  0  0  0  0  0  0  0  0  0  0  0
    0.5681    0.5303    1.2687 S   0  0  0  0  0  0  0  0  0  0  0  0
    2.3997    0.5987    0.2841 P   0  0  0  0  0  0  0  0  0  0  0  0
    3.6427    0.5525    1.5149 S   0  0  0  0  0  0  0  0  0  0  0  0
    2.6371    1.9711   -0.6364 O   0  0  0  0  0  0  0  0  0  0  0  0
    3.7143    2.7069   -0.1723 C   0  0  0  0  0  0  0  0  0  0  0  0
    2.6715   -0.7938   -0.6617 O   0  0  0  0  0  0  0  0  0  0  0  0
    4.0400   -0.9310   -0.9277 C   0  0  0  0  0  0  0  0  0  0  0  0
   -0.3065   -1.8535    0.2837 C   0  0  0  0  0  0  0  0  0  0  0  0
    0.6691   -2.6263    0.4129 O   0  0  0  0  0  0  0  0  0  0  0  0
   -1.4218   -2.5604   -0.1728 O   0  0  0  0  0  0  0  0  0  0  0  0
   -1.3916   -3.9662   -0.4304 C   0  0  0  0  0  0  0  0  0  0  0  0
   -1.0642   -4.7503    0.7999 C   0  0  0  0  0  0  0  0  0  0  0  0
   -1.9095    3.2055    1.3687 H   0  0  0  0  0  0  0  0  0  0  0  0
   -2.7434    4.6852    0.7085 H   0  0  0  0  0  0  0  0  0  0  0  0
   -3.4267    3.9035    2.1283 H   0  0  0  0  0  0  0  0  0  0  0  0
   -4.1171    3.2991   -0.6147 H   0  0  0  0  0  0  0  0  0  0  0  0
   -4.5733    2.4437    0.8909 H   0  0  0  0  0  0  0  0  0  0  0  0
   -2.0236   -0.4823   -1.2144 H   0  0  0  0  0  0  0  0  0  0  0  0
   -0.4218    0.1453   -1.6565 H   0  0  0  0  0  0  0  0  0  0  0  0
   -1.5902   -0.4169    1.1521 H   0  0  0  0  0  0  0  0  0  0  0  0
    3.6641    2.7796    0.9462 H   0  0  0  0  0  0  0  0  0  0  0  0
    4.6882    2.2442   -0.4327 H   0  0  0  0  0  0  0  0  0  0  0  0
    3.7459    3.7423   -0.5392 H   0  0  0  0  0  0  0  0  0  0  0  0
    4.4107   -0.2024   -1.6718 H   0  0  0  0  0  0  0  0  0  0  0  0
    4.5825   -0.7796    0.0287 H   0  0  0  0  0  0  0  0  0  0  0  0
    4.3089   -1.9442   -1.2806 H   0  0  0  0  0  0  0  0  0  0  0  0
   -0.7671   -4.1850   -1.3079 H   0  0  0  0  0  0  0  0  0  0  0  0
   -2.4472   -4.2170   -0.7132 H   0  0  0  0  0  0  0  0  0  0  0  0
   -0.3743   -5.5774    0.4843 H   0  0  0  0  0  0  0  0  0  0  0  0
   -1.9771   -5.2825    1.2042 H   0  0  0  0  0  0  0  0  0  0  0  0
   -0.5553   -4.1847    1.6021 H   0  0  0  0  0  0  0  0  0  0  0  0
  1  2  1  0
  2  3  1  0
  3  4  1  0
  4  5  2  0
  4  6  1  0
  6  7  1  0
  7  8  1  0
  8  9  1  0
  9 10  2  0
  9 11  1  0
 11 12  1  0
  9 13  1  0
 13 14  1  0
  7 15  1  0
 15 16  2  0
 15 17  1  0
 17 18  1  0
 18 19  1  0
  1 20  1  0
  1 21  1  0
  1 22  1  0
  2 23  1  0
  2 24  1  0
  6 25  1  0
  6 26  1  0
  7 27  1  0
 12 28  1  0
 12 29  1  0
 12 30  1  0
 14 31  1  0
 14 32  1  0
 14 33  1  0
 18 34  1  0
 18 35  1  0
 19 36  1  0
 19 37  1  0
 19 38  1  0
M  END
$$$$
