
     RDKit          3D

 51 55  0  0  0  0  0  0  0  0999 V2000
    5.6722   -2.5575    1.6100 N   0  0  0  0  0  0  0  0  0  0  0  0
    4.4428   -1.9388    1.2773 C   0  0  0  0  0  0  0  0  0  0  0  0
    3.4957   -1.9050    2.0936 O   0  0  0  0  0  0  0  0  0  0  0  0
    4.2764   -1.3334   -0.0301 C   0  0  0  0  0  0  0  0  0  0  0  0
    5.2338   -1.2921   -1.0482 C   0  0  0  0  0  0  0  0  0  0  0  0
    4.6885   -0.6465   -2.0899 N   0  0  0  0  0  0  0  0  0  0  0  0
    3.4492   -0.2969   -1.7475 C   0  0  0  0  0  0  0  0  0  0  0  0
    2.4951    0.3783   -2.4633 C   0  0  0  0  0  0  0  0  0  0  0  0
    1.2502    0.6529   -1.9301 C   0  0  0  0  0  0  0  0  0  0  0  0
    0.9822    0.2313   -0.6528 C   0  0  0  0  0  0  0  0  0  0  0  0
   -0.3192    0.4906   -0.0248 C   0  0  0  0  0  0  0  0  0  0  0  0
   -0.8717    1.7184    0.2798 C   0  0  0  0  0  0  0  0  0  0  0  0
   -0.2481    3.0208    0.0311 C   0  0  0  0  0  0  0  0  0  0  0  0
   -0.4896    3.7573   -1.1061 C   0  0  0  0  0  0  0  0  0  0  0  0
    0.0916    4.9857   -1.3502 C   0  0  0  0  0  0  0  0  0  0  0  0
    0.9561    5.5095   -0.4181 C   0  0  0  0  0  0  0  0  0  0  0  0
    1.5374    6.7154   -0.6385 F   0  0  0  0  0  0  0  0  0  0  0  0
    1.2296    4.7983    0.7471 C   0  0  0  0  0  0  0  0  0  0  0  0
    0.6341    3.5717    0.9652 C   0  0  0  0  0  0  0  0  0  0  0  0
   -2.0681    1.4466    0.8358 N   0  0  0  0  0  0  0  0  0  0  0  0
   -2.2839    0.1205    0.8913 C   0  0  0  0  0  0  0  0  0  0  0  0
   -1.1823   -0.4676    0.3497 N   0  0  0  0  0  0  0  0  0  0  0  0
   -1.1701   -1.9337    0.2886 C   0  0  0  0  0  0  0  0  0  0  0  0
   -2.5807   -2.3779   -0.0986 C   0  0  0  0  0  0  0  0  0  0  0  0
   -3.4779   -1.9871    0.9041 N   0  0  0  0  0  0  0  0  0  0  0  0
   -4.6971   -2.6855    1.0260 C   0  0  0  0  0  0  0  0  0  0  0  0
   -5.6558   -2.4852   -0.1124 C   0  0  0  0  0  0  0  0  0  0  0  0
   -5.1476   -2.8859   -1.3229 F   0  0  0  0  0  0  0  0  0  0  0  0
   -6.7941   -3.2362    0.1306 F   0  0  0  0  0  0  0  0  0  0  0  0
   -3.4222   -0.6732    1.4039 C   0  0  0  0  0  0  0  0  0  0  0  0
    1.9659   -0.4516    0.0533 C   0  0  0  0  0  0  0  0  0  0  0  0
    3.1760   -0.7069   -0.4926 N   0  0  0  0  0  0  0  0  0  0  0  0
    5.8817   -3.4700    1.1150 H   0  0  0  0  0  0  0  0  0  0  0  0
    6.3278   -2.1419    2.2973 H   0  0  0  0  0  0  0  0  0  0  0  0
    6.2402   -1.7145   -0.9893 H   0  0  0  0  0  0  0  0  0  0  0  0
    2.7117    0.7036   -3.4576 H   0  0  0  0  0  0  0  0  0  0  0  0
    0.5262    1.1819   -2.5171 H   0  0  0  0  0  0  0  0  0  0  0  0
   -1.1850    3.3303   -1.8461 H   0  0  0  0  0  0  0  0  0  0  0  0
   -0.1556    5.5007   -2.2721 H   0  0  0  0  0  0  0  0  0  0  0  0
    1.9193    5.2601    1.4426 H   0  0  0  0  0  0  0  0  0  0  0  0
    0.8673    3.0367    1.8845 H   0  0  0  0  0  0  0  0  0  0  0  0
   -0.8894   -2.3762    1.2609 H   0  0  0  0  0  0  0  0  0  0  0  0
   -0.5126   -2.2759   -0.5424 H   0  0  0  0  0  0  0  0  0  0  0  0
   -2.5715   -3.4781   -0.1929 H   0  0  0  0  0  0  0  0  0  0  0  0
   -2.8115   -1.8652   -1.0542 H   0  0  0  0  0  0  0  0  0  0  0  0
   -5.2150   -2.3565    1.9492 H   0  0  0  0  0  0  0  0  0  0  0  0
   -4.4831   -3.7821    1.0872 H   0  0  0  0  0  0  0  0  0  0  0  0
   -5.8815   -1.4062   -0.2017 H   0  0  0  0  0  0  0  0  0  0  0  0
   -4.3900   -0.1646    1.2336 H   0  0  0  0  0  0  0  0  0  0  0  0
   -3.3050   -0.7353    2.5257 H   0  0  0  0  0  0  0  0  0  0  0  0
    1.7576   -0.7836    1.0589 H   0  0  0  0  0  0  0  0  0  0  0  0
  1  2  1  0
  2  3  2  0
  2  4  1  0
  4  5  2  0
  5  6  1  0
  6  7  2  0
  7  8  1  0
  8  9  2  0
  9 10  1  0
 10 11  1  0
 11 12  2  0
 12 13  1  0
 13 14  2  0
 14 15  1  0
 15 16  2  0
 16 17  1  0
 16 18  1  0
 18 19  2  0
 12 20  1  0
 20 21  2  0
 21 22  1  0
 22 23  1  0
 23 24  1  0
 24 25  1  0
 25 26  1  0
 26 27  1  0
 27 28  1  0
 27 29  1  0
 25 30  1  0
 10 31  2  0
 31 32  1  0
 32  4  1  0
 32  7  1  0
 22 11  1  0
 19 13  1  0
 30 21  1  0
  1 33  1  0
  1 34  1  0
  5 35  1  0
  8 36  1  0
  9 37  1  0
 14 38  1  0
 15 39  1  0
 18 40  1  0
 19 41  1  0
 23 42  1  0
 23 43  1  0
 24 44  1  0
 24 45  1  0
 26 46  1  0
 26 47  1  0
 27 48  1  0
 30 49  1  0
 30 50  1  0
 31 51  1  0
M  END
$$$$
