
     RDKit          3D

111115  0  0  0  0  0  0  0  0999 V2000
   -0.0233   -1.7466    0.3741 C   0  0  1  0  0  0  0  0  0  0  0  0
   -0.3937   -0.9533   -0.7369 O   0  0  0  0  0  0  0  0  0  0  0  0
    1.4423   -1.6426    0.5949 C   0  0  0  0  0  0  0  0  0  0  0  0
    2.2476   -2.0504   -0.4508 O   0  0  0  0  0  0  0  0  0  0  0  0
    1.9084   -1.1973    1.7001 N   0  0  0  0  0  0  0  0  0  0  0  0
    3.3318   -1.1088    1.8828 C   0  0  0  0  0  0  0  0  0  0  0  0
    3.8529    0.2536    1.4999 C   0  0  0  0  0  0  0  0  0  0  0  0
    5.3243    0.2980    1.7047 C   0  0  0  0  0  0  0  0  0  0  0  0
    5.6800    0.0335    3.0344 O   0  0  0  0  0  0  0  0  0  0  0  0
    6.3087    0.5364    0.8711 N   0  0  0  0  0  0  0  0  0  0  0  0
    6.0198    0.8153   -0.5072 C   0  0  0  0  0  0  0  0  0  0  0  0
    7.0961    1.7022   -1.0769 C   0  0  0  0  0  0  0  0  0  0  0  0
    7.2277    3.2837   -0.2106 S   0  0  0  0  0  0  0  0  0  0  0  0
    7.8264    3.0907    1.4784 C   0  0  0  0  0  0  0  0  0  0  0  0
    9.2516    2.6123    1.4757 C   0  0  0  0  0  0  0  0  0  0  0  0
    9.8005    2.4063    2.7320 O   0  0  0  0  0  0  0  0  0  0  0  0
    9.8325    2.4367    0.3585 N   0  0  0  0  0  0  0  0  0  0  0  0
   11.1646    1.9937    0.1449 C   0  0  0  0  0  0  0  0  0  0  0  0
   11.1623    0.8747   -0.8933 C   0  0  0  0  0  0  0  0  0  0  0  0
   12.5604    0.4281   -1.1105 C   0  0  0  0  0  0  0  0  0  0  0  0
   13.3332    0.7508   -2.2163 C   0  0  0  0  0  0  0  0  0  0  0  0
   14.5714    0.2040   -2.1459 N   0  0  0  0  0  0  0  0  0  0  0  0
   14.6119   -0.4808   -0.9890 C   0  0  0  0  0  0  0  0  0  0  0  0
   15.6489   -1.2306   -0.4238 C   0  0  0  0  0  0  0  0  0  0  0  0
   15.4021   -1.8242    0.7793 C   0  0  0  0  0  0  0  0  0  0  0  0
   14.1947   -1.7071    1.4311 C   0  0  0  0  0  0  0  0  0  0  0  0
   13.1779   -0.9657    0.8663 C   0  0  0  0  0  0  0  0  0  0  0  0
   13.4007   -0.3560   -0.3477 C   0  0  0  0  0  0  0  0  0  0  0  0
   -0.7880   -1.1714    1.5549 C   0  0  0  0  0  0  0  0  0  0  0  0
   -0.3650    0.2596    1.7141 C   0  0  0  0  0  0  0  0  0  0  0  0
   -0.5997   -1.9864    2.8107 C   0  0  0  0  0  0  0  0  0  0  0  0
   -2.2668   -1.1927    1.1969 C   0  0  0  0  0  0  0  0  0  0  0  0
   -2.7255   -2.4680    0.9405 O   0  0  0  0  0  0  0  0  0  0  0  0
   -4.3725   -2.4524    0.4849 P   0  0  0  0  0  0  0  0  0  0  0  0
   -4.6427   -3.8456   -0.4340 O   0  0  0  0  0  0  0  0  0  0  0  0
   -5.1777   -2.5611    1.7557 O   0  0  0  0  0  0  0  0  0  0  0  0
   -4.6921   -1.0360   -0.3426 O   0  0  0  0  0  0  0  0  0  0  0  0
   -5.2255   -1.2803   -1.9181 P   0  0  0  0  0  0  0  0  0  0  0  0
   -4.4918   -2.6650   -2.5945 O   0  0  0  0  0  0  0  0  0  0  0  0
   -4.6874   -0.1067   -2.7416 O   0  0  0  0  0  0  0  0  0  0  0  0
   -6.8922   -1.3582   -2.0632 O   0  0  0  0  0  0  0  0  0  0  0  0
   -7.5583   -0.8137   -0.9512 C   0  0  0  0  0  0  0  0  0  0  0  0
   -9.0398   -0.9541   -1.2667 C   0  0  1  0  0  0  0  0  0  0  0  0
   -9.7400   -0.4291   -0.1955 O   0  0  0  0  0  0  0  0  0  0  0  0
  -10.8353    0.2507   -0.7177 C   0  0  1  0  0  0  0  0  0  0  0  0
  -11.4112    1.1309    0.2610 N   0  0  0  0  0  0  0  0  0  0  0  0
  -10.9231    2.3288    0.6344 C   0  0  0  0  0  0  0  0  0  0  0  0
  -11.7518    2.8496    1.5828 N   0  0  0  0  0  0  0  0  0  0  0  0
  -12.7455    1.9921    1.8023 C   0  0  0  0  0  0  0  0  0  0  0  0
  -13.8644    1.9234    2.6047 C   0  0  0  0  0  0  0  0  0  0  0  0
  -14.0853    3.0506    3.4703 N   0  0  0  0  0  0  0  0  0  0  0  0
  -14.7330    0.9150    2.6360 N   0  0  0  0  0  0  0  0  0  0  0  0
  -14.4814   -0.1264    1.8009 C   0  0  0  0  0  0  0  0  0  0  0  0
  -13.4017   -0.1293    0.9837 N   0  0  0  0  0  0  0  0  0  0  0  0
  -12.5319    0.9121    0.9719 C   0  0  0  0  0  0  0  0  0  0  0  0
  -10.2021    0.9737   -1.8888 C   0  0  2  0  0  0  0  0  0  0  0  0
  -11.1696    1.4350   -2.7762 O   0  0  0  0  0  0  0  0  0  0  0  0
   -9.3448   -0.1335   -2.4691 C   0  0  2  0  0  0  0  0  0  0  0  0
  -10.1027   -0.7672   -3.4421 O   0  0  0  0  0  0  0  0  0  0  0  0
   -9.3923   -0.7192   -4.9645 P   0  0  0  0  0  0  0  0  0  0  0  0
   -9.7377   -2.1141   -5.8699 O   0  0  0  0  0  0  0  0  0  0  0  0
   -7.7316   -0.4213   -4.9032 O   0  0  0  0  0  0  0  0  0  0  0  0
   -9.9962    0.4471   -5.7149 O   0  0  0  0  0  0  0  0  0  0  0  0
   -0.2845   -2.8094    0.2050 H   0  0  0  0  0  0  0  0  0  0  0  0
    0.1501   -1.3072   -1.4917 H   0  0  0  0  0  0  0  0  0  0  0  0
    3.1896   -1.6446   -0.5418 H   0  0  0  0  0  0  0  0  0  0  0  0
    3.8657   -1.9096    1.3580 H   0  0  0  0  0  0  0  0  0  0  0  0
    3.5880   -1.2452    2.9732 H   0  0  0  0  0  0  0  0  0  0  0  0
    3.5469    0.4953    0.4771 H   0  0  0  0  0  0  0  0  0  0  0  0
    3.3541    1.0145    2.1591 H   0  0  0  0  0  0  0  0  0  0  0  0
    6.6471   -0.1313    3.3062 H   0  0  0  0  0  0  0  0  0  0  0  0
    5.0336    1.3194   -0.6535 H   0  0  0  0  0  0  0  0  0  0  0  0
    5.9771   -0.1427   -1.0860 H   0  0  0  0  0  0  0  0  0  0  0  0
    6.9545    1.8523   -2.1636 H   0  0  0  0  0  0  0  0  0  0  0  0
    8.0731    1.1816   -0.9288 H   0  0  0  0  0  0  0  0  0  0  0  0
    7.2096    2.4310    2.1111 H   0  0  0  0  0  0  0  0  0  0  0  0
    7.8047    4.0956    1.9642 H   0  0  0  0  0  0  0  0  0  0  0  0
   10.6587    1.8522    2.8326 H   0  0  0  0  0  0  0  0  0  0  0  0
   11.6157    1.6216    1.0796 H   0  0  0  0  0  0  0  0  0  0  0  0
   11.8142    2.8255   -0.2357 H   0  0  0  0  0  0  0  0  0  0  0  0
   10.5792    0.0202   -0.5052 H   0  0  0  0  0  0  0  0  0  0  0  0
   10.7376    1.2227   -1.8429 H   0  0  0  0  0  0  0  0  0  0  0  0
   12.9812    1.3635   -3.0282 H   0  0  0  0  0  0  0  0  0  0  0  0
   15.3057    0.3377   -2.8969 H   0  0  0  0  0  0  0  0  0  0  0  0
   16.5873   -1.2841   -0.9950 H   0  0  0  0  0  0  0  0  0  0  0  0
   16.2508   -2.3911    1.1609 H   0  0  0  0  0  0  0  0  0  0  0  0
   14.0810   -2.2139    2.3897 H   0  0  0  0  0  0  0  0  0  0  0  0
   12.2293   -0.8662    1.3659 H   0  0  0  0  0  0  0  0  0  0  0  0
   -0.0221    0.4820    2.7663 H   0  0  0  0  0  0  0  0  0  0  0  0
   -1.2026    0.9629    1.4766 H   0  0  0  0  0  0  0  0  0  0  0  0
    0.4472    0.5447    0.9883 H   0  0  0  0  0  0  0  0  0  0  0  0
    0.2049   -1.5292    3.4561 H   0  0  0  0  0  0  0  0  0  0  0  0
   -1.5067   -2.0165    3.4425 H   0  0  0  0  0  0  0  0  0  0  0  0
   -0.3541   -3.0331    2.5240 H   0  0  0  0  0  0  0  0  0  0  0  0
   -2.8077   -0.7973    2.0940 H   0  0  0  0  0  0  0  0  0  0  0  0
   -2.4783   -0.5306    0.3365 H   0  0  0  0  0  0  0  0  0  0  0  0
   -3.8293   -4.1681   -0.8761 H   0  0  0  0  0  0  0  0  0  0  0  0
   -4.6899   -2.7048   -3.5631 H   0  0  0  0  0  0  0  0  0  0  0  0
   -7.2540   -1.3974   -0.0638 H   0  0  0  0  0  0  0  0  0  0  0  0
   -7.2406    0.2367   -0.8796 H   0  0  0  0  0  0  0  0  0  0  0  0
   -9.2293   -2.0364   -1.3967 H   0  0  0  0  0  0  0  0  0  0  0  0
  -11.5761   -0.4572   -1.1512 H   0  0  0  0  0  0  0  0  0  0  0  0
  -10.0345    2.8308    0.2747 H   0  0  0  0  0  0  0  0  0  0  0  0
  -14.9128    3.5904    3.7967 H   0  0  0  0  0  0  0  0  0  0  0  0
  -13.3791    3.6210    4.0083 H   0  0  0  0  0  0  0  0  0  0  0  0
  -15.1765   -0.9695    1.8039 H   0  0  0  0  0  0  0  0  0  0  0  0
   -9.5845    1.7946   -1.4706 H   0  0  0  0  0  0  0  0  0  0  0  0
  -11.4755    2.3067   -2.4242 H   0  0  0  0  0  0  0  0  0  0  0  0
   -8.4037    0.2915   -2.9248 H   0  0  0  0  0  0  0  0  0  0  0  0
  -10.4075   -2.6879   -5.4352 H   0  0  0  0  0  0  0  0  0  0  0  0
   -7.2930   -0.9753   -5.5678 H   0  0  0  0  0  0  0  0  0  0  0  0
  1  2  1  0
  1  3  1  0
  3  4  1  0
  3  5  2  3
  5  6  1  0
  6  7  1  0
  7  8  1  0
  8  9  1  0
  8 10  2  3
 10 11  1  0
 11 12  1  0
 12 13  1  0
 13 14  1  0
 14 15  1  0
 15 16  1  0
 15 17  2  3
 17 18  1  0
 18 19  1  0
 19 20  1  0
 20 21  2  0
 21 22  1  0
 22 23  1  0
 23 24  2  0
 24 25  1  0
 25 26  2  0
 26 27  1  0
 27 28  2  0
  1 29  1  0
 29 30  1  0
 29 31  1  0
 29 32  1  0
 32 33  1  0
 33 34  1  0
 34 35  1  0
 34 36  2  0
 34 37  1  0
 37 38  1  0
 38 39  1  0
 38 40  2  0
 38 41  1  0
 41 42  1  0
 42 43  1  0
 43 44  1  0
 44 45  1  0
 45 46  1  0
 46 47  1  0
 47 48  2  0
 48 49  1  0
 49 50  2  0
 50 51  1  0
 50 52  1  0
 52 53  2  0
 53 54  1  0
 54 55  2  0
 45 56  1  0
 56 57  1  0
 56 58  1  0
 58 59  1  0
 59 60  1  0
 60 61  1  0
 60 62  1  0
 60 63  2  0
 28 20  1  0
 58 43  1  0
 28 23  1  0
 55 46  1  0
 55 49  1  0
  1 64  1  6
  2 65  1  0
  4 66  1  0
  6 67  1  0
  6 68  1  0
  7 69  1  0
  7 70  1  0
  9 71  1  0
 11 72  1  0
 11 73  1  0
 12 74  1  0
 12 75  1  0
 14 76  1  0
 14 77  1  0
 16 78  1  0
 18 79  1  0
 18 80  1  0
 19 81  1  0
 19 82  1  0
 21 83  1  0
 22 84  1  0
 24 85  1  0
 25 86  1  0
 26 87  1  0
 27 88  1  0
 30 89  1  0
 30 90  1  0
 30 91  1  0
 31 92  1  0
 31 93  1  0
 31 94  1  0
 32 95  1  0
 32 96  1  0
 35 97  1  0
 39 98  1  0
 42 99  1  0
 42100  1  0
 43101  1  6
 45102  1  6
 47103  1  0
 51104  1  0
 51105  1  0
 53106  1  0
 56107  1  1
 57108  1  0
 58109  1  6
 61110  1  0
 62111  1  0
M  END
$$$$
