
     RDKit          3D

 46 49  0  0  0  0  0  0  0  0999 V2000
   -5.0254    1.9141    2.0709 N   0  0  0  0  0  0  0  0  0  0  0  0
   -4.2412    1.3489    0.9899 C   0  0  0  0  0  0  0  0  0  0  0  0
   -3.5435    0.3224    1.1250 N   0  0  0  0  0  0  0  0  0  0  0  0
   -2.7380   -0.3362    0.1826 C   0  0  2  0  0  0  0  0  0  0  0  0
   -2.9590   -1.7924   -0.0930 C   0  0  0  0  0  0  0  0  0  0  0  0
   -2.8162   -2.6189    0.9951 F   0  0  0  0  0  0  0  0  0  0  0  0
   -1.3004   -0.2659    0.6774 C   0  0  0  0  0  0  0  0  0  0  0  0
   -0.2583    0.1875   -0.0518 C   0  0  0  0  0  0  0  0  0  0  0  0
    1.0326    0.1247    0.4778 C   0  0  0  0  0  0  0  0  0  0  0  0
    2.1208    0.6416   -0.3039 N   0  0  0  0  0  0  0  0  0  0  0  0
    3.1747   -0.2431   -0.5975 C   0  0  0  0  0  0  0  0  0  0  0  0
    2.8458   -1.4943   -0.9994 N   0  0  0  0  0  0  0  0  0  0  0  0
    3.8268   -2.3579   -1.2805 C   0  0  0  0  0  0  0  0  0  0  0  0
    5.0974   -1.9833   -1.1623 N   0  0  0  0  0  0  0  0  0  0  0  0
    5.4828   -0.7393   -0.7617 C   0  0  0  0  0  0  0  0  0  0  0  0
    6.8054   -0.4006   -0.6483 C   0  0  0  0  0  0  0  0  0  0  0  0
    7.1421    0.8596   -0.2362 C   0  0  0  0  0  0  0  0  0  0  0  0
    8.8222    1.3409   -0.0717 Cl  0  0  0  0  0  0  0  0  0  0  0  0
    6.1101    1.7477    0.0524 C   0  0  0  0  0  0  0  0  0  0  0  0
    4.8120    1.4008   -0.0644 N   0  0  0  0  0  0  0  0  0  0  0  0
    4.4770    0.1738   -0.4662 C   0  0  0  0  0  0  0  0  0  0  0  0
    1.2690   -0.3855    1.7197 C   0  0  0  0  0  0  0  0  0  0  0  0
    0.2275   -0.8498    2.4770 C   0  0  0  0  0  0  0  0  0  0  0  0
   -1.0447   -0.7825    1.9444 C   0  0  0  0  0  0  0  0  0  0  0  0
   -2.0449   -1.2215    2.7740 F   0  0  0  0  0  0  0  0  0  0  0  0
   -2.8344    0.4312   -1.1369 C   0  0  0  0  0  0  0  0  0  0  0  0
   -4.1272    1.1164   -1.3762 C   0  0  1  0  0  0  0  0  0  0  0  0
   -5.3687    0.3247   -1.4639 C   0  0  0  0  0  0  0  0  0  0  0  0
   -5.7175   -0.3821   -0.3322 F   0  0  0  0  0  0  0  0  0  0  0  0
   -6.4448    1.1951   -1.7062 F   0  0  0  0  0  0  0  0  0  0  0  0
   -5.3879   -0.5489   -2.5458 F   0  0  0  0  0  0  0  0  0  0  0  0
   -4.2990    2.0124   -0.2378 O   0  0  0  0  0  0  0  0  0  0  0  0
   -5.8697    2.4656    1.8991 H   0  0  0  0  0  0  0  0  0  0  0  0
   -4.6960    1.7382    3.0285 H   0  0  0  0  0  0  0  0  0  0  0  0
   -2.0586   -2.0838   -0.7611 H   0  0  0  0  0  0  0  0  0  0  0  0
   -3.8662   -2.0731   -0.6161 H   0  0  0  0  0  0  0  0  0  0  0  0
   -0.4086    0.5743   -1.0378 H   0  0  0  0  0  0  0  0  0  0  0  0
    2.1106    1.6276   -0.6324 H   0  0  0  0  0  0  0  0  0  0  0  0
    3.5605   -3.3667   -1.6075 H   0  0  0  0  0  0  0  0  0  0  0  0
    7.5721   -1.1162   -0.8817 H   0  0  0  0  0  0  0  0  0  0  0  0
    6.3854    2.7337    0.3757 H   0  0  0  0  0  0  0  0  0  0  0  0
    2.3076   -0.4080    2.0793 H   0  0  0  0  0  0  0  0  0  0  0  0
    0.4257   -1.2459    3.4556 H   0  0  0  0  0  0  0  0  0  0  0  0
   -2.0973    1.2992   -0.9841 H   0  0  0  0  0  0  0  0  0  0  0  0
   -2.4459   -0.1278   -1.9969 H   0  0  0  0  0  0  0  0  0  0  0  0
   -4.0149    1.7565   -2.2710 H   0  0  0  0  0  0  0  0  0  0  0  0
  1  2  1  0
  2  3  2  0
  3  4  1  0
  4  5  1  6
  5  6  1  0
  4  7  1  0
  7  8  2  0
  8  9  1  0
  9 10  1  0
 10 11  1  0
 11 12  2  0
 12 13  1  0
 13 14  2  0
 14 15  1  0
 15 16  2  0
 16 17  1  0
 17 18  1  0
 17 19  2  0
 19 20  1  0
 20 21  2  0
  9 22  2  0
 22 23  1  0
 23 24  2  0
 24 25  1  0
  4 26  1  0
 26 27  1  0
 27 28  1  0
 28 29  1  0
 28 30  1  0
 28 31  1  0
 27 32  1  0
 32  2  1  0
 24  7  1  0
 21 11  1  0
 21 15  1  0
  1 33  1  0
  1 34  1  0
  5 35  1  0
  5 36  1  0
  8 37  1  0
 10 38  1  0
 13 39  1  0
 16 40  1  0
 19 41  1  0
 22 42  1  0
 23 43  1  0
 26 44  1  0
 26 45  1  0
 27 46  1  6
M  END
$$$$
