
     RDKit          3D

 47 48  0  0  0  0  0  0  0  0999 V2000
    7.2330   -2.0515   -2.8400 C   0  0  0  0  0  0  0  0  0  0  0  0
    7.5384   -1.6461   -1.5088 O   0  0  0  0  0  0  0  0  0  0  0  0
    6.5353   -1.1599   -0.6863 C   0  0  0  0  0  0  0  0  0  0  0  0
    5.2469   -1.0633   -1.1407 C   0  0  0  0  0  0  0  0  0  0  0  0
    4.1855   -0.5736   -0.3402 C   0  0  0  0  0  0  0  0  0  0  0  0
    2.8511   -0.5116   -0.8638 C   0  0  0  0  0  0  0  0  0  0  0  0
    1.7131   -0.1064   -0.4834 C   0  0  0  0  0  0  0  0  0  0  0  0
    1.1061    0.5043    0.6411 C   0  0  0  0  0  0  0  0  0  0  0  0
    1.6424    0.8451    1.6838 O   0  0  0  0  0  0  0  0  0  0  0  0
   -0.3935    0.7745    0.5550 C   0  0  0  0  0  0  0  0  0  0  0  0
   -0.9088    1.4207    1.7552 C   0  0  0  0  0  0  0  0  0  0  0  0
    0.0448    1.8021    2.5918 O   0  0  0  0  0  0  0  0  0  0  0  0
   -2.2459    1.6771    2.1245 C   0  0  0  0  0  0  0  0  0  0  0  0
   -3.4076    1.5133    1.6859 C   0  0  0  0  0  0  0  0  0  0  0  0
   -4.1463    0.9881    0.5720 C   0  0  0  0  0  0  0  0  0  0  0  0
   -3.6036    0.6339   -0.6364 C   0  0  0  0  0  0  0  0  0  0  0  0
   -4.3921    0.0566   -1.6418 C   0  0  0  0  0  0  0  0  0  0  0  0
   -5.7192   -0.1755   -1.4682 C   0  0  0  0  0  0  0  0  0  0  0  0
   -6.4692   -0.7434   -2.4716 O   0  0  0  0  0  0  0  0  0  0  0  0
   -6.3015    0.1627   -0.2825 C   0  0  0  0  0  0  0  0  0  0  0  0
   -7.6456   -0.0304   -0.0039 O   0  0  0  0  0  0  0  0  0  0  0  0
   -8.2445    0.3198    1.2134 C   0  0  0  0  0  0  0  0  0  0  0  0
   -5.5350    0.7285    0.7083 C   0  0  0  0  0  0  0  0  0  0  0  0
    4.5517   -0.2073    0.9176 C   0  0  0  0  0  0  0  0  0  0  0  0
    5.8647   -0.3031    1.3882 C   0  0  0  0  0  0  0  0  0  0  0  0
    6.8468   -0.7768    0.5881 C   0  0  0  0  0  0  0  0  0  0  0  0
    8.1633   -0.8688    1.0715 O   0  0  0  0  0  0  0  0  0  0  0  0
    8.1058   -2.5017   -3.3082 H   0  0  0  0  0  0  0  0  0  0  0  0
    6.4109   -2.8025   -2.7459 H   0  0  0  0  0  0  0  0  0  0  0  0
    6.8212   -1.1801   -3.3819 H   0  0  0  0  0  0  0  0  0  0  0  0
    5.0069   -1.3672   -2.1521 H   0  0  0  0  0  0  0  0  0  0  0  0
    2.8109   -0.9701   -1.9475 H   0  0  0  0  0  0  0  0  0  0  0  0
    0.9133   -0.2961   -1.3240 H   0  0  0  0  0  0  0  0  0  0  0  0
   -0.9116   -0.1763    0.3699 H   0  0  0  0  0  0  0  0  0  0  0  0
   -0.5483    1.4825   -0.3001 H   0  0  0  0  0  0  0  0  0  0  0  0
   -2.2361    2.2161    3.1931 H   0  0  0  0  0  0  0  0  0  0  0  0
   -4.1936    1.9824    2.4552 H   0  0  0  0  0  0  0  0  0  0  0  0
   -2.5940    0.8003   -0.8892 H   0  0  0  0  0  0  0  0  0  0  0  0
   -3.9366   -0.2146   -2.5845 H   0  0  0  0  0  0  0  0  0  0  0  0
   -7.4574   -0.6471   -2.5826 H   0  0  0  0  0  0  0  0  0  0  0  0
   -7.9684    1.3938    1.4184 H   0  0  0  0  0  0  0  0  0  0  0  0
   -7.7924   -0.2508    2.0735 H   0  0  0  0  0  0  0  0  0  0  0  0
   -9.3340    0.2709    1.2011 H   0  0  0  0  0  0  0  0  0  0  0  0
   -5.9680    1.0034    1.6618 H   0  0  0  0  0  0  0  0  0  0  0  0
    3.8705    0.1698    1.6384 H   0  0  0  0  0  0  0  0  0  0  0  0
    6.1209    0.0003    2.4046 H   0  0  0  0  0  0  0  0  0  0  0  0
    8.3698   -1.6739    1.6713 H   0  0  0  0  0  0  0  0  0  0  0  0
  1  2  1  0
  2  3  1  0
  3  4  2  0
  4  5  1  0
  5  6  1  0
  6  7  2  3
  7  8  1  0
  8  9  2  0
  8 10  1  0
 10 11  1  0
 11 12  2  0
 11 13  1  0
 13 14  2  3
 14 15  1  0
 15 16  2  0
 16 17  1  0
 17 18  2  0
 18 19  1  0
 18 20  1  0
 20 21  1  0
 21 22  1  0
 20 23  2  0
  5 24  2  0
 24 25  1  0
 25 26  2  0
 26 27  1  0
 26  3  1  0
 23 15  1  0
  1 28  1  0
  1 29  1  0
  1 30  1  0
  4 31  1  0
  6 32  1  0
  7 33  1  0
 10 34  1  0
 10 35  1  0
 13 36  1  0
 14 37  1  0
 16 38  1  0
 17 39  1  0
 19 40  1  0
 22 41  1  0
 22 42  1  0
 22 43  1  0
 23 44  1  0
 24 45  1  0
 25 46  1  0
 27 47  1  0
M  END
$$$$
