
     RDKit          3D

 43 47  0  0  0  0  0  0  0  0999 V2000
    7.9830   -0.2041   -0.6219 C   0  0  0  0  0  0  0  0  0  0  0  0
    7.0945    0.8029   -0.2218 O   0  0  0  0  0  0  0  0  0  0  0  0
    5.7288    0.5938   -0.0605 C   0  0  0  0  0  0  0  0  0  0  0  0
    4.9618    1.6842    0.3421 C   0  0  0  0  0  0  0  0  0  0  0  0
    3.6012    1.5154    0.5130 C   0  0  0  0  0  0  0  0  0  0  0  0
    2.9668    0.3101    0.3018 C   0  0  0  0  0  0  0  0  0  0  0  0
    1.5220    0.1341    0.4837 C   0  0  0  0  0  0  0  0  0  0  0  0
    0.6211    1.1432    0.2461 C   0  0  0  0  0  0  0  0  0  0  0  0
   -0.6870    0.8929    0.4403 N   0  0  0  0  0  0  0  0  0  0  0  0
   -1.1237   -0.3124    0.8578 C   0  0  0  0  0  0  0  0  0  0  0  0
   -2.3873   -0.8106    1.1267 C   0  0  0  0  0  0  0  0  0  0  0  0
   -3.6142   -0.0693    1.0010 C   0  0  0  0  0  0  0  0  0  0  0  0
   -4.0994    0.6456    2.0609 C   0  0  0  0  0  0  0  0  0  0  0  0
   -5.2915    1.3753    1.9602 C   0  0  0  0  0  0  0  0  0  0  0  0
   -5.9537    1.3447    0.7553 C   0  0  0  0  0  0  0  0  0  0  0  0
   -5.4956    0.6321   -0.3446 C   0  0  0  0  0  0  0  0  0  0  0  0
   -6.1783    0.6306   -1.5056 N   0  0  0  0  0  0  0  0  0  0  0  0
   -5.7379   -0.0576   -2.5692 C   0  0  0  0  0  0  0  0  0  0  0  0
   -4.5671   -0.7678   -2.4524 C   0  0  0  0  0  0  0  0  0  0  0  0
   -3.8556   -0.7796   -1.2780 C   0  0  0  0  0  0  0  0  0  0  0  0
   -4.3083   -0.0692   -0.1770 C   0  0  0  0  0  0  0  0  0  0  0  0
   -2.2623   -2.1357    1.5325 C   0  0  0  0  0  0  0  0  0  0  0  0
   -0.9471   -2.3961    1.4978 N   0  0  0  0  0  0  0  0  0  0  0  0
   -0.2722   -1.3218    1.1000 N   0  0  0  0  0  0  0  0  0  0  0  0
    1.0357   -1.0829    0.9094 C   0  0  0  0  0  0  0  0  0  0  0  0
    3.7460   -0.7563   -0.0965 C   0  0  0  0  0  0  0  0  0  0  0  0
    5.1215   -0.6243   -0.2793 C   0  0  0  0  0  0  0  0  0  0  0  0
    8.9664    0.2775   -0.8035 H   0  0  0  0  0  0  0  0  0  0  0  0
    7.6808   -0.7291   -1.5398 H   0  0  0  0  0  0  0  0  0  0  0  0
    8.1180   -0.9407    0.2184 H   0  0  0  0  0  0  0  0  0  0  0  0
    5.4620    2.6441    0.5102 H   0  0  0  0  0  0  0  0  0  0  0  0
    3.0291    2.3724    0.8251 H   0  0  0  0  0  0  0  0  0  0  0  0
    1.0017    2.0972   -0.0879 H   0  0  0  0  0  0  0  0  0  0  0  0
   -3.5998    0.6925    3.0305 H   0  0  0  0  0  0  0  0  0  0  0  0
   -5.6485    1.9327    2.8244 H   0  0  0  0  0  0  0  0  0  0  0  0
   -6.8681    1.8987    0.6652 H   0  0  0  0  0  0  0  0  0  0  0  0
   -6.3059   -0.0506   -3.5150 H   0  0  0  0  0  0  0  0  0  0  0  0
   -4.2066   -1.3240   -3.3007 H   0  0  0  0  0  0  0  0  0  0  0  0
   -2.9231   -1.3341   -1.1555 H   0  0  0  0  0  0  0  0  0  0  0  0
   -3.0841   -2.8042    1.8156 H   0  0  0  0  0  0  0  0  0  0  0  0
    1.7366   -1.9030    1.1051 H   0  0  0  0  0  0  0  0  0  0  0  0
    3.2858   -1.7025   -0.2690 H   0  0  0  0  0  0  0  0  0  0  0  0
    5.7545   -1.4439   -0.5907 H   0  0  0  0  0  0  0  0  0  0  0  0
  1  2  1  0
  2  3  1  0
  3  4  2  0
  4  5  1  0
  5  6  2  0
  6  7  1  0
  7  8  1  0
  8  9  2  0
  9 10  1  0
 10 11  2  0
 11 12  1  0
 12 13  2  0
 13 14  1  0
 14 15  2  0
 15 16  1  0
 16 17  2  0
 17 18  1  0
 18 19  2  0
 19 20  1  0
 20 21  2  0
 11 22  1  0
 22 23  2  0
 23 24  1  0
 24 25  1  0
  6 26  1  0
 26 27  2  0
 27  3  1  0
 25  7  2  0
 24 10  1  0
 21 12  1  0
 21 16  1  0
  1 28  1  0
  1 29  1  0
  1 30  1  0
  4 31  1  0
  5 32  1  0
  8 33  1  0
 13 34  1  0
 14 35  1  0
 15 36  1  0
 18 37  1  0
 19 38  1  0
 20 39  1  0
 22 40  1  0
 25 41  1  0
 26 42  1  0
 27 43  1  0
M  END
$$$$
