
     RDKit          3D

 55 57  0  0  0  0  0  0  0  0999 V2000
   -3.0130   -1.4470    0.2331 C   0  0  2  0  0  0  0  0  0  0  0  0
   -3.5176   -0.3575    1.1065 C   0  0  0  0  0  0  0  0  0  0  0  0
   -2.4122    0.3658    1.5829 O   0  0  0  0  0  0  0  0  0  0  0  0
   -2.2918   -0.8452   -0.8701 N   0  0  0  0  0  0  0  0  0  0  0  0
   -1.1158   -0.0534   -0.8315 C   0  0  0  0  0  0  0  0  0  0  0  0
   -1.1442    1.2644   -0.5576 N   0  0  0  0  0  0  0  0  0  0  0  0
   -0.0209    1.9829   -0.5386 C   0  0  0  0  0  0  0  0  0  0  0  0
    1.1768    1.3119   -0.8136 C   0  0  0  0  0  0  0  0  0  0  0  0
    2.1334    2.2311   -0.7316 N   0  0  0  0  0  0  0  0  0  0  0  0
    1.5579    3.4041   -0.4231 C   0  0  0  0  0  0  0  0  0  0  0  0
    0.2118    3.2831   -0.2955 N   0  0  0  0  0  0  0  0  0  0  0  0
   -0.7290    4.3223    0.0273 C   0  0  0  0  0  0  0  0  0  0  0  0
   -1.9557    4.3005   -0.8601 C   0  0  0  0  0  0  0  0  0  0  0  0
   -1.1146    4.3399    1.4966 C   0  0  0  0  0  0  0  0  0  0  0  0
    1.2211   -0.0587   -1.1011 C   0  0  0  0  0  0  0  0  0  0  0  0
    2.5077   -0.5944   -1.3668 N   0  0  0  0  0  0  0  0  0  0  0  0
    3.5801   -1.1655   -0.6731 C   0  0  0  0  0  0  0  0  0  0  0  0
    3.5185   -1.4530    0.6689 C   0  0  0  0  0  0  0  0  0  0  0  0
    4.6684   -2.0038    1.2148 C   0  0  0  0  0  0  0  0  0  0  0  0
    5.8099   -2.2524    0.4678 C   0  0  0  0  0  0  0  0  0  0  0  0
    6.9164   -2.8355    1.2548 C   0  0  0  0  0  0  0  0  0  0  0  0
    8.0565   -3.0487    0.4624 O   0  0  0  0  0  0  0  0  0  0  0  0
    6.9848   -3.1489    2.4488 O   0  0  0  0  0  0  0  0  0  0  0  0
    5.8094   -1.9441   -0.8651 C   0  0  0  0  0  0  0  0  0  0  0  0
    7.2819   -2.2871   -1.7316 Cl  0  0  0  0  0  0  0  0  0  0  0  0
    4.7014   -1.3997   -1.4520 C   0  0  0  0  0  0  0  0  0  0  0  0
    0.0342   -0.7337   -1.1035 N   0  0  0  0  0  0  0  0  0  0  0  0
   -4.0634   -2.4041   -0.2618 C   0  0  0  0  0  0  0  0  0  0  0  0
   -5.1209   -1.6926   -1.0873 C   0  0  0  0  0  0  0  0  0  0  0  0
   -4.7422   -3.1570    0.8300 C   0  0  0  0  0  0  0  0  0  0  0  0
   -2.2994   -2.0684    0.8418 H   0  0  0  0  0  0  0  0  0  0  0  0
   -4.0842   -0.6891    1.9900 H   0  0  0  0  0  0  0  0  0  0  0  0
   -4.0883    0.3847    0.4921 H   0  0  0  0  0  0  0  0  0  0  0  0
   -2.1985    0.0770    2.5191 H   0  0  0  0  0  0  0  0  0  0  0  0
   -2.6556   -0.9925   -1.8302 H   0  0  0  0  0  0  0  0  0  0  0  0
    2.1630    4.2874   -0.3085 H   0  0  0  0  0  0  0  0  0  0  0  0
   -0.2260    5.2984   -0.1497 H   0  0  0  0  0  0  0  0  0  0  0  0
   -2.1420    3.2874   -1.2887 H   0  0  0  0  0  0  0  0  0  0  0  0
   -1.8619    4.9977   -1.7175 H   0  0  0  0  0  0  0  0  0  0  0  0
   -2.8032    4.6609   -0.2446 H   0  0  0  0  0  0  0  0  0  0  0  0
   -1.7165    5.2878    1.6130 H   0  0  0  0  0  0  0  0  0  0  0  0
   -0.1895    4.5422    2.0779 H   0  0  0  0  0  0  0  0  0  0  0  0
   -1.6540    3.4363    1.8049 H   0  0  0  0  0  0  0  0  0  0  0  0
    2.4507   -0.4358   -2.3817 H   0  0  0  0  0  0  0  0  0  0  0  0
    2.6170   -1.2551    1.2457 H   0  0  0  0  0  0  0  0  0  0  0  0
    4.6031   -2.2259    2.2785 H   0  0  0  0  0  0  0  0  0  0  0  0
    8.9041   -3.3461    0.9090 H   0  0  0  0  0  0  0  0  0  0  0  0
    4.7713   -1.1786   -2.5119 H   0  0  0  0  0  0  0  0  0  0  0  0
   -3.6018   -3.1502   -0.9586 H   0  0  0  0  0  0  0  0  0  0  0  0
   -5.9902   -2.3754   -1.2477 H   0  0  0  0  0  0  0  0  0  0  0  0
   -4.6673   -1.4867   -2.0822 H   0  0  0  0  0  0  0  0  0  0  0  0
   -5.4315   -0.7929   -0.5482 H   0  0  0  0  0  0  0  0  0  0  0  0
   -5.7141   -2.6741    1.1203 H   0  0  0  0  0  0  0  0  0  0  0  0
   -4.0834   -3.3583    1.7029 H   0  0  0  0  0  0  0  0  0  0  0  0
   -5.0309   -4.1544    0.4442 H   0  0  0  0  0  0  0  0  0  0  0  0
  1  2  1  0
  2  3  1  0
  1  4  1  0
  4  5  1  0
  5  6  2  0
  6  7  1  0
  7  8  2  0
  8  9  1  0
  9 10  2  0
 10 11  1  0
 11 12  1  0
 12 13  1  0
 12 14  1  0
  8 15  1  0
 15 16  1  0
 16 17  1  0
 17 18  2  0
 18 19  1  0
 19 20  2  0
 20 21  1  0
 21 22  1  0
 21 23  2  0
 20 24  1  0
 24 25  1  0
 24 26  2  0
 15 27  2  0
  1 28  1  0
 28 29  1  0
 28 30  1  0
 27  5  1  0
 11  7  1  0
 26 17  1  0
  1 31  1  1
  2 32  1  0
  2 33  1  0
  3 34  1  0
  4 35  1  0
 10 36  1  0
 12 37  1  0
 13 38  1  0
 13 39  1  0
 13 40  1  0
 14 41  1  0
 14 42  1  0
 14 43  1  0
 16 44  1  0
 18 45  1  0
 19 46  1  0
 22 47  1  0
 26 48  1  0
 28 49  1  0
 29 50  1  0
 29 51  1  0
 29 52  1  0
 30 53  1  0
 30 54  1  0
 30 55  1  0
M  END
$$$$
