
     RDKit          3D

212212  0  0  0  0  0  0  0  0999 V2000
    6.6991   -6.3205   -3.7234 C   0  0  0  0  0  0  0  0  0  0  0  0
    5.2704   -6.4597   -3.4587 C   0  0  0  0  0  0  0  0  0  0  0  0
    4.7714   -7.3986   -2.6457 C   0  0  0  0  0  0  0  0  0  0  0  0
    3.3176   -7.4876   -2.4164 C   0  0  0  0  0  0  0  0  0  0  0  0
    2.8942   -7.4016   -1.0031 C   0  0  1  0  0  0  0  0  0  0  0  0
    3.6354   -8.6299   -0.3393 C   0  0  0  0  0  0  0  0  0  0  0  0
    3.2489   -6.2061   -0.2271 C   0  0  1  0  0  0  0  0  0  0  0  0
    4.6173   -6.0691   -0.1098 O   0  0  0  0  0  0  0  0  0  0  0  0
    2.6562   -4.8733   -0.7572 C   0  0  1  0  0  0  0  0  0  0  0  0
    1.1962   -4.8642   -0.8294 C   0  0  0  0  0  0  0  0  0  0  0  0
    0.6974   -5.8608   -1.5090 O   0  0  0  0  0  0  0  0  0  0  0  0
    0.0788   -4.1718   -0.4467 N   0  0  0  0  0  0  0  0  0  0  0  0
   -1.3436   -4.4956   -0.6554 C   0  0  1  0  0  0  0  0  0  0  0  0
   -2.0853   -4.4540    0.6247 C   0  0  0  0  0  0  0  0  0  0  0  0
   -1.5980   -5.4343    1.6777 C   0  0  0  0  0  0  0  0  0  0  0  0
   -1.9971   -3.7970   -1.7330 C   0  0  0  0  0  0  0  0  0  0  0  0
   -0.9259   -3.4705   -2.5466 O   0  0  0  0  0  0  0  0  0  0  0  0
   -3.0018   -3.2502   -2.4392 N   0  0  0  0  0  0  0  0  0  0  0  0
   -2.6251   -3.0225   -3.9258 C   0  0  0  0  0  0  0  0  0  0  0  0
   -4.3457   -2.9106   -2.2765 C   0  0  1  0  0  0  0  0  0  0  0  0
   -5.5682   -4.2416   -2.1355 S   0  0  0  0  0  0  0  0  0  0  0  0
   -5.6611   -5.1252   -0.6143 C   0  0  0  0  0  0  0  0  0  0  0  0
   -7.0170   -5.8522   -0.5479 C   0  0  0  0  0  0  0  0  0  0  0  0
   -7.2319   -6.5800    0.6535 N   0  0  0  0  0  0  0  0  0  0  0  0
   -8.5534   -7.1840    0.7134 C   0  0  0  0  0  0  0  0  0  0  0  0
   -6.8431   -5.9523    1.8703 C   0  0  0  0  0  0  0  0  0  0  0  0
   -4.6147   -1.8837   -1.2195 C   0  0  0  0  0  0  0  0  0  0  0  0
   -3.5974   -1.8902   -0.3777 O   0  0  0  0  0  0  0  0  0  0  0  0
   -5.3977   -0.9114   -0.6840 N   0  0  0  0  0  0  0  0  0  0  0  0
   -5.1400   -0.5779    0.7589 C   0  0  0  0  0  0  0  0  0  0  0  0
   -6.5047   -0.1428   -1.1521 C   0  0  1  0  0  0  0  0  0  0  0  0
   -7.7247   -0.9748   -0.5746 C   0  0  0  0  0  0  0  0  0  0  0  0
   -9.0120   -0.4551   -1.0676 C   0  0  0  0  0  0  0  0  0  0  0  0
  -10.1871   -1.2711   -0.4838 C   0  0  0  0  0  0  0  0  0  0  0  0
   -9.1245   -0.5977   -2.6018 C   0  0  0  0  0  0  0  0  0  0  0  0
   -9.2822    0.8460   -0.7829 O   0  0  0  0  0  0  0  0  0  0  0  0
   -6.5615    1.2644   -0.7790 C   0  0  0  0  0  0  0  0  0  0  0  0
   -7.2229    1.9919   -1.6286 O   0  0  0  0  0  0  0  0  0  0  0  0
   -6.1381    2.1569    0.2018 N   0  0  0  0  0  0  0  0  0  0  0  0
   -6.4594    3.6118    0.2232 C   0  0  1  0  0  0  0  0  0  0  0  0
   -7.2661    3.7595    1.5324 C   0  0  0  0  0  0  0  0  0  0  0  0
   -7.6649    5.1859    1.6915 C   0  0  0  0  0  0  0  0  0  0  0  0
   -8.4481    2.8715    1.4911 C   0  0  0  0  0  0  0  0  0  0  0  0
   -5.3131    4.5320    0.3080 C   0  0  0  0  0  0  0  0  0  0  0  0
   -5.7995    5.7654    0.0308 O   0  0  0  0  0  0  0  0  0  0  0  0
   -3.9939    4.8032    0.5356 N   0  0  0  0  0  0  0  0  0  0  0  0
   -2.9768    3.9528    1.0065 C   0  0  0  0  0  0  0  0  0  0  0  0
   -3.4697    6.1779    0.3126 C   0  0  1  0  0  0  0  0  0  0  0  0
   -3.2717    6.7335    1.7366 C   0  0  0  0  0  0  0  0  0  0  0  0
   -2.7496    8.1626    1.6983 C   0  0  0  0  0  0  0  0  0  0  0  0
   -2.5662    8.6648    3.1250 C   0  0  0  0  0  0  0  0  0  0  0  0
   -3.7751    9.0980    1.0596 C   0  0  0  0  0  0  0  0  0  0  0  0
   -2.1909    6.3016   -0.3707 C   0  0  0  0  0  0  0  0  0  0  0  0
   -2.1258    7.3961   -1.1517 O   0  0  0  0  0  0  0  0  0  0  0  0
   -0.9554    5.7069   -0.5291 N   0  0  0  0  0  0  0  0  0  0  0  0
    0.0961    6.1752   -1.4699 C   0  0  1  0  0  0  0  0  0  0  0  0
    1.0950    7.0298   -0.6403 C   0  0  0  0  0  0  0  0  0  0  0  0
    0.9233    5.1283   -2.0683 C   0  0  0  0  0  0  0  0  0  0  0  0
    1.6794    5.6747   -3.0063 O   0  0  0  0  0  0  0  0  0  0  0  0
    1.2018    3.7935   -2.0036 N   0  0  0  0  0  0  0  0  0  0  0  0
    2.1356    3.1419   -2.9616 C   0  0  2  0  0  0  0  0  0  0  0  0
    1.5203    1.8821   -3.4411 C   0  0  0  0  0  0  0  0  0  0  0  0
    3.5147    3.1232   -2.4742 C   0  0  0  0  0  0  0  0  0  0  0  0
    3.5890    3.8711   -1.3836 O   0  0  0  0  0  0  0  0  0  0  0  0
    4.7997    2.6949   -2.6138 N   0  0  0  0  0  0  0  0  0  0  0  0
    5.3632    1.8660   -3.6129 C   0  0  0  0  0  0  0  0  0  0  0  0
    5.8529    3.0906   -1.6333 C   0  0  1  0  0  0  0  0  0  0  0  0
    6.1890    4.5247   -1.7253 C   0  0  0  0  0  0  0  0  0  0  0  0
    7.1987    5.0945   -0.8094 C   0  0  0  0  0  0  0  0  0  0  0  0
    6.9366    5.0463    0.6458 C   0  0  0  0  0  0  0  0  0  0  0  0
    7.4092    6.5689   -1.2124 C   0  0  0  0  0  0  0  0  0  0  0  0
    5.8304    2.4475   -0.3240 C   0  0  0  0  0  0  0  0  0  0  0  0
    7.1110    2.3214    0.1182 O   0  0  0  0  0  0  0  0  0  0  0  0
    5.1797    1.8797    0.7562 N   0  0  0  0  0  0  0  0  0  0  0  0
    3.8164    1.7425    1.0451 C   0  0  0  0  0  0  0  0  0  0  0  0
    5.9342    1.2466    1.9141 C   0  0  1  0  0  0  0  0  0  0  0  0
    5.9468    2.1550    3.1084 C   0  0  0  0  0  0  0  0  0  0  0  0
    6.7760    1.7319    4.2674 C   0  0  0  0  0  0  0  0  0  0  0  0
    6.5550    0.4581    4.9629 C   0  0  0  0  0  0  0  0  0  0  0  0
    8.2729    1.9316    3.9832 C   0  0  0  0  0  0  0  0  0  0  0  0
    5.2601   -0.0359    2.1621 C   0  0  0  0  0  0  0  0  0  0  0  0
    4.4658    0.0130    3.2355 O   0  0  0  0  0  0  0  0  0  0  0  0
    5.0343   -1.3442    1.7663 N   0  0  0  0  0  0  0  0  0  0  0  0
    4.4755   -2.2114    2.8801 C   0  0  0  0  0  0  0  0  0  0  0  0
    5.2057   -2.1053    0.6106 C   0  0  1  0  0  0  0  0  0  0  0  0
    6.6303   -2.7300    0.7490 C   0  0  0  0  0  0  0  0  0  0  0  0
    7.6713   -1.6295    0.8469 C   0  0  0  0  0  0  0  0  0  0  0  0
    6.8185   -3.6912    1.8282 C   0  0  0  0  0  0  0  0  0  0  0  0
    4.2542   -3.0931    0.1497 C   0  0  0  0  0  0  0  0  0  0  0  0
    4.5105   -3.3254   -1.1622 O   0  0  0  0  0  0  0  0  0  0  0  0
    3.2003   -3.9542    0.3181 N   0  0  0  0  0  0  0  0  0  0  0  0
    2.3813   -4.1447    1.4376 C   0  0  0  0  0  0  0  0  0  0  0  0
    6.9329   -5.2966   -4.1385 H   0  0  0  0  0  0  0  0  0  0  0  0
    7.3610   -6.4209   -2.8413 H   0  0  0  0  0  0  0  0  0  0  0  0
    7.0483   -7.0271   -4.5080 H   0  0  0  0  0  0  0  0  0  0  0  0
    4.5779   -5.7710   -3.9248 H   0  0  0  0  0  0  0  0  0  0  0  0
    5.4522   -8.0789   -2.1609 H   0  0  0  0  0  0  0  0  0  0  0  0
    2.9182   -8.4207   -2.9048 H   0  0  0  0  0  0  0  0  0  0  0  0
    2.8449   -6.6211   -2.9852 H   0  0  0  0  0  0  0  0  0  0  0  0
    1.8303   -7.7239   -0.9398 H   0  0  0  0  0  0  0  0  0  0  0  0
    3.5281   -9.4669   -1.0163 H   0  0  0  0  0  0  0  0  0  0  0  0
    4.6756   -8.2706   -0.2492 H   0  0  0  0  0  0  0  0  0  0  0  0
    3.1964   -8.7521    0.6511 H   0  0  0  0  0  0  0  0  0  0  0  0
    2.8773   -6.3677    0.8206 H   0  0  0  0  0  0  0  0  0  0  0  0
    5.1277   -5.8528   -0.8477 H   0  0  0  0  0  0  0  0  0  0  0  0
    3.0983   -4.7851   -1.7126 H   0  0  0  0  0  0  0  0  0  0  0  0
    0.1025   -3.2668    0.0483 H   0  0  0  0  0  0  0  0  0  0  0  0
   -1.3801   -5.5920   -0.9897 H   0  0  0  0  0  0  0  0  0  0  0  0
   -3.1539   -4.5808    0.5587 H   0  0  0  0  0  0  0  0  0  0  0  0
   -1.9105   -3.4407    1.0910 H   0  0  0  0  0  0  0  0  0  0  0  0
   -0.5717   -5.7981    1.4973 H   0  0  0  0  0  0  0  0  0  0  0  0
   -2.2338   -6.3691    1.5779 H   0  0  0  0  0  0  0  0  0  0  0  0
   -1.7428   -5.1020    2.7040 H   0  0  0  0  0  0  0  0  0  0  0  0
   -1.8242   -2.2955   -3.9970 H   0  0  0  0  0  0  0  0  0  0  0  0
   -2.4456   -4.0272   -4.3656 H   0  0  0  0  0  0  0  0  0  0  0  0
   -3.4934   -2.6282   -4.4696 H   0  0  0  0  0  0  0  0  0  0  0  0
   -4.7348   -2.3960   -3.2324 H   0  0  0  0  0  0  0  0  0  0  0  0
   -5.5138   -4.5311    0.3144 H   0  0  0  0  0  0  0  0  0  0  0  0
   -4.9057   -5.9360   -0.5934 H   0  0  0  0  0  0  0  0  0  0  0  0
   -7.0766   -6.5817   -1.4042 H   0  0  0  0  0  0  0  0  0  0  0  0
   -7.8472   -5.1316   -0.7210 H   0  0  0  0  0  0  0  0  0  0  0  0
   -8.5897   -7.7771    1.6466 H   0  0  0  0  0  0  0  0  0  0  0  0
   -8.6354   -7.9002   -0.1266 H   0  0  0  0  0  0  0  0  0  0  0  0
   -9.3771   -6.4433    0.6903 H   0  0  0  0  0  0  0  0  0  0  0  0
   -7.0521   -4.8623    1.9339 H   0  0  0  0  0  0  0  0  0  0  0  0
   -5.7276   -6.1218    1.9939 H   0  0  0  0  0  0  0  0  0  0  0  0
   -7.3145   -6.4872    2.7192 H   0  0  0  0  0  0  0  0  0  0  0  0
   -6.0116   -0.2068    1.2837 H   0  0  0  0  0  0  0  0  0  0  0  0
   -4.9558   -1.5691    1.3181 H   0  0  0  0  0  0  0  0  0  0  0  0
   -4.2932    0.0814    0.8720 H   0  0  0  0  0  0  0  0  0  0  0  0
   -6.7898   -0.2271   -2.2200 H   0  0  0  0  0  0  0  0  0  0  0  0
   -7.5776   -2.0158   -0.9113 H   0  0  0  0  0  0  0  0  0  0  0  0
   -7.6838   -0.9841    0.5191 H   0  0  0  0  0  0  0  0  0  0  0  0
  -11.0060   -1.2268   -1.2203 H   0  0  0  0  0  0  0  0  0  0  0  0
   -9.8478   -2.3090   -0.2984 H   0  0  0  0  0  0  0  0  0  0  0  0
  -10.5018   -0.7510    0.4266 H   0  0  0  0  0  0  0  0  0  0  0  0
   -8.4417   -1.3917   -2.9768 H   0  0  0  0  0  0  0  0  0  0  0  0
   -8.8513    0.3833   -3.0286 H   0  0  0  0  0  0  0  0  0  0  0  0
  -10.1865   -0.7836   -2.8226 H   0  0  0  0  0  0  0  0  0  0  0  0
   -9.8618    1.2793   -1.4884 H   0  0  0  0  0  0  0  0  0  0  0  0
   -5.5829    1.9625    1.0012 H   0  0  0  0  0  0  0  0  0  0  0  0
   -7.1069    3.9118   -0.5750 H   0  0  0  0  0  0  0  0  0  0  0  0
   -6.5774    3.5046    2.3899 H   0  0  0  0  0  0  0  0  0  0  0  0
   -8.5455    5.3115    2.3926 H   0  0  0  0  0  0  0  0  0  0  0  0
   -6.8205    5.7952    2.1079 H   0  0  0  0  0  0  0  0  0  0  0  0
   -7.9325    5.6527    0.7205 H   0  0  0  0  0  0  0  0  0  0  0  0
   -8.9911    3.0128    2.4782 H   0  0  0  0  0  0  0  0  0  0  0  0
   -9.0866    3.1607    0.6492 H   0  0  0  0  0  0  0  0  0  0  0  0
   -8.0723    1.8097    1.4366 H   0  0  0  0  0  0  0  0  0  0  0  0
   -3.2516    3.2321    1.8463 H   0  0  0  0  0  0  0  0  0  0  0  0
   -2.1328    4.4905    1.5467 H   0  0  0  0  0  0  0  0  0  0  0  0
   -2.4566    3.3992    0.1923 H   0  0  0  0  0  0  0  0  0  0  0  0
   -4.2275    6.8850   -0.0794 H   0  0  0  0  0  0  0  0  0  0  0  0
   -4.3112    6.7921    2.1598 H   0  0  0  0  0  0  0  0  0  0  0  0
   -2.7024    6.0999    2.3907 H   0  0  0  0  0  0  0  0  0  0  0  0
   -1.8073    8.2881    1.1600 H   0  0  0  0  0  0  0  0  0  0  0  0
   -1.9908    9.6257    3.1048 H   0  0  0  0  0  0  0  0  0  0  0  0
   -3.5727    8.9839    3.5386 H   0  0  0  0  0  0  0  0  0  0  0  0
   -2.1722    7.9174    3.8096 H   0  0  0  0  0  0  0  0  0  0  0  0
   -3.4229    9.4596    0.0769 H   0  0  0  0  0  0  0  0  0  0  0  0
   -3.9491   10.0050    1.6973 H   0  0  0  0  0  0  0  0  0  0  0  0
   -4.7441    8.5650    0.9118 H   0  0  0  0  0  0  0  0  0  0  0  0
   -0.6086    4.9005   -0.0263 H   0  0  0  0  0  0  0  0  0  0  0  0
   -0.3410    6.9047   -2.1581 H   0  0  0  0  0  0  0  0  0  0  0  0
    0.5494    7.7053    0.0295 H   0  0  0  0  0  0  0  0  0  0  0  0
    1.8411    6.3987   -0.1531 H   0  0  0  0  0  0  0  0  0  0  0  0
    1.6130    7.6585   -1.3883 H   0  0  0  0  0  0  0  0  0  0  0  0
    0.8517    3.1160   -1.3452 H   0  0  0  0  0  0  0  0  0  0  0  0
    2.1567    3.8463   -3.8622 H   0  0  0  0  0  0  0  0  0  0  0  0
    2.3370    1.1308   -3.6201 H   0  0  0  0  0  0  0  0  0  0  0  0
    0.8758    1.9802   -4.3383 H   0  0  0  0  0  0  0  0  0  0  0  0
    0.9181    1.4326   -2.6275 H   0  0  0  0  0  0  0  0  0  0  0  0
    4.9816    0.8302   -3.6893 H   0  0  0  0  0  0  0  0  0  0  0  0
    6.4761    1.6909   -3.4693 H   0  0  0  0  0  0  0  0  0  0  0  0
    5.3988    2.3259   -4.6523 H   0  0  0  0  0  0  0  0  0  0  0  0
    6.7831    2.6008   -2.1157 H   0  0  0  0  0  0  0  0  0  0  0  0
    5.3146    5.2382   -1.7621 H   0  0  0  0  0  0  0  0  0  0  0  0
    6.6240    4.6868   -2.7711 H   0  0  0  0  0  0  0  0  0  0  0  0
    8.2070    4.6223   -1.0686 H   0  0  0  0  0  0  0  0  0  0  0  0
    7.7643    4.6418    1.2654 H   0  0  0  0  0  0  0  0  0  0  0  0
    5.9434    4.6416    0.8517 H   0  0  0  0  0  0  0  0  0  0  0  0
    6.8604    6.1295    1.0192 H   0  0  0  0  0  0  0  0  0  0  0  0
    8.4354    6.7957   -1.4917 H   0  0  0  0  0  0  0  0  0  0  0  0
    6.7114    6.8529   -2.0357 H   0  0  0  0  0  0  0  0  0  0  0  0
    7.0781    7.2122   -0.3438 H   0  0  0  0  0  0  0  0  0  0  0  0
    3.5362    2.1904    2.0693 H   0  0  0  0  0  0  0  0  0  0  0  0
    3.5351    0.6491    1.2729 H   0  0  0  0  0  0  0  0  0  0  0  0
    3.0423    2.0111    0.3148 H   0  0  0  0  0  0  0  0  0  0  0  0
    6.9843    1.2245    1.6276 H   0  0  0  0  0  0  0  0  0  0  0  0
    6.4632    3.0971    2.7460 H   0  0  0  0  0  0  0  0  0  0  0  0
    4.9233    2.4071    3.4679 H   0  0  0  0  0  0  0  0  0  0  0  0
    6.6034    2.5355    5.0891 H   0  0  0  0  0  0  0  0  0  0  0  0
    7.4181    0.3188    5.7387 H   0  0  0  0  0  0  0  0  0  0  0  0
    6.7375   -0.3951    4.2875 H   0  0  0  0  0  0  0  0  0  0  0  0
    5.6128    0.4151    5.5118 H   0  0  0  0  0  0  0  0  0  0  0  0
    8.4188    2.8808    3.4591 H   0  0  0  0  0  0  0  0  0  0  0  0
    8.7075    1.0355    3.5022 H   0  0  0  0  0  0  0  0  0  0  0  0
    8.7601    2.0315    4.9797 H   0  0  0  0  0  0  0  0  0  0  0  0
    5.0551   -1.9921    3.8359 H   0  0  0  0  0  0  0  0  0  0  0  0
    3.4104   -1.9556    3.0048 H   0  0  0  0  0  0  0  0  0  0  0  0
    4.6213   -3.2456    2.7498 H   0  0  0  0  0  0  0  0  0  0  0  0
    5.4596   -1.4665   -0.3289 H   0  0  0  0  0  0  0  0  0  0  0  0
    6.7837   -3.2275   -0.2251 H   0  0  0  0  0  0  0  0  0  0  0  0
    7.8283   -1.4147    1.9362 H   0  0  0  0  0  0  0  0  0  0  0  0
    7.3005   -0.7494    0.2962 H   0  0  0  0  0  0  0  0  0  0  0  0
    8.6114   -2.0374    0.4098 H   0  0  0  0  0  0  0  0  0  0  0  0
    6.2120   -4.6257    1.7812 H   0  0  0  0  0  0  0  0  0  0  0  0
    7.8865   -4.1154    1.6850 H   0  0  0  0  0  0  0  0  0  0  0  0
    6.8997   -3.2621    2.8485 H   0  0  0  0  0  0  0  0  0  0  0  0
    2.8587   -4.6250    2.3276 H   0  0  0  0  0  0  0  0  0  0  0  0
    1.8449   -3.2441    1.8323 H   0  0  0  0  0  0  0  0  0  0  0  0
    1.5518   -4.9362    1.2530 H   0  0  0  0  0  0  0  0  0  0  0  0
  1  2  1  0
  2  3  2  0
  3  4  1  0
  4  5  1  0
  5  6  1  0
  5  7  1  0
  7  8  1  0
  7  9  1  0
  9 10  1  0
 10 11  2  0
 10 12  1  0
 12 13  1  0
 13 14  1  0
 14 15  1  0
 13 16  1  0
 16 17  2  0
 16 18  1  0
 18 19  1  0
 18 20  1  0
 20 21  1  0
 21 22  1  0
 22 23  1  0
 23 24  1  0
 24 25  1  0
 24 26  1  0
 20 27  1  0
 27 28  2  0
 27 29  1  0
 29 30  1  0
 29 31  1  0
 31 32  1  0
 32 33  1  0
 33 34  1  0
 33 35  1  0
 33 36  1  0
 31 37  1  0
 37 38  2  0
 37 39  1  0
 39 40  1  0
 40 41  1  0
 41 42  1  0
 41 43  1  0
 40 44  1  0
 44 45  2  0
 44 46  1  0
 46 47  1  0
 46 48  1  0
 48 49  1  0
 49 50  1  0
 50 51  1  0
 50 52  1  0
 48 53  1  0
 53 54  2  0
 53 55  1  0
 55 56  1  0
 56 57  1  0
 56 58  1  0
 58 59  2  0
 58 60  1  0
 60 61  1  0
 61 62  1  0
 61 63  1  0
 63 64  2  0
 63 65  1  0
 65 66  1  0
 65 67  1  0
 67 68  1  0
 68 69  1  0
 69 70  1  0
 69 71  1  0
 67 72  1  0
 72 73  2  0
 72 74  1  0
 74 75  1  0
 74 76  1  0
 76 77  1  0
 77 78  1  0
 78 79  1  0
 78 80  1  0
 76 81  1  0
 81 82  2  0
 81 83  1  0
 83 84  1  0
 83 85  1  0
 85 86  1  0
 86 87  1  0
 86 88  1  0
 85 89  1  0
 89 90  2  0
 89 91  1  0
 91 92  1  0
 91  9  1  0
  1 93  1  0
  1 94  1  0
  1 95  1  0
  2 96  1  0
  3 97  1  0
  4 98  1  0
  4 99  1  0
  5100  1  6
  6101  1  0
  6102  1  0
  6103  1  0
  7104  1  1
  8105  1  0
  9106  1  6
 12107  1  0
 13108  1  6
 14109  1  0
 14110  1  0
 15111  1  0
 15112  1  0
 15113  1  0
 19114  1  0
 19115  1  0
 19116  1  0
 20117  1  6
 22118  1  0
 22119  1  0
 23120  1  0
 23121  1  0
 25122  1  0
 25123  1  0
 25124  1  0
 26125  1  0
 26126  1  0
 26127  1  0
 30128  1  0
 30129  1  0
 30130  1  0
 31131  1  6
 32132  1  0
 32133  1  0
 34134  1  0
 34135  1  0
 34136  1  0
 35137  1  0
 35138  1  0
 35139  1  0
 36140  1  0
 39141  1  0
 40142  1  6
 41143  1  0
 42144  1  0
 42145  1  0
 42146  1  0
 43147  1  0
 43148  1  0
 43149  1  0
 47150  1  0
 47151  1  0
 47152  1  0
 48153  1  6
 49154  1  0
 49155  1  0
 50156  1  0
 51157  1  0
 51158  1  0
 51159  1  0
 52160  1  0
 52161  1  0
 52162  1  0
 55163  1  0
 56164  1  6
 57165  1  0
 57166  1  0
 57167  1  0
 60168  1  0
 61169  1  6
 62170  1  0
 62171  1  0
 62172  1  0
 66173  1  0
 66174  1  0
 66175  1  0
 67176  1  6
 68177  1  0
 68178  1  0
 69179  1  0
 70180  1  0
 70181  1  0
 70182  1  0
 71183  1  0
 71184  1  0
 71185  1  0
 75186  1  0
 75187  1  0
 75188  1  0
 76189  1  6
 77190  1  0
 77191  1  0
 78192  1  0
 79193  1  0
 79194  1  0
 79195  1  0
 80196  1  0
 80197  1  0
 80198  1  0
 84199  1  0
 84200  1  0
 84201  1  0
 85202  1  6
 86203  1  0
 87204  1  0
 87205  1  0
 87206  1  0
 88207  1  0
 88208  1  0
 88209  1  0
 92210  1  0
 92211  1  0
 92212  1  0
M  END
$$$$
