
     RDKit          3D

 68 72  0  0  0  0  0  0  0  0999 V2000
   -0.4878    0.8075   -3.8885 C   0  0  0  0  0  0  0  0  0  0  0  0
   -1.8610    0.5197   -3.3954 C   0  0  0  0  0  0  0  0  0  0  0  0
   -2.8768    0.9715   -4.1329 N   0  0  0  0  0  0  0  0  0  0  0  0
   -4.1380    0.7559   -3.7549 C   0  0  0  0  0  0  0  0  0  0  0  0
   -4.4307    0.0651   -2.6002 C   0  0  0  0  0  0  0  0  0  0  0  0
   -5.7881   -0.1619   -2.1918 C   0  0  0  0  0  0  0  0  0  0  0  0
   -6.9064   -0.3282   -1.8583 N   0  0  0  0  0  0  0  0  0  0  0  0
   -3.3485   -0.4110   -1.8224 C   0  0  0  0  0  0  0  0  0  0  0  0
   -3.6907   -1.1549   -0.6928 N   0  0  0  0  0  0  0  0  0  0  0  0
   -4.4266   -0.7280    0.4210 C   0  0  0  0  0  0  0  0  0  0  0  0
   -5.5117   -1.5215    0.7986 C   0  0  0  0  0  0  0  0  0  0  0  0
   -6.2845   -1.1623    1.8460 C   0  0  0  0  0  0  0  0  0  0  0  0
   -6.0247   -0.0114    2.5669 C   0  0  0  0  0  0  0  0  0  0  0  0
   -6.6288    0.5515    3.6262 N   0  0  0  0  0  0  0  0  0  0  0  0
   -5.9919    1.6845    3.9675 C   0  0  0  0  0  0  0  0  0  0  0  0
   -4.9256    1.8702    3.0940 C   0  0  0  0  0  0  0  0  0  0  0  0
   -4.9683    0.7874    2.2210 C   0  0  0  0  0  0  0  0  0  0  0  0
   -4.1810    0.4061    1.1387 C   0  0  0  0  0  0  0  0  0  0  0  0
   -3.0865    1.3471    0.7958 C   0  0  0  0  0  0  0  0  0  0  0  0
   -2.0548   -0.1970   -2.1984 C   0  0  0  0  0  0  0  0  0  0  0  0
   -0.8996   -0.6817   -1.5079 C   0  0  0  0  0  0  0  0  0  0  0  0
   -0.7405   -1.2607   -0.3653 C   0  0  0  0  0  0  0  0  0  0  0  0
    0.5597   -1.7000    0.1858 C   0  0  0  0  0  0  0  0  0  0  0  0
    0.5616   -2.3247    1.4326 C   0  0  0  0  0  0  0  0  0  0  0  0
    1.7175   -2.7625    2.0490 C   0  0  0  0  0  0  0  0  0  0  0  0
    2.9200   -2.5733    1.4030 C   0  0  0  0  0  0  0  0  0  0  0  0
    2.9635   -1.9627    0.1744 C   0  0  0  0  0  0  0  0  0  0  0  0
    4.5028   -1.7231   -0.6187 S   0  0  0  0  0  6  0  0  0  0  0  0
    4.2270   -1.6910   -2.1046 O   0  0  0  0  0  0  0  0  0  0  0  0
    5.4127   -2.8547   -0.3204 O   0  0  0  0  0  0  0  0  0  0  0  0
    5.2180   -0.2349   -0.2073 N   0  0  0  0  0  0  0  0  0  0  0  0
    4.4610    0.9191   -0.5763 C   0  0  0  0  0  0  0  0  0  0  0  0
    4.9092    2.1393    0.2094 C   0  0  0  0  0  0  0  0  0  0  0  0
    6.3383    2.0960    0.4529 N   0  0  0  0  0  0  0  0  0  0  0  0
    6.5937    1.7060    1.8071 C   0  0  0  0  0  0  0  0  0  0  0  0
    7.0316    1.2989   -0.5125 C   0  0  0  0  0  0  0  0  0  0  0  0
    6.6231   -0.1484   -0.3711 C   0  0  0  0  0  0  0  0  0  0  0  0
    1.7654   -1.5396   -0.4044 C   0  0  0  0  0  0  0  0  0  0  0  0
   -0.0815   -0.0824   -4.3948 H   0  0  0  0  0  0  0  0  0  0  0  0
    0.1767    1.1888   -3.0863 H   0  0  0  0  0  0  0  0  0  0  0  0
   -0.5435    1.6292   -4.6309 H   0  0  0  0  0  0  0  0  0  0  0  0
   -4.9951    1.1081   -4.3305 H   0  0  0  0  0  0  0  0  0  0  0  0
   -3.4021   -2.1835   -0.6899 H   0  0  0  0  0  0  0  0  0  0  0  0
   -5.7157   -2.4254    0.2354 H   0  0  0  0  0  0  0  0  0  0  0  0
   -7.1209   -1.7903    2.1228 H   0  0  0  0  0  0  0  0  0  0  0  0
   -7.4620    0.1617    4.1034 H   0  0  0  0  0  0  0  0  0  0  0  0
   -6.2335    2.3624    4.7736 H   0  0  0  0  0  0  0  0  0  0  0  0
   -4.2203    2.6797    3.0955 H   0  0  0  0  0  0  0  0  0  0  0  0
   -2.1355    0.9031    0.5679 H   0  0  0  0  0  0  0  0  0  0  0  0
   -3.4316    1.8716   -0.1334 H   0  0  0  0  0  0  0  0  0  0  0  0
   -3.0050    2.1584    1.5548 H   0  0  0  0  0  0  0  0  0  0  0  0
    0.0705   -0.5482   -2.0580 H   0  0  0  0  0  0  0  0  0  0  0  0
   -1.6205   -1.4007    0.2361 H   0  0  0  0  0  0  0  0  0  0  0  0
   -0.3992   -2.4705    1.9380 H   0  0  0  0  0  0  0  0  0  0  0  0
    1.7346   -3.2459    3.0140 H   0  0  0  0  0  0  0  0  0  0  0  0
    3.8480   -2.9098    1.8691 H   0  0  0  0  0  0  0  0  0  0  0  0
    3.3848    0.8019   -0.3769 H   0  0  0  0  0  0  0  0  0  0  0  0
    4.6543    1.1402   -1.6510 H   0  0  0  0  0  0  0  0  0  0  0  0
    4.6775    3.0238   -0.3815 H   0  0  0  0  0  0  0  0  0  0  0  0
    4.3737    2.1922    1.1608 H   0  0  0  0  0  0  0  0  0  0  0  0
    7.5108    1.0930    1.8559 H   0  0  0  0  0  0  0  0  0  0  0  0
    5.7323    1.1602    2.2685 H   0  0  0  0  0  0  0  0  0  0  0  0
    6.7912    2.6176    2.4059 H   0  0  0  0  0  0  0  0  0  0  0  0
    8.1266    1.4001   -0.3568 H   0  0  0  0  0  0  0  0  0  0  0  0
    6.7887    1.6554   -1.5342 H   0  0  0  0  0  0  0  0  0  0  0  0
    7.2004   -0.6373    0.4402 H   0  0  0  0  0  0  0  0  0  0  0  0
    6.9259   -0.6986   -1.3046 H   0  0  0  0  0  0  0  0  0  0  0  0
    1.8177   -1.0585   -1.3790 H   0  0  0  0  0  0  0  0  0  0  0  0
  1  2  1  0
  2  3  2  0
  3  4  1  0
  4  5  2  0
  5  6  1  0
  6  7  3  0
  5  8  1  0
  8  9  1  0
  9 10  1  0
 10 11  2  0
 11 12  1  0
 12 13  2  0
 13 14  1  0
 14 15  1  0
 15 16  2  0
 16 17  1  0
 17 18  2  0
 18 19  1  0
  8 20  2  0
 20 21  1  0
 21 22  2  0
 22 23  1  0
 23 24  2  0
 24 25  1  0
 25 26  2  0
 26 27  1  0
 27 28  1  0
 28 29  2  0
 28 30  2  0
 28 31  1  0
 31 32  1  0
 32 33  1  0
 33 34  1  0
 34 35  1  0
 34 36  1  0
 36 37  1  0
 27 38  2  0
 20  2  1  0
 38 23  1  0
 18 10  1  0
 37 31  1  0
 17 13  1  0
  1 39  1  0
  1 40  1  0
  1 41  1  0
  4 42  1  0
  9 43  1  0
 11 44  1  0
 12 45  1  0
 14 46  1  0
 15 47  1  0
 16 48  1  0
 19 49  1  0
 19 50  1  0
 19 51  1  0
 21 52  1  0
 22 53  1  0
 24 54  1  0
 25 55  1  0
 26 56  1  0
 32 57  1  0
 32 58  1  0
 33 59  1  0
 33 60  1  0
 35 61  1  0
 35 62  1  0
 35 63  1  0
 36 64  1  0
 36 65  1  0
 37 66  1  0
 37 67  1  0
 38 68  1  0
M  END
$$$$
