
     RDKit          3D

 37 39  0  0  0  0  0  0  0  0999 V2000
   -3.2879   -1.7140   -0.0068 C   0  0  0  0  0  0  0  0  0  0  0  0
   -3.6666   -0.2281   -0.0849 C   0  0  2  0  0  0  0  0  0  0  0  0
   -4.6340   -0.1142   -1.0484 O   0  0  0  0  0  0  0  0  0  0  0  0
   -2.4604    0.5733   -0.3201 C   0  0  0  0  0  0  0  0  0  0  0  0
   -2.5181    1.9416   -0.4488 C   0  0  0  0  0  0  0  0  0  0  0  0
   -1.4185    2.6835   -0.6630 N   0  0  0  0  0  0  0  0  0  0  0  0
   -0.2381    2.0766   -0.7534 C   0  0  0  0  0  0  0  0  0  0  0  0
   -0.1175    0.7076   -0.6327 C   0  0  0  0  0  0  0  0  0  0  0  0
    1.1981    0.1498   -0.7452 N   0  0  0  0  0  0  0  0  0  0  0  0
    1.8240   -0.2829   -1.8273 N   0  0  0  0  0  0  0  0  0  0  0  0
    3.0457   -0.7376   -1.5434 C   0  0  0  0  0  0  0  0  0  0  0  0
    4.0550   -1.3081   -2.5062 C   0  0  0  0  0  0  0  0  0  0  0  0
    3.5204   -1.2962   -3.7799 F   0  0  0  0  0  0  0  0  0  0  0  0
    5.2119   -0.5902   -2.5208 F   0  0  0  0  0  0  0  0  0  0  0  0
    4.2946   -2.6263   -2.1815 F   0  0  0  0  0  0  0  0  0  0  0  0
    3.2324   -0.5932   -0.1851 C   0  0  0  0  0  0  0  0  0  0  0  0
    4.2567   -0.8698    0.6959 C   0  0  0  0  0  0  0  0  0  0  0  0
    4.1670   -0.6127    2.0499 C   0  0  0  0  0  0  0  0  0  0  0  0
    2.9961   -0.0568    2.5160 C   0  0  0  0  0  0  0  0  0  0  0  0
    1.9733    0.2192    1.6344 C   0  0  0  0  0  0  0  0  0  0  0  0
    2.0554   -0.0349    0.2800 C   0  0  0  0  0  0  0  0  0  0  0  0
   -1.2327   -0.0467   -0.4153 C   0  0  0  0  0  0  0  0  0  0  0  0
   -4.2125    0.1085    1.2993 C   0  0  0  0  0  0  0  0  0  0  0  0
   -5.3235   -0.6897    1.5826 F   0  0  0  0  0  0  0  0  0  0  0  0
   -3.2600   -0.1055    2.2668 F   0  0  0  0  0  0  0  0  0  0  0  0
   -4.6503    1.3974    1.3054 F   0  0  0  0  0  0  0  0  0  0  0  0
   -4.2189   -2.3090    0.0890 H   0  0  0  0  0  0  0  0  0  0  0  0
   -2.8482   -1.9554   -0.9908 H   0  0  0  0  0  0  0  0  0  0  0  0
   -2.6265   -1.9064    0.8466 H   0  0  0  0  0  0  0  0  0  0  0  0
   -5.3100    0.5663   -0.9008 H   0  0  0  0  0  0  0  0  0  0  0  0
   -3.4803    2.4158   -0.3743 H   0  0  0  0  0  0  0  0  0  0  0  0
    0.6512    2.6990   -0.9288 H   0  0  0  0  0  0  0  0  0  0  0  0
    5.1783   -1.3079    0.3256 H   0  0  0  0  0  0  0  0  0  0  0  0
    4.9904   -0.8389    2.7344 H   0  0  0  0  0  0  0  0  0  0  0  0
    2.9232    0.1454    3.5748 H   0  0  0  0  0  0  0  0  0  0  0  0
    1.0416    0.6576    1.9810 H   0  0  0  0  0  0  0  0  0  0  0  0
   -1.1112   -1.1182   -0.3242 H   0  0  0  0  0  0  0  0  0  0  0  0
  1  2  1  0
  2  3  1  6
  2  4  1  0
  4  5  2  0
  5  6  1  0
  6  7  2  0
  7  8  1  0
  8  9  1  0
  9 10  1  0
 10 11  2  0
 11 12  1  0
 12 13  1  0
 12 14  1  0
 12 15  1  0
 11 16  1  0
 16 17  2  0
 17 18  1  0
 18 19  2  0
 19 20  1  0
 20 21  2  0
  8 22  2  0
  2 23  1  0
 23 24  1  0
 23 25  1  0
 23 26  1  0
 22  4  1  0
 21  9  1  0
 21 16  1  0
  1 27  1  0
  1 28  1  0
  1 29  1  0
  3 30  1  0
  5 31  1  0
  7 32  1  0
 17 33  1  0
 18 34  1  0
 19 35  1  0
 20 36  1  0
 22 37  1  0
M  END
$$$$
