
     RDKit          3D

 26 26  0  0  0  0  0  0  0  0999 V2000
    3.8339    0.1014   -0.8353 C   0  0  0  0  0  0  0  0  0  0  0  0
    3.5916    0.6081    0.4318 O   0  0  0  0  0  0  0  0  0  0  0  0
    3.1008   -0.3390    1.3106 C   0  0  0  0  0  0  0  0  0  0  0  0
    1.7756   -0.9253    0.8118 C   0  0  0  0  0  0  0  0  0  0  0  0
    0.8407    0.1181    0.6926 O   0  0  0  0  0  0  0  0  0  0  0  0
   -0.4610   -0.0576    0.2666 C   0  0  0  0  0  0  0  0  0  0  0  0
   -1.0665   -1.2040   -0.1017 N   0  0  0  0  0  0  0  0  0  0  0  0
   -2.3626   -1.1568   -0.4904 C   0  0  0  0  0  0  0  0  0  0  0  0
   -3.0081   -2.3644   -0.8807 N   0  0  0  0  0  0  0  0  0  0  0  0
   -3.0927   -0.0041   -0.5295 N   0  0  0  0  0  0  0  0  0  0  0  0
   -2.5157    1.1768   -0.1644 C   0  0  0  0  0  0  0  0  0  0  0  0
   -3.2978    2.4414   -0.2016 C   0  0  0  0  0  0  0  0  0  0  0  0
   -1.1884    1.1189    0.2321 C   0  0  0  0  0  0  0  0  0  0  0  0
    4.2233    0.9545   -1.4455 H   0  0  0  0  0  0  0  0  0  0  0  0
    2.9153   -0.2466   -1.3549 H   0  0  0  0  0  0  0  0  0  0  0  0
    4.6553   -0.6509   -0.8569 H   0  0  0  0  0  0  0  0  0  0  0  0
    3.7955   -1.1400    1.5575 H   0  0  0  0  0  0  0  0  0  0  0  0
    2.8491    0.2036    2.2564 H   0  0  0  0  0  0  0  0  0  0  0  0
    1.4168   -1.5932    1.6346 H   0  0  0  0  0  0  0  0  0  0  0  0
    1.9211   -1.5315   -0.0846 H   0  0  0  0  0  0  0  0  0  0  0  0
   -3.6027   -2.7449   -0.1233 H   0  0  0  0  0  0  0  0  0  0  0  0
   -3.0925   -3.0104   -1.6764 H   0  0  0  0  0  0  0  0  0  0  0  0
   -2.6013    3.2699   -0.3917 H   0  0  0  0  0  0  0  0  0  0  0  0
   -3.7566    2.5601    0.8190 H   0  0  0  0  0  0  0  0  0  0  0  0
   -4.0791    2.3266   -0.9773 H   0  0  0  0  0  0  0  0  0  0  0  0
   -0.7939    2.0894    0.5078 H   0  0  0  0  0  0  0  0  0  0  0  0
  1  2  1  0
  2  3  1  0
  3  4  1  0
  4  5  1  0
  5  6  1  0
  6  7  2  0
  7  8  1  0
  8  9  1  0
  8 10  2  0
 10 11  1  0
 11 12  1  0
 11 13  2  0
 13  6  1  0
  1 14  1  0
  1 15  1  0
  1 16  1  0
  3 17  1  0
  3 18  1  0
  4 19  1  0
  4 20  1  0
  9 21  1  0
  9 22  1  0
 12 23  1  0
 12 24  1  0
 12 25  1  0
 13 26  1  0
M  END
$$$$
