
     RDKit          3D

 63 66  0  0  0  0  0  0  0  0999 V2000
    0.0366    2.9469   -1.5442 C   0  0  0  0  0  0  0  0  0  0  0  0
   -0.1353    1.8903   -2.5689 C   0  0  0  0  0  0  0  0  0  0  0  0
    0.0063    0.4573   -2.0327 C   0  0  1  0  0  0  0  0  0  0  0  0
    1.3452    0.2226   -1.4437 C   0  0  0  0  0  0  0  0  0  0  0  0
    1.5582   -0.8589   -0.5796 C   0  0  0  0  0  0  0  0  0  0  0  0
    2.7825   -1.1298   -0.0168 C   0  0  0  0  0  0  0  0  0  0  0  0
    3.8844   -0.3427   -0.2740 C   0  0  0  0  0  0  0  0  0  0  0  0
    5.1920   -0.6298    0.3265 C   0  0  0  0  0  0  0  0  0  0  0  0
    5.6193   -1.9090    0.6194 C   0  0  0  0  0  0  0  0  0  0  0  0
    6.8449   -2.1545    1.1807 C   0  0  0  0  0  0  0  0  0  0  0  0
    7.6669   -1.1078    1.4584 C   0  0  0  0  0  0  0  0  0  0  0  0
    8.8001   -1.3248    1.9765 O   0  0  0  0  0  0  0  0  0  0  0  0
    7.2546    0.1538    1.1735 N   0  0  0  0  0  0  0  0  0  0  0  0
    8.1786    1.2338    1.4938 C   0  0  0  0  0  0  0  0  0  0  0  0
    6.0535    0.4068    0.6225 C   0  0  0  0  0  0  0  0  0  0  0  0
    3.6949    0.7259   -1.1221 C   0  0  0  0  0  0  0  0  0  0  0  0
    2.4538    0.9981   -1.6912 C   0  0  0  0  0  0  0  0  0  0  0  0
   -1.0644    0.1387   -1.1393 N   0  0  0  0  0  0  0  0  0  0  0  0
   -2.1212   -0.7577   -1.5638 C   0  0  0  0  0  0  0  0  0  0  0  0
   -2.7928   -1.4419   -0.3815 C   0  0  0  0  0  0  0  0  0  0  0  0
   -3.3705   -0.4220    0.5135 C   0  0  2  0  0  0  0  0  0  0  0  0
   -3.5888   -0.9363    1.9314 C   0  0  0  0  0  0  0  0  0  0  0  0
   -4.5227   -2.1073    1.9705 C   0  0  0  0  0  0  0  0  0  0  0  0
   -4.6747   -2.5233    3.2914 O   0  0  0  0  0  0  0  0  0  0  0  0
   -4.6488    0.1156   -0.0087 C   0  0  0  0  0  0  0  0  0  0  0  0
   -5.2658    1.1808    0.6552 C   0  0  0  0  0  0  0  0  0  0  0  0
   -6.4374    1.6924    0.2180 C   0  0  0  0  0  0  0  0  0  0  0  0
   -7.0658    1.1988   -0.8795 C   0  0  0  0  0  0  0  0  0  0  0  0
   -6.4910    0.1637   -1.5458 C   0  0  0  0  0  0  0  0  0  0  0  0
   -5.2845   -0.3776   -1.1115 C   0  0  0  0  0  0  0  0  0  0  0  0
   -2.5034    0.7203    0.6956 O   0  0  0  0  0  0  0  0  0  0  0  0
   -1.1966    0.6587    0.1704 C   0  0  0  0  0  0  0  0  0  0  0  0
   -0.1829    1.0322    0.7971 O   0  0  0  0  0  0  0  0  0  0  0  0
   -0.8944    3.0404   -0.9092 H   0  0  0  0  0  0  0  0  0  0  0  0
    0.0455    3.9363   -2.1014 H   0  0  0  0  0  0  0  0  0  0  0  0
    0.8778    2.8634   -0.8638 H   0  0  0  0  0  0  0  0  0  0  0  0
    0.6169    1.9815   -3.3778 H   0  0  0  0  0  0  0  0  0  0  0  0
   -1.1247    2.0047   -3.0661 H   0  0  0  0  0  0  0  0  0  0  0  0
   -0.1633   -0.1560   -2.9759 H   0  0  0  0  0  0  0  0  0  0  0  0
    0.6943   -1.4884   -0.3688 H   0  0  0  0  0  0  0  0  0  0  0  0
    2.9338   -1.9774    0.6560 H   0  0  0  0  0  0  0  0  0  0  0  0
    4.9610   -2.7566    0.3977 H   0  0  0  0  0  0  0  0  0  0  0  0
    7.1180   -3.1660    1.3836 H   0  0  0  0  0  0  0  0  0  0  0  0
    9.2362    0.8654    1.4140 H   0  0  0  0  0  0  0  0  0  0  0  0
    8.0081    2.0831    0.8156 H   0  0  0  0  0  0  0  0  0  0  0  0
    7.9861    1.4997    2.5523 H   0  0  0  0  0  0  0  0  0  0  0  0
    5.7941    1.4478    0.4231 H   0  0  0  0  0  0  0  0  0  0  0  0
    4.5479    1.3525   -1.3342 H   0  0  0  0  0  0  0  0  0  0  0  0
    2.3536    1.8561   -2.3712 H   0  0  0  0  0  0  0  0  0  0  0  0
   -1.7388   -1.5744   -2.2110 H   0  0  0  0  0  0  0  0  0  0  0  0
   -2.8768   -0.2067   -2.1221 H   0  0  0  0  0  0  0  0  0  0  0  0
   -3.5531   -2.1275   -0.7899 H   0  0  0  0  0  0  0  0  0  0  0  0
   -2.0173   -2.0830    0.1492 H   0  0  0  0  0  0  0  0  0  0  0  0
   -2.6331   -1.1877    2.4291 H   0  0  0  0  0  0  0  0  0  0  0  0
   -4.0474   -0.1060    2.5033 H   0  0  0  0  0  0  0  0  0  0  0  0
   -5.5401   -1.8484    1.6072 H   0  0  0  0  0  0  0  0  0  0  0  0
   -4.1853   -2.9689    1.3865 H   0  0  0  0  0  0  0  0  0  0  0  0
   -4.8880   -3.4830    3.3734 H   0  0  0  0  0  0  0  0  0  0  0  0
   -4.7310    1.5552    1.5379 H   0  0  0  0  0  0  0  0  0  0  0  0
   -6.8719    2.5302    0.7839 H   0  0  0  0  0  0  0  0  0  0  0  0
   -8.0148    1.6375   -1.2067 H   0  0  0  0  0  0  0  0  0  0  0  0
   -6.9883   -0.2355   -2.4239 H   0  0  0  0  0  0  0  0  0  0  0  0
   -4.9303   -1.2015   -1.7182 H   0  0  0  0  0  0  0  0  0  0  0  0
  1  2  1  0
  2  3  1  0
  3  4  1  0
  4  5  2  0
  5  6  1  0
  6  7  2  0
  7  8  1  0
  8  9  1  0
  9 10  2  0
 10 11  1  0
 11 12  2  0
 11 13  1  0
 13 14  1  0
 13 15  1  0
  7 16  1  0
 16 17  2  0
  3 18  1  0
 18 19  1  0
 19 20  1  0
 20 21  1  0
 21 22  1  1
 22 23  1  0
 23 24  1  0
 21 25  1  0
 25 26  2  0
 26 27  1  0
 27 28  2  0
 28 29  1  0
 29 30  2  0
 21 31  1  0
 31 32  1  0
 32 33  2  0
 17  4  1  0
 32 18  1  0
 15  8  2  0
 30 25  1  0
  1 34  1  0
  1 35  1  0
  1 36  1  0
  2 37  1  0
  2 38  1  0
  3 39  1  6
  5 40  1  0
  6 41  1  0
  9 42  1  0
 10 43  1  0
 14 44  1  0
 14 45  1  0
 14 46  1  0
 15 47  1  0
 16 48  1  0
 17 49  1  0
 19 50  1  0
 19 51  1  0
 20 52  1  0
 20 53  1  0
 22 54  1  0
 22 55  1  0
 23 56  1  0
 23 57  1  0
 24 58  1  0
 26 59  1  0
 27 60  1  0
 28 61  1  0
 29 62  1  0
 30 63  1  0
M  END
$$$$
