
     RDKit          3D

 55 58  0  0  0  0  0  0  0  0999 V2000
   -6.1932   -1.7149   -2.4419 C   0  0  0  0  0  0  0  0  0  0  0  0
   -6.5780   -0.1468   -1.7073 S   0  0  0  0  0  4  0  0  0  0  0  0
   -7.9155    0.4107   -2.0942 O   0  0  0  0  0  0  0  0  0  0  0  0
   -6.2400   -0.0507    0.0314 C   0  0  0  0  0  0  0  0  0  0  0  0
   -4.8422   -0.2808    0.3985 C   0  0  0  0  0  0  0  0  0  0  0  0
   -4.4242   -1.4396    1.0106 C   0  0  0  0  0  0  0  0  0  0  0  0
   -3.1159   -1.6431    1.3689 C   0  0  0  0  0  0  0  0  0  0  0  0
   -2.1352   -0.6622    1.1214 C   0  0  0  0  0  0  0  0  0  0  0  0
   -0.8047   -1.0161    1.5529 C   0  0  0  0  0  0  0  0  0  0  0  0
   -0.3078   -2.1596    1.2189 O   0  0  0  0  0  0  0  0  0  0  0  0
    0.0110   -0.1874    2.3459 N   0  0  0  0  0  0  0  0  0  0  0  0
    1.2914   -0.5190    2.8408 C   0  0  0  0  0  0  0  0  0  0  0  0
    1.3637   -0.8707    4.1720 N   0  0  0  0  0  0  0  0  0  0  0  0
    2.4941   -1.2194    4.7768 C   0  0  0  0  0  0  0  0  0  0  0  0
    3.6597   -1.2250    4.0077 C   0  0  0  0  0  0  0  0  0  0  0  0
    3.6244   -0.8901    2.7150 N   0  0  0  0  0  0  0  0  0  0  0  0
    2.4243   -0.5340    2.1261 C   0  0  0  0  0  0  0  0  0  0  0  0
    2.4430   -0.2327    0.7079 C   0  0  0  0  0  0  0  0  0  0  0  0
    1.4745    0.0464   -0.0165 O   0  0  0  0  0  0  0  0  0  0  0  0
    3.7112   -0.2456    0.0079 N   0  0  0  0  0  0  0  0  0  0  0  0
    3.7966    0.0475   -1.4146 C   0  0  0  0  0  0  0  0  0  0  0  0
    5.2328   -0.0693   -1.8190 C   0  0  0  0  0  0  0  0  0  0  0  0
    5.5401    0.2059   -3.2828 C   0  0  0  0  0  0  0  0  0  0  0  0
    6.7952    0.9478   -2.8160 C   0  0  0  0  0  0  0  0  0  0  0  0
    6.1346    1.0832   -1.4384 C   0  0  0  0  0  0  0  0  0  0  0  0
   -2.5799    0.4818    0.5102 C   0  0  0  0  0  0  0  0  0  0  0  0
   -1.6498    1.4615    0.2477 C   0  0  0  0  0  0  0  0  0  0  0  0
   -2.0452    2.6383   -0.3736 C   0  0  0  0  0  0  0  0  0  0  0  0
   -3.3616    2.8133   -0.7201 C   0  0  0  0  0  0  0  0  0  0  0  0
   -4.3023    1.8407   -0.4631 C   0  0  0  0  0  0  0  0  0  0  0  0
   -3.8867    0.6867    0.1519 C   0  0  0  0  0  0  0  0  0  0  0  0
   -6.9931   -1.9388   -3.2018 H   0  0  0  0  0  0  0  0  0  0  0  0
   -5.2523   -1.7521   -3.0086 H   0  0  0  0  0  0  0  0  0  0  0  0
   -6.2156   -2.5041   -1.6749 H   0  0  0  0  0  0  0  0  0  0  0  0
   -6.6201    0.8910    0.4789 H   0  0  0  0  0  0  0  0  0  0  0  0
   -6.8573   -0.8631    0.5207 H   0  0  0  0  0  0  0  0  0  0  0  0
   -5.1442   -2.2352    1.2267 H   0  0  0  0  0  0  0  0  0  0  0  0
   -2.7900   -2.5556    1.8504 H   0  0  0  0  0  0  0  0  0  0  0  0
   -0.3275    0.7747    2.6560 H   0  0  0  0  0  0  0  0  0  0  0  0
    2.5626   -1.4944    5.8157 H   0  0  0  0  0  0  0  0  0  0  0  0
    4.5823   -1.5128    4.5187 H   0  0  0  0  0  0  0  0  0  0  0  0
    4.5570   -0.4729    0.5638 H   0  0  0  0  0  0  0  0  0  0  0  0
    3.1538   -0.6714   -1.9615 H   0  0  0  0  0  0  0  0  0  0  0  0
    3.4239    1.0812   -1.5774 H   0  0  0  0  0  0  0  0  0  0  0  0
    5.6349   -1.0487   -1.4481 H   0  0  0  0  0  0  0  0  0  0  0  0
    4.7615    0.8468   -3.7012 H   0  0  0  0  0  0  0  0  0  0  0  0
    5.7275   -0.7149   -3.8495 H   0  0  0  0  0  0  0  0  0  0  0  0
    6.9601    1.9326   -3.2816 H   0  0  0  0  0  0  0  0  0  0  0  0
    7.6677    0.2630   -2.7635 H   0  0  0  0  0  0  0  0  0  0  0  0
    6.8154    0.7953   -0.6129 H   0  0  0  0  0  0  0  0  0  0  0  0
    5.6458    2.0553   -1.2866 H   0  0  0  0  0  0  0  0  0  0  0  0
   -0.6322    1.3036    0.5271 H   0  0  0  0  0  0  0  0  0  0  0  0
   -1.2928    3.4020   -0.5720 H   0  0  0  0  0  0  0  0  0  0  0  0
   -3.6349    3.7445   -1.2032 H   0  0  0  0  0  0  0  0  0  0  0  0
   -5.3471    1.9856   -0.7403 H   0  0  0  0  0  0  0  0  0  0  0  0
  1  2  1  0
  2  3  2  0
  2  4  1  0
  4  5  1  0
  5  6  2  0
  6  7  1  0
  7  8  2  0
  8  9  1  0
  9 10  2  0
  9 11  1  0
 11 12  1  0
 12 13  2  0
 13 14  1  0
 14 15  2  0
 15 16  1  0
 16 17  2  0
 17 18  1  0
 18 19  2  0
 18 20  1  0
 20 21  1  0
 21 22  1  0
 22 23  1  0
 23 24  1  0
 24 25  1  0
  8 26  1  0
 26 27  2  0
 27 28  1  0
 28 29  2  0
 29 30  1  0
 30 31  2  0
 31  5  1  0
 17 12  1  0
 25 22  1  0
 31 26  1  0
  1 32  1  0
  1 33  1  0
  1 34  1  0
  4 35  1  0
  4 36  1  0
  6 37  1  0
  7 38  1  0
 11 39  1  0
 14 40  1  0
 15 41  1  0
 20 42  1  0
 21 43  1  0
 21 44  1  0
 22 45  1  0
 23 46  1  0
 23 47  1  0
 24 48  1  0
 24 49  1  0
 25 50  1  0
 25 51  1  0
 27 52  1  0
 28 53  1  0
 29 54  1  0
 30 55  1  0
M  END
$$$$
