
     RDKit          3D

 44 46  0  0  0  0  0  0  0  0999 V2000
   -2.9617   -3.8172   -0.8374 C   0  0  0  0  0  0  0  0  0  0  0  0
   -2.8566   -2.4560   -0.5019 O   0  0  0  0  0  0  0  0  0  0  0  0
   -1.6090   -1.8819   -0.3263 C   0  0  0  0  0  0  0  0  0  0  0  0
   -0.4758   -2.6111   -0.4724 C   0  0  0  0  0  0  0  0  0  0  0  0
    0.7527   -2.0034   -0.2891 C   0  0  0  0  0  0  0  0  0  0  0  0
    0.8722   -0.6902    0.0350 C   0  0  0  0  0  0  0  0  0  0  0  0
    2.1528   -0.0164    0.2358 C   0  0  0  0  0  0  0  0  0  0  0  0
    2.1940    1.2089    0.5364 O   0  0  0  0  0  0  0  0  0  0  0  0
    3.4102   -0.6574    0.1147 N   0  0  0  0  0  0  0  0  0  0  0  0
    4.6589   -0.0060    0.3091 C   0  0  0  0  0  0  0  0  0  0  0  0
    5.2817    0.0577    1.5485 C   0  0  0  0  0  0  0  0  0  0  0  0
    4.6390   -0.5383    2.5887 F   0  0  0  0  0  0  0  0  0  0  0  0
    6.4903    0.6957    1.7040 C   0  0  0  0  0  0  0  0  0  0  0  0
    7.1313    1.2933    0.6524 C   0  0  0  0  0  0  0  0  0  0  0  0
    6.5226    1.2389   -0.5933 C   0  0  0  0  0  0  0  0  0  0  0  0
    5.3138    0.6012   -0.7504 C   0  0  0  0  0  0  0  0  0  0  0  0
    4.6928    0.5337   -1.9688 F   0  0  0  0  0  0  0  0  0  0  0  0
   -0.2858    0.0549    0.1842 C   0  0  0  0  0  0  0  0  0  0  0  0
   -1.5214   -0.5212    0.0085 C   0  0  0  0  0  0  0  0  0  0  0  0
   -2.6778    0.1937    0.1504 O   0  0  0  0  0  0  0  0  0  0  0  0
   -2.8420    1.5414    0.4750 C   0  0  0  0  0  0  0  0  0  0  0  0
   -3.7833    2.2489   -0.4869 C   0  0  0  0  0  0  0  0  0  0  0  0
   -5.1783    1.9121   -0.0616 C   0  0  0  0  0  0  0  0  0  0  0  0
   -5.0274    1.0347    1.1609 C   0  0  0  0  0  0  0  0  0  0  0  0
   -3.7200    1.5544    1.7409 C   0  0  0  0  0  0  0  0  0  0  0  0
   -2.5960   -3.9024   -1.9016 H   0  0  0  0  0  0  0  0  0  0  0  0
   -2.3539   -4.4721   -0.1771 H   0  0  0  0  0  0  0  0  0  0  0  0
   -4.0061   -4.1677   -0.8002 H   0  0  0  0  0  0  0  0  0  0  0  0
   -0.4919   -3.6819   -0.7344 H   0  0  0  0  0  0  0  0  0  0  0  0
    1.6485   -2.5982   -0.4090 H   0  0  0  0  0  0  0  0  0  0  0  0
    3.4317   -1.6681   -0.1316 H   0  0  0  0  0  0  0  0  0  0  0  0
    6.9359    0.7169    2.6974 H   0  0  0  0  0  0  0  0  0  0  0  0
    8.0834    1.7986    0.7630 H   0  0  0  0  0  0  0  0  0  0  0  0
    6.9915    1.6985   -1.4603 H   0  0  0  0  0  0  0  0  0  0  0  0
   -0.2231    1.1191    0.4459 H   0  0  0  0  0  0  0  0  0  0  0  0
   -1.9232    2.1034    0.6383 H   0  0  0  0  0  0  0  0  0  0  0  0
   -3.6247    3.3395   -0.4242 H   0  0  0  0  0  0  0  0  0  0  0  0
   -3.6008    1.9370   -1.5452 H   0  0  0  0  0  0  0  0  0  0  0  0
   -5.7435    2.8221    0.2637 H   0  0  0  0  0  0  0  0  0  0  0  0
   -5.7648    1.4240   -0.8674 H   0  0  0  0  0  0  0  0  0  0  0  0
   -5.8712    1.1370    1.8643 H   0  0  0  0  0  0  0  0  0  0  0  0
   -4.8396   -0.0313    0.8670 H   0  0  0  0  0  0  0  0  0  0  0  0
   -3.3231    0.8750    2.4955 H   0  0  0  0  0  0  0  0  0  0  0  0
   -3.9025    2.5801    2.0811 H   0  0  0  0  0  0  0  0  0  0  0  0
  1  2  1  0
  2  3  1  0
  3  4  2  0
  4  5  1  0
  5  6  2  0
  6  7  1  0
  7  8  2  0
  7  9  1  0
  9 10  1  0
 10 11  2  0
 11 12  1  0
 11 13  1  0
 13 14  2  0
 14 15  1  0
 15 16  2  0
 16 17  1  0
  6 18  1  0
 18 19  2  0
 19 20  1  0
 20 21  1  0
 21 22  1  0
 22 23  1  0
 23 24  1  0
 24 25  1  0
 19  3  1  0
 25 21  1  0
 16 10  1  0
  1 26  1  0
  1 27  1  0
  1 28  1  0
  4 29  1  0
  5 30  1  0
  9 31  1  0
 13 32  1  0
 14 33  1  0
 15 34  1  0
 18 35  1  0
 21 36  1  0
 22 37  1  0
 22 38  1  0
 23 39  1  0
 23 40  1  0
 24 41  1  0
 24 42  1  0
 25 43  1  0
 25 44  1  0
M  END
$$$$
