
     RDKit          3D

 76 80  0  0  0  0  0  0  0  0999 V2000
   -4.0030   -5.7230   -0.5683 C   0  0  0  0  0  0  0  0  0  0  0  0
   -4.2143   -4.2636   -0.3118 C   0  0  0  0  0  0  0  0  0  0  0  0
   -4.6604   -3.7911    0.8972 C   0  0  0  0  0  0  0  0  0  0  0  0
   -4.8430   -2.4339    1.0936 C   0  0  0  0  0  0  0  0  0  0  0  0
   -4.5879   -1.5158    0.0967 C   0  0  0  0  0  0  0  0  0  0  0  0
   -4.7752   -0.1218    0.2999 N   0  0  0  0  0  0  0  0  0  0  0  0
   -5.8493    0.5574   -0.0619 N   0  0  0  0  0  0  0  0  0  0  0  0
   -5.7058    1.8592    0.2744 C   0  0  0  0  0  0  0  0  0  0  0  0
   -6.6719    2.9741    0.0540 C   0  0  0  0  0  0  0  0  0  0  0  0
   -7.5908    3.0943    1.2520 C   0  0  0  0  0  0  0  0  0  0  0  0
   -7.5012    2.7566   -1.1896 C   0  0  0  0  0  0  0  0  0  0  0  0
   -5.9300    4.2800   -0.1240 C   0  0  0  0  0  0  0  0  0  0  0  0
   -4.4660    1.9480    0.8727 C   0  0  0  0  0  0  0  0  0  0  0  0
   -3.8721    0.6819    0.8886 C   0  0  0  0  0  0  0  0  0  0  0  0
   -2.5927    0.3509    1.4185 N   0  0  0  0  0  0  0  0  0  0  0  0
   -1.3929    0.3679    0.6888 C   0  0  0  0  0  0  0  0  0  0  0  0
   -1.4502    0.6991   -0.5269 O   0  0  0  0  0  0  0  0  0  0  0  0
   -0.1709    0.0185    1.3256 N   0  0  0  0  0  0  0  0  0  0  0  0
    1.0310    0.0395    0.5662 C   0  0  0  0  0  0  0  0  0  0  0  0
    1.5149   -1.0241   -0.1195 C   0  0  0  0  0  0  0  0  0  0  0  0
    2.6995   -0.9587   -0.8537 C   0  0  0  0  0  0  0  0  0  0  0  0
    3.4426    0.2068   -0.9152 C   0  0  0  0  0  0  0  0  0  0  0  0
    4.5911    0.3945   -1.5845 O   0  0  0  0  0  0  0  0  0  0  0  0
    5.4188   -0.3547   -2.3620 C   0  0  0  0  0  0  0  0  0  0  0  0
    6.0253   -1.5040   -1.5911 C   0  0  0  0  0  0  0  0  0  0  0  0
    6.7926   -0.9985   -0.4751 N   0  0  0  0  0  0  0  0  0  0  0  0
    7.9690   -0.3063   -0.8412 C   0  0  0  0  0  0  0  0  0  0  0  0
    9.1459   -1.0452   -0.1896 C   0  0  0  0  0  0  0  0  0  0  0  0
    8.9696   -0.8821    1.1781 O   0  0  0  0  0  0  0  0  0  0  0  0
    7.8758   -1.5738    1.6632 C   0  0  0  0  0  0  0  0  0  0  0  0
    6.8269   -1.8608    0.6387 C   0  0  0  0  0  0  0  0  0  0  0  0
    2.9345    1.3064   -0.2020 C   0  0  0  0  0  0  0  0  0  0  0  0
    3.6495    2.4823   -0.2445 C   0  0  0  0  0  0  0  0  0  0  0  0
    3.1717    3.5915    0.4512 C   0  0  0  0  0  0  0  0  0  0  0  0
    2.0059    3.4857    1.1586 C   0  0  0  0  0  0  0  0  0  0  0  0
    1.2835    2.3194    1.2095 C   0  0  0  0  0  0  0  0  0  0  0  0
    1.7509    1.2195    0.5236 C   0  0  0  0  0  0  0  0  0  0  0  0
   -4.1380   -2.0021   -1.1198 C   0  0  0  0  0  0  0  0  0  0  0  0
   -3.9561   -3.3556   -1.3149 C   0  0  0  0  0  0  0  0  0  0  0  0
   -4.3333   -5.9299   -1.6266 H   0  0  0  0  0  0  0  0  0  0  0  0
   -4.5521   -6.3383    0.1649 H   0  0  0  0  0  0  0  0  0  0  0  0
   -2.8981   -5.8877   -0.4873 H   0  0  0  0  0  0  0  0  0  0  0  0
   -4.8571   -4.5206    1.6725 H   0  0  0  0  0  0  0  0  0  0  0  0
   -5.1944   -2.0557    2.0442 H   0  0  0  0  0  0  0  0  0  0  0  0
   -8.5022    2.4828    1.0988 H   0  0  0  0  0  0  0  0  0  0  0  0
   -7.0389    2.6575    2.1342 H   0  0  0  0  0  0  0  0  0  0  0  0
   -7.8229    4.1686    1.4104 H   0  0  0  0  0  0  0  0  0  0  0  0
   -7.7137    1.6818   -1.3780 H   0  0  0  0  0  0  0  0  0  0  0  0
   -8.5074    3.2235   -0.9837 H   0  0  0  0  0  0  0  0  0  0  0  0
   -7.1077    3.2801   -2.0714 H   0  0  0  0  0  0  0  0  0  0  0  0
   -5.1983    4.4682    0.6752 H   0  0  0  0  0  0  0  0  0  0  0  0
   -6.6870    5.0950   -0.0712 H   0  0  0  0  0  0  0  0  0  0  0  0
   -5.4798    4.3585   -1.1505 H   0  0  0  0  0  0  0  0  0  0  0  0
   -4.0001    2.8574    1.2793 H   0  0  0  0  0  0  0  0  0  0  0  0
   -2.5488    0.0724    2.4417 H   0  0  0  0  0  0  0  0  0  0  0  0
   -0.1366   -0.2511    2.3317 H   0  0  0  0  0  0  0  0  0  0  0  0
    0.9834   -1.9640   -0.1126 H   0  0  0  0  0  0  0  0  0  0  0  0
    3.0526   -1.8229   -1.4044 H   0  0  0  0  0  0  0  0  0  0  0  0
    4.9439   -0.7268   -3.3061 H   0  0  0  0  0  0  0  0  0  0  0  0
    6.3025    0.2973   -2.6480 H   0  0  0  0  0  0  0  0  0  0  0  0
    6.7058   -2.0890   -2.2687 H   0  0  0  0  0  0  0  0  0  0  0  0
    5.2911   -2.2145   -1.1777 H   0  0  0  0  0  0  0  0  0  0  0  0
    7.9842    0.7266   -0.4408 H   0  0  0  0  0  0  0  0  0  0  0  0
    8.0873   -0.3233   -1.9547 H   0  0  0  0  0  0  0  0  0  0  0  0
    9.1456   -2.1138   -0.4980 H   0  0  0  0  0  0  0  0  0  0  0  0
   10.0583   -0.5145   -0.4928 H   0  0  0  0  0  0  0  0  0  0  0  0
    7.4169   -0.9449    2.4548 H   0  0  0  0  0  0  0  0  0  0  0  0
    8.2562   -2.4844    2.1718 H   0  0  0  0  0  0  0  0  0  0  0  0
    7.0300   -2.9061    0.2565 H   0  0  0  0  0  0  0  0  0  0  0  0
    5.8075   -1.9223    1.0834 H   0  0  0  0  0  0  0  0  0  0  0  0
    4.5855    2.5618   -0.8135 H   0  0  0  0  0  0  0  0  0  0  0  0
    3.7296    4.5231    0.4224 H   0  0  0  0  0  0  0  0  0  0  0  0
    1.6460    4.3647    1.6978 H   0  0  0  0  0  0  0  0  0  0  0  0
    0.3680    2.2423    1.7667 H   0  0  0  0  0  0  0  0  0  0  0  0
   -3.9431   -1.2608   -1.8899 H   0  0  0  0  0  0  0  0  0  0  0  0
   -3.6006   -3.7094   -2.2859 H   0  0  0  0  0  0  0  0  0  0  0  0
  1  2  1  0
  2  3  2  0
  3  4  1  0
  4  5  2  0
  5  6  1  0
  6  7  1  0
  7  8  2  0
  8  9  1  0
  9 10  1  0
  9 11  1  0
  9 12  1  0
  8 13  1  0
 13 14  2  0
 14 15  1  0
 15 16  1  0
 16 17  2  0
 16 18  1  0
 18 19  1  0
 19 20  2  0
 20 21  1  0
 21 22  2  0
 22 23  1  0
 23 24  1  0
 24 25  1  0
 25 26  1  0
 26 27  1  0
 27 28  1  0
 28 29  1  0
 29 30  1  0
 30 31  1  0
 22 32  1  0
 32 33  2  0
 33 34  1  0
 34 35  2  0
 35 36  1  0
 36 37  2  0
  5 38  1  0
 38 39  2  0
 39  2  1  0
 14  6  1  0
 37 19  1  0
 31 26  1  0
 37 32  1  0
  1 40  1  0
  1 41  1  0
  1 42  1  0
  3 43  1  0
  4 44  1  0
 10 45  1  0
 10 46  1  0
 10 47  1  0
 11 48  1  0
 11 49  1  0
 11 50  1  0
 12 51  1  0
 12 52  1  0
 12 53  1  0
 13 54  1  0
 15 55  1  0
 18 56  1  0
 20 57  1  0
 21 58  1  0
 24 59  1  0
 24 60  1  0
 25 61  1  0
 25 62  1  0
 27 63  1  0
 27 64  1  0
 28 65  1  0
 28 66  1  0
 30 67  1  0
 30 68  1  0
 31 69  1  0
 31 70  1  0
 33 71  1  0
 34 72  1  0
 35 73  1  0
 36 74  1  0
 38 75  1  0
 39 76  1  0
M  END
$$$$
