
     RDKit          3D

 53 56  0  0  0  0  0  0  0  0999 V2000
   -3.3261    0.4601   -3.8812 C   0  0  0  0  0  0  0  0  0  0  0  0
   -2.7842    0.6299   -2.5977 O   0  0  0  0  0  0  0  0  0  0  0  0
   -3.5594    0.3523   -1.4898 C   0  0  0  0  0  0  0  0  0  0  0  0
   -4.7357   -0.0470   -1.6707 O   0  0  0  0  0  0  0  0  0  0  0  0
   -3.0692    0.5040   -0.1784 N   0  0  0  0  0  0  0  0  0  0  0  0
   -1.7613    0.9480    0.0114 N   0  0  0  0  0  0  0  0  0  0  0  0
   -0.6544    0.0807    0.1036 C   0  0  0  0  0  0  0  0  0  0  0  0
   -0.9110   -1.1655   -0.0194 O   0  0  0  0  0  0  0  0  0  0  0  0
    0.7215    0.4642    0.3111 C   0  0  0  0  0  0  0  0  0  0  0  0
    1.7163   -0.1385   -0.4796 C   0  0  0  0  0  0  0  0  0  0  0  0
    1.3895   -1.0530   -1.4262 O   0  0  0  0  0  0  0  0  0  0  0  0
    1.2887   -2.4359   -1.2683 C   0  0  0  0  0  0  0  0  0  0  0  0
    3.0085    0.2287   -0.2596 C   0  0  0  0  0  0  0  0  0  0  0  0
    4.0433   -0.3965   -1.0812 C   0  0  0  0  0  0  0  0  0  0  0  0
    5.1978   -0.8589   -0.4845 C   0  0  0  0  0  0  0  0  0  0  0  0
    6.2032   -1.4600   -1.2422 C   0  0  0  0  0  0  0  0  0  0  0  0
    6.0820   -1.6140   -2.6073 C   0  0  0  0  0  0  0  0  0  0  0  0
    4.9263   -1.1506   -3.2007 C   0  0  0  0  0  0  0  0  0  0  0  0
    3.9203   -0.5497   -2.4470 C   0  0  0  0  0  0  0  0  0  0  0  0
    3.3427    1.1368    0.6799 N   0  0  0  0  0  0  0  0  0  0  0  0
    2.4034    1.7278    1.4541 C   0  0  0  0  0  0  0  0  0  0  0  0
    2.7598    2.6364    2.4345 C   0  0  0  0  0  0  0  0  0  0  0  0
    1.8471    3.2407    3.2668 C   0  0  0  0  0  0  0  0  0  0  0  0
    0.5209    2.9106    3.1000 C   0  0  0  0  0  0  0  0  0  0  0  0
    0.1532    1.9949    2.1122 C   0  0  0  0  0  0  0  0  0  0  0  0
    1.0587    1.3883    1.2728 C   0  0  0  0  0  0  0  0  0  0  0  0
   -3.8972    0.2085    0.9251 C   0  0  0  0  0  0  0  0  0  0  0  0
   -4.6892    1.2007    1.4776 C   0  0  0  0  0  0  0  0  0  0  0  0
   -5.5188    0.9746    2.5555 C   0  0  0  0  0  0  0  0  0  0  0  0
   -5.5606   -0.2760    3.0987 C   0  0  0  0  0  0  0  0  0  0  0  0
   -4.7970   -1.2998    2.5926 C   0  0  0  0  0  0  0  0  0  0  0  0
   -3.9787   -1.0387    1.5143 C   0  0  0  0  0  0  0  0  0  0  0  0
   -4.3669    0.8518   -3.9090 H   0  0  0  0  0  0  0  0  0  0  0  0
   -2.7545    1.0638   -4.6420 H   0  0  0  0  0  0  0  0  0  0  0  0
   -3.3222   -0.6216   -4.1696 H   0  0  0  0  0  0  0  0  0  0  0  0
   -1.6583    2.0034    0.0400 H   0  0  0  0  0  0  0  0  0  0  0  0
    2.1662   -2.8886   -1.8135 H   0  0  0  0  0  0  0  0  0  0  0  0
    0.3959   -2.8796   -1.7364 H   0  0  0  0  0  0  0  0  0  0  0  0
    1.4201   -2.7363   -0.2057 H   0  0  0  0  0  0  0  0  0  0  0  0
    5.3095   -0.7457    0.5891 H   0  0  0  0  0  0  0  0  0  0  0  0
    7.1199   -1.8281   -0.7748 H   0  0  0  0  0  0  0  0  0  0  0  0
    6.8674   -2.0796   -3.1731 H   0  0  0  0  0  0  0  0  0  0  0  0
    4.7838   -1.2480   -4.2678 H   0  0  0  0  0  0  0  0  0  0  0  0
    3.0045   -0.1783   -2.8904 H   0  0  0  0  0  0  0  0  0  0  0  0
    3.8215    2.8661    2.5298 H   0  0  0  0  0  0  0  0  0  0  0  0
    2.1468    3.9576    4.0363 H   0  0  0  0  0  0  0  0  0  0  0  0
   -0.1987    3.3694    3.7384 H   0  0  0  0  0  0  0  0  0  0  0  0
   -0.8848    1.7293    2.0369 H   0  0  0  0  0  0  0  0  0  0  0  0
   -4.6312    2.1845    1.0202 H   0  0  0  0  0  0  0  0  0  0  0  0
   -6.0936    1.8088    2.9115 H   0  0  0  0  0  0  0  0  0  0  0  0
   -6.2321   -0.4162    3.9544 H   0  0  0  0  0  0  0  0  0  0  0  0
   -4.8693   -2.2615    3.0581 H   0  0  0  0  0  0  0  0  0  0  0  0
   -3.3644   -1.8223    1.0912 H   0  0  0  0  0  0  0  0  0  0  0  0
  1  2  1  0
  2  3  1  0
  3  4  2  0
  3  5  1  0
  5  6  1  0
  6  7  1  0
  7  8  2  0
  7  9  1  0
  9 10  2  0
 10 11  1  0
 11 12  1  0
 10 13  1  0
 13 14  1  0
 14 15  2  0
 15 16  1  0
 16 17  2  0
 17 18  1  0
 18 19  2  0
 13 20  2  0
 20 21  1  0
 21 22  2  0
 22 23  1  0
 23 24  2  0
 24 25  1  0
 25 26  2  0
  5 27  1  0
 27 28  2  0
 28 29  1  0
 29 30  2  0
 30 31  1  0
 31 32  2  0
 26  9  1  0
 32 27  1  0
 19 14  1  0
 26 21  1  0
  1 33  1  0
  1 34  1  0
  1 35  1  0
  6 36  1  0
 12 37  1  0
 12 38  1  0
 12 39  1  0
 15 40  1  0
 16 41  1  0
 17 42  1  0
 18 43  1  0
 19 44  1  0
 22 45  1  0
 23 46  1  0
 24 47  1  0
 25 48  1  0
 28 49  1  0
 29 50  1  0
 30 51  1  0
 31 52  1  0
 32 53  1  0
M  END
$$$$
