
     RDKit          3D

 44 45  0  0  0  0  0  0  0  0999 V2000
    2.1557    1.0580   -0.7510 C   0  0  0  0  0  0  0  0  0  0  0  0
    3.2680    0.5824    0.1296 C   0  0  0  0  0  0  0  0  0  0  0  0
    3.9115   -0.6502   -0.4844 C   0  0  0  0  0  0  0  0  0  0  0  0
    4.3963    1.6311    0.1601 C   0  0  0  0  0  0  0  0  0  0  0  0
    2.8341    0.3861    1.5199 C   0  0  0  0  0  0  0  0  0  0  0  0
    1.7922   -0.5966    1.8534 C   0  0  0  0  0  0  0  0  0  0  0  0
    0.4640   -0.4599    1.2658 C   0  0  0  0  0  0  0  0  0  0  0  0
   -0.0039   -1.0802    0.1136 C   0  0  0  0  0  0  0  0  0  0  0  0
   -1.2764   -0.7485   -0.0802 N   0  0  0  0  0  0  0  0  0  0  0  0
   -1.6506    0.0722    0.9158 C   0  0  0  0  0  0  0  0  0  0  0  0
   -0.5899    0.2378    1.7211 N   0  0  0  0  0  0  0  0  0  0  0  0
   -3.0490    0.5763    0.9102 C   0  0  0  0  0  0  0  0  0  0  0  0
   -3.1660    1.7404    1.6761 O   0  0  0  0  0  0  0  0  0  0  0  0
   -3.5983    0.8388   -0.4414 C   0  0  0  0  0  0  0  0  0  0  0  0
   -3.4572    2.2129   -0.7348 O   0  0  0  0  0  0  0  0  0  0  0  0
   -3.0025    0.0714   -1.5667 C   0  0  0  0  0  0  0  0  0  0  0  0
   -2.1385    0.9018   -2.2785 O   0  0  0  0  0  0  0  0  0  0  0  0
   -2.2109   -1.1292   -1.1355 C   0  0  0  0  0  0  0  0  0  0  0  0
   -3.0288   -2.3125   -0.7404 C   0  0  0  0  0  0  0  0  0  0  0  0
   -2.1232   -3.3664   -0.4966 O   0  0  0  0  0  0  0  0  0  0  0  0
    1.8734    0.2896   -1.4878 H   0  0  0  0  0  0  0  0  0  0  0  0
    1.2994    1.4084   -0.1583 H   0  0  0  0  0  0  0  0  0  0  0  0
    2.4926    2.0051   -1.3062 H   0  0  0  0  0  0  0  0  0  0  0  0
    5.0138   -0.6586   -0.3507 H   0  0  0  0  0  0  0  0  0  0  0  0
    3.7203   -0.7082   -1.5767 H   0  0  0  0  0  0  0  0  0  0  0  0
    3.5339   -1.5824   -0.0338 H   0  0  0  0  0  0  0  0  0  0  0  0
    3.9656    2.6244    0.3597 H   0  0  0  0  0  0  0  0  0  0  0  0
    4.9694    1.6172   -0.7736 H   0  0  0  0  0  0  0  0  0  0  0  0
    5.0171    1.3626    1.0477 H   0  0  0  0  0  0  0  0  0  0  0  0
    3.7868    0.1954    2.1238 H   0  0  0  0  0  0  0  0  0  0  0  0
    2.4780    1.4035    1.8877 H   0  0  0  0  0  0  0  0  0  0  0  0
    1.6470   -0.5683    2.9732 H   0  0  0  0  0  0  0  0  0  0  0  0
    2.2061   -1.6164    1.6464 H   0  0  0  0  0  0  0  0  0  0  0  0
    0.6101   -1.7371   -0.5163 H   0  0  0  0  0  0  0  0  0  0  0  0
   -3.7169   -0.1701    1.4280 H   0  0  0  0  0  0  0  0  0  0  0  0
   -2.4330    1.8172    2.3394 H   0  0  0  0  0  0  0  0  0  0  0  0
   -4.7229    0.6968   -0.4374 H   0  0  0  0  0  0  0  0  0  0  0  0
   -4.1907    2.7444   -0.3301 H   0  0  0  0  0  0  0  0  0  0  0  0
   -3.8086   -0.2979   -2.2403 H   0  0  0  0  0  0  0  0  0  0  0  0
   -1.8857    1.7105   -1.7748 H   0  0  0  0  0  0  0  0  0  0  0  0
   -1.6145   -1.4456   -2.0424 H   0  0  0  0  0  0  0  0  0  0  0  0
   -3.6596   -2.6585   -1.5770 H   0  0  0  0  0  0  0  0  0  0  0  0
   -3.6699   -2.1801    0.1290 H   0  0  0  0  0  0  0  0  0  0  0  0
   -2.4383   -4.2176   -0.8856 H   0  0  0  0  0  0  0  0  0  0  0  0
  1  2  1  0
  2  3  1  0
  2  4  1  0
  2  5  1  0
  5  6  1  0
  6  7  1  0
  7  8  2  0
  8  9  1  0
  9 10  1  0
 10 11  2  0
 10 12  1  0
 12 13  1  0
 12 14  1  0
 14 15  1  0
 14 16  1  0
 16 17  1  0
 16 18  1  0
 18 19  1  0
 19 20  1  0
 11  7  1  0
 18  9  1  0
  1 21  1  0
  1 22  1  0
  1 23  1  0
  3 24  1  0
  3 25  1  0
  3 26  1  0
  4 27  1  0
  4 28  1  0
  4 29  1  0
  5 30  1  0
  5 31  1  0
  6 32  1  0
  6 33  1  0
  8 34  1  0
 12 35  1  0
 13 36  1  0
 14 37  1  0
 15 38  1  0
 16 39  1  0
 17 40  1  0
 18 41  1  0
 19 42  1  0
 19 43  1  0
 20 44  1  0
M  END
$$$$
