
     RDKit          3D

 55 59  0  0  0  0  0  0  0  0999 V2000
   -6.3664    0.1291   -1.0420 C   0  0  0  0  0  0  0  0  0  0  0  0
   -5.2003    1.0228   -1.2052 C   0  0  0  0  0  0  0  0  0  0  0  0
   -5.2079    2.1315   -2.0339 C   0  0  0  0  0  0  0  0  0  0  0  0
   -4.1072    2.9557   -2.1735 C   0  0  0  0  0  0  0  0  0  0  0  0
   -2.9632    2.6508   -1.4540 C   0  0  0  0  0  0  0  0  0  0  0  0
   -2.9071    1.5547   -0.6139 C   0  0  0  0  0  0  0  0  0  0  0  0
   -1.7328    1.1954    0.1591 C   0  0  0  0  0  0  0  0  0  0  0  0
   -1.6076    1.6690    1.3138 O   0  0  0  0  0  0  0  0  0  0  0  0
   -0.7543    0.3261   -0.3905 N   0  0  0  0  0  0  0  0  0  0  0  0
   -0.8873   -0.2270   -1.7220 C   0  0  0  0  0  0  0  0  0  0  0  0
    0.4578   -0.1924   -2.4002 C   0  0  0  0  0  0  0  0  0  0  0  0
    1.4610   -0.7989   -1.6846 O   0  0  0  0  0  0  0  0  0  0  0  0
    1.0907   -1.1869   -0.4051 C   0  0  0  0  0  0  0  0  0  0  0  0
    0.4403   -0.0554    0.3625 C   0  0  1  0  0  0  0  0  0  0  0  0
    1.4183    1.0824    0.4501 C   0  0  0  0  0  0  0  0  0  0  0  0
    2.6076    0.6515    1.2224 C   0  0  0  0  0  0  0  0  0  0  0  0
    2.5786    0.8227    2.5922 C   0  0  0  0  0  0  0  0  0  0  0  0
    3.6675    0.4395    3.3469 C   0  0  0  0  0  0  0  0  0  0  0  0
    3.6067    0.6682    5.0945 Cl  0  0  0  0  0  0  0  0  0  0  0  0
    4.7872   -0.1157    2.7321 C   0  0  0  0  0  0  0  0  0  0  0  0
    4.8344   -0.2940    1.3676 C   0  0  0  0  0  0  0  0  0  0  0  0
    5.9883   -0.8630    0.7609 N   0  0  0  0  0  0  0  0  0  0  0  0
    6.0083   -2.0984    0.2523 N   0  0  0  0  0  0  0  0  0  0  0  0
    7.2094   -2.3826   -0.2540 C   0  0  0  0  0  0  0  0  0  0  0  0
    7.9869   -1.2538   -0.0483 C   0  0  0  0  0  0  0  0  0  0  0  0
    7.1880   -0.3655    0.5727 N   0  0  0  0  0  0  0  0  0  0  0  0
    3.7221    0.1036    0.6502 C   0  0  0  0  0  0  0  0  0  0  0  0
   -4.0436    0.7508   -0.5048 C   0  0  0  0  0  0  0  0  0  0  0  0
   -3.9971   -0.3717    0.3508 N   0  0  0  0  0  0  0  0  0  0  0  0
   -3.4423   -0.5303    1.5279 N   0  0  0  0  0  0  0  0  0  0  0  0
   -3.6354   -1.7604    1.9953 C   0  0  0  0  0  0  0  0  0  0  0  0
   -4.3693   -2.4263    1.0360 C   0  0  0  0  0  0  0  0  0  0  0  0
   -4.5656   -1.5409    0.0537 N   0  0  0  0  0  0  0  0  0  0  0  0
   -6.2137   -0.8493   -1.5667 H   0  0  0  0  0  0  0  0  0  0  0  0
   -7.2603    0.5825   -1.5475 H   0  0  0  0  0  0  0  0  0  0  0  0
   -6.5846   -0.1158    0.0185 H   0  0  0  0  0  0  0  0  0  0  0  0
   -6.1233    2.3350   -2.5794 H   0  0  0  0  0  0  0  0  0  0  0  0
   -4.1431    3.8181   -2.8309 H   0  0  0  0  0  0  0  0  0  0  0  0
   -2.0791    3.2889   -1.5484 H   0  0  0  0  0  0  0  0  0  0  0  0
   -1.5827    0.3626   -2.3534 H   0  0  0  0  0  0  0  0  0  0  0  0
   -1.1971   -1.3011   -1.6821 H   0  0  0  0  0  0  0  0  0  0  0  0
    0.3304   -0.6699   -3.3936 H   0  0  0  0  0  0  0  0  0  0  0  0
    0.6961    0.8893   -2.6183 H   0  0  0  0  0  0  0  0  0  0  0  0
    2.0011   -1.5583    0.1060 H   0  0  0  0  0  0  0  0  0  0  0  0
    0.4022   -2.0735   -0.4477 H   0  0  0  0  0  0  0  0  0  0  0  0
    0.1284   -0.4376    1.3385 H   0  0  0  0  0  0  0  0  0  0  0  0
    1.7836    1.4045   -0.5419 H   0  0  0  0  0  0  0  0  0  0  0  0
    0.9727    1.9728    0.9390 H   0  0  0  0  0  0  0  0  0  0  0  0
    1.7091    1.2525    3.0579 H   0  0  0  0  0  0  0  0  0  0  0  0
    5.6319   -0.4144    3.3053 H   0  0  0  0  0  0  0  0  0  0  0  0
    7.5100   -3.3180   -0.7319 H   0  0  0  0  0  0  0  0  0  0  0  0
    9.0270   -1.1503   -0.3447 H   0  0  0  0  0  0  0  0  0  0  0  0
    3.7797   -0.0447   -0.4316 H   0  0  0  0  0  0  0  0  0  0  0  0
   -3.3211   -2.2267    2.9189 H   0  0  0  0  0  0  0  0  0  0  0  0
   -4.7332   -3.4374    1.0252 H   0  0  0  0  0  0  0  0  0  0  0  0
  1  2  1  0
  2  3  2  0
  3  4  1  0
  4  5  2  0
  5  6  1  0
  6  7  1  0
  7  8  2  0
  7  9  1  0
  9 10  1  0
 10 11  1  0
 11 12  1  0
 12 13  1  0
 13 14  1  0
 14 15  1  0
 15 16  1  0
 16 17  2  0
 17 18  1  0
 18 19  1  0
 18 20  2  0
 20 21  1  0
 21 22  1  0
 22 23  1  0
 23 24  2  0
 24 25  1  0
 25 26  2  0
 21 27  2  0
  6 28  2  0
 28 29  1  0
 29 30  1  0
 30 31  2  0
 31 32  1  0
 32 33  2  0
 28  2  1  0
 33 29  1  0
 14  9  1  0
 27 16  1  0
 26 22  1  0
  1 34  1  0
  1 35  1  0
  1 36  1  0
  3 37  1  0
  4 38  1  0
  5 39  1  0
 10 40  1  0
 10 41  1  0
 11 42  1  0
 11 43  1  0
 13 44  1  0
 13 45  1  0
 14 46  1  1
 15 47  1  0
 15 48  1  0
 17 49  1  0
 20 50  1  0
 24 51  1  0
 25 52  1  0
 27 53  1  0
 31 54  1  0
 32 55  1  0
M  END
$$$$
