
     RDKit          3D

 53 56  0  0  0  0  0  0  0  0999 V2000
    9.1993    1.6056   -1.5264 C   0  0  0  0  0  0  0  0  0  0  0  0
    8.5381    0.3530   -1.6867 O   0  0  0  0  0  0  0  0  0  0  0  0
    7.3309    0.0894   -1.0550 C   0  0  0  0  0  0  0  0  0  0  0  0
    6.7138   -1.1203   -1.2229 C   0  0  0  0  0  0  0  0  0  0  0  0
    5.5146   -1.3243   -0.5692 C   0  0  0  0  0  0  0  0  0  0  0  0
    4.9304   -0.3768    0.2272 C   0  0  0  0  0  0  0  0  0  0  0  0
    3.7104   -0.6475    0.8639 N   0  0  0  0  0  0  0  0  0  0  0  0
    2.4386   -0.3793    0.2930 C   0  0  0  0  0  0  0  0  0  0  0  0
    2.3995    0.1298   -0.8490 O   0  0  0  0  0  0  0  0  0  0  0  0
    1.1897   -0.7044    1.0535 C   0  0  2  0  0  0  0  0  0  0  0  0
    1.2395   -2.1605    1.4682 C   0  0  0  0  0  0  0  0  0  0  0  0
    0.0175   -0.3662    0.3115 N   0  0  0  0  0  0  0  0  0  0  0  0
   -1.3115   -0.5073    0.7976 C   0  0  0  0  0  0  0  0  0  0  0  0
   -2.3852   -0.2125    0.0427 N   0  0  0  0  0  0  0  0  0  0  0  0
   -3.6242   -0.3580    0.5528 C   0  0  0  0  0  0  0  0  0  0  0  0
   -3.8521   -0.8029    1.8356 C   0  0  0  0  0  0  0  0  0  0  0  0
   -5.2032   -0.8312    2.0206 C   0  0  0  0  0  0  0  0  0  0  0  0
   -5.7591   -0.4122    0.8716 N   0  0  0  0  0  0  0  0  0  0  0  0
   -4.8373   -0.1229   -0.0226 N   0  0  0  0  0  0  0  0  0  0  0  0
   -5.0326    0.3633   -1.3919 C   0  0  0  0  0  0  0  0  0  0  0  0
   -5.1263    1.8607   -1.4434 C   0  0  0  0  0  0  0  0  0  0  0  0
   -6.4561    2.1494   -0.7440 C   0  0  0  0  0  0  0  0  0  0  0  0
   -7.3351    0.9574   -1.0653 C   0  0  0  0  0  0  0  0  0  0  0  0
   -6.4598   -0.0395   -1.7859 C   0  0  0  0  0  0  0  0  0  0  0  0
   -2.7369   -1.1045    2.6071 C   0  0  0  0  0  0  0  0  0  0  0  0
   -2.9424   -1.5084    3.7718 O   0  0  0  0  0  0  0  0  0  0  0  0
   -1.5227   -0.9473    2.0659 N   0  0  0  0  0  0  0  0  0  0  0  0
    5.5555    0.8293    0.3885 C   0  0  0  0  0  0  0  0  0  0  0  0
    6.7707    1.0670   -0.2598 C   0  0  0  0  0  0  0  0  0  0  0  0
    8.5951    2.3578   -2.0523 H   0  0  0  0  0  0  0  0  0  0  0  0
   10.2355    1.5646   -1.9035 H   0  0  0  0  0  0  0  0  0  0  0  0
    9.2463    1.8148   -0.4192 H   0  0  0  0  0  0  0  0  0  0  0  0
    7.1553   -1.8857   -1.8471 H   0  0  0  0  0  0  0  0  0  0  0  0
    5.0073   -2.2658   -0.6832 H   0  0  0  0  0  0  0  0  0  0  0  0
    3.6995   -1.0778    1.8294 H   0  0  0  0  0  0  0  0  0  0  0  0
    1.2184   -0.0930    1.9761 H   0  0  0  0  0  0  0  0  0  0  0  0
    0.3532   -2.7412    1.1916 H   0  0  0  0  0  0  0  0  0  0  0  0
    1.4120   -2.2959    2.5549 H   0  0  0  0  0  0  0  0  0  0  0  0
    2.1347   -2.6561    0.9871 H   0  0  0  0  0  0  0  0  0  0  0  0
    0.1480    0.0154   -0.6660 H   0  0  0  0  0  0  0  0  0  0  0  0
   -5.6784   -1.1430    2.9442 H   0  0  0  0  0  0  0  0  0  0  0  0
   -4.2789   -0.0757   -2.0413 H   0  0  0  0  0  0  0  0  0  0  0  0
   -5.2523    2.1539   -2.4917 H   0  0  0  0  0  0  0  0  0  0  0  0
   -4.2852    2.3775   -0.9518 H   0  0  0  0  0  0  0  0  0  0  0  0
   -6.2941    2.2687    0.3544 H   0  0  0  0  0  0  0  0  0  0  0  0
   -6.9238    3.0462   -1.1904 H   0  0  0  0  0  0  0  0  0  0  0  0
   -8.1913    1.2070   -1.6960 H   0  0  0  0  0  0  0  0  0  0  0  0
   -7.7085    0.5594   -0.0894 H   0  0  0  0  0  0  0  0  0  0  0  0
   -6.6522   -1.0306   -1.3008 H   0  0  0  0  0  0  0  0  0  0  0  0
   -6.6036   -0.0565   -2.8670 H   0  0  0  0  0  0  0  0  0  0  0  0
   -0.6930   -1.1739    2.6563 H   0  0  0  0  0  0  0  0  0  0  0  0
    5.1510    1.6217    1.0022 H   0  0  0  0  0  0  0  0  0  0  0  0
    7.2411    2.0295   -0.1132 H   0  0  0  0  0  0  0  0  0  0  0  0
  1  2  1  0
  2  3  1  0
  3  4  2  0
  4  5  1  0
  5  6  2  0
  6  7  1  0
  7  8  1  0
  8  9  2  0
  8 10  1  0
 10 11  1  0
 10 12  1  0
 12 13  1  0
 13 14  2  0
 14 15  1  0
 15 16  2  0
 16 17  1  0
 17 18  2  0
 18 19  1  0
 19 20  1  0
 20 21  1  0
 21 22  1  0
 22 23  1  0
 23 24  1  0
 16 25  1  0
 25 26  2  0
 25 27  1  0
  6 28  1  0
 28 29  2  0
 29  3  1  0
 27 13  1  0
 19 15  1  0
 24 20  1  0
  1 30  1  0
  1 31  1  0
  1 32  1  0
  4 33  1  0
  5 34  1  0
  7 35  1  0
 10 36  1  1
 11 37  1  0
 11 38  1  0
 11 39  1  0
 12 40  1  0
 17 41  1  0
 20 42  1  0
 21 43  1  0
 21 44  1  0
 22 45  1  0
 22 46  1  0
 23 47  1  0
 23 48  1  0
 24 49  1  0
 24 50  1  0
 27 51  1  0
 28 52  1  0
 29 53  1  0
M  END
$$$$
