
     RDKit          3D

 62 65  0  0  0  0  0  0  0  0999 V2000
   -8.8924    0.6770   -0.9662 C   0  0  0  0  0  0  0  0  0  0  0  0
   -7.8050    0.0992   -0.1258 C   0  0  0  0  0  0  0  0  0  0  0  0
   -8.1203   -0.2440    1.0839 N   0  0  0  0  0  0  0  0  0  0  0  0
   -6.4912   -0.0739   -0.6042 N   0  0  0  0  0  0  0  0  0  0  0  0
   -6.1583    0.0181   -2.0016 C   0  0  0  0  0  0  0  0  0  0  0  0
   -5.1388    1.1194   -2.1686 C   0  0  0  0  0  0  0  0  0  0  0  0
   -4.0856    1.0097   -1.1928 N   0  0  0  0  0  0  0  0  0  0  0  0
   -2.8228    1.1218   -1.8619 C   0  0  0  0  0  0  0  0  0  0  0  0
   -1.6599    1.0230   -0.9539 C   0  0  0  0  0  0  0  0  0  0  0  0
   -1.1255   -0.2301   -0.7169 C   0  0  0  0  0  0  0  0  0  0  0  0
   -0.0279   -0.3738    0.1332 C   0  0  0  0  0  0  0  0  0  0  0  0
    0.5500    0.7080    0.7537 C   0  0  0  0  0  0  0  0  0  0  0  0
    1.7001    0.5845    1.6485 C   0  0  0  0  0  0  0  0  0  0  0  0
    2.2037    1.6135    2.2039 O   0  0  0  0  0  0  0  0  0  0  0  0
    2.3253   -0.6419    1.9598 N   0  0  0  0  0  0  0  0  0  0  0  0
    3.4351   -0.7258    2.8287 C   0  0  0  0  0  0  0  0  0  0  0  0
    3.1668   -0.9110    4.1883 C   0  0  0  0  0  0  0  0  0  0  0  0
    4.1820   -1.0041    5.1084 C   0  0  0  0  0  0  0  0  0  0  0  0
    5.4793   -0.9164    4.7053 C   0  0  0  0  0  0  0  0  0  0  0  0
    6.7916   -1.0337    5.8709 Cl  0  0  0  0  0  0  0  0  0  0  0  0
    5.7372   -0.7319    3.3481 C   0  0  0  0  0  0  0  0  0  0  0  0
    4.7342   -0.6360    2.4093 C   0  0  0  0  0  0  0  0  0  0  0  0
    5.0542   -0.4437    1.0052 C   0  0  0  0  0  0  0  0  0  0  0  0
    4.0936   -0.3632    0.1903 O   0  0  0  0  0  0  0  0  0  0  0  0
    6.3467   -0.3379    0.4645 N   0  0  0  0  0  0  0  0  0  0  0  0
    6.6023   -0.1481   -0.9334 C   0  0  0  0  0  0  0  0  0  0  0  0
    6.7614   -1.2267   -1.7839 C   0  0  0  0  0  0  0  0  0  0  0  0
    7.0098   -1.0719   -3.1420 C   0  0  0  0  0  0  0  0  0  0  0  0
    7.1027    0.2058   -3.6706 C   0  0  0  0  0  0  0  0  0  0  0  0
    7.4147    0.4447   -5.3789 Cl  0  0  0  0  0  0  0  0  0  0  0  0
    6.9390    1.2661   -2.7946 C   0  0  0  0  0  0  0  0  0  0  0  0
    6.6996    1.0732   -1.4848 N   0  0  0  0  0  0  0  0  0  0  0  0
    0.0101    1.9486    0.5105 C   0  0  0  0  0  0  0  0  0  0  0  0
   -1.0826    2.0999   -0.3345 C   0  0  0  0  0  0  0  0  0  0  0  0
   -4.1109   -0.1714   -0.3915 C   0  0  0  0  0  0  0  0  0  0  0  0
   -5.4300   -0.3548    0.3350 C   0  0  0  0  0  0  0  0  0  0  0  0
   -8.5292    1.2930   -1.7885 H   0  0  0  0  0  0  0  0  0  0  0  0
   -9.5718   -0.1142   -1.3465 H   0  0  0  0  0  0  0  0  0  0  0  0
   -9.4918    1.3455   -0.2823 H   0  0  0  0  0  0  0  0  0  0  0  0
   -7.3790   -0.6576    1.7128 H   0  0  0  0  0  0  0  0  0  0  0  0
   -7.0454    0.1855   -2.6437 H   0  0  0  0  0  0  0  0  0  0  0  0
   -5.7034   -0.9384   -2.3839 H   0  0  0  0  0  0  0  0  0  0  0  0
   -4.7141    1.1126   -3.2151 H   0  0  0  0  0  0  0  0  0  0  0  0
   -5.6408    2.0940   -1.9993 H   0  0  0  0  0  0  0  0  0  0  0  0
   -2.7659    0.2922   -2.6068 H   0  0  0  0  0  0  0  0  0  0  0  0
   -2.8083    2.0841   -2.4298 H   0  0  0  0  0  0  0  0  0  0  0  0
   -1.5608   -1.0936   -1.1916 H   0  0  0  0  0  0  0  0  0  0  0  0
    0.3552   -1.3697    0.2885 H   0  0  0  0  0  0  0  0  0  0  0  0
    1.9538   -1.5061    1.5342 H   0  0  0  0  0  0  0  0  0  0  0  0
    2.1386   -0.9811    4.5127 H   0  0  0  0  0  0  0  0  0  0  0  0
    3.9644   -1.1467    6.1523 H   0  0  0  0  0  0  0  0  0  0  0  0
    6.7833   -0.6664    3.0628 H   0  0  0  0  0  0  0  0  0  0  0  0
    7.1549   -0.3982    1.0937 H   0  0  0  0  0  0  0  0  0  0  0  0
    6.6896   -2.2141   -1.3757 H   0  0  0  0  0  0  0  0  0  0  0  0
    7.1364   -1.8993   -3.8193 H   0  0  0  0  0  0  0  0  0  0  0  0
    7.0157    2.2627   -3.2304 H   0  0  0  0  0  0  0  0  0  0  0  0
    0.4211    2.8235    0.9676 H   0  0  0  0  0  0  0  0  0  0  0  0
   -1.4935    3.0840   -0.5136 H   0  0  0  0  0  0  0  0  0  0  0  0
   -3.9508   -1.1047   -0.9780 H   0  0  0  0  0  0  0  0  0  0  0  0
   -3.3327   -0.0958    0.3704 H   0  0  0  0  0  0  0  0  0  0  0  0
   -5.5055    0.2469    1.2465 H   0  0  0  0  0  0  0  0  0  0  0  0
   -5.5078   -1.4166    0.6218 H   0  0  0  0  0  0  0  0  0  0  0  0
  1  2  1  0
  2  3  2  3
  2  4  1  0
  4  5  1  0
  5  6  1  0
  6  7  1  0
  7  8  1  0
  8  9  1  0
  9 10  2  0
 10 11  1  0
 11 12  2  0
 12 13  1  0
 13 14  2  0
 13 15  1  0
 15 16  1  0
 16 17  2  0
 17 18  1  0
 18 19  2  0
 19 20  1  0
 19 21  1  0
 21 22  2  0
 22 23  1  0
 23 24  2  0
 23 25  1  0
 25 26  1  0
 26 27  2  0
 27 28  1  0
 28 29  2  0
 29 30  1  0
 29 31  1  0
 31 32  2  0
 12 33  1  0
 33 34  2  0
  7 35  1  0
 35 36  1  0
 36  4  1  0
 34  9  1  0
 22 16  1  0
 32 26  1  0
  1 37  1  0
  1 38  1  0
  1 39  1  0
  3 40  1  0
  5 41  1  0
  5 42  1  0
  6 43  1  0
  6 44  1  0
  8 45  1  0
  8 46  1  0
 10 47  1  0
 11 48  1  0
 15 49  1  0
 17 50  1  0
 18 51  1  0
 21 52  1  0
 25 53  1  0
 27 54  1  0
 28 55  1  0
 31 56  1  0
 33 57  1  0
 34 58  1  0
 35 59  1  0
 35 60  1  0
 36 61  1  0
 36 62  1  0
M  END
$$$$
