
     RDKit          3D

 67 70  0  0  0  0  0  0  0  0999 V2000
   -9.7467    2.0048    0.8503 C   0  0  0  0  0  0  0  0  0  0  0  0
   -8.9966    0.7833    0.3536 C   0  0  0  0  0  0  0  0  0  0  0  0
   -8.8228    0.9940   -1.1401 C   0  0  0  0  0  0  0  0  0  0  0  0
   -9.8039   -0.4603    0.5548 C   0  0  0  0  0  0  0  0  0  0  0  0
   -7.7259    0.7781    0.9942 O   0  0  0  0  0  0  0  0  0  0  0  0
   -6.8260   -0.2487    0.7752 C   0  0  0  0  0  0  0  0  0  0  0  0
   -7.2114   -1.1737   -0.0301 O   0  0  0  0  0  0  0  0  0  0  0  0
   -5.5417   -0.3554    1.3511 N   0  0  0  0  0  0  0  0  0  0  0  0
   -4.7559   -1.5455    1.0777 C   0  0  0  0  0  0  0  0  0  0  0  0
   -3.8198   -1.9282    2.2035 C   0  0  0  0  0  0  0  0  0  0  0  0
   -3.0194   -0.7676    2.7566 C   0  0  0  0  0  0  0  0  0  0  0  0
   -1.9417   -0.4571    1.7467 C   0  0  0  0  0  0  0  0  0  0  0  0
   -1.0362   -0.1966    0.8680 C   0  0  0  0  0  0  0  0  0  0  0  0
   -0.0516    0.0995   -0.0707 C   0  0  0  0  0  0  0  0  0  0  0  0
    0.4709    1.2689   -0.4755 C   0  0  0  0  0  0  0  0  0  0  0  0
    1.8025    1.3590   -0.9327 C   0  0  0  0  0  0  0  0  0  0  0  0
    2.6524    0.2807   -1.0017 C   0  0  0  0  0  0  0  0  0  0  0  0
    3.9967    0.3622   -1.3881 C   0  0  0  0  0  0  0  0  0  0  0  0
    4.4656    1.4562   -1.7414 O   0  0  0  0  0  0  0  0  0  0  0  0
    4.7724   -0.7844   -1.3726 C   0  0  0  0  0  0  0  0  0  0  0  0
    6.2389   -0.7556   -1.5776 C   0  0  0  0  0  0  0  0  0  0  0  0
    6.8377   -1.2888   -2.6719 C   0  0  0  0  0  0  0  0  0  0  0  0
    8.2353   -1.3112   -2.8527 C   0  0  0  0  0  0  0  0  0  0  0  0
    9.0509   -0.7543   -1.8423 C   0  0  0  0  0  0  0  0  0  0  0  0
   10.4651   -0.7141   -2.1605 N   0  0  0  0  0  0  0  0  0  0  0  0
   11.1981    0.8341   -2.3161 S   0  0  0  0  0  6  0  0  0  0  0  0
   11.2860    1.8566   -0.9103 C   0  0  0  0  0  0  0  0  0  0  0  0
   12.4681    0.8407   -3.0989 O   0  0  0  0  0  0  0  0  0  0  0  0
   10.1555    1.5844   -3.2826 O   0  0  0  0  0  0  0  0  0  0  0  0
    8.4407   -0.2365   -0.7596 C   0  0  0  0  0  0  0  0  0  0  0  0
    7.0347   -0.2205   -0.5887 C   0  0  0  0  0  0  0  0  0  0  0  0
    4.1882   -1.9666   -0.9929 C   0  0  0  0  0  0  0  0  0  0  0  0
    2.9081   -2.0021   -0.6273 O   0  0  0  0  0  0  0  0  0  0  0  0
    2.1326   -0.9382   -0.6066 C   0  0  0  0  0  0  0  0  0  0  0  0
    0.8758   -1.0504   -0.1758 C   0  0  0  0  0  0  0  0  0  0  0  0
   -3.8058    0.4807    2.9654 C   0  0  0  0  0  0  0  0  0  0  0  0
   -5.0335    0.6868    2.1820 C   0  0  0  0  0  0  0  0  0  0  0  0
   -9.6298    2.0021    1.9419 H   0  0  0  0  0  0  0  0  0  0  0  0
   -9.3261    2.9043    0.3892 H   0  0  0  0  0  0  0  0  0  0  0  0
  -10.8371    1.9194    0.5730 H   0  0  0  0  0  0  0  0  0  0  0  0
   -9.6997    1.5875   -1.5392 H   0  0  0  0  0  0  0  0  0  0  0  0
   -8.7981    0.0535   -1.6859 H   0  0  0  0  0  0  0  0  0  0  0  0
   -7.9136    1.6457   -1.3328 H   0  0  0  0  0  0  0  0  0  0  0  0
  -10.8149   -0.1687    0.9382 H   0  0  0  0  0  0  0  0  0  0  0  0
   -9.3410   -1.0789    1.3777 H   0  0  0  0  0  0  0  0  0  0  0  0
   -9.9473   -1.0697   -0.3747 H   0  0  0  0  0  0  0  0  0  0  0  0
   -4.1414   -1.4703    0.1536 H   0  0  0  0  0  0  0  0  0  0  0  0
   -5.5002   -2.3756    1.0050 H   0  0  0  0  0  0  0  0  0  0  0  0
   -3.1090   -2.6922    1.8707 H   0  0  0  0  0  0  0  0  0  0  0  0
   -4.4254   -2.3960    2.9992 H   0  0  0  0  0  0  0  0  0  0  0  0
   -2.5780   -1.0821    3.7121 H   0  0  0  0  0  0  0  0  0  0  0  0
   -0.1690    2.1276   -0.4119 H   0  0  0  0  0  0  0  0  0  0  0  0
    2.1797    2.3259   -1.2768 H   0  0  0  0  0  0  0  0  0  0  0  0
    6.2100   -1.7207   -3.4324 H   0  0  0  0  0  0  0  0  0  0  0  0
    8.6702   -1.7142   -3.7027 H   0  0  0  0  0  0  0  0  0  0  0  0
   11.0415   -1.5618   -2.2869 H   0  0  0  0  0  0  0  0  0  0  0  0
   12.2030    1.6564   -0.2811 H   0  0  0  0  0  0  0  0  0  0  0  0
   10.4228    1.7071   -0.2333 H   0  0  0  0  0  0  0  0  0  0  0  0
   11.2478    2.9435   -1.2276 H   0  0  0  0  0  0  0  0  0  0  0  0
    8.9948    0.1761    0.0935 H   0  0  0  0  0  0  0  0  0  0  0  0
    6.6052    0.2037    0.2863 H   0  0  0  0  0  0  0  0  0  0  0  0
    4.6947   -2.9306   -0.9459 H   0  0  0  0  0  0  0  0  0  0  0  0
    0.4233   -1.9994    0.1340 H   0  0  0  0  0  0  0  0  0  0  0  0
   -4.0064    0.5617    4.0806 H   0  0  0  0  0  0  0  0  0  0  0  0
   -3.1076    1.3579    2.7155 H   0  0  0  0  0  0  0  0  0  0  0  0
   -5.8630    0.8989    2.9548 H   0  0  0  0  0  0  0  0  0  0  0  0
   -5.0226    1.6749    1.6288 H   0  0  0  0  0  0  0  0  0  0  0  0
  1  2  1  0
  2  3  1  0
  2  4  1  0
  2  5  1  0
  5  6  1  0
  6  7  2  0
  6  8  1  0
  8  9  1  0
  9 10  1  0
 10 11  1  0
 11 12  1  0
 12 13  3  0
 13 14  1  0
 14 15  2  0
 15 16  1  0
 16 17  2  0
 17 18  1  0
 18 19  2  0
 18 20  1  0
 20 21  1  0
 21 22  2  0
 22 23  1  0
 23 24  2  0
 24 25  1  0
 25 26  1  0
 26 27  1  0
 26 28  2  0
 26 29  2  0
 24 30  1  0
 30 31  2  0
 20 32  2  0
 32 33  1  0
 33 34  1  0
 34 35  2  0
 11 36  1  0
 36 37  1  0
 37  8  1  0
 35 14  1  0
 34 17  1  0
 31 21  1  0
  1 38  1  0
  1 39  1  0
  1 40  1  0
  3 41  1  0
  3 42  1  0
  3 43  1  0
  4 44  1  0
  4 45  1  0
  4 46  1  0
  9 47  1  0
  9 48  1  0
 10 49  1  0
 10 50  1  0
 11 51  1  0
 15 52  1  0
 16 53  1  0
 22 54  1  0
 23 55  1  0
 25 56  1  0
 27 57  1  0
 27 58  1  0
 27 59  1  0
 30 60  1  0
 31 61  1  0
 32 62  1  0
 35 63  1  0
 36 64  1  0
 36 65  1  0
 37 66  1  0
 37 67  1  0
M  END
$$$$
