
     RDKit          3D

 67 70  0  0  0  0  0  0  0  0999 V2000
   -5.1879    2.4572    2.4748 C   0  0  0  0  0  0  0  0  0  0  0  0
   -3.9611    1.7807    2.1087 N   0  0  0  0  0  0  0  0  0  0  0  0
   -4.2567    0.6007    1.3860 C   0  0  0  0  0  0  0  0  0  0  0  0
   -3.2143   -0.4795    1.7455 C   0  0  0  0  0  0  0  0  0  0  0  0
   -1.9435    0.1508    1.7548 N   0  0  0  0  0  0  0  0  0  0  0  0
   -0.9269    0.0557    0.8644 C   0  0  0  0  0  0  0  0  0  0  0  0
    0.1246    0.7928    1.2245 O   0  0  0  0  0  0  0  0  0  0  0  0
   -0.6875   -0.6416   -0.3956 C   0  0  1  0  0  0  0  0  0  0  0  0
   -1.7097   -0.3315   -1.4556 C   0  0  0  0  0  0  0  0  0  0  0  0
   -1.6504   -1.1175   -2.5384 O   0  0  0  0  0  0  0  0  0  0  0  0
   -1.8845   -2.4451   -2.5330 C   0  0  0  0  0  0  0  0  0  0  0  0
   -3.2442   -2.8434   -2.1342 C   0  0  0  0  0  0  0  0  0  0  0  0
   -4.3003   -2.8450   -3.0409 C   0  0  0  0  0  0  0  0  0  0  0  0
   -5.5773   -3.2538   -2.7325 C   0  0  0  0  0  0  0  0  0  0  0  0
   -5.8198   -3.6802   -1.4763 N   0  0  0  0  0  0  0  0  0  0  0  0
   -4.8220   -3.6895   -0.5675 C   0  0  0  0  0  0  0  0  0  0  0  0
   -5.1998   -4.2633    1.0508 Cl  0  0  0  0  0  0  0  0  0  0  0  0
   -3.5564   -3.2850   -0.8665 C   0  0  0  0  0  0  0  0  0  0  0  0
    0.6548   -0.3753   -0.8212 N   0  0  0  0  0  0  0  0  0  0  0  0
    1.3922   -0.6398   -1.9626 C   0  0  0  0  0  0  0  0  0  0  0  0
    0.7411   -1.2360   -2.8845 O   0  0  0  0  0  0  0  0  0  0  0  0
    2.7801   -0.3499   -2.2665 C   0  0  0  0  0  0  0  0  0  0  0  0
    3.2729   -0.6396   -3.5472 C   0  0  0  0  0  0  0  0  0  0  0  0
    4.5739   -0.3533   -3.8957 C   0  0  0  0  0  0  0  0  0  0  0  0
    5.3997    0.2259   -2.9668 C   0  0  0  0  0  0  0  0  0  0  0  0
    4.9493    0.5056   -1.7562 N   0  0  0  0  0  0  0  0  0  0  0  0
    3.6603    0.2198   -1.4143 C   0  0  0  0  0  0  0  0  0  0  0  0
    3.2943    0.5446   -0.1190 O   0  0  0  0  0  0  0  0  0  0  0  0
    4.2039    1.0797    0.7515 C   0  0  0  0  0  0  0  0  0  0  0  0
    4.5215    0.3319    1.8835 C   0  0  0  0  0  0  0  0  0  0  0  0
    5.4296    0.8448    2.7673 C   0  0  0  0  0  0  0  0  0  0  0  0
    6.0289    2.0821    2.5531 C   0  0  0  0  0  0  0  0  0  0  0  0
    7.0097    2.5922    3.5149 C   0  0  0  0  0  0  0  0  0  0  0  0
    7.7055    3.6467    2.9696 F   0  0  0  0  0  0  0  0  0  0  0  0
    6.2979    3.0628    4.6217 F   0  0  0  0  0  0  0  0  0  0  0  0
    7.8930    1.5943    3.8877 F   0  0  0  0  0  0  0  0  0  0  0  0
    5.7198    2.8331    1.4337 C   0  0  0  0  0  0  0  0  0  0  0  0
    4.7930    2.2814    0.5546 C   0  0  0  0  0  0  0  0  0  0  0  0
    4.3704    3.2152   -0.8764 Cl  0  0  0  0  0  0  0  0  0  0  0  0
   -1.7701    1.0502    2.9311 C   0  0  0  0  0  0  0  0  0  0  0  0
   -3.1342    1.6316    3.2791 C   0  0  0  0  0  0  0  0  0  0  0  0
   -5.6218    2.0004    3.4294 H   0  0  0  0  0  0  0  0  0  0  0  0
   -6.0071    2.3764    1.7496 H   0  0  0  0  0  0  0  0  0  0  0  0
   -5.0000    3.5580    2.6018 H   0  0  0  0  0  0  0  0  0  0  0  0
   -4.2694    0.6708    0.2988 H   0  0  0  0  0  0  0  0  0  0  0  0
   -5.2353    0.1476    1.7579 H   0  0  0  0  0  0  0  0  0  0  0  0
   -3.3677   -1.2921    1.0494 H   0  0  0  0  0  0  0  0  0  0  0  0
   -3.4689   -0.7830    2.8076 H   0  0  0  0  0  0  0  0  0  0  0  0
   -0.8515   -1.7548   -0.2430 H   0  0  0  0  0  0  0  0  0  0  0  0
   -2.7380   -0.4165   -1.0364 H   0  0  0  0  0  0  0  0  0  0  0  0
   -1.6031    0.7339   -1.8190 H   0  0  0  0  0  0  0  0  0  0  0  0
   -1.1164   -3.0196   -1.9372 H   0  0  0  0  0  0  0  0  0  0  0  0
   -1.7747   -2.8481   -3.5966 H   0  0  0  0  0  0  0  0  0  0  0  0
   -4.0092   -2.4894   -4.0410 H   0  0  0  0  0  0  0  0  0  0  0  0
   -6.3458   -3.2203   -3.5127 H   0  0  0  0  0  0  0  0  0  0  0  0
   -2.7303   -3.2883   -0.1335 H   0  0  0  0  0  0  0  0  0  0  0  0
    1.2322    0.1529   -0.0593 H   0  0  0  0  0  0  0  0  0  0  0  0
    2.6395   -1.0913   -4.2690 H   0  0  0  0  0  0  0  0  0  0  0  0
    4.9889   -0.5644   -4.8761 H   0  0  0  0  0  0  0  0  0  0  0  0
    6.4442    0.4835   -3.1676 H   0  0  0  0  0  0  0  0  0  0  0  0
    4.0392   -0.6440    2.0514 H   0  0  0  0  0  0  0  0  0  0  0  0
    5.6854    0.2822    3.6415 H   0  0  0  0  0  0  0  0  0  0  0  0
    6.1925    3.7760    1.3032 H   0  0  0  0  0  0  0  0  0  0  0  0
   -1.3715    0.5246    3.7901 H   0  0  0  0  0  0  0  0  0  0  0  0
   -1.1245    1.9042    2.6498 H   0  0  0  0  0  0  0  0  0  0  0  0
   -2.9458    2.6616    3.6697 H   0  0  0  0  0  0  0  0  0  0  0  0
   -3.6107    1.0292    4.0637 H   0  0  0  0  0  0  0  0  0  0  0  0
  1  2  1  0
  2  3  1  0
  3  4  1  0
  4  5  1  0
  5  6  1  0
  6  7  2  0
  6  8  1  0
  8  9  1  0
  9 10  1  0
 10 11  1  0
 11 12  1  0
 12 13  2  0
 13 14  1  0
 14 15  2  0
 15 16  1  0
 16 17  1  0
 16 18  2  0
  8 19  1  0
 19 20  1  0
 20 21  2  0
 20 22  1  0
 22 23  2  0
 23 24  1  0
 24 25  2  0
 25 26  1  0
 26 27  2  0
 27 28  1  0
 28 29  1  0
 29 30  2  0
 30 31  1  0
 31 32  2  0
 32 33  1  0
 33 34  1  0
 33 35  1  0
 33 36  1  0
 32 37  1  0
 37 38  2  0
 38 39  1  0
  5 40  1  0
 40 41  1  0
 41  2  1  0
 18 12  1  0
 27 22  1  0
 38 29  1  0
  1 42  1  0
  1 43  1  0
  1 44  1  0
  3 45  1  0
  3 46  1  0
  4 47  1  0
  4 48  1  0
  8 49  1  1
  9 50  1  0
  9 51  1  0
 11 52  1  0
 11 53  1  0
 13 54  1  0
 14 55  1  0
 18 56  1  0
 19 57  1  0
 23 58  1  0
 24 59  1  0
 25 60  1  0
 30 61  1  0
 31 62  1  0
 37 63  1  0
 40 64  1  0
 40 65  1  0
 41 66  1  0
 41 67  1  0
M  END
$$$$
