
     RDKit          3D

 74 77  0  0  0  0  0  0  0  0999 V2000
   -1.4781   -1.3399   -1.7495 C   0  0  1  0  0  0  0  0  0  0  0  0
   -0.9008   -1.4991   -3.2005 C   0  0  0  0  0  0  0  0  0  0  0  0
    0.5003   -0.9628   -3.1540 C   0  0  0  0  0  0  0  0  0  0  0  0
    0.7161   -0.8420   -1.7090 C   0  0  1  0  0  0  0  0  0  0  0  0
    1.7789   -0.0202   -1.1727 C   0  0  2  0  0  0  0  0  0  0  0  0
    3.1188   -0.1616   -1.8683 C   0  0  0  0  0  0  0  0  0  0  0  0
    4.0325    0.7581   -1.1433 C   0  0  0  0  0  0  0  0  0  0  0  0
    3.9432    0.9449    0.1682 C   0  0  0  0  0  0  0  0  0  0  0  0
    4.8987    1.8887    0.8415 C   0  0  0  0  0  0  0  0  0  0  0  0
    5.6895    1.0240    1.8000 C   0  0  1  0  0  0  0  0  0  0  0  0
    5.8018    1.5645    3.0720 O   0  0  0  0  0  0  0  0  0  0  0  0
    5.2592   -0.4069    1.8285 C   0  0  0  0  0  0  0  0  0  0  0  0
    3.7982   -0.6486    1.9493 C   0  0  0  0  0  0  0  0  0  0  0  0
    2.9411    0.2726    1.0637 C   0  0  1  0  0  0  0  0  0  0  0  0
    2.3159    1.2422    2.0220 C   0  0  0  0  0  0  0  0  0  0  0  0
    1.9975   -0.5153    0.2605 C   0  0  1  0  0  0  0  0  0  0  0  0
    0.6216   -0.7411    0.8051 C   0  0  0  0  0  0  0  0  0  0  0  0
   -0.4399    0.0947    0.1160 C   0  0  0  0  0  0  0  0  0  0  0  0
   -0.6539   -0.2306   -1.3037 C   0  0  2  0  0  0  0  0  0  0  0  0
   -0.7461    1.0169   -2.1752 C   0  0  0  0  0  0  0  0  0  0  0  0
   -2.9257   -1.3607   -1.8622 C   0  0  2  0  0  0  0  0  0  0  0  0
   -3.6072   -0.2829   -2.6699 C   0  0  0  0  0  0  0  0  0  0  0  0
   -3.7845   -1.8549   -0.7547 C   0  0  0  0  0  0  0  0  0  0  0  0
   -3.7579   -1.1876    0.5613 C   0  0  0  0  0  0  0  0  0  0  0  0
   -4.1469    0.2489    0.6059 C   0  0  0  0  0  0  0  0  0  0  0  0
   -4.0704    0.8064    2.0359 C   0  0  0  0  0  0  0  0  0  0  0  0
   -4.9952    0.0527    2.9651 C   0  0  0  0  0  0  0  0  0  0  0  0
   -4.4725    2.2651    1.9454 C   0  0  0  0  0  0  0  0  0  0  0  0
   -1.1380   -2.2656   -1.2428 H   0  0  0  0  0  0  0  0  0  0  0  0
   -0.9411   -2.5763   -3.4655 H   0  0  0  0  0  0  0  0  0  0  0  0
   -1.5248   -0.9754   -3.9277 H   0  0  0  0  0  0  0  0  0  0  0  0
    1.1658   -1.7849   -3.5449 H   0  0  0  0  0  0  0  0  0  0  0  0
    0.6712   -0.0971   -3.7915 H   0  0  0  0  0  0  0  0  0  0  0  0
    0.6900   -1.8686   -1.2866 H   0  0  0  0  0  0  0  0  0  0  0  0
    1.6268    1.0697   -1.0620 H   0  0  0  0  0  0  0  0  0  0  0  0
    3.5057   -1.1996   -1.6934 H   0  0  0  0  0  0  0  0  0  0  0  0
    3.0415    0.0804   -2.9385 H   0  0  0  0  0  0  0  0  0  0  0  0
    4.7854    1.2794   -1.7270 H   0  0  0  0  0  0  0  0  0  0  0  0
    4.4092    2.7520    1.3071 H   0  0  0  0  0  0  0  0  0  0  0  0
    5.5572    2.3440    0.0438 H   0  0  0  0  0  0  0  0  0  0  0  0
    6.7493    1.0118    1.4031 H   0  0  0  0  0  0  0  0  0  0  0  0
    6.5111    1.0864    3.5435 H   0  0  0  0  0  0  0  0  0  0  0  0
    5.7281   -1.0070    0.9936 H   0  0  0  0  0  0  0  0  0  0  0  0
    5.7298   -0.8483    2.7421 H   0  0  0  0  0  0  0  0  0  0  0  0
    3.6032   -1.7012    1.6206 H   0  0  0  0  0  0  0  0  0  0  0  0
    3.5039   -0.6154    3.0052 H   0  0  0  0  0  0  0  0  0  0  0  0
    1.8606    0.6355    2.8544 H   0  0  0  0  0  0  0  0  0  0  0  0
    1.6616    1.9932    1.5954 H   0  0  0  0  0  0  0  0  0  0  0  0
    3.1245    1.8094    2.5486 H   0  0  0  0  0  0  0  0  0  0  0  0
    2.4569   -1.5365    0.1051 H   0  0  0  0  0  0  0  0  0  0  0  0
    0.3001   -1.8012    0.7010 H   0  0  0  0  0  0  0  0  0  0  0  0
    0.5403   -0.5293    1.8879 H   0  0  0  0  0  0  0  0  0  0  0  0
   -1.2733    0.1857    0.7889 H   0  0  0  0  0  0  0  0  0  0  0  0
    0.0106    1.1457    0.1094 H   0  0  0  0  0  0  0  0  0  0  0  0
   -1.1884    1.8725   -1.5897 H   0  0  0  0  0  0  0  0  0  0  0  0
   -1.2769    0.8495   -3.1290 H   0  0  0  0  0  0  0  0  0  0  0  0
    0.2411    1.4093   -2.4929 H   0  0  0  0  0  0  0  0  0  0  0  0
   -3.0622   -2.2518   -2.6424 H   0  0  0  0  0  0  0  0  0  0  0  0
   -3.5097    0.7285   -2.2999 H   0  0  0  0  0  0  0  0  0  0  0  0
   -4.7087   -0.5227   -2.5614 H   0  0  0  0  0  0  0  0  0  0  0  0
   -3.4602   -0.3872   -3.7649 H   0  0  0  0  0  0  0  0  0  0  0  0
   -4.8852   -1.8691   -1.0616 H   0  0  0  0  0  0  0  0  0  0  0  0
   -3.5938   -2.9784   -0.6382 H   0  0  0  0  0  0  0  0  0  0  0  0
   -2.8543   -1.4568    1.1437 H   0  0  0  0  0  0  0  0  0  0  0  0
   -4.5827   -1.7174    1.1682 H   0  0  0  0  0  0  0  0  0  0  0  0
   -5.1559    0.4501    0.2202 H   0  0  0  0  0  0  0  0  0  0  0  0
   -3.4033    0.8467    0.0522 H   0  0  0  0  0  0  0  0  0  0  0  0
   -3.0234    0.7335    2.3409 H   0  0  0  0  0  0  0  0  0  0  0  0
   -5.7437   -0.5206    2.4168 H   0  0  0  0  0  0  0  0  0  0  0  0
   -5.4517    0.8056    3.6480 H   0  0  0  0  0  0  0  0  0  0  0  0
   -4.3457   -0.5786    3.6169 H   0  0  0  0  0  0  0  0  0  0  0  0
   -3.6011    2.9089    2.1073 H   0  0  0  0  0  0  0  0  0  0  0  0
   -4.8906    2.5258    0.9499 H   0  0  0  0  0  0  0  0  0  0  0  0
   -5.2935    2.4399    2.6685 H   0  0  0  0  0  0  0  0  0  0  0  0
  1  2  1  0
  2  3  1  0
  3  4  1  0
  4  5  1  0
  5  6  1  0
  6  7  1  0
  7  8  2  0
  8  9  1  0
  9 10  1  0
 10 11  1  0
 10 12  1  0
 12 13  1  0
 13 14  1  0
 14 15  1  1
 14 16  1  0
 16 17  1  0
 17 18  1  0
 18 19  1  0
 19 20  1  6
  1 21  1  0
 21 22  1  0
 21 23  1  0
 23 24  1  0
 24 25  1  0
 25 26  1  0
 26 27  1  0
 26 28  1  0
 19  1  1  0
 19  4  1  0
 16  5  1  0
 14  8  1  0
  1 29  1  1
  2 30  1  0
  2 31  1  0
  3 32  1  0
  3 33  1  0
  4 34  1  1
  5 35  1  1
  6 36  1  0
  6 37  1  0
  7 38  1  0
  9 39  1  0
  9 40  1  0
 10 41  1  6
 11 42  1  0
 12 43  1  0
 12 44  1  0
 13 45  1  0
 13 46  1  0
 15 47  1  0
 15 48  1  0
 15 49  1  0
 16 50  1  6
 17 51  1  0
 17 52  1  0
 18 53  1  0
 18 54  1  0
 20 55  1  0
 20 56  1  0
 20 57  1  0
 21 58  1  6
 22 59  1  0
 22 60  1  0
 22 61  1  0
 23 62  1  0
 23 63  1  0
 24 64  1  0
 24 65  1  0
 25 66  1  0
 25 67  1  0
 26 68  1  0
 27 69  1  0
 27 70  1  0
 27 71  1  0
 28 72  1  0
 28 73  1  0
 28 74  1  0
M  END
$$$$
