
     RDKit          3D

 40 43  0  0  0  0  0  0  0  0999 V2000
   -2.9734   -4.4388   -0.1735 C   0  0  0  0  0  0  0  0  0  0  0  0
   -2.4950   -3.0690   -0.0174 N   0  0  0  0  0  0  0  0  0  0  0  0
   -1.2815   -2.6708    0.3631 C   0  0  0  0  0  0  0  0  0  0  0  0
   -1.3185   -1.2738    0.4009 C   0  0  0  0  0  0  0  0  0  0  0  0
   -0.2096   -0.4750    0.7533 N   0  0  0  0  0  0  0  0  0  0  0  0
    0.7659   -0.0381   -0.2064 C   0  0  0  0  0  0  0  0  0  0  0  0
    0.6897   -0.3373   -1.4007 O   0  0  0  0  0  0  0  0  0  0  0  0
    1.8421    0.7803    0.3468 C   0  0  0  0  0  0  0  0  0  0  0  0
    1.6825    1.8509    1.2393 C   0  0  0  0  0  0  0  0  0  0  0  0
    2.8861    2.3548    1.5314 N   0  0  0  0  0  0  0  0  0  0  0  0
    3.8077    1.6563    0.8673 N   0  0  0  0  0  0  0  0  0  0  0  0
    5.1440    1.7914    0.8442 C   0  0  0  0  0  0  0  0  0  0  0  0
    5.8768    0.9196    0.0607 C   0  0  0  0  0  0  0  0  0  0  0  0
    5.2616   -0.0880   -0.6961 C   0  0  0  0  0  0  0  0  0  0  0  0
    6.0560   -0.9709   -1.4716 N   0  0  0  0  0  0  0  0  0  0  0  0
    3.9325   -0.1578   -0.6235 N   0  0  0  0  0  0  0  0  0  0  0  0
    3.1874    0.6976    0.1448 C   0  0  0  0  0  0  0  0  0  0  0  0
   -2.5712   -0.8654    0.0353 C   0  0  0  0  0  0  0  0  0  0  0  0
   -3.1554    0.4749   -0.0819 C   0  0  0  0  0  0  0  0  0  0  0  0
   -3.4095    1.1572    1.1144 C   0  0  0  0  0  0  0  0  0  0  0  0
   -4.0477    2.3587    1.1143 C   0  0  0  0  0  0  0  0  0  0  0  0
   -4.4120    3.2285    2.6143 Cl  0  0  0  0  0  0  0  0  0  0  0  0
   -4.4638    2.9517   -0.0462 C   0  0  0  0  0  0  0  0  0  0  0  0
   -4.2091    2.2783   -1.2323 C   0  0  0  0  0  0  0  0  0  0  0  0
   -3.5634    1.0621   -1.2390 C   0  0  0  0  0  0  0  0  0  0  0  0
   -3.2284    0.2467   -2.7671 Cl  0  0  0  0  0  0  0  0  0  0  0  0
   -3.2833   -2.0139   -0.2215 N   0  0  0  0  0  0  0  0  0  0  0  0
   -2.1867   -5.0925   -0.5529 H   0  0  0  0  0  0  0  0  0  0  0  0
   -3.2717   -4.8297    0.8482 H   0  0  0  0  0  0  0  0  0  0  0  0
   -3.8607   -4.4615   -0.8218 H   0  0  0  0  0  0  0  0  0  0  0  0
   -0.4317   -3.3143    0.5892 H   0  0  0  0  0  0  0  0  0  0  0  0
   -0.1051   -0.1975    1.7582 H   0  0  0  0  0  0  0  0  0  0  0  0
    0.6754    2.1482    1.5825 H   0  0  0  0  0  0  0  0  0  0  0  0
    5.5882    2.5723    1.4330 H   0  0  0  0  0  0  0  0  0  0  0  0
    6.9481    1.0134    0.0307 H   0  0  0  0  0  0  0  0  0  0  0  0
    6.4985   -0.6260   -2.3522 H   0  0  0  0  0  0  0  0  0  0  0  0
    6.2414   -1.9813   -1.2216 H   0  0  0  0  0  0  0  0  0  0  0  0
   -3.1035    0.7418    2.0593 H   0  0  0  0  0  0  0  0  0  0  0  0
   -4.9798    3.9012   -0.1135 H   0  0  0  0  0  0  0  0  0  0  0  0
   -4.5229    2.7157   -2.1640 H   0  0  0  0  0  0  0  0  0  0  0  0
  1  2  1  0
  2  3  1  0
  3  4  2  0
  4  5  1  0
  5  6  1  0
  6  7  2  0
  6  8  1  0
  8  9  1  0
  9 10  2  0
 10 11  1  0
 11 12  1  0
 12 13  2  0
 13 14  1  0
 14 15  1  0
 14 16  2  0
 16 17  1  0
  4 18  1  0
 18 19  1  0
 19 20  2  0
 20 21  1  0
 21 22  1  0
 21 23  2  0
 23 24  1  0
 24 25  2  0
 25 26  1  0
 18 27  2  0
 27  2  1  0
 17  8  2  0
 25 19  1  0
 17 11  1  0
  1 28  1  0
  1 29  1  0
  1 30  1  0
  3 31  1  0
  5 32  1  0
  9 33  1  0
 12 34  1  0
 13 35  1  0
 15 36  1  0
 15 37  1  0
 20 38  1  0
 23 39  1  0
 24 40  1  0
M  END
$$$$
