
     RDKit          3D

 52 55  0  0  0  0  0  0  0  0999 V2000
    8.8891   -1.9565    0.3521 C   0  0  0  0  0  0  0  0  0  0  0  0
    8.4361   -3.0579    0.6415 C   0  0  0  0  0  0  0  0  0  0  0  0
    7.9176   -4.3338    0.9776 C   0  0  0  0  0  0  0  0  0  0  0  0
    6.6693   -4.2355    1.7258 O   0  0  0  0  0  0  0  0  0  0  0  0
    5.5973   -3.5087    1.3004 C   0  0  0  0  0  0  0  0  0  0  0  0
    4.4326   -3.4072    2.0293 C   0  0  0  0  0  0  0  0  0  0  0  0
    3.4213   -2.6660    1.6175 N   0  0  0  0  0  0  0  0  0  0  0  0
    3.4415   -1.9290    0.4265 C   0  0  0  0  0  0  0  0  0  0  0  0
    2.3956   -0.9964    0.2778 C   0  0  0  0  0  0  0  0  0  0  0  0
    1.4101   -0.8580    1.2452 F   0  0  0  0  0  0  0  0  0  0  0  0
    2.2185   -0.1594   -0.7794 C   0  0  0  0  0  0  0  0  0  0  0  0
    1.0444    0.7081   -0.6489 C   0  0  0  0  0  0  0  0  0  0  0  0
    1.2708    2.0297   -0.4509 C   0  0  0  0  0  0  0  0  0  0  0  0
    0.3393    2.9903   -0.1903 C   0  0  0  0  0  0  0  0  0  0  0  0
   -1.0404    2.5530   -0.1237 C   0  0  0  0  0  0  0  0  0  0  0  0
   -1.9316    3.5288    0.2016 F   0  0  0  0  0  0  0  0  0  0  0  0
   -1.2696    1.2473   -0.3201 C   0  0  0  0  0  0  0  0  0  0  0  0
   -2.7007    0.7826   -0.1036 C   0  0  1  0  0  0  0  0  0  0  0  0
   -2.6173   -0.7735   -0.1059 C   0  0  0  0  0  0  0  0  0  0  0  0
   -2.9596    1.1438    1.2297 N   0  0  0  0  0  0  0  0  0  0  0  0
   -4.0368    1.4999    1.8256 C   0  0  0  0  0  0  0  0  0  0  0  0
   -4.0357    1.8265    3.2261 N   0  0  0  0  0  0  0  0  0  0  0  0
   -5.4769    1.5555    0.8128 S   0  0  0  0  0  0  0  0  0  0  0  0
   -4.9699    1.4555   -0.8908 C   0  0  1  0  0  0  0  0  0  0  0  0
   -6.1019    1.1377   -1.8448 C   0  0  0  0  0  0  0  0  0  0  0  0
   -7.0524    2.2590   -2.2272 C   0  0  0  0  0  0  0  0  0  0  0  0
   -6.2883    0.0746   -2.3158 O   0  0  0  0  0  0  0  0  0  0  0  0
   -4.0834    2.5304   -1.4979 C   0  0  0  0  0  0  0  0  0  0  0  0
   -3.5715    1.1524   -1.1922 C   0  0  1  0  0  0  0  0  0  0  0  0
   -0.2756    0.2952   -0.5867 C   0  0  0  0  0  0  0  0  0  0  0  0
    4.6186   -2.0988   -0.2424 C   0  0  0  0  0  0  0  0  0  0  0  0
    5.6739   -2.8281    0.1149 N   0  0  0  0  0  0  0  0  0  0  0  0
    9.2968   -0.9126    0.0755 H   0  0  0  0  0  0  0  0  0  0  0  0
    7.7624   -4.9602    0.1198 H   0  0  0  0  0  0  0  0  0  0  0  0
    8.6431   -4.8133    1.7026 H   0  0  0  0  0  0  0  0  0  0  0  0
    4.3793   -3.9664    2.9633 H   0  0  0  0  0  0  0  0  0  0  0  0
    2.9126   -0.1968   -1.5762 H   0  0  0  0  0  0  0  0  0  0  0  0
    2.3436    2.3525   -0.4729 H   0  0  0  0  0  0  0  0  0  0  0  0
    0.4720    4.0257   -0.0087 H   0  0  0  0  0  0  0  0  0  0  0  0
   -2.4142   -1.1542   -1.1115 H   0  0  0  0  0  0  0  0  0  0  0  0
   -3.5695   -1.1954    0.2266 H   0  0  0  0  0  0  0  0  0  0  0  0
   -1.8269   -1.0330    0.6614 H   0  0  0  0  0  0  0  0  0  0  0  0
   -3.4984    2.6609    3.5449 H   0  0  0  0  0  0  0  0  0  0  0  0
   -4.5436    1.2313    3.8792 H   0  0  0  0  0  0  0  0  0  0  0  0
   -7.2963    2.1348   -3.3042 H   0  0  0  0  0  0  0  0  0  0  0  0
   -7.9129    2.1557   -1.5500 H   0  0  0  0  0  0  0  0  0  0  0  0
   -6.5270    3.2311   -2.1038 H   0  0  0  0  0  0  0  0  0  0  0  0
   -4.0743    3.4074   -0.8658 H   0  0  0  0  0  0  0  0  0  0  0  0
   -4.2551    2.8395   -2.5875 H   0  0  0  0  0  0  0  0  0  0  0  0
   -3.4511    0.5153   -2.1282 H   0  0  0  0  0  0  0  0  0  0  0  0
   -0.4750   -0.7350   -0.7384 H   0  0  0  0  0  0  0  0  0  0  0  0
    4.6702   -1.5492   -1.2097 H   0  0  0  0  0  0  0  0  0  0  0  0
  1  2  3  0
  2  3  1  0
  3  4  1  0
  4  5  1  0
  5  6  2  0
  6  7  1  0
  7  8  2  0
  8  9  1  0
  9 10  1  0
  9 11  2  0
 11 12  1  0
 12 13  2  0
 13 14  1  0
 14 15  2  0
 15 16  1  0
 15 17  1  0
 17 18  1  0
 18 19  1  1
 18 20  1  0
 20 21  2  0
 21 22  1  0
 21 23  1  0
 23 24  1  0
 24 25  1  6
 25 26  1  0
 25 27  2  0
 24 28  1  0
 28 29  1  0
 17 30  2  0
  8 31  1  0
 31 32  2  0
 32  5  1  0
 30 12  1  0
 29 18  1  0
 29 24  1  0
  1 33  1  0
  3 34  1  0
  3 35  1  0
  6 36  1  0
 11 37  1  0
 13 38  1  0
 14 39  1  0
 19 40  1  0
 19 41  1  0
 19 42  1  0
 22 43  1  0
 22 44  1  0
 26 45  1  0
 26 46  1  0
 26 47  1  0
 28 48  1  0
 28 49  1  0
 29 50  1  6
 30 51  1  0
 31 52  1  0
M  END
$$$$
