
     RDKit          3D

 58 63  0  0  0  0  0  0  0  0999 V2000
   -0.9014   -2.2728    2.8764 N   0  0  0  0  0  0  0  0  0  0  0  0
   -0.7971   -1.7339    1.5654 C   0  0  0  0  0  0  0  0  0  0  0  0
   -0.6218   -0.5185    1.3198 N   0  0  0  0  0  0  0  0  0  0  0  0
   -0.4916    0.2264    0.1277 C   0  0  0  0  0  0  0  0  0  0  0  0
   -0.3663   -0.5137   -1.1592 C   0  0  0  0  0  0  0  0  0  0  0  0
    0.0447   -1.9295   -1.1464 C   0  0  0  0  0  0  0  0  0  0  0  0
   -0.9124   -2.8105    0.1164 S   0  0  0  0  0  0  0  0  0  0  0  0
    0.7217    1.0804    0.2774 C   0  0  0  0  0  0  0  0  0  0  0  0
    1.9628    0.4331    0.4447 C   0  0  0  0  0  0  0  0  0  0  0  0
    3.1325    1.1496    0.5668 C   0  0  0  0  0  0  0  0  0  0  0  0
    4.3710    0.4660    0.7342 N   0  0  0  0  0  0  0  0  0  0  0  0
    5.1881    0.0620   -0.3467 C   0  0  0  0  0  0  0  0  0  0  0  0
    4.8023    0.3189   -1.5125 O   0  0  0  0  0  0  0  0  0  0  0  0
    6.4541   -0.6371   -0.1663 C   0  0  0  0  0  0  0  0  0  0  0  0
    7.2101   -1.0074   -1.2562 C   0  0  0  0  0  0  0  0  0  0  0  0
    8.4188   -1.6730   -1.1341 C   0  0  0  0  0  0  0  0  0  0  0  0
    8.8945   -1.9822    0.1128 C   0  0  0  0  0  0  0  0  0  0  0  0
   10.4052   -2.8152    0.2949 Cl  0  0  0  0  0  0  0  0  0  0  0  0
    8.1138   -1.5985    1.2071 C   0  0  0  0  0  0  0  0  0  0  0  0
    6.9405   -0.9509    1.0481 N   0  0  0  0  0  0  0  0  0  0  0  0
    3.0390    2.5231    0.5192 C   0  0  0  0  0  0  0  0  0  0  0  0
    1.8385    3.1754    0.3578 C   0  0  0  0  0  0  0  0  0  0  0  0
    0.6434    2.4377    0.2338 C   0  0  0  0  0  0  0  0  0  0  0  0
   -0.5396    3.1291    0.0798 O   0  0  0  0  0  0  0  0  0  0  0  0
   -1.7154    2.4166   -0.0359 C   0  0  0  0  0  0  0  0  0  0  0  0
   -1.7276    1.0565   -0.0028 C   0  0  0  0  0  0  0  0  0  0  0  0
   -2.9437    0.3706   -0.1194 C   0  0  0  0  0  0  0  0  0  0  0  0
   -4.1398    1.0320   -0.2688 C   0  0  0  0  0  0  0  0  0  0  0  0
   -5.4276    0.3923   -0.3945 C   0  0  0  0  0  0  0  0  0  0  0  0
   -5.5988   -0.9218   -0.3793 C   0  0  0  0  0  0  0  0  0  0  0  0
   -6.9952   -1.4114   -0.5209 C   0  0  0  0  0  0  0  0  0  0  0  0
   -7.8958   -0.7450    0.2669 O   0  0  0  0  0  0  0  0  0  0  0  0
   -7.6984    0.6040    0.3828 C   0  0  0  0  0  0  0  0  0  0  0  0
   -6.6958    1.1850   -0.5551 C   0  0  0  0  0  0  0  0  0  0  0  0
   -4.0939    2.3758   -0.2986 N   0  0  0  0  0  0  0  0  0  0  0  0
   -2.9464    3.0656   -0.1893 C   0  0  0  0  0  0  0  0  0  0  0  0
   -2.9076    4.4171   -0.2201 F   0  0  0  0  0  0  0  0  0  0  0  0
   -1.7977   -2.7101    3.1587 H   0  0  0  0  0  0  0  0  0  0  0  0
   -0.1093   -2.2373    3.5460 H   0  0  0  0  0  0  0  0  0  0  0  0
    0.3831    0.0433   -1.8095 H   0  0  0  0  0  0  0  0  0  0  0  0
   -1.3026   -0.4442   -1.7791 H   0  0  0  0  0  0  0  0  0  0  0  0
   -0.2807   -2.3784   -2.1250 H   0  0  0  0  0  0  0  0  0  0  0  0
    1.1347   -2.1244   -1.0450 H   0  0  0  0  0  0  0  0  0  0  0  0
    2.0145   -0.6397    0.4910 H   0  0  0  0  0  0  0  0  0  0  0  0
    4.7400    0.2261    1.7021 H   0  0  0  0  0  0  0  0  0  0  0  0
    6.8182   -0.7540   -2.2494 H   0  0  0  0  0  0  0  0  0  0  0  0
    9.0122   -1.9628   -2.0096 H   0  0  0  0  0  0  0  0  0  0  0  0
    8.5184   -1.8580    2.1787 H   0  0  0  0  0  0  0  0  0  0  0  0
    3.9544    3.0820    0.6142 H   0  0  0  0  0  0  0  0  0  0  0  0
    1.7593    4.2599    0.3198 H   0  0  0  0  0  0  0  0  0  0  0  0
   -2.9694   -0.6889   -0.0945 H   0  0  0  0  0  0  0  0  0  0  0  0
   -4.7778   -1.5831   -0.2714 H   0  0  0  0  0  0  0  0  0  0  0  0
   -7.0001   -2.4889   -0.2089 H   0  0  0  0  0  0  0  0  0  0  0  0
   -7.3022   -1.4379   -1.6039 H   0  0  0  0  0  0  0  0  0  0  0  0
   -8.6676    1.1521    0.2647 H   0  0  0  0  0  0  0  0  0  0  0  0
   -7.3167    0.7912    1.4280 H   0  0  0  0  0  0  0  0  0  0  0  0
   -6.5339    2.2474   -0.2625 H   0  0  0  0  0  0  0  0  0  0  0  0
   -7.0416    1.1100   -1.6134 H   0  0  0  0  0  0  0  0  0  0  0  0
  1  2  1  0
  2  3  2  0
  3  4  1  0
  4  5  1  0
  5  6  1  0
  6  7  1  0
  4  8  1  0
  8  9  2  0
  9 10  1  0
 10 11  1  0
 11 12  1  0
 12 13  2  0
 12 14  1  0
 14 15  2  0
 15 16  1  0
 16 17  2  0
 17 18  1  0
 17 19  1  0
 19 20  2  0
 10 21  2  0
 21 22  1  0
 22 23  2  0
 23 24  1  0
 24 25  1  0
 25 26  2  0
 26 27  1  0
 27 28  2  0
 28 29  1  0
 29 30  2  0
 30 31  1  0
 31 32  1  0
 32 33  1  0
 33 34  1  0
 28 35  1  0
 35 36  2  0
 36 37  1  0
  7  2  1  0
 23  8  1  0
 36 25  1  0
 26  4  1  0
 34 29  1  0
 20 14  1  0
  1 38  1  0
  1 39  1  0
  5 40  1  0
  5 41  1  0
  6 42  1  0
  6 43  1  0
  9 44  1  0
 11 45  1  0
 15 46  1  0
 16 47  1  0
 19 48  1  0
 21 49  1  0
 22 50  1  0
 27 51  1  0
 30 52  1  0
 31 53  1  0
 31 54  1  0
 33 55  1  0
 33 56  1  0
 34 57  1  0
 34 58  1  0
M  END
$$$$
