
     RDKit          3D

 50 53  0  0  0  0  0  0  0  0999 V2000
    2.0039   -1.2132    1.3549 O   0  0  0  0  0  0  0  0  0  0  0  0
    1.8187   -0.5976    0.3311 C   0  0  0  0  0  0  0  0  0  0  0  0
    0.4323   -0.6959   -0.3438 C   0  0  0  0  0  0  0  0  0  0  0  0
   -0.4152   -1.5944    0.4657 C   0  0  0  0  0  0  0  0  0  0  0  0
   -1.7535   -1.8143   -0.0042 C   0  0  0  0  0  0  0  0  0  0  0  0
   -2.2325   -2.8845   -0.6373 N   0  0  0  0  0  0  0  0  0  0  0  0
   -3.4921   -2.7240   -0.9124 O   0  0  0  0  0  0  0  0  0  0  0  0
   -3.9044   -1.5451   -0.4769 C   0  0  0  0  0  0  0  0  0  0  0  0
   -2.8363   -0.9322    0.1080 C   0  0  0  0  0  0  0  0  0  0  0  0
   -2.9145    0.3556    0.7369 C   0  0  0  0  0  0  0  0  0  0  0  0
   -4.1424    1.1344    0.5765 C   0  0  0  0  0  0  0  0  0  0  0  0
   -5.2744    0.3802    0.0201 C   0  0  0  0  0  0  0  0  0  0  0  0
   -6.5480    0.9873   -0.0015 C   0  0  0  0  0  0  0  0  0  0  0  0
   -7.6447    0.3691   -0.5394 C   0  0  0  0  0  0  0  0  0  0  0  0
   -8.9058    0.9874   -0.5531 O   0  0  0  0  0  0  0  0  0  0  0  0
   -7.5126   -0.9054   -1.0882 C   0  0  0  0  0  0  0  0  0  0  0  0
   -6.2718   -1.5126   -1.0733 C   0  0  0  0  0  0  0  0  0  0  0  0
   -5.2043   -0.8762   -0.5332 C   0  0  0  0  0  0  0  0  0  0  0  0
    2.8124    0.1781   -0.2330 N   0  0  0  0  0  0  0  0  0  0  0  0
    4.0953    0.5969   -0.0941 C   0  0  0  0  0  0  0  0  0  0  0  0
    5.0888    0.4502    0.7147 C   0  0  0  0  0  0  0  0  0  0  0  0
    5.0006   -0.3526    1.8568 C   0  0  0  0  0  0  0  0  0  0  0  0
    4.0952   -0.9985    2.3180 O   0  0  0  0  0  0  0  0  0  0  0  0
    6.1931   -0.4482    2.6446 O   0  0  0  0  0  0  0  0  0  0  0  0
    6.4002    1.1820    0.4452 C   0  0  0  0  0  0  0  0  0  0  0  0
    6.8898    0.8882   -0.9290 C   0  0  0  0  0  0  0  0  0  0  0  0
    5.7190    0.8083   -1.8757 C   0  0  0  0  0  0  0  0  0  0  0  0
    4.5592    1.5489   -1.2744 C   0  0  0  0  0  0  0  0  0  0  0  0
    0.0986    0.3391   -0.3753 H   0  0  0  0  0  0  0  0  0  0  0  0
    0.6377   -1.1587   -1.3089 H   0  0  0  0  0  0  0  0  0  0  0  0
    0.1716   -2.5348    0.6619 H   0  0  0  0  0  0  0  0  0  0  0  0
   -0.4882   -1.1285    1.4956 H   0  0  0  0  0  0  0  0  0  0  0  0
   -2.8438    0.1328    1.8706 H   0  0  0  0  0  0  0  0  0  0  0  0
   -1.9792    0.9814    0.6145 H   0  0  0  0  0  0  0  0  0  0  0  0
   -4.4488    1.6016    1.5721 H   0  0  0  0  0  0  0  0  0  0  0  0
   -3.9275    2.0140   -0.1265 H   0  0  0  0  0  0  0  0  0  0  0  0
   -6.6495    1.9688    0.4215 H   0  0  0  0  0  0  0  0  0  0  0  0
   -9.1622    1.7099    0.0779 H   0  0  0  0  0  0  0  0  0  0  0  0
   -8.3805   -1.3914   -1.5130 H   0  0  0  0  0  0  0  0  0  0  0  0
   -6.1493   -2.5076   -1.4971 H   0  0  0  0  0  0  0  0  0  0  0  0
    2.3538    0.6269   -1.1843 H   0  0  0  0  0  0  0  0  0  0  0  0
    6.3058   -1.3218    3.1758 H   0  0  0  0  0  0  0  0  0  0  0  0
    7.1262    0.8935    1.2400 H   0  0  0  0  0  0  0  0  0  0  0  0
    6.2201    2.2584    0.5915 H   0  0  0  0  0  0  0  0  0  0  0  0
    7.4269   -0.0930   -0.8782 H   0  0  0  0  0  0  0  0  0  0  0  0
    7.5778    1.6879   -1.2949 H   0  0  0  0  0  0  0  0  0  0  0  0
    5.4714   -0.2736   -2.0345 H   0  0  0  0  0  0  0  0  0  0  0  0
    6.0088    1.2879   -2.8273 H   0  0  0  0  0  0  0  0  0  0  0  0
    4.8423    2.4633   -0.7985 H   0  0  0  0  0  0  0  0  0  0  0  0
    3.7320    1.6721   -1.9692 H   0  0  0  0  0  0  0  0  0  0  0  0
  1  2  2  0
  2  3  1  0
  3  4  1  0
  4  5  1  0
  5  6  2  0
  6  7  1  0
  7  8  1  0
  8  9  2  0
  9 10  1  0
 10 11  1  0
 11 12  1  0
 12 13  2  0
 13 14  1  0
 14 15  1  0
 14 16  2  0
 16 17  1  0
 17 18  2  0
  2 19  1  0
 19 20  1  0
 20 21  2  0
 21 22  1  0
 22 23  2  0
 22 24  1  0
 21 25  1  0
 25 26  1  0
 26 27  1  0
 27 28  1  0
  9  5  1  0
 18 12  1  0
 28 20  1  0
 18  8  1  0
  3 29  1  0
  3 30  1  0
  4 31  1  0
  4 32  1  0
 10 33  1  0
 10 34  1  0
 11 35  1  0
 11 36  1  0
 13 37  1  0
 15 38  1  0
 16 39  1  0
 17 40  1  0
 19 41  1  0
 24 42  1  0
 25 43  1  0
 25 44  1  0
 26 45  1  0
 26 46  1  0
 27 47  1  0
 27 48  1  0
 28 49  1  0
 28 50  1  0
M  END
$$$$
