
     RDKit          3D

 50 52  0  0  0  0  0  0  0  0999 V2000
   -3.6721   -0.3928   -3.9324 C   0  0  0  0  0  0  0  0  0  0  0  0
   -2.3403   -1.0312   -3.6863 C   0  0  0  0  0  0  0  0  0  0  0  0
   -1.2945    0.0909   -2.7617 S   0  0  0  0  0  6  0  0  0  0  0  0
   -1.0960    1.3382   -3.5504 O   0  0  0  0  0  0  0  0  0  0  0  0
    0.0499   -0.5408   -2.5275 O   0  0  0  0  0  0  0  0  0  0  0  0
   -2.0500    0.4541   -1.2176 C   0  0  0  0  0  0  0  0  0  0  0  0
   -3.1848   -0.2742   -0.8337 C   0  0  0  0  0  0  0  0  0  0  0  0
   -3.8038   -0.0488    0.3764 C   0  0  0  0  0  0  0  0  0  0  0  0
   -3.3496    0.8937    1.2716 C   0  0  0  0  0  0  0  0  0  0  0  0
   -4.1563    1.1564    2.8033 S   0  0  0  0  0  6  0  0  0  0  0  0
   -3.9769    2.5686    3.2198 O   0  0  0  0  0  0  0  0  0  0  0  0
   -5.6517    0.9004    2.6783 O   0  0  0  0  0  0  0  0  0  0  0  0
   -3.5642    0.0334    3.9896 N   0  0  0  0  0  0  0  0  0  0  0  0
   -3.8833   -1.3239    3.5110 C   0  0  0  0  0  0  0  0  0  0  0  0
   -2.2408    1.6113    0.9044 C   0  0  0  0  0  0  0  0  0  0  0  0
   -1.5940    1.3936   -0.3330 C   0  0  0  0  0  0  0  0  0  0  0  0
   -0.5047    2.2192   -0.6759 N   0  0  0  0  0  0  0  0  0  0  0  0
    0.8164    1.7422   -0.8251 C   0  0  0  0  0  0  0  0  0  0  0  0
    1.4348    1.0103    0.1575 C   0  0  0  0  0  0  0  0  0  0  0  0
    2.7561    0.5588    0.0482 C   0  0  0  0  0  0  0  0  0  0  0  0
    3.3620   -0.1656    1.0749 N   0  0  0  0  0  0  0  0  0  0  0  0
    4.6829   -0.6165    1.1084 C   0  0  0  0  0  0  0  0  0  0  0  0
    5.6109   -0.4819    0.1167 C   0  0  0  0  0  0  0  0  0  0  0  0
    6.9148   -0.9450    0.2482 C   0  0  0  0  0  0  0  0  0  0  0  0
    7.3077   -1.5666    1.4156 C   0  0  0  0  0  0  0  0  0  0  0  0
    8.9295   -2.1730    1.6525 Cl  0  0  0  0  0  0  0  0  0  0  0  0
    6.3592   -1.6892    2.3911 C   0  0  0  0  0  0  0  0  0  0  0  0
    5.1166   -1.2410    2.2483 N   0  0  0  0  0  0  0  0  0  0  0  0
    3.3933    0.8809   -1.0795 N   0  0  0  0  0  0  0  0  0  0  0  0
    2.8251    1.5905   -2.0579 C   0  0  0  0  0  0  0  0  0  0  0  0
    1.5544    2.0199   -1.9417 N   0  0  0  0  0  0  0  0  0  0  0  0
   -4.5463   -1.0015   -3.6935 H   0  0  0  0  0  0  0  0  0  0  0  0
   -3.7746    0.5730   -3.3541 H   0  0  0  0  0  0  0  0  0  0  0  0
   -3.7137   -0.0581   -5.0141 H   0  0  0  0  0  0  0  0  0  0  0  0
   -1.8489   -1.2323   -4.6673 H   0  0  0  0  0  0  0  0  0  0  0  0
   -2.4525   -1.9537   -3.0859 H   0  0  0  0  0  0  0  0  0  0  0  0
   -3.5508   -1.0238   -1.5358 H   0  0  0  0  0  0  0  0  0  0  0  0
   -4.6821   -0.6303    0.6407 H   0  0  0  0  0  0  0  0  0  0  0  0
   -2.5005    0.1211    3.9550 H   0  0  0  0  0  0  0  0  0  0  0  0
   -3.7685   -2.0124    4.3802 H   0  0  0  0  0  0  0  0  0  0  0  0
   -4.9361   -1.3988    3.1723 H   0  0  0  0  0  0  0  0  0  0  0  0
   -3.1787   -1.6166    2.7172 H   0  0  0  0  0  0  0  0  0  0  0  0
   -1.8520    2.3649    1.5853 H   0  0  0  0  0  0  0  0  0  0  0  0
   -0.6186    3.2656   -0.8447 H   0  0  0  0  0  0  0  0  0  0  0  0
    0.9052    0.7600    1.0596 H   0  0  0  0  0  0  0  0  0  0  0  0
    2.7430   -0.3908    1.9143 H   0  0  0  0  0  0  0  0  0  0  0  0
    5.3765   -0.0111   -0.8175 H   0  0  0  0  0  0  0  0  0  0  0  0
    7.6385   -0.8302   -0.5468 H   0  0  0  0  0  0  0  0  0  0  0  0
    6.6659   -2.1798    3.3160 H   0  0  0  0  0  0  0  0  0  0  0  0
    3.3434    1.8517   -2.9741 H   0  0  0  0  0  0  0  0  0  0  0  0
  1  2  1  0
  2  3  1  0
  3  4  2  0
  3  5  2  0
  3  6  1  0
  6  7  2  0
  7  8  1  0
  8  9  2  0
  9 10  1  0
 10 11  2  0
 10 12  2  0
 10 13  1  0
 13 14  1  0
  9 15  1  0
 15 16  2  0
 16 17  1  0
 17 18  1  0
 18 19  2  0
 19 20  1  0
 20 21  1  0
 21 22  1  0
 22 23  2  0
 23 24  1  0
 24 25  2  0
 25 26  1  0
 25 27  1  0
 27 28  2  0
 20 29  2  0
 29 30  1  0
 30 31  2  0
 16  6  1  0
 31 18  1  0
 28 22  1  0
  1 32  1  0
  1 33  1  0
  1 34  1  0
  2 35  1  0
  2 36  1  0
  7 37  1  0
  8 38  1  0
 13 39  1  0
 14 40  1  0
 14 41  1  0
 14 42  1  0
 15 43  1  0
 17 44  1  0
 19 45  1  0
 21 46  1  0
 23 47  1  0
 24 48  1  0
 27 49  1  0
 30 50  1  0
M  END
$$$$
