
     RDKit          3D

 41 43  0  0  0  0  0  0  0  0999 V2000
   -5.3676    1.5700    1.6712 C   0  0  0  0  0  0  0  0  0  0  0  0
   -4.4446    0.8639    0.8151 N   0  0  0  0  0  0  0  0  0  0  0  0
   -3.1267    1.1790    0.9229 C   0  0  0  0  0  0  0  0  0  0  0  0
   -2.7897    2.0621    1.7537 O   0  0  0  0  0  0  0  0  0  0  0  0
   -2.1707    0.5752    0.1669 C   0  0  0  0  0  0  0  0  0  0  0  0
   -2.5722   -0.3796   -0.7262 C   0  0  0  0  0  0  0  0  0  0  0  0
   -1.5141   -0.8579   -1.3722 N   0  0  0  0  0  0  0  0  0  0  0  0
   -0.4110   -0.2057   -0.8934 C   0  0  0  0  0  0  0  0  0  0  0  0
    1.1982   -0.5910   -1.5582 S   0  0  0  0  0  0  0  0  0  0  0  0
    2.0217   -1.9433   -0.7350 C   0  0  0  0  0  0  0  0  0  0  0  0
    2.6474   -1.5425    0.5693 C   0  0  0  0  0  0  0  0  0  0  0  0
    3.7941   -0.6011    0.3680 C   0  0  0  0  0  0  0  0  0  0  0  0
    3.7163    0.7574    0.3388 C   0  0  0  0  0  0  0  0  0  0  0  0
    4.8506    1.5617    0.1405 C   0  0  0  0  0  0  0  0  0  0  0  0
    6.0964    1.0095   -0.0334 C   0  0  0  0  0  0  0  0  0  0  0  0
    7.1898    1.7965   -0.2243 F   0  0  0  0  0  0  0  0  0  0  0  0
    6.1913   -0.3637   -0.0063 C   0  0  0  0  0  0  0  0  0  0  0  0
    5.0806   -1.1492    0.1876 C   0  0  0  0  0  0  0  0  0  0  0  0
   -0.8145    0.6389    0.0152 N   0  0  0  0  0  0  0  0  0  0  0  0
    0.0019    1.5461    0.7697 C   0  0  0  0  0  0  0  0  0  0  0  0
   -3.8980   -0.6634   -0.8016 N   0  0  0  0  0  0  0  0  0  0  0  0
   -4.2913   -1.6781   -1.7601 C   0  0  0  0  0  0  0  0  0  0  0  0
   -4.8378   -0.0714   -0.0602 C   0  0  0  0  0  0  0  0  0  0  0  0
   -6.0642   -0.3453   -0.1413 O   0  0  0  0  0  0  0  0  0  0  0  0
   -5.0727    2.6499    1.7623 H   0  0  0  0  0  0  0  0  0  0  0  0
   -6.4140    1.4529    1.3832 H   0  0  0  0  0  0  0  0  0  0  0  0
   -5.2583    1.1607    2.7061 H   0  0  0  0  0  0  0  0  0  0  0  0
    2.7420   -2.4783   -1.4006 H   0  0  0  0  0  0  0  0  0  0  0  0
    1.2861   -2.7676   -0.4556 H   0  0  0  0  0  0  0  0  0  0  0  0
    3.0050   -2.4263    1.1451 H   0  0  0  0  0  0  0  0  0  0  0  0
    1.8530   -1.0938    1.2010 H   0  0  0  0  0  0  0  0  0  0  0  0
    2.7784    1.2279    0.4715 H   0  0  0  0  0  0  0  0  0  0  0  0
    4.7036    2.6454    0.1295 H   0  0  0  0  0  0  0  0  0  0  0  0
    7.1843   -0.7840   -0.1455 H   0  0  0  0  0  0  0  0  0  0  0  0
    5.1675   -2.2308    0.2078 H   0  0  0  0  0  0  0  0  0  0  0  0
   -0.5491    2.2384    1.4053 H   0  0  0  0  0  0  0  0  0  0  0  0
    0.6600    2.1226    0.0629 H   0  0  0  0  0  0  0  0  0  0  0  0
    0.6439    0.9444    1.4290 H   0  0  0  0  0  0  0  0  0  0  0  0
   -4.5315   -1.1986   -2.7339 H   0  0  0  0  0  0  0  0  0  0  0  0
   -5.1826   -2.2173   -1.3900 H   0  0  0  0  0  0  0  0  0  0  0  0
   -3.5016   -2.4133   -1.9362 H   0  0  0  0  0  0  0  0  0  0  0  0
  1  2  1  0
  2  3  1  0
  3  4  2  0
  3  5  1  0
  5  6  2  0
  6  7  1  0
  7  8  2  0
  8  9  1  0
  9 10  1  0
 10 11  1  0
 11 12  1  0
 12 13  2  0
 13 14  1  0
 14 15  2  0
 15 16  1  0
 15 17  1  0
 17 18  2  0
  8 19  1  0
 19 20  1  0
  6 21  1  0
 21 22  1  0
 21 23  1  0
 23 24  2  0
 23  2  1  0
 19  5  1  0
 18 12  1  0
  1 25  1  0
  1 26  1  0
  1 27  1  0
 10 28  1  0
 10 29  1  0
 11 30  1  0
 11 31  1  0
 13 32  1  0
 14 33  1  0
 17 34  1  0
 18 35  1  0
 20 36  1  0
 20 37  1  0
 20 38  1  0
 22 39  1  0
 22 40  1  0
 22 41  1  0
M  END
$$$$
