
     RDKit          3D

 45 48  0  0  0  0  0  0  0  0999 V2000
    0.0850    3.2545    2.6791 C   0  0  0  0  0  0  0  0  0  0  0  0
    0.0481    1.8803    2.0731 C   0  0  0  0  0  0  0  0  0  0  0  0
    1.0878    1.0908    1.8889 C   0  0  0  0  0  0  0  0  0  0  0  0
    1.0830   -0.1085    1.2645 C   0  0  0  0  0  0  0  0  0  0  0  0
    2.1593   -0.7618    0.6449 N   0  0  0  0  0  0  0  0  0  0  0  0
    3.2520   -1.5180    1.0174 C   0  0  0  0  0  0  0  0  0  0  0  0
    3.4744   -1.8579    2.1152 O   0  0  0  0  0  0  0  0  0  0  0  0
    4.1845   -1.8861   -0.1854 C   0  0  0  0  0  0  0  0  0  0  0  0
    4.2782   -0.8819   -1.0146 N   0  0  0  0  0  0  0  0  0  0  0  0
    4.9075   -1.1598   -2.4619 C   0  0  0  0  0  0  0  0  0  0  0  0
    5.1114   -2.3362   -2.2758 C   0  0  0  0  0  0  0  0  0  0  0  0
    6.0851   -2.6178   -3.6969 C   0  0  0  0  0  0  0  0  0  0  0  0
    6.7848   -2.8283   -4.6864 N   0  0  0  0  0  0  0  0  0  0  0  0
    5.1549   -3.4824   -1.6594 C   0  0  0  0  0  0  0  0  0  0  0  0
    4.5431   -3.1467   -0.3237 N   0  0  0  0  0  0  0  0  0  0  0  0
   -0.2094   -0.6085    0.7566 C   0  0  0  0  0  0  0  0  0  0  0  0
   -1.3022    0.2825    0.9724 C   0  0  0  0  0  0  0  0  0  0  0  0
   -2.4767   -0.0188    0.1210 C   0  0  1  0  0  0  0  0  0  0  0  0
   -2.7834   -1.5781    0.3093 C   0  0  0  0  0  0  0  0  0  0  0  0
   -3.9551   -1.7731   -0.5057 F   0  0  0  0  0  0  0  0  0  0  0  0
   -3.2818   -1.6446    1.5770 F   0  0  0  0  0  0  0  0  0  0  0  0
   -3.6686    0.5032    0.7146 N   0  0  0  0  0  0  0  0  0  0  0  0
   -4.2008    1.5854    0.1428 C   0  0  0  0  0  0  0  0  0  0  0  0
   -5.4023    2.1501    0.7236 N   0  0  0  0  0  0  0  0  0  0  0  0
   -3.5918    2.1238   -0.9547 O   0  0  0  0  0  0  0  0  0  0  0  0
   -2.7839    1.4561   -1.8694 C   0  0  2  0  0  0  0  0  0  0  0  0
   -3.2339    0.0782   -2.3391 C   0  0  0  0  0  0  0  0  0  0  0  0
   -2.1914    0.2366   -1.3058 C   0  0  2  0  0  0  0  0  0  0  0  0
   -1.1946    1.4543    1.5867 C   0  0  0  0  0  0  0  0  0  0  0  0
   -2.2948    2.3113    1.7605 F   0  0  0  0  0  0  0  0  0  0  0  0
    0.3495    3.9711    1.8436 H   0  0  0  0  0  0  0  0  0  0  0  0
   -0.8307    3.5151    3.2256 H   0  0  0  0  0  0  0  0  0  0  0  0
    0.8842    3.3206    3.4268 H   0  0  0  0  0  0  0  0  0  0  0  0
    2.0406    1.3873    2.3008 H   0  0  0  0  0  0  0  0  0  0  0  0
    2.0278   -0.6829   -0.4949 H   0  0  0  0  0  0  0  0  0  0  0  0
    4.8278   -0.2058   -2.7906 H   0  0  0  0  0  0  0  0  0  0  0  0
    5.6159   -4.4371   -1.6544 H   0  0  0  0  0  0  0  0  0  0  0  0
   -0.2328   -1.5175    0.2891 H   0  0  0  0  0  0  0  0  0  0  0  0
   -1.9729   -2.1873    0.0018 H   0  0  0  0  0  0  0  0  0  0  0  0
   -6.2864    1.6517    0.8748 H   0  0  0  0  0  0  0  0  0  0  0  0
   -5.4003    3.2096    1.0229 H   0  0  0  0  0  0  0  0  0  0  0  0
   -2.2078    2.0678   -2.5905 H   0  0  0  0  0  0  0  0  0  0  0  0
   -3.0518   -0.2356   -3.3505 H   0  0  0  0  0  0  0  0  0  0  0  0
   -4.3149   -0.1355   -2.0441 H   0  0  0  0  0  0  0  0  0  0  0  0
   -1.1166    0.0801   -1.5768 H   0  0  0  0  0  0  0  0  0  0  0  0
  1  2  1  0
  2  3  2  0
  3  4  1  0
  4  5  1  0
  5  6  1  0
  6  7  2  0
  6  8  1  0
  8  9  2  0
  9 10  1  0
 10 11  2  0
 11 12  1  0
 12 13  3  0
 11 14  1  0
 14 15  2  0
  4 16  2  0
 16 17  1  0
 17 18  1  0
 18 19  1  6
 19 20  1  0
 19 21  1  0
 18 22  1  0
 22 23  2  0
 23 24  1  0
 23 25  1  0
 25 26  1  0
 26 27  1  0
 27 28  1  0
 17 29  2  0
 29 30  1  0
 29  2  1  0
 15  8  1  0
 28 18  1  0
 28 26  1  0
  1 31  1  0
  1 32  1  0
  1 33  1  0
  3 34  1  0
  5 35  1  0
 10 36  1  0
 14 37  1  0
 16 38  1  0
 19 39  1  0
 24 40  1  0
 24 41  1  0
 26 42  1  6
 27 43  1  0
 27 44  1  0
 28 45  1  6
M  END
$$$$
