
     RDKit          3D

 34 36  0  0  0  0  0  0  0  0999 V2000
   -2.1146    3.5910    0.0833 C   0  0  0  0  0  0  0  0  0  0  0  0
   -1.9397    2.2362   -0.2631 O   0  0  0  0  0  0  0  0  0  0  0  0
   -0.8253    1.5153    0.1376 C   0  0  0  0  0  0  0  0  0  0  0  0
    0.0565    2.0489    0.8106 O   0  0  0  0  0  0  0  0  0  0  0  0
   -0.7673    0.1300   -0.2761 C   0  0  0  0  0  0  0  0  0  0  0  0
    0.2741   -0.6198    0.0827 C   0  0  0  0  0  0  0  0  0  0  0  0
    1.5965   -0.0493    0.2871 C   0  0  0  0  0  0  0  0  0  0  0  0
    2.3426   -0.4323    1.3802 C   0  0  0  0  0  0  0  0  0  0  0  0
    3.6051    0.0738    1.6078 C   0  0  0  0  0  0  0  0  0  0  0  0
    4.1644    0.9956    0.7279 C   0  0  0  0  0  0  0  0  0  0  0  0
    5.7622    1.6572    0.9903 Cl  0  0  0  0  0  0  0  0  0  0  0  0
    3.4468    1.4018   -0.3783 C   0  0  0  0  0  0  0  0  0  0  0  0
    4.1565    2.5555   -1.4873 Cl  0  0  0  0  0  0  0  0  0  0  0  0
    2.1946    0.8661   -0.5552 C   0  0  0  0  0  0  0  0  0  0  0  0
   -0.0425   -2.0728    0.2306 C   0  0  0  0  0  0  0  0  0  0  0  0
   -0.9043   -2.5322   -0.9467 C   0  0  0  0  0  0  0  0  0  0  0  0
   -2.3306   -2.7716   -0.4918 C   0  0  0  0  0  0  0  0  0  0  0  0
   -2.7645   -1.3269   -0.2116 C   0  0  0  0  0  0  0  0  0  0  0  0
   -1.8192   -0.5354   -1.0890 C   0  0  2  0  0  0  0  0  0  0  0  0
   -1.1137   -1.4822   -1.8669 O   0  0  0  0  0  0  0  0  0  0  0  0
   -3.1784    3.7502    0.4227 H   0  0  0  0  0  0  0  0  0  0  0  0
   -1.9220    4.2478   -0.7779 H   0  0  0  0  0  0  0  0  0  0  0  0
   -1.4600    3.9117    0.9058 H   0  0  0  0  0  0  0  0  0  0  0  0
    1.9457   -1.1492    2.0890 H   0  0  0  0  0  0  0  0  0  0  0  0
    4.2163   -0.2121    2.4613 H   0  0  0  0  0  0  0  0  0  0  0  0
    1.6391    1.1948   -1.4288 H   0  0  0  0  0  0  0  0  0  0  0  0
    0.8614   -2.6783    0.3262 H   0  0  0  0  0  0  0  0  0  0  0  0
   -0.6118   -2.1790    1.1808 H   0  0  0  0  0  0  0  0  0  0  0  0
   -0.4703   -3.4027   -1.4642 H   0  0  0  0  0  0  0  0  0  0  0  0
   -2.8791   -3.1634   -1.3891 H   0  0  0  0  0  0  0  0  0  0  0  0
   -2.4197   -3.4190    0.3939 H   0  0  0  0  0  0  0  0  0  0  0  0
   -3.7893   -1.2208   -0.5585 H   0  0  0  0  0  0  0  0  0  0  0  0
   -2.5806   -1.0816    0.8523 H   0  0  0  0  0  0  0  0  0  0  0  0
   -2.3288    0.1531   -1.7854 H   0  0  0  0  0  0  0  0  0  0  0  0
  1  2  1  0
  2  3  1  0
  3  4  2  0
  3  5  1  0
  5  6  2  0
  6  7  1  0
  7  8  2  0
  8  9  1  0
  9 10  2  0
 10 11  1  0
 10 12  1  0
 12 13  1  0
 12 14  2  0
  6 15  1  0
 15 16  1  0
 16 17  1  0
 17 18  1  0
 18 19  1  0
 19 20  1  0
 19  5  1  0
 14  7  1  0
 20 16  1  0
  1 21  1  0
  1 22  1  0
  1 23  1  0
  8 24  1  0
  9 25  1  0
 14 26  1  0
 15 27  1  0
 15 28  1  0
 16 29  1  0
 17 30  1  0
 17 31  1  0
 18 32  1  0
 18 33  1  0
 19 34  1  6
M  END
$$$$
