
     RDKit          3D

 55 59  0  0  0  0  0  0  0  0999 V2000
    0.9272   -0.0604    1.7465 O   0  0  0  0  0  0  0  0  0  0  0  0
    1.2673    0.1414    0.5613 C   0  0  0  0  0  0  0  0  0  0  0  0
    2.6974    0.2871    0.1812 C   0  0  0  0  0  0  0  0  0  0  0  0
    3.8017    0.1419    1.5833 S   0  0  0  0  0  0  0  0  0  0  0  0
    5.4757    0.3355    0.9975 C   0  0  0  0  0  0  0  0  0  0  0  0
    6.1808   -0.7376    0.6014 N   0  0  0  0  0  0  0  0  0  0  0  0
    7.4534   -0.6753    0.1453 C   0  0  0  0  0  0  0  0  0  0  0  0
    8.1715   -1.7624   -0.2574 C   0  0  0  0  0  0  0  0  0  0  0  0
    9.4700   -1.6231   -0.7130 C   0  0  0  0  0  0  0  0  0  0  0  0
   10.0641   -0.3837   -0.7693 C   0  0  0  0  0  0  0  0  0  0  0  0
    9.3193    0.7015   -0.3572 C   0  0  0  0  0  0  0  0  0  0  0  0
    8.0267    0.5912    0.1001 C   0  0  0  0  0  0  0  0  0  0  0  0
    7.3267    1.7050    0.4996 C   0  0  0  0  0  0  0  0  0  0  0  0
    7.8843    2.8202    0.4406 O   0  0  0  0  0  0  0  0  0  0  0  0
    6.0712    1.5514    0.9377 N   0  0  0  0  0  0  0  0  0  0  0  0
    0.2731    0.2314   -0.4279 N   0  0  0  0  0  0  0  0  0  0  0  0
   -1.1497    0.1040   -0.1642 C   0  0  1  0  0  0  0  0  0  0  0  0
   -1.8535    1.2788   -0.7394 C   0  0  0  0  0  0  0  0  0  0  0  0
   -3.2545    1.0826   -1.1612 C   0  0  0  0  0  0  0  0  0  0  0  0
   -3.9572   -0.1374   -0.7229 C   0  0  2  0  0  0  0  0  0  0  0  0
   -4.9200    0.1129    0.3480 N   0  0  0  0  0  0  0  0  0  0  0  0
   -4.6633    0.7532    1.4972 C   0  0  0  0  0  0  0  0  0  0  0  0
   -3.5793    1.2425    1.8561 O   0  0  0  0  0  0  0  0  0  0  0  0
   -5.7946    0.8008    2.2557 N   0  0  0  0  0  0  0  0  0  0  0  0
   -6.7851    0.1902    1.5959 C   0  0  0  0  0  0  0  0  0  0  0  0
   -8.1068   -0.0450    1.8916 C   0  0  0  0  0  0  0  0  0  0  0  0
   -8.8878   -0.7201    0.9783 C   0  0  0  0  0  0  0  0  0  0  0  0
   -8.3401   -1.1535   -0.2216 C   0  0  0  0  0  0  0  0  0  0  0  0
   -9.3398   -2.0105   -1.3757 Cl  0  0  0  0  0  0  0  0  0  0  0  0
   -7.0076   -0.9196   -0.5263 C   0  0  0  0  0  0  0  0  0  0  0  0
   -6.2327   -0.2365    0.4069 C   0  0  0  0  0  0  0  0  0  0  0  0
   -3.0854   -1.3088   -0.3663 C   0  0  0  0  0  0  0  0  0  0  0  0
   -1.6690   -1.1390   -0.8975 C   0  0  0  0  0  0  0  0  0  0  0  0
    2.9246   -0.5085   -0.5630 H   0  0  0  0  0  0  0  0  0  0  0  0
    2.8626    1.2507   -0.3562 H   0  0  0  0  0  0  0  0  0  0  0  0
    7.6917   -2.7364   -0.2085 H   0  0  0  0  0  0  0  0  0  0  0  0
   10.0498   -2.4827   -1.0358 H   0  0  0  0  0  0  0  0  0  0  0  0
   11.0963   -0.2642   -1.1304 H   0  0  0  0  0  0  0  0  0  0  0  0
    9.7657    1.6972   -0.3912 H   0  0  0  0  0  0  0  0  0  0  0  0
    5.5261    2.3923    1.2454 H   0  0  0  0  0  0  0  0  0  0  0  0
    0.5781    0.4001   -1.4108 H   0  0  0  0  0  0  0  0  0  0  0  0
   -1.3624   -0.0720    0.9014 H   0  0  0  0  0  0  0  0  0  0  0  0
   -1.7425    2.1197    0.0100 H   0  0  0  0  0  0  0  0  0  0  0  0
   -1.2310    1.6471   -1.6103 H   0  0  0  0  0  0  0  0  0  0  0  0
   -3.3302    1.2238   -2.2819 H   0  0  0  0  0  0  0  0  0  0  0  0
   -3.8487    1.9647   -0.7693 H   0  0  0  0  0  0  0  0  0  0  0  0
   -4.5929   -0.4973   -1.5890 H   0  0  0  0  0  0  0  0  0  0  0  0
   -5.9017    1.2377    3.2049 H   0  0  0  0  0  0  0  0  0  0  0  0
   -8.5755    0.2733    2.8120 H   0  0  0  0  0  0  0  0  0  0  0  0
   -9.9332   -0.9393    1.1448 H   0  0  0  0  0  0  0  0  0  0  0  0
   -6.5585   -1.2479   -1.4554 H   0  0  0  0  0  0  0  0  0  0  0  0
   -3.4585   -2.2728   -0.7340 H   0  0  0  0  0  0  0  0  0  0  0  0
   -2.9919   -1.4038    0.7441 H   0  0  0  0  0  0  0  0  0  0  0  0
   -1.1002   -2.0374   -0.6117 H   0  0  0  0  0  0  0  0  0  0  0  0
   -1.6517   -0.9030   -1.9700 H   0  0  0  0  0  0  0  0  0  0  0  0
  1  2  2  0
  2  3  1  0
  3  4  1  0
  4  5  1  0
  5  6  2  0
  6  7  1  0
  7  8  2  0
  8  9  1  0
  9 10  2  0
 10 11  1  0
 11 12  2  0
 12 13  1  0
 13 14  2  0
 13 15  1  0
  2 16  1  0
 16 17  1  0
 17 18  1  0
 18 19  1  0
 19 20  1  0
 20 21  1  0
 21 22  1  0
 22 23  2  0
 22 24  1  0
 24 25  1  0
 25 26  2  0
 26 27  1  0
 27 28  2  0
 28 29  1  0
 28 30  1  0
 30 31  2  0
 20 32  1  0
 32 33  1  0
 15  5  1  0
 33 17  1  0
 12  7  1  0
 31 21  1  0
 31 25  1  0
  3 34  1  0
  3 35  1  0
  8 36  1  0
  9 37  1  0
 10 38  1  0
 11 39  1  0
 15 40  1  0
 16 41  1  0
 17 42  1  1
 18 43  1  0
 18 44  1  0
 19 45  1  0
 19 46  1  0
 20 47  1  6
 24 48  1  0
 26 49  1  0
 27 50  1  0
 30 51  1  0
 32 52  1  0
 32 53  1  0
 33 54  1  0
 33 55  1  0
M  END
$$$$
