
     RDKit          3D

218228  0  0  0  0  0  0  0  0999 V2000
   14.2310   -5.3178   -0.5405 C   0  0  0  0  0  0  0  0  0  0  0  0
   14.3868   -4.8220    0.7900 N   0  0  0  0  0  0  0  0  0  0  0  0
   14.2746   -3.4073    0.9577 C   0  0  1  0  0  0  0  0  0  0  0  0
   15.3672   -2.7229    0.1571 C   0  0  0  0  0  0  0  0  0  0  0  0
   12.9327   -2.8718    0.5481 C   0  0  0  0  0  0  0  0  0  0  0  0
   12.1276   -3.7228    0.1319 O   0  0  0  0  0  0  0  0  0  0  0  0
   12.6231   -1.5175    0.6311 N   0  0  0  0  0  0  0  0  0  0  0  0
   11.2911   -0.9985    0.2218 C   0  0  2  0  0  0  0  0  0  0  0  0
   10.2320   -1.7520    0.8193 C   0  0  0  0  0  0  0  0  0  0  0  0
   10.6489   -2.5852    1.7566 O   0  0  0  0  0  0  0  0  0  0  0  0
    8.8413   -1.8335    0.6658 N   0  0  0  0  0  0  0  0  0  0  0  0
    8.0481   -2.7170    1.5546 C   0  0  0  0  0  0  0  0  0  0  0  0
    7.1613   -3.3511    0.5408 C   0  0  2  0  0  0  0  0  0  0  0  0
    6.7135   -2.1653   -0.2615 C   0  0  0  0  0  0  0  0  0  0  0  0
    7.8980   -1.2041   -0.2293 C   0  0  1  0  0  0  0  0  0  0  0  0
    7.5234    0.1111    0.3344 C   0  0  0  0  0  0  0  0  0  0  0  0
    7.4096    0.0891    1.6555 O   0  0  0  0  0  0  0  0  0  0  0  0
    7.2502    1.3821   -0.1393 N   0  0  0  0  0  0  0  0  0  0  0  0
    6.5403    2.4145    0.6718 C   0  0  1  0  0  0  0  0  0  0  0  0
    7.4393    3.1353    1.5830 C   0  0  0  0  0  0  0  0  0  0  0  0
    8.5643    3.8251    0.8458 C   0  0  0  0  0  0  0  0  0  0  0  0
    9.7231    3.1330    0.6077 C   0  0  0  0  0  0  0  0  0  0  0  0
   10.7733    3.7272   -0.0461 C   0  0  0  0  0  0  0  0  0  0  0  0
   10.7179    5.0297   -0.4920 C   0  0  0  0  0  0  0  0  0  0  0  0
   11.7686    5.6519   -1.1525 C   0  0  0  0  0  0  0  0  0  0  0  0
   11.7060    6.9608   -1.5874 C   0  0  0  0  0  0  0  0  0  0  0  0
   10.5352    7.6426   -1.3388 C   0  0  0  0  0  0  0  0  0  0  0  0
    9.4831    7.0356   -0.6844 C   0  0  0  0  0  0  0  0  0  0  0  0
    9.5289    5.7318   -0.2415 C   0  0  0  0  0  0  0  0  0  0  0  0
    8.4796    5.1294    0.4150 C   0  0  0  0  0  0  0  0  0  0  0  0
    5.6389    3.1470   -0.1944 C   0  0  0  0  0  0  0  0  0  0  0  0
    4.5540    2.4643   -0.4884 O   0  0  0  0  0  0  0  0  0  0  0  0
    5.5970    4.3949   -0.8177 N   0  0  0  0  0  0  0  0  0  0  0  0
    4.4346    5.2684   -0.6935 C   0  0  2  0  0  0  0  0  0  0  0  0
    4.7351    6.6932   -0.9615 C   0  0  0  0  0  0  0  0  0  0  0  0
    5.8506    7.1463   -1.2764 O   0  0  0  0  0  0  0  0  0  0  0  0
    3.6938    7.5886   -0.8553 O   0  0  0  0  0  0  0  0  0  0  0  0
    3.7066    5.1364    0.6277 C   0  0  0  0  0  0  0  0  0  0  0  0
    2.2395    5.4306    0.5571 C   0  0  0  0  0  0  0  0  0  0  0  0
    1.6805    6.6021    1.0062 C   0  0  0  0  0  0  0  0  0  0  0  0
    0.2801    6.8271    0.9278 C   0  0  0  0  0  0  0  0  0  0  0  0
   -0.5708    5.8993    0.4076 C   0  0  0  0  0  0  0  0  0  0  0  0
   -0.0190    4.7417   -0.0411 C   0  0  0  0  0  0  0  0  0  0  0  0
    1.3871    4.4955    0.0280 C   0  0  0  0  0  0  0  0  0  0  0  0
   -1.9528    6.1245    0.3366 O   0  0  0  0  0  0  0  0  0  0  0  0
   -2.9045    5.8143    1.3061 C   0  0  0  0  0  0  0  0  0  0  0  0
   -3.1126    4.3238    1.4866 C   0  0  0  0  0  0  0  0  0  0  0  0
   -3.7086    3.7144    0.2341 C   0  0  0  0  0  0  0  0  0  0  0  0
   -4.2752    2.3415    0.5659 C   0  0  0  0  0  0  0  0  0  0  0  0
   -5.5642    2.2243   -0.2308 C   0  0  1  0  0  0  0  0  0  0  0  0
   -5.6153    0.8721   -0.9615 C   0  0  0  0  0  0  0  0  0  0  0  0
   -7.0728    0.7409   -1.2351 C   0  0  1  0  0  0  0  0  0  0  0  0
   -7.5944   -0.6403   -1.1811 C   0  0  0  0  0  0  0  0  0  0  0  0
   -8.7568   -0.7502   -0.6438 O   0  0  0  0  0  0  0  0  0  0  0  0
   -7.0780   -1.8717   -1.5925 N   0  0  0  0  0  0  0  0  0  0  0  0
   -6.7442   -3.0057   -0.7421 C   0  0  1  0  0  0  0  0  0  0  0  0
   -7.6081   -4.2258   -1.1005 C   0  0  0  0  0  0  0  0  0  0  0  0
   -9.0386   -3.9912   -0.9199 C   0  0  0  0  0  0  0  0  0  0  0  0
   -9.8115   -3.4427   -1.9027 C   0  0  0  0  0  0  0  0  0  0  0  0
  -11.1941   -3.2394   -1.6818 C   0  0  0  0  0  0  0  0  0  0  0  0
  -11.7659   -3.5818   -0.5086 C   0  0  0  0  0  0  0  0  0  0  0  0
  -13.1334   -3.3870   -0.2429 C   0  0  0  0  0  0  0  0  0  0  0  0
  -13.7326   -3.7206    0.9427 C   0  0  0  0  0  0  0  0  0  0  0  0
  -12.9579   -4.2712    1.9221 C   0  0  0  0  0  0  0  0  0  0  0  0
  -11.6041   -4.4766    1.6815 C   0  0  0  0  0  0  0  0  0  0  0  0
  -10.9986   -4.1415    0.4901 C   0  0  0  0  0  0  0  0  0  0  0  0
   -9.6308   -4.3433    0.2740 C   0  0  0  0  0  0  0  0  0  0  0  0
   -5.2947   -3.3253   -0.7388 C   0  0  0  0  0  0  0  0  0  0  0  0
   -4.7009   -2.9791    0.3657 O   0  0  0  0  0  0  0  0  0  0  0  0
   -4.4291   -3.9164   -1.6588 N   0  0  0  0  0  0  0  0  0  0  0  0
   -3.3273   -4.7916   -1.1831 C   0  0  2  0  0  0  0  0  0  0  0  0
   -3.6363   -5.5494   -0.0289 N   0  0  0  0  0  0  0  0  0  0  0  0
   -3.3257   -7.2387   -0.1678 S   0  0  0  0  0  6  0  0  0  0  0  0
   -3.5339   -7.8993    1.2005 O   0  0  0  0  0  0  0  0  0  0  0  0
   -1.8557   -7.4697   -0.4853 O   0  0  0  0  0  0  0  0  0  0  0  0
   -4.2649   -8.0546   -1.4085 C   0  0  0  0  0  0  0  0  0  0  0  0
   -5.7853   -7.9323   -1.2421 C   0  0  0  0  0  0  0  0  0  0  0  0
   -5.0320   -7.4064   -2.4560 C   0  0  0  0  0  0  0  0  0  0  0  0
   -2.1290   -3.8429   -0.9616 C   0  0  0  0  0  0  0  0  0  0  0  0
   -1.0032   -4.4770   -0.2166 C   0  0  0  0  0  0  0  0  0  0  0  0
   -1.0292   -4.6536    1.1465 C   0  0  0  0  0  0  0  0  0  0  0  0
    0.0834   -5.2474    1.8205 C   0  0  0  0  0  0  0  0  0  0  0  0
    1.2065   -5.6650    1.1822 C   0  0  0  0  0  0  0  0  0  0  0  0
    1.2119   -5.4811   -0.1838 C   0  0  0  0  0  0  0  0  0  0  0  0
    0.1223   -4.8960   -0.8774 C   0  0  0  0  0  0  0  0  0  0  0  0
    2.2947   -6.2409    1.8314 O   0  0  0  0  0  0  0  0  0  0  0  0
    3.2449   -5.7153    2.6999 C   0  0  0  0  0  0  0  0  0  0  0  0
    4.4274   -5.2264    1.9449 C   0  0  0  0  0  0  0  0  0  0  0  0
    5.0547   -4.0180    1.8217 C   0  0  0  0  0  0  0  0  0  0  0  0
    6.0993   -4.2166    1.0281 N   0  0  0  0  0  0  0  0  0  0  0  0
    6.1306   -5.5379    0.6522 N   0  0  0  0  0  0  0  0  0  0  0  0
    5.1453   -6.1591    1.1861 N   0  0  0  0  0  0  0  0  0  0  0  0
   -7.7854    1.6330   -0.3021 N   0  0  0  0  0  0  0  0  0  0  0  0
   -9.1470    1.9558   -0.4572 C   0  0  0  0  0  0  0  0  0  0  0  0
   -9.7882    1.4972   -1.4736 O   0  0  0  0  0  0  0  0  0  0  0  0
   -9.9371    2.8010    0.4694 C   0  0  1  0  0  0  0  0  0  0  0  0
  -11.1136    3.2385   -0.3328 N   0  0  0  0  0  0  0  0  0  0  0  0
  -12.0871    4.1598    0.0129 C   0  0  0  0  0  0  0  0  0  0  0  0
  -12.1201    4.7582    1.0939 O   0  0  0  0  0  0  0  0  0  0  0  0
  -13.1739    4.4367   -1.0126 C   0  0  2  0  0  0  0  0  0  0  0  0
  -12.5710    5.3691   -2.0895 C   0  0  0  0  0  0  0  0  0  0  0  0
  -14.2635    5.0815   -0.3744 N   0  0  0  0  0  0  0  0  0  0  0  0
  -15.3252    5.4344   -1.2724 C   0  0  0  0  0  0  0  0  0  0  0  0
  -10.4832    1.9403    1.6332 C   0  0  0  0  0  0  0  0  0  0  0  0
   -9.3427    1.1781    2.3171 C   0  0  0  0  0  0  0  0  0  0  0  0
  -10.9315    2.9009    2.7802 C   0  0  0  0  0  0  0  0  0  0  0  0
  -11.5777    1.0206    1.2495 C   0  0  0  0  0  0  0  0  0  0  0  0
   -6.7820    2.0687    0.6488 C   0  0  0  0  0  0  0  0  0  0  0  0
   11.4173   -0.6668   -1.1894 C   0  0  0  0  0  0  0  0  0  0  0  0
   11.7049   -1.7813   -2.1452 C   0  0  0  0  0  0  0  0  0  0  0  0
   10.4921    0.3276   -1.8101 C   0  0  0  0  0  0  0  0  0  0  0  0
   12.8086    0.1382   -1.2773 C   0  0  0  0  0  0  0  0  0  0  0  0
   13.2154   -5.6607   -0.7911 H   0  0  0  0  0  0  0  0  0  0  0  0
   14.8858   -6.2413   -0.6252 H   0  0  0  0  0  0  0  0  0  0  0  0
   14.6004   -4.6429   -1.3405 H   0  0  0  0  0  0  0  0  0  0  0  0
   13.7900   -5.3725    1.4366 H   0  0  0  0  0  0  0  0  0  0  0  0
   14.4197   -3.1409    2.0192 H   0  0  0  0  0  0  0  0  0  0  0  0
   15.4922   -1.6726    0.4445 H   0  0  0  0  0  0  0  0  0  0  0  0
   16.2925   -3.3370    0.2753 H   0  0  0  0  0  0  0  0  0  0  0  0
   15.0758   -2.7174   -0.9327 H   0  0  0  0  0  0  0  0  0  0  0  0
   13.3697   -0.8551    0.9991 H   0  0  0  0  0  0  0  0  0  0  0  0
   11.2772    0.0139    0.7931 H   0  0  0  0  0  0  0  0  0  0  0  0
    8.6862   -3.4304    2.0956 H   0  0  0  0  0  0  0  0  0  0  0  0
    7.5050   -2.1379    2.3201 H   0  0  0  0  0  0  0  0  0  0  0  0
    7.8732   -3.8795   -0.1548 H   0  0  0  0  0  0  0  0  0  0  0  0
    5.9043   -1.6552    0.3121 H   0  0  0  0  0  0  0  0  0  0  0  0
    6.3902   -2.3903   -1.2817 H   0  0  0  0  0  0  0  0  0  0  0  0
    8.3064   -1.2459   -1.2342 H   0  0  0  0  0  0  0  0  0  0  0  0
    7.4765    1.8397   -1.0366 H   0  0  0  0  0  0  0  0  0  0  0  0
    5.8856    1.7718    1.3630 H   0  0  0  0  0  0  0  0  0  0  0  0
    6.8925    3.9467    2.1231 H   0  0  0  0  0  0  0  0  0  0  0  0
    7.9539    2.4708    2.3033 H   0  0  0  0  0  0  0  0  0  0  0  0
    9.8158    2.1222    0.9396 H   0  0  0  0  0  0  0  0  0  0  0  0
   11.7143    3.1813   -0.2429 H   0  0  0  0  0  0  0  0  0  0  0  0
   12.6716    5.0595   -1.3267 H   0  0  0  0  0  0  0  0  0  0  0  0
   12.5414    7.4202   -2.0959 H   0  0  0  0  0  0  0  0  0  0  0  0
   10.5051    8.6860   -1.7076 H   0  0  0  0  0  0  0  0  0  0  0  0
    8.5749    7.6159   -0.5156 H   0  0  0  0  0  0  0  0  0  0  0  0
    7.5779    5.7163    0.5940 H   0  0  0  0  0  0  0  0  0  0  0  0
    6.3086    4.8495   -1.4311 H   0  0  0  0  0  0  0  0  0  0  0  0
    3.6550    4.9937   -1.4642 H   0  0  0  0  0  0  0  0  0  0  0  0
    3.7894    8.5522   -0.5588 H   0  0  0  0  0  0  0  0  0  0  0  0
    4.3416    5.7704    1.2965 H   0  0  0  0  0  0  0  0  0  0  0  0
    3.9660    4.1445    1.1387 H   0  0  0  0  0  0  0  0  0  0  0  0
    2.1541    7.5281    1.4657 H   0  0  0  0  0  0  0  0  0  0  0  0
    0.0266    7.8590    1.3185 H   0  0  0  0  0  0  0  0  0  0  0  0
   -0.5383    3.8641   -0.5298 H   0  0  0  0  0  0  0  0  0  0  0  0
    1.5385    3.4722   -0.4330 H   0  0  0  0  0  0  0  0  0  0  0  0
   -3.8816    6.2049    0.9268 H   0  0  0  0  0  0  0  0  0  0  0  0
   -2.7509    6.3463    2.2676 H   0  0  0  0  0  0  0  0  0  0  0  0
   -2.1788    3.7647    1.6725 H   0  0  0  0  0  0  0  0  0  0  0  0
   -3.7659    4.1322    2.3690 H   0  0  0  0  0  0  0  0  0  0  0  0
   -4.4806    4.3937   -0.2096 H   0  0  0  0  0  0  0  0  0  0  0  0
   -2.9345    3.5799   -0.5445 H   0  0  0  0  0  0  0  0  0  0  0  0
   -3.5316    1.5807    0.2936 H   0  0  0  0  0  0  0  0  0  0  0  0
   -4.5359    2.3608    1.6516 H   0  0  0  0  0  0  0  0  0  0  0  0
   -5.7091    3.0313   -0.9364 H   0  0  0  0  0  0  0  0  0  0  0  0
   -4.9631    0.9716   -1.8546 H   0  0  0  0  0  0  0  0  0  0  0  0
   -5.2882    0.1351   -0.2309 H   0  0  0  0  0  0  0  0  0  0  0  0
   -7.2406    1.2480   -2.2393 H   0  0  0  0  0  0  0  0  0  0  0  0
   -6.8777   -2.1802   -2.6020 H   0  0  0  0  0  0  0  0  0  0  0  0
   -7.0273   -2.8240    0.3262 H   0  0  0  0  0  0  0  0  0  0  0  0
   -7.3323   -4.5427   -2.1444 H   0  0  0  0  0  0  0  0  0  0  0  0
   -7.2173   -5.0434   -0.4362 H   0  0  0  0  0  0  0  0  0  0  0  0
   -9.4137   -3.1482   -2.8584 H   0  0  0  0  0  0  0  0  0  0  0  0
  -11.7775   -2.7965   -2.4700 H   0  0  0  0  0  0  0  0  0  0  0  0
  -13.7371   -2.9494   -1.0213 H   0  0  0  0  0  0  0  0  0  0  0  0
  -14.8011   -3.5575    1.0983 H   0  0  0  0  0  0  0  0  0  0  0  0
  -13.4165   -4.5415    2.8616 H   0  0  0  0  0  0  0  0  0  0  0  0
  -10.9897   -4.9151    2.4541 H   0  0  0  0  0  0  0  0  0  0  0  0
   -9.0097   -4.7763    1.0344 H   0  0  0  0  0  0  0  0  0  0  0  0
   -4.3581   -3.8501   -2.6952 H   0  0  0  0  0  0  0  0  0  0  0  0
   -2.9897   -5.4647   -1.9816 H   0  0  0  0  0  0  0  0  0  0  0  0
   -4.6240   -5.3715    0.2652 H   0  0  0  0  0  0  0  0  0  0  0  0
   -4.0162   -9.1591   -1.5695 H   0  0  0  0  0  0  0  0  0  0  0  0
   -6.4325   -8.8023   -1.3596 H   0  0  0  0  0  0  0  0  0  0  0  0
   -6.1371   -7.1980   -0.4929 H   0  0  0  0  0  0  0  0  0  0  0  0
   -5.1191   -6.3335   -2.6413 H   0  0  0  0  0  0  0  0  0  0  0  0
   -5.2642   -8.0042   -3.3929 H   0  0  0  0  0  0  0  0  0  0  0  0
   -2.6095   -2.9357   -0.5091 H   0  0  0  0  0  0  0  0  0  0  0  0
   -1.8933   -3.3625   -1.9554 H   0  0  0  0  0  0  0  0  0  0  0  0
   -1.8217   -4.4307    1.9267 H   0  0  0  0  0  0  0  0  0  0  0  0
   -0.1612   -5.3258    2.9318 H   0  0  0  0  0  0  0  0  0  0  0  0
    2.0400   -5.7609   -0.8893 H   0  0  0  0  0  0  0  0  0  0  0  0
    0.4117   -4.9094   -1.9732 H   0  0  0  0  0  0  0  0  0  0  0  0
    3.5683   -6.6694    3.2989 H   0  0  0  0  0  0  0  0  0  0  0  0
    2.8375   -5.1293    3.5132 H   0  0  0  0  0  0  0  0  0  0  0  0
    4.7302   -3.0121    2.3045 H   0  0  0  0  0  0  0  0  0  0  0  0
   -9.5112    3.6538    0.9346 H   0  0  0  0  0  0  0  0  0  0  0  0
  -11.2065    2.7835   -1.3216 H   0  0  0  0  0  0  0  0  0  0  0  0
  -13.3953    3.4864   -1.5224 H   0  0  0  0  0  0  0  0  0  0  0  0
  -11.5101    5.2370   -2.2399 H   0  0  0  0  0  0  0  0  0  0  0  0
  -12.7455    6.4470   -1.8097 H   0  0  0  0  0  0  0  0  0  0  0  0
  -13.0748    5.1268   -3.0601 H   0  0  0  0  0  0  0  0  0  0  0  0
  -13.9921    5.8087    0.2805 H   0  0  0  0  0  0  0  0  0  0  0  0
  -15.0045    6.2079   -2.0084 H   0  0  0  0  0  0  0  0  0  0  0  0
  -15.6376    4.5165   -1.7870 H   0  0  0  0  0  0  0  0  0  0  0  0
  -16.1892    5.7897   -0.6446 H   0  0  0  0  0  0  0  0  0  0  0  0
   -8.6250    1.8552    2.8063 H   0  0  0  0  0  0  0  0  0  0  0  0
   -9.8429    0.5486    3.1223 H   0  0  0  0  0  0  0  0  0  0  0  0
   -8.8399    0.4946    1.6515 H   0  0  0  0  0  0  0  0  0  0  0  0
  -10.4765    2.5230    3.7782 H   0  0  0  0  0  0  0  0  0  0  0  0
  -10.4351    3.8674    2.6518 H   0  0  0  0  0  0  0  0  0  0  0  0
  -12.0080    2.8536    2.9602 H   0  0  0  0  0  0  0  0  0  0  0  0
  -11.9730    1.2197    0.2070 H   0  0  0  0  0  0  0  0  0  0  0  0
  -11.3181   -0.0541    1.2453 H   0  0  0  0  0  0  0  0  0  0  0  0
  -12.4512    1.0758    1.9868 H   0  0  0  0  0  0  0  0  0  0  0  0
   -6.9809    3.0739    1.0731 H   0  0  0  0  0  0  0  0  0  0  0  0
   -6.5913    1.3017    1.4304 H   0  0  0  0  0  0  0  0  0  0  0  0
   12.7356   -2.1625   -2.0309 H   0  0  0  0  0  0  0  0  0  0  0  0
   11.6725   -1.3869   -3.2074 H   0  0  0  0  0  0  0  0  0  0  0  0
   11.0262   -2.6347   -2.0906 H   0  0  0  0  0  0  0  0  0  0  0  0
    9.8736    0.8383   -1.0462 H   0  0  0  0  0  0  0  0  0  0  0  0
    9.8206   -0.1637   -2.5590 H   0  0  0  0  0  0  0  0  0  0  0  0
   11.0332    1.1343   -2.4038 H   0  0  0  0  0  0  0  0  0  0  0  0
   12.7582    0.9675   -0.5887 H   0  0  0  0  0  0  0  0  0  0  0  0
   12.8474    0.4965   -2.3226 H   0  0  0  0  0  0  0  0  0  0  0  0
   13.5658   -0.6226   -1.1371 H   0  0  0  0  0  0  0  0  0  0  0  0
  1  2  1  0
  2  3  1  0
  3  4  1  0
  3  5  1  0
  5  6  2  0
  5  7  1  0
  7  8  1  0
  8  9  1  0
  9 10  2  0
  9 11  1  0
 11 12  1  0
 12 13  1  0
 13 14  1  0
 14 15  1  0
 15 16  1  0
 16 17  2  0
 16 18  1  0
 18 19  1  0
 19 20  1  0
 20 21  1  0
 21 22  2  0
 22 23  1  0
 23 24  2  0
 24 25  1  0
 25 26  2  0
 26 27  1  0
 27 28  2  0
 28 29  1  0
 29 30  2  0
 19 31  1  0
 31 32  2  0
 31 33  1  0
 33 34  1  0
 34 35  1  0
 35 36  2  0
 35 37  1  0
 34 38  1  0
 38 39  1  0
 39 40  2  0
 40 41  1  0
 41 42  2  0
 42 43  1  0
 43 44  2  0
 42 45  1  0
 45 46  1  0
 46 47  1  0
 47 48  1  0
 48 49  1  0
 49 50  1  0
 50 51  1  0
 51 52  1  0
 52 53  1  0
 53 54  2  0
 53 55  1  0
 55 56  1  0
 56 57  1  0
 57 58  1  0
 58 59  2  0
 59 60  1  0
 60 61  2  0
 61 62  1  0
 62 63  2  0
 63 64  1  0
 64 65  2  0
 65 66  1  0
 66 67  2  0
 56 68  1  0
 68 69  2  0
 68 70  1  0
 70 71  1  0
 71 72  1  0
 72 73  1  0
 73 74  2  0
 73 75  2  0
 73 76  1  0
 76 77  1  0
 77 78  1  0
 71 79  1  0
 79 80  1  0
 80 81  2  0
 81 82  1  0
 82 83  2  0
 83 84  1  0
 84 85  2  0
 83 86  1  0
 86 87  1  0
 87 88  1  0
 88 89  2  0
 89 90  1  0
 90 91  1  0
 91 92  2  0
 52 93  1  0
 93 94  1  0
 94 95  2  0
 94 96  1  0
 96 97  1  0
 97 98  1  0
 98 99  2  0
 98100  1  0
100101  1  0
100102  1  0
102103  1  0
 96104  1  0
104105  1  0
104106  1  0
104107  1  0
 93108  1  0
  8109  1  0
109110  1  0
109111  1  0
109112  1  0
 15 11  1  0
 30 21  1  0
 44 39  1  0
108 50  1  0
 90 13  1  0
 29 24  1  0
 67 58  1  0
 78 76  1  0
 85 80  1  0
 92 88  1  0
 66 61  1  0
  1113  1  0
  1114  1  0
  1115  1  0
  2116  1  0
  3117  1  1
  4118  1  0
  4119  1  0
  4120  1  0
  7121  1  0
  8122  1  1
 12123  1  0
 12124  1  0
 13125  1  6
 14126  1  0
 14127  1  0
 15128  1  6
 18129  1  0
 19130  1  1
 20131  1  0
 20132  1  0
 22133  1  0
 23134  1  0
 25135  1  0
 26136  1  0
 27137  1  0
 28138  1  0
 30139  1  0
 33140  1  0
 34141  1  6
 37142  1  0
 38143  1  0
 38144  1  0
 40145  1  0
 41146  1  0
 43147  1  0
 44148  1  0
 46149  1  0
 46150  1  0
 47151  1  0
 47152  1  0
 48153  1  0
 48154  1  0
 49155  1  0
 49156  1  0
 50157  1  6
 51158  1  0
 51159  1  0
 52160  1  6
 55161  1  0
 56162  1  1
 57163  1  0
 57164  1  0
 59165  1  0
 60166  1  0
 62167  1  0
 63168  1  0
 64169  1  0
 65170  1  0
 67171  1  0
 70172  1  0
 71173  1  6
 72174  1  0
 76175  1  0
 77176  1  0
 77177  1  0
 78178  1  0
 78179  1  0
 79180  1  0
 79181  1  0
 81182  1  0
 82183  1  0
 84184  1  0
 85185  1  0
 87186  1  0
 87187  1  0
 89188  1  0
 96189  1  1
 97190  1  0
100191  1  6
101192  1  0
101193  1  0
101194  1  0
102195  1  0
103196  1  0
103197  1  0
103198  1  0
105199  1  0
105200  1  0
105201  1  0
106202  1  0
106203  1  0
106204  1  0
107205  1  0
107206  1  0
107207  1  0
108208  1  0
108209  1  0
110210  1  0
110211  1  0
110212  1  0
111213  1  0
111214  1  0
111215  1  0
112216  1  0
112217  1  0
112218  1  0
M  END
$$$$
