
     RDKit          3D

 34 34  0  0  0  0  0  0  0  0999 V2000
    0.1179   -1.1078    1.1077 C   0  0  0  0  0  0  0  0  0  0  0  0
   -0.1765    0.0079    0.1498 C   0  0  0  0  0  0  0  0  0  0  0  0
   -1.4485    0.6043    0.2860 N   0  0  0  0  0  0  0  0  0  0  0  0
   -2.6171   -0.1400    0.0474 C   0  0  0  0  0  0  0  0  0  0  0  0
   -2.6934   -0.7549   -1.3359 C   0  0  0  0  0  0  0  0  0  0  0  0
   -3.7625    0.9025    0.0269 C   0  0  0  0  0  0  0  0  0  0  0  0
   -3.0230   -1.1338    1.0994 C   0  0  0  0  0  0  0  0  0  0  0  0
    0.8661    1.0402    0.3802 C   0  0  0  0  0  0  0  0  0  0  0  0
    0.5184    2.1925    0.7476 O   0  0  0  0  0  0  0  0  0  0  0  0
    2.2923    0.8191    0.2102 C   0  0  0  0  0  0  0  0  0  0  0  0
    3.2373    1.7776    0.4840 C   0  0  0  0  0  0  0  0  0  0  0  0
    4.5892    1.5706    0.3074 C   0  0  0  0  0  0  0  0  0  0  0  0
    5.0310    0.3554   -0.1635 C   0  0  0  0  0  0  0  0  0  0  0  0
    4.0914   -0.6233   -0.4452 C   0  0  0  0  0  0  0  0  0  0  0  0
    4.6482   -2.1600   -1.0405 Cl  0  0  0  0  0  0  0  0  0  0  0  0
    2.7215   -0.3994   -0.2614 C   0  0  0  0  0  0  0  0  0  0  0  0
    1.1236   -1.0066    1.6135 H   0  0  0  0  0  0  0  0  0  0  0  0
   -0.6080   -1.2205    1.9335 H   0  0  0  0  0  0  0  0  0  0  0  0
    0.1106   -2.0615    0.5523 H   0  0  0  0  0  0  0  0  0  0  0  0
   -0.0630   -0.3836   -0.9039 H   0  0  0  0  0  0  0  0  0  0  0  0
   -1.4675    1.4714   -0.2982 H   0  0  0  0  0  0  0  0  0  0  0  0
   -3.0641   -0.0379   -2.0983 H   0  0  0  0  0  0  0  0  0  0  0  0
   -3.4810   -1.5560   -1.2717 H   0  0  0  0  0  0  0  0  0  0  0  0
   -1.7706   -1.2539   -1.6405 H   0  0  0  0  0  0  0  0  0  0  0  0
   -3.6911    1.4457   -0.9224 H   0  0  0  0  0  0  0  0  0  0  0  0
   -3.5658    1.5408    0.9188 H   0  0  0  0  0  0  0  0  0  0  0  0
   -4.7033    0.3456    0.1261 H   0  0  0  0  0  0  0  0  0  0  0  0
   -4.1344   -1.3633    1.0377 H   0  0  0  0  0  0  0  0  0  0  0  0
   -2.5672   -2.1423    0.9601 H   0  0  0  0  0  0  0  0  0  0  0  0
   -2.9175   -0.7320    2.1277 H   0  0  0  0  0  0  0  0  0  0  0  0
    2.9281    2.7573    0.8601 H   0  0  0  0  0  0  0  0  0  0  0  0
    5.3064    2.3441    0.5318 H   0  0  0  0  0  0  0  0  0  0  0  0
    6.0935    0.1316   -0.3241 H   0  0  0  0  0  0  0  0  0  0  0  0
    2.0794   -1.2299   -0.5213 H   0  0  0  0  0  0  0  0  0  0  0  0
  1  2  1  0
  2  3  1  0
  3  4  1  0
  4  5  1  0
  4  6  1  0
  4  7  1  0
  2  8  1  0
  8  9  2  0
  8 10  1  0
 10 11  2  0
 11 12  1  0
 12 13  2  0
 13 14  1  0
 14 15  1  0
 14 16  2  0
 16 10  1  0
  1 17  1  0
  1 18  1  0
  1 19  1  0
  2 20  1  0
  3 21  1  0
  5 22  1  0
  5 23  1  0
  5 24  1  0
  6 25  1  0
  6 26  1  0
  6 27  1  0
  7 28  1  0
  7 29  1  0
  7 30  1  0
 11 31  1  0
 12 32  1  0
 13 33  1  0
 16 34  1  0
M  END
$$$$
