
     RDKit          3D

 75 80  0  0  0  0  0  0  0  0999 V2000
   -7.1630   -3.4860   -1.8473 C   0  0  0  0  0  0  0  0  0  0  0  0
   -7.9173   -2.5269   -1.1176 N   0  0  0  0  0  0  0  0  0  0  0  0
   -9.3988   -2.6996   -1.1792 C   0  0  0  0  0  0  0  0  0  0  0  0
   -7.4257   -1.4669   -0.3796 C   0  0  0  0  0  0  0  0  0  0  0  0
   -8.3489   -0.7737    0.1783 O   0  0  0  0  0  0  0  0  0  0  0  0
   -6.0383   -1.1193   -0.2107 C   0  0  0  0  0  0  0  0  0  0  0  0
   -4.9747   -1.9344   -0.6351 C   0  0  0  0  0  0  0  0  0  0  0  0
   -3.8076   -1.2645   -0.2924 C   0  0  0  0  0  0  0  0  0  0  0  0
   -2.4651   -1.5911   -0.4540 C   0  0  0  0  0  0  0  0  0  0  0  0
   -1.5320   -0.7427   -0.0049 N   0  0  0  0  0  0  0  0  0  0  0  0
   -1.8535    0.4142    0.5946 C   0  0  0  0  0  0  0  0  0  0  0  0
   -0.8303    1.2820    1.0983 N   0  0  0  0  0  0  0  0  0  0  0  0
    0.5008    0.7896    1.1071 C   0  0  0  0  0  0  0  0  0  0  0  0
    1.5669    1.5207    1.5758 C   0  0  0  0  0  0  0  0  0  0  0  0
    2.8722    1.0246    1.6329 C   0  0  0  0  0  0  0  0  0  0  0  0
    3.0732   -0.2441    1.1985 C   0  0  0  0  0  0  0  0  0  0  0  0
    4.3767   -0.8869    1.2499 C   0  0  0  0  0  0  0  0  0  0  0  0
    4.5002   -1.8766    2.0433 O   0  0  0  0  0  0  0  0  0  0  0  0
    5.4914   -0.4982    0.4981 N   0  0  0  0  0  0  0  0  0  0  0  0
    6.7403   -1.2460    0.6482 C   0  0  0  0  0  0  0  0  0  0  0  0
    7.8336   -0.1877    0.8196 C   0  0  0  0  0  0  0  0  0  0  0  0
    7.3252    0.7980    1.8187 C   0  0  0  0  0  0  0  0  0  0  0  0
    6.8268    1.9994    1.0453 C   0  0  0  0  0  0  0  0  0  0  0  0
    6.6851    1.4485   -0.3542 C   0  0  0  0  0  0  0  0  0  0  0  0
    5.4042    0.6285   -0.4031 C   0  0  0  0  0  0  0  0  0  0  0  0
    7.8229    0.5613   -0.4426 N   0  0  0  0  0  0  0  0  0  0  0  0
    8.7401    0.4350   -1.5091 C   0  0  0  0  0  0  0  0  0  0  0  0
    8.5927    1.1663   -2.5200 O   0  0  0  0  0  0  0  0  0  0  0  0
    9.8420   -0.5333   -1.4307 C   0  0  0  0  0  0  0  0  0  0  0  0
   10.6889   -0.5392   -2.5962 N   0  0  0  0  0  0  0  0  0  0  0  0
    2.0063   -0.9895    0.7222 C   0  0  0  0  0  0  0  0  0  0  0  0
    0.7711   -0.4838    0.6820 N   0  0  0  0  0  0  0  0  0  0  0  0
   -3.1651    0.7050    0.7338 N   0  0  0  0  0  0  0  0  0  0  0  0
   -4.1508   -0.1059    0.3065 C   0  0  0  0  0  0  0  0  0  0  0  0
   -5.5543   -0.0181    0.3565 N   0  0  0  0  0  0  0  0  0  0  0  0
   -6.0605    1.1302    0.9579 C   0  0  0  0  0  0  0  0  0  0  0  0
   -5.5237    2.4047    0.2089 C   0  0  0  0  0  0  0  0  0  0  0  0
   -6.7185    2.6874   -0.6909 C   0  0  0  0  0  0  0  0  0  0  0  0
   -7.9620    2.3387    0.1136 C   0  0  0  0  0  0  0  0  0  0  0  0
   -7.3828    1.5363    1.2695 C   0  0  0  0  0  0  0  0  0  0  0  0
   -6.6417   -4.2533   -1.1963 H   0  0  0  0  0  0  0  0  0  0  0  0
   -7.8841   -4.2006   -2.4192 H   0  0  0  0  0  0  0  0  0  0  0  0
   -6.5543   -3.0915   -2.6748 H   0  0  0  0  0  0  0  0  0  0  0  0
   -9.8985   -1.7314   -1.1824 H   0  0  0  0  0  0  0  0  0  0  0  0
   -9.7188   -3.3978   -0.3900 H   0  0  0  0  0  0  0  0  0  0  0  0
   -9.6557   -3.1953   -2.1462 H   0  0  0  0  0  0  0  0  0  0  0  0
   -4.9395   -2.8710   -1.1195 H   0  0  0  0  0  0  0  0  0  0  0  0
   -2.2022   -2.5044   -0.9271 H   0  0  0  0  0  0  0  0  0  0  0  0
   -1.0448    2.2147    1.4375 H   0  0  0  0  0  0  0  0  0  0  0  0
    1.4036    2.5421    1.9233 H   0  0  0  0  0  0  0  0  0  0  0  0
    3.6741    1.6325    2.0123 H   0  0  0  0  0  0  0  0  0  0  0  0
    6.6597   -1.8909    1.5277 H   0  0  0  0  0  0  0  0  0  0  0  0
    6.9822   -1.8072   -0.2614 H   0  0  0  0  0  0  0  0  0  0  0  0
    8.8114   -0.6221    1.0393 H   0  0  0  0  0  0  0  0  0  0  0  0
    6.4368    0.4118    2.3872 H   0  0  0  0  0  0  0  0  0  0  0  0
    8.0888    1.1293    2.5676 H   0  0  0  0  0  0  0  0  0  0  0  0
    5.8649    2.3726    1.4364 H   0  0  0  0  0  0  0  0  0  0  0  0
    7.5945    2.8099    1.1205 H   0  0  0  0  0  0  0  0  0  0  0  0
    6.6497    2.2128   -1.1417 H   0  0  0  0  0  0  0  0  0  0  0  0
    5.3117    0.2592   -1.4354 H   0  0  0  0  0  0  0  0  0  0  0  0
    4.5384    1.2447   -0.1693 H   0  0  0  0  0  0  0  0  0  0  0  0
    9.4613   -1.5798   -1.3166 H   0  0  0  0  0  0  0  0  0  0  0  0
   10.4184   -0.3417   -0.4947 H   0  0  0  0  0  0  0  0  0  0  0  0
   11.6976   -0.4632   -2.3690 H   0  0  0  0  0  0  0  0  0  0  0  0
   10.5903   -1.3893   -3.1979 H   0  0  0  0  0  0  0  0  0  0  0  0
    2.1949   -1.9895    0.3825 H   0  0  0  0  0  0  0  0  0  0  0  0
   -5.4406    1.2449    1.9577 H   0  0  0  0  0  0  0  0  0  0  0  0
   -4.7022    2.0640   -0.4381 H   0  0  0  0  0  0  0  0  0  0  0  0
   -5.2966    3.2030    0.9113 H   0  0  0  0  0  0  0  0  0  0  0  0
   -6.6514    2.0520   -1.5840 H   0  0  0  0  0  0  0  0  0  0  0  0
   -6.7047    3.7446   -0.9772 H   0  0  0  0  0  0  0  0  0  0  0  0
   -8.3948    3.3066    0.4343 H   0  0  0  0  0  0  0  0  0  0  0  0
   -8.7186    1.8340   -0.4691 H   0  0  0  0  0  0  0  0  0  0  0  0
   -7.2306    2.4334    2.0515 H   0  0  0  0  0  0  0  0  0  0  0  0
   -8.0866    0.9607    1.8538 H   0  0  0  0  0  0  0  0  0  0  0  0
  1  2  1  0
  2  3  1  0
  2  4  1  0
  4  5  2  0
  4  6  1  0
  6  7  2  0
  7  8  1  0
  8  9  2  0
  9 10  1  0
 10 11  2  0
 11 12  1  0
 12 13  1  0
 13 14  2  0
 14 15  1  0
 15 16  2  0
 16 17  1  0
 17 18  2  0
 17 19  1  0
 19 20  1  0
 20 21  1  0
 21 22  1  0
 22 23  1  0
 23 24  1  0
 24 25  1  0
 24 26  1  0
 26 27  1  0
 27 28  2  0
 27 29  1  0
 29 30  1  0
 16 31  1  0
 31 32  2  0
 11 33  1  0
 33 34  2  0
 34 35  1  0
 35 36  1  0
 36 37  1  0
 37 38  1  0
 38 39  1  0
 39 40  1  0
 35  6  1  0
 40 36  1  0
 34  8  1  0
 32 13  1  0
 25 19  1  0
 26 21  1  0
  1 41  1  0
  1 42  1  0
  1 43  1  0
  3 44  1  0
  3 45  1  0
  3 46  1  0
  7 47  1  0
  9 48  1  0
 12 49  1  0
 14 50  1  0
 15 51  1  0
 20 52  1  0
 20 53  1  0
 21 54  1  0
 22 55  1  0
 22 56  1  0
 23 57  1  0
 23 58  1  0
 24 59  1  0
 25 60  1  0
 25 61  1  0
 29 62  1  0
 29 63  1  0
 30 64  1  0
 30 65  1  0
 31 66  1  0
 36 67  1  0
 37 68  1  0
 37 69  1  0
 38 70  1  0
 38 71  1  0
 39 72  1  0
 39 73  1  0
 40 74  1  0
 40 75  1  0
M  END
$$$$
