
     RDKit          3D

 38 39  0  0  0  0  0  0  0  0999 V2000
   -2.5626    3.8349    0.8941 C   0  0  0  0  0  0  0  0  0  0  0  0
   -2.2496    2.6116    0.6374 O   0  0  0  0  0  0  0  0  0  0  0  0
   -1.8119    1.4029    0.4663 C   0  0  0  0  0  0  0  0  0  0  0  0
   -0.6288    0.9036    1.0430 C   0  0  0  0  0  0  0  0  0  0  0  0
   -0.1743   -0.3674    0.8602 C   0  0  0  0  0  0  0  0  0  0  0  0
    1.0662   -0.8889    1.4714 C   0  0  0  0  0  0  0  0  0  0  0  0
    2.3019   -0.5474    0.7777 C   0  0  0  0  0  0  0  0  0  0  0  0
    3.0643    0.4818    1.2849 C   0  0  0  0  0  0  0  0  0  0  0  0
    4.2073    0.8685    0.6981 N   0  0  0  0  0  0  0  0  0  0  0  0
    4.6240    0.2239   -0.4308 C   0  0  0  0  0  0  0  0  0  0  0  0
    5.8368    0.6586   -1.0282 N   0  0  0  0  0  0  0  0  0  0  0  0
    3.8864   -0.7773   -0.9270 N   0  0  0  0  0  0  0  0  0  0  0  0
    2.7211   -1.1961   -0.3570 C   0  0  0  0  0  0  0  0  0  0  0  0
    1.9912   -2.2780   -0.9344 N   0  0  0  0  0  0  0  0  0  0  0  0
   -0.9212   -1.2005    0.0662 C   0  0  0  0  0  0  0  0  0  0  0  0
   -2.0899   -0.7875   -0.5343 C   0  0  0  0  0  0  0  0  0  0  0  0
   -2.8475   -1.6380   -1.3436 O   0  0  0  0  0  0  0  0  0  0  0  0
   -2.5375   -2.9599   -1.6389 C   0  0  0  0  0  0  0  0  0  0  0  0
   -2.5326    0.4972   -0.3390 C   0  0  0  0  0  0  0  0  0  0  0  0
   -3.8012    0.9782   -0.9807 C   0  0  0  0  0  0  0  0  0  0  0  0
   -3.6029    4.0554    1.2828 H   0  0  0  0  0  0  0  0  0  0  0  0
   -2.3768    4.5377    0.0253 H   0  0  0  0  0  0  0  0  0  0  0  0
   -1.9142    4.3032    1.7147 H   0  0  0  0  0  0  0  0  0  0  0  0
   -0.0789    1.5851    1.6536 H   0  0  0  0  0  0  0  0  0  0  0  0
    0.9668   -2.0127    1.5436 H   0  0  0  0  0  0  0  0  0  0  0  0
    1.0636   -0.5529    2.5468 H   0  0  0  0  0  0  0  0  0  0  0  0
    2.7769    1.0362    2.1912 H   0  0  0  0  0  0  0  0  0  0  0  0
    6.7693    0.3653   -0.6847 H   0  0  0  0  0  0  0  0  0  0  0  0
    5.7792    1.2972   -1.8432 H   0  0  0  0  0  0  0  0  0  0  0  0
    1.6923   -2.2330   -1.9256 H   0  0  0  0  0  0  0  0  0  0  0  0
    1.7423   -3.1267   -0.3882 H   0  0  0  0  0  0  0  0  0  0  0  0
   -0.6188   -2.2181   -0.1079 H   0  0  0  0  0  0  0  0  0  0  0  0
   -2.9617   -3.2523   -2.6458 H   0  0  0  0  0  0  0  0  0  0  0  0
   -1.4458   -3.1523   -1.6951 H   0  0  0  0  0  0  0  0  0  0  0  0
   -2.9651   -3.6622   -0.9065 H   0  0  0  0  0  0  0  0  0  0  0  0
   -3.6184    1.9019   -1.5725 H   0  0  0  0  0  0  0  0  0  0  0  0
   -4.6136    1.1069   -0.2253 H   0  0  0  0  0  0  0  0  0  0  0  0
   -4.1363    0.2013   -1.6973 H   0  0  0  0  0  0  0  0  0  0  0  0
  1  2  1  0
  2  3  1  0
  3  4  2  0
  4  5  1  0
  5  6  1  0
  6  7  1  0
  7  8  2  0
  8  9  1  0
  9 10  2  0
 10 11  1  0
 10 12  1  0
 12 13  2  0
 13 14  1  0
  5 15  2  0
 15 16  1  0
 16 17  1  0
 17 18  1  0
 16 19  2  0
 19 20  1  0
 19  3  1  0
 13  7  1  0
  1 21  1  0
  1 22  1  0
  1 23  1  0
  4 24  1  0
  6 25  1  0
  6 26  1  0
  8 27  1  0
 11 28  1  0
 11 29  1  0
 14 30  1  0
 14 31  1  0
 15 32  1  0
 18 33  1  0
 18 34  1  0
 18 35  1  0
 20 36  1  0
 20 37  1  0
 20 38  1  0
M  END
$$$$
