
     RDKit          3D

 63 66  0  0  0  0  0  0  0  0999 V2000
    5.7947   -1.6270   -2.0130 C   0  0  0  0  0  0  0  0  0  0  0  0
    5.3622   -0.1916   -1.8337 C   0  0  0  0  0  0  0  0  0  0  0  0
    5.6525    0.1858   -0.3871 C   0  0  0  0  0  0  0  0  0  0  0  0
    4.9048   -0.6934    0.5401 C   0  0  0  0  0  0  0  0  0  0  0  0
    5.4038   -1.7148    1.2625 N   0  0  0  0  0  0  0  0  0  0  0  0
    4.4345   -2.2586    1.9677 N   0  0  0  0  0  0  0  0  0  0  0  0
    4.6128   -3.3725    2.8498 C   0  0  0  0  0  0  0  0  0  0  0  0
    3.2909   -1.6027    1.7175 C   0  0  0  0  0  0  0  0  0  0  0  0
    3.5560   -0.6001    0.8125 C   0  0  0  0  0  0  0  0  0  0  0  0
    2.5646    0.1933    0.4081 N   0  0  0  0  0  0  0  0  0  0  0  0
    1.2869    0.1286    0.7939 C   0  0  0  0  0  0  0  0  0  0  0  0
    1.0777   -0.8619    1.6743 N   0  0  0  0  0  0  0  0  0  0  0  0
    1.9954   -1.7057    2.1397 C   0  0  0  0  0  0  0  0  0  0  0  0
    1.7074   -2.6017    2.9617 O   0  0  0  0  0  0  0  0  0  0  0  0
    0.1880    0.9725    0.3775 C   0  0  0  0  0  0  0  0  0  0  0  0
    0.2072    2.0293   -0.5009 C   0  0  0  0  0  0  0  0  0  0  0  0
    1.4068    2.3560   -1.0788 O   0  0  0  0  0  0  0  0  0  0  0  0
    1.6095    3.3956   -1.9772 C   0  0  0  0  0  0  0  0  0  0  0  0
    1.2791    4.7102   -1.3326 C   0  0  0  0  0  0  0  0  0  0  0  0
   -0.9268    2.7426   -0.8014 C   0  0  0  0  0  0  0  0  0  0  0  0
   -2.1500    2.4479   -0.2449 C   0  0  0  0  0  0  0  0  0  0  0  0
   -2.2053    1.3930    0.6416 C   0  0  0  0  0  0  0  0  0  0  0  0
   -1.0523    0.6992    0.9204 C   0  0  0  0  0  0  0  0  0  0  0  0
   -3.7161    0.9739    1.3784 S   0  0  0  0  0  0  0  0  0  0  0  0
   -3.5424    0.4873    2.7943 O   0  0  0  0  0  0  0  0  0  0  0  0
   -4.5356    2.2517    1.4798 O   0  0  0  0  0  0  0  0  0  0  0  0
   -4.6474   -0.1585    0.5200 N   0  0  0  0  0  0  0  0  0  0  0  0
   -3.9689   -1.4033    0.3849 C   0  0  0  0  0  0  0  0  0  0  0  0
   -4.7142   -2.4087   -0.4564 C   0  0  0  0  0  0  0  0  0  0  0  0
   -6.0131   -1.9270   -0.8684 N   0  0  0  0  0  0  0  0  0  0  0  0
   -6.9308   -1.7992    0.2416 C   0  0  0  0  0  0  0  0  0  0  0  0
   -5.8200   -0.6749   -1.5713 C   0  0  0  0  0  0  0  0  0  0  0  0
   -5.2347    0.3730   -0.6788 C   0  0  0  0  0  0  0  0  0  0  0  0
    5.0059   -2.1429   -2.6017 H   0  0  0  0  0  0  0  0  0  0  0  0
    5.8720   -2.1464   -1.0416 H   0  0  0  0  0  0  0  0  0  0  0  0
    6.7382   -1.7292   -2.5592 H   0  0  0  0  0  0  0  0  0  0  0  0
    4.2929   -0.0459   -2.0751 H   0  0  0  0  0  0  0  0  0  0  0  0
    5.9383    0.4577   -2.5174 H   0  0  0  0  0  0  0  0  0  0  0  0
    6.7322    0.0710   -0.1661 H   0  0  0  0  0  0  0  0  0  0  0  0
    5.3856    1.2376   -0.2372 H   0  0  0  0  0  0  0  0  0  0  0  0
    5.1736   -4.1649    2.2918 H   0  0  0  0  0  0  0  0  0  0  0  0
    5.2866   -3.0672    3.6823 H   0  0  0  0  0  0  0  0  0  0  0  0
    3.6841   -3.8479    3.1829 H   0  0  0  0  0  0  0  0  0  0  0  0
    2.8464    0.9115   -0.2643 H   0  0  0  0  0  0  0  0  0  0  0  0
    0.8893    3.2364   -2.8190 H   0  0  0  0  0  0  0  0  0  0  0  0
    2.6618    3.4309   -2.3619 H   0  0  0  0  0  0  0  0  0  0  0  0
    0.8326    4.5893   -0.3190 H   0  0  0  0  0  0  0  0  0  0  0  0
    0.5897    5.3114   -1.9426 H   0  0  0  0  0  0  0  0  0  0  0  0
    2.2260    5.3102   -1.2269 H   0  0  0  0  0  0  0  0  0  0  0  0
   -0.9563    3.5711   -1.4898 H   0  0  0  0  0  0  0  0  0  0  0  0
   -3.0560    2.9889   -0.4604 H   0  0  0  0  0  0  0  0  0  0  0  0
   -1.1828   -0.1279    1.6371 H   0  0  0  0  0  0  0  0  0  0  0  0
   -2.9142   -1.2662    0.0108 H   0  0  0  0  0  0  0  0  0  0  0  0
   -3.8612   -1.8470    1.4000 H   0  0  0  0  0  0  0  0  0  0  0  0
   -4.1165   -2.5797   -1.3759 H   0  0  0  0  0  0  0  0  0  0  0  0
   -4.8411   -3.3916    0.0399 H   0  0  0  0  0  0  0  0  0  0  0  0
   -7.9351   -2.1606   -0.0625 H   0  0  0  0  0  0  0  0  0  0  0  0
   -6.5681   -2.3999    1.0989 H   0  0  0  0  0  0  0  0  0  0  0  0
   -7.0220   -0.7221    0.5115 H   0  0  0  0  0  0  0  0  0  0  0  0
   -6.8010   -0.3640   -1.9876 H   0  0  0  0  0  0  0  0  0  0  0  0
   -5.1302   -0.8787   -2.4144 H   0  0  0  0  0  0  0  0  0  0  0  0
   -4.5581    1.0050   -1.2834 H   0  0  0  0  0  0  0  0  0  0  0  0
   -6.0901    1.0227   -0.3282 H   0  0  0  0  0  0  0  0  0  0  0  0
  1  2  1  0
  2  3  1  0
  3  4  1  0
  4  5  2  0
  5  6  1  0
  6  7  1  0
  6  8  1  0
  8  9  2  0
  9 10  1  0
 10 11  1  0
 11 12  2  0
 12 13  1  0
 13 14  2  0
 11 15  1  0
 15 16  2  0
 16 17  1  0
 17 18  1  0
 18 19  1  0
 16 20  1  0
 20 21  2  0
 21 22  1  0
 22 23  2  0
 22 24  1  0
 24 25  2  0
 24 26  2  0
 24 27  1  0
 27 28  1  0
 28 29  1  0
 29 30  1  0
 30 31  1  0
 30 32  1  0
 32 33  1  0
  9  4  1  0
 23 15  1  0
 33 27  1  0
 13  8  1  0
  1 34  1  0
  1 35  1  0
  1 36  1  0
  2 37  1  0
  2 38  1  0
  3 39  1  0
  3 40  1  0
  7 41  1  0
  7 42  1  0
  7 43  1  0
 10 44  1  0
 18 45  1  0
 18 46  1  0
 19 47  1  0
 19 48  1  0
 19 49  1  0
 20 50  1  0
 21 51  1  0
 23 52  1  0
 28 53  1  0
 28 54  1  0
 29 55  1  0
 29 56  1  0
 31 57  1  0
 31 58  1  0
 31 59  1  0
 32 60  1  0
 32 61  1  0
 33 62  1  0
 33 63  1  0
M  END
$$$$
