
     RDKit          3D

 30 31  0  0  0  0  0  0  0  0999 V2000
    3.5635   -1.4592   -1.5872 C   0  0  0  0  0  0  0  0  0  0  0  0
    2.9414   -0.4940   -0.6480 C   0  0  0  0  0  0  0  0  0  0  0  0
    1.6232   -0.6064   -0.1899 C   0  0  0  0  0  0  0  0  0  0  0  0
    0.7717   -2.0152   -0.8428 Cl  0  0  0  0  0  0  0  0  0  0  0  0
    1.0739    0.3273    0.6973 C   0  0  0  0  0  0  0  0  0  0  0  0
   -0.2365   -0.0055    1.0124 N   0  0  0  0  0  0  0  0  0  0  0  0
   -1.5154   -0.1991    0.5045 C   0  0  0  0  0  0  0  0  0  0  0  0
   -1.9276   -1.5080    0.8152 C   0  0  0  0  0  0  0  0  0  0  0  0
   -3.1764   -2.0075    0.4327 C   0  0  0  0  0  0  0  0  0  0  0  0
   -3.9959   -1.1537   -0.2696 C   0  0  0  0  0  0  0  0  0  0  0  0
   -3.6521    0.1319   -0.6032 C   0  0  0  0  0  0  0  0  0  0  0  0
   -2.4135    0.5611   -0.1992 C   0  0  0  0  0  0  0  0  0  0  0  0
   -1.9384    1.8931   -0.5329 C   0  0  0  0  0  0  0  0  0  0  0  0
   -2.7732    2.7479   -1.2233 O   0  0  0  0  0  0  0  0  0  0  0  0
   -0.8419    2.4391   -0.2931 O   0  0  0  0  0  0  0  0  0  0  0  0
    1.8678    1.3641    1.1115 C   0  0  0  0  0  0  0  0  0  0  0  0
    1.1662    2.4824    2.2516 Cl  0  0  0  0  0  0  0  0  0  0  0  0
    3.1650    1.4688    0.6556 C   0  0  0  0  0  0  0  0  0  0  0  0
    3.7091    0.5516   -0.2187 C   0  0  0  0  0  0  0  0  0  0  0  0
    4.6287   -1.6895   -1.2990 H   0  0  0  0  0  0  0  0  0  0  0  0
    3.0176   -2.4336   -1.4996 H   0  0  0  0  0  0  0  0  0  0  0  0
    3.4934   -1.1559   -2.6372 H   0  0  0  0  0  0  0  0  0  0  0  0
   -0.1014   -0.1405    2.0625 H   0  0  0  0  0  0  0  0  0  0  0  0
   -1.3761   -2.2684    1.3589 H   0  0  0  0  0  0  0  0  0  0  0  0
   -3.5401   -3.0006    0.6451 H   0  0  0  0  0  0  0  0  0  0  0  0
   -4.9722   -1.4720   -0.5964 H   0  0  0  0  0  0  0  0  0  0  0  0
   -4.2561    0.8414   -1.1514 H   0  0  0  0  0  0  0  0  0  0  0  0
   -2.7344    3.7360   -1.0135 H   0  0  0  0  0  0  0  0  0  0  0  0
    3.6921    2.3305    1.0525 H   0  0  0  0  0  0  0  0  0  0  0  0
    4.7377    0.7343   -0.5094 H   0  0  0  0  0  0  0  0  0  0  0  0
  1  2  1  0
  2  3  2  0
  3  4  1  0
  3  5  1  0
  5  6  1  0
  6  7  1  0
  7  8  2  0
  8  9  1  0
  9 10  2  0
 10 11  1  0
 11 12  2  0
 12 13  1  0
 13 14  1  0
 13 15  2  0
  5 16  2  0
 16 17  1  0
 16 18  1  0
 18 19  2  0
 19  2  1  0
 12  7  1  0
  1 20  1  0
  1 21  1  0
  1 22  1  0
  6 23  1  0
  8 24  1  0
  9 25  1  0
 10 26  1  0
 11 27  1  0
 14 28  1  0
 18 29  1  0
 19 30  1  0
M  END
$$$$
