
     RDKit          3D

 51 54  0  0  0  0  0  0  0  0999 V2000
   -6.8893    1.7050    0.2261 C   0  0  0  0  0  0  0  0  0  0  0  0
   -5.6718    1.0303    0.6150 N   0  0  0  0  0  0  0  0  0  0  0  0
   -5.5654    0.4718    1.9426 C   0  0  0  0  0  0  0  0  0  0  0  0
   -4.6149    0.9159   -0.2991 C   0  0  0  0  0  0  0  0  0  0  0  0
   -4.7848    1.4162   -1.4687 O   0  0  0  0  0  0  0  0  0  0  0  0
   -3.3254    0.2631   -0.0163 C   0  0  2  0  0  0  0  0  0  0  0  0
   -2.4156    0.8287    1.0007 C   0  0  0  0  0  0  0  0  0  0  0  0
   -2.0537    0.8983   -0.4362 C   0  0  1  0  0  0  0  0  0  0  0  0
   -1.0722   -0.0442   -1.0496 C   0  0  1  0  0  0  0  0  0  0  0  0
   -1.7051   -0.5368   -2.3597 C   0  0  0  0  0  0  0  0  0  0  0  0
    0.1925    0.6373   -1.4402 C   0  0  0  0  0  0  0  0  0  0  0  0
    1.3963    0.1365   -0.9267 C   0  0  0  0  0  0  0  0  0  0  0  0
    2.5771    0.7512   -1.2468 C   0  0  0  0  0  0  0  0  0  0  0  0
    3.8876    0.2855   -0.7397 C   0  0  0  0  0  0  0  0  0  0  0  0
    4.0896   -0.1595    0.4681 C   0  0  0  0  0  0  0  0  0  0  0  0
    2.9883   -0.1795    1.2880 F   0  0  0  0  0  0  0  0  0  0  0  0
    5.3578   -0.6257    1.0003 C   0  0  0  0  0  0  0  0  0  0  0  0
    6.5234   -0.6644    0.2748 C   0  0  0  0  0  0  0  0  0  0  0  0
    7.7277   -1.1183    0.8289 C   0  0  0  0  0  0  0  0  0  0  0  0
    7.7645   -1.5422    2.1375 C   0  0  0  0  0  0  0  0  0  0  0  0
    9.2507   -2.1256    2.8941 Cl  0  0  0  0  0  0  0  0  0  0  0  0
    6.5814   -1.4933    2.8431 C   0  0  0  0  0  0  0  0  0  0  0  0
    5.4329   -1.0505    2.2832 N   0  0  0  0  0  0  0  0  0  0  0  0
    2.5160    1.8627   -2.0818 C   0  0  0  0  0  0  0  0  0  0  0  0
    1.3614    2.3356   -2.5689 N   0  0  0  0  0  0  0  0  0  0  0  0
    0.1756    1.7320   -2.2583 C   0  0  0  0  0  0  0  0  0  0  0  0
   -0.9882    2.1853   -2.7616 F   0  0  0  0  0  0  0  0  0  0  0  0
   -0.7143   -1.1730   -0.2217 N   0  0  0  0  0  0  0  0  0  0  0  0
   -1.5957   -1.9949    0.2116 C   0  0  0  0  0  0  0  0  0  0  0  0
   -1.3436   -3.1220    1.0184 N   0  0  0  0  0  0  0  0  0  0  0  0
   -3.2901   -1.5492   -0.2849 S   0  0  0  0  0  0  0  0  0  0  0  0
   -6.6536    2.6131   -0.3874 H   0  0  0  0  0  0  0  0  0  0  0  0
   -7.4014    2.0455    1.1541 H   0  0  0  0  0  0  0  0  0  0  0  0
   -7.5242    1.0076   -0.3681 H   0  0  0  0  0  0  0  0  0  0  0  0
   -5.4131   -0.6321    1.8841 H   0  0  0  0  0  0  0  0  0  0  0  0
   -6.5058    0.6976    2.5257 H   0  0  0  0  0  0  0  0  0  0  0  0
   -4.7697    0.9925    2.5092 H   0  0  0  0  0  0  0  0  0  0  0  0
   -1.8022    0.1270    1.6150 H   0  0  0  0  0  0  0  0  0  0  0  0
   -2.7361    1.7285    1.5423 H   0  0  0  0  0  0  0  0  0  0  0  0
   -2.2049    1.8450   -1.0040 H   0  0  0  0  0  0  0  0  0  0  0  0
   -2.7318   -0.1585   -2.4973 H   0  0  0  0  0  0  0  0  0  0  0  0
   -1.7855   -1.6537   -2.3569 H   0  0  0  0  0  0  0  0  0  0  0  0
   -1.1257   -0.2202   -3.2490 H   0  0  0  0  0  0  0  0  0  0  0  0
    1.4103   -0.7410   -0.2723 H   0  0  0  0  0  0  0  0  0  0  0  0
    4.7140    0.3250   -1.4299 H   0  0  0  0  0  0  0  0  0  0  0  0
    6.4897   -0.3305   -0.7502 H   0  0  0  0  0  0  0  0  0  0  0  0
    8.6187   -1.1348    0.2316 H   0  0  0  0  0  0  0  0  0  0  0  0
    6.6269   -1.8331    3.8831 H   0  0  0  0  0  0  0  0  0  0  0  0
    3.4817    2.3323   -2.3184 H   0  0  0  0  0  0  0  0  0  0  0  0
   -1.0492   -2.9709    2.0066 H   0  0  0  0  0  0  0  0  0  0  0  0
   -1.4309   -4.1156    0.6953 H   0  0  0  0  0  0  0  0  0  0  0  0
  1  2  1  0
  2  3  1  0
  2  4  1  0
  4  5  2  0
  6  4  1  6
  6  7  1  0
  7  8  1  0
  8  9  1  0
  9 10  1  6
  9 11  1  0
 11 12  2  0
 12 13  1  0
 13 14  1  0
 14 15  2  0
 15 16  1  0
 15 17  1  0
 17 18  2  0
 18 19  1  0
 19 20  2  0
 20 21  1  0
 20 22  1  0
 22 23  2  0
 13 24  2  0
 24 25  1  0
 25 26  2  0
 26 27  1  0
  9 28  1  0
 28 29  2  0
 29 30  1  0
 29 31  1  0
  8  6  1  0
 26 11  1  0
 31  6  1  0
 23 17  1  0
  1 32  1  0
  1 33  1  0
  1 34  1  0
  3 35  1  0
  3 36  1  0
  3 37  1  0
  7 38  1  0
  7 39  1  0
  8 40  1  6
 10 41  1  0
 10 42  1  0
 10 43  1  0
 12 44  1  0
 14 45  1  0
 18 46  1  0
 19 47  1  0
 22 48  1  0
 24 49  1  0
 30 50  1  0
 30 51  1  0
M  END
$$$$
