
     RDKit          3D

 44 46  0  0  0  0  0  0  0  0999 V2000
   -6.1382   -1.7376    1.8948 C   0  0  0  0  0  0  0  0  0  0  0  0
   -6.7812   -1.4435    0.6619 O   0  0  0  0  0  0  0  0  0  0  0  0
   -6.0253   -0.8382   -0.3357 C   0  0  0  0  0  0  0  0  0  0  0  0
   -6.6287   -0.5486   -1.5358 C   0  0  0  0  0  0  0  0  0  0  0  0
   -5.8761    0.0490   -2.5185 C   0  0  0  0  0  0  0  0  0  0  0  0
   -4.5265    0.3708   -2.3416 C   0  0  0  0  0  0  0  0  0  0  0  0
   -3.9210    0.0814   -1.1394 C   0  0  0  0  0  0  0  0  0  0  0  0
   -2.5238    0.3798   -0.8991 N   0  0  0  0  0  0  0  0  0  0  0  0
   -2.1697    1.6856   -0.3765 C   0  0  0  0  0  0  0  0  0  0  0  0
   -1.5426   -0.6055   -1.1857 C   0  0  0  0  0  0  0  0  0  0  0  0
   -1.8575   -1.7341   -1.6286 O   0  0  0  0  0  0  0  0  0  0  0  0
   -0.1398   -0.2732   -0.9518 C   0  0  0  0  0  0  0  0  0  0  0  0
    0.6836    0.5749   -1.5919 C   0  0  0  0  0  0  0  0  0  0  0  0
    1.9658    0.6827   -1.1709 C   0  0  0  0  0  0  0  0  0  0  0  0
    2.3754   -0.0542   -0.1336 C   0  0  0  0  0  0  0  0  0  0  0  0
    3.6193   -0.2283    0.5878 C   0  0  0  0  0  0  0  0  0  0  0  0
    3.7227   -1.0599    1.6817 C   0  0  0  0  0  0  0  0  0  0  0  0
    4.8847   -1.2668    2.3550 C   0  0  0  0  0  0  0  0  0  0  0  0
    6.0389   -0.6133    1.9315 C   0  0  0  0  0  0  0  0  0  0  0  0
    5.9641    0.2238    0.8416 C   0  0  0  0  0  0  0  0  0  0  0  0
    7.0897    0.8737    0.4133 O   0  0  0  0  0  0  0  0  0  0  0  0
    8.3709    0.7751    0.9761 C   0  0  0  0  0  0  0  0  0  0  0  0
    4.7497    0.4108    0.1761 C   0  0  0  0  0  0  0  0  0  0  0  0
    4.7524    1.2388   -0.8753 F   0  0  0  0  0  0  0  0  0  0  0  0
    0.8709   -1.0040    0.3373 S   0  0  0  0  0  0  0  0  0  0  0  0
   -4.6966   -0.5208   -0.1618 C   0  0  0  0  0  0  0  0  0  0  0  0
   -6.7727   -2.3809    2.5132 H   0  0  0  0  0  0  0  0  0  0  0  0
   -5.8199   -0.8013    2.3717 H   0  0  0  0  0  0  0  0  0  0  0  0
   -5.2104   -2.2848    1.6302 H   0  0  0  0  0  0  0  0  0  0  0  0
   -7.6633   -0.7649   -1.7493 H   0  0  0  0  0  0  0  0  0  0  0  0
   -6.2949    0.3000   -3.4792 H   0  0  0  0  0  0  0  0  0  0  0  0
   -3.9394    0.8481   -3.1298 H   0  0  0  0  0  0  0  0  0  0  0  0
   -1.3963    2.2063   -0.9895 H   0  0  0  0  0  0  0  0  0  0  0  0
   -1.8445    1.5895    0.6806 H   0  0  0  0  0  0  0  0  0  0  0  0
   -3.0689    2.3546   -0.4070 H   0  0  0  0  0  0  0  0  0  0  0  0
    0.2661    1.1664   -2.4620 H   0  0  0  0  0  0  0  0  0  0  0  0
    2.6857    1.3824   -1.6792 H   0  0  0  0  0  0  0  0  0  0  0  0
    2.8237   -1.5687    2.0118 H   0  0  0  0  0  0  0  0  0  0  0  0
    4.9922   -1.9144    3.2188 H   0  0  0  0  0  0  0  0  0  0  0  0
    6.9757   -0.7765    2.4746 H   0  0  0  0  0  0  0  0  0  0  0  0
    8.5641    1.5230    1.7660 H   0  0  0  0  0  0  0  0  0  0  0  0
    9.1119    0.9835    0.1543 H   0  0  0  0  0  0  0  0  0  0  0  0
    8.5281   -0.2722    1.2839 H   0  0  0  0  0  0  0  0  0  0  0  0
   -4.1981   -0.7418    0.7799 H   0  0  0  0  0  0  0  0  0  0  0  0
  1  2  1  0
  2  3  1  0
  3  4  2  0
  4  5  1  0
  5  6  2  0
  6  7  1  0
  7  8  1  0
  8  9  1  0
  8 10  1  0
 10 11  2  0
 10 12  1  0
 12 13  2  0
 13 14  1  0
 14 15  2  0
 15 16  1  0
 16 17  2  0
 17 18  1  0
 18 19  2  0
 19 20  1  0
 20 21  1  0
 21 22  1  0
 20 23  2  0
 23 24  1  0
 15 25  1  0
  7 26  2  0
 26  3  1  0
 25 12  1  0
 23 16  1  0
  1 27  1  0
  1 28  1  0
  1 29  1  0
  4 30  1  0
  5 31  1  0
  6 32  1  0
  9 33  1  0
  9 34  1  0
  9 35  1  0
 13 36  1  0
 14 37  1  0
 17 38  1  0
 18 39  1  0
 19 40  1  0
 22 41  1  0
 22 42  1  0
 22 43  1  0
 26 44  1  0
M  END
$$$$
