
     RDKit          3D

 57 60  0  0  0  0  0  0  0  0999 V2000
   -7.8895    0.8573    1.8559 C   0  0  0  0  0  0  0  0  0  0  0  0
   -6.6672    1.1866    2.2993 O   0  0  0  0  0  0  0  0  0  0  0  0
   -5.5313    0.7957    1.7142 C   0  0  0  0  0  0  0  0  0  0  0  0
   -5.2831    1.1476    0.2792 C   0  0  2  0  0  0  0  0  0  0  0  0
   -6.3004    0.4966   -0.6440 C   0  0  0  0  0  0  0  0  0  0  0  0
   -5.4026   -0.1044   -1.7494 C   0  0  0  0  0  0  0  0  0  0  0  0
   -4.2241   -0.5171   -0.8455 C   0  0  0  0  0  0  0  0  0  0  0  0
   -3.9917    0.7420   -0.1845 N   0  0  0  0  0  0  0  0  0  0  0  0
   -2.7638    0.6521    0.9789 S   0  0  0  0  0  6  0  0  0  0  0  0
   -2.5627    1.9353    1.7304 O   0  0  0  0  0  0  0  0  0  0  0  0
   -3.0703   -0.4217    1.9808 O   0  0  0  0  0  0  0  0  0  0  0  0
   -1.2677    0.1966    0.1448 C   0  0  0  0  0  0  0  0  0  0  0  0
   -0.4124    1.1492   -0.3670 C   0  0  0  0  0  0  0  0  0  0  0  0
    0.7465    0.7710   -1.0125 C   0  0  0  0  0  0  0  0  0  0  0  0
    1.1040   -0.5533   -1.1769 C   0  0  0  0  0  0  0  0  0  0  0  0
    0.2496   -1.5080   -0.6656 C   0  0  0  0  0  0  0  0  0  0  0  0
   -0.9174   -1.1269   -0.0156 C   0  0  0  0  0  0  0  0  0  0  0  0
    0.8393   -2.8081   -0.9625 C   0  0  0  0  0  0  0  0  0  0  0  0
    0.3568   -3.9270   -0.6571 O   0  0  0  0  0  0  0  0  0  0  0  0
    2.0927   -2.6054   -1.6783 C   0  0  0  0  0  0  0  0  0  0  0  0
    2.8742   -3.4945   -2.0955 O   0  0  0  0  0  0  0  0  0  0  0  0
    2.2279   -1.1853   -1.7955 N   0  0  0  0  0  0  0  0  0  0  0  0
    3.3329   -0.5050   -2.4413 C   0  0  0  0  0  0  0  0  0  0  0  0
    4.4442   -0.1968   -1.5491 C   0  0  0  0  0  0  0  0  0  0  0  0
    4.5464    0.9752   -0.8385 C   0  0  0  0  0  0  0  0  0  0  0  0
    5.6327    1.1961   -0.0103 C   0  0  0  0  0  0  0  0  0  0  0  0
    6.6425    0.2749    0.1409 C   0  0  0  0  0  0  0  0  0  0  0  0
    7.8064    0.4578    1.0103 C   0  0  0  0  0  0  0  0  0  0  0  0
    8.4422    1.6653    0.8086 F   0  0  0  0  0  0  0  0  0  0  0  0
    7.5083    0.2811    2.4869 C   0  0  0  0  0  0  0  0  0  0  0  0
    6.1899    1.5611    3.0492 Br  0  0  0  0  0  0  0  0  0  0  0  0
    6.5297   -0.9068   -0.5821 C   0  0  0  0  0  0  0  0  0  0  0  0
    5.4589   -1.1136   -1.3927 C   0  0  0  0  0  0  0  0  0  0  0  0
   -8.1658    1.2363    0.8507 H   0  0  0  0  0  0  0  0  0  0  0  0
   -8.1231   -0.2408    1.9374 H   0  0  0  0  0  0  0  0  0  0  0  0
   -8.6713    1.3283    2.5330 H   0  0  0  0  0  0  0  0  0  0  0  0
   -5.3922   -0.3359    1.7657 H   0  0  0  0  0  0  0  0  0  0  0  0
   -4.6766    1.2329    2.3249 H   0  0  0  0  0  0  0  0  0  0  0  0
   -5.3796    2.2432    0.1357 H   0  0  0  0  0  0  0  0  0  0  0  0
   -6.9517    1.1953   -1.1670 H   0  0  0  0  0  0  0  0  0  0  0  0
   -6.8099   -0.3299   -0.1110 H   0  0  0  0  0  0  0  0  0  0  0  0
   -5.9106   -0.9559   -2.1941 H   0  0  0  0  0  0  0  0  0  0  0  0
   -5.0995    0.6382   -2.4829 H   0  0  0  0  0  0  0  0  0  0  0  0
   -3.4018   -0.7627   -1.5399 H   0  0  0  0  0  0  0  0  0  0  0  0
   -4.5183   -1.3335   -0.1766 H   0  0  0  0  0  0  0  0  0  0  0  0
   -0.6379    2.2024   -0.2696 H   0  0  0  0  0  0  0  0  0  0  0  0
    1.4412    1.5108   -1.4275 H   0  0  0  0  0  0  0  0  0  0  0  0
   -1.5991   -1.8631    0.3916 H   0  0  0  0  0  0  0  0  0  0  0  0
    2.9995    0.4582   -2.9160 H   0  0  0  0  0  0  0  0  0  0  0  0
    3.7207   -1.1184   -3.2857 H   0  0  0  0  0  0  0  0  0  0  0  0
    3.7735    1.7425   -0.9199 H   0  0  0  0  0  0  0  0  0  0  0  0
    5.7238    2.1265    0.5533 H   0  0  0  0  0  0  0  0  0  0  0  0
    8.5581   -0.3472    0.7522 H   0  0  0  0  0  0  0  0  0  0  0  0
    7.2064   -0.7471    2.7314 H   0  0  0  0  0  0  0  0  0  0  0  0
    8.4344    0.4862    3.0574 H   0  0  0  0  0  0  0  0  0  0  0  0
    7.3107   -1.6657   -0.4911 H   0  0  0  0  0  0  0  0  0  0  0  0
    5.4278   -2.0681   -1.9376 H   0  0  0  0  0  0  0  0  0  0  0  0
  1  2  1  0
  2  3  1  0
  3  4  1  0
  4  5  1  0
  5  6  1  0
  6  7  1  0
  7  8  1  0
  8  9  1  0
  9 10  2  0
  9 11  2  0
  9 12  1  0
 12 13  2  0
 13 14  1  0
 14 15  2  0
 15 16  1  0
 16 17  2  0
 16 18  1  0
 18 19  2  0
 18 20  1  0
 20 21  2  0
 20 22  1  0
 22 23  1  0
 23 24  1  0
 24 25  2  0
 25 26  1  0
 26 27  2  0
 27 28  1  0
 28 29  1  0
 28 30  1  0
 30 31  1  0
 27 32  1  0
 32 33  2  0
  8  4  1  0
 17 12  1  0
 33 24  1  0
 22 15  1  0
  1 34  1  0
  1 35  1  0
  1 36  1  0
  3 37  1  0
  3 38  1  0
  4 39  1  1
  5 40  1  0
  5 41  1  0
  6 42  1  0
  6 43  1  0
  7 44  1  0
  7 45  1  0
 13 46  1  0
 14 47  1  0
 17 48  1  0
 23 49  1  0
 23 50  1  0
 25 51  1  0
 26 52  1  0
 28 53  1  0
 30 54  1  0
 30 55  1  0
 32 56  1  0
 33 57  1  0
M  END
$$$$
