
     RDKit          3D

 59 63  0  0  0  0  0  0  0  0999 V2000
    7.1503    3.0745    1.4451 C   0  0  0  0  0  0  0  0  0  0  0  0
    6.0603    2.1976    0.9776 C   0  0  0  0  0  0  0  0  0  0  0  0
    5.2875    1.2729    1.6528 C   0  0  0  0  0  0  0  0  0  0  0  0
    4.4044    0.7101    0.7812 C   0  0  0  0  0  0  0  0  0  0  0  0
    3.3796   -0.3226    1.0231 C   0  0  0  0  0  0  0  0  0  0  0  0
    3.2192   -0.8471    2.1437 O   0  0  0  0  0  0  0  0  0  0  0  0
    2.5348   -0.7553   -0.0265 N   0  0  0  0  0  0  0  0  0  0  0  0
    1.5057   -1.7612    0.1228 C   0  0  2  0  0  0  0  0  0  0  0  0
    1.8042   -2.8495   -0.8859 C   0  0  0  0  0  0  0  0  0  0  0  0
    1.3129   -2.5692   -2.2558 C   0  0  0  0  0  0  0  0  0  0  0  0
    2.4766   -2.6017   -3.2234 C   0  0  0  0  0  0  0  0  0  0  0  0
    0.3705   -3.6715   -2.6881 C   0  0  0  0  0  0  0  0  0  0  0  0
    0.7166   -1.2896   -2.4107 O   0  0  0  0  0  0  0  0  0  0  0  0
   -0.1708   -0.8512   -1.4355 C   0  0  0  0  0  0  0  0  0  0  0  0
   -1.3452   -0.2338   -1.7102 N   0  0  0  0  0  0  0  0  0  0  0  0
   -2.1711    0.1703   -0.6953 C   0  0  0  0  0  0  0  0  0  0  0  0
   -3.4324    0.8325   -1.0022 C   0  0  0  0  0  0  0  0  0  0  0  0
   -4.4600    0.0762   -1.5132 C   0  0  0  0  0  0  0  0  0  0  0  0
   -5.6989    0.5947   -1.8500 C   0  0  0  0  0  0  0  0  0  0  0  0
   -5.8701    1.9505   -1.6462 C   0  0  0  0  0  0  0  0  0  0  0  0
   -7.4423    2.6463   -2.0669 Cl  0  0  0  0  0  0  0  0  0  0  0  0
   -4.8568    2.7120   -1.1393 C   0  0  0  0  0  0  0  0  0  0  0  0
   -3.6370    2.1726   -0.8133 C   0  0  0  0  0  0  0  0  0  0  0  0
   -2.3720    3.2062   -0.1812 Cl  0  0  0  0  0  0  0  0  0  0  0  0
   -1.8283   -0.0404    0.6171 C   0  0  0  0  0  0  0  0  0  0  0  0
   -2.6801    0.3658    1.7387 C   0  0  0  0  0  0  0  0  0  0  0  0
   -2.1881    1.2441    2.6700 C   0  0  0  0  0  0  0  0  0  0  0  0
   -2.9343    1.6695    3.7676 C   0  0  0  0  0  0  0  0  0  0  0  0
   -4.2192    1.2003    3.9407 C   0  0  0  0  0  0  0  0  0  0  0  0
   -5.1802    1.7299    5.3297 Cl  0  0  0  0  0  0  0  0  0  0  0  0
   -4.7234    0.3171    3.0100 C   0  0  0  0  0  0  0  0  0  0  0  0
   -3.9650   -0.0907    1.9300 C   0  0  0  0  0  0  0  0  0  0  0  0
   -0.6077   -0.6808    0.8624 C   0  0  0  0  0  0  0  0  0  0  0  0
    0.2212   -1.0871   -0.1387 C   0  0  0  0  0  0  0  0  0  0  0  0
    4.6400    1.2864   -0.4043 N   0  0  0  0  0  0  0  0  0  0  0  0
    5.6199    2.1700   -0.2993 N   0  0  0  0  0  0  0  0  0  0  0  0
    6.9676    4.1049    1.0707 H   0  0  0  0  0  0  0  0  0  0  0  0
    7.2020    3.1430    2.5493 H   0  0  0  0  0  0  0  0  0  0  0  0
    8.1258    2.7677    1.0187 H   0  0  0  0  0  0  0  0  0  0  0  0
    5.3791    1.0453    2.6973 H   0  0  0  0  0  0  0  0  0  0  0  0
    2.6582   -0.3266   -0.9625 H   0  0  0  0  0  0  0  0  0  0  0  0
    1.5663   -2.1427    1.1743 H   0  0  0  0  0  0  0  0  0  0  0  0
    1.3150   -3.7856   -0.5039 H   0  0  0  0  0  0  0  0  0  0  0  0
    2.8885   -3.0823   -0.9316 H   0  0  0  0  0  0  0  0  0  0  0  0
    2.8700   -3.6279   -3.3702 H   0  0  0  0  0  0  0  0  0  0  0  0
    3.3377   -1.9842   -2.8757 H   0  0  0  0  0  0  0  0  0  0  0  0
    2.1910   -2.2130   -4.2249 H   0  0  0  0  0  0  0  0  0  0  0  0
   -0.2407   -4.0487   -1.8307 H   0  0  0  0  0  0  0  0  0  0  0  0
   -0.2314   -3.4112   -3.5643 H   0  0  0  0  0  0  0  0  0  0  0  0
    0.9962   -4.5551   -3.0031 H   0  0  0  0  0  0  0  0  0  0  0  0
   -4.3572   -1.0074   -1.6899 H   0  0  0  0  0  0  0  0  0  0  0  0
   -6.4959   -0.0475   -2.2568 H   0  0  0  0  0  0  0  0  0  0  0  0
   -5.0382    3.7891   -0.9920 H   0  0  0  0  0  0  0  0  0  0  0  0
   -1.1810    1.6508    2.5908 H   0  0  0  0  0  0  0  0  0  0  0  0
   -2.5541    2.3601    4.5073 H   0  0  0  0  0  0  0  0  0  0  0  0
   -5.7306   -0.0445    3.1537 H   0  0  0  0  0  0  0  0  0  0  0  0
   -4.4077   -0.7841    1.2352 H   0  0  0  0  0  0  0  0  0  0  0  0
   -0.3294   -0.8502    1.9044 H   0  0  0  0  0  0  0  0  0  0  0  0
    4.1478    1.1021   -1.3224 H   0  0  0  0  0  0  0  0  0  0  0  0
  1  2  1  0
  2  3  1  0
  3  4  2  0
  4  5  1  0
  5  6  2  0
  5  7  1  0
  7  8  1  0
  8  9  1  0
  9 10  1  0
 10 11  1  0
 10 12  1  0
 10 13  1  0
 13 14  1  0
 14 15  2  0
 15 16  1  0
 16 17  1  0
 17 18  2  0
 18 19  1  0
 19 20  2  0
 20 21  1  0
 20 22  1  0
 22 23  2  0
 23 24  1  0
 16 25  2  0
 25 26  1  0
 26 27  2  0
 27 28  1  0
 28 29  2  0
 29 30  1  0
 29 31  1  0
 31 32  2  0
 25 33  1  0
 33 34  2  0
  4 35  1  0
 35 36  1  0
 36  2  2  0
 34  8  1  0
 34 14  1  0
 23 17  1  0
 32 26  1  0
  1 37  1  0
  1 38  1  0
  1 39  1  0
  3 40  1  0
  7 41  1  0
  8 42  1  1
  9 43  1  0
  9 44  1  0
 11 45  1  0
 11 46  1  0
 11 47  1  0
 12 48  1  0
 12 49  1  0
 12 50  1  0
 18 51  1  0
 19 52  1  0
 22 53  1  0
 27 54  1  0
 28 55  1  0
 31 56  1  0
 32 57  1  0
 33 58  1  0
 35 59  1  0
M  END
$$$$
