
     RDKit          3D

 66 69  0  0  0  0  0  0  0  0999 V2000
   -3.7677    5.1365    2.2592 C   0  0  0  0  0  0  0  0  0  0  0  0
   -3.7075    3.8906    1.4500 C   0  0  0  0  0  0  0  0  0  0  0  0
   -2.6542    3.6536    0.5943 C   0  0  0  0  0  0  0  0  0  0  0  0
   -2.5713    2.5342   -0.1530 N   0  0  0  0  0  0  0  0  0  0  0  0
   -3.5529    1.6300   -0.0497 C   0  0  0  0  0  0  0  0  0  0  0  0
   -3.4996    0.4242   -0.8343 C   0  0  0  0  0  0  0  0  0  0  0  0
   -4.4825    0.0887   -1.5247 O   0  0  0  0  0  0  0  0  0  0  0  0
   -2.3387   -0.3800   -0.8233 N   0  0  0  0  0  0  0  0  0  0  0  0
   -2.1981   -1.5876   -1.5552 C   0  0  0  0  0  0  0  0  0  0  0  0
   -1.1019   -2.3518   -0.8845 C   0  0  2  0  0  0  0  0  0  0  0  0
   -1.7101   -3.5059   -0.2282 C   0  0  0  0  0  0  0  0  0  0  0  0
   -2.2732   -3.4031    1.0094 C   0  0  0  0  0  0  0  0  0  0  0  0
   -2.8718   -4.4612    1.6594 C   0  0  0  0  0  0  0  0  0  0  0  0
   -2.9160   -5.6861    1.0542 C   0  0  0  0  0  0  0  0  0  0  0  0
   -3.5021   -6.7666    1.6702 F   0  0  0  0  0  0  0  0  0  0  0  0
   -2.3556   -5.8263   -0.1978 C   0  0  0  0  0  0  0  0  0  0  0  0
   -1.7508   -4.7303   -0.8391 C   0  0  0  0  0  0  0  0  0  0  0  0
   -1.1772   -4.9957   -2.1863 C   0  0  0  0  0  0  0  0  0  0  0  0
   -0.3855   -1.4167   -0.0083 C   0  0  1  0  0  0  0  0  0  0  0  0
    1.0408   -1.1800   -0.2751 C   0  0  0  0  0  0  0  0  0  0  0  0
    1.8954   -1.6787    0.5723 O   0  0  0  0  0  0  0  0  0  0  0  0
    1.6443   -0.4779   -1.3301 N   0  0  0  0  0  0  0  0  0  0  0  0
    0.9397    0.1989   -2.3947 C   0  0  0  0  0  0  0  0  0  0  0  0
    3.1008   -0.4095   -1.3849 C   0  0  0  0  0  0  0  0  0  0  0  0
    3.6904    0.7510   -0.7305 C   0  0  0  0  0  0  0  0  0  0  0  0
    3.8126    1.9804   -1.3748 C   0  0  0  0  0  0  0  0  0  0  0  0
    4.3991    3.0205   -0.7306 C   0  0  0  0  0  0  0  0  0  0  0  0
    4.5385    4.3339   -1.3994 C   0  0  0  0  0  0  0  0  0  0  0  0
    5.8437    4.5202   -1.8468 F   0  0  0  0  0  0  0  0  0  0  0  0
    4.2780    5.3920   -0.5502 F   0  0  0  0  0  0  0  0  0  0  0  0
    3.7238    4.4360   -2.5162 F   0  0  0  0  0  0  0  0  0  0  0  0
    4.8864    2.8936    0.5674 C   0  0  0  0  0  0  0  0  0  0  0  0
    4.7809    1.7068    1.2217 C   0  0  0  0  0  0  0  0  0  0  0  0
    5.3200    1.5791    2.6038 C   0  0  0  0  0  0  0  0  0  0  0  0
    6.4797    2.3541    2.6623 F   0  0  0  0  0  0  0  0  0  0  0  0
    5.7621    0.2537    2.7129 F   0  0  0  0  0  0  0  0  0  0  0  0
    4.4161    1.8975    3.5722 F   0  0  0  0  0  0  0  0  0  0  0  0
    4.1765    0.6357    0.5578 C   0  0  0  0  0  0  0  0  0  0  0  0
   -1.1251   -0.1090   -0.0898 C   0  0  0  0  0  0  0  0  0  0  0  0
   -4.6042    1.8577    0.7987 C   0  0  0  0  0  0  0  0  0  0  0  0
   -4.6901    2.9589    1.5359 N   0  0  0  0  0  0  0  0  0  0  0  0
   -4.6862    5.0928    2.8874 H   0  0  0  0  0  0  0  0  0  0  0  0
   -2.8718    5.1739    2.9139 H   0  0  0  0  0  0  0  0  0  0  0  0
   -3.8155    6.0291    1.6098 H   0  0  0  0  0  0  0  0  0  0  0  0
   -1.8799    4.3851    0.5256 H   0  0  0  0  0  0  0  0  0  0  0  0
   -2.0177   -1.4386   -2.6501 H   0  0  0  0  0  0  0  0  0  0  0  0
   -3.1652   -2.1795   -1.5120 H   0  0  0  0  0  0  0  0  0  0  0  0
   -0.4024   -2.7340   -1.6759 H   0  0  0  0  0  0  0  0  0  0  0  0
   -2.2585   -2.4577    1.5152 H   0  0  0  0  0  0  0  0  0  0  0  0
   -3.3120   -4.3440    2.6401 H   0  0  0  0  0  0  0  0  0  0  0  0
   -2.4065   -6.8053   -0.6508 H   0  0  0  0  0  0  0  0  0  0  0  0
   -0.1117   -5.3049   -2.0306 H   0  0  0  0  0  0  0  0  0  0  0  0
   -1.2772   -4.1542   -2.8900 H   0  0  0  0  0  0  0  0  0  0  0  0
   -1.6794   -5.8523   -2.6646 H   0  0  0  0  0  0  0  0  0  0  0  0
   -0.4365   -1.7033    1.0810 H   0  0  0  0  0  0  0  0  0  0  0  0
   -0.0517   -0.1705   -2.6308 H   0  0  0  0  0  0  0  0  0  0  0  0
    1.5522    0.0685   -3.3225 H   0  0  0  0  0  0  0  0  0  0  0  0
    0.8827    1.3026   -2.2637 H   0  0  0  0  0  0  0  0  0  0  0  0
    3.3922   -0.3745   -2.4547 H   0  0  0  0  0  0  0  0  0  0  0  0
    3.5577   -1.3201   -0.9673 H   0  0  0  0  0  0  0  0  0  0  0  0
    3.4369    2.0831   -2.3780 H   0  0  0  0  0  0  0  0  0  0  0  0
    5.3558    3.7285    1.0750 H   0  0  0  0  0  0  0  0  0  0  0  0
    4.1330   -0.2733    1.1385 H   0  0  0  0  0  0  0  0  0  0  0  0
   -1.4847    0.2433    0.9260 H   0  0  0  0  0  0  0  0  0  0  0  0
   -0.5457    0.7327   -0.4751 H   0  0  0  0  0  0  0  0  0  0  0  0
   -5.4005    1.1110    0.8695 H   0  0  0  0  0  0  0  0  0  0  0  0
  1  2  1  0
  2  3  2  0
  3  4  1  0
  4  5  2  0
  5  6  1  0
  6  7  2  0
  6  8  1  0
  8  9  1  0
  9 10  1  0
 10 11  1  0
 11 12  2  0
 12 13  1  0
 13 14  2  0
 14 15  1  0
 14 16  1  0
 16 17  2  0
 17 18  1  0
 10 19  1  0
 19 20  1  0
 20 21  2  0
 20 22  1  0
 22 23  1  0
 22 24  1  0
 24 25  1  0
 25 26  2  0
 26 27  1  0
 27 28  1  0
 28 29  1  0
 28 30  1  0
 28 31  1  0
 27 32  2  0
 32 33  1  0
 33 34  1  0
 34 35  1  0
 34 36  1  0
 34 37  1  0
 33 38  2  0
 19 39  1  0
  5 40  1  0
 40 41  2  0
 41  2  1  0
 39  8  1  0
 17 11  1  0
 38 25  1  0
  1 42  1  0
  1 43  1  0
  1 44  1  0
  3 45  1  0
  9 46  1  0
  9 47  1  0
 10 48  1  6
 12 49  1  0
 13 50  1  0
 16 51  1  0
 18 52  1  0
 18 53  1  0
 18 54  1  0
 19 55  1  1
 23 56  1  0
 23 57  1  0
 23 58  1  0
 24 59  1  0
 24 60  1  0
 26 61  1  0
 32 62  1  0
 38 63  1  0
 39 64  1  0
 39 65  1  0
 40 66  1  0
M  END
$$$$
