
     RDKit          3D

 61 63  0  0  0  0  0  0  0  0999 V2000
    8.8253    1.5053   -1.4867 C   0  0  0  0  0  0  0  0  0  0  0  0
    7.5033    2.0478   -1.2304 N   0  0  0  0  0  0  0  0  0  0  0  0
    7.5930    3.0216   -0.1866 C   0  0  0  0  0  0  0  0  0  0  0  0
    6.5538    0.9919   -0.9313 C   0  0  0  0  0  0  0  0  0  0  0  0
    5.2163    1.6345   -0.6854 C   0  0  0  0  0  0  0  0  0  0  0  0
    4.1901    0.6354   -0.3755 N   0  0  0  0  0  0  0  0  0  0  0  0
    4.3990   -0.0005    0.8804 C   0  0  0  0  0  0  0  0  0  0  0  0
    2.9291    1.2617   -0.5805 C   0  0  0  0  0  0  0  0  0  0  0  0
    1.7427    0.4438   -0.3340 C   0  0  0  0  0  0  0  0  0  0  0  0
    1.0748    0.3532    0.8672 C   0  0  0  0  0  0  0  0  0  0  0  0
   -0.0517   -0.4561    1.0195 C   0  0  0  0  0  0  0  0  0  0  0  0
   -0.5396   -1.1966   -0.0279 C   0  0  0  0  0  0  0  0  0  0  0  0
   -1.7044   -2.0541    0.0738 C   0  0  0  0  0  0  0  0  0  0  0  0
   -2.0836   -2.6986   -0.9371 O   0  0  0  0  0  0  0  0  0  0  0  0
   -2.4668   -2.2282    1.2478 N   0  0  0  0  0  0  0  0  0  0  0  0
   -3.6088   -3.0654    1.3629 C   0  0  0  0  0  0  0  0  0  0  0  0
   -3.4403   -4.3830    1.7392 C   0  0  0  0  0  0  0  0  0  0  0  0
   -4.5571   -5.2115    1.8561 C   0  0  0  0  0  0  0  0  0  0  0  0
   -5.8278   -4.7473    1.6049 C   0  0  0  0  0  0  0  0  0  0  0  0
   -7.2505   -5.7828    1.7490 Cl  0  0  0  0  0  0  0  0  0  0  0  0
   -5.9740   -3.4247    1.2295 C   0  0  0  0  0  0  0  0  0  0  0  0
   -4.8629   -2.5801    1.1076 C   0  0  0  0  0  0  0  0  0  0  0  0
   -5.0024   -1.1942    0.7145 C   0  0  0  0  0  0  0  0  0  0  0  0
   -3.9794   -0.4725    0.6134 O   0  0  0  0  0  0  0  0  0  0  0  0
   -6.2375   -0.5489    0.4213 N   0  0  0  0  0  0  0  0  0  0  0  0
   -6.3040    0.8196    0.0401 C   0  0  0  0  0  0  0  0  0  0  0  0
   -7.5211    1.3995   -0.2305 C   0  0  0  0  0  0  0  0  0  0  0  0
   -7.6344    2.7292   -0.6065 C   0  0  0  0  0  0  0  0  0  0  0  0
   -6.4798    3.4614   -0.7025 C   0  0  0  0  0  0  0  0  0  0  0  0
   -6.5745    5.1296   -1.1695 Cl  0  0  0  0  0  0  0  0  0  0  0  0
   -5.2593    2.8820   -0.4318 C   0  0  0  0  0  0  0  0  0  0  0  0
   -5.2097    1.5876   -0.0712 N   0  0  0  0  0  0  0  0  0  0  0  0
    0.1293   -1.1055   -1.2296 C   0  0  0  0  0  0  0  0  0  0  0  0
    1.2392   -0.3070   -1.3765 C   0  0  0  0  0  0  0  0  0  0  0  0
    9.2769    2.0916   -2.2970 H   0  0  0  0  0  0  0  0  0  0  0  0
    8.6893    0.4678   -1.8446 H   0  0  0  0  0  0  0  0  0  0  0  0
    9.4384    1.4681   -0.5678 H   0  0  0  0  0  0  0  0  0  0  0  0
    7.1605    2.7014    0.7799 H   0  0  0  0  0  0  0  0  0  0  0  0
    7.0834    3.9842   -0.4511 H   0  0  0  0  0  0  0  0  0  0  0  0
    8.6725    3.3206   -0.0448 H   0  0  0  0  0  0  0  0  0  0  0  0
    6.5460    0.2887   -1.7680 H   0  0  0  0  0  0  0  0  0  0  0  0
    6.8536    0.4851    0.0287 H   0  0  0  0  0  0  0  0  0  0  0  0
    5.2525    2.3112    0.1808 H   0  0  0  0  0  0  0  0  0  0  0  0
    4.8697    2.1303   -1.6154 H   0  0  0  0  0  0  0  0  0  0  0  0
    3.5113   -0.2281    1.4685 H   0  0  0  0  0  0  0  0  0  0  0  0
    4.9137   -0.9855    0.6739 H   0  0  0  0  0  0  0  0  0  0  0  0
    5.1668    0.5641    1.4885 H   0  0  0  0  0  0  0  0  0  0  0  0
    2.9469    1.6879   -1.6227 H   0  0  0  0  0  0  0  0  0  0  0  0
    2.8917    2.1782    0.0751 H   0  0  0  0  0  0  0  0  0  0  0  0
    1.4356    0.9249    1.7010 H   0  0  0  0  0  0  0  0  0  0  0  0
   -0.5448   -0.4944    1.9895 H   0  0  0  0  0  0  0  0  0  0  0  0
   -2.1750   -1.7044    2.1007 H   0  0  0  0  0  0  0  0  0  0  0  0
   -2.4429   -4.7559    1.9386 H   0  0  0  0  0  0  0  0  0  0  0  0
   -4.4178   -6.2427    2.1512 H   0  0  0  0  0  0  0  0  0  0  0  0
   -6.9596   -3.0420    1.0291 H   0  0  0  0  0  0  0  0  0  0  0  0
   -7.1047   -1.0978    0.4896 H   0  0  0  0  0  0  0  0  0  0  0  0
   -8.4252    0.7899   -0.1453 H   0  0  0  0  0  0  0  0  0  0  0  0
   -8.5974    3.1888   -0.8209 H   0  0  0  0  0  0  0  0  0  0  0  0
   -4.3507    3.4882   -0.5160 H   0  0  0  0  0  0  0  0  0  0  0  0
   -0.2433   -1.6908   -2.0861 H   0  0  0  0  0  0  0  0  0  0  0  0
    1.7265   -0.2768   -2.3526 H   0  0  0  0  0  0  0  0  0  0  0  0
  1  2  1  0
  2  3  1  0
  2  4  1  0
  4  5  1  0
  5  6  1  0
  6  7  1  0
  6  8  1  0
  8  9  1  0
  9 10  2  0
 10 11  1  0
 11 12  2  0
 12 13  1  0
 13 14  2  0
 13 15  1  0
 15 16  1  0
 16 17  2  0
 17 18  1  0
 18 19  2  0
 19 20  1  0
 19 21  1  0
 21 22  2  0
 22 23  1  0
 23 24  2  0
 23 25  1  0
 25 26  1  0
 26 27  2  0
 27 28  1  0
 28 29  2  0
 29 30  1  0
 29 31  1  0
 31 32  2  0
 12 33  1  0
 33 34  2  0
 34  9  1  0
 22 16  1  0
 32 26  1  0
  1 35  1  0
  1 36  1  0
  1 37  1  0
  3 38  1  0
  3 39  1  0
  3 40  1  0
  4 41  1  0
  4 42  1  0
  5 43  1  0
  5 44  1  0
  7 45  1  0
  7 46  1  0
  7 47  1  0
  8 48  1  0
  8 49  1  0
 10 50  1  0
 11 51  1  0
 15 52  1  0
 17 53  1  0
 18 54  1  0
 21 55  1  0
 25 56  1  0
 27 57  1  0
 28 58  1  0
 31 59  1  0
 33 60  1  0
 34 61  1  0
M  END
$$$$
