
     RDKit          3D

 68 72  0  0  0  0  0  0  0  0999 V2000
    0.5868   -3.5475    2.2789 C   0  0  0  0  0  0  0  0  0  0  0  0
    1.9425   -3.4224    1.7201 C   0  0  0  0  0  0  0  0  0  0  0  0
    2.8895   -4.3882    1.9364 N   0  0  0  0  0  0  0  0  0  0  0  0
    4.1333   -4.3103    1.5320 C   0  0  0  0  0  0  0  0  0  0  0  0
    4.5674   -3.1651    0.8110 C   0  0  0  0  0  0  0  0  0  0  0  0
    5.9507   -3.0466    0.4671 C   0  0  0  0  0  0  0  0  0  0  0  0
    7.0788   -2.9498    0.1684 N   0  0  0  0  0  0  0  0  0  0  0  0
    3.6251   -2.2112    0.5983 C   0  0  0  0  0  0  0  0  0  0  0  0
    3.9565   -1.1133   -0.2438 N   0  0  0  0  0  0  0  0  0  0  0  0
    5.0057   -0.2035   -0.1472 C   0  0  0  0  0  0  0  0  0  0  0  0
    5.9421   -0.0271   -1.1270 C   0  0  0  0  0  0  0  0  0  0  0  0
    7.0051    0.8362   -1.1414 C   0  0  0  0  0  0  0  0  0  0  0  0
    7.0934    1.6223    0.0414 C   0  0  0  0  0  0  0  0  0  0  0  0
    8.0288    2.5626    0.3198 N   0  0  0  0  0  0  0  0  0  0  0  0
    7.7286    3.0599    1.5376 C   0  0  0  0  0  0  0  0  0  0  0  0
    6.5881    2.4142    2.0202 C   0  0  0  0  0  0  0  0  0  0  0  0
    6.2228    1.4975    1.0126 C   0  0  0  0  0  0  0  0  0  0  0  0
    5.1313    0.5967    1.0024 C   0  0  0  0  0  0  0  0  0  0  0  0
    4.2154    0.5751    2.1286 C   0  0  0  0  0  0  0  0  0  0  0  0
    2.3220   -2.2828    1.0218 C   0  0  0  0  0  0  0  0  0  0  0  0
    1.4161   -1.2219    0.6713 C   0  0  0  0  0  0  0  0  0  0  0  0
    0.1419   -1.3725    0.2635 C   0  0  0  0  0  0  0  0  0  0  0  0
   -0.7451   -0.3153   -0.0540 C   0  0  0  0  0  0  0  0  0  0  0  0
   -0.4993    1.0664    0.1780 C   0  0  0  0  0  0  0  0  0  0  0  0
   -1.3490    2.0416   -0.2460 C   0  0  0  0  0  0  0  0  0  0  0  0
   -2.5060    1.7588   -0.9314 C   0  0  0  0  0  0  0  0  0  0  0  0
   -2.7802    0.4286   -1.1760 C   0  0  0  0  0  0  0  0  0  0  0  0
   -4.1939    0.1172   -2.1448 S   0  0  0  0  0  6  0  0  0  0  0  0
   -4.4164    1.2451   -3.0854 O   0  0  0  0  0  0  0  0  0  0  0  0
   -3.9232   -1.1505   -2.9646 O   0  0  0  0  0  0  0  0  0  0  0  0
   -5.6161   -0.1413   -1.1850 N   0  0  0  0  0  0  0  0  0  0  0  0
   -5.8969    1.0427   -0.3723 C   0  0  0  0  0  0  0  0  0  0  0  0
   -6.6664    2.0733   -1.1183 C   0  0  0  0  0  0  0  0  0  0  0  0
   -8.0369    1.6249   -1.3670 N   0  0  0  0  0  0  0  0  0  0  0  0
   -8.9182    1.8544   -0.2353 C   0  0  0  0  0  0  0  0  0  0  0  0
   -8.0434    0.1641   -1.5619 C   0  0  0  0  0  0  0  0  0  0  0  0
   -6.7420   -0.2655   -2.1571 C   0  0  0  0  0  0  0  0  0  0  0  0
   -1.9326   -0.5567   -0.7511 C   0  0  0  0  0  0  0  0  0  0  0  0
    0.6789   -4.0418    3.3033 H   0  0  0  0  0  0  0  0  0  0  0  0
    0.1605   -2.5493    2.4720 H   0  0  0  0  0  0  0  0  0  0  0  0
   -0.0445   -4.1549    1.6349 H   0  0  0  0  0  0  0  0  0  0  0  0
    4.8976   -5.0721    1.7106 H   0  0  0  0  0  0  0  0  0  0  0  0
    3.2815   -1.0095   -1.0731 H   0  0  0  0  0  0  0  0  0  0  0  0
    5.8110   -0.6726   -2.0060 H   0  0  0  0  0  0  0  0  0  0  0  0
    7.7173    0.9555   -1.9158 H   0  0  0  0  0  0  0  0  0  0  0  0
    8.8405    2.8908   -0.2350 H   0  0  0  0  0  0  0  0  0  0  0  0
    8.2256    3.8348    2.1349 H   0  0  0  0  0  0  0  0  0  0  0  0
    6.1102    2.5785    2.9298 H   0  0  0  0  0  0  0  0  0  0  0  0
    4.6572    1.1681    2.9844 H   0  0  0  0  0  0  0  0  0  0  0  0
    3.9940   -0.4351    2.4713 H   0  0  0  0  0  0  0  0  0  0  0  0
    3.2948    1.1552    1.8704 H   0  0  0  0  0  0  0  0  0  0  0  0
    1.7180   -0.1733    0.7162 H   0  0  0  0  0  0  0  0  0  0  0  0
   -0.1719   -2.4021    0.1555 H   0  0  0  0  0  0  0  0  0  0  0  0
    0.3895    1.2794    0.7126 H   0  0  0  0  0  0  0  0  0  0  0  0
   -1.1649    3.1033   -0.0676 H   0  0  0  0  0  0  0  0  0  0  0  0
   -3.1473    2.5580   -1.2604 H   0  0  0  0  0  0  0  0  0  0  0  0
   -4.9837    1.4556    0.0464 H   0  0  0  0  0  0  0  0  0  0  0  0
   -6.5481    0.6613    0.4554 H   0  0  0  0  0  0  0  0  0  0  0  0
   -6.2359    2.3505   -2.1092 H   0  0  0  0  0  0  0  0  0  0  0  0
   -6.7360    2.9988   -0.5205 H   0  0  0  0  0  0  0  0  0  0  0  0
   -8.7708    1.0358    0.5374 H   0  0  0  0  0  0  0  0  0  0  0  0
   -9.9502    1.6537   -0.6217 H   0  0  0  0  0  0  0  0  0  0  0  0
   -8.8096    2.8539    0.1911 H   0  0  0  0  0  0  0  0  0  0  0  0
   -8.2756   -0.3835   -0.6556 H   0  0  0  0  0  0  0  0  0  0  0  0
   -8.8174    0.0054   -2.3437 H   0  0  0  0  0  0  0  0  0  0  0  0
   -6.4780    0.3640   -3.0596 H   0  0  0  0  0  0  0  0  0  0  0  0
   -6.7864   -1.3001   -2.4633 H   0  0  0  0  0  0  0  0  0  0  0  0
   -2.1630   -1.5983   -0.9469 H   0  0  0  0  0  0  0  0  0  0  0  0
  1  2  1  0
  2  3  2  0
  3  4  1  0
  4  5  2  0
  5  6  1  0
  6  7  3  0
  5  8  1  0
  8  9  1  0
  9 10  1  0
 10 11  2  0
 11 12  1  0
 12 13  2  0
 13 14  1  0
 14 15  1  0
 15 16  2  0
 16 17  1  0
 17 18  2  0
 18 19  1  0
  8 20  2  0
 20 21  1  0
 21 22  2  0
 22 23  1  0
 23 24  2  0
 24 25  1  0
 25 26  2  0
 26 27  1  0
 27 28  1  0
 28 29  2  0
 28 30  2  0
 28 31  1  0
 31 32  1  0
 32 33  1  0
 33 34  1  0
 34 35  1  0
 34 36  1  0
 36 37  1  0
 27 38  2  0
 20  2  1  0
 38 23  1  0
 18 10  1  0
 37 31  1  0
 17 13  1  0
  1 39  1  0
  1 40  1  0
  1 41  1  0
  4 42  1  0
  9 43  1  0
 11 44  1  0
 12 45  1  0
 14 46  1  0
 15 47  1  0
 16 48  1  0
 19 49  1  0
 19 50  1  0
 19 51  1  0
 21 52  1  0
 22 53  1  0
 24 54  1  0
 25 55  1  0
 26 56  1  0
 32 57  1  0
 32 58  1  0
 33 59  1  0
 33 60  1  0
 35 61  1  0
 35 62  1  0
 35 63  1  0
 36 64  1  0
 36 65  1  0
 37 66  1  0
 37 67  1  0
 38 68  1  0
M  END
$$$$
