
     RDKit          3D

 55 58  0  0  0  0  0  0  0  0999 V2000
   -0.6761   -3.5850    2.4918 C   0  0  0  0  0  0  0  0  0  0  0  0
   -1.5682   -2.3907    2.7201 C   0  0  0  0  0  0  0  0  0  0  0  0
   -1.2846   -1.4083    1.7866 O   0  0  0  0  0  0  0  0  0  0  0  0
   -0.0860   -0.7433    1.5959 C   0  0  0  0  0  0  0  0  0  0  0  0
    1.0313   -0.9871    2.3614 C   0  0  0  0  0  0  0  0  0  0  0  0
    2.2379   -0.3223    2.1758 C   0  0  0  0  0  0  0  0  0  0  0  0
    2.3496    0.6168    1.2019 C   0  0  0  0  0  0  0  0  0  0  0  0
    3.5690    1.3966    0.8991 C   0  0  0  0  0  0  0  0  0  0  0  0
    4.4720    0.7719   -0.0923 C   0  0  0  0  0  0  0  0  0  0  0  0
    4.0791    0.4456   -1.4811 C   0  0  0  0  0  0  0  0  0  0  0  0
    4.8518    1.6699   -1.2659 C   0  0  0  0  0  0  0  0  0  0  0  0
    6.3031    1.7742   -1.4832 C   0  0  0  0  0  0  0  0  0  0  0  0
    6.8620    2.8741   -1.7838 O   0  0  0  0  0  0  0  0  0  0  0  0
    7.1084    0.6232   -1.3561 N   0  0  0  0  0  0  0  0  0  0  0  0
    8.4635    0.6441   -1.5433 O   0  0  0  0  0  0  0  0  0  0  0  0
    1.2223    0.8770    0.4145 C   0  0  0  0  0  0  0  0  0  0  0  0
    0.0310    0.2292    0.5882 C   0  0  0  0  0  0  0  0  0  0  0  0
   -1.1587    0.4599   -0.1994 C   0  0  0  0  0  0  0  0  0  0  0  0
   -2.3133   -0.2218    0.0033 N   0  0  0  0  0  0  0  0  0  0  0  0
   -3.4162   -0.0079   -0.7303 C   0  0  0  0  0  0  0  0  0  0  0  0
   -4.6975   -0.5295   -0.7584 C   0  0  0  0  0  0  0  0  0  0  0  0
   -5.2171   -1.5796    0.1268 C   0  0  0  0  0  0  0  0  0  0  0  0
   -5.5146   -1.0217    1.5014 C   0  0  0  0  0  0  0  0  0  0  0  0
   -5.3715    0.0977   -1.7389 N   0  0  0  0  0  0  0  0  0  0  0  0
   -4.6114    0.9911   -2.3480 N   0  0  0  0  0  0  0  0  0  0  0  0
   -4.9335    1.8754   -3.4426 C   0  0  0  0  0  0  0  0  0  0  0  0
   -3.3939    0.9379   -1.7335 C   0  0  0  0  0  0  0  0  0  0  0  0
   -2.2434    1.6243   -1.9432 C   0  0  0  0  0  0  0  0  0  0  0  0
   -2.2042    2.4978   -2.8613 O   0  0  0  0  0  0  0  0  0  0  0  0
   -1.1610    1.3690   -1.1747 N   0  0  0  0  0  0  0  0  0  0  0  0
    0.0325   -3.3635    1.6806 H   0  0  0  0  0  0  0  0  0  0  0  0
   -0.1400   -3.8351    3.4506 H   0  0  0  0  0  0  0  0  0  0  0  0
   -1.2729   -4.4826    2.1667 H   0  0  0  0  0  0  0  0  0  0  0  0
   -2.6223   -2.7464    2.6372 H   0  0  0  0  0  0  0  0  0  0  0  0
   -1.4506   -1.9661    3.7408 H   0  0  0  0  0  0  0  0  0  0  0  0
    0.9475   -1.7410    3.1555 H   0  0  0  0  0  0  0  0  0  0  0  0
    3.1000   -0.5344    2.7920 H   0  0  0  0  0  0  0  0  0  0  0  0
    3.3088    2.4197    0.5837 H   0  0  0  0  0  0  0  0  0  0  0  0
    4.1318    1.4996    1.8732 H   0  0  0  0  0  0  0  0  0  0  0  0
    5.2589    0.1151    0.3327 H   0  0  0  0  0  0  0  0  0  0  0  0
    4.5756   -0.3997   -2.0006 H   0  0  0  0  0  0  0  0  0  0  0  0
    3.0015    0.5357   -1.7142 H   0  0  0  0  0  0  0  0  0  0  0  0
    4.3047    2.6272   -1.3868 H   0  0  0  0  0  0  0  0  0  0  0  0
    6.6496   -0.2797   -1.1089 H   0  0  0  0  0  0  0  0  0  0  0  0
    8.8574    0.3073   -0.6756 H   0  0  0  0  0  0  0  0  0  0  0  0
    1.3072    1.6313   -0.3699 H   0  0  0  0  0  0  0  0  0  0  0  0
   -4.4271   -2.3627    0.2473 H   0  0  0  0  0  0  0  0  0  0  0  0
   -6.1233   -2.0735   -0.2901 H   0  0  0  0  0  0  0  0  0  0  0  0
   -6.1561   -1.7506    2.0495 H   0  0  0  0  0  0  0  0  0  0  0  0
   -6.0782   -0.0724    1.4043 H   0  0  0  0  0  0  0  0  0  0  0  0
   -4.5908   -0.8501    2.0697 H   0  0  0  0  0  0  0  0  0  0  0  0
   -6.0335    2.0212   -3.4764 H   0  0  0  0  0  0  0  0  0  0  0  0
   -4.5239    1.5078   -4.4166 H   0  0  0  0  0  0  0  0  0  0  0  0
   -4.4682    2.8660   -3.2664 H   0  0  0  0  0  0  0  0  0  0  0  0
   -0.3183    1.9481   -1.4092 H   0  0  0  0  0  0  0  0  0  0  0  0
  1  2  1  0
  2  3  1  0
  3  4  1  0
  4  5  2  0
  5  6  1  0
  6  7  2  0
  7  8  1  0
  8  9  1  0
  9 10  1  0
 10 11  1  0
 11 12  1  0
 12 13  2  0
 12 14  1  0
 14 15  1  0
  7 16  1  0
 16 17  2  0
 17 18  1  0
 18 19  2  0
 19 20  1  0
 20 21  1  0
 21 22  1  0
 22 23  1  0
 21 24  2  0
 24 25  1  0
 25 26  1  0
 25 27  1  0
 27 28  1  0
 28 29  2  0
 28 30  1  0
 17  4  1  0
 30 18  1  0
 11  9  1  0
 27 20  2  0
  1 31  1  0
  1 32  1  0
  1 33  1  0
  2 34  1  0
  2 35  1  0
  5 36  1  0
  6 37  1  0
  8 38  1  0
  8 39  1  0
  9 40  1  0
 10 41  1  0
 10 42  1  0
 11 43  1  0
 14 44  1  0
 15 45  1  0
 16 46  1  0
 22 47  1  0
 22 48  1  0
 23 49  1  0
 23 50  1  0
 23 51  1  0
 26 52  1  0
 26 53  1  0
 26 54  1  0
 30 55  1  0
M  END
$$$$
