
     RDKit          3D

 84 90  0  0  0  0  0  0  0  0999 V2000
   10.4601    1.0735   -1.3926 C   0  0  0  0  0  0  0  0  0  0  0  0
    9.0446    0.7270   -1.0253 C   0  0  0  0  0  0  0  0  0  0  0  0
    8.7534    0.4519    0.2963 C   0  0  0  0  0  0  0  0  0  0  0  0
    7.4787    0.1356    0.6527 C   0  0  0  0  0  0  0  0  0  0  0  0
    6.5093    0.1014   -0.3371 C   0  0  0  0  0  0  0  0  0  0  0  0
    5.2202   -0.2141   -0.0015 C   0  0  0  0  0  0  0  0  0  0  0  0
    4.2289   -0.2576   -0.9605 C   0  0  0  0  0  0  0  0  0  0  0  0
    2.8653   -0.6007   -0.5478 C   0  0  0  0  0  0  0  0  0  0  0  0
    1.7888   -0.0866   -1.2031 C   0  0  0  0  0  0  0  0  0  0  0  0
    0.5021   -0.4147   -0.8070 C   0  0  0  0  0  0  0  0  0  0  0  0
    0.1969   -1.2505    0.2352 C   0  0  0  0  0  0  0  0  0  0  0  0
   -1.1097   -1.7140    0.6915 C   0  0  0  0  0  0  0  0  0  0  0  0
   -2.0161   -0.8213    1.4826 C   0  0  0  0  0  0  0  0  0  0  0  0
   -2.4988    0.3141    0.6915 C   0  0  0  0  0  0  0  0  0  0  0  0
   -3.3772    0.2141   -0.4404 C   0  0  0  0  0  0  0  0  0  0  0  0
   -4.7144    0.6208   -0.1751 C   0  0  0  0  0  0  0  0  0  0  0  0
   -5.7157    0.5888   -1.0999 C   0  0  0  0  0  0  0  0  0  0  0  0
   -5.4713    0.1455   -2.3798 C   0  0  0  0  0  0  0  0  0  0  0  0
   -6.5494    0.1062   -3.3921 C   0  0  0  0  0  0  0  0  0  0  0  0
   -6.2698   -0.8906   -4.3092 F   0  0  0  0  0  0  0  0  0  0  0  0
   -7.7549   -0.2052   -2.7939 F   0  0  0  0  0  0  0  0  0  0  0  0
   -6.7562    1.7135   -4.2101 P   0  0  0  0  0  5  0  0  0  0  0  0
   -5.4516    2.0905   -4.8685 O   0  0  0  0  0  0  0  0  0  0  0  0
   -8.0095    1.5644   -5.3332 O   0  0  0  0  0  0  0  0  0  0  0  0
   -7.1537    2.8568   -3.0431 O   0  0  0  0  0  0  0  0  0  0  0  0
   -4.1820   -0.2536   -2.6574 C   0  0  0  0  0  0  0  0  0  0  0  0
   -3.1800   -0.2128   -1.7014 C   0  0  0  0  0  0  0  0  0  0  0  0
   -3.0548   -1.6780    2.1428 C   0  0  0  0  0  0  0  0  0  0  0  0
   -4.1738   -2.1750    1.5487 C   0  0  0  0  0  0  0  0  0  0  0  0
   -5.1083   -2.9692    2.1744 C   0  0  0  0  0  0  0  0  0  0  0  0
   -4.9184   -3.3032    3.5083 C   0  0  0  0  0  0  0  0  0  0  0  0
   -3.7998   -2.8266    4.1557 C   0  0  0  0  0  0  0  0  0  0  0  0
   -2.8790   -2.0250    3.4838 C   0  0  0  0  0  0  0  0  0  0  0  0
   -1.2237   -0.1600    2.5401 N   0  0  0  0  0  0  0  0  0  0  0  0
    0.0650   -0.1794    2.6355 N   0  0  0  0  0  0  0  0  0  0  0  0
    0.5224    0.5025    3.6449 N   0  0  0  0  0  0  0  0  0  0  0  0
   -0.5547    1.0128    4.2654 C   0  0  0  0  0  0  0  0  0  0  0  0
   -0.7466    1.8115    5.3769 C   0  0  0  0  0  0  0  0  0  0  0  0
   -1.9993    2.2005    5.8075 C   0  0  0  0  0  0  0  0  0  0  0  0
   -3.1179    1.7678    5.0885 C   0  0  0  0  0  0  0  0  0  0  0  0
   -2.9458    0.9698    3.9764 C   0  0  0  0  0  0  0  0  0  0  0  0
   -1.6927    0.5928    3.5624 C   0  0  0  0  0  0  0  0  0  0  0  0
    1.3550   -1.7596    0.8835 C   0  0  0  0  0  0  0  0  0  0  0  0
    2.6259   -1.4483    0.5092 C   0  0  0  0  0  0  0  0  0  0  0  0
    4.5791    0.0252   -2.2559 C   0  0  0  0  0  0  0  0  0  0  0  0
    5.8648    0.3485   -2.6431 C   0  0  0  0  0  0  0  0  0  0  0  0
    6.2368    0.7007   -4.3363 P   0  0  0  0  0  5  0  0  0  0  0  0
    5.6728   -0.3634   -5.2397 O   0  0  0  0  0  0  0  0  0  0  0  0
    5.6103    2.2022   -4.7739 O   0  0  0  0  0  0  0  0  0  0  0  0
    7.9241    0.6971   -4.5101 O   0  0  0  0  0  0  0  0  0  0  0  0
    6.8293    0.3818   -1.6552 C   0  0  0  0  0  0  0  0  0  0  0  0
    8.1085    0.6961   -1.9938 N   0  0  0  0  0  0  0  0  0  0  0  0
   10.9221    0.2453   -1.9818 H   0  0  0  0  0  0  0  0  0  0  0  0
   11.0368    1.3061   -0.4899 H   0  0  0  0  0  0  0  0  0  0  0  0
   10.4562    1.9756   -2.0503 H   0  0  0  0  0  0  0  0  0  0  0  0
    9.5400    0.4862    1.0596 H   0  0  0  0  0  0  0  0  0  0  0  0
    7.1891   -0.0905    1.6767 H   0  0  0  0  0  0  0  0  0  0  0  0
    4.9802   -0.4311    1.0275 H   0  0  0  0  0  0  0  0  0  0  0  0
    1.9491    0.5877   -2.0452 H   0  0  0  0  0  0  0  0  0  0  0  0
   -0.2724    0.0394   -1.3824 H   0  0  0  0  0  0  0  0  0  0  0  0
   -1.6317   -2.0523   -0.2710 H   0  0  0  0  0  0  0  0  0  0  0  0
   -1.0053   -2.7301    1.2153 H   0  0  0  0  0  0  0  0  0  0  0  0
   -1.5578    0.8511    0.3170 H   0  0  0  0  0  0  0  0  0  0  0  0
   -2.8857    1.1035    1.4172 H   0  0  0  0  0  0  0  0  0  0  0  0
   -4.9877    0.9831    0.8114 H   0  0  0  0  0  0  0  0  0  0  0  0
   -6.7356    0.8998   -0.8957 H   0  0  0  0  0  0  0  0  0  0  0  0
   -8.6053    0.8356   -5.0489 H   0  0  0  0  0  0  0  0  0  0  0  0
   -8.0697    2.7042   -2.7016 H   0  0  0  0  0  0  0  0  0  0  0  0
   -3.9873   -0.6043   -3.6685 H   0  0  0  0  0  0  0  0  0  0  0  0
   -2.2362   -0.5524   -2.0072 H   0  0  0  0  0  0  0  0  0  0  0  0
   -4.3461   -1.9718    0.5113 H   0  0  0  0  0  0  0  0  0  0  0  0
   -5.9705   -3.3213    1.6300 H   0  0  0  0  0  0  0  0  0  0  0  0
   -5.6445   -3.9285    4.0197 H   0  0  0  0  0  0  0  0  0  0  0  0
   -3.6401   -3.0825    5.2019 H   0  0  0  0  0  0  0  0  0  0  0  0
   -2.0406   -1.7287    4.0830 H   0  0  0  0  0  0  0  0  0  0  0  0
    0.1138    2.1373    5.9200 H   0  0  0  0  0  0  0  0  0  0  0  0
   -2.1389    2.8290    6.6835 H   0  0  0  0  0  0  0  0  0  0  0  0
   -4.1012    2.0699    5.4218 H   0  0  0  0  0  0  0  0  0  0  0  0
   -3.8198    0.6547    3.4588 H   0  0  0  0  0  0  0  0  0  0  0  0
    1.1680   -2.4394    1.6962 H   0  0  0  0  0  0  0  0  0  0  0  0
    3.5113   -1.8480    1.0194 H   0  0  0  0  0  0  0  0  0  0  0  0
    3.8082   -0.0048   -3.0242 H   0  0  0  0  0  0  0  0  0  0  0  0
    4.8609    2.1194   -5.4302 H   0  0  0  0  0  0  0  0  0  0  0  0
    8.1233    0.4242   -5.4402 H   0  0  0  0  0  0  0  0  0  0  0  0
  1  2  1  0
  2  3  2  0
  3  4  1  0
  4  5  2  0
  5  6  1  0
  6  7  2  0
  7  8  1  0
  8  9  2  0
  9 10  1  0
 10 11  2  0
 11 12  1  0
 12 13  1  0
 13 14  1  0
 14 15  1  0
 15 16  2  0
 16 17  1  0
 17 18  2  0
 18 19  1  0
 19 20  1  0
 19 21  1  0
 19 22  1  0
 22 23  2  0
 22 24  1  0
 22 25  1  0
 18 26  1  0
 26 27  2  0
 13 28  1  0
 28 29  2  0
 29 30  1  0
 30 31  2  0
 31 32  1  0
 32 33  2  0
 13 34  1  0
 34 35  1  0
 35 36  2  0
 36 37  1  0
 37 38  2  0
 38 39  1  0
 39 40  2  0
 40 41  1  0
 41 42  2  0
 11 43  1  0
 43 44  2  0
  7 45  1  0
 45 46  2  0
 46 47  1  0
 47 48  2  0
 47 49  1  0
 47 50  1  0
 46 51  1  0
 51 52  2  0
 52  2  1  0
 51  5  1  0
 44  8  1  0
 27 15  1  0
 33 28  1  0
 42 34  1  0
 42 37  1  0
  1 53  1  0
  1 54  1  0
  1 55  1  0
  3 56  1  0
  4 57  1  0
  6 58  1  0
  9 59  1  0
 10 60  1  0
 12 61  1  0
 12 62  1  0
 14 63  1  0
 14 64  1  0
 16 65  1  0
 17 66  1  0
 24 67  1  0
 25 68  1  0
 26 69  1  0
 27 70  1  0
 29 71  1  0
 30 72  1  0
 31 73  1  0
 32 74  1  0
 33 75  1  0
 38 76  1  0
 39 77  1  0
 40 78  1  0
 41 79  1  0
 43 80  1  0
 44 81  1  0
 45 82  1  0
 49 83  1  0
 50 84  1  0
M  END
$$$$
