
     RDKit          3D

 47 50  0  0  0  0  0  0  0  0999 V2000
   -5.2668    3.1596   -0.6382 O   0  0  0  0  0  0  0  0  0  0  0  0
   -4.4315    2.2282   -0.6644 C   0  0  0  0  0  0  0  0  0  0  0  0
   -3.2467    2.4290   -1.2501 N   0  0  0  0  0  0  0  0  0  0  0  0
   -2.3282    1.4472   -1.2930 C   0  0  0  0  0  0  0  0  0  0  0  0
   -0.9955    1.7935   -2.1876 S   0  0  0  0  0  0  0  0  0  0  0  0
   -2.4627    0.2143   -0.7838 N   0  0  0  0  0  0  0  0  0  0  0  0
   -1.4241   -0.7683   -0.7521 C   0  0  0  0  0  0  0  0  0  0  0  0
   -0.7691   -1.1388    0.4994 C   0  0  0  0  0  0  0  0  0  0  0  0
   -1.0450   -2.4238    1.0121 C   0  0  0  0  0  0  0  0  0  0  0  0
   -0.4674   -2.8621    2.1481 C   0  0  0  0  0  0  0  0  0  0  0  0
    0.4269   -2.0990    2.8869 C   0  0  0  0  0  0  0  0  0  0  0  0
    0.6822   -0.8551    2.3712 C   0  0  0  0  0  0  0  0  0  0  0  0
    0.1006   -0.3624    1.1912 C   0  0  0  0  0  0  0  0  0  0  0  0
    0.5295    1.0062    0.7817 C   0  0  0  0  0  0  0  0  0  0  0  0
    1.5022    0.9502   -0.2879 N   0  0  0  0  0  0  0  0  0  0  0  0
    2.6560    0.2248    0.1490 C   0  0  0  0  0  0  0  0  0  0  0  0
    3.7218    0.1287   -0.9188 C   0  0  0  0  0  0  0  0  0  0  0  0
    4.9563   -0.6324   -0.4903 C   0  0  0  0  0  0  0  0  0  0  0  0
    5.7953    0.4617   -1.1056 C   0  0  0  0  0  0  0  0  0  0  0  0
    4.5662    1.3456   -1.0985 C   0  0  0  0  0  0  0  0  0  0  0  0
   -3.6767   -0.0099   -0.1814 C   0  0  0  0  0  0  0  0  0  0  0  0
   -4.1852   -1.1332    0.4250 C   0  0  0  0  0  0  0  0  0  0  0  0
   -5.4739   -0.8077    0.8533 C   0  0  0  0  0  0  0  0  0  0  0  0
   -5.7203    0.4689    0.5099 N   0  0  0  0  0  0  0  0  0  0  0  0
   -4.6445    0.9847   -0.1240 C   0  0  0  0  0  0  0  0  0  0  0  0
   -3.0554    3.3849   -1.6782 H   0  0  0  0  0  0  0  0  0  0  0  0
   -1.8841   -1.6980   -1.2045 H   0  0  0  0  0  0  0  0  0  0  0  0
   -0.6462   -0.4230   -1.5044 H   0  0  0  0  0  0  0  0  0  0  0  0
   -1.7156   -3.0670    0.4716 H   0  0  0  0  0  0  0  0  0  0  0  0
   -0.6693   -3.8555    2.5621 H   0  0  0  0  0  0  0  0  0  0  0  0
    0.8689   -2.4844    3.7922 H   0  0  0  0  0  0  0  0  0  0  0  0
    1.3878   -0.2248    2.9309 H   0  0  0  0  0  0  0  0  0  0  0  0
    1.0817    1.4715    1.6606 H   0  0  0  0  0  0  0  0  0  0  0  0
   -0.2544    1.6975    0.5508 H   0  0  0  0  0  0  0  0  0  0  0  0
    1.7815    1.8696   -0.6366 H   0  0  0  0  0  0  0  0  0  0  0  0
    2.3338   -0.8245    0.3805 H   0  0  0  0  0  0  0  0  0  0  0  0
    3.1159    0.6247    1.0638 H   0  0  0  0  0  0  0  0  0  0  0  0
    3.3687   -0.2511   -1.8928 H   0  0  0  0  0  0  0  0  0  0  0  0
    5.1195   -0.6406    0.6214 H   0  0  0  0  0  0  0  0  0  0  0  0
    5.0582   -1.6227   -0.9804 H   0  0  0  0  0  0  0  0  0  0  0  0
    6.1660    0.1648   -2.1087 H   0  0  0  0  0  0  0  0  0  0  0  0
    6.6281    0.8259   -0.4706 H   0  0  0  0  0  0  0  0  0  0  0  0
    4.6174    2.0524   -0.2505 H   0  0  0  0  0  0  0  0  0  0  0  0
    4.4611    1.8322   -2.0965 H   0  0  0  0  0  0  0  0  0  0  0  0
   -3.7912   -2.1104    0.5897 H   0  0  0  0  0  0  0  0  0  0  0  0
   -6.1731   -1.4740    1.3810 H   0  0  0  0  0  0  0  0  0  0  0  0
   -6.5989    1.0026    0.6928 H   0  0  0  0  0  0  0  0  0  0  0  0
  1  2  2  0
  2  3  1  0
  3  4  1  0
  4  5  2  0
  4  6  1  0
  6  7  1  0
  7  8  1  0
  8  9  2  0
  9 10  1  0
 10 11  2  0
 11 12  1  0
 12 13  2  0
 13 14  1  0
 14 15  1  0
 15 16  1  0
 16 17  1  0
 17 18  1  0
 18 19  1  0
 19 20  1  0
  6 21  1  0
 21 22  1  0
 22 23  2  0
 23 24  1  0
 24 25  1  0
 25  2  1  0
 13  8  1  0
 20 17  1  0
 25 21  2  0
  3 26  1  0
  7 27  1  0
  7 28  1  0
  9 29  1  0
 10 30  1  0
 11 31  1  0
 12 32  1  0
 14 33  1  0
 14 34  1  0
 15 35  1  0
 16 36  1  0
 16 37  1  0
 17 38  1  0
 18 39  1  0
 18 40  1  0
 19 41  1  0
 19 42  1  0
 20 43  1  0
 20 44  1  0
 22 45  1  0
 23 46  1  0
 24 47  1  0
M  END
$$$$
