
     RDKit          3D

 80 82  0  0  0  0  0  0  0  0999 V2000
   -2.5978   -1.9729    2.6612 C   0  0  0  0  0  0  0  0  0  0  0  0
   -2.9723   -0.5391    2.3900 C   0  0  0  0  0  0  0  0  0  0  0  0
   -2.2447    0.1778    1.3633 C   0  0  0  0  0  0  0  0  0  0  0  0
   -2.2268   -0.3035   -0.0629 C   0  0  2  0  0  0  0  0  0  0  0  0
   -3.4856   -0.3690   -0.6724 N   0  0  0  0  0  0  0  0  0  0  0  0
   -4.4939   -1.2683   -0.4552 C   0  0  1  0  0  0  0  0  0  0  0  0
   -5.8106   -0.4665   -0.8327 C   0  0  0  0  0  0  0  0  0  0  0  0
   -5.8152    0.7070    0.1127 C   0  0  0  0  0  0  0  0  0  0  0  0
   -6.9885    1.5938   -0.1186 C   0  0  0  0  0  0  0  0  0  0  0  0
   -6.8431    2.6253   -1.0215 C   0  0  0  0  0  0  0  0  0  0  0  0
   -7.8756    3.4978   -1.3010 C   0  0  0  0  0  0  0  0  0  0  0  0
   -9.0838    3.3243   -0.6530 C   0  0  0  0  0  0  0  0  0  0  0  0
   -9.2342    2.3060    0.2414 C   0  0  0  0  0  0  0  0  0  0  0  0
   -8.1977    1.4388    0.5149 C   0  0  0  0  0  0  0  0  0  0  0  0
   -4.5430   -2.3013   -1.5653 C   0  0  0  0  0  0  0  0  0  0  0  0
   -3.8577   -2.0911   -2.5778 O   0  0  0  0  0  0  0  0  0  0  0  0
   -5.3082   -3.4454   -1.4911 O   0  0  0  0  0  0  0  0  0  0  0  0
   -1.3414   -1.4749   -0.2373 C   0  0  0  0  0  0  0  0  0  0  0  0
   -1.8114   -2.5673   -0.6136 O   0  0  0  0  0  0  0  0  0  0  0  0
    0.0642   -1.4634   -0.0104 N   0  0  0  0  0  0  0  0  0  0  0  0
    0.8211   -0.2846    0.4369 C   0  0  0  0  0  0  0  0  0  0  0  0
    2.1965   -0.5673   -0.1739 C   0  0  1  0  0  0  0  0  0  0  0  0
    3.2182    0.2399    0.4151 N   0  0  0  0  0  0  0  0  0  0  0  0
    4.0961    1.0450   -0.3455 C   0  0  0  0  0  0  0  0  0  0  0  0
    3.9166    1.0055   -1.6105 O   0  0  0  0  0  0  0  0  0  0  0  0
    5.1599    1.8852    0.2628 C   0  0  0  0  0  0  0  0  0  0  0  0
    5.9296    2.5943   -0.8007 C   0  0  2  0  0  0  0  0  0  0  0  0
    5.0396    3.4377   -1.5616 N   0  0  0  0  0  0  0  0  0  0  0  0
    6.7023    1.6831   -1.7006 C   0  0  0  0  0  0  0  0  0  0  0  0
    7.6651    0.9238   -0.8588 C   0  0  0  0  0  0  0  0  0  0  0  0
    7.4044   -0.3914   -0.5484 C   0  0  0  0  0  0  0  0  0  0  0  0
    8.2827   -1.1405    0.2401 C   0  0  0  0  0  0  0  0  0  0  0  0
    8.0379   -2.4355    0.5529 F   0  0  0  0  0  0  0  0  0  0  0  0
    9.4411   -0.5676    0.7273 C   0  0  0  0  0  0  0  0  0  0  0  0
   10.3327   -1.2447    1.4980 F   0  0  0  0  0  0  0  0  0  0  0  0
    9.6867    0.7509    0.4067 C   0  0  0  0  0  0  0  0  0  0  0  0
    8.8220    1.4922   -0.3709 C   0  0  0  0  0  0  0  0  0  0  0  0
    9.0585    2.7970   -0.6921 F   0  0  0  0  0  0  0  0  0  0  0  0
    2.3133   -2.0428    0.1993 C   0  0  0  0  0  0  0  0  0  0  0  0
    0.9677   -2.5711   -0.2139 C   0  0  1  0  0  0  0  0  0  0  0  0
    0.6067   -3.8037    0.4920 C   0  0  0  0  0  0  0  0  0  0  0  0
   -0.4194   -3.8378    1.2037 O   0  0  0  0  0  0  0  0  0  0  0  0
    1.3616   -4.9579    0.4084 O   0  0  0  0  0  0  0  0  0  0  0  0
   -3.2005   -2.2687    3.5748 H   0  0  0  0  0  0  0  0  0  0  0  0
   -2.9381   -2.6695    1.8796 H   0  0  0  0  0  0  0  0  0  0  0  0
   -1.5513   -2.0885    2.9795 H   0  0  0  0  0  0  0  0  0  0  0  0
   -2.7141   -0.0245    3.3881 H   0  0  0  0  0  0  0  0  0  0  0  0
   -4.0769   -0.4873    2.4110 H   0  0  0  0  0  0  0  0  0  0  0  0
   -2.7063    1.2178    1.2802 H   0  0  0  0  0  0  0  0  0  0  0  0
   -1.2210    0.3923    1.6974 H   0  0  0  0  0  0  0  0  0  0  0  0
   -1.6791    0.5312   -0.6134 H   0  0  0  0  0  0  0  0  0  0  0  0
   -3.3735   -0.2101   -1.7187 H   0  0  0  0  0  0  0  0  0  0  0  0
   -4.7309   -1.6870    0.5013 H   0  0  0  0  0  0  0  0  0  0  0  0
   -5.6182   -0.1196   -1.8486 H   0  0  0  0  0  0  0  0  0  0  0  0
   -6.6698   -1.1233   -0.7051 H   0  0  0  0  0  0  0  0  0  0  0  0
   -4.8999    1.2831    0.0259 H   0  0  0  0  0  0  0  0  0  0  0  0
   -5.8704    0.2740    1.1361 H   0  0  0  0  0  0  0  0  0  0  0  0
   -5.9081    2.7845   -1.5435 H   0  0  0  0  0  0  0  0  0  0  0  0
   -7.7260    4.2866   -2.0078 H   0  0  0  0  0  0  0  0  0  0  0  0
   -9.8758    4.0009   -0.8732 H   0  0  0  0  0  0  0  0  0  0  0  0
  -10.1873    2.1808    0.7434 H   0  0  0  0  0  0  0  0  0  0  0  0
   -8.3178    0.6193    1.2343 H   0  0  0  0  0  0  0  0  0  0  0  0
   -5.0887   -4.1900   -2.1395 H   0  0  0  0  0  0  0  0  0  0  0  0
    0.9695   -0.2698    1.5119 H   0  0  0  0  0  0  0  0  0  0  0  0
    0.3691    0.5945   -0.0185 H   0  0  0  0  0  0  0  0  0  0  0  0
    2.1210   -0.5125   -1.2587 H   0  0  0  0  0  0  0  0  0  0  0  0
    3.3242    0.2381    1.4505 H   0  0  0  0  0  0  0  0  0  0  0  0
    4.6461    2.6582    0.8790 H   0  0  0  0  0  0  0  0  0  0  0  0
    5.7938    1.3130    0.9642 H   0  0  0  0  0  0  0  0  0  0  0  0
    6.6887    3.2569   -0.2949 H   0  0  0  0  0  0  0  0  0  0  0  0
    5.6408    3.9899   -2.2228 H   0  0  0  0  0  0  0  0  0  0  0  0
    4.6289    4.1452   -0.8900 H   0  0  0  0  0  0  0  0  0  0  0  0
    7.3463    2.3311   -2.3635 H   0  0  0  0  0  0  0  0  0  0  0  0
    6.1168    1.0605   -2.3738 H   0  0  0  0  0  0  0  0  0  0  0  0
    6.5120   -0.8657   -0.9119 H   0  0  0  0  0  0  0  0  0  0  0  0
   10.5804    1.2426    0.7650 H   0  0  0  0  0  0  0  0  0  0  0  0
    3.1167   -2.5407   -0.3767 H   0  0  0  0  0  0  0  0  0  0  0  0
    2.4295   -2.1525    1.2916 H   0  0  0  0  0  0  0  0  0  0  0  0
    1.0502   -2.7559   -1.3215 H   0  0  0  0  0  0  0  0  0  0  0  0
    1.0461   -5.8527    0.7991 H   0  0  0  0  0  0  0  0  0  0  0  0
  1  2  1  0
  2  3  1  0
  3  4  1  0
  4  5  1  0
  5  6  1  0
  6  7  1  0
  7  8  1  0
  8  9  1  0
  9 10  2  0
 10 11  1  0
 11 12  2  0
 12 13  1  0
 13 14  2  0
  6 15  1  0
 15 16  2  0
 15 17  1  0
  4 18  1  0
 18 19  2  0
 18 20  1  0
 20 21  1  0
 21 22  1  0
 22 23  1  0
 23 24  1  0
 24 25  2  0
 24 26  1  0
 26 27  1  0
 27 28  1  0
 27 29  1  0
 29 30  1  0
 30 31  2  0
 31 32  1  0
 32 33  1  0
 32 34  2  0
 34 35  1  0
 34 36  1  0
 36 37  2  0
 37 38  1  0
 22 39  1  0
 39 40  1  0
 40 41  1  0
 41 42  2  0
 41 43  1  0
 14  9  1  0
 40 20  1  0
 37 30  1  0
  1 44  1  0
  1 45  1  0
  1 46  1  0
  2 47  1  0
  2 48  1  0
  3 49  1  0
  3 50  1  0
  4 51  1  6
  5 52  1  0
  6 53  1  1
  7 54  1  0
  7 55  1  0
  8 56  1  0
  8 57  1  0
 10 58  1  0
 11 59  1  0
 12 60  1  0
 13 61  1  0
 14 62  1  0
 17 63  1  0
 21 64  1  0
 21 65  1  0
 22 66  1  6
 23 67  1  0
 26 68  1  0
 26 69  1  0
 27 70  1  1
 28 71  1  0
 28 72  1  0
 29 73  1  0
 29 74  1  0
 31 75  1  0
 36 76  1  0
 39 77  1  0
 39 78  1  0
 40 79  1  6
 43 80  1  0
M  END
$$$$
