
     RDKit          3D

 38 38  0  0  0  0  0  0  0  0999 V2000
    5.0906    1.1932   -0.8751 O   0  0  0  0  0  0  0  0  0  0  0  0
    4.5282   -0.0725   -0.8685 C   0  0  0  0  0  0  0  0  0  0  0  0
    4.6153   -0.5291   -2.0477 O   0  0  0  0  0  0  0  0  0  0  0  0
    3.8739   -1.0848   -0.0299 C   0  0  0  0  0  0  0  0  0  0  0  0
    3.6934   -0.5979    1.3867 C   0  0  0  0  0  0  0  0  0  0  0  0
    2.8438    0.6289    1.4950 C   0  0  0  0  0  0  0  0  0  0  0  0
    1.4672    0.4343    0.9795 C   0  0  0  0  0  0  0  0  0  0  0  0
    1.0916    0.6909   -0.3201 C   0  0  0  0  0  0  0  0  0  0  0  0
   -0.2027    0.4827   -0.7265 C   0  0  0  0  0  0  0  0  0  0  0  0
   -1.2132    0.0174    0.0830 C   0  0  0  0  0  0  0  0  0  0  0  0
   -0.7653   -0.2151    1.3601 C   0  0  0  0  0  0  0  0  0  0  0  0
    0.5067   -0.0349    1.8511 C   0  0  0  0  0  0  0  0  0  0  0  0
   -2.5289   -0.1821   -0.4107 N   0  0  0  0  0  0  0  0  0  0  0  0
   -3.7778   -0.5852    0.0834 C   0  0  0  0  0  0  0  0  0  0  0  0
   -3.8994   -0.9972    1.5260 C   0  0  0  0  0  0  0  0  0  0  0  0
   -5.6135   -1.4498    1.8552 Cl  0  0  0  0  0  0  0  0  0  0  0  0
   -2.7616    0.0734   -1.8201 C   0  0  0  0  0  0  0  0  0  0  0  0
   -3.5799    1.3014   -2.1014 C   0  0  0  0  0  0  0  0  0  0  0  0
   -2.7856    2.7598   -1.4238 Cl  0  0  0  0  0  0  0  0  0  0  0  0
    6.0292    1.3543   -1.2227 H   0  0  0  0  0  0  0  0  0  0  0  0
    2.8522   -1.2871   -0.4508 H   0  0  0  0  0  0  0  0  0  0  0  0
    4.4058   -2.0588   -0.0380 H   0  0  0  0  0  0  0  0  0  0  0  0
    3.2218   -1.3961    2.0157 H   0  0  0  0  0  0  0  0  0  0  0  0
    4.7036   -0.4524    1.8227 H   0  0  0  0  0  0  0  0  0  0  0  0
    2.8710    0.9533    2.5613 H   0  0  0  0  0  0  0  0  0  0  0  0
    3.3827    1.4343    0.9468 H   0  0  0  0  0  0  0  0  0  0  0  0
    1.8828    1.0561   -0.9471 H   0  0  0  0  0  0  0  0  0  0  0  0
   -0.2916    0.7485   -1.7564 H   0  0  0  0  0  0  0  0  0  0  0  0
   -1.4276   -0.5789    2.1204 H   0  0  0  0  0  0  0  0  0  0  0  0
    0.7914   -0.2389    2.8707 H   0  0  0  0  0  0  0  0  0  0  0  0
   -4.6257    0.1478   -0.1093 H   0  0  0  0  0  0  0  0  0  0  0  0
   -4.1606   -1.4970   -0.4966 H   0  0  0  0  0  0  0  0  0  0  0  0
   -3.2441   -1.8549    1.7540 H   0  0  0  0  0  0  0  0  0  0  0  0
   -3.6426   -0.1357    2.1615 H   0  0  0  0  0  0  0  0  0  0  0  0
   -3.2705   -0.8405   -2.2656 H   0  0  0  0  0  0  0  0  0  0  0  0
   -1.8435    0.1483   -2.4250 H   0  0  0  0  0  0  0  0  0  0  0  0
   -3.6430    1.4381   -3.2193 H   0  0  0  0  0  0  0  0  0  0  0  0
   -4.5740    1.2262   -1.6587 H   0  0  0  0  0  0  0  0  0  0  0  0
  1  2  1  0
  2  3  2  0
  2  4  1  0
  4  5  1  0
  5  6  1  0
  6  7  1  0
  7  8  2  0
  8  9  1  0
  9 10  2  0
 10 11  1  0
 11 12  2  0
 10 13  1  0
 13 14  1  0
 14 15  1  0
 15 16  1  0
 13 17  1  0
 17 18  1  0
 18 19  1  0
 12  7  1  0
  1 20  1  0
  4 21  1  0
  4 22  1  0
  5 23  1  0
  5 24  1  0
  6 25  1  0
  6 26  1  0
  8 27  1  0
  9 28  1  0
 11 29  1  0
 12 30  1  0
 14 31  1  0
 14 32  1  0
 15 33  1  0
 15 34  1  0
 17 35  1  0
 17 36  1  0
 18 37  1  0
 18 38  1  0
M  END
$$$$
