
     RDKit          3D

 57 61  0  0  0  0  0  0  0  0999 V2000
    5.1067   -1.6685   -1.0149 C   0  0  0  0  0  0  0  0  0  0  0  0
    5.3754   -0.4519   -0.2143 C   0  0  0  0  0  0  0  0  0  0  0  0
    4.4471    0.4209    0.3381 C   0  0  0  0  0  0  0  0  0  0  0  0
    2.9918    0.3028    0.2324 C   0  0  0  0  0  0  0  0  0  0  0  0
    2.4899   -0.6380   -0.3923 O   0  0  0  0  0  0  0  0  0  0  0  0
    2.1742    1.2663    0.8462 N   0  0  0  0  0  0  0  0  0  0  0  0
    0.7715    1.3176    0.8523 C   0  0  0  0  0  0  0  0  0  0  0  0
    0.1782    2.3847    1.5381 C   0  0  0  0  0  0  0  0  0  0  0  0
   -1.1805    2.5531    1.6221 C   0  0  0  0  0  0  0  0  0  0  0  0
   -1.9798    1.6329    1.0056 C   0  0  0  0  0  0  0  0  0  0  0  0
   -3.3330    1.7557    1.0602 F   0  0  0  0  0  0  0  0  0  0  0  0
   -1.4789    0.5482    0.3066 C   0  0  0  0  0  0  0  0  0  0  0  0
   -2.3784   -0.4333   -0.3502 C   0  0  2  0  0  0  0  0  0  0  0  0
   -1.4700   -1.5316   -0.9334 C   0  0  0  0  0  0  0  0  0  0  0  0
   -3.0387    0.2536   -1.5085 C   0  0  0  0  0  0  0  0  0  0  0  0
   -4.5866   -0.5864   -1.8935 S   0  0  0  0  0  6  0  0  0  0  0  0
   -4.2844   -1.8859   -2.5906 O   0  0  0  0  0  0  0  0  0  0  0  0
   -5.3672    0.3336   -2.7832 O   0  0  0  0  0  0  0  0  0  0  0  0
   -5.3496   -0.8307   -0.3415 C   0  0  1  0  0  0  0  0  0  0  0  0
   -6.0640    0.4555    0.0980 C   0  0  0  0  0  0  0  0  0  0  0  0
   -7.3455   -0.1558   -0.4197 C   0  0  1  0  0  0  0  0  0  0  0  0
   -7.7019    0.2783   -1.6718 F   0  0  0  0  0  0  0  0  0  0  0  0
   -6.6753   -1.5057   -0.3550 C   0  0  0  0  0  0  0  0  0  0  0  0
   -4.4251   -1.2474    0.7065 C   0  0  0  0  0  0  0  0  0  0  0  0
   -4.9460   -1.9255    1.8907 N   0  0  0  0  0  0  0  0  0  0  0  0
   -3.1984   -1.0267    0.5931 N   0  0  0  0  0  0  0  0  0  0  0  0
   -0.0891    0.4319    0.2571 C   0  0  0  0  0  0  0  0  0  0  0  0
    5.1670    1.3612    0.9669 N   0  0  0  0  0  0  0  0  0  0  0  0
    6.4865    1.1332    0.8436 C   0  0  0  0  0  0  0  0  0  0  0  0
    7.5972    1.8112    1.3085 C   0  0  0  0  0  0  0  0  0  0  0  0
    8.8737    1.3598    1.0384 C   0  0  0  0  0  0  0  0  0  0  0  0
    8.9823    0.2074    0.2872 C   0  0  0  0  0  0  0  0  0  0  0  0
   10.5965   -0.3946   -0.0748 Cl  0  0  0  0  0  0  0  0  0  0  0  0
    7.8498   -0.4338   -0.1541 C   0  0  0  0  0  0  0  0  0  0  0  0
    6.6025    0.0104    0.1119 N   0  0  0  0  0  0  0  0  0  0  0  0
    4.2160   -2.1965   -0.6614 H   0  0  0  0  0  0  0  0  0  0  0  0
    5.9763   -2.3634   -0.9603 H   0  0  0  0  0  0  0  0  0  0  0  0
    4.9534   -1.4496   -2.0895 H   0  0  0  0  0  0  0  0  0  0  0  0
    2.7128    2.0354    1.3594 H   0  0  0  0  0  0  0  0  0  0  0  0
    0.7949    3.1380    2.0420 H   0  0  0  0  0  0  0  0  0  0  0  0
   -1.6102    3.3826    2.1558 H   0  0  0  0  0  0  0  0  0  0  0  0
   -0.8635   -2.0234   -0.1767 H   0  0  0  0  0  0  0  0  0  0  0  0
   -2.1171   -2.3055   -1.4437 H   0  0  0  0  0  0  0  0  0  0  0  0
   -0.8768   -1.0906   -1.7422 H   0  0  0  0  0  0  0  0  0  0  0  0
   -3.2013    1.3395   -1.3696 H   0  0  0  0  0  0  0  0  0  0  0  0
   -2.4016    0.1284   -2.4034 H   0  0  0  0  0  0  0  0  0  0  0  0
   -6.0175    0.6429    1.1793 H   0  0  0  0  0  0  0  0  0  0  0  0
   -5.7180    1.3534   -0.4530 H   0  0  0  0  0  0  0  0  0  0  0  0
   -8.1297   -0.0475    0.3584 H   0  0  0  0  0  0  0  0  0  0  0  0
   -6.9458   -2.1491    0.4782 H   0  0  0  0  0  0  0  0  0  0  0  0
   -6.8371   -2.0322   -1.3310 H   0  0  0  0  0  0  0  0  0  0  0  0
   -4.3705   -2.5823    2.4362 H   0  0  0  0  0  0  0  0  0  0  0  0
   -5.9206   -1.7447    2.1952 H   0  0  0  0  0  0  0  0  0  0  0  0
    0.3141   -0.3902   -0.2729 H   0  0  0  0  0  0  0  0  0  0  0  0
    7.5078    2.7171    1.8991 H   0  0  0  0  0  0  0  0  0  0  0  0
    9.7660    1.8746    1.3924 H   0  0  0  0  0  0  0  0  0  0  0  0
    7.9705   -1.3395   -0.7438 H   0  0  0  0  0  0  0  0  0  0  0  0
  1  2  1  0
  2  3  2  0
  3  4  1  0
  4  5  2  0
  4  6  1  0
  6  7  1  0
  7  8  2  0
  8  9  1  0
  9 10  2  0
 10 11  1  0
 10 12  1  0
 12 13  1  0
 13 14  1  6
 13 15  1  0
 15 16  1  0
 16 17  2  0
 16 18  2  0
 16 19  1  0
 19 20  1  1
 20 21  1  0
 21 22  1  0
 21 23  1  0
 19 24  1  0
 24 25  1  0
 24 26  2  0
 12 27  2  0
  3 28  1  0
 28 29  2  0
 29 30  1  0
 30 31  2  0
 31 32  1  0
 32 33  1  0
 32 34  2  0
 34 35  1  0
 35  2  1  0
 27  7  1  0
 35 29  1  0
 26 13  1  0
 23 19  1  0
  1 36  1  0
  1 37  1  0
  1 38  1  0
  6 39  1  0
  8 40  1  0
  9 41  1  0
 14 42  1  0
 14 43  1  0
 14 44  1  0
 15 45  1  0
 15 46  1  0
 20 47  1  0
 20 48  1  0
 21 49  1  1
 23 50  1  0
 23 51  1  0
 25 52  1  0
 25 53  1  0
 27 54  1  0
 30 55  1  0
 31 56  1  0
 34 57  1  0
M  END
$$$$
