
     RDKit          3D

 54 56  0  0  0  0  0  0  0  0999 V2000
   -4.4821   -6.3171   -0.7131 C   0  0  0  0  0  0  0  0  0  0  0  0
   -4.5849   -4.9623   -0.3870 O   0  0  0  0  0  0  0  0  0  0  0  0
   -3.5301   -4.0866   -0.5689 C   0  0  0  0  0  0  0  0  0  0  0  0
   -2.3537   -4.5463   -1.0793 C   0  0  0  0  0  0  0  0  0  0  0  0
   -1.3275   -3.6335   -1.2432 C   0  0  0  0  0  0  0  0  0  0  0  0
   -1.4883   -2.3061   -0.9026 C   0  0  0  0  0  0  0  0  0  0  0  0
   -0.4050   -1.3715   -1.0819 N   0  0  0  0  0  0  0  0  0  0  0  0
    0.5348   -1.1445   -0.0415 C   0  0  0  0  0  0  0  0  0  0  0  0
    0.3456   -1.8105    1.0200 O   0  0  0  0  0  0  0  0  0  0  0  0
    1.6453   -0.2238   -0.1486 C   0  0  0  0  0  0  0  0  0  0  0  0
    2.5093   -0.0653    0.9099 C   0  0  0  0  0  0  0  0  0  0  0  0
    3.5876    0.8075    0.8494 C   0  0  0  0  0  0  0  0  0  0  0  0
    3.8131    1.5347   -0.2788 C   0  0  0  0  0  0  0  0  0  0  0  0
    4.9345    2.4632   -0.3847 C   0  0  0  0  0  0  0  0  0  0  0  0
    4.8236    3.5055   -1.1332 N   0  0  0  0  0  0  0  0  0  0  0  0
    6.1320    2.2157    0.3315 N   0  0  0  0  0  0  0  0  0  0  0  0
    7.2471    1.6545   -0.3934 C   0  0  0  0  0  0  0  0  0  0  0  0
    6.2534    2.5083    1.7408 C   0  0  0  0  0  0  0  0  0  0  0  0
    2.9643    1.3965   -1.3546 C   0  0  0  0  0  0  0  0  0  0  0  0
    1.8802    0.5130   -1.2814 C   0  0  0  0  0  0  0  0  0  0  0  0
   -2.6876   -1.8273   -0.3801 C   0  0  0  0  0  0  0  0  0  0  0  0
   -2.8256   -0.4126   -0.0289 C   0  0  0  0  0  0  0  0  0  0  0  0
   -1.8250    0.3275   -0.2209 O   0  0  0  0  0  0  0  0  0  0  0  0
   -3.9925    0.1590    0.5022 N   0  0  0  0  0  0  0  0  0  0  0  0
   -4.2009    1.5169    0.8660 C   0  0  0  0  0  0  0  0  0  0  0  0
   -3.2926    2.5284    0.7645 C   0  0  0  0  0  0  0  0  0  0  0  0
   -3.5573    3.8538    1.1409 C   0  0  0  0  0  0  0  0  0  0  0  0
   -4.7890    4.1489    1.6354 C   0  0  0  0  0  0  0  0  0  0  0  0
   -5.2767    5.7512    2.1493 Cl  0  0  0  0  0  0  0  0  0  0  0  0
   -5.7030    3.1335    1.7382 C   0  0  0  0  0  0  0  0  0  0  0  0
   -5.4211    1.8829    1.3717 N   0  0  0  0  0  0  0  0  0  0  0  0
   -3.6885   -2.7492   -0.2270 C   0  0  0  0  0  0  0  0  0  0  0  0
   -5.3398   -6.8782   -0.2486 H   0  0  0  0  0  0  0  0  0  0  0  0
   -3.5705   -6.8038   -0.3467 H   0  0  0  0  0  0  0  0  0  0  0  0
   -4.5616   -6.4708   -1.8052 H   0  0  0  0  0  0  0  0  0  0  0  0
   -2.2024   -5.5821   -1.3541 H   0  0  0  0  0  0  0  0  0  0  0  0
   -0.3944   -4.0013   -1.6487 H   0  0  0  0  0  0  0  0  0  0  0  0
   -0.2880   -0.8455   -1.9721 H   0  0  0  0  0  0  0  0  0  0  0  0
    2.3884   -0.6120    1.8359 H   0  0  0  0  0  0  0  0  0  0  0  0
    4.2498    0.9066    1.7066 H   0  0  0  0  0  0  0  0  0  0  0  0
    3.9823    3.7310   -1.6709 H   0  0  0  0  0  0  0  0  0  0  0  0
    6.8270    0.9142   -1.1132 H   0  0  0  0  0  0  0  0  0  0  0  0
    7.7838    2.4392   -0.9961 H   0  0  0  0  0  0  0  0  0  0  0  0
    7.9228    1.1810    0.3348 H   0  0  0  0  0  0  0  0  0  0  0  0
    5.3384    3.0076    2.1171 H   0  0  0  0  0  0  0  0  0  0  0  0
    7.0753    3.2475    1.8450 H   0  0  0  0  0  0  0  0  0  0  0  0
    6.4555    1.5978    2.3534 H   0  0  0  0  0  0  0  0  0  0  0  0
    3.1348    1.9704   -2.2569 H   0  0  0  0  0  0  0  0  0  0  0  0
    1.2615    0.4585   -2.1602 H   0  0  0  0  0  0  0  0  0  0  0  0
   -4.7945   -0.5398    0.6335 H   0  0  0  0  0  0  0  0  0  0  0  0
   -2.3139    2.3457    0.3826 H   0  0  0  0  0  0  0  0  0  0  0  0
   -2.8284    4.6220    1.0501 H   0  0  0  0  0  0  0  0  0  0  0  0
   -6.7162    3.3122    2.1313 H   0  0  0  0  0  0  0  0  0  0  0  0
   -4.6493   -2.4445    0.1747 H   0  0  0  0  0  0  0  0  0  0  0  0
  1  2  1  0
  2  3  1  0
  3  4  2  0
  4  5  1  0
  5  6  2  0
  6  7  1  0
  7  8  1  0
  8  9  2  0
  8 10  1  0
 10 11  2  0
 11 12  1  0
 12 13  2  0
 13 14  1  0
 14 15  2  3
 14 16  1  0
 16 17  1  0
 16 18  1  0
 13 19  1  0
 19 20  2  0
  6 21  1  0
 21 22  1  0
 22 23  2  0
 22 24  1  0
 24 25  1  0
 25 26  2  0
 26 27  1  0
 27 28  2  0
 28 29  1  0
 28 30  1  0
 30 31  2  0
 21 32  2  0
 32  3  1  0
 20 10  1  0
 31 25  1  0
  1 33  1  0
  1 34  1  0
  1 35  1  0
  4 36  1  0
  5 37  1  0
  7 38  1  0
 11 39  1  0
 12 40  1  0
 15 41  1  0
 17 42  1  0
 17 43  1  0
 17 44  1  0
 18 45  1  0
 18 46  1  0
 18 47  1  0
 19 48  1  0
 20 49  1  0
 24 50  1  0
 26 51  1  0
 27 52  1  0
 30 53  1  0
 32 54  1  0
M  END
$$$$
