
     RDKit          3D

 39 42  0  0  0  0  0  0  0  0999 V2000
    6.1174    3.1080   -0.7298 N   0  0  0  0  0  0  0  0  0  0  0  0
    5.2458    2.2307   -0.6734 C   0  0  0  0  0  0  0  0  0  0  0  0
    4.2828    1.2306   -0.6208 C   0  0  0  0  0  0  0  0  0  0  0  0
    3.1589    1.2554   -1.4258 C   0  0  0  0  0  0  0  0  0  0  0  0
    2.1611    0.3487   -1.4642 C   0  0  0  0  0  0  0  0  0  0  0  0
    2.2785   -0.7317   -0.5931 C   0  0  0  0  0  0  0  0  0  0  0  0
    3.3718   -0.8191    0.2377 C   0  0  0  0  0  0  0  0  0  0  0  0
    3.4518   -1.9096    1.1774 C   0  0  0  0  0  0  0  0  0  0  0  0
    2.3941   -2.7420    1.1277 C   0  0  0  0  0  0  0  0  0  0  0  0
    1.2923   -2.6348    0.2773 C   0  0  0  0  0  0  0  0  0  0  0  0
    0.4081   -3.5199    0.3830 O   0  0  0  0  0  0  0  0  0  0  0  0
    1.2489   -1.6303   -0.5726 N   0  0  0  0  0  0  0  0  0  0  0  0
    0.1318   -1.3548   -1.4457 C   0  0  0  0  0  0  0  0  0  0  0  0
   -0.7482   -0.2968   -0.8722 C   0  0  0  0  0  0  0  0  0  0  0  0
   -1.2448    0.5660   -1.6560 O   0  0  0  0  0  0  0  0  0  0  0  0
   -1.0627   -0.1817    0.4794 N   0  0  0  0  0  0  0  0  0  0  0  0
   -1.8435    0.8438    1.1149 C   0  0  0  0  0  0  0  0  0  0  0  0
   -0.9714    1.8261    2.4303 S   0  0  0  0  0  0  0  0  0  0  0  0
   -2.4407    2.9234    2.6235 C   0  0  0  0  0  0  0  0  0  0  0  0
   -3.3613    2.4737    1.7461 C   0  0  0  0  0  0  0  0  0  0  0  0
   -5.0849    3.4218    1.6475 Br  0  0  0  0  0  0  0  0  0  0  0  0
   -3.0375    1.4017    0.9843 C   0  0  0  0  0  0  0  0  0  0  0  0
   -4.0421    0.7558    0.0862 C   0  0  0  0  0  0  0  0  0  0  0  0
   -5.3012    1.2730   -0.1318 N   0  0  0  0  0  0  0  0  0  0  0  0
   -5.9675    0.4657   -0.9164 N   0  0  0  0  0  0  0  0  0  0  0  0
   -5.2338   -0.5735   -1.2467 C   0  0  0  0  0  0  0  0  0  0  0  0
   -4.0309   -0.3651   -0.5992 N   0  0  0  0  0  0  0  0  0  0  0  0
    4.3725    0.1160    0.2529 C   0  0  0  0  0  0  0  0  0  0  0  0
    3.1125    2.1340   -2.1076 H   0  0  0  0  0  0  0  0  0  0  0  0
    1.3318    0.4359   -2.1312 H   0  0  0  0  0  0  0  0  0  0  0  0
    4.3039   -1.9366    1.7835 H   0  0  0  0  0  0  0  0  0  0  0  0
    2.3814   -3.5974    1.8628 H   0  0  0  0  0  0  0  0  0  0  0  0
    0.3578   -1.2639   -2.4968 H   0  0  0  0  0  0  0  0  0  0  0  0
   -0.5213   -2.2910   -1.3899 H   0  0  0  0  0  0  0  0  0  0  0  0
   -0.6750   -0.9322    1.1301 H   0  0  0  0  0  0  0  0  0  0  0  0
   -2.4104    3.7882    3.3462 H   0  0  0  0  0  0  0  0  0  0  0  0
   -5.4227   -1.4334   -1.8727 H   0  0  0  0  0  0  0  0  0  0  0  0
   -3.2375   -1.0260   -0.6427 H   0  0  0  0  0  0  0  0  0  0  0  0
    5.2345    0.0599    0.8979 H   0  0  0  0  0  0  0  0  0  0  0  0
  1  2  3  0
  2  3  1  0
  3  4  2  0
  4  5  1  0
  5  6  2  0
  6  7  1  0
  7  8  1  0
  8  9  2  0
  9 10  1  0
 10 11  2  0
 10 12  1  0
 12 13  1  0
 13 14  1  0
 14 15  2  0
 14 16  1  0
 16 17  1  0
 17 18  1  0
 18 19  1  0
 19 20  2  0
 20 21  1  0
 20 22  1  0
 22 23  1  0
 23 24  2  0
 24 25  1  0
 25 26  2  0
 26 27  1  0
  7 28  2  0
 28  3  1  0
 12  6  1  0
 22 17  2  0
 27 23  1  0
  4 29  1  0
  5 30  1  0
  8 31  1  0
  9 32  1  0
 13 33  1  0
 13 34  1  0
 16 35  1  0
 19 36  1  0
 26 37  1  0
 27 38  1  0
 28 39  1  0
M  END
$$$$
