
     RDKit          3D

104108  0  0  0  0  0  0  0  0999 V2000
   -8.4823   -1.2004   -6.0087 C   0  0  0  0  0  0  0  0  0  0  0  0
   -7.6720   -0.6699   -5.0341 O   0  0  0  0  0  0  0  0  0  0  0  0
   -6.3418   -0.6406   -5.3622 C   0  0  0  0  0  0  0  0  0  0  0  0
   -5.4825   -0.0635   -4.2541 C   0  0  0  0  0  0  0  0  0  0  0  0
   -5.5953   -0.8663   -2.9903 C   0  0  0  0  0  0  0  0  0  0  0  0
   -4.7500   -0.3010   -1.8860 C   0  0  0  0  0  0  0  0  0  0  0  0
   -3.4565   -0.6781   -1.6899 C   0  0  0  0  0  0  0  0  0  0  0  0
   -2.6462   -0.1725   -0.6466 C   0  0  0  0  0  0  0  0  0  0  0  0
   -1.2804   -0.6722   -0.4931 C   0  0  0  0  0  0  0  0  0  0  0  0
   -0.9654   -1.4633    0.6465 N   0  0  0  0  0  0  0  0  0  0  0  0
    0.0092   -1.0315    1.5873 C   0  0  0  0  0  0  0  0  0  0  0  0
    0.0854   -1.7957    2.6444 O   0  0  0  0  0  0  0  0  0  0  0  0
    0.9297    0.1282    1.5166 C   0  0  1  0  0  0  0  0  0  0  0  0
    0.3454    1.4741    1.5880 C   0  0  0  0  0  0  0  0  0  0  0  0
    0.4265    2.1048    2.9096 N   0  0  0  0  0  0  0  0  0  0  0  0
    1.8523    2.2720    3.1424 C   0  0  0  0  0  0  0  0  0  0  0  0
    2.4015    0.9048    3.4145 C   0  0  0  0  0  0  0  0  0  0  0  0
    2.1193   -0.1312    2.4225 C   0  0  2  0  0  0  0  0  0  0  0  0
    3.3509   -0.5005    1.6853 C   0  0  0  0  0  0  0  0  0  0  0  0
    4.2851    0.4567    1.4076 C   0  0  0  0  0  0  0  0  0  0  0  0
    5.4365    0.0958    0.7284 C   0  0  0  0  0  0  0  0  0  0  0  0
    5.6968   -1.1986    0.3117 C   0  0  0  0  0  0  0  0  0  0  0  0
    6.7354   -1.6509   -0.3173 O   0  0  0  0  0  0  0  0  0  0  0  0
    7.7953   -2.0575   -0.9453 C   0  0  0  0  0  0  0  0  0  0  0  0
    8.1983   -1.3445   -2.2036 C   0  0  0  0  0  0  0  0  0  0  0  0
    8.5814   -0.0277   -2.1132 O   0  0  0  0  0  0  0  0  0  0  0  0
    9.7933    0.3515   -1.5752 C   0  0  0  0  0  0  0  0  0  0  0  0
   10.0871    0.6090   -0.2863 C   0  0  0  0  0  0  0  0  0  0  0  0
    8.8716    0.4610    0.9712 Cl  0  0  0  0  0  0  0  0  0  0  0  0
   11.3804    0.9982    0.1461 C   0  0  0  0  0  0  0  0  0  0  0  0
   12.4012    1.1294   -0.7499 C   0  0  0  0  0  0  0  0  0  0  0  0
   13.7589    1.5371   -0.3108 C   0  0  0  0  0  0  0  0  0  0  0  0
   12.1282    0.8714   -2.0747 C   0  0  0  0  0  0  0  0  0  0  0  0
   10.8819    0.4963   -2.4891 C   0  0  0  0  0  0  0  0  0  0  0  0
   10.5259    0.1622   -4.1760 Cl  0  0  0  0  0  0  0  0  0  0  0  0
    4.6740   -2.1425    0.6364 C   0  0  0  0  0  0  0  0  0  0  0  0
    3.5538   -1.8157    1.2909 C   0  0  0  0  0  0  0  0  0  0  0  0
   -1.5322   -2.7859    0.9339 C   0  0  0  0  0  0  0  0  0  0  0  0
   -1.7136   -3.6504   -0.2790 C   0  0  0  0  0  0  0  0  0  0  0  0
   -2.8680   -3.2281    0.5545 C   0  0  0  0  0  0  0  0  0  0  0  0
   -3.2751    0.7343    0.1561 C   0  0  0  0  0  0  0  0  0  0  0  0
   -4.6118    1.1404   -0.0257 C   0  0  0  0  0  0  0  0  0  0  0  0
   -5.1502    2.0656    0.8451 O   0  0  0  0  0  0  0  0  0  0  0  0
   -6.3889    2.6178    0.9382 C   0  0  0  0  0  0  0  0  0  0  0  0
   -7.5612    1.7677    1.2620 C   0  0  0  0  0  0  0  0  0  0  0  0
   -7.5749    1.1028    2.6028 C   0  0  0  0  0  0  0  0  0  0  0  0
   -7.5368    2.1707    3.6998 C   0  0  0  0  0  0  0  0  0  0  0  0
   -8.9180    0.3746    2.7097 C   0  0  0  0  0  0  0  0  0  0  0  0
   -6.5104    0.1235    2.8005 C   0  0  0  0  0  0  0  0  0  0  0  0
   -6.7704   -1.1184    2.8331 O   0  0  0  0  0  0  0  0  0  0  0  0
   -5.1718    0.4751    2.9674 O   0  0  0  0  0  0  0  0  0  0  0  0
   -5.3493    0.6260   -1.0444 C   0  0  0  0  0  0  0  0  0  0  0  0
   -8.2216   -2.2513   -6.2551 H   0  0  0  0  0  0  0  0  0  0  0  0
   -8.5243   -0.5784   -6.9289 H   0  0  0  0  0  0  0  0  0  0  0  0
   -9.5382   -1.2463   -5.6217 H   0  0  0  0  0  0  0  0  0  0  0  0
   -6.0333   -1.6519   -5.6332 H   0  0  0  0  0  0  0  0  0  0  0  0
   -6.2419    0.0414   -6.2402 H   0  0  0  0  0  0  0  0  0  0  0  0
   -5.6557    1.0013   -4.0798 H   0  0  0  0  0  0  0  0  0  0  0  0
   -4.4296   -0.1690   -4.6201 H   0  0  0  0  0  0  0  0  0  0  0  0
   -5.3046   -1.9198   -3.0980 H   0  0  0  0  0  0  0  0  0  0  0  0
   -6.6577   -0.8794   -2.6100 H   0  0  0  0  0  0  0  0  0  0  0  0
   -2.9990   -1.4015   -2.3519 H   0  0  0  0  0  0  0  0  0  0  0  0
   -1.0574   -1.3383   -1.3902 H   0  0  0  0  0  0  0  0  0  0  0  0
   -0.5205    0.1555   -0.6578 H   0  0  0  0  0  0  0  0  0  0  0  0
    1.3255    0.0409    0.4288 H   0  0  0  0  0  0  0  0  0  0  0  0
   -0.6497    1.5377    1.1933 H   0  0  0  0  0  0  0  0  0  0  0  0
    1.0046    2.1589    0.9477 H   0  0  0  0  0  0  0  0  0  0  0  0
    0.0136    1.5206    3.6414 H   0  0  0  0  0  0  0  0  0  0  0  0
    2.0341    2.8897    4.0609 H   0  0  0  0  0  0  0  0  0  0  0  0
    2.3292    2.7812    2.3080 H   0  0  0  0  0  0  0  0  0  0  0  0
    3.5082    1.0683    3.5905 H   0  0  0  0  0  0  0  0  0  0  0  0
    2.0434    0.6474    4.4538 H   0  0  0  0  0  0  0  0  0  0  0  0
    1.8344   -1.0770    3.0026 H   0  0  0  0  0  0  0  0  0  0  0  0
    4.2007    1.5164    1.6898 H   0  0  0  0  0  0  0  0  0  0  0  0
    6.1514    0.8859    0.4983 H   0  0  0  0  0  0  0  0  0  0  0  0
    7.6412   -3.1538   -1.3001 H   0  0  0  0  0  0  0  0  0  0  0  0
    8.7378   -2.2138   -0.3117 H   0  0  0  0  0  0  0  0  0  0  0  0
    7.4004   -1.5360   -2.9688 H   0  0  0  0  0  0  0  0  0  0  0  0
    9.0811   -1.9249   -2.6045 H   0  0  0  0  0  0  0  0  0  0  0  0
   11.5423    1.1909    1.2128 H   0  0  0  0  0  0  0  0  0  0  0  0
   14.4662    1.5942   -1.1713 H   0  0  0  0  0  0  0  0  0  0  0  0
   13.7375    2.5099    0.2234 H   0  0  0  0  0  0  0  0  0  0  0  0
   14.1986    0.7759    0.3767 H   0  0  0  0  0  0  0  0  0  0  0  0
   12.9458    0.9809   -2.7771 H   0  0  0  0  0  0  0  0  0  0  0  0
    4.8049   -3.1936    0.3367 H   0  0  0  0  0  0  0  0  0  0  0  0
    2.7523   -2.5218    1.5525 H   0  0  0  0  0  0  0  0  0  0  0  0
   -1.0566   -3.2758    1.8270 H   0  0  0  0  0  0  0  0  0  0  0  0
   -1.4602   -4.7345   -0.2181 H   0  0  0  0  0  0  0  0  0  0  0  0
   -1.6983   -3.2493   -1.2999 H   0  0  0  0  0  0  0  0  0  0  0  0
   -3.6479   -2.6158    0.1530 H   0  0  0  0  0  0  0  0  0  0  0  0
   -3.3048   -4.0119    1.2675 H   0  0  0  0  0  0  0  0  0  0  0  0
   -2.7589    1.1680    0.9911 H   0  0  0  0  0  0  0  0  0  0  0  0
   -6.3497    3.4022    1.7553 H   0  0  0  0  0  0  0  0  0  0  0  0
   -6.6657    3.2346    0.0252 H   0  0  0  0  0  0  0  0  0  0  0  0
   -7.8177    0.9849    0.5182 H   0  0  0  0  0  0  0  0  0  0  0  0
   -8.5041    2.4196    1.2629 H   0  0  0  0  0  0  0  0  0  0  0  0
   -8.1879    1.7870    4.5326 H   0  0  0  0  0  0  0  0  0  0  0  0
   -6.5205    2.2079    4.1157 H   0  0  0  0  0  0  0  0  0  0  0  0
   -7.9562    3.1211    3.3691 H   0  0  0  0  0  0  0  0  0  0  0  0
   -9.7555    1.0978    2.6323 H   0  0  0  0  0  0  0  0  0  0  0  0
   -8.9642   -0.3006    1.8354 H   0  0  0  0  0  0  0  0  0  0  0  0
   -8.9814   -0.1766    3.6719 H   0  0  0  0  0  0  0  0  0  0  0  0
   -4.5985   -0.1680    3.5090 H   0  0  0  0  0  0  0  0  0  0  0  0
   -6.3919    0.9216   -1.2422 H   0  0  0  0  0  0  0  0  0  0  0  0
  1  2  1  0
  2  3  1  0
  3  4  1  0
  4  5  1  0
  5  6  1  0
  6  7  2  0
  7  8  1  0
  8  9  1  0
  9 10  1  0
 10 11  1  0
 11 12  2  0
 11 13  1  0
 13 14  1  0
 14 15  1  0
 15 16  1  0
 16 17  1  0
 17 18  1  0
 18 19  1  0
 19 20  2  0
 20 21  1  0
 21 22  2  0
 22 23  1  0
 23 24  1  0
 24 25  1  0
 25 26  1  0
 26 27  1  0
 27 28  2  0
 28 29  1  0
 28 30  1  0
 30 31  2  0
 31 32  1  0
 31 33  1  0
 33 34  2  0
 34 35  1  0
 22 36  1  0
 36 37  2  0
 10 38  1  0
 38 39  1  0
 39 40  1  0
  8 41  2  0
 41 42  1  0
 42 43  1  0
 43 44  1  0
 44 45  1  0
 45 46  1  0
 46 47  1  0
 46 48  1  0
 46 49  1  0
 49 50  2  0
 49 51  1  0
 42 52  2  0
 52  6  1  0
 18 13  1  0
 37 19  1  0
 40 38  1  0
 34 27  1  0
  1 53  1  0
  1 54  1  0
  1 55  1  0
  3 56  1  0
  3 57  1  0
  4 58  1  0
  4 59  1  0
  5 60  1  0
  5 61  1  0
  7 62  1  0
  9 63  1  0
  9 64  1  0
 13 65  1  6
 14 66  1  0
 14 67  1  0
 15 68  1  0
 16 69  1  0
 16 70  1  0
 17 71  1  0
 17 72  1  0
 18 73  1  1
 20 74  1  0
 21 75  1  0
 24 76  1  0
 24 77  1  0
 25 78  1  0
 25 79  1  0
 30 80  1  0
 32 81  1  0
 32 82  1  0
 32 83  1  0
 33 84  1  0
 36 85  1  0
 37 86  1  0
 38 87  1  0
 39 88  1  0
 39 89  1  0
 40 90  1  0
 40 91  1  0
 41 92  1  0
 44 93  1  0
 44 94  1  0
 45 95  1  0
 45 96  1  0
 47 97  1  0
 47 98  1  0
 47 99  1  0
 48100  1  0
 48101  1  0
 48102  1  0
 51103  1  0
 52104  1  0
M  END
$$$$
