
     RDKit          3D

 29 31  0  0  0  0  0  0  0  0999 V2000
   -0.5115    2.4305    0.9308 N   0  0  0  0  0  0  0  0  0  0  0  0
   -0.3624    1.3754    0.4188 C   0  0  0  0  0  0  0  0  0  0  0  0
   -0.1896    0.0960   -0.1809 C   0  0  0  0  0  0  0  0  0  0  0  0
   -1.2586   -0.6568   -0.3602 C   0  0  0  0  0  0  0  0  0  0  0  0
   -2.5794   -0.2484    0.0171 C   0  0  0  0  0  0  0  0  0  0  0  0
   -3.3920   -1.1772    0.6753 C   0  0  0  0  0  0  0  0  0  0  0  0
   -4.6666   -0.8642    1.0460 C   0  0  0  0  0  0  0  0  0  0  0  0
   -5.1565    0.3807    0.7678 C   0  0  0  0  0  0  0  0  0  0  0  0
   -4.3690    1.2737    0.1319 N   0  0  0  0  0  0  0  0  0  0  0  0
   -3.1020    0.9934   -0.2480 C   0  0  0  0  0  0  0  0  0  0  0  0
    1.1046   -0.4194   -0.6037 C   0  0  0  0  0  0  0  0  0  0  0  0
    1.3441   -1.6648   -1.1989 C   0  0  0  0  0  0  0  0  0  0  0  0
    2.6344   -1.8063   -1.4542 N   0  0  0  0  0  0  0  0  0  0  0  0
    3.2743   -0.7088   -1.0551 C   0  0  0  0  0  0  0  0  0  0  0  0
    4.5870   -0.4342   -1.1261 N   0  0  0  0  0  0  0  0  0  0  0  0
    5.0299    0.7377   -0.6647 C   0  0  0  0  0  0  0  0  0  0  0  0
    4.1645    1.6484   -0.1268 C   0  0  0  0  0  0  0  0  0  0  0  0
    2.8003    1.3830   -0.0436 C   0  0  0  0  0  0  0  0  0  0  0  0
    2.3398    0.1668   -0.5229 C   0  0  0  0  0  0  0  0  0  0  0  0
   -1.1199   -1.6494   -0.8244 H   0  0  0  0  0  0  0  0  0  0  0  0
   -3.0127   -2.1750    0.9030 H   0  0  0  0  0  0  0  0  0  0  0  0
   -5.2829   -1.6113    1.5613 H   0  0  0  0  0  0  0  0  0  0  0  0
   -6.1583    0.6733    1.0418 H   0  0  0  0  0  0  0  0  0  0  0  0
   -2.5445    1.7615   -0.7619 H   0  0  0  0  0  0  0  0  0  0  0  0
    0.6047   -2.4243   -1.4303 H   0  0  0  0  0  0  0  0  0  0  0  0
    3.0622   -2.6506   -1.8994 H   0  0  0  0  0  0  0  0  0  0  0  0
    6.1121    0.9085   -0.7496 H   0  0  0  0  0  0  0  0  0  0  0  0
    4.5430    2.5896    0.2391 H   0  0  0  0  0  0  0  0  0  0  0  0
    2.1052    2.0725    0.3705 H   0  0  0  0  0  0  0  0  0  0  0  0
  1  2  3  0
  2  3  1  0
  3  4  2  0
  4  5  1  0
  5  6  2  0
  6  7  1  0
  7  8  2  0
  8  9  1  0
  9 10  2  0
  3 11  1  0
 11 12  2  0
 12 13  1  0
 13 14  1  0
 14 15  2  0
 15 16  1  0
 16 17  2  0
 17 18  1  0
 18 19  2  0
 10  5  1  0
 19 11  1  0
 19 14  1  0
  4 20  1  0
  6 21  1  0
  7 22  1  0
  8 23  1  0
 10 24  1  0
 12 25  1  0
 13 26  1  0
 16 27  1  0
 17 28  1  0
 18 29  1  0
M  END
$$$$
