
     RDKit          3D

 50 52  0  0  0  0  0  0  0  0999 V2000
   -1.5152   -3.1181    0.9657 C   0  0  0  0  0  0  0  0  0  0  0  0
   -0.5992   -2.1103    0.3172 C   0  0  0  0  0  0  0  0  0  0  0  0
    0.7276   -2.1038    0.3778 N   0  0  0  0  0  0  0  0  0  0  0  0
    1.2653   -1.0572   -0.3153 C   0  0  0  0  0  0  0  0  0  0  0  0
    2.7066   -0.8651   -0.4387 C   0  0  0  0  0  0  0  0  0  0  0  0
    3.3732    0.1860   -0.0067 C   0  0  0  0  0  0  0  0  0  0  0  0
    2.8137    1.3390    0.6743 C   0  0  0  0  0  0  0  0  0  0  0  0
    1.6217    1.5244    0.9925 O   0  0  0  0  0  0  0  0  0  0  0  0
    3.9335    2.2178    0.9049 N   0  0  0  0  0  0  0  0  0  0  0  0
    5.1254    1.6373    0.3937 C   0  0  0  0  0  0  0  0  0  0  0  0
    6.4337    2.0946    0.3796 C   0  0  0  0  0  0  0  0  0  0  0  0
    7.4435    1.3261   -0.1913 C   0  0  0  0  0  0  0  0  0  0  0  0
    7.1493    0.0947   -0.7518 C   0  0  0  0  0  0  0  0  0  0  0  0
    8.1704   -0.6232   -1.2996 F   0  0  0  0  0  0  0  0  0  0  0  0
    5.8513   -0.3280   -0.7224 C   0  0  0  0  0  0  0  0  0  0  0  0
    4.8288    0.4119   -0.1634 C   0  0  0  0  0  0  0  0  0  0  0  0
    0.2092   -0.3818   -0.8334 C   0  0  0  0  0  0  0  0  0  0  0  0
    0.3006    0.8238   -1.7099 C   0  0  0  0  0  0  0  0  0  0  0  0
   -0.9673   -1.0262   -0.4469 C   0  0  0  0  0  0  0  0  0  0  0  0
   -2.2696   -0.6139   -0.7939 N   0  0  0  0  0  0  0  0  0  0  0  0
   -3.0278    0.2905    0.0023 C   0  0  0  0  0  0  0  0  0  0  0  0
   -2.5480    0.7608    1.0647 O   0  0  0  0  0  0  0  0  0  0  0  0
   -4.3884    0.6851   -0.4146 C   0  0  1  0  0  0  0  0  0  0  0  0
   -5.2484   -0.5608   -0.4299 C   0  0  0  0  0  0  0  0  0  0  0  0
   -6.5555   -0.1046    0.1461 C   0  0  0  0  0  0  0  0  0  0  0  0
   -6.1591    1.0124    1.0619 C   0  0  0  0  0  0  0  0  0  0  0  0
   -4.9670    1.5967    0.5236 N   0  0  0  0  0  0  0  0  0  0  0  0
    0.6878    0.0000    0.0000 Cl  0  0  0  0  0  0  0  0  0  0  0  0
   -1.1239   -4.1260    0.6642 H   0  0  0  0  0  0  0  0  0  0  0  0
   -2.5215   -3.0182    0.5282 H   0  0  0  0  0  0  0  0  0  0  0  0
   -1.4749   -3.0655    2.0542 H   0  0  0  0  0  0  0  0  0  0  0  0
    1.3091   -2.8079    0.8904 H   0  0  0  0  0  0  0  0  0  0  0  0
    3.3201   -1.6428   -0.9279 H   0  0  0  0  0  0  0  0  0  0  0  0
    3.8379    3.1451    1.3856 H   0  0  0  0  0  0  0  0  0  0  0  0
    6.6698    3.0600    0.8181 H   0  0  0  0  0  0  0  0  0  0  0  0
    8.4785    1.6794   -0.2066 H   0  0  0  0  0  0  0  0  0  0  0  0
    5.5960   -1.2858   -1.1534 H   0  0  0  0  0  0  0  0  0  0  0  0
   -0.0295    1.7463   -1.1936 H   0  0  0  0  0  0  0  0  0  0  0  0
   -0.3882    0.7111   -2.5937 H   0  0  0  0  0  0  0  0  0  0  0  0
    1.3450    0.9719   -2.0353 H   0  0  0  0  0  0  0  0  0  0  0  0
   -2.6704   -1.0096   -1.6858 H   0  0  0  0  0  0  0  0  0  0  0  0
   -4.3744    1.1547   -1.4377 H   0  0  0  0  0  0  0  0  0  0  0  0
   -4.7932   -1.3551    0.1939 H   0  0  0  0  0  0  0  0  0  0  0  0
   -5.3519   -0.9233   -1.4685 H   0  0  0  0  0  0  0  0  0  0  0  0
   -7.0553   -0.9126    0.7497 H   0  0  0  0  0  0  0  0  0  0  0  0
   -7.2148    0.2597   -0.6633 H   0  0  0  0  0  0  0  0  0  0  0  0
   -6.9458    1.8140    1.0558 H   0  0  0  0  0  0  0  0  0  0  0  0
   -6.0616    0.6879    2.1204 H   0  0  0  0  0  0  0  0  0  0  0  0
   -4.2594    1.8087    1.2760 H   0  0  0  0  0  0  0  0  0  0  0  0
   -0.6878    0.0000    0.0000 H   0  0  0  0  0  0  0  0  0  0  0  0
  1  2  1  0
  2  3  1  0
  3  4  1  0
  4  5  1  0
  5  6  2  0
  6  7  1  0
  7  8  2  0
  7  9  1  0
  9 10  1  0
 10 11  2  0
 11 12  1  0
 12 13  2  0
 13 14  1  0
 13 15  1  0
 15 16  2  0
  4 17  2  0
 17 18  1  0
 17 19  1  0
 19 20  1  0
 20 21  1  0
 21 22  2  0
 21 23  1  0
 23 24  1  0
 24 25  1  0
 25 26  1  0
 26 27  1  0
 19  2  2  0
 27 23  1  0
 16  6  1  0
 16 10  1  0
  1 29  1  0
  1 30  1  0
  1 31  1  0
  3 32  1  0
  5 33  1  0
  9 34  1  0
 11 35  1  0
 12 36  1  0
 15 37  1  0
 18 38  1  0
 18 39  1  0
 18 40  1  0
 20 41  1  0
 23 42  1  6
 24 43  1  0
 24 44  1  0
 25 45  1  0
 25 46  1  0
 26 47  1  0
 26 48  1  0
 27 49  1  0
 28 50  1  0
M  END
$$$$
