
     RDKit          3D

 28 27  0  0  0  0  0  0  0  0999 V2000
    1.4227   -0.2160    1.2383 C   0  0  2  0  0  0  0  0  0  0  0  0
    1.2977    1.0207    1.8291 O   0  0  0  0  0  0  0  0  0  0  0  0
    2.4539   -0.3145    0.2031 C   0  0  0  0  0  0  0  0  0  0  0  0
    2.4365   -1.5148   -0.2358 O   0  0  0  0  0  0  0  0  0  0  0  0
    3.3867    0.6216   -0.3441 N   0  0  0  0  0  0  0  0  0  0  0  0
    4.1230   -0.0173   -1.2991 O   0  0  0  0  0  0  0  0  0  0  0  0
    0.0369   -0.6281    0.7823 C   0  0  1  0  0  0  0  0  0  0  0  0
   -0.4690    0.3774   -0.1878 C   0  0  0  0  0  0  0  0  0  0  0  0
   -1.8399    0.0920   -0.7239 C   0  0  0  0  0  0  0  0  0  0  0  0
   -2.9042    0.0253    0.3157 C   0  0  0  0  0  0  0  0  0  0  0  0
   -2.2288    1.1890   -1.6907 C   0  0  0  0  0  0  0  0  0  0  0  0
   -0.0260   -2.0304    0.3509 C   0  0  0  0  0  0  0  0  0  0  0  0
   -0.3279   -2.5634   -0.7255 O   0  0  0  0  0  0  0  0  0  0  0  0
    1.6862   -0.9341    2.0619 H   0  0  0  0  0  0  0  0  0  0  0  0
    2.0910    1.5856    1.8171 H   0  0  0  0  0  0  0  0  0  0  0  0
    3.2540    1.5522    0.1377 H   0  0  0  0  0  0  0  0  0  0  0  0
    4.8027   -0.6024   -0.8951 H   0  0  0  0  0  0  0  0  0  0  0  0
   -0.5818   -0.5379    1.7035 H   0  0  0  0  0  0  0  0  0  0  0  0
   -0.5358    1.3472    0.3587 H   0  0  0  0  0  0  0  0  0  0  0  0
    0.2188    0.5748   -1.0349 H   0  0  0  0  0  0  0  0  0  0  0  0
   -1.7767   -0.8354   -1.3407 H   0  0  0  0  0  0  0  0  0  0  0  0
   -3.8535    0.5134   -0.0286 H   0  0  0  0  0  0  0  0  0  0  0  0
   -2.6261    0.6085    1.2239 H   0  0  0  0  0  0  0  0  0  0  0  0
   -3.2158   -1.0138    0.5708 H   0  0  0  0  0  0  0  0  0  0  0  0
   -3.0903    0.8667   -2.3334 H   0  0  0  0  0  0  0  0  0  0  0  0
   -2.6007    2.0353   -1.0920 H   0  0  0  0  0  0  0  0  0  0  0  0
   -1.3759    1.5500   -2.2911 H   0  0  0  0  0  0  0  0  0  0  0  0
    0.2423   -2.7517    1.1156 H   0  0  0  0  0  0  0  0  0  0  0  0
  1  2  1  0
  1  3  1  0
  3  4  2  0
  3  5  1  0
  5  6  1  0
  1  7  1  0
  7  8  1  0
  8  9  1  0
  9 10  1  0
  9 11  1  0
  7 12  1  0
 12 13  2  0
  1 14  1  1
  2 15  1  0
  5 16  1  0
  6 17  1  0
  7 18  1  1
  8 19  1  0
  8 20  1  0
  9 21  1  0
 10 22  1  0
 10 23  1  0
 10 24  1  0
 11 25  1  0
 11 26  1  0
 11 27  1  0
 12 28  1  0
M  END
$$$$
