
     RDKit          3D

 68 72  0  0  0  0  0  0  0  0999 V2000
   -2.7443   -2.9649    4.2483 C   0  0  0  0  0  0  0  0  0  0  0  0
   -1.9320   -2.3481    3.0970 C   0  0  0  0  0  0  0  0  0  0  0  0
   -1.8019   -3.3814    2.0354 C   0  0  0  0  0  0  0  0  0  0  0  0
   -1.0240   -2.9616    0.8160 C   0  0  0  0  0  0  0  0  0  0  0  0
   -1.6733   -1.8157    0.1314 C   0  0  0  0  0  0  0  0  0  0  0  0
   -2.7717   -1.1556    0.5378 N   0  0  0  0  0  0  0  0  0  0  0  0
   -3.1045   -0.1935   -0.2942 N   0  0  0  0  0  0  0  0  0  0  0  0
   -4.2064    0.7126   -0.1926 C   0  0  0  0  0  0  0  0  0  0  0  0
   -4.1094    1.8984    0.5070 C   0  0  0  0  0  0  0  0  0  0  0  0
   -2.5731    2.2742    1.2824 Cl  0  0  0  0  0  0  0  0  0  0  0  0
   -5.1867    2.7675    0.5971 C   0  0  0  0  0  0  0  0  0  0  0  0
   -6.3951    2.4861   -0.0050 C   0  0  0  0  0  0  0  0  0  0  0  0
   -7.7625    3.5924    0.1108 Cl  0  0  0  0  0  0  0  0  0  0  0  0
   -6.4954    1.3023   -0.7047 C   0  0  0  0  0  0  0  0  0  0  0  0
   -5.4202    0.4423   -0.7905 C   0  0  0  0  0  0  0  0  0  0  0  0
   -5.5737   -1.0619   -1.6888 Cl  0  0  0  0  0  0  0  0  0  0  0  0
   -2.1743   -0.2230   -1.3021 C   0  0  0  0  0  0  0  0  0  0  0  0
   -2.2313    0.7040   -2.4102 C   0  0  0  0  0  0  0  0  0  0  0  0
   -3.1304    1.5936   -2.5079 O   0  0  0  0  0  0  0  0  0  0  0  0
   -1.3057    0.6539   -3.4070 O   0  0  0  0  0  0  0  0  0  0  0  0
   -1.2831    1.5164   -4.5264 C   0  0  0  0  0  0  0  0  0  0  0  0
   -1.1411    2.9369   -4.0320 C   0  0  0  0  0  0  0  0  0  0  0  0
   -1.2566   -1.2297   -1.0706 C   0  0  0  0  0  0  0  0  0  0  0  0
   -0.0983   -1.5913   -1.9252 C   0  0  0  0  0  0  0  0  0  0  0  0
    1.2029   -1.1196   -1.3985 C   0  0  0  0  0  0  0  0  0  0  0  0
    2.0498   -1.9802   -0.7295 C   0  0  0  0  0  0  0  0  0  0  0  0
    3.2682   -1.5729   -0.2257 C   0  0  0  0  0  0  0  0  0  0  0  0
    3.7120   -0.2743   -0.3627 C   0  0  0  0  0  0  0  0  0  0  0  0
    5.0168    0.1335    0.1744 C   0  0  0  0  0  0  0  0  0  0  0  0
    6.1823   -0.3231   -0.4176 C   0  0  0  0  0  0  0  0  0  0  0  0
    7.4511    0.0032   -0.0016 C   0  0  0  0  0  0  0  0  0  0  0  0
    7.5447    0.8480    1.0863 C   0  0  0  0  0  0  0  0  0  0  0  0
    6.4144    1.3299    1.7110 C   0  0  0  0  0  0  0  0  0  0  0  0
    5.1356    0.9757    1.2595 C   0  0  0  0  0  0  0  0  0  0  0  0
    3.9490    1.4811    1.9309 C   0  0  0  0  0  0  0  0  0  0  0  0
    2.6640    1.2396    1.6645 N   0  0  0  0  0  0  0  0  0  0  0  0
    1.9084    1.9121    2.5427 N   0  0  0  0  0  0  0  0  0  0  0  0
    2.7040    2.5758    3.3610 N   0  0  0  0  0  0  0  0  0  0  0  0
    3.9531    2.3106    2.9846 N   0  0  0  0  0  0  0  0  0  0  0  0
    2.8754    0.5936   -1.0285 C   0  0  0  0  0  0  0  0  0  0  0  0
    1.6377    0.1807   -1.5405 C   0  0  0  0  0  0  0  0  0  0  0  0
   -3.7155   -3.3078    3.8144 H   0  0  0  0  0  0  0  0  0  0  0  0
   -2.2372   -3.8330    4.6811 H   0  0  0  0  0  0  0  0  0  0  0  0
   -2.9861   -2.1989    4.9990 H   0  0  0  0  0  0  0  0  0  0  0  0
   -2.4931   -1.4425    2.8139 H   0  0  0  0  0  0  0  0  0  0  0  0
   -0.9598   -2.0155    3.5115 H   0  0  0  0  0  0  0  0  0  0  0  0
   -1.3476   -4.2835    2.5017 H   0  0  0  0  0  0  0  0  0  0  0  0
   -2.8233   -3.7111    1.6909 H   0  0  0  0  0  0  0  0  0  0  0  0
    0.0341   -2.7103    1.1046 H   0  0  0  0  0  0  0  0  0  0  0  0
   -1.0162   -3.8258    0.1268 H   0  0  0  0  0  0  0  0  0  0  0  0
   -5.0931    3.6957    1.1512 H   0  0  0  0  0  0  0  0  0  0  0  0
   -7.4611    1.0879   -1.1800 H   0  0  0  0  0  0  0  0  0  0  0  0
   -2.1977    1.3819   -5.1525 H   0  0  0  0  0  0  0  0  0  0  0  0
   -0.3956    1.2912   -5.1513 H   0  0  0  0  0  0  0  0  0  0  0  0
   -1.2277    2.9764   -2.9264 H   0  0  0  0  0  0  0  0  0  0  0  0
   -0.1540    3.3754   -4.3109 H   0  0  0  0  0  0  0  0  0  0  0  0
   -1.9290    3.6006   -4.4325 H   0  0  0  0  0  0  0  0  0  0  0  0
   -0.2539   -1.3223   -2.9841 H   0  0  0  0  0  0  0  0  0  0  0  0
   -0.1055   -2.7301   -1.9476 H   0  0  0  0  0  0  0  0  0  0  0  0
    1.7027   -3.0029   -0.6204 H   0  0  0  0  0  0  0  0  0  0  0  0
    3.9188   -2.2735    0.2988 H   0  0  0  0  0  0  0  0  0  0  0  0
    6.0570   -0.9828   -1.2671 H   0  0  0  0  0  0  0  0  0  0  0  0
    8.3407   -0.3831   -0.5025 H   0  0  0  0  0  0  0  0  0  0  0  0
    8.5458    1.1188    1.4316 H   0  0  0  0  0  0  0  0  0  0  0  0
    6.5092    1.9834    2.5523 H   0  0  0  0  0  0  0  0  0  0  0  0
    4.7759    2.7189    3.4772 H   0  0  0  0  0  0  0  0  0  0  0  0
    3.2070    1.6288   -1.1490 H   0  0  0  0  0  0  0  0  0  0  0  0
    1.0303    0.8967   -2.0472 H   0  0  0  0  0  0  0  0  0  0  0  0
  1  2  1  0
  2  3  1  0
  3  4  1  0
  4  5  1  0
  5  6  2  0
  6  7  1  0
  7  8  1  0
  8  9  2  0
  9 10  1  0
  9 11  1  0
 11 12  2  0
 12 13  1  0
 12 14  1  0
 14 15  2  0
 15 16  1  0
  7 17  1  0
 17 18  1  0
 18 19  2  0
 18 20  1  0
 20 21  1  0
 21 22  1  0
 17 23  2  0
 23 24  1  0
 24 25  1  0
 25 26  2  0
 26 27  1  0
 27 28  2  0
 28 29  1  0
 29 30  2  0
 30 31  1  0
 31 32  2  0
 32 33  1  0
 33 34  2  0
 34 35  1  0
 35 36  2  0
 36 37  1  0
 37 38  2  0
 38 39  1  0
 28 40  1  0
 40 41  2  0
 23  5  1  0
 41 25  1  0
 15  8  1  0
 34 29  1  0
 39 35  1  0
  1 42  1  0
  1 43  1  0
  1 44  1  0
  2 45  1  0
  2 46  1  0
  3 47  1  0
  3 48  1  0
  4 49  1  0
  4 50  1  0
 11 51  1  0
 14 52  1  0
 21 53  1  0
 21 54  1  0
 22 55  1  0
 22 56  1  0
 22 57  1  0
 24 58  1  0
 24 59  1  0
 26 60  1  0
 27 61  1  0
 30 62  1  0
 31 63  1  0
 32 64  1  0
 33 65  1  0
 39 66  1  0
 40 67  1  0
 41 68  1  0
M  END
$$$$
