
     RDKit          3D

 44 46  0  0  0  0  0  0  0  0999 V2000
   -5.0007   -2.4275    1.4963 N   0  0  0  0  0  0  0  0  0  0  0  0
   -4.2723   -1.4531    0.7628 C   0  0  0  0  0  0  0  0  0  0  0  0
   -3.0185   -1.2801    0.8589 N   0  0  0  0  0  0  0  0  0  0  0  0
   -2.2574   -0.2866    0.1146 C   0  0  2  0  0  0  0  0  0  0  0  0
   -1.8586   -0.9066   -1.1974 C   0  0  0  0  0  0  0  0  0  0  0  0
   -1.1385   -0.0563   -2.0157 F   0  0  0  0  0  0  0  0  0  0  0  0
   -1.0656   -0.0340    0.9260 C   0  0  0  0  0  0  0  0  0  0  0  0
    0.1926   -0.2863    0.4408 C   0  0  0  0  0  0  0  0  0  0  0  0
    1.3434   -0.0620    1.2013 C   0  0  0  0  0  0  0  0  0  0  0  0
    2.6354   -0.3306    0.6756 N   0  0  0  0  0  0  0  0  0  0  0  0
    3.4112    0.6127   -0.0259 C   0  0  0  0  0  0  0  0  0  0  0  0
    2.9551    1.7662   -0.2100 O   0  0  0  0  0  0  0  0  0  0  0  0
    4.7330    0.3039   -0.5518 C   0  0  0  0  0  0  0  0  0  0  0  0
    5.4650    1.2516   -1.2323 C   0  0  0  0  0  0  0  0  0  0  0  0
    6.7293    0.9817   -1.7438 C   0  0  0  0  0  0  0  0  0  0  0  0
    7.2906   -0.2679   -1.5775 C   0  0  0  0  0  0  0  0  0  0  0  0
    8.8872   -0.6601   -2.2053 Cl  0  0  0  0  0  0  0  0  0  0  0  0
    6.5262   -1.1948   -0.8888 C   0  0  0  0  0  0  0  0  0  0  0  0
    5.3033   -0.9075   -0.4031 N   0  0  0  0  0  0  0  0  0  0  0  0
    1.1524    0.4292    2.4746 C   0  0  0  0  0  0  0  0  0  0  0  0
   -0.1178    0.6857    2.9702 C   0  0  0  0  0  0  0  0  0  0  0  0
   -1.2415    0.4628    2.2168 C   0  0  0  0  0  0  0  0  0  0  0  0
   -2.5000    0.7143    2.7005 F   0  0  0  0  0  0  0  0  0  0  0  0
   -3.0599    0.9422   -0.1964 C   0  0  0  0  0  0  0  0  0  0  0  0
   -4.5309    0.7337   -0.3077 C   0  0  1  0  0  0  0  0  0  0  0  0
   -5.1052    1.2022   -1.6328 C   0  0  0  0  0  0  0  0  0  0  0  0
   -4.5412    0.5381   -2.6974 F   0  0  0  0  0  0  0  0  0  0  0  0
   -4.8547    2.5745   -1.7261 F   0  0  0  0  0  0  0  0  0  0  0  0
   -6.4669    0.9665   -1.6161 F   0  0  0  0  0  0  0  0  0  0  0  0
   -4.9409   -0.6067   -0.1364 O   0  0  0  0  0  0  0  0  0  0  0  0
   -4.5262   -3.3169    1.7917 H   0  0  0  0  0  0  0  0  0  0  0  0
   -6.0010   -2.3262    1.7734 H   0  0  0  0  0  0  0  0  0  0  0  0
   -2.7747   -1.2682   -1.7502 H   0  0  0  0  0  0  0  0  0  0  0  0
   -1.2073   -1.8063   -1.0563 H   0  0  0  0  0  0  0  0  0  0  0  0
    0.4031   -0.6796   -0.5512 H   0  0  0  0  0  0  0  0  0  0  0  0
    3.0825   -1.2894    0.7961 H   0  0  0  0  0  0  0  0  0  0  0  0
    5.0250    2.2323   -1.3629 H   0  0  0  0  0  0  0  0  0  0  0  0
    7.3089    1.7253   -2.2801 H   0  0  0  0  0  0  0  0  0  0  0  0
    6.9602   -2.1773   -0.7545 H   0  0  0  0  0  0  0  0  0  0  0  0
    2.0136    0.6174    3.0977 H   0  0  0  0  0  0  0  0  0  0  0  0
   -0.2465    1.0780    3.9908 H   0  0  0  0  0  0  0  0  0  0  0  0
   -2.8888    1.7700    0.5317 H   0  0  0  0  0  0  0  0  0  0  0  0
   -2.7059    1.3629   -1.1766 H   0  0  0  0  0  0  0  0  0  0  0  0
   -5.0969    1.3194    0.4764 H   0  0  0  0  0  0  0  0  0  0  0  0
  1  2  1  0
  2  3  2  0
  3  4  1  0
  4  5  1  6
  5  6  1  0
  4  7  1  0
  7  8  2  0
  8  9  1  0
  9 10  1  0
 10 11  1  0
 11 12  2  0
 11 13  1  0
 13 14  2  0
 14 15  1  0
 15 16  2  0
 16 17  1  0
 16 18  1  0
 18 19  2  0
  9 20  2  0
 20 21  1  0
 21 22  2  0
 22 23  1  0
  4 24  1  0
 24 25  1  0
 25 26  1  0
 26 27  1  0
 26 28  1  0
 26 29  1  0
 25 30  1  0
 30  2  1  0
 22  7  1  0
 19 13  1  0
  1 31  1  0
  1 32  1  0
  5 33  1  0
  5 34  1  0
  8 35  1  0
 10 36  1  0
 14 37  1  0
 15 38  1  0
 18 39  1  0
 20 40  1  0
 21 41  1  0
 24 42  1  0
 24 43  1  0
 25 44  1  1
M  END
$$$$
