
     RDKit          3D

 46 48  0  0  0  0  0  0  0  0999 V2000
    5.4123   -0.3663    2.1183 C   0  0  0  0  0  0  0  0  0  0  0  0
    3.8003    0.2690    2.4088 S   0  0  0  0  0  6  0  0  0  0  0  0
    3.3653   -0.0761    3.8028 O   0  0  0  0  0  0  0  0  0  0  0  0
    3.9064    1.7897    2.3643 O   0  0  0  0  0  0  0  0  0  0  0  0
    2.6300   -0.1992    1.3035 N   0  0  0  0  0  0  0  0  0  0  0  0
    2.3059   -1.5426    1.1487 C   0  0  0  0  0  0  0  0  0  0  0  0
    0.8210   -1.6797    1.1943 C   0  0  0  0  0  0  0  0  0  0  0  0
    0.2594   -0.3167    0.9062 C   0  0  2  0  0  0  0  0  0  0  0  0
   -0.2011   -0.0964   -0.4396 N   0  0  0  0  0  0  0  0  0  0  0  0
   -0.6223   -1.1719   -1.2713 C   0  0  0  0  0  0  0  0  0  0  0  0
   -1.9518   -1.7272   -0.9640 C   0  0  0  0  0  0  0  0  0  0  0  0
   -3.0344   -1.0708   -1.5691 C   0  0  0  0  0  0  0  0  0  0  0  0
   -4.3412   -1.4688   -1.3961 C   0  0  0  0  0  0  0  0  0  0  0  0
   -4.6297   -2.5576   -0.5980 C   0  0  0  0  0  0  0  0  0  0  0  0
   -3.5980   -3.2126    0.0010 C   0  0  0  0  0  0  0  0  0  0  0  0
   -2.2701   -2.7939   -0.1862 C   0  0  0  0  0  0  0  0  0  0  0  0
   -0.4009    1.2405   -0.8780 C   0  0  0  0  0  0  0  0  0  0  0  0
   -0.5798    1.5470   -2.1983 C   0  0  0  0  0  0  0  0  0  0  0  0
   -0.8719    2.8217   -2.6819 C   0  0  0  0  0  0  0  0  0  0  0  0
   -0.9904    3.8443   -1.7917 C   0  0  0  0  0  0  0  0  0  0  0  0
   -1.2883    5.1653   -2.2621 C   0  0  0  0  0  0  0  0  0  0  0  0
   -1.5157    6.2352   -2.6548 N   0  0  0  0  0  0  0  0  0  0  0  0
   -0.8190    3.5892   -0.4382 C   0  0  0  0  0  0  0  0  0  0  0  0
   -0.9826    4.9446    0.6642 Cl  0  0  0  0  0  0  0  0  0  0  0  0
   -0.5322    2.3186    0.0053 C   0  0  0  0  0  0  0  0  0  0  0  0
    1.4476    0.5966    1.2308 C   0  0  0  0  0  0  0  0  0  0  0  0
    5.5522   -1.3668    2.5863 H   0  0  0  0  0  0  0  0  0  0  0  0
    5.6856   -0.4524    1.0644 H   0  0  0  0  0  0  0  0  0  0  0  0
    6.1963    0.2928    2.5928 H   0  0  0  0  0  0  0  0  0  0  0  0
    2.6435   -1.8763    0.1206 H   0  0  0  0  0  0  0  0  0  0  0  0
    2.8309   -2.2544    1.8228 H   0  0  0  0  0  0  0  0  0  0  0  0
    0.5267   -2.4771    0.5225 H   0  0  0  0  0  0  0  0  0  0  0  0
    0.5292   -1.9883    2.2534 H   0  0  0  0  0  0  0  0  0  0  0  0
   -0.5934   -0.0554    1.5746 H   0  0  0  0  0  0  0  0  0  0  0  0
   -0.6586   -0.9276   -2.3751 H   0  0  0  0  0  0  0  0  0  0  0  0
    0.0828   -2.0568   -1.2688 H   0  0  0  0  0  0  0  0  0  0  0  0
   -2.8769   -0.2022   -2.2121 H   0  0  0  0  0  0  0  0  0  0  0  0
   -5.1394   -0.9224   -1.8896 H   0  0  0  0  0  0  0  0  0  0  0  0
   -5.6780   -2.8343   -0.4911 H   0  0  0  0  0  0  0  0  0  0  0  0
   -3.8227   -4.0646    0.6263 H   0  0  0  0  0  0  0  0  0  0  0  0
   -1.5061   -3.3630    0.3109 H   0  0  0  0  0  0  0  0  0  0  0  0
   -0.4947    0.8043   -2.9996 H   0  0  0  0  0  0  0  0  0  0  0  0
   -1.0048    3.0115   -3.7349 H   0  0  0  0  0  0  0  0  0  0  0  0
   -0.4436    2.1656    1.0797 H   0  0  0  0  0  0  0  0  0  0  0  0
    1.2740    1.1358    2.1789 H   0  0  0  0  0  0  0  0  0  0  0  0
    1.5786    1.3497    0.4192 H   0  0  0  0  0  0  0  0  0  0  0  0
  1  2  1  0
  2  3  2  0
  2  4  2  0
  2  5  1  0
  5  6  1  0
  6  7  1  0
  7  8  1  0
  8  9  1  0
  9 10  1  0
 10 11  1  0
 11 12  2  0
 12 13  1  0
 13 14  2  0
 14 15  1  0
 15 16  2  0
  9 17  1  0
 17 18  2  0
 18 19  1  0
 19 20  2  0
 20 21  1  0
 21 22  3  0
 20 23  1  0
 23 24  1  0
 23 25  2  0
  8 26  1  0
 26  5  1  0
 16 11  1  0
 25 17  1  0
  1 27  1  0
  1 28  1  0
  1 29  1  0
  6 30  1  0
  6 31  1  0
  7 32  1  0
  7 33  1  0
  8 34  1  1
 10 35  1  0
 10 36  1  0
 12 37  1  0
 13 38  1  0
 14 39  1  0
 15 40  1  0
 16 41  1  0
 18 42  1  0
 19 43  1  0
 25 44  1  0
 26 45  1  0
 26 46  1  0
M  END
$$$$
