
     RDKit          3D

 37 40  0  0  0  0  0  0  0  0999 V2000
   -0.3628   -0.7296    0.3798 C   0  0  0  0  0  0  0  0  0  0  0  0
   -1.3160   -0.9683   -0.7638 C   0  0  1  0  0  0  0  0  0  0  0  0
   -0.6576   -1.2004   -2.0832 C   0  0  0  0  0  0  0  0  0  0  0  0
    0.3714    0.1251   -2.6876 S   0  0  0  0  0  0  0  0  0  0  0  0
    1.8349    0.4167   -1.7424 C   0  0  0  0  0  0  0  0  0  0  0  0
    1.9267    1.2574   -0.6988 N   0  0  0  0  0  0  0  0  0  0  0  0
    3.1717    1.2361   -0.2171 C   0  0  0  0  0  0  0  0  0  0  0  0
    3.7526    1.9105    0.8268 C   0  0  0  0  0  0  0  0  0  0  0  0
    5.1041    1.7031    1.1291 C   0  0  0  0  0  0  0  0  0  0  0  0
    5.7836    0.8150    0.3432 C   0  0  0  0  0  0  0  0  0  0  0  0
    5.2105    0.1261   -0.7151 C   0  0  0  0  0  0  0  0  0  0  0  0
    3.8657    0.3454   -1.0003 C   0  0  0  0  0  0  0  0  0  0  0  0
    3.0388   -0.1237   -1.8987 O   0  0  0  0  0  0  0  0  0  0  0  0
   -2.2094   -2.5460   -0.4009 S   0  0  0  0  0  0  0  0  0  0  0  0
   -3.3364   -1.7111    0.7357 C   0  0  2  0  0  0  0  0  0  0  0  0
   -4.7954   -1.8495    0.5260 C   0  0  2  0  0  0  0  0  0  0  0  0
   -5.3288   -2.2822   -1.2750 Br  0  0  0  0  0  0  0  0  0  0  0  0
   -4.7246   -0.3838    0.7520 C   0  0  0  0  0  0  0  0  0  0  0  0
   -5.4254    0.4777    1.3054 O   0  0  0  0  0  0  0  0  0  0  0  0
   -3.5045   -0.4065    0.0568 N   0  0  0  0  0  0  0  0  0  0  0  0
   -2.4532   -0.0308   -0.7842 C   0  0  1  0  0  0  0  0  0  0  0  0
   -2.0477    1.3729   -0.4093 C   0  0  0  0  0  0  0  0  0  0  0  0
   -1.1241    1.9363   -1.0381 O   0  0  0  0  0  0  0  0  0  0  0  0
   -2.6545    2.0810    0.6106 O   0  0  0  0  0  0  0  0  0  0  0  0
    0.6563   -1.0629    0.1898 H   0  0  0  0  0  0  0  0  0  0  0  0
   -0.3604    0.3505    0.6168 H   0  0  0  0  0  0  0  0  0  0  0  0
   -0.7329   -1.2642    1.3044 H   0  0  0  0  0  0  0  0  0  0  0  0
   -1.4241   -1.5311   -2.7928 H   0  0  0  0  0  0  0  0  0  0  0  0
    0.0206   -2.0952   -1.9338 H   0  0  0  0  0  0  0  0  0  0  0  0
    3.1594    2.5969    1.4073 H   0  0  0  0  0  0  0  0  0  0  0  0
    5.5776    2.2288    1.9502 H   0  0  0  0  0  0  0  0  0  0  0  0
    6.8370    0.6381    0.5615 H   0  0  0  0  0  0  0  0  0  0  0  0
    5.7817   -0.5642   -1.3086 H   0  0  0  0  0  0  0  0  0  0  0  0
   -3.0290   -1.6288    1.7755 H   0  0  0  0  0  0  0  0  0  0  0  0
   -5.2960   -2.4226    1.3232 H   0  0  0  0  0  0  0  0  0  0  0  0
   -2.7473    0.0775   -1.8757 H   0  0  0  0  0  0  0  0  0  0  0  0
   -2.5624    3.1059    0.6268 H   0  0  0  0  0  0  0  0  0  0  0  0
  2  1  1  1
  2  3  1  0
  3  4  1  0
  4  5  1  0
  5  6  2  0
  6  7  1  0
  7  8  2  0
  8  9  1  0
  9 10  2  0
 10 11  1  0
 11 12  2  0
 12 13  1  0
  2 14  1  0
 14 15  1  0
 15 16  1  0
 16 17  1  0
 16 18  1  0
 18 19  2  0
 18 20  1  0
 20 21  1  0
 21 22  1  0
 22 23  2  0
 22 24  1  0
 21  2  1  0
 13  5  1  0
 20 15  1  0
 12  7  1  0
  1 25  1  0
  1 26  1  0
  1 27  1  0
  3 28  1  0
  3 29  1  0
  8 30  1  0
  9 31  1  0
 10 32  1  0
 11 33  1  0
 15 34  1  1
 16 35  1  1
 21 36  1  6
 24 37  1  0
M  END
$$$$
