
     RDKit          3D

 47 49  0  0  0  0  0  0  0  0999 V2000
   -2.4045   -3.3482    2.3793 C   0  0  0  0  0  0  0  0  0  0  0  0
   -1.3198   -2.4936    1.8321 C   0  0  0  0  0  0  0  0  0  0  0  0
   -1.5918   -1.3949    1.0536 C   0  0  0  0  0  0  0  0  0  0  0  0
   -2.9457   -1.1133    0.7768 N   0  0  0  0  0  0  0  0  0  0  0  0
   -3.6527   -0.1647    0.0052 C   0  0  0  0  0  0  0  0  0  0  0  0
   -4.8740    0.4108    0.3290 C   0  0  0  0  0  0  0  0  0  0  0  0
   -5.4795    1.3038   -0.5020 C   0  0  0  0  0  0  0  0  0  0  0  0
   -4.9403    1.6996   -1.7057 C   0  0  0  0  0  0  0  0  0  0  0  0
   -3.7425    1.1418   -2.0354 N   0  0  0  0  0  0  0  0  0  0  0  0
   -3.1440    0.2543   -1.2064 C   0  0  0  0  0  0  0  0  0  0  0  0
   -6.7658    1.8526   -0.0668 C   0  0  0  0  0  0  0  0  0  0  0  0
   -7.4857    2.7792   -0.8346 N   0  0  0  0  0  0  0  0  0  0  0  0
   -7.2548    1.4865    1.0370 O   0  0  0  0  0  0  0  0  0  0  0  0
   -0.4986   -0.6920    0.6130 C   0  0  0  0  0  0  0  0  0  0  0  0
    0.8158   -0.9991    0.8859 C   0  0  0  0  0  0  0  0  0  0  0  0
    1.0314   -2.0994    1.6627 C   0  0  0  0  0  0  0  0  0  0  0  0
   -0.0286   -2.8417    2.1328 C   0  0  0  0  0  0  0  0  0  0  0  0
    1.8860   -0.1716    0.3568 C   0  0  0  0  0  0  0  0  0  0  0  0
    1.6035    0.8280   -0.3526 O   0  0  0  0  0  0  0  0  0  0  0  0
    3.2491   -0.4670    0.6233 N   0  0  0  0  0  0  0  0  0  0  0  0
    4.3538    0.2887    0.1458 C   0  0  0  0  0  0  0  0  0  0  0  0
    4.7672    1.3179    0.9735 C   0  0  0  0  0  0  0  0  0  0  0  0
    5.8377    2.1212    0.6064 C   0  0  0  0  0  0  0  0  0  0  0  0
    6.5038    1.9030   -0.5903 C   0  0  0  0  0  0  0  0  0  0  0  0
    6.0826    0.8704   -1.4121 C   0  0  0  0  0  0  0  0  0  0  0  0
    5.0118    0.0605   -1.0533 C   0  0  0  0  0  0  0  0  0  0  0  0
    6.7555    0.5841   -2.7097 C   0  0  0  0  0  0  0  0  0  0  0  0
    7.3708   -0.6589   -2.5496 F   0  0  0  0  0  0  0  0  0  0  0  0
    7.7014    1.5636   -2.9361 F   0  0  0  0  0  0  0  0  0  0  0  0
    5.8782    0.6038   -3.7665 F   0  0  0  0  0  0  0  0  0  0  0  0
   -2.0186   -4.2343    2.8916 H   0  0  0  0  0  0  0  0  0  0  0  0
   -3.0710   -3.6426    1.5287 H   0  0  0  0  0  0  0  0  0  0  0  0
   -2.9573   -2.7352    3.1287 H   0  0  0  0  0  0  0  0  0  0  0  0
   -3.6907   -1.7246    1.2200 H   0  0  0  0  0  0  0  0  0  0  0  0
   -5.3144    0.1129    1.2706 H   0  0  0  0  0  0  0  0  0  0  0  0
   -5.4838    2.4022   -2.2896 H   0  0  0  0  0  0  0  0  0  0  0  0
   -2.2340   -0.0575   -1.6699 H   0  0  0  0  0  0  0  0  0  0  0  0
   -7.3970    3.8171   -0.7589 H   0  0  0  0  0  0  0  0  0  0  0  0
   -8.1618    2.3913   -1.5350 H   0  0  0  0  0  0  0  0  0  0  0  0
   -0.6646    0.1860    0.0090 H   0  0  0  0  0  0  0  0  0  0  0  0
    2.0315   -2.4123    1.9255 H   0  0  0  0  0  0  0  0  0  0  0  0
    0.1717   -3.7170    2.7523 H   0  0  0  0  0  0  0  0  0  0  0  0
    3.5481   -1.2751    1.1999 H   0  0  0  0  0  0  0  0  0  0  0  0
    4.2990    1.5539    1.9261 H   0  0  0  0  0  0  0  0  0  0  0  0
    6.2324    2.9517    1.1917 H   0  0  0  0  0  0  0  0  0  0  0  0
    7.3471    2.5253   -0.8936 H   0  0  0  0  0  0  0  0  0  0  0  0
    4.6431   -0.7674   -1.6703 H   0  0  0  0  0  0  0  0  0  0  0  0
  1  2  1  0
  2  3  2  0
  3  4  1  0
  4  5  1  0
  5  6  2  0
  6  7  1  0
  7  8  2  0
  8  9  1  0
  9 10  2  0
  7 11  1  0
 11 12  1  0
 11 13  2  0
  3 14  1  0
 14 15  2  0
 15 16  1  0
 16 17  2  0
 15 18  1  0
 18 19  2  0
 18 20  1  0
 20 21  1  0
 21 22  2  0
 22 23  1  0
 23 24  2  0
 24 25  1  0
 25 26  2  0
 25 27  1  0
 27 28  1  0
 27 29  1  0
 27 30  1  0
 17  2  1  0
 26 21  1  0
 10  5  1  0
  1 31  1  0
  1 32  1  0
  1 33  1  0
  4 34  1  0
  6 35  1  0
  8 36  1  0
 10 37  1  0
 12 38  1  0
 12 39  1  0
 14 40  1  0
 16 41  1  0
 17 42  1  0
 20 43  1  0
 22 44  1  0
 23 45  1  0
 24 46  1  0
 26 47  1  0
M  END
$$$$
