
     RDKit          3D

 56 60  0  0  0  0  0  0  0  0999 V2000
    4.3280    1.4723    1.6981 C   0  0  0  0  0  0  0  0  0  0  0  0
    3.4967    1.4165    0.5986 O   0  0  0  0  0  0  0  0  0  0  0  0
    4.1304    1.7361   -0.5678 C   0  0  0  0  0  0  0  0  0  0  0  0
    3.1873    1.6616   -1.7343 C   0  0  0  0  0  0  0  0  0  0  0  0
    2.5905    0.3933   -1.9508 N   0  0  0  0  0  0  0  0  0  0  0  0
    3.2649   -0.5928   -2.6137 C   0  0  0  0  0  0  0  0  0  0  0  0
    2.4887   -1.7265   -2.6553 C   0  0  0  0  0  0  0  0  0  0  0  0
    2.8050   -3.0378   -3.2664 C   0  0  0  0  0  0  0  0  0  0  0  0
    1.3057   -1.3983   -1.9907 C   0  0  0  0  0  0  0  0  0  0  0  0
    1.3976   -0.0861   -1.5683 C   0  0  0  0  0  0  0  0  0  0  0  0
    0.1439    0.2507   -0.8919 C   0  0  0  0  0  0  0  0  0  0  0  0
    0.3856    0.8305    0.4422 C   0  0  0  0  0  0  0  0  0  0  0  0
    0.6269    0.0170    1.5438 C   0  0  0  0  0  0  0  0  0  0  0  0
    0.8611    0.5705    2.7813 C   0  0  0  0  0  0  0  0  0  0  0  0
    0.8610    1.9372    2.9514 C   0  0  0  0  0  0  0  0  0  0  0  0
    1.1552    2.6808    4.5113 Cl  0  0  0  0  0  0  0  0  0  0  0  0
    0.6233    2.7477    1.8673 C   0  0  0  0  0  0  0  0  0  0  0  0
    0.3903    2.1931    0.6358 C   0  0  0  0  0  0  0  0  0  0  0  0
   -0.7062   -0.8941   -0.9054 N   0  0  0  0  0  0  0  0  0  0  0  0
   -2.0116   -1.0292   -0.3535 C   0  0  0  0  0  0  0  0  0  0  0  0
   -2.7038   -2.2103   -0.3447 C   0  0  0  0  0  0  0  0  0  0  0  0
   -3.9946   -2.3330    0.1883 C   0  0  0  0  0  0  0  0  0  0  0  0
   -4.7179   -3.6304    0.1816 C   0  0  0  0  0  0  0  0  0  0  0  0
   -4.5411   -1.1884    0.7113 C   0  0  0  0  0  0  0  0  0  0  0  0
   -5.7342   -0.9792    1.2844 N   0  0  0  0  0  0  0  0  0  0  0  0
   -5.8521    0.2902    1.6513 N   0  0  0  0  0  0  0  0  0  0  0  0
   -4.7070    0.8827    1.2984 C   0  0  0  0  0  0  0  0  0  0  0  0
   -4.4257    2.3243    1.5337 C   0  0  0  0  0  0  0  0  0  0  0  0
   -3.8910   -0.0188    0.7180 N   0  0  0  0  0  0  0  0  0  0  0  0
   -2.6529    0.0728    0.2000 C   0  0  0  0  0  0  0  0  0  0  0  0
    0.0008   -1.9194   -1.5846 C   0  0  0  0  0  0  0  0  0  0  0  0
   -0.3237   -3.1129   -1.8575 O   0  0  0  0  0  0  0  0  0  0  0  0
    4.7673    2.4857    1.8602 H   0  0  0  0  0  0  0  0  0  0  0  0
    5.1012    0.6780    1.6359 H   0  0  0  0  0  0  0  0  0  0  0  0
    3.7133    1.2617    2.6005 H   0  0  0  0  0  0  0  0  0  0  0  0
    4.9189    0.9414   -0.7252 H   0  0  0  0  0  0  0  0  0  0  0  0
    4.6589    2.7176   -0.5224 H   0  0  0  0  0  0  0  0  0  0  0  0
    3.7597    1.9516   -2.6609 H   0  0  0  0  0  0  0  0  0  0  0  0
    2.4530    2.4836   -1.5854 H   0  0  0  0  0  0  0  0  0  0  0  0
    4.2623   -0.5156   -3.0495 H   0  0  0  0  0  0  0  0  0  0  0  0
    3.8170   -2.9574   -3.7237 H   0  0  0  0  0  0  0  0  0  0  0  0
    2.1071   -3.2400   -4.1244 H   0  0  0  0  0  0  0  0  0  0  0  0
    2.8382   -3.8641   -2.5430 H   0  0  0  0  0  0  0  0  0  0  0  0
   -0.4185    1.0492   -1.4720 H   0  0  0  0  0  0  0  0  0  0  0  0
    0.6307   -1.0369    1.4317 H   0  0  0  0  0  0  0  0  0  0  0  0
    1.0534   -0.0208    3.6664 H   0  0  0  0  0  0  0  0  0  0  0  0
    0.6274    3.8403    2.0239 H   0  0  0  0  0  0  0  0  0  0  0  0
    0.2069    2.8477   -0.1970 H   0  0  0  0  0  0  0  0  0  0  0  0
   -2.2725   -3.1191   -0.7565 H   0  0  0  0  0  0  0  0  0  0  0  0
   -5.4390   -3.5959    1.0459 H   0  0  0  0  0  0  0  0  0  0  0  0
   -4.0371   -4.4874    0.2802 H   0  0  0  0  0  0  0  0  0  0  0  0
   -5.3598   -3.7318   -0.7349 H   0  0  0  0  0  0  0  0  0  0  0  0
   -4.4903    2.4715    2.6395 H   0  0  0  0  0  0  0  0  0  0  0  0
   -3.3857    2.5498    1.2140 H   0  0  0  0  0  0  0  0  0  0  0  0
   -5.1629    2.9451    0.9843 H   0  0  0  0  0  0  0  0  0  0  0  0
   -2.1308    1.0254    0.2004 H   0  0  0  0  0  0  0  0  0  0  0  0
  1  2  1  0
  2  3  1  0
  3  4  1  0
  4  5  1  0
  5  6  1  0
  6  7  2  0
  7  8  1  0
  7  9  1  0
  9 10  2  0
 10 11  1  0
 11 12  1  0
 12 13  2  0
 13 14  1  0
 14 15  2  0
 15 16  1  0
 15 17  1  0
 17 18  2  0
 11 19  1  0
 19 20  1  0
 20 21  1  0
 21 22  2  0
 22 23  1  0
 22 24  1  0
 24 25  2  0
 25 26  1  0
 26 27  2  0
 27 28  1  0
 27 29  1  0
 29 30  1  0
 19 31  1  0
 31 32  2  0
 10  5  1  0
 18 12  1  0
 30 20  2  0
 31  9  1  0
 29 24  1  0
  1 33  1  0
  1 34  1  0
  1 35  1  0
  3 36  1  0
  3 37  1  0
  4 38  1  0
  4 39  1  0
  6 40  1  0
  8 41  1  0
  8 42  1  0
  8 43  1  0
 11 44  1  0
 13 45  1  0
 14 46  1  0
 17 47  1  0
 18 48  1  0
 21 49  1  0
 23 50  1  0
 23 51  1  0
 23 52  1  0
 28 53  1  0
 28 54  1  0
 28 55  1  0
 30 56  1  0
M  END
$$$$
