
     RDKit          3D

 46 47  0  0  0  0  0  0  0  0999 V2000
   -5.9295   -0.4872    0.6755 C   0  0  2  0  0  0  0  0  0  0  0  0
   -5.2972   -1.7032    0.0447 C   0  0  0  0  0  0  0  0  0  0  0  0
   -6.0101    0.6059   -0.3375 C   0  0  0  0  0  0  0  0  0  0  0  0
   -6.6536    1.8102    0.3393 C   0  0  0  0  0  0  0  0  0  0  0  0
   -5.2067   -0.0652    1.8608 N   0  0  0  0  0  0  0  0  0  0  0  0
   -3.8438    0.2147    1.4387 C   0  0  0  0  0  0  0  0  0  0  0  0
   -3.2084    1.0627    1.0222 N   0  0  0  0  0  0  0  0  0  0  0  0
   -1.9273    1.0803    0.7025 C   0  0  0  0  0  0  0  0  0  0  0  0
   -1.2601   -0.0897    0.8986 C   0  0  0  0  0  0  0  0  0  0  0  0
   -2.5248   -1.1796    1.5441 S   0  0  0  0  0  0  0  0  0  0  0  0
    0.1206   -0.5528    0.7014 C   0  0  0  0  0  0  0  0  0  0  0  0
    0.3404   -1.7370    1.0124 O   0  0  0  0  0  0  0  0  0  0  0  0
    1.0189    0.3939    0.1867 N   0  0  0  0  0  0  0  0  0  0  0  0
    2.4003    0.1645   -0.0867 C   0  0  0  0  0  0  0  0  0  0  0  0
    2.5273   -0.3048   -1.3992 C   0  0  0  0  0  0  0  0  0  0  0  0
    1.4193   -0.5426   -2.3771 C   0  0  0  0  0  0  0  0  0  0  0  0
    3.7813   -0.6071   -1.9239 C   0  0  0  0  0  0  0  0  0  0  0  0
    4.9061   -0.4403   -1.1378 C   0  0  0  0  0  0  0  0  0  0  0  0
    4.7621    0.0197    0.1432 C   0  0  0  0  0  0  0  0  0  0  0  0
    3.5315    0.3245    0.6813 C   0  0  0  0  0  0  0  0  0  0  0  0
    5.8843    0.2255    1.0449 C   0  0  0  0  0  0  0  0  0  0  0  0
    5.8182    0.6584    2.2317 O   0  0  0  0  0  0  0  0  0  0  0  0
    7.1958   -0.0561    0.6430 N   0  0  0  0  0  0  0  0  0  0  0  0
    8.3973    0.0988    1.4230 C   0  0  0  0  0  0  0  0  0  0  0  0
   -6.9445   -0.7764    0.9908 H   0  0  0  0  0  0  0  0  0  0  0  0
   -4.2569   -1.4981   -0.2960 H   0  0  0  0  0  0  0  0  0  0  0  0
   -5.8582   -1.9464   -0.8730 H   0  0  0  0  0  0  0  0  0  0  0  0
   -5.3064   -2.5926    0.6955 H   0  0  0  0  0  0  0  0  0  0  0  0
   -6.5927    0.2401   -1.1964 H   0  0  0  0  0  0  0  0  0  0  0  0
   -5.0017    0.8750   -0.7291 H   0  0  0  0  0  0  0  0  0  0  0  0
   -5.8560    2.4915    0.6745 H   0  0  0  0  0  0  0  0  0  0  0  0
   -7.1917    1.4937    1.2743 H   0  0  0  0  0  0  0  0  0  0  0  0
   -7.3662    2.2436   -0.3844 H   0  0  0  0  0  0  0  0  0  0  0  0
   -5.6111    0.0141    2.8251 H   0  0  0  0  0  0  0  0  0  0  0  0
   -1.3654    1.9399    0.3007 H   0  0  0  0  0  0  0  0  0  0  0  0
    0.7940    1.3619   -0.0551 H   0  0  0  0  0  0  0  0  0  0  0  0
    0.4699   -0.5382   -1.8314 H   0  0  0  0  0  0  0  0  0  0  0  0
    1.3896    0.2959   -3.0993 H   0  0  0  0  0  0  0  0  0  0  0  0
    1.6091   -1.4666   -2.9469 H   0  0  0  0  0  0  0  0  0  0  0  0
    3.9463   -0.9751   -2.9343 H   0  0  0  0  0  0  0  0  0  0  0  0
    5.8735   -0.6711   -1.5374 H   0  0  0  0  0  0  0  0  0  0  0  0
    3.2738    0.6907    1.6629 H   0  0  0  0  0  0  0  0  0  0  0  0
    7.4589   -0.4191   -0.2906 H   0  0  0  0  0  0  0  0  0  0  0  0
    8.2135    0.3675    2.4767 H   0  0  0  0  0  0  0  0  0  0  0  0
    9.0762    0.8298    0.9035 H   0  0  0  0  0  0  0  0  0  0  0  0
    9.0043   -0.8533    1.4613 H   0  0  0  0  0  0  0  0  0  0  0  0
  1  2  1  0
  1  3  1  0
  3  4  1  0
  1  5  1  0
  5  6  1  0
  6  7  2  0
  7  8  1  0
  8  9  2  0
  9 10  1  0
  9 11  1  0
 11 12  2  0
 11 13  1  0
 13 14  1  0
 14 15  2  0
 15 16  1  0
 15 17  1  0
 17 18  2  0
 18 19  1  0
 19 20  2  0
 19 21  1  0
 21 22  2  0
 21 23  1  0
 23 24  1  0
 10  6  1  0
 20 14  1  0
  1 25  1  1
  2 26  1  0
  2 27  1  0
  2 28  1  0
  3 29  1  0
  3 30  1  0
  4 31  1  0
  4 32  1  0
  4 33  1  0
  5 34  1  0
  8 35  1  0
 13 36  1  0
 16 37  1  0
 16 38  1  0
 16 39  1  0
 17 40  1  0
 18 41  1  0
 20 42  1  0
 23 43  1  0
 24 44  1  0
 24 45  1  0
 24 46  1  0
M  END
$$$$
