
     RDKit          3D

 25 26  0  0  0  0  0  0  0  0999 V2000
    2.0418   -0.0610   -1.6811 O   0  0  0  0  0  0  0  0  0  0  0  0
    2.5584   -0.1895   -0.5335 C   0  0  0  0  0  0  0  0  0  0  0  0
    1.7221   -0.2564    0.5879 N   0  0  0  0  0  0  0  0  0  0  0  0
    0.3092   -0.1820    0.4517 C   0  0  0  0  0  0  0  0  0  0  0  0
   -0.4250   -1.3417    0.2758 C   0  0  0  0  0  0  0  0  0  0  0  0
   -1.7949   -1.3370    0.1379 C   0  0  0  0  0  0  0  0  0  0  0  0
   -2.5835   -2.5876   -0.0515 C   0  0  0  0  0  0  0  0  0  0  0  0
   -1.8113   -3.5061   -0.7216 F   0  0  0  0  0  0  0  0  0  0  0  0
   -2.9830   -3.0365    1.1937 F   0  0  0  0  0  0  0  0  0  0  0  0
   -3.6908   -2.2609   -0.7944 F   0  0  0  0  0  0  0  0  0  0  0  0
   -2.4546   -0.1358    0.1767 C   0  0  0  0  0  0  0  0  0  0  0  0
   -1.7808    1.0563    0.3493 C   0  0  0  0  0  0  0  0  0  0  0  0
   -0.4122    0.9916    0.4819 C   0  0  0  0  0  0  0  0  0  0  0  0
    0.6762    2.3807    0.7137 S   0  0  0  0  0  0  0  0  0  0  0  0
    0.7935    3.5419   -1.0535 S   0  0  0  0  0  0  0  0  0  0  0  0
   -0.9398    4.7583   -1.3082 S   0  0  0  0  0  0  0  0  0  0  0  0
   -2.6532    3.5287   -1.4537 S   0  0  0  0  0  0  0  0  0  0  0  0
   -2.8929    2.4705    0.3612 S   0  0  0  0  0  0  0  0  0  0  0  0
    4.0308   -0.2690   -0.3705 C   0  0  0  0  0  0  0  0  0  0  0  0
    4.6786   -0.1847   -1.5895 F   0  0  0  0  0  0  0  0  0  0  0  0
    4.3979   -1.4228    0.2709 F   0  0  0  0  0  0  0  0  0  0  0  0
    4.4796    0.7894    0.3927 F   0  0  0  0  0  0  0  0  0  0  0  0
    2.1820   -0.3644    1.5401 H   0  0  0  0  0  0  0  0  0  0  0  0
    0.0833   -2.3131    0.2419 H   0  0  0  0  0  0  0  0  0  0  0  0
   -3.5313   -0.0687    0.0738 H   0  0  0  0  0  0  0  0  0  0  0  0
  1  2  2  0
  2  3  1  0
  3  4  1  0
  4  5  2  0
  5  6  1  0
  6  7  1  0
  7  8  1  0
  7  9  1  0
  7 10  1  0
  6 11  2  0
 11 12  1  0
 12 13  2  0
 13 14  1  0
 14 15  1  0
 15 16  1  0
 16 17  1  0
 17 18  1  0
  2 19  1  0
 19 20  1  0
 19 21  1  0
 19 22  1  0
 13  4  1  0
 18 12  1  0
  3 23  1  0
  5 24  1  0
 11 25  1  0
M  END
$$$$
