
     RDKit          3D

 54 58  0  0  0  0  0  0  0  0999 V2000
   -7.4888   -0.9475    1.1450 N   0  0  0  0  0  0  0  0  0  0  0  0
   -6.3021   -0.1969    1.0171 C   0  0  0  0  0  0  0  0  0  0  0  0
   -6.1749    0.6843    0.0904 N   0  0  0  0  0  0  0  0  0  0  0  0
   -4.9779    1.4506   -0.0501 C   0  0  1  0  0  0  0  0  0  0  0  0
   -3.9821    0.6947   -0.8857 C   0  0  0  0  0  0  0  0  0  0  0  0
   -2.7577    0.3927   -0.3630 C   0  0  0  0  0  0  0  0  0  0  0  0
   -1.7529   -0.2932   -1.0698 C   0  0  0  0  0  0  0  0  0  0  0  0
   -0.5395   -0.5522   -0.4091 N   0  0  0  0  0  0  0  0  0  0  0  0
    0.5821   -1.1325   -0.9997 C   0  0  0  0  0  0  0  0  0  0  0  0
    0.6246   -1.4793   -2.1922 O   0  0  0  0  0  0  0  0  0  0  0  0
    1.8086   -1.3665   -0.2058 C   0  0  0  0  0  0  0  0  0  0  0  0
    2.9385   -1.9111   -0.7672 C   0  0  0  0  0  0  0  0  0  0  0  0
    4.0687   -2.1281   -0.0443 N   0  0  0  0  0  0  0  0  0  0  0  0
    4.1065   -1.8122    1.2475 C   0  0  0  0  0  0  0  0  0  0  0  0
    5.2294   -2.0120    2.0324 O   0  0  0  0  0  0  0  0  0  0  0  0
    6.4286   -2.5693    1.4953 C   0  0  0  0  0  0  0  0  0  0  0  0
    6.8553   -1.6162    0.4423 C   0  0  0  0  0  0  0  0  0  0  0  0
    7.2171   -0.8251   -0.4293 C   0  0  0  0  0  0  0  0  0  0  0  0
    7.6663    0.0959   -1.4579 C   0  0  0  0  0  0  0  0  0  0  0  0
    7.9265    1.5142   -1.1054 C   0  0  0  0  0  0  0  0  0  0  0  0
    9.1096    0.6337   -1.3661 C   0  0  0  0  0  0  0  0  0  0  0  0
    2.9739   -1.2583    1.8419 C   0  0  0  0  0  0  0  0  0  0  0  0
    1.8729   -1.0561    1.1009 N   0  0  0  0  0  0  0  0  0  0  0  0
   -2.0468   -0.6657   -2.3498 C   0  0  0  0  0  0  0  0  0  0  0  0
   -3.2929   -0.3736   -2.9211 C   0  0  0  0  0  0  0  0  0  0  0  0
   -4.2369    0.3017   -2.1757 C   0  0  0  0  0  0  0  0  0  0  0  0
   -5.4393    0.5692   -2.7427 F   0  0  0  0  0  0  0  0  0  0  0  0
   -5.3488    2.7575   -0.7610 C   0  0  0  0  0  0  0  0  0  0  0  0
   -4.1996    3.4907   -0.9003 F   0  0  0  0  0  0  0  0  0  0  0  0
   -6.1775    3.4522    0.1130 F   0  0  0  0  0  0  0  0  0  0  0  0
   -4.3137    1.8284    1.2553 C   0  0  1  0  0  0  0  0  0  0  0  0
   -5.0657    2.0811    2.4828 C   0  0  0  0  0  0  0  0  0  0  0  0
   -4.3893    0.7482    2.2322 C   0  0  1  0  0  0  0  0  0  0  0  0
   -5.2012   -0.3447    1.8615 O   0  0  0  0  0  0  0  0  0  0  0  0
   -8.3022   -0.5355    1.6229 H   0  0  0  0  0  0  0  0  0  0  0  0
   -7.5402   -1.9011    0.7622 H   0  0  0  0  0  0  0  0  0  0  0  0
   -2.5197    0.6818    0.6396 H   0  0  0  0  0  0  0  0  0  0  0  0
   -0.4292   -0.3017    0.6245 H   0  0  0  0  0  0  0  0  0  0  0  0
    2.9404   -2.1758   -1.8013 H   0  0  0  0  0  0  0  0  0  0  0  0
    6.1628   -3.5454    1.0576 H   0  0  0  0  0  0  0  0  0  0  0  0
    7.1956   -2.6957    2.2603 H   0  0  0  0  0  0  0  0  0  0  0  0
    7.2563   -0.1091   -2.4708 H   0  0  0  0  0  0  0  0  0  0  0  0
    7.7240    1.8656   -0.0769 H   0  0  0  0  0  0  0  0  0  0  0  0
    7.7636    2.2946   -1.8785 H   0  0  0  0  0  0  0  0  0  0  0  0
    9.6903    0.2333   -0.5064 H   0  0  0  0  0  0  0  0  0  0  0  0
    9.6409    0.6776   -2.3269 H   0  0  0  0  0  0  0  0  0  0  0  0
    3.0338   -1.0112    2.8980 H   0  0  0  0  0  0  0  0  0  0  0  0
   -1.3454   -1.1925   -2.9574 H   0  0  0  0  0  0  0  0  0  0  0  0
   -3.4511   -0.6996   -3.9314 H   0  0  0  0  0  0  0  0  0  0  0  0
   -5.8512    2.5225   -1.6938 H   0  0  0  0  0  0  0  0  0  0  0  0
   -3.4100    2.4480    1.1035 H   0  0  0  0  0  0  0  0  0  0  0  0
   -6.1660    2.1177    2.4507 H   0  0  0  0  0  0  0  0  0  0  0  0
   -4.6084    2.6970    3.2629 H   0  0  0  0  0  0  0  0  0  0  0  0
   -3.5054    0.4751    2.8163 H   0  0  0  0  0  0  0  0  0  0  0  0
  1  2  1  0
  2  3  2  0
  3  4  1  0
  4  5  1  0
  5  6  2  0
  6  7  1  0
  7  8  1  0
  8  9  1  0
  9 10  2  0
  9 11  1  0
 11 12  2  0
 12 13  1  0
 13 14  2  0
 14 15  1  0
 15 16  1  0
 16 17  1  0
 17 18  3  0
 18 19  1  0
 19 20  1  0
 20 21  1  0
 14 22  1  0
 22 23  2  0
  7 24  2  0
 24 25  1  0
 25 26  2  0
 26 27  1  0
  4 28  1  6
 28 29  1  0
 28 30  1  0
  4 31  1  0
 31 32  1  0
 32 33  1  0
 33 34  1  0
 34  2  1  0
 26  5  1  0
 33 31  1  0
 23 11  1  0
 21 19  1  0
  1 35  1  0
  1 36  1  0
  6 37  1  0
  8 38  1  0
 12 39  1  0
 16 40  1  0
 16 41  1  0
 19 42  1  0
 20 43  1  0
 20 44  1  0
 21 45  1  0
 21 46  1  0
 22 47  1  0
 24 48  1  0
 25 49  1  0
 28 50  1  0
 31 51  1  6
 32 52  1  0
 32 53  1  0
 33 54  1  1
M  END
$$$$
