
     RDKit          3D

 46 49  0  0  0  0  0  0  0  0999 V2000
   -5.9786    0.3973    1.0960 C   0  0  0  0  0  0  0  0  0  0  0  0
   -4.6302    0.4268    1.8196 C   0  0  0  0  0  0  0  0  0  0  0  0
   -3.5142    0.5864    0.8492 C   0  0  0  0  0  0  0  0  0  0  0  0
   -3.3010    1.8568    0.3076 C   0  0  0  0  0  0  0  0  0  0  0  0
   -4.1134    2.9171    0.6740 O   0  0  0  0  0  0  0  0  0  0  0  0
   -2.2682    2.0300   -0.5961 C   0  0  0  0  0  0  0  0  0  0  0  0
   -1.4766    0.9546   -0.9414 C   0  0  0  0  0  0  0  0  0  0  0  0
   -0.4276    1.0724   -1.8436 O   0  0  0  0  0  0  0  0  0  0  0  0
   -1.6922   -0.2984   -0.4025 C   0  0  0  0  0  0  0  0  0  0  0  0
   -2.7225   -0.4847    0.5028 C   0  0  0  0  0  0  0  0  0  0  0  0
   -0.9199   -1.5030   -0.6938 C   0  0  0  0  0  0  0  0  0  0  0  0
    0.4050   -1.8200   -0.4776 C   0  0  0  0  0  0  0  0  0  0  0  0
    0.6387   -3.1080   -0.9430 C   0  0  0  0  0  0  0  0  0  0  0  0
    1.9512   -3.7994   -0.8812 C   0  0  0  0  0  0  0  0  0  0  0  0
   -0.5227   -3.5763   -1.4377 N   0  0  0  0  0  0  0  0  0  0  0  0
   -1.4402   -2.6091   -1.2821 N   0  0  0  0  0  0  0  0  0  0  0  0
    1.3552   -0.9066    0.1457 C   0  0  0  0  0  0  0  0  0  0  0  0
    1.2685   -0.3929    1.4444 C   0  0  0  0  0  0  0  0  0  0  0  0
    2.2687    0.4618    1.8687 C   0  0  0  0  0  0  0  0  0  0  0  0
    3.3461    0.8402    1.0937 C   0  0  0  0  0  0  0  0  0  0  0  0
    4.2846    1.7081    1.6420 O   0  0  0  0  0  0  0  0  0  0  0  0
    5.3266    2.1958    0.8185 C   0  0  0  0  0  0  0  0  0  0  0  0
    5.6949    1.2205   -0.2761 C   0  0  0  0  0  0  0  0  0  0  0  0
    4.5236    0.7429   -0.9127 O   0  0  0  0  0  0  0  0  0  0  0  0
    3.4256    0.3235   -0.2003 C   0  0  0  0  0  0  0  0  0  0  0  0
    2.4313   -0.5307   -0.6327 C   0  0  0  0  0  0  0  0  0  0  0  0
   -6.6528    1.2037    1.4111 H   0  0  0  0  0  0  0  0  0  0  0  0
   -5.7624    0.4511    0.0019 H   0  0  0  0  0  0  0  0  0  0  0  0
   -6.4492   -0.6112    1.2434 H   0  0  0  0  0  0  0  0  0  0  0  0
   -4.6564    1.3210    2.4714 H   0  0  0  0  0  0  0  0  0  0  0  0
   -4.5452   -0.4589    2.4576 H   0  0  0  0  0  0  0  0  0  0  0  0
   -3.7909    3.8557    0.8092 H   0  0  0  0  0  0  0  0  0  0  0  0
   -2.0950    3.0085   -1.0197 H   0  0  0  0  0  0  0  0  0  0  0  0
   -0.5146    1.6878   -2.6662 H   0  0  0  0  0  0  0  0  0  0  0  0
   -2.9562   -1.4486    0.9720 H   0  0  0  0  0  0  0  0  0  0  0  0
    2.5907   -3.4031   -1.7120 H   0  0  0  0  0  0  0  0  0  0  0  0
    1.8518   -4.8972   -0.8864 H   0  0  0  0  0  0  0  0  0  0  0  0
    2.5251   -3.5558    0.0452 H   0  0  0  0  0  0  0  0  0  0  0  0
   -2.4123   -2.8186   -1.6216 H   0  0  0  0  0  0  0  0  0  0  0  0
    0.4264   -0.7046    2.0138 H   0  0  0  0  0  0  0  0  0  0  0  0
    2.1631    0.8379    2.8785 H   0  0  0  0  0  0  0  0  0  0  0  0
    6.1937    2.3986    1.4773 H   0  0  0  0  0  0  0  0  0  0  0  0
    5.0726    3.1677    0.3503 H   0  0  0  0  0  0  0  0  0  0  0  0
    6.2715    1.7584   -1.0565 H   0  0  0  0  0  0  0  0  0  0  0  0
    6.2802    0.4017    0.1580 H   0  0  0  0  0  0  0  0  0  0  0  0
    2.5473   -0.8992   -1.6455 H   0  0  0  0  0  0  0  0  0  0  0  0
  1  2  1  0
  2  3  1  0
  3  4  2  0
  4  5  1  0
  4  6  1  0
  6  7  2  0
  7  8  1  0
  7  9  1  0
  9 10  2  0
  9 11  1  0
 11 12  2  0
 12 13  1  0
 13 14  1  0
 13 15  2  0
 15 16  1  0
 12 17  1  0
 17 18  2  0
 18 19  1  0
 19 20  2  0
 20 21  1  0
 21 22  1  0
 22 23  1  0
 23 24  1  0
 24 25  1  0
 25 26  2  0
 10  3  1  0
 16 11  1  0
 26 17  1  0
 25 20  1  0
  1 27  1  0
  1 28  1  0
  1 29  1  0
  2 30  1  0
  2 31  1  0
  5 32  1  0
  6 33  1  0
  8 34  1  0
 10 35  1  0
 14 36  1  0
 14 37  1  0
 14 38  1  0
 16 39  1  0
 18 40  1  0
 19 41  1  0
 22 42  1  0
 22 43  1  0
 23 44  1  0
 23 45  1  0
 26 46  1  0
M  END
$$$$
