
     RDKit          3D

 57 60  0  0  0  0  0  0  0  0999 V2000
   -5.8869    3.9659   -0.2705 C   0  0  0  0  0  0  0  0  0  0  0  0
   -5.4485    2.6079   -0.7893 C   0  0  0  0  0  0  0  0  0  0  0  0
   -4.6717    1.8192    0.2128 C   0  0  0  0  0  0  0  0  0  0  0  0
   -4.2400    0.4711   -0.3153 C   0  0  0  0  0  0  0  0  0  0  0  0
   -5.3150   -0.4340   -0.3402 C   0  0  0  0  0  0  0  0  0  0  0  0
   -6.5953   -0.4024   -0.0194 O   0  0  0  0  0  0  0  0  0  0  0  0
   -7.1505   -1.5462   -0.2456 N   0  0  0  0  0  0  0  0  0  0  0  0
   -6.2396   -2.4089   -0.7388 C   0  0  0  0  0  0  0  0  0  0  0  0
   -5.0520   -1.6968   -0.8025 C   0  0  0  0  0  0  0  0  0  0  0  0
   -3.8368   -2.1322   -1.2350 C   0  0  0  0  0  0  0  0  0  0  0  0
   -2.8303   -1.1982   -1.1846 C   0  0  0  0  0  0  0  0  0  0  0  0
   -2.9472    0.1005   -0.7458 C   0  0  0  0  0  0  0  0  0  0  0  0
   -2.1728    1.1756   -0.5971 O   0  0  0  0  0  0  0  0  0  0  0  0
   -0.9271    1.6368   -0.7405 C   0  0  0  0  0  0  0  0  0  0  0  0
    0.1710    1.0582    0.1020 C   0  0  0  0  0  0  0  0  0  0  0  0
    0.4174   -0.4065   -0.0145 C   0  0  0  0  0  0  0  0  0  0  0  0
    1.5045   -0.8590    0.7637 O   0  0  0  0  0  0  0  0  0  0  0  0
    2.8054   -0.5280    0.6591 C   0  0  0  0  0  0  0  0  0  0  0  0
    3.5166   -1.2098    1.6626 C   0  0  0  0  0  0  0  0  0  0  0  0
    4.9037   -1.0877    1.8330 C   0  0  0  0  0  0  0  0  0  0  0  0
    5.6047   -0.2600    0.9763 C   0  0  0  0  0  0  0  0  0  0  0  0
    4.9574    0.4241   -0.0158 C   0  0  0  0  0  0  0  0  0  0  0  0
    3.5980    0.2649   -0.1347 C   0  0  0  0  0  0  0  0  0  0  0  0
    6.9214   -0.2318    1.2468 N   0  0  0  0  0  0  0  0  0  0  0  0
    7.9802    0.5061    0.5855 C   0  0  0  0  0  0  0  0  0  0  0  0
    8.5317   -0.3469   -0.5185 C   0  0  0  0  0  0  0  0  0  0  0  0
    9.5642    0.2379   -1.2444 O   0  0  0  0  0  0  0  0  0  0  0  0
    8.1390   -1.5105   -0.8210 O   0  0  0  0  0  0  0  0  0  0  0  0
    7.1016   -1.0642    2.3134 C   0  0  0  0  0  0  0  0  0  0  0  0
    5.8729   -1.5822    2.6665 C   0  0  0  0  0  0  0  0  0  0  0  0
   -6.4266   -3.8466   -1.1480 C   0  0  0  0  0  0  0  0  0  0  0  0
   -7.7244   -4.2427   -0.9563 F   0  0  0  0  0  0  0  0  0  0  0  0
   -6.1300   -3.9934   -2.4921 F   0  0  0  0  0  0  0  0  0  0  0  0
   -5.5216   -4.5903   -0.4315 F   0  0  0  0  0  0  0  0  0  0  0  0
   -5.6919    4.0386    0.8217 H   0  0  0  0  0  0  0  0  0  0  0  0
   -5.3183    4.7829   -0.7355 H   0  0  0  0  0  0  0  0  0  0  0  0
   -6.9695    4.0928   -0.4529 H   0  0  0  0  0  0  0  0  0  0  0  0
   -4.8440    2.7994   -1.7015 H   0  0  0  0  0  0  0  0  0  0  0  0
   -6.3322    2.0210   -1.1125 H   0  0  0  0  0  0  0  0  0  0  0  0
   -3.7756    2.3958    0.5321 H   0  0  0  0  0  0  0  0  0  0  0  0
   -5.2858    1.6359    1.1132 H   0  0  0  0  0  0  0  0  0  0  0  0
   -3.5705   -3.1017   -1.6057 H   0  0  0  0  0  0  0  0  0  0  0  0
   -1.8235   -1.4001   -1.5093 H   0  0  0  0  0  0  0  0  0  0  0  0
   -0.9505    2.7650   -0.5056 H   0  0  0  0  0  0  0  0  0  0  0  0
   -0.5927    1.6684   -1.8293 H   0  0  0  0  0  0  0  0  0  0  0  0
   -0.1559    1.2456    1.1825 H   0  0  0  0  0  0  0  0  0  0  0  0
    1.0976    1.6610   -0.0828 H   0  0  0  0  0  0  0  0  0  0  0  0
    0.5874   -0.6947   -1.0639 H   0  0  0  0  0  0  0  0  0  0  0  0
   -0.4901   -0.9807    0.3634 H   0  0  0  0  0  0  0  0  0  0  0  0
    3.1314   -1.8944    2.4159 H   0  0  0  0  0  0  0  0  0  0  0  0
    5.4079    1.0843   -0.7245 H   0  0  0  0  0  0  0  0  0  0  0  0
    3.0359    0.7617   -0.9028 H   0  0  0  0  0  0  0  0  0  0  0  0
    7.5868    1.4454    0.1148 H   0  0  0  0  0  0  0  0  0  0  0  0
    8.7748    0.8112    1.2945 H   0  0  0  0  0  0  0  0  0  0  0  0
   10.0168   -0.2344   -2.0174 H   0  0  0  0  0  0  0  0  0  0  0  0
    8.0233   -1.3174    2.8388 H   0  0  0  0  0  0  0  0  0  0  0  0
    5.6655   -2.2754    3.4716 H   0  0  0  0  0  0  0  0  0  0  0  0
  1  2  1  0
  2  3  1  0
  3  4  1  0
  4  5  2  0
  5  6  1  0
  6  7  1  0
  7  8  2  0
  8  9  1  0
  9 10  2  0
 10 11  1  0
 11 12  2  0
 12 13  1  0
 13 14  1  0
 14 15  1  0
 15 16  1  0
 16 17  1  0
 17 18  1  0
 18 19  2  0
 19 20  1  0
 20 21  2  0
 21 22  1  0
 22 23  2  0
 21 24  1  0
 24 25  1  0
 25 26  1  0
 26 27  1  0
 26 28  2  0
 24 29  1  0
 29 30  2  0
  8 31  1  0
 31 32  1  0
 31 33  1  0
 31 34  1  0
 12  4  1  0
 23 18  1  0
  9  5  1  0
 30 20  1  0
  1 35  1  0
  1 36  1  0
  1 37  1  0
  2 38  1  0
  2 39  1  0
  3 40  1  0
  3 41  1  0
 10 42  1  0
 11 43  1  0
 14 44  1  0
 14 45  1  0
 15 46  1  0
 15 47  1  0
 16 48  1  0
 16 49  1  0
 19 50  1  0
 22 51  1  0
 23 52  1  0
 25 53  1  0
 25 54  1  0
 27 55  1  0
 29 56  1  0
 30 57  1  0
M  END
$$$$
