
     RDKit          3D

 64 68  0  0  0  0  0  0  0  0999 V2000
   -4.7671    3.0408    0.5705 C   0  0  0  0  0  0  0  0  0  0  0  0
   -5.4563    1.7655    0.2560 C   0  0  0  0  0  0  0  0  0  0  0  0
   -6.2198    1.2653    1.4799 C   0  0  0  0  0  0  0  0  0  0  0  0
   -6.5306    1.9457   -0.8316 C   0  0  0  0  0  0  0  0  0  0  0  0
   -7.2813    0.7918   -0.7969 O   0  0  0  0  0  0  0  0  0  0  0  0
   -6.6494   -0.3535   -1.1723 C   0  0  0  0  0  0  0  0  0  0  0  0
   -5.2527   -0.5173   -0.6390 C   0  0  0  0  0  0  0  0  0  0  0  0
   -4.6298    0.7083   -0.2577 N   0  0  0  0  0  0  0  0  0  0  0  0
   -3.2353    0.8791   -0.3913 C   0  0  0  0  0  0  0  0  0  0  0  0
   -2.6380    1.9568   -0.0485 O   0  0  0  0  0  0  0  0  0  0  0  0
   -2.3400   -0.1735   -0.9413 C   0  0  2  0  0  0  0  0  0  0  0  0
   -2.2767   -1.5282   -0.2194 C   0  0  0  0  0  0  0  0  0  0  0  0
   -1.1278   -0.6249   -0.2320 C   0  0  1  0  0  0  0  0  0  0  0  0
    0.0865   -0.7794   -1.0738 C   0  0  1  0  0  0  0  0  0  0  0  0
    0.5165    0.6025   -1.5409 C   0  0  0  0  0  0  0  0  0  0  0  0
    1.1973   -1.3045   -0.2282 C   0  0  0  0  0  0  0  0  0  0  0  0
    2.3477   -0.5823    0.0273 C   0  0  0  0  0  0  0  0  0  0  0  0
    3.3740   -1.0665    0.8014 C   0  0  0  0  0  0  0  0  0  0  0  0
    4.5883   -0.2483    1.0548 C   0  0  0  0  0  0  0  0  0  0  0  0
    5.7868   -0.7798    1.0597 C   0  0  0  0  0  0  0  0  0  0  0  0
    5.8950   -2.1032    0.8243 F   0  0  0  0  0  0  0  0  0  0  0  0
    6.9835   -0.0035    1.3195 C   0  0  0  0  0  0  0  0  0  0  0  0
    7.0046    1.3395    1.5953 C   0  0  0  0  0  0  0  0  0  0  0  0
    8.2083    1.9694    1.8308 C   0  0  0  0  0  0  0  0  0  0  0  0
    9.4302    1.3063    1.8037 C   0  0  0  0  0  0  0  0  0  0  0  0
   10.6634    1.9687    2.0559 C   0  0  0  0  0  0  0  0  0  0  0  0
   11.6975    2.5310    2.2574 N   0  0  0  0  0  0  0  0  0  0  0  0
    9.3542   -0.0449    1.5207 C   0  0  0  0  0  0  0  0  0  0  0  0
    8.1840   -0.6509    1.2935 N   0  0  0  0  0  0  0  0  0  0  0  0
    3.2515   -2.3242    1.3454 C   0  0  0  0  0  0  0  0  0  0  0  0
    2.1328   -3.0928    1.1288 C   0  0  0  0  0  0  0  0  0  0  0  0
    1.1185   -2.5638    0.3395 C   0  0  0  0  0  0  0  0  0  0  0  0
    0.0395   -3.3634    0.1543 F   0  0  0  0  0  0  0  0  0  0  0  0
   -0.0580   -1.6887   -2.1910 N   0  0  0  0  0  0  0  0  0  0  0  0
   -1.0232   -1.6412   -3.0371 C   0  0  0  0  0  0  0  0  0  0  0  0
   -1.0878   -2.5560   -4.0861 N   0  0  0  0  0  0  0  0  0  0  0  0
   -2.2451   -0.3413   -2.7564 S   0  0  0  0  0  0  0  0  0  0  0  0
   -5.5758    3.7522    0.9218 H   0  0  0  0  0  0  0  0  0  0  0  0
   -4.1360    2.8955    1.4537 H   0  0  0  0  0  0  0  0  0  0  0  0
   -4.3154    3.5342   -0.2885 H   0  0  0  0  0  0  0  0  0  0  0  0
   -7.0399    1.9877    1.7426 H   0  0  0  0  0  0  0  0  0  0  0  0
   -6.6438    0.2582    1.3033 H   0  0  0  0  0  0  0  0  0  0  0  0
   -5.4849    1.1687    2.3058 H   0  0  0  0  0  0  0  0  0  0  0  0
   -5.9774    2.0642   -1.8012 H   0  0  0  0  0  0  0  0  0  0  0  0
   -7.1416    2.8285   -0.6737 H   0  0  0  0  0  0  0  0  0  0  0  0
   -6.7182   -0.4652   -2.2798 H   0  0  0  0  0  0  0  0  0  0  0  0
   -7.2480   -1.2211   -0.7686 H   0  0  0  0  0  0  0  0  0  0  0  0
   -4.6818   -1.1085   -1.3845 H   0  0  0  0  0  0  0  0  0  0  0  0
   -5.2660   -1.1589    0.2926 H   0  0  0  0  0  0  0  0  0  0  0  0
   -2.2438   -2.4304   -0.8359 H   0  0  0  0  0  0  0  0  0  0  0  0
   -2.8879   -1.6141    0.7102 H   0  0  0  0  0  0  0  0  0  0  0  0
   -0.9280   -0.0979    0.7377 H   0  0  0  0  0  0  0  0  0  0  0  0
    1.4437    0.5445   -2.1256 H   0  0  0  0  0  0  0  0  0  0  0  0
    0.6597    1.2402   -0.6546 H   0  0  0  0  0  0  0  0  0  0  0  0
   -0.2763    1.1124   -2.1411 H   0  0  0  0  0  0  0  0  0  0  0  0
    2.4723    0.4072   -0.3864 H   0  0  0  0  0  0  0  0  0  0  0  0
    4.4745    0.8088    1.2391 H   0  0  0  0  0  0  0  0  0  0  0  0
    6.0807    1.9069    1.6289 H   0  0  0  0  0  0  0  0  0  0  0  0
    8.2475    3.0446    2.0533 H   0  0  0  0  0  0  0  0  0  0  0  0
   10.3032   -0.5777    1.4946 H   0  0  0  0  0  0  0  0  0  0  0  0
    4.0316   -2.7239    1.9551 H   0  0  0  0  0  0  0  0  0  0  0  0
    2.0370   -4.0833    1.5578 H   0  0  0  0  0  0  0  0  0  0  0  0
   -0.5221   -3.4246   -4.0743 H   0  0  0  0  0  0  0  0  0  0  0  0
   -1.7049   -2.3871   -4.9046 H   0  0  0  0  0  0  0  0  0  0  0  0
  1  2  1  0
  2  3  1  0
  2  4  1  0
  4  5  1  0
  5  6  1  0
  6  7  1  0
  7  8  1  0
  8  9  1  0
  9 10  2  0
 11  9  1  6
 11 12  1  0
 12 13  1  0
 13 14  1  0
 14 15  1  6
 14 16  1  0
 16 17  2  0
 17 18  1  0
 18 19  1  0
 19 20  2  0
 20 21  1  0
 20 22  1  0
 22 23  2  0
 23 24  1  0
 24 25  2  0
 25 26  1  0
 26 27  3  0
 25 28  1  0
 28 29  2  0
 18 30  2  0
 30 31  1  0
 31 32  2  0
 32 33  1  0
 14 34  1  0
 34 35  2  0
 35 36  1  0
 35 37  1  0
  8  2  1  0
 13 11  1  0
 32 16  1  0
 37 11  1  0
 29 22  1  0
  1 38  1  0
  1 39  1  0
  1 40  1  0
  3 41  1  0
  3 42  1  0
  3 43  1  0
  4 44  1  0
  4 45  1  0
  6 46  1  0
  6 47  1  0
  7 48  1  0
  7 49  1  0
 12 50  1  0
 12 51  1  0
 13 52  1  1
 15 53  1  0
 15 54  1  0
 15 55  1  0
 17 56  1  0
 19 57  1  0
 23 58  1  0
 24 59  1  0
 28 60  1  0
 30 61  1  0
 31 62  1  0
 36 63  1  0
 36 64  1  0
M  END
$$$$
