
     RDKit          3D

 37 41  0  0  0  0  0  0  0  0999 V2000
    0.6877    2.3837   -0.5982 C   0  0  0  0  0  0  0  0  0  0  0  0
    1.1355    1.0315   -0.1468 C   0  0  0  0  0  0  0  0  0  0  0  0
    2.4552    0.8376   -0.0055 N   0  0  0  0  0  0  0  0  0  0  0  0
    3.0018   -0.3259    0.3927 C   0  0  0  0  0  0  0  0  0  0  0  0
    2.1144   -1.3530    0.6606 C   0  0  0  0  0  0  0  0  0  0  0  0
    0.7477   -1.2199    0.5354 C   0  0  0  0  0  0  0  0  0  0  0  0
    0.2564    0.0021    0.1223 C   0  0  0  0  0  0  0  0  0  0  0  0
   -1.1372    0.2122   -0.0287 N   0  0  0  0  0  0  0  0  0  0  0  0
   -1.9132   -0.5678   -0.8056 C   0  0  0  0  0  0  0  0  0  0  0  0
   -1.6511   -1.6787   -1.6048 C   0  0  0  0  0  0  0  0  0  0  0  0
   -2.6679   -2.2822   -2.2995 C   0  0  0  0  0  0  0  0  0  0  0  0
   -3.9362   -1.7541   -2.1766 C   0  0  0  0  0  0  0  0  0  0  0  0
   -4.9604   -2.3294   -2.8512 F   0  0  0  0  0  0  0  0  0  0  0  0
   -4.2183   -0.6575   -1.3930 C   0  0  0  0  0  0  0  0  0  0  0  0
   -3.1866   -0.0441   -0.6873 C   0  0  0  0  0  0  0  0  0  0  0  0
   -3.1652    1.0456    0.1593 C   0  0  0  0  0  0  0  0  0  0  0  0
   -3.8825    2.0202    0.7508 N   0  0  0  0  0  0  0  0  0  0  0  0
   -3.0963    2.7686    1.5056 N   0  0  0  0  0  0  0  0  0  0  0  0
   -1.8255    2.2862    1.4187 C   0  0  0  0  0  0  0  0  0  0  0  0
   -1.8537    1.1819    0.5593 C   0  0  0  0  0  0  0  0  0  0  0  0
    2.9019   -2.3940    1.0350 N   0  0  0  0  0  0  0  0  0  0  0  0
    4.1928   -2.0198    0.9965 C   0  0  0  0  0  0  0  0  0  0  0  0
    4.2658   -0.7372    0.5988 N   0  0  0  0  0  0  0  0  0  0  0  0
    5.4738    0.0442    0.4275 C   0  0  0  0  0  0  0  0  0  0  0  0
    0.7455    3.1077    0.2571 H   0  0  0  0  0  0  0  0  0  0  0  0
    1.4043    2.7999   -1.3529 H   0  0  0  0  0  0  0  0  0  0  0  0
   -0.2899    2.3705   -1.0789 H   0  0  0  0  0  0  0  0  0  0  0  0
    0.0752   -2.0642    0.7591 H   0  0  0  0  0  0  0  0  0  0  0  0
   -0.6448   -2.0526   -1.6674 H   0  0  0  0  0  0  0  0  0  0  0  0
   -2.4916   -3.1599   -2.9378 H   0  0  0  0  0  0  0  0  0  0  0  0
   -5.1980   -0.2319   -1.2845 H   0  0  0  0  0  0  0  0  0  0  0  0
   -4.9233    2.1105    0.5866 H   0  0  0  0  0  0  0  0  0  0  0  0
   -0.9386    2.6639    1.9097 H   0  0  0  0  0  0  0  0  0  0  0  0
    5.0290   -2.6586    1.2478 H   0  0  0  0  0  0  0  0  0  0  0  0
    6.3521   -0.6589    0.4037 H   0  0  0  0  0  0  0  0  0  0  0  0
    5.5028    0.5387   -0.5883 H   0  0  0  0  0  0  0  0  0  0  0  0
    5.6384    0.7849    1.2095 H   0  0  0  0  0  0  0  0  0  0  0  0
  1  2  1  0
  2  3  2  0
  3  4  1  0
  4  5  2  0
  5  6  1  0
  6  7  2  0
  7  8  1  0
  8  9  1  0
  9 10  2  0
 10 11  1  0
 11 12  2  0
 12 13  1  0
 12 14  1  0
 14 15  2  0
 15 16  1  0
 16 17  1  0
 17 18  1  0
 18 19  2  0
 19 20  1  0
  5 21  1  0
 21 22  2  0
 22 23  1  0
 23 24  1  0
  7  2  1  0
 20  8  1  0
 23  4  1  0
 15  9  1  0
 20 16  2  0
  1 25  1  0
  1 26  1  0
  1 27  1  0
  6 28  1  0
 10 29  1  0
 11 30  1  0
 14 31  1  0
 17 32  1  0
 19 33  1  0
 22 34  1  0
 24 35  1  0
 24 36  1  0
 24 37  1  0
M  END
$$$$
