
     RDKit          3D

 75 79  0  0  0  0  0  0  0  0999 V2000
    8.7327   -3.2381   -1.0778 C   0  0  0  0  0  0  0  0  0  0  0  0
    9.5919   -2.2106   -0.7772 O   0  0  0  0  0  0  0  0  0  0  0  0
    9.2625   -1.4715    0.3279 C   0  0  0  0  0  0  0  0  0  0  0  0
    7.9150   -0.7942    0.2379 C   0  0  2  0  0  0  0  0  0  0  0  0
    7.8664    0.2433   -0.8418 C   0  0  0  0  0  0  0  0  0  0  0  0
    7.8856    1.5871   -0.1658 C   0  0  0  0  0  0  0  0  0  0  0  0
    8.1572    1.2815    1.2721 C   0  0  0  0  0  0  0  0  0  0  0  0
    7.7118   -0.0640    1.4540 N   0  0  0  0  0  0  0  0  0  0  0  0
    6.1674   -0.2276    2.1387 S   0  0  0  0  0  6  0  0  0  0  0  0
    6.2126    0.4043    3.5232 O   0  0  0  0  0  0  0  0  0  0  0  0
    5.9174   -1.6993    2.3794 O   0  0  0  0  0  0  0  0  0  0  0  0
    4.8964    0.4785    1.1748 C   0  0  0  0  0  0  0  0  0  0  0  0
    4.2791   -0.3120    0.2323 C   0  0  0  0  0  0  0  0  0  0  0  0
    3.2675    0.1729   -0.5664 C   0  0  0  0  0  0  0  0  0  0  0  0
    2.8232    1.4970   -0.4516 C   0  0  0  0  0  0  0  0  0  0  0  0
    3.4421    2.2905    0.4934 C   0  0  0  0  0  0  0  0  0  0  0  0
    4.4645    1.7778    1.2912 C   0  0  0  0  0  0  0  0  0  0  0  0
    2.8072    3.6019    0.4101 C   0  0  0  0  0  0  0  0  0  0  0  0
    3.0886    4.6097    1.1094 O   0  0  0  0  0  0  0  0  0  0  0  0
    1.7860    3.5549   -0.6228 C   0  0  0  0  0  0  0  0  0  0  0  0
    1.0134    4.5083   -0.9921 O   0  0  0  0  0  0  0  0  0  0  0  0
    1.8189    2.2335   -1.1407 N   0  0  0  0  0  0  0  0  0  0  0  0
    0.9785    1.7227   -2.1946 C   0  0  0  0  0  0  0  0  0  0  0  0
   -0.3061    1.1818   -1.6927 C   0  0  0  0  0  0  0  0  0  0  0  0
   -0.4124   -0.1473   -1.3546 C   0  0  0  0  0  0  0  0  0  0  0  0
   -1.5972   -0.6798   -0.8819 C   0  0  0  0  0  0  0  0  0  0  0  0
   -2.7059    0.1243   -0.7404 C   0  0  0  0  0  0  0  0  0  0  0  0
   -3.8751   -0.4512   -0.2624 O   0  0  0  0  0  0  0  0  0  0  0  0
   -5.0690    0.2809   -0.0791 C   0  0  0  0  0  0  0  0  0  0  0  0
   -6.1163   -0.6756    0.4506 C   0  0  0  0  0  0  0  0  0  0  0  0
   -6.2676   -1.6846   -0.5195 O   0  0  0  0  0  0  0  0  0  0  0  0
   -7.4316   -2.7761    0.0303 S   0  0  0  0  0  6  0  0  0  0  0  0
   -7.0201   -3.4091    1.3246 O   0  0  0  0  0  0  0  0  0  0  0  0
   -7.5361   -3.8626   -1.0305 O   0  0  0  0  0  0  0  0  0  0  0  0
   -8.9445   -1.9283    0.1538 C   0  0  0  0  0  0  0  0  0  0  0  0
   -9.2668   -1.3067    1.3379 C   0  0  0  0  0  0  0  0  0  0  0  0
  -10.4809   -0.6205    1.4521 C   0  0  0  0  0  0  0  0  0  0  0  0
  -11.3563   -0.5598    0.3951 C   0  0  0  0  0  0  0  0  0  0  0  0
  -12.6450    0.1591    0.4913 C   0  0  0  0  0  0  0  0  0  0  0  0
  -11.0192   -1.1920   -0.7962 C   0  0  0  0  0  0  0  0  0  0  0  0
   -9.8072   -1.8804   -0.9191 C   0  0  0  0  0  0  0  0  0  0  0  0
   -2.6147    1.4578   -1.0751 C   0  0  0  0  0  0  0  0  0  0  0  0
   -1.4274    1.9734   -1.5446 C   0  0  0  0  0  0  0  0  0  0  0  0
    9.1200   -3.7591   -1.9987 H   0  0  0  0  0  0  0  0  0  0  0  0
    8.6777   -4.0231   -0.2959 H   0  0  0  0  0  0  0  0  0  0  0  0
    7.7075   -2.9180   -1.3547 H   0  0  0  0  0  0  0  0  0  0  0  0
   10.0821   -0.7460    0.5087 H   0  0  0  0  0  0  0  0  0  0  0  0
    9.2019   -2.1612    1.2163 H   0  0  0  0  0  0  0  0  0  0  0  0
    7.1567   -1.5876    0.0817 H   0  0  0  0  0  0  0  0  0  0  0  0
    8.7018    0.1477   -1.5749 H   0  0  0  0  0  0  0  0  0  0  0  0
    6.8759    0.1276   -1.3634 H   0  0  0  0  0  0  0  0  0  0  0  0
    8.7117    2.2389   -0.5392 H   0  0  0  0  0  0  0  0  0  0  0  0
    6.9080    2.1133   -0.2326 H   0  0  0  0  0  0  0  0  0  0  0  0
    9.2301    1.3437    1.5444 H   0  0  0  0  0  0  0  0  0  0  0  0
    7.5473    1.9369    1.9565 H   0  0  0  0  0  0  0  0  0  0  0  0
    4.5788   -1.3650    0.0882 H   0  0  0  0  0  0  0  0  0  0  0  0
    2.7840   -0.4653   -1.3178 H   0  0  0  0  0  0  0  0  0  0  0  0
    4.9212    2.4208    2.0128 H   0  0  0  0  0  0  0  0  0  0  0  0
    0.8157    2.5597   -2.9097 H   0  0  0  0  0  0  0  0  0  0  0  0
    1.5125    0.9274   -2.7163 H   0  0  0  0  0  0  0  0  0  0  0  0
    0.4420   -0.8376   -1.4494 H   0  0  0  0  0  0  0  0  0  0  0  0
   -1.6276   -1.7507   -0.6257 H   0  0  0  0  0  0  0  0  0  0  0  0
   -5.4185    0.7938   -0.9757 H   0  0  0  0  0  0  0  0  0  0  0  0
   -4.9154    1.0412    0.7384 H   0  0  0  0  0  0  0  0  0  0  0  0
   -7.0777   -0.1720    0.6601 H   0  0  0  0  0  0  0  0  0  0  0  0
   -5.7370   -1.1064    1.4114 H   0  0  0  0  0  0  0  0  0  0  0  0
   -8.5650   -1.3662    2.1569 H   0  0  0  0  0  0  0  0  0  0  0  0
  -10.7242   -0.1336    2.3923 H   0  0  0  0  0  0  0  0  0  0  0  0
  -12.4898    1.2451    0.7587 H   0  0  0  0  0  0  0  0  0  0  0  0
  -13.3104   -0.2487    1.2828 H   0  0  0  0  0  0  0  0  0  0  0  0
  -13.1652    0.1553   -0.4700 H   0  0  0  0  0  0  0  0  0  0  0  0
  -11.7120   -1.1400   -1.6225 H   0  0  0  0  0  0  0  0  0  0  0  0
   -9.5896   -2.3588   -1.8727 H   0  0  0  0  0  0  0  0  0  0  0  0
   -3.4667    2.1053   -0.9731 H   0  0  0  0  0  0  0  0  0  0  0  0
   -1.3624    3.0327   -1.8083 H   0  0  0  0  0  0  0  0  0  0  0  0
  1  2  1  0
  2  3  1  0
  3  4  1  0
  4  5  1  0
  5  6  1  0
  6  7  1  0
  7  8  1  0
  8  9  1  0
  9 10  2  0
  9 11  2  0
  9 12  1  0
 12 13  2  0
 13 14  1  0
 14 15  2  0
 15 16  1  0
 16 17  2  0
 16 18  1  0
 18 19  2  0
 18 20  1  0
 20 21  2  0
 20 22  1  0
 22 23  1  0
 23 24  1  0
 24 25  2  0
 25 26  1  0
 26 27  2  0
 27 28  1  0
 28 29  1  0
 29 30  1  0
 30 31  1  0
 31 32  1  0
 32 33  2  0
 32 34  2  0
 32 35  1  0
 35 36  2  0
 36 37  1  0
 37 38  2  0
 38 39  1  0
 38 40  1  0
 40 41  2  0
 27 42  1  0
 42 43  2  0
  8  4  1  0
 17 12  1  0
 43 24  1  0
 22 15  1  0
 41 35  1  0
  1 44  1  0
  1 45  1  0
  1 46  1  0
  3 47  1  0
  3 48  1  0
  4 49  1  6
  5 50  1  0
  5 51  1  0
  6 52  1  0
  6 53  1  0
  7 54  1  0
  7 55  1  0
 13 56  1  0
 14 57  1  0
 17 58  1  0
 23 59  1  0
 23 60  1  0
 25 61  1  0
 26 62  1  0
 29 63  1  0
 29 64  1  0
 30 65  1  0
 30 66  1  0
 36 67  1  0
 37 68  1  0
 39 69  1  0
 39 70  1  0
 39 71  1  0
 40 72  1  0
 41 73  1  0
 42 74  1  0
 43 75  1  0
M  END
$$$$
