
     RDKit          3D

 55 57  0  0  0  0  0  0  0  0999 V2000
    2.3892    1.7870   -2.5221 C   0  0  0  0  0  0  0  0  0  0  0  0
    2.3129    0.3808   -2.1669 N   0  0  0  0  0  0  0  0  0  0  0  0
    3.4780   -0.4692   -2.2780 C   0  0  0  0  0  0  0  0  0  0  0  0
    4.5767    0.0464   -1.4051 C   0  0  0  0  0  0  0  0  0  0  0  0
    5.5865    0.9026   -1.7717 C   0  0  0  0  0  0  0  0  0  0  0  0
    6.5171    1.3075   -0.8953 N   0  0  0  0  0  0  0  0  0  0  0  0
    6.5152    0.9016    0.3817 C   0  0  0  0  0  0  0  0  0  0  0  0
    7.4341    1.2910    1.2835 N   0  0  0  0  0  0  0  0  0  0  0  0
    7.3698    0.8481    2.5367 C   0  0  0  0  0  0  0  0  0  0  0  0
    8.2976    1.2056    3.5626 N   0  0  0  0  0  0  0  0  0  0  0  0
    6.3921    0.0019    2.9448 N   0  0  0  0  0  0  0  0  0  0  0  0
    5.4657   -0.3930    2.0427 C   0  0  0  0  0  0  0  0  0  0  0  0
    4.4134   -1.2836    2.4163 N   0  0  0  0  0  0  0  0  0  0  0  0
    5.5083    0.0520    0.7327 C   0  0  0  0  0  0  0  0  0  0  0  0
    4.5746   -0.3619   -0.1219 N   0  0  0  0  0  0  0  0  0  0  0  0
    1.0152   -0.0360   -1.7197 C   0  0  0  0  0  0  0  0  0  0  0  0
   -0.0027    0.8714   -1.6590 C   0  0  0  0  0  0  0  0  0  0  0  0
   -1.2815    0.5020   -1.2323 C   0  0  0  0  0  0  0  0  0  0  0  0
   -1.5780   -0.7823   -0.8551 C   0  0  0  0  0  0  0  0  0  0  0  0
   -0.5620   -1.6927   -0.9145 C   0  0  0  0  0  0  0  0  0  0  0  0
    0.6873   -1.3169   -1.3347 C   0  0  0  0  0  0  0  0  0  0  0  0
   -2.8869   -1.2338   -0.4025 C   0  0  0  0  0  0  0  0  0  0  0  0
   -3.1037   -2.4333   -0.0876 O   0  0  0  0  0  0  0  0  0  0  0  0
   -3.9855   -0.3484   -0.2925 N   0  0  0  0  0  0  0  0  0  0  0  0
   -5.3392   -0.7774    0.1653 C   0  0  1  0  0  0  0  0  0  0  0  0
   -5.5290   -0.1102    1.4646 C   0  0  0  0  0  0  0  0  0  0  0  0
   -6.7697   -0.2680    2.2359 C   0  0  0  0  0  0  0  0  0  0  0  0
   -8.0143    0.2916    1.7132 C   0  0  0  0  0  0  0  0  0  0  0  0
   -9.1336   -0.1055    2.4706 O   0  0  0  0  0  0  0  0  0  0  0  0
   -8.4282    1.0449    0.7659 O   0  0  0  0  0  0  0  0  0  0  0  0
   -6.2782   -0.5985   -0.9107 C   0  0  0  0  0  0  0  0  0  0  0  0
   -6.7788   -0.2011   -2.1332 O   0  0  0  0  0  0  0  0  0  0  0  0
   -7.4820   -0.8973   -1.1534 O   0  0  0  0  0  0  0  0  0  0  0  0
    3.3814    2.0538   -2.8756 H   0  0  0  0  0  0  0  0  0  0  0  0
    2.0788    2.3898   -1.6482 H   0  0  0  0  0  0  0  0  0  0  0  0
    1.6012    1.9480   -3.2947 H   0  0  0  0  0  0  0  0  0  0  0  0
    3.2442   -1.4882   -1.9505 H   0  0  0  0  0  0  0  0  0  0  0  0
    3.8219   -0.4606   -3.3391 H   0  0  0  0  0  0  0  0  0  0  0  0
    5.5993    1.2285   -2.7942 H   0  0  0  0  0  0  0  0  0  0  0  0
    8.0909    1.9564    4.2488 H   0  0  0  0  0  0  0  0  0  0  0  0
    9.1822    0.6722    3.5776 H   0  0  0  0  0  0  0  0  0  0  0  0
    4.0612   -2.1066    1.8857 H   0  0  0  0  0  0  0  0  0  0  0  0
    3.7323   -1.4468    3.1750 H   0  0  0  0  0  0  0  0  0  0  0  0
    0.0949    1.9246   -1.9290 H   0  0  0  0  0  0  0  0  0  0  0  0
   -2.0774    1.2372   -1.1909 H   0  0  0  0  0  0  0  0  0  0  0  0
   -0.7593   -2.7192   -0.6236 H   0  0  0  0  0  0  0  0  0  0  0  0
    1.4334   -2.0868   -1.3546 H   0  0  0  0  0  0  0  0  0  0  0  0
   -3.9115    0.6602   -0.5261 H   0  0  0  0  0  0  0  0  0  0  0  0
   -5.1990   -1.8945    0.3453 H   0  0  0  0  0  0  0  0  0  0  0  0
   -5.2496    0.9776    1.3760 H   0  0  0  0  0  0  0  0  0  0  0  0
   -4.6916   -0.5027    2.1329 H   0  0  0  0  0  0  0  0  0  0  0  0
   -6.9719   -1.3456    2.5124 H   0  0  0  0  0  0  0  0  0  0  0  0
   -6.5873    0.2263    3.2435 H   0  0  0  0  0  0  0  0  0  0  0  0
   -9.9711    0.4488    2.4648 H   0  0  0  0  0  0  0  0  0  0  0  0
   -6.2833    0.2024   -2.9082 H   0  0  0  0  0  0  0  0  0  0  0  0
  1  2  1  0
  2  3  1  0
  3  4  1  0
  4  5  2  0
  5  6  1  0
  6  7  2  0
  7  8  1  0
  8  9  2  0
  9 10  1  0
  9 11  1  0
 11 12  2  0
 12 13  1  0
 12 14  1  0
 14 15  2  0
  2 16  1  0
 16 17  2  0
 17 18  1  0
 18 19  2  0
 19 20  1  0
 20 21  2  0
 19 22  1  0
 22 23  2  0
 22 24  1  0
 24 25  1  0
 25 26  1  0
 26 27  1  0
 27 28  1  0
 28 29  1  0
 28 30  2  0
 25 31  1  0
 31 32  1  0
 31 33  2  0
 15  4  1  0
 21 16  1  0
 14  7  1  0
  1 34  1  0
  1 35  1  0
  1 36  1  0
  3 37  1  0
  3 38  1  0
  5 39  1  0
 10 40  1  0
 10 41  1  0
 13 42  1  0
 13 43  1  0
 17 44  1  0
 18 45  1  0
 20 46  1  0
 21 47  1  0
 24 48  1  0
 25 49  1  1
 26 50  1  0
 26 51  1  0
 27 52  1  0
 27 53  1  0
 29 54  1  0
 32 55  1  0
M  END
$$$$
