
     RDKit          3D

102108  0  0  0  0  0  0  0  0999 V2000
   -6.9594    5.9730    3.2505 C   0  0  0  0  0  0  0  0  0  0  0  0
   -6.3023    5.1620    2.3007 O   0  0  0  0  0  0  0  0  0  0  0  0
   -6.9140    4.0523    1.7407 C   0  0  0  0  0  0  0  0  0  0  0  0
   -6.2192    3.2964    0.8159 C   0  0  0  0  0  0  0  0  0  0  0  0
   -6.7881    2.1664    0.2199 C   0  0  0  0  0  0  0  0  0  0  0  0
   -8.0660    1.7772    0.5441 C   0  0  0  0  0  0  0  0  0  0  0  0
   -8.6590    0.6288   -0.0549 N   0  0  0  0  0  0  0  0  0  0  0  0
   -9.6608    0.5993   -0.9530 N   0  0  0  0  0  0  0  0  0  0  0  0
   -9.9508   -0.6617   -1.2784 C   0  0  0  0  0  0  0  0  0  0  0  0
  -10.9742   -1.1947   -2.2224 C   0  0  0  0  0  0  0  0  0  0  0  0
  -10.2031   -1.9659   -3.2899 C   0  0  0  0  0  0  0  0  0  0  0  0
  -11.7978   -2.2038   -1.4658 C   0  0  0  0  0  0  0  0  0  0  0  0
   -9.0877   -1.4595   -0.5482 C   0  0  0  0  0  0  0  0  0  0  0  0
   -8.2813   -0.6244    0.2175 C   0  0  0  0  0  0  0  0  0  0  0  0
   -7.2855   -1.1356    1.0846 N   0  0  0  0  0  0  0  0  0  0  0  0
   -5.9467   -1.3899    0.6319 C   0  0  0  0  0  0  0  0  0  0  0  0
   -5.7022   -1.1275   -0.5696 O   0  0  0  0  0  0  0  0  0  0  0  0
   -4.9420   -1.9170    1.5058 N   0  0  0  0  0  0  0  0  0  0  0  0
   -3.6257   -2.1744    1.0491 C   0  0  0  0  0  0  0  0  0  0  0  0
   -2.6387   -1.2296    1.1298 C   0  0  0  0  0  0  0  0  0  0  0  0
   -1.3415   -1.4980    0.6681 C   0  0  0  0  0  0  0  0  0  0  0  0
   -1.0358   -2.7110    0.1269 C   0  0  0  0  0  0  0  0  0  0  0  0
    0.1972   -3.0412   -0.3387 O   0  0  0  0  0  0  0  0  0  0  0  0
    1.3672   -2.3996   -0.3973 C   0  0  0  0  0  0  0  0  0  0  0  0
    2.4514   -3.0728   -0.9740 C   0  0  0  0  0  0  0  0  0  0  0  0
    3.6540   -2.4444   -1.0462 C   0  0  0  0  0  0  0  0  0  0  0  0
    3.7453   -1.2066   -0.5603 N   0  0  0  0  0  0  0  0  0  0  0  0
    2.7531   -0.5065    0.0022 C   0  0  0  0  0  0  0  0  0  0  0  0
    2.9090    0.7897    0.5218 N   0  0  0  0  0  0  0  0  0  0  0  0
    4.0770    1.5684    0.5220 C   0  0  0  0  0  0  0  0  0  0  0  0
    4.2334    2.6077    1.4424 C   0  0  0  0  0  0  0  0  0  0  0  0
    5.3438    3.4100    1.5120 C   0  0  0  0  0  0  0  0  0  0  0  0
    5.4486    4.4314    2.4488 O   0  0  0  0  0  0  0  0  0  0  0  0
    6.6165    5.2150    2.4641 C   0  0  0  0  0  0  0  0  0  0  0  0
    6.3754    3.1595    0.5976 C   0  0  0  0  0  0  0  0  0  0  0  0
    6.2178    2.1336   -0.3102 C   0  0  0  0  0  0  0  0  0  0  0  0
    7.3012    1.8311   -1.2661 C   0  0  0  0  0  0  0  0  0  0  0  0
    7.0701    1.0755   -2.2558 O   0  0  0  0  0  0  0  0  0  0  0  0
    8.6082    2.3373   -1.1466 N   0  0  0  0  0  0  0  0  0  0  0  0
    9.6849    2.0590   -2.0644 C   0  0  0  0  0  0  0  0  0  0  0  0
    9.9222    0.5678   -2.1064 C   0  0  0  0  0  0  0  0  0  0  0  0
   10.2432    0.1052   -0.7932 N   0  0  0  0  0  0  0  0  0  0  0  0
   11.4719    0.5129   -0.2436 C   0  0  0  0  0  0  0  0  0  0  0  0
   12.3297   -0.5611    0.3489 C   0  0  0  0  0  0  0  0  0  0  0  0
   11.6263   -1.6368    0.8698 O   0  0  0  0  0  0  0  0  0  0  0  0
   10.9054   -2.1925   -0.1861 C   0  0  0  0  0  0  0  0  0  0  0  0
    9.8165   -1.2386   -0.5340 C   0  0  0  0  0  0  0  0  0  0  0  0
    5.0960    1.3357   -0.3696 C   0  0  0  0  0  0  0  0  0  0  0  0
    1.5575   -1.1626    0.0607 N   0  0  0  0  0  0  0  0  0  0  0  0
   -2.0673   -3.6594    0.0574 C   0  0  0  0  0  0  0  0  0  0  0  0
   -1.7661   -4.8940   -0.4875 C   0  0  0  0  0  0  0  0  0  0  0  0
   -2.7574   -5.8693   -0.5750 C   0  0  0  0  0  0  0  0  0  0  0  0
   -4.0239   -5.5849   -0.1155 C   0  0  0  0  0  0  0  0  0  0  0  0
   -4.3502   -4.3663    0.4301 C   0  0  0  0  0  0  0  0  0  0  0  0
   -3.3367   -3.4043    0.5065 C   0  0  0  0  0  0  0  0  0  0  0  0
   -8.7560    2.5418    1.4732 C   0  0  0  0  0  0  0  0  0  0  0  0
   -8.2069    3.6588    2.0685 C   0  0  0  0  0  0  0  0  0  0  0  0
   -6.9547    5.5570    4.2699 H   0  0  0  0  0  0  0  0  0  0  0  0
   -6.4437    6.9683    3.2127 H   0  0  0  0  0  0  0  0  0  0  0  0
   -8.0329    6.1651    2.9745 H   0  0  0  0  0  0  0  0  0  0  0  0
   -5.2165    3.5948    0.5570 H   0  0  0  0  0  0  0  0  0  0  0  0
   -6.2389    1.5793   -0.5027 H   0  0  0  0  0  0  0  0  0  0  0  0
  -11.5645   -0.3745   -2.6663 H   0  0  0  0  0  0  0  0  0  0  0  0
   -9.3388   -2.4477   -2.7471 H   0  0  0  0  0  0  0  0  0  0  0  0
   -9.8042   -1.3041   -4.0633 H   0  0  0  0  0  0  0  0  0  0  0  0
  -10.8182   -2.7967   -3.6505 H   0  0  0  0  0  0  0  0  0  0  0  0
  -11.0918   -2.7494   -0.7853 H   0  0  0  0  0  0  0  0  0  0  0  0
  -12.1961   -2.9861   -2.1673 H   0  0  0  0  0  0  0  0  0  0  0  0
  -12.5917   -1.6809   -0.9063 H   0  0  0  0  0  0  0  0  0  0  0  0
   -9.0538   -2.5390   -0.5739 H   0  0  0  0  0  0  0  0  0  0  0  0
   -7.5193   -1.3384    2.0678 H   0  0  0  0  0  0  0  0  0  0  0  0
   -5.2443   -2.0946    2.4870 H   0  0  0  0  0  0  0  0  0  0  0  0
   -2.8061   -0.2462    1.5457 H   0  0  0  0  0  0  0  0  0  0  0  0
   -0.5958   -0.7043    0.7589 H   0  0  0  0  0  0  0  0  0  0  0  0
    2.3457   -4.0778   -1.3581 H   0  0  0  0  0  0  0  0  0  0  0  0
    4.4961   -2.9582   -1.4907 H   0  0  0  0  0  0  0  0  0  0  0  0
    2.0513    1.2431    0.9648 H   0  0  0  0  0  0  0  0  0  0  0  0
    3.4207    2.7870    2.1448 H   0  0  0  0  0  0  0  0  0  0  0  0
    6.6819    5.8823    3.3287 H   0  0  0  0  0  0  0  0  0  0  0  0
    6.6533    5.7775    1.5066 H   0  0  0  0  0  0  0  0  0  0  0  0
    7.5061    4.5461    2.5151 H   0  0  0  0  0  0  0  0  0  0  0  0
    7.2453    3.7924    0.6544 H   0  0  0  0  0  0  0  0  0  0  0  0
    8.7908    2.9577   -0.3238 H   0  0  0  0  0  0  0  0  0  0  0  0
    9.4294    2.4570   -3.0707 H   0  0  0  0  0  0  0  0  0  0  0  0
   10.5978    2.5738   -1.6958 H   0  0  0  0  0  0  0  0  0  0  0  0
    9.0851    0.0282   -2.5507 H   0  0  0  0  0  0  0  0  0  0  0  0
   10.8337    0.3666   -2.7442 H   0  0  0  0  0  0  0  0  0  0  0  0
   11.3180    1.3457    0.5076 H   0  0  0  0  0  0  0  0  0  0  0  0
   12.0791    0.9969   -1.0640 H   0  0  0  0  0  0  0  0  0  0  0  0
   13.0788   -0.9876   -0.3421 H   0  0  0  0  0  0  0  0  0  0  0  0
   12.9018   -0.1143    1.1964 H   0  0  0  0  0  0  0  0  0  0  0  0
   11.6345   -2.3669   -1.0003 H   0  0  0  0  0  0  0  0  0  0  0  0
   10.4528   -3.1265    0.1876 H   0  0  0  0  0  0  0  0  0  0  0  0
    9.3223   -1.6053   -1.4815 H   0  0  0  0  0  0  0  0  0  0  0  0
    9.0396   -1.2857    0.2474 H   0  0  0  0  0  0  0  0  0  0  0  0
    5.0514    0.5452   -1.1375 H   0  0  0  0  0  0  0  0  0  0  0  0
   -0.7608   -5.0780   -0.8375 H   0  0  0  0  0  0  0  0  0  0  0  0
   -2.4807   -6.8235   -1.0062 H   0  0  0  0  0  0  0  0  0  0  0  0
   -4.8023   -6.3209   -0.1724 H   0  0  0  0  0  0  0  0  0  0  0  0
   -5.3164   -4.1055    0.7968 H   0  0  0  0  0  0  0  0  0  0  0  0
   -9.7628    2.2321    1.7266 H   0  0  0  0  0  0  0  0  0  0  0  0
   -8.7576    4.2537    2.7976 H   0  0  0  0  0  0  0  0  0  0  0  0
  1  2  1  0
  2  3  1  0
  3  4  2  0
  4  5  1  0
  5  6  2  0
  6  7  1  0
  7  8  1  0
  8  9  2  0
  9 10  1  0
 10 11  1  0
 10 12  1  0
  9 13  1  0
 13 14  2  0
 14 15  1  0
 15 16  1  0
 16 17  2  0
 16 18  1  0
 18 19  1  0
 19 20  2  0
 20 21  1  0
 21 22  2  0
 22 23  1  0
 23 24  1  0
 24 25  2  0
 25 26  1  0
 26 27  2  0
 27 28  1  0
 28 29  1  0
 29 30  1  0
 30 31  2  0
 31 32  1  0
 32 33  1  0
 33 34  1  0
 32 35  2  0
 35 36  1  0
 36 37  1  0
 37 38  2  0
 37 39  1  0
 39 40  1  0
 40 41  1  0
 41 42  1  0
 42 43  1  0
 43 44  1  0
 44 45  1  0
 45 46  1  0
 46 47  1  0
 36 48  2  0
 28 49  2  0
 22 50  1  0
 50 51  2  0
 51 52  1  0
 52 53  2  0
 53 54  1  0
 54 55  2  0
  6 56  1  0
 56 57  2  0
 57  3  1  0
 14  7  1  0
 55 19  1  0
 49 24  1  0
 55 50  1  0
 48 30  1  0
 47 42  1  0
  1 58  1  0
  1 59  1  0
  1 60  1  0
  4 61  1  0
  5 62  1  0
 10 63  1  0
 11 64  1  0
 11 65  1  0
 11 66  1  0
 12 67  1  0
 12 68  1  0
 12 69  1  0
 13 70  1  0
 15 71  1  0
 18 72  1  0
 20 73  1  0
 21 74  1  0
 25 75  1  0
 26 76  1  0
 29 77  1  0
 31 78  1  0
 34 79  1  0
 34 80  1  0
 34 81  1  0
 35 82  1  0
 39 83  1  0
 40 84  1  0
 40 85  1  0
 41 86  1  0
 41 87  1  0
 43 88  1  0
 43 89  1  0
 44 90  1  0
 44 91  1  0
 46 92  1  0
 46 93  1  0
 47 94  1  0
 47 95  1  0
 48 96  1  0
 51 97  1  0
 52 98  1  0
 53 99  1  0
 54100  1  0
 56101  1  0
 57102  1  0
M  END
$$$$
