
     RDKit          3D

 37 39  0  0  0  0  0  0  0  0999 V2000
    3.6186   -1.2251   -0.8256 C   0  0  0  0  0  0  0  0  0  0  0  0
    3.4641    0.1788   -1.0122 N   0  0  0  0  0  0  0  0  0  0  0  0
    2.1384    0.6698   -0.8079 C   0  0  1  0  0  0  0  0  0  0  0  0
    1.1222    0.0328   -1.7573 C   0  0  0  0  0  0  0  0  0  0  0  0
   -0.0859    0.9397   -1.7386 C   0  0  0  0  0  0  0  0  0  0  0  0
   -0.6619    1.0457   -0.3673 C   0  0  1  0  0  0  0  0  0  0  0  0
   -1.9811    0.3716   -0.2600 C   0  0  0  0  0  0  0  0  0  0  0  0
   -2.2204   -0.8399   -0.8795 C   0  0  0  0  0  0  0  0  0  0  0  0
   -3.4319   -1.4834   -0.7952 C   0  0  0  0  0  0  0  0  0  0  0  0
   -4.4647   -0.9288   -0.0763 C   0  0  0  0  0  0  0  0  0  0  0  0
   -6.0159   -1.7735    0.0195 Cl  0  0  0  0  0  0  0  0  0  0  0  0
   -4.2608    0.2693    0.5488 C   0  0  0  0  0  0  0  0  0  0  0  0
   -5.6029    0.9517    1.4606 Cl  0  0  0  0  0  0  0  0  0  0  0  0
   -3.0378    0.8987    0.4519 C   0  0  0  0  0  0  0  0  0  0  0  0
    0.2555    0.6502    0.7197 C   0  0  0  0  0  0  0  0  0  0  0  0
   -0.2483    0.4567    1.9778 C   0  0  0  0  0  0  0  0  0  0  0  0
    0.5592    0.0862    3.0521 C   0  0  0  0  0  0  0  0  0  0  0  0
    1.9072   -0.0979    2.8726 C   0  0  0  0  0  0  0  0  0  0  0  0
    2.4201    0.0982    1.5953 C   0  0  0  0  0  0  0  0  0  0  0  0
    1.6099    0.4644    0.5422 C   0  0  0  0  0  0  0  0  0  0  0  0
    4.6161   -1.4223   -0.3648 H   0  0  0  0  0  0  0  0  0  0  0  0
    3.6131   -1.7382   -1.8171 H   0  0  0  0  0  0  0  0  0  0  0  0
    2.8106   -1.6921   -0.2308 H   0  0  0  0  0  0  0  0  0  0  0  0
    3.7647    0.4600   -1.9720 H   0  0  0  0  0  0  0  0  0  0  0  0
    2.1298    1.7562   -1.0296 H   0  0  0  0  0  0  0  0  0  0  0  0
    1.5446   -0.0810   -2.7688 H   0  0  0  0  0  0  0  0  0  0  0  0
    0.8995   -0.9525   -1.3314 H   0  0  0  0  0  0  0  0  0  0  0  0
   -0.8395    0.6292   -2.4959 H   0  0  0  0  0  0  0  0  0  0  0  0
    0.2945    1.9387   -2.1029 H   0  0  0  0  0  0  0  0  0  0  0  0
   -0.8753    2.1511   -0.2100 H   0  0  0  0  0  0  0  0  0  0  0  0
   -1.4540   -1.3305   -1.4603 H   0  0  0  0  0  0  0  0  0  0  0  0
   -3.6017   -2.4265   -1.2837 H   0  0  0  0  0  0  0  0  0  0  0  0
   -2.9151    1.8620    0.9695 H   0  0  0  0  0  0  0  0  0  0  0  0
   -1.2971    0.5835    2.1917 H   0  0  0  0  0  0  0  0  0  0  0  0
    0.1567   -0.0651    4.0422 H   0  0  0  0  0  0  0  0  0  0  0  0
    2.5817   -0.3839    3.6633 H   0  0  0  0  0  0  0  0  0  0  0  0
    3.4881   -0.0536    1.4799 H   0  0  0  0  0  0  0  0  0  0  0  0
  1  2  1  0
  2  3  1  0
  3  4  1  0
  4  5  1  0
  5  6  1  0
  6  7  1  0
  7  8  2  0
  8  9  1  0
  9 10  2  0
 10 11  1  0
 10 12  1  0
 12 13  1  0
 12 14  2  0
  6 15  1  0
 15 16  2  0
 16 17  1  0
 17 18  2  0
 18 19  1  0
 19 20  2  0
 20  3  1  0
 14  7  1  0
 20 15  1  0
  1 21  1  0
  1 22  1  0
  1 23  1  0
  2 24  1  0
  3 25  1  6
  4 26  1  0
  4 27  1  0
  5 28  1  0
  5 29  1  0
  6 30  1  1
  8 31  1  0
  9 32  1  0
 14 33  1  0
 16 34  1  0
 17 35  1  0
 18 36  1  0
 19 37  1  0
M  END
$$$$
