
     RDKit          3D

 53 56  0  0  0  0  0  0  0  0999 V2000
    5.4487    0.2243    3.4020 C   0  0  0  0  0  0  0  0  0  0  0  0
    4.2959   -0.2346    2.5183 C   0  0  0  0  0  0  0  0  0  0  0  0
    4.2153    0.5624    1.3569 O   0  0  0  0  0  0  0  0  0  0  0  0
    3.2866    0.3704    0.3595 C   0  0  0  0  0  0  0  0  0  0  0  0
    2.3218   -0.6329    0.3864 C   0  0  0  0  0  0  0  0  0  0  0  0
    1.4195   -0.7820   -0.6379 C   0  0  0  0  0  0  0  0  0  0  0  0
    0.3400   -1.8431   -0.6279 C   0  0  2  0  0  0  0  0  0  0  0  0
    0.4697   -2.6157   -1.8438 N   0  0  0  0  0  0  0  0  0  0  0  0
   -0.5405   -2.7241   -2.8301 C   0  0  0  0  0  0  0  0  0  0  0  0
   -0.3185   -3.4193   -3.8652 O   0  0  0  0  0  0  0  0  0  0  0  0
   -1.7537   -2.0477   -2.6091 N   0  0  0  0  0  0  0  0  0  0  0  0
   -1.9090   -1.2796   -1.3969 C   0  0  0  0  0  0  0  0  0  0  0  0
   -3.2396   -0.6373   -1.2432 C   0  0  0  0  0  0  0  0  0  0  0  0
   -3.9041   -0.7535   -0.0555 C   0  0  0  0  0  0  0  0  0  0  0  0
   -5.1612   -0.1497    0.1181 C   0  0  0  0  0  0  0  0  0  0  0  0
   -5.7329    0.5566   -0.8926 C   0  0  0  0  0  0  0  0  0  0  0  0
   -5.0598    0.6797   -2.1123 C   0  0  0  0  0  0  0  0  0  0  0  0
   -3.8249    0.0794   -2.2623 C   0  0  0  0  0  0  0  0  0  0  0  0
   -0.9827   -1.1727   -0.4916 C   0  0  0  0  0  0  0  0  0  0  0  0
   -1.2085   -0.3324    0.6818 C   0  0  0  0  0  0  0  0  0  0  0  0
   -1.7287    0.9414    0.6422 C   0  0  0  0  0  0  0  0  0  0  0  0
   -1.9196    1.6808    1.8046 C   0  0  0  0  0  0  0  0  0  0  0  0
   -1.5924    1.1564    3.0328 C   0  0  0  0  0  0  0  0  0  0  0  0
   -1.0665   -0.1293    3.0873 C   0  0  0  0  0  0  0  0  0  0  0  0
   -0.8843   -0.8490    1.9125 C   0  0  0  0  0  0  0  0  0  0  0  0
    1.4737    0.0769   -1.7078 C   0  0  0  0  0  0  0  0  0  0  0  0
    2.4232    1.0963   -1.7754 C   0  0  0  0  0  0  0  0  0  0  0  0
    2.4636    1.9887   -2.8863 N   0  0  0  0  0  4  0  0  0  0  0  0
    2.8343    3.1704   -2.6944 O   0  0  0  0  0  0  0  0  0  0  0  0
    2.1197    1.6552   -4.1509 O   0  0  0  0  0  1  0  0  0  0  0  0
    3.3130    1.2256   -0.7406 C   0  0  0  0  0  0  0  0  0  0  0  0
    4.2698    2.2248   -0.7721 O   0  0  0  0  0  0  0  0  0  0  0  0
    6.4166    0.1791    2.8182 H   0  0  0  0  0  0  0  0  0  0  0  0
    5.5709   -0.5055    4.2256 H   0  0  0  0  0  0  0  0  0  0  0  0
    5.2978    1.2153    3.8346 H   0  0  0  0  0  0  0  0  0  0  0  0
    4.4754   -1.2931    2.2496 H   0  0  0  0  0  0  0  0  0  0  0  0
    3.3540   -0.1750    3.1209 H   0  0  0  0  0  0  0  0  0  0  0  0
    2.2979   -1.2940    1.2343 H   0  0  0  0  0  0  0  0  0  0  0  0
    0.5635   -2.5160    0.2165 H   0  0  0  0  0  0  0  0  0  0  0  0
    1.3814   -3.1481   -2.0261 H   0  0  0  0  0  0  0  0  0  0  0  0
   -2.5211   -2.1087   -3.3201 H   0  0  0  0  0  0  0  0  0  0  0  0
   -3.5282   -1.2963    0.7941 H   0  0  0  0  0  0  0  0  0  0  0  0
   -5.6691   -0.2515    1.0588 H   0  0  0  0  0  0  0  0  0  0  0  0
   -6.6966    1.0131   -0.7477 H   0  0  0  0  0  0  0  0  0  0  0  0
   -5.5538    1.2469   -2.8803 H   0  0  0  0  0  0  0  0  0  0  0  0
   -3.3227    0.1853   -3.2019 H   0  0  0  0  0  0  0  0  0  0  0  0
   -1.9891    1.3706   -0.3327 H   0  0  0  0  0  0  0  0  0  0  0  0
   -2.3258    2.6783    1.7713 H   0  0  0  0  0  0  0  0  0  0  0  0
   -1.7264    1.7055    3.9668 H   0  0  0  0  0  0  0  0  0  0  0  0
   -0.8001   -0.5713    4.0416 H   0  0  0  0  0  0  0  0  0  0  0  0
   -0.4742   -1.8557    1.9562 H   0  0  0  0  0  0  0  0  0  0  0  0
    0.7957    0.0137   -2.5444 H   0  0  0  0  0  0  0  0  0  0  0  0
    4.5859    2.7151    0.0581 H   0  0  0  0  0  0  0  0  0  0  0  0
  1  2  1  0
  2  3  1  0
  3  4  1  0
  4  5  2  0
  5  6  1  0
  6  7  1  0
  7  8  1  0
  8  9  1  0
  9 10  2  0
  9 11  1  0
 11 12  1  0
 12 13  1  0
 13 14  2  0
 14 15  1  0
 15 16  2  0
 16 17  1  0
 17 18  2  0
 12 19  2  0
 19 20  1  0
 20 21  2  0
 21 22  1  0
 22 23  2  0
 23 24  1  0
 24 25  2  0
  6 26  2  0
 26 27  1  0
 27 28  1  0
 28 29  2  0
 28 30  1  0
 27 31  2  0
 31 32  1  0
 31  4  1  0
 19  7  1  0
 25 20  1  0
 18 13  1  0
  1 33  1  0
  1 34  1  0
  1 35  1  0
  2 36  1  0
  2 37  1  0
  5 38  1  0
  7 39  1  1
  8 40  1  0
 11 41  1  0
 14 42  1  0
 15 43  1  0
 16 44  1  0
 17 45  1  0
 18 46  1  0
 21 47  1  0
 22 48  1  0
 23 49  1  0
 24 50  1  0
 25 51  1  0
 26 52  1  0
 32 53  1  0
M  CHG  2  28   1  30  -1
M  END
$$$$
