
     RDKit          3D

 61 63  0  0  0  0  0  0  0  0999 V2000
    2.7474    1.4243    1.5113 C   0  0  0  0  0  0  0  0  0  0  0  0
    2.5178    0.4739    0.3542 C   0  0  0  0  0  0  0  0  0  0  0  0
    2.9994   -0.8864    0.7997 C   0  0  0  0  0  0  0  0  0  0  0  0
    3.2685    0.9375   -0.8617 C   0  0  0  0  0  0  0  0  0  0  0  0
    4.7312    1.0091   -0.6352 C   0  0  0  0  0  0  0  0  0  0  0  0
    5.4965   -0.1088   -0.9118 C   0  0  0  0  0  0  0  0  0  0  0  0
    6.8451   -0.0911   -0.7169 C   0  0  0  0  0  0  0  0  0  0  0  0
    7.4299    1.0576   -0.2411 C   0  0  0  0  0  0  0  0  0  0  0  0
    6.6833    2.1622    0.0333 C   0  0  0  0  0  0  0  0  0  0  0  0
    5.3289    2.1569   -0.1579 C   0  0  0  0  0  0  0  0  0  0  0  0
    1.0389    0.4840    0.0477 C   0  0  0  0  0  0  0  0  0  0  0  0
    0.3036    0.0718    1.1457 O   0  0  0  0  0  0  0  0  0  0  0  0
   -0.9890    0.5413    1.0007 C   0  0  0  0  0  0  0  0  0  0  0  0
   -1.3726    0.5272   -0.4378 C   0  0  0  0  0  0  0  0  0  0  0  0
   -2.8926    0.4807   -0.5315 C   0  0  0  0  0  0  0  0  0  0  0  0
   -3.4975   -0.6819    0.1230 C   0  0  0  0  0  0  0  0  0  0  0  0
   -4.3506   -0.4915    1.1158 C   0  0  0  0  0  0  0  0  0  0  0  0
   -4.7946    0.7645    1.6773 C   0  0  0  0  0  0  0  0  0  0  0  0
   -6.3009    0.9733    1.5670 C   0  0  0  0  0  0  0  0  0  0  0  0
   -6.7361    0.9605    0.1651 C   0  0  0  0  0  0  0  0  0  0  0  0
   -6.8531   -0.1241   -0.4575 O   0  0  0  0  0  0  0  0  0  0  0  0
   -7.0177    2.1588   -0.4682 O   0  0  0  0  0  0  0  0  0  0  0  0
   -0.6269   -0.3355   -1.3573 C   0  0  0  0  0  0  0  0  0  0  0  0
   -1.0392   -1.7192   -1.5431 C   0  0  0  0  0  0  0  0  0  0  0  0
   -0.6283   -2.6954   -0.6684 C   0  0  0  0  0  0  0  0  0  0  0  0
   -1.0082   -4.0048   -0.8529 C   0  0  0  0  0  0  0  0  0  0  0  0
   -1.8053   -4.3671   -1.9128 C   0  0  0  0  0  0  0  0  0  0  0  0
   -2.1812   -3.3805   -2.7396 N   0  0  0  0  0  0  0  0  0  0  0  0
   -1.8383   -2.0925   -2.6031 C   0  0  0  0  0  0  0  0  0  0  0  0
    0.7344   -0.2506   -1.0801 O   0  0  0  0  0  0  0  0  0  0  0  0
    2.5618    2.4629    1.2188 H   0  0  0  0  0  0  0  0  0  0  0  0
    2.0680    1.1024    2.3340 H   0  0  0  0  0  0  0  0  0  0  0  0
    3.7859    1.2830    1.9281 H   0  0  0  0  0  0  0  0  0  0  0  0
    2.4689   -1.1620    1.7318 H   0  0  0  0  0  0  0  0  0  0  0  0
    4.0887   -0.8082    0.9825 H   0  0  0  0  0  0  0  0  0  0  0  0
    2.7532   -1.6702    0.0518 H   0  0  0  0  0  0  0  0  0  0  0  0
    3.0137    0.2120   -1.6838 H   0  0  0  0  0  0  0  0  0  0  0  0
    2.8415    1.9211   -1.1527 H   0  0  0  0  0  0  0  0  0  0  0  0
    4.9927   -0.9946   -1.2866 H   0  0  0  0  0  0  0  0  0  0  0  0
    7.4008   -0.9963   -0.9495 H   0  0  0  0  0  0  0  0  0  0  0  0
    8.5076    1.0943   -0.0776 H   0  0  0  0  0  0  0  0  0  0  0  0
    7.1474    3.0710    0.4097 H   0  0  0  0  0  0  0  0  0  0  0  0
    4.7090    3.0318    0.0553 H   0  0  0  0  0  0  0  0  0  0  0  0
    0.7883    1.5440   -0.1666 H   0  0  0  0  0  0  0  0  0  0  0  0
   -1.7143    0.0036    1.6527 H   0  0  0  0  0  0  0  0  0  0  0  0
   -0.9736    1.5846    1.4404 H   0  0  0  0  0  0  0  0  0  0  0  0
   -1.1358    1.6010   -0.7960 H   0  0  0  0  0  0  0  0  0  0  0  0
   -3.1710    0.5092   -1.6381 H   0  0  0  0  0  0  0  0  0  0  0  0
   -3.2383    1.4632   -0.1707 H   0  0  0  0  0  0  0  0  0  0  0  0
   -3.2719   -1.7242   -0.1799 H   0  0  0  0  0  0  0  0  0  0  0  0
   -4.7867   -1.4054    1.5831 H   0  0  0  0  0  0  0  0  0  0  0  0
   -4.6309    0.6727    2.8045 H   0  0  0  0  0  0  0  0  0  0  0  0
   -4.3237    1.6890    1.4135 H   0  0  0  0  0  0  0  0  0  0  0  0
   -6.8495    0.2223    2.1888 H   0  0  0  0  0  0  0  0  0  0  0  0
   -6.5501    1.9590    2.0048 H   0  0  0  0  0  0  0  0  0  0  0  0
   -6.9857    2.2532   -1.4666 H   0  0  0  0  0  0  0  0  0  0  0  0
   -0.7125    0.1457   -2.3930 H   0  0  0  0  0  0  0  0  0  0  0  0
    0.0135   -2.4660    0.2023 H   0  0  0  0  0  0  0  0  0  0  0  0
   -0.6713   -4.7660   -0.1471 H   0  0  0  0  0  0  0  0  0  0  0  0
   -2.1169   -5.4105   -2.0724 H   0  0  0  0  0  0  0  0  0  0  0  0
   -2.2014   -1.3771   -3.3352 H   0  0  0  0  0  0  0  0  0  0  0  0
  1  2  1  0
  2  3  1  0
  2  4  1  0
  4  5  1  0
  5  6  2  0
  6  7  1  0
  7  8  2  0
  8  9  1  0
  9 10  2  0
  2 11  1  0
 11 12  1  0
 12 13  1  0
 13 14  1  0
 14 15  1  0
 15 16  1  0
 16 17  2  0
 17 18  1  0
 18 19  1  0
 19 20  1  0
 20 21  2  0
 20 22  1  0
 14 23  1  0
 23 24  1  0
 24 25  2  0
 25 26  1  0
 26 27  2  0
 27 28  1  0
 28 29  2  0
 23 30  1  0
 10  5  1  0
 30 11  1  0
 29 24  1  0
  1 31  1  0
  1 32  1  0
  1 33  1  0
  3 34  1  0
  3 35  1  0
  3 36  1  0
  4 37  1  0
  4 38  1  0
  6 39  1  0
  7 40  1  0
  8 41  1  0
  9 42  1  0
 10 43  1  0
 11 44  1  0
 13 45  1  0
 13 46  1  0
 14 47  1  0
 15 48  1  0
 15 49  1  0
 16 50  1  0
 17 51  1  0
 18 52  1  0
 18 53  1  0
 19 54  1  0
 19 55  1  0
 22 56  1  0
 23 57  1  0
 25 58  1  0
 26 59  1  0
 27 60  1  0
 29 61  1  0
M  END
$$$$
