
     RDKit          3D

 42 46  0  0  0  0  0  0  0  0999 V2000
    5.4843   -3.1308   -0.6753 F   0  0  0  0  0  0  0  0  0  0  0  0
    4.6113   -2.1355   -0.4793 C   0  0  0  0  0  0  0  0  0  0  0  0
    4.5984   -0.9536   -1.1910 C   0  0  0  0  0  0  0  0  0  0  0  0
    3.6694    0.0269   -0.9354 C   0  0  0  0  0  0  0  0  0  0  0  0
    2.7112   -0.1491    0.0553 C   0  0  0  0  0  0  0  0  0  0  0  0
    1.7477    0.9355    0.2770 C   0  0  0  0  0  0  0  0  0  0  0  0
    1.9647    2.2071    0.6607 N   0  0  0  0  0  0  0  0  0  0  0  0
    0.7465    2.8171    0.7227 C   0  0  0  0  0  0  0  0  0  0  0  0
   -0.2196    1.9444    0.3840 N   0  0  0  0  0  0  0  0  0  0  0  0
   -1.6542    2.1803    0.3177 C   0  0  0  0  0  0  0  0  0  0  0  0
   -1.8674    3.5311   -0.3783 C   0  0  0  0  0  0  0  0  0  0  0  0
   -2.9005    3.8745    0.6671 C   0  0  0  0  0  0  0  0  0  0  0  0
   -4.1654    3.5778    0.1840 F   0  0  0  0  0  0  0  0  0  0  0  0
   -2.8160    5.1265    1.2008 F   0  0  0  0  0  0  0  0  0  0  0  0
   -2.2897    2.7714    1.5269 C   0  0  0  0  0  0  0  0  0  0  0  0
    0.3782    0.7698    0.1033 C   0  0  0  0  0  0  0  0  0  0  0  0
   -0.2756   -0.4599   -0.3089 C   0  0  0  0  0  0  0  0  0  0  0  0
   -0.0362   -1.0364   -1.5427 C   0  0  0  0  0  0  0  0  0  0  0  0
   -0.6646   -2.2033   -1.9137 C   0  0  0  0  0  0  0  0  0  0  0  0
   -1.5513   -2.8296   -1.0622 C   0  0  0  0  0  0  0  0  0  0  0  0
   -2.2791   -3.9634   -1.1971 N   0  0  0  0  0  0  0  0  0  0  0  0
   -2.9873   -4.1369   -0.0771 C   0  0  0  0  0  0  0  0  0  0  0  0
   -2.6697   -3.0742    0.7464 C   0  0  0  0  0  0  0  0  0  0  0  0
   -1.7823   -2.2774    0.1234 N   0  0  0  0  0  0  0  0  0  0  0  0
   -1.1779   -1.1316    0.5109 C   0  0  0  0  0  0  0  0  0  0  0  0
    2.7073   -1.3084    0.7686 C   0  0  0  0  0  0  0  0  0  0  0  0
    3.6437   -2.2808    0.5012 C   0  0  0  0  0  0  0  0  0  0  0  0
    3.6122   -3.7765    1.4482 Cl  0  0  0  0  0  0  0  0  0  0  0  0
    5.3546   -0.8244   -1.9674 H   0  0  0  0  0  0  0  0  0  0  0  0
    3.6996    0.9440   -1.5237 H   0  0  0  0  0  0  0  0  0  0  0  0
    0.5707    3.8511    1.0027 H   0  0  0  0  0  0  0  0  0  0  0  0
   -2.2084    1.4038   -0.2236 H   0  0  0  0  0  0  0  0  0  0  0  0
   -0.9958    4.2170   -0.2847 H   0  0  0  0  0  0  0  0  0  0  0  0
   -2.2166    3.4616   -1.4126 H   0  0  0  0  0  0  0  0  0  0  0  0
   -1.6132    3.1182    2.3124 H   0  0  0  0  0  0  0  0  0  0  0  0
   -3.1188    2.1360    1.9117 H   0  0  0  0  0  0  0  0  0  0  0  0
    0.6706   -0.5175   -2.1933 H   0  0  0  0  0  0  0  0  0  0  0  0
   -0.4636   -2.6372   -2.8809 H   0  0  0  0  0  0  0  0  0  0  0  0
   -3.6706   -4.9605    0.1209 H   0  0  0  0  0  0  0  0  0  0  0  0
   -3.0862   -2.9373    1.7268 H   0  0  0  0  0  0  0  0  0  0  0  0
   -1.4128   -0.7442    1.4818 H   0  0  0  0  0  0  0  0  0  0  0  0
    1.9528   -1.4258    1.5360 H   0  0  0  0  0  0  0  0  0  0  0  0
  1  2  1  0
  2  3  2  0
  3  4  1  0
  4  5  2  0
  5  6  1  0
  6  7  1  0
  7  8  2  0
  8  9  1  0
  9 10  1  0
 10 11  1  0
 11 12  1  0
 12 13  1  0
 12 14  1  0
 12 15  1  0
  9 16  1  0
 16 17  1  0
 17 18  1  0
 18 19  2  0
 19 20  1  0
 20 21  2  0
 21 22  1  0
 22 23  2  0
 23 24  1  0
 24 25  1  0
  5 26  1  0
 26 27  2  0
 27 28  1  0
 27  2  1  0
 16  6  2  0
 25 17  2  0
 15 10  1  0
 24 20  1  0
  3 29  1  0
  4 30  1  0
  8 31  1  0
 10 32  1  0
 11 33  1  0
 11 34  1  0
 15 35  1  0
 15 36  1  0
 18 37  1  0
 19 38  1  0
 22 39  1  0
 23 40  1  0
 25 41  1  0
 26 42  1  0
M  END
$$$$
