
     RDKit          3D

 46 48  0  0  0  0  0  0  0  0999 V2000
   -3.5687   -1.9699   -0.3776 C   0  0  0  0  0  0  0  0  0  0  0  0
   -2.9403   -0.6121   -0.0496 C   0  0  1  0  0  0  0  0  0  0  0  0
   -1.6577   -0.9114    0.6301 C   0  0  0  0  0  0  0  0  0  0  0  0
   -0.4222   -0.4869    0.2654 C   0  0  0  0  0  0  0  0  0  0  0  0
    0.7506   -0.8352    0.9822 C   0  0  0  0  0  0  0  0  0  0  0  0
    1.9821   -0.3293    0.5020 N   0  0  0  0  0  0  0  0  0  0  0  0
    3.2528   -0.5414    1.0437 C   0  0  0  0  0  0  0  0  0  0  0  0
    3.3799   -1.2457    2.0628 O   0  0  0  0  0  0  0  0  0  0  0  0
    4.4677    0.0415    0.4518 C   0  0  0  0  0  0  0  0  0  0  0  0
    5.6877   -0.2088    1.0379 C   0  0  0  0  0  0  0  0  0  0  0  0
    6.8411    0.2897    0.5535 N   0  0  0  0  0  0  0  0  0  0  0  0
    6.8122    1.0613   -0.5422 C   0  0  0  0  0  0  0  0  0  0  0  0
    8.0687    1.6211   -1.0934 C   0  0  0  0  0  0  0  0  0  0  0  0
    7.9455    2.9810   -1.1551 F   0  0  0  0  0  0  0  0  0  0  0  0
    8.2126    1.1272   -2.3873 F   0  0  0  0  0  0  0  0  0  0  0  0
    5.5776    1.3027   -1.1184 C   0  0  0  0  0  0  0  0  0  0  0  0
    4.4293    0.8020   -0.6299 N   0  0  0  0  0  0  0  0  0  0  0  0
    0.6450   -1.6293    2.0854 C   0  0  0  0  0  0  0  0  0  0  0  0
   -0.6307   -2.0806    2.4800 C   0  0  0  0  0  0  0  0  0  0  0  0
   -0.6793   -2.8715    3.5893 F   0  0  0  0  0  0  0  0  0  0  0  0
   -1.7347   -1.7252    1.7664 C   0  0  0  0  0  0  0  0  0  0  0  0
   -2.9341   -2.1664    2.1614 F   0  0  0  0  0  0  0  0  0  0  0  0
   -2.8499    0.1968   -1.2872 C   0  0  0  0  0  0  0  0  0  0  0  0
   -3.9793    1.1946   -1.4754 C   0  0  1  0  0  0  0  0  0  0  0  0
   -5.2888    0.5917   -1.8436 C   0  0  0  0  0  0  0  0  0  0  0  0
   -5.8073   -0.2919   -0.9342 F   0  0  0  0  0  0  0  0  0  0  0  0
   -6.2125    1.6443   -1.9208 F   0  0  0  0  0  0  0  0  0  0  0  0
   -5.2589    0.0541   -3.1266 F   0  0  0  0  0  0  0  0  0  0  0  0
   -4.1738    1.9482   -0.2831 O   0  0  0  0  0  0  0  0  0  0  0  0
   -4.3113    1.1840    0.8784 C   0  0  0  0  0  0  0  0  0  0  0  0
   -5.1011    1.7426    1.9524 N   0  0  0  0  0  0  0  0  0  0  0  0
   -3.7571    0.0605    0.9527 N   0  0  0  0  0  0  0  0  0  0  0  0
   -4.3832   -2.1893    0.3212 H   0  0  0  0  0  0  0  0  0  0  0  0
   -2.7909   -2.7361   -0.2134 H   0  0  0  0  0  0  0  0  0  0  0  0
   -3.8625   -2.0487   -1.4438 H   0  0  0  0  0  0  0  0  0  0  0  0
   -0.2930    0.1297   -0.5894 H   0  0  0  0  0  0  0  0  0  0  0  0
    1.9875    0.2959   -0.3800 H   0  0  0  0  0  0  0  0  0  0  0  0
    5.7771   -0.8317    1.9349 H   0  0  0  0  0  0  0  0  0  0  0  0
    8.9221    1.2931   -0.4675 H   0  0  0  0  0  0  0  0  0  0  0  0
    5.6015    1.9350   -2.0070 H   0  0  0  0  0  0  0  0  0  0  0  0
    1.5004   -1.9232    2.6646 H   0  0  0  0  0  0  0  0  0  0  0  0
   -1.9312    0.7766   -1.3214 H   0  0  0  0  0  0  0  0  0  0  0  0
   -2.8757   -0.4481   -2.1958 H   0  0  0  0  0  0  0  0  0  0  0  0
   -3.6785    1.8745   -2.2969 H   0  0  0  0  0  0  0  0  0  0  0  0
   -5.9424    1.2774    2.3444 H   0  0  0  0  0  0  0  0  0  0  0  0
   -4.7766    2.6572    2.3228 H   0  0  0  0  0  0  0  0  0  0  0  0
  2  1  1  6
  2  3  1  0
  3  4  2  0
  4  5  1  0
  5  6  1  0
  6  7  1  0
  7  8  2  0
  7  9  1  0
  9 10  2  0
 10 11  1  0
 11 12  2  0
 12 13  1  0
 13 14  1  0
 13 15  1  0
 12 16  1  0
 16 17  2  0
  5 18  2  0
 18 19  1  0
 19 20  1  0
 19 21  2  0
 21 22  1  0
  2 23  1  0
 23 24  1  0
 24 25  1  0
 25 26  1  0
 25 27  1  0
 25 28  1  0
 24 29  1  0
 29 30  1  0
 30 31  1  0
 30 32  2  0
 32  2  1  0
 21  3  1  0
 17  9  1  0
  1 33  1  0
  1 34  1  0
  1 35  1  0
  4 36  1  0
  6 37  1  0
 10 38  1  0
 13 39  1  0
 16 40  1  0
 18 41  1  0
 23 42  1  0
 23 43  1  0
 24 44  1  6
 31 45  1  0
 31 46  1  0
M  END
$$$$
