
     RDKit          3D

 41 44  0  0  0  0  0  0  0  0999 V2000
    8.8277    0.3679    0.5411 C   0  0  0  0  0  0  0  0  0  0  0  0
    8.1444    0.7479    1.6257 N   0  0  0  0  0  0  0  0  0  0  0  0
    6.7985    0.5608    1.7595 C   0  0  0  0  0  0  0  0  0  0  0  0
    6.1193   -0.0441    0.7260 C   0  0  0  0  0  0  0  0  0  0  0  0
    4.7028   -0.2175    0.8832 C   0  0  0  0  0  0  0  0  0  0  0  0
    3.8739    0.1553    1.9502 C   0  0  0  0  0  0  0  0  0  0  0  0
    2.6284   -0.1401    1.8110 N   0  0  0  0  0  0  0  0  0  0  0  0
    2.0606   -0.6994    0.8831 C   0  0  0  0  0  0  0  0  0  0  0  0
    0.7779   -1.1207    0.4990 N   0  0  0  0  0  0  0  0  0  0  0  0
   -0.0925   -0.4988   -0.4069 C   0  0  0  0  0  0  0  0  0  0  0  0
   -1.4653   -0.4537   -0.1478 C   0  0  0  0  0  0  0  0  0  0  0  0
   -2.3898    0.0937   -0.9739 C   0  0  0  0  0  0  0  0  0  0  0  0
   -3.7523    0.1128   -0.5620 N   0  0  0  0  0  0  0  0  0  0  0  0
   -4.1253    0.5573    0.7802 C   0  0  0  0  0  0  0  0  0  0  0  0
   -5.4293    1.3411    0.5712 C   0  0  0  0  0  0  0  0  0  0  0  0
   -6.4785    0.4446    0.1732 N   0  0  0  0  0  0  0  0  0  0  0  0
   -6.0969   -0.5683   -0.7579 C   0  0  0  0  0  0  0  0  0  0  0  0
   -4.7795   -0.3175   -1.4496 C   0  0  0  0  0  0  0  0  0  0  0  0
   -1.9620    0.6471   -2.1605 C   0  0  0  0  0  0  0  0  0  0  0  0
   -0.6013    0.6059   -2.4248 C   0  0  0  0  0  0  0  0  0  0  0  0
    0.2850    0.0478   -1.5644 N   0  0  0  0  0  0  0  0  0  0  0  0
    3.5732   -0.9595   -0.2094 S   0  0  0  0  0  0  0  0  0  0  0  0
    6.8155   -0.4373   -0.3909 C   0  0  0  0  0  0  0  0  0  0  0  0
    8.1687   -0.2221   -0.4648 N   0  0  0  0  0  0  0  0  0  0  0  0
    9.9111    0.5247    0.4421 H   0  0  0  0  0  0  0  0  0  0  0  0
    6.2798    0.8686    2.6370 H   0  0  0  0  0  0  0  0  0  0  0  0
    4.2814    0.6750    2.8533 H   0  0  0  0  0  0  0  0  0  0  0  0
    0.4261   -2.0193    0.9354 H   0  0  0  0  0  0  0  0  0  0  0  0
   -1.7986   -0.8878    0.7798 H   0  0  0  0  0  0  0  0  0  0  0  0
   -3.3625    1.2355    1.2030 H   0  0  0  0  0  0  0  0  0  0  0  0
   -4.3610   -0.3219    1.3792 H   0  0  0  0  0  0  0  0  0  0  0  0
   -5.2773    2.1722   -0.1243 H   0  0  0  0  0  0  0  0  0  0  0  0
   -5.7144    1.7395    1.5633 H   0  0  0  0  0  0  0  0  0  0  0  0
   -6.9838    0.0558    1.0195 H   0  0  0  0  0  0  0  0  0  0  0  0
   -6.8703   -0.6346   -1.5468 H   0  0  0  0  0  0  0  0  0  0  0  0
   -6.1096   -1.5716   -0.2341 H   0  0  0  0  0  0  0  0  0  0  0  0
   -4.8824    0.3249   -2.3458 H   0  0  0  0  0  0  0  0  0  0  0  0
   -4.4696   -1.3318   -1.8403 H   0  0  0  0  0  0  0  0  0  0  0  0
   -2.6619    1.0893   -2.8472 H   0  0  0  0  0  0  0  0  0  0  0  0
   -0.2967    1.0487   -3.3653 H   0  0  0  0  0  0  0  0  0  0  0  0
    6.2868   -0.9075   -1.1988 H   0  0  0  0  0  0  0  0  0  0  0  0
  1  2  2  0
  2  3  1  0
  3  4  2  0
  4  5  1  0
  5  6  2  0
  6  7  1  0
  7  8  2  0
  8  9  1  0
  9 10  1  0
 10 11  2  0
 11 12  1  0
 12 13  1  0
 13 14  1  0
 14 15  1  0
 15 16  1  0
 16 17  1  0
 17 18  1  0
 12 19  2  0
 19 20  1  0
 20 21  2  0
  8 22  1  0
  4 23  1  0
 23 24  2  0
 24  1  1  0
 22  5  1  0
 21 10  1  0
 18 13  1  0
  1 25  1  0
  3 26  1  0
  6 27  1  0
  9 28  1  0
 11 29  1  0
 14 30  1  0
 14 31  1  0
 15 32  1  0
 15 33  1  0
 16 34  1  0
 17 35  1  0
 17 36  1  0
 18 37  1  0
 18 38  1  0
 19 39  1  0
 20 40  1  0
 23 41  1  0
M  END
$$$$
