
     RDKit          3D

 62 63  0  0  0  0  0  0  0  0999 V2000
    2.5976    0.1473   -0.4563 C   0  0  1  0  0  0  0  0  0  0  0  0
    3.6270    1.1806   -0.6967 C   0  0  0  0  0  0  0  0  0  0  0  0
    3.2352    2.3424   -1.5642 C   0  0  0  0  0  0  0  0  0  0  0  0
    2.0858    3.0505   -0.9834 C   0  0  0  0  0  0  0  0  0  0  0  0
    2.1165    3.8144    0.1667 O   0  0  0  0  0  0  0  0  0  0  0  0
    0.9979    2.9101   -1.6403 O   0  0  0  0  0  0  0  0  0  0  0  0
    3.0822   -0.9592    0.3971 C   0  0  0  0  0  0  0  0  0  0  0  0
    4.1680   -1.8531    0.0047 C   0  0  0  0  0  0  0  0  0  0  0  0
    5.5105   -1.4354   -0.2734 C   0  0  0  0  0  0  0  0  0  0  0  0
    6.2241   -1.2727    0.9061 C   0  0  0  0  0  0  0  0  0  0  0  0
    7.5796   -0.9196    0.9505 C   0  0  0  0  0  0  0  0  0  0  0  0
    8.2739   -0.7144   -0.2294 C   0  0  0  0  0  0  0  0  0  0  0  0
    7.6125   -0.8626   -1.4482 C   0  0  0  0  0  0  0  0  0  0  0  0
    6.2869   -1.2096   -1.4188 C   0  0  0  0  0  0  0  0  0  0  0  0
    1.2984    0.6078   -0.1727 N   0  0  0  0  0  0  0  0  0  0  0  0
    0.5918    0.9144    0.7824 C   0  0  0  0  0  0  0  0  0  0  0  0
    0.7864    0.9449    2.1578 O   0  0  0  0  0  0  0  0  0  0  0  0
   -0.8262    1.3790    0.5424 C   0  0  0  0  0  0  0  0  0  0  0  0
   -1.8072    0.4835    1.2396 C   0  0  0  0  0  0  0  0  0  0  0  0
   -3.2073    1.0143    0.9421 C   0  0  0  0  0  0  0  0  0  0  0  0
   -4.2340    0.1566    1.6288 C   0  0  0  0  0  0  0  0  0  0  0  0
   -4.1566   -1.2532    1.1547 C   0  0  0  0  0  0  0  0  0  0  0  0
   -4.4266   -1.3985   -0.3160 C   0  0  0  0  0  0  0  0  0  0  0  0
   -5.7885   -0.9356   -0.6282 C   0  0  0  0  0  0  0  0  0  0  0  0
   -6.7673   -1.9328   -0.5349 C   0  0  0  0  0  0  0  0  0  0  0  0
   -8.1025   -1.7231   -0.7837 C   0  0  0  0  0  0  0  0  0  0  0  0
   -8.5177   -0.4593   -1.1481 C   0  0  0  0  0  0  0  0  0  0  0  0
   -7.5874    0.5545   -1.2527 C   0  0  0  0  0  0  0  0  0  0  0  0
   -6.2744    0.2874   -0.9938 C   0  0  0  0  0  0  0  0  0  0  0  0
    2.4799   -0.3643   -1.5033 H   0  0  0  0  0  0  0  0  0  0  0  0
    4.0374    1.5242    0.2880 H   0  0  0  0  0  0  0  0  0  0  0  0
    4.4711    0.7020   -1.2249 H   0  0  0  0  0  0  0  0  0  0  0  0
    4.0656    3.1094   -1.6102 H   0  0  0  0  0  0  0  0  0  0  0  0
    3.0853    2.0548   -2.6194 H   0  0  0  0  0  0  0  0  0  0  0  0
    1.2609    4.1570    0.6211 H   0  0  0  0  0  0  0  0  0  0  0  0
    3.2536   -0.5227    1.4359 H   0  0  0  0  0  0  0  0  0  0  0  0
    2.1736   -1.6250    0.5798 H   0  0  0  0  0  0  0  0  0  0  0  0
    3.7759   -2.4133   -0.9311 H   0  0  0  0  0  0  0  0  0  0  0  0
    4.1715   -2.7470    0.7400 H   0  0  0  0  0  0  0  0  0  0  0  0
    5.8683   -1.3863    1.9256 H   0  0  0  0  0  0  0  0  0  0  0  0
    8.1756   -0.7810    1.8387 H   0  0  0  0  0  0  0  0  0  0  0  0
    9.3106   -0.4407   -0.3533 H   0  0  0  0  0  0  0  0  0  0  0  0
    8.0408   -0.7324   -2.4274 H   0  0  0  0  0  0  0  0  0  0  0  0
    5.6359   -1.3619   -2.2934 H   0  0  0  0  0  0  0  0  0  0  0  0
    1.5330    0.4285    2.6114 H   0  0  0  0  0  0  0  0  0  0  0  0
   -1.0075    1.2804   -0.5416 H   0  0  0  0  0  0  0  0  0  0  0  0
   -0.9565    2.4302    0.8590 H   0  0  0  0  0  0  0  0  0  0  0  0
   -1.6637   -0.5488    0.9119 H   0  0  0  0  0  0  0  0  0  0  0  0
   -1.6145    0.5765    2.3463 H   0  0  0  0  0  0  0  0  0  0  0  0
   -3.3830    1.0191   -0.1382 H   0  0  0  0  0  0  0  0  0  0  0  0
   -3.2432    2.0677    1.3263 H   0  0  0  0  0  0  0  0  0  0  0  0
   -4.0979    0.1917    2.7337 H   0  0  0  0  0  0  0  0  0  0  0  0
   -5.2412    0.5596    1.3968 H   0  0  0  0  0  0  0  0  0  0  0  0
   -3.2044   -1.7679    1.4133 H   0  0  0  0  0  0  0  0  0  0  0  0
   -4.9474   -1.8771    1.6627 H   0  0  0  0  0  0  0  0  0  0  0  0
   -4.2815   -2.4603   -0.6029 H   0  0  0  0  0  0  0  0  0  0  0  0
   -3.7158   -0.8091   -0.9588 H   0  0  0  0  0  0  0  0  0  0  0  0
   -6.5324   -2.9614   -0.2528 H   0  0  0  0  0  0  0  0  0  0  0  0
   -8.8521   -2.4875   -0.7128 H   0  0  0  0  0  0  0  0  0  0  0  0
   -9.5660   -0.2842   -1.3457 H   0  0  0  0  0  0  0  0  0  0  0  0
   -7.8672    1.5554   -1.5343 H   0  0  0  0  0  0  0  0  0  0  0  0
   -5.5435    1.0558   -1.0715 H   0  0  0  0  0  0  0  0  0  0  0  0
  1  2  1  0
  2  3  1  0
  3  4  1  0
  4  5  1  0
  4  6  2  0
  1  7  1  0
  7  8  1  0
  8  9  1  0
  9 10  2  0
 10 11  1  0
 11 12  2  0
 12 13  1  0
 13 14  2  0
  1 15  1  0
 15 16  2  3
 16 17  1  0
 16 18  1  0
 18 19  1  0
 19 20  1  0
 20 21  1  0
 21 22  1  0
 22 23  1  0
 23 24  1  0
 24 25  2  0
 25 26  1  0
 26 27  2  0
 27 28  1  0
 28 29  2  0
 14  9  1  0
 29 24  1  0
  1 30  1  6
  2 31  1  0
  2 32  1  0
  3 33  1  0
  3 34  1  0
  5 35  1  0
  7 36  1  0
  7 37  1  0
  8 38  1  0
  8 39  1  0
 10 40  1  0
 11 41  1  0
 12 42  1  0
 13 43  1  0
 14 44  1  0
 17 45  1  0
 18 46  1  0
 18 47  1  0
 19 48  1  0
 19 49  1  0
 20 50  1  0
 20 51  1  0
 21 52  1  0
 21 53  1  0
 22 54  1  0
 22 55  1  0
 23 56  1  0
 23 57  1  0
 25 58  1  0
 26 59  1  0
 27 60  1  0
 28 61  1  0
 29 62  1  0
M  END
$$$$
