
     RDKit          3D

 79 84  0  0  0  0  0  0  0  0999 V2000
   -2.0762    0.3709   -0.3675 C   0  0  0  0  0  0  0  0  0  0  0  0
   -1.9675   -0.8097    0.4970 C   0  0  0  0  0  0  0  0  0  0  0  0
   -3.1000   -1.4505    0.9872 C   0  0  0  0  0  0  0  0  0  0  0  0
   -4.3826   -0.9796    0.6216 N   0  0  0  0  0  0  0  0  0  0  0  0
   -5.6175   -1.3832    1.1708 C   0  0  0  0  0  0  0  0  0  0  0  0
   -5.6548   -2.2323    2.0748 O   0  0  0  0  0  0  0  0  0  0  0  0
   -6.9266   -0.8504    0.7368 C   0  0  0  0  0  0  0  0  0  0  0  0
   -7.0655    0.0492   -0.2942 C   0  0  0  0  0  0  0  0  0  0  0  0
   -8.3269    0.5279   -0.6592 C   0  0  0  0  0  0  0  0  0  0  0  0
   -9.4754    0.1293   -0.0142 C   0  0  0  0  0  0  0  0  0  0  0  0
  -10.8228    0.6280   -0.3993 C   0  0  0  0  0  0  0  0  0  0  0  0
  -11.1836    1.9170    0.3078 C   0  0  0  0  0  0  0  0  0  0  0  0
  -11.0132    0.7769   -1.8704 C   0  0  0  0  0  0  0  0  0  0  0  0
  -11.8575   -0.3968    0.0933 C   0  0  0  0  0  0  0  0  0  0  0  0
   -9.3286   -0.7744    1.0210 C   0  0  0  0  0  0  0  0  0  0  0  0
   -8.0853   -1.2425    1.3754 C   0  0  0  0  0  0  0  0  0  0  0  0
   -2.9022   -2.5408    1.8021 C   0  0  0  0  0  0  0  0  0  0  0  0
   -1.6312   -3.0010    2.1351 C   0  0  0  0  0  0  0  0  0  0  0  0
   -0.5157   -2.3696    1.6519 C   0  0  0  0  0  0  0  0  0  0  0  0
   -0.7134   -1.2772    0.8357 C   0  0  0  0  0  0  0  0  0  0  0  0
    0.5188   -0.6224    0.3530 C   0  0  0  0  0  0  0  0  0  0  0  0
    1.7176   -1.0805    0.7430 N   0  0  0  0  0  0  0  0  0  0  0  0
    2.9199   -0.5932    0.4001 C   0  0  0  0  0  0  0  0  0  0  0  0
    4.1068   -1.1976    0.8653 N   0  0  0  0  0  0  0  0  0  0  0  0
    5.3619   -0.5980    0.8798 C   0  0  0  0  0  0  0  0  0  0  0  0
    6.4454   -1.4292    0.5560 C   0  0  0  0  0  0  0  0  0  0  0  0
    7.7226   -0.9235    0.6001 C   0  0  0  0  0  0  0  0  0  0  0  0
    7.9452    0.3918    0.9587 C   0  0  0  0  0  0  0  0  0  0  0  0
    9.3167    0.8915    1.0134 C   0  0  0  0  0  0  0  0  0  0  0  0
    9.7636    1.2373    2.1458 O   0  0  0  0  0  0  0  0  0  0  0  0
   10.1721    1.0119   -0.1049 N   0  0  0  0  0  0  0  0  0  0  0  0
    9.7505    0.6517   -1.4277 C   0  0  0  0  0  0  0  0  0  0  0  0
   10.8529   -0.0403   -2.2052 C   0  0  0  0  0  0  0  0  0  0  0  0
   12.0990    0.4925   -1.9290 O   0  0  0  0  0  0  0  0  0  0  0  0
   12.4198    0.4550   -0.5791 C   0  0  0  0  0  0  0  0  0  0  0  0
   11.5448    1.5135    0.1080 C   0  0  0  0  0  0  0  0  0  0  0  0
    6.9034    1.2323    1.2812 C   0  0  0  0  0  0  0  0  0  0  0  0
    5.6211    0.7113    1.2342 C   0  0  0  0  0  0  0  0  0  0  0  0
    2.9320    0.4949   -0.4450 C   0  0  0  0  0  0  0  0  0  0  0  0
    3.9263    1.2353   -1.0078 N   0  0  0  0  0  0  0  0  0  0  0  0
    3.3202    2.1620   -1.7533 C   0  0  0  0  0  0  0  0  0  0  0  0
    1.9874    2.0317   -1.6808 N   0  0  0  0  0  0  0  0  0  0  0  0
    1.6934    0.9801   -0.8574 C   0  0  0  0  0  0  0  0  0  0  0  0
    0.5340    0.4332   -0.4661 N   0  0  0  0  0  0  0  0  0  0  0  0
   -3.0605    0.7100   -0.6537 H   0  0  0  0  0  0  0  0  0  0  0  0
   -1.5725    0.0835   -1.3424 H   0  0  0  0  0  0  0  0  0  0  0  0
   -1.5431    1.2625    0.0764 H   0  0  0  0  0  0  0  0  0  0  0  0
   -4.4689   -0.2634   -0.1452 H   0  0  0  0  0  0  0  0  0  0  0  0
   -6.2044    0.3956   -0.8340 H   0  0  0  0  0  0  0  0  0  0  0  0
   -8.4198    1.2427   -1.4790 H   0  0  0  0  0  0  0  0  0  0  0  0
  -12.0124    2.4162   -0.2464 H   0  0  0  0  0  0  0  0  0  0  0  0
  -11.5226    1.7580    1.3398 H   0  0  0  0  0  0  0  0  0  0  0  0
  -10.3036    2.5885    0.2397 H   0  0  0  0  0  0  0  0  0  0  0  0
  -11.9759    0.3602   -2.1907 H   0  0  0  0  0  0  0  0  0  0  0  0
  -10.9705    1.8107   -2.2487 H   0  0  0  0  0  0  0  0  0  0  0  0
  -10.2233    0.2170   -2.4447 H   0  0  0  0  0  0  0  0  0  0  0  0
  -12.8199   -0.2685   -0.4396 H   0  0  0  0  0  0  0  0  0  0  0  0
  -12.0615   -0.2641    1.1598 H   0  0  0  0  0  0  0  0  0  0  0  0
  -11.4799   -1.4088   -0.1602 H   0  0  0  0  0  0  0  0  0  0  0  0
  -10.2335   -1.1036    1.5455 H   0  0  0  0  0  0  0  0  0  0  0  0
   -8.0078   -1.9461    2.1853 H   0  0  0  0  0  0  0  0  0  0  0  0
   -3.7224   -3.0868    2.2080 H   0  0  0  0  0  0  0  0  0  0  0  0
   -1.4772   -3.8676    2.7801 H   0  0  0  0  0  0  0  0  0  0  0  0
    0.4675   -2.7249    1.9086 H   0  0  0  0  0  0  0  0  0  0  0  0
    4.0084   -2.1957    1.2300 H   0  0  0  0  0  0  0  0  0  0  0  0
    6.2788   -2.4635    0.2734 H   0  0  0  0  0  0  0  0  0  0  0  0
    8.5534   -1.5993    0.3496 H   0  0  0  0  0  0  0  0  0  0  0  0
    8.8888   -0.0355   -1.3904 H   0  0  0  0  0  0  0  0  0  0  0  0
    9.4221    1.5795   -1.9319 H   0  0  0  0  0  0  0  0  0  0  0  0
   10.6531    0.1417   -3.2828 H   0  0  0  0  0  0  0  0  0  0  0  0
   10.8357   -1.1491   -2.0784 H   0  0  0  0  0  0  0  0  0  0  0  0
   13.4788    0.6298   -0.3999 H   0  0  0  0  0  0  0  0  0  0  0  0
   12.1328   -0.5135   -0.1014 H   0  0  0  0  0  0  0  0  0  0  0  0
   11.7660    1.6078    1.1712 H   0  0  0  0  0  0  0  0  0  0  0  0
   11.6666    2.4426   -0.4741 H   0  0  0  0  0  0  0  0  0  0  0  0
    7.1039    2.2567    1.5581 H   0  0  0  0  0  0  0  0  0  0  0  0
    4.8069    1.3644    1.5112 H   0  0  0  0  0  0  0  0  0  0  0  0
    3.8557    2.9012   -2.3266 H   0  0  0  0  0  0  0  0  0  0  0  0
    1.2325    2.5895   -2.1376 H   0  0  0  0  0  0  0  0  0  0  0  0
  1  2  1  0
  2  3  2  0
  3  4  1  0
  4  5  1  0
  5  6  2  0
  5  7  1  0
  7  8  2  0
  8  9  1  0
  9 10  2  0
 10 11  1  0
 11 12  1  0
 11 13  1  0
 11 14  1  0
 10 15  1  0
 15 16  2  0
  3 17  1  0
 17 18  2  0
 18 19  1  0
 19 20  2  0
 20 21  1  0
 21 22  2  0
 22 23  1  0
 23 24  1  0
 24 25  1  0
 25 26  2  0
 26 27  1  0
 27 28  2  0
 28 29  1  0
 29 30  2  0
 29 31  1  0
 31 32  1  0
 32 33  1  0
 33 34  1  0
 34 35  1  0
 35 36  1  0
 28 37  1  0
 37 38  2  0
 23 39  2  0
 39 40  1  0
 40 41  2  0
 41 42  1  0
 42 43  1  0
 43 44  2  0
 20  2  1  0
 44 21  1  0
 16  7  1  0
 38 25  1  0
 43 39  1  0
 36 31  1  0
  1 45  1  0
  1 46  1  0
  1 47  1  0
  4 48  1  0
  8 49  1  0
  9 50  1  0
 12 51  1  0
 12 52  1  0
 12 53  1  0
 13 54  1  0
 13 55  1  0
 13 56  1  0
 14 57  1  0
 14 58  1  0
 14 59  1  0
 15 60  1  0
 16 61  1  0
 17 62  1  0
 18 63  1  0
 19 64  1  0
 24 65  1  0
 26 66  1  0
 27 67  1  0
 32 68  1  0
 32 69  1  0
 33 70  1  0
 33 71  1  0
 35 72  1  0
 35 73  1  0
 36 74  1  0
 36 75  1  0
 37 76  1  0
 38 77  1  0
 41 78  1  0
 42 79  1  0
M  END
$$$$
