
     RDKit          3D

 19 18  0  0  0  0  0  0  0  0999 V2000
    4.5594    1.2765    0.3665 S   0  0  0  0  0  0  0  0  0  0  0  0
    3.1834    0.1383    0.2713 C   0  0  0  0  0  0  0  0  0  0  0  0
    2.1228    0.4382   -0.4738 C   0  0  0  0  0  0  0  0  0  0  0  0
    0.9967   -0.5016   -0.5470 C   0  0  0  0  0  0  0  0  0  0  0  0
   -0.5602    0.2016    0.0347 S   0  0  0  0  0  4  0  0  0  0  0  0
   -0.4951    0.4499    1.5535 O   0  0  0  0  0  0  0  0  0  0  0  0
   -1.7724   -1.1404   -0.1568 C   0  0  0  0  0  0  0  0  0  0  0  0
   -3.0723   -0.6181    0.3068 C   0  0  0  0  0  0  0  0  0  0  0  0
   -3.0245    0.6563    0.7308 C   0  0  0  0  0  0  0  0  0  0  0  0
    4.4603    2.3100   -0.5520 H   0  0  0  0  0  0  0  0  0  0  0  0
    3.2706   -0.7888    0.8477 H   0  0  0  0  0  0  0  0  0  0  0  0
    2.0365    1.3568   -1.0448 H   0  0  0  0  0  0  0  0  0  0  0  0
    0.8083   -0.8195   -1.6098 H   0  0  0  0  0  0  0  0  0  0  0  0
    1.1454   -1.4357    0.0112 H   0  0  0  0  0  0  0  0  0  0  0  0
   -1.4322   -2.0372    0.3879 H   0  0  0  0  0  0  0  0  0  0  0  0
   -1.8896   -1.3745   -1.2391 H   0  0  0  0  0  0  0  0  0  0  0  0
   -4.0720   -0.9805    0.4028 H   0  0  0  0  0  0  0  0  0  0  0  0
   -2.4514    1.5604    0.9132 H   0  0  0  0  0  0  0  0  0  0  0  0
   -3.8136    1.3082    1.1264 H   0  0  0  0  0  0  0  0  0  0  0  0
  1  2  1  0
  2  3  2  0
  3  4  1  0
  5  4  1  1
  5  6  2  0
  5  7  1  0
  7  8  1  0
  8  9  2  0
  1 10  1  0
  2 11  1  0
  3 12  1  0
  4 13  1  0
  4 14  1  0
  7 15  1  0
  7 16  1  0
  8 17  1  0
  9 18  1  0
  9 19  1  0
M  END
$$$$
