
     RDKit          3D

 65 65  0  0  0  0  0  0  0  0999 V2000
   -4.0509    4.3278   -0.7065 C   0  0  0  0  0  0  0  0  0  0  0  0
   -2.5551    4.5034   -0.9885 C   0  0  0  0  0  0  0  0  0  0  0  0
   -1.8348    3.4873   -0.1347 C   0  0  0  0  0  0  0  0  0  0  0  0
   -2.1744    3.7475    1.6070 S   0  0  0  0  0  0  0  0  0  0  0  0
   -1.5540    5.0962    1.9001 O   0  0  0  0  0  0  0  0  0  0  0  0
   -3.6191    3.8663    1.9041 O   0  0  0  0  0  0  0  0  0  0  0  0
   -1.3563    2.5963    2.5529 N   0  0  0  0  0  0  0  0  0  0  0  0
   -1.7273    1.2274    2.3020 C   0  0  2  0  0  0  0  0  0  0  0  0
   -2.3870    0.5856    3.5040 C   0  0  2  0  0  0  0  0  0  0  0  0
   -1.4626    0.5547    4.6995 C   0  0  0  0  0  0  0  0  0  0  0  0
   -2.7219   -0.7240    3.1973 O   0  0  0  0  0  0  0  0  0  0  0  0
   -0.6048    0.4044    1.8440 C   0  0  0  0  0  0  0  0  0  0  0  0
    0.5209    0.9679    1.8314 O   0  0  0  0  0  0  0  0  0  0  0  0
   -0.5947   -0.9473    1.4042 N   0  0  0  0  0  0  0  0  0  0  0  0
    0.5716   -1.6479    0.9786 C   0  0  1  0  0  0  0  0  0  0  0  0
    0.8466   -2.9013    1.7554 C   0  0  0  0  0  0  0  0  0  0  0  0
    1.0578   -2.7111    3.2198 C   0  0  0  0  0  0  0  0  0  0  0  0
    1.3778   -4.3542    3.9749 S   0  0  0  0  0  0  0  0  0  0  0  0
   -0.1049   -5.4058    3.8569 C   0  0  0  0  0  0  0  0  0  0  0  0
    0.5176   -1.9956   -0.4679 C   0  0  0  0  0  0  0  0  0  0  0  0
   -0.5309   -1.6321   -1.0591 O   0  0  0  0  0  0  0  0  0  0  0  0
    1.5498   -2.6817   -1.1561 N   0  0  0  0  0  0  0  0  0  0  0  0
    1.5483   -3.0410   -2.5593 C   0  0  0  0  0  0  0  0  0  0  0  0
    1.8376   -1.8490   -3.3652 C   0  0  0  0  0  0  0  0  0  0  0  0
    3.1744   -1.5896   -3.6221 C   0  0  0  0  0  0  0  0  0  0  0  0
    3.6545   -0.5236   -4.3594 C   0  0  0  0  0  0  0  0  0  0  0  0
    2.7313    0.3497   -4.8799 C   0  0  0  0  0  0  0  0  0  0  0  0
    1.3892    0.1249   -4.6457 C   0  0  0  0  0  0  0  0  0  0  0  0
    0.9370   -0.9540   -3.9018 C   0  0  0  0  0  0  0  0  0  0  0  0
    3.1066    1.5271   -5.6863 C   0  0  0  0  0  0  0  0  0  0  0  0
    4.2792    1.3482   -6.4566 N   0  0  0  0  0  0  0  0  0  0  0  0
    2.5310    2.6711   -5.7883 N   0  0  0  0  0  0  0  0  0  0  0  0
   -4.3435    5.1621   -0.0455 H   0  0  0  0  0  0  0  0  0  0  0  0
   -4.2851    3.3331   -0.2880 H   0  0  0  0  0  0  0  0  0  0  0  0
   -4.6304    4.4597   -1.6465 H   0  0  0  0  0  0  0  0  0  0  0  0
   -2.4296    4.1347   -2.0460 H   0  0  0  0  0  0  0  0  0  0  0  0
   -2.2020    5.5242   -0.8468 H   0  0  0  0  0  0  0  0  0  0  0  0
   -0.7401    3.6133   -0.2666 H   0  0  0  0  0  0  0  0  0  0  0  0
   -2.1900    2.4931   -0.4679 H   0  0  0  0  0  0  0  0  0  0  0  0
   -0.3386    2.6722    2.3338 H   0  0  0  0  0  0  0  0  0  0  0  0
   -2.4859    1.2535    1.5015 H   0  0  0  0  0  0  0  0  0  0  0  0
   -3.3372    1.0995    3.7145 H   0  0  0  0  0  0  0  0  0  0  0  0
   -1.9635    0.5225    5.6643 H   0  0  0  0  0  0  0  0  0  0  0  0
   -0.7737   -0.3126    4.6399 H   0  0  0  0  0  0  0  0  0  0  0  0
   -0.7901    1.4491    4.5672 H   0  0  0  0  0  0  0  0  0  0  0  0
   -3.2087   -1.1884    3.8964 H   0  0  0  0  0  0  0  0  0  0  0  0
   -1.5133   -1.4388    1.3951 H   0  0  0  0  0  0  0  0  0  0  0  0
    1.4483   -0.9767    1.0851 H   0  0  0  0  0  0  0  0  0  0  0  0
    0.0464   -3.6663    1.6209 H   0  0  0  0  0  0  0  0  0  0  0  0
    1.7676   -3.3974    1.3631 H   0  0  0  0  0  0  0  0  0  0  0  0
    0.1291   -2.2938    3.6509 H   0  0  0  0  0  0  0  0  0  0  0  0
    1.9453   -2.1089    3.4815 H   0  0  0  0  0  0  0  0  0  0  0  0
    0.2357   -6.4519    3.9599 H   0  0  0  0  0  0  0  0  0  0  0  0
   -0.4917   -5.2484    2.8211 H   0  0  0  0  0  0  0  0  0  0  0  0
   -0.8431   -5.2025    4.6318 H   0  0  0  0  0  0  0  0  0  0  0  0
    2.3675   -2.9255   -0.5349 H   0  0  0  0  0  0  0  0  0  0  0  0
    0.5528   -3.4438   -2.8687 H   0  0  0  0  0  0  0  0  0  0  0  0
    2.3360   -3.8093   -2.7076 H   0  0  0  0  0  0  0  0  0  0  0  0
    3.9564   -2.2436   -3.2380 H   0  0  0  0  0  0  0  0  0  0  0  0
    4.7094   -0.3640   -4.5305 H   0  0  0  0  0  0  0  0  0  0  0  0
    0.6796    0.8291   -5.0672 H   0  0  0  0  0  0  0  0  0  0  0  0
   -0.0967   -1.1461   -3.7111 H   0  0  0  0  0  0  0  0  0  0  0  0
    5.2577    1.2005   -6.8203 H   0  0  0  0  0  0  0  0  0  0  0  0
    5.2147    1.2150   -5.9699 H   0  0  0  0  0  0  0  0  0  0  0  0
    1.6647    2.8293   -5.2316 H   0  0  0  0  0  0  0  0  0  0  0  0
  1  2  1  0
  2  3  1  0
  3  4  1  0
  4  5  2  0
  4  6  2  0
  4  7  1  0
  7  8  1  0
  8  9  1  0
  9 10  1  0
  9 11  1  0
  8 12  1  0
 12 13  2  0
 12 14  1  0
 14 15  1  0
 15 16  1  0
 16 17  1  0
 17 18  1  0
 18 19  1  0
 15 20  1  0
 20 21  2  0
 20 22  1  0
 22 23  1  0
 23 24  1  0
 24 25  2  0
 25 26  1  0
 26 27  2  0
 27 28  1  0
 28 29  2  0
 27 30  1  0
 30 31  1  0
 30 32  2  3
 29 24  1  0
  1 33  1  0
  1 34  1  0
  1 35  1  0
  2 36  1  0
  2 37  1  0
  3 38  1  0
  3 39  1  0
  7 40  1  0
  8 41  1  6
  9 42  1  1
 10 43  1  0
 10 44  1  0
 10 45  1  0
 11 46  1  0
 14 47  1  0
 15 48  1  6
 16 49  1  0
 16 50  1  0
 17 51  1  0
 17 52  1  0
 19 53  1  0
 19 54  1  0
 19 55  1  0
 22 56  1  0
 23 57  1  0
 23 58  1  0
 25 59  1  0
 26 60  1  0
 28 61  1  0
 29 62  1  0
 31 63  1  0
 31 64  1  0
 32 65  1  0
M  END
$$$$
