
     RDKit          3D

 53 57  0  0  0  0  0  0  0  0999 V2000
    5.0120   -4.7517   -0.0253 C   0  0  0  0  0  0  0  0  0  0  0  0
    4.5090   -3.4244   -0.3433 N   0  0  0  0  0  0  0  0  0  0  0  0
    3.8437   -2.5842    0.5914 C   0  0  0  0  0  0  0  0  0  0  0  0
    3.6885   -3.0276    1.7475 O   0  0  0  0  0  0  0  0  0  0  0  0
    3.3796   -1.2700    0.1758 C   0  0  0  0  0  0  0  0  0  0  0  0
    4.1011   -0.1494   -0.1941 C   0  0  0  0  0  0  0  0  0  0  0  0
    3.2600    0.8592   -0.4921 N   0  0  0  0  0  0  0  0  0  0  0  0
    3.6285    2.2053   -0.9308 C   0  0  0  0  0  0  0  0  0  0  0  0
    1.9906    0.3800   -0.3116 C   0  0  0  0  0  0  0  0  0  0  0  0
    2.0460   -0.9209    0.0965 C   0  0  0  0  0  0  0  0  0  0  0  0
    0.6744   -1.3662    0.2629 C   0  0  0  0  0  0  0  0  0  0  0  0
    0.3764   -2.5319    0.6342 O   0  0  0  0  0  0  0  0  0  0  0  0
   -0.1986   -0.2957   -0.0559 N   0  0  0  0  0  0  0  0  0  0  0  0
   -1.6365   -0.4114   -0.0201 C   0  0  0  0  0  0  0  0  0  0  0  0
   -2.3156   -0.2678    1.1638 C   0  0  0  0  0  0  0  0  0  0  0  0
   -3.6981   -0.3561    1.2257 C   0  0  0  0  0  0  0  0  0  0  0  0
   -4.4468   -0.2072    2.5175 C   0  0  0  0  0  0  0  0  0  0  0  0
   -4.3705   -0.5945    0.0451 C   0  0  0  0  0  0  0  0  0  0  0  0
   -5.6896   -0.7252   -0.1921 N   0  0  0  0  0  0  0  0  0  0  0  0
   -5.8431   -0.9447   -1.4898 N   0  0  0  0  0  0  0  0  0  0  0  0
   -4.6463   -0.9574   -2.0940 C   0  0  0  0  0  0  0  0  0  0  0  0
   -4.3937   -1.1711   -3.5296 C   0  0  0  0  0  0  0  0  0  0  0  0
   -4.5704   -2.4967   -3.8962 F   0  0  0  0  0  0  0  0  0  0  0  0
   -5.1729   -0.3506   -4.3130 F   0  0  0  0  0  0  0  0  0  0  0  0
   -3.7308   -0.7397   -1.1351 N   0  0  0  0  0  0  0  0  0  0  0  0
   -2.3789   -0.6487   -1.1615 C   0  0  0  0  0  0  0  0  0  0  0  0
    0.5943    0.8276   -0.4179 C   0  0  0  0  0  0  0  0  0  0  0  0
    0.3217    2.0489    0.3648 C   0  0  0  0  0  0  0  0  0  0  0  0
    0.1859    3.2692   -0.2535 C   0  0  0  0  0  0  0  0  0  0  0  0
   -0.0727    4.4325    0.4434 C   0  0  0  0  0  0  0  0  0  0  0  0
   -0.2045    4.3949    1.8223 C   0  0  0  0  0  0  0  0  0  0  0  0
   -0.5237    5.8286    2.7550 Cl  0  0  0  0  0  0  0  0  0  0  0  0
   -0.0705    3.1808    2.4563 C   0  0  0  0  0  0  0  0  0  0  0  0
    0.1885    2.0300    1.7310 C   0  0  0  0  0  0  0  0  0  0  0  0
    4.9302   -4.9929    1.0523 H   0  0  0  0  0  0  0  0  0  0  0  0
    6.0727   -4.8771   -0.3703 H   0  0  0  0  0  0  0  0  0  0  0  0
    4.4244   -5.4658   -0.6518 H   0  0  0  0  0  0  0  0  0  0  0  0
    4.6553   -3.0873   -1.3167 H   0  0  0  0  0  0  0  0  0  0  0  0
    5.1902   -0.1050   -0.2354 H   0  0  0  0  0  0  0  0  0  0  0  0
    4.6978    2.1690   -1.2929 H   0  0  0  0  0  0  0  0  0  0  0  0
    3.0277    2.5265   -1.8117 H   0  0  0  0  0  0  0  0  0  0  0  0
    3.5565    2.9512   -0.1460 H   0  0  0  0  0  0  0  0  0  0  0  0
   -1.7969   -0.0815    2.1037 H   0  0  0  0  0  0  0  0  0  0  0  0
   -3.7980    0.2574    3.2733 H   0  0  0  0  0  0  0  0  0  0  0  0
   -5.3828    0.3241    2.3424 H   0  0  0  0  0  0  0  0  0  0  0  0
   -4.7508   -1.2359    2.8736 H   0  0  0  0  0  0  0  0  0  0  0  0
   -3.3201   -0.9455   -3.7945 H   0  0  0  0  0  0  0  0  0  0  0  0
   -1.9102   -0.7698   -2.1138 H   0  0  0  0  0  0  0  0  0  0  0  0
    0.3569    1.0550   -1.5067 H   0  0  0  0  0  0  0  0  0  0  0  0
    0.2777    3.3512   -1.3290 H   0  0  0  0  0  0  0  0  0  0  0  0
   -0.1838    5.4104   -0.0332 H   0  0  0  0  0  0  0  0  0  0  0  0
   -0.1702    3.1501    3.5241 H   0  0  0  0  0  0  0  0  0  0  0  0
    0.2860    1.1019    2.2550 H   0  0  0  0  0  0  0  0  0  0  0  0
  1  2  1  0
  2  3  1  0
  3  4  2  0
  3  5  1  0
  5  6  2  0
  6  7  1  0
  7  8  1  0
  7  9  1  0
  9 10  2  0
 10 11  1  0
 11 12  2  0
 11 13  1  0
 13 14  1  0
 14 15  1  0
 15 16  2  0
 16 17  1  0
 16 18  1  0
 18 19  2  0
 19 20  1  0
 20 21  2  0
 21 22  1  0
 22 23  1  0
 22 24  1  0
 21 25  1  0
 25 26  1  0
 13 27  1  0
 27 28  1  0
 28 29  2  0
 29 30  1  0
 30 31  2  0
 31 32  1  0
 31 33  1  0
 33 34  2  0
 10  5  1  0
 26 14  2  0
 34 28  1  0
 27  9  1  0
 25 18  1  0
  1 35  1  0
  1 36  1  0
  1 37  1  0
  2 38  1  0
  6 39  1  0
  8 40  1  0
  8 41  1  0
  8 42  1  0
 15 43  1  0
 17 44  1  0
 17 45  1  0
 17 46  1  0
 22 47  1  0
 26 48  1  0
 27 49  1  0
 29 50  1  0
 30 51  1  0
 33 52  1  0
 34 53  1  0
M  END
$$$$
