
     RDKit          3D

 72 77  0  0  0  0  0  0  0  0999 V2000
   -6.3790   -3.9808   -1.0443 C   0  0  0  0  0  0  0  0  0  0  0  0
   -5.2794   -4.6405   -0.4666 N   0  0  0  0  0  0  0  0  0  0  0  0
   -5.0017   -4.5856    0.9202 C   0  0  1  0  0  0  0  0  0  0  0  0
   -3.9661   -5.7172    1.1741 C   0  0  0  0  0  0  0  0  0  0  0  0
   -4.2311   -3.3508    1.3294 C   0  0  0  0  0  0  0  0  0  0  0  0
   -3.8709   -3.3539    2.5913 O   0  0  0  0  0  0  0  0  0  0  0  0
   -3.8773   -2.2894    0.5730 N   0  0  0  0  0  0  0  0  0  0  0  0
   -3.1063   -1.1170    0.8579 C   0  0  0  0  0  0  0  0  0  0  0  0
   -3.6011    0.1085    1.2147 C   0  0  0  0  0  0  0  0  0  0  0  0
   -2.6836    1.1771    1.2850 C   0  0  0  0  0  0  0  0  0  0  0  0
   -1.4004    1.0484    1.0260 C   0  0  0  0  0  0  0  0  0  0  0  0
   -0.4222    2.0966    0.7757 C   0  0  0  0  0  0  0  0  0  0  0  0
   -0.4960    3.0849   -0.2016 C   0  0  0  0  0  0  0  0  0  0  0  0
   -1.6407    3.6175   -0.9057 C   0  0  0  0  0  0  0  0  0  0  0  0
   -2.7975    2.9953   -1.2840 C   0  0  0  0  0  0  0  0  0  0  0  0
   -3.9079    3.6407   -1.8261 C   0  0  0  0  0  0  0  0  0  0  0  0
   -3.8272    5.0832   -1.9991 C   0  0  0  0  0  0  0  0  0  0  0  0
   -2.7354    5.5610   -1.6282 N   0  0  0  0  0  0  0  0  0  0  0  0
   -1.6361    5.0550   -1.1199 C   0  0  0  0  0  0  0  0  0  0  0  0
   -0.4826    5.7241   -0.7842 O   0  0  0  0  0  0  0  0  0  0  0  0
   -0.3077    7.0868   -0.8556 C   0  0  0  0  0  0  0  0  0  0  0  0
    0.7420    3.6593   -0.2122 N   0  0  0  0  0  0  0  0  0  0  0  0
    1.5120    3.0581    0.7030 C   0  0  0  0  0  0  0  0  0  0  0  0
    2.8506    3.3533    1.0093 C   0  0  0  0  0  0  0  0  0  0  0  0
    3.4522    2.6510    1.9944 C   0  0  0  0  0  0  0  0  0  0  0  0
    2.7256    1.6627    2.6558 C   0  0  0  0  0  0  0  0  0  0  0  0
    1.3955    1.3866    2.3167 C   0  0  0  0  0  0  0  0  0  0  0  0
    0.8238    2.0965    1.3402 N   0  0  0  0  0  0  0  0  0  0  0  0
   -0.9366   -0.3280    0.6502 C   0  0  0  0  0  0  0  0  0  0  0  0
    0.3101   -0.3442    0.1927 C   0  0  0  0  0  0  0  0  0  0  0  0
    1.6614   -0.3548   -0.3281 C   0  0  0  0  0  0  0  0  0  0  0  0
    2.9394   -0.3800   -0.8068 C   0  0  0  0  0  0  0  0  0  0  0  0
    3.3279   -0.6798   -2.1188 C   0  0  0  0  0  0  0  0  0  0  0  0
    4.5454   -1.3442   -2.2581 C   0  0  0  0  0  0  0  0  0  0  0  0
    5.4080   -1.7449   -1.3481 C   0  0  0  0  0  0  0  0  0  0  0  0
    6.5260   -2.4560   -1.3285 C   0  0  0  0  0  0  0  0  0  0  0  0
    6.9873   -2.7717   -2.8131 C   0  0  0  0  0  0  0  0  0  0  0  0
    7.3467   -2.9392   -0.4620 N   0  0  0  0  0  0  0  0  0  0  0  0
    6.9791   -2.6283    0.8933 C   0  0  0  0  0  0  0  0  0  0  0  0
    5.8426   -1.8956    0.9941 C   0  0  0  0  0  0  0  0  0  0  0  0
    5.0312   -1.4272    0.0644 C   0  0  0  0  0  0  0  0  0  0  0  0
    3.8743   -0.7915    0.2342 C   0  0  0  0  0  0  0  0  0  0  0  0
   -1.8160   -1.2532    0.5967 N   0  0  0  0  0  0  0  0  0  0  0  0
   -7.1376   -3.6645   -0.2987 H   0  0  0  0  0  0  0  0  0  0  0  0
   -6.0442   -3.1469   -1.7056 H   0  0  0  0  0  0  0  0  0  0  0  0
   -6.9220   -4.7065   -1.7388 H   0  0  0  0  0  0  0  0  0  0  0  0
   -4.9647   -5.4937   -0.9857 H   0  0  0  0  0  0  0  0  0  0  0  0
   -5.8622   -4.7341    1.5527 H   0  0  0  0  0  0  0  0  0  0  0  0
   -2.9506   -5.3055    1.0426 H   0  0  0  0  0  0  0  0  0  0  0  0
   -4.0834   -6.4194    0.2883 H   0  0  0  0  0  0  0  0  0  0  0  0
   -4.1856   -6.2768    2.0743 H   0  0  0  0  0  0  0  0  0  0  0  0
   -4.2244   -2.3105   -0.4526 H   0  0  0  0  0  0  0  0  0  0  0  0
   -4.6410    0.2200    1.4160 H   0  0  0  0  0  0  0  0  0  0  0  0
   -3.0793    2.1605    1.5869 H   0  0  0  0  0  0  0  0  0  0  0  0
   -2.8251    1.9132   -1.1930 H   0  0  0  0  0  0  0  0  0  0  0  0
   -4.7685    3.1394   -2.0766 H   0  0  0  0  0  0  0  0  0  0  0  0
   -4.7276    5.5621   -2.4132 H   0  0  0  0  0  0  0  0  0  0  0  0
   -0.1082    7.4791    0.1548 H   0  0  0  0  0  0  0  0  0  0  0  0
    0.5739    7.2477   -1.5695 H   0  0  0  0  0  0  0  0  0  0  0  0
   -1.2038    7.6173   -1.2924 H   0  0  0  0  0  0  0  0  0  0  0  0
    3.3646    4.1150    0.4482 H   0  0  0  0  0  0  0  0  0  0  0  0
    4.4554    2.8252    2.2748 H   0  0  0  0  0  0  0  0  0  0  0  0
    3.1766    1.0959    3.4507 H   0  0  0  0  0  0  0  0  0  0  0  0
    0.8365    0.6211    2.8484 H   0  0  0  0  0  0  0  0  0  0  0  0
    2.6717   -0.3724   -2.8736 H   0  0  0  0  0  0  0  0  0  0  0  0
    4.8109   -1.5741   -3.3298 H   0  0  0  0  0  0  0  0  0  0  0  0
    6.8145   -1.8304   -3.3418 H   0  0  0  0  0  0  0  0  0  0  0  0
    6.4126   -3.6486   -3.1376 H   0  0  0  0  0  0  0  0  0  0  0  0
    8.0407   -3.0007   -2.6898 H   0  0  0  0  0  0  0  0  0  0  0  0
    7.6163   -3.0092    1.6301 H   0  0  0  0  0  0  0  0  0  0  0  0
    5.5600   -1.6597    2.0958 H   0  0  0  0  0  0  0  0  0  0  0  0
    3.5159   -0.6162    1.2649 H   0  0  0  0  0  0  0  0  0  0  0  0
  1  2  1  0
  2  3  1  0
  3  4  1  0
  3  5  1  0
  5  6  2  0
  5  7  1  0
  7  8  1  0
  8  9  2  0
  9 10  1  0
 10 11  2  0
 11 12  1  0
 12 13  2  0
 13 14  1  0
 14 15  2  0
 15 16  1  0
 16 17  2  0
 17 18  1  0
 18 19  2  0
 19 20  1  0
 20 21  1  0
 13 22  1  0
 22 23  2  0
 23 24  1  0
 24 25  2  0
 25 26  1  0
 26 27  2  0
 27 28  1  0
 11 29  1  0
 29 30  1  0
 30 31  3  0
 31 32  1  0
 32 33  2  0
 33 34  1  0
 34 35  2  0
 35 36  1  0
 36 37  1  0
 36 38  2  0
 38 39  1  0
 39 40  2  0
 40 41  1  0
 41 42  2  0
 29 43  2  0
 43  8  1  0
 28 12  1  0
 42 32  1  0
 19 14  1  0
 28 23  1  0
 41 35  1  0
  1 44  1  0
  1 45  1  0
  1 46  1  0
  2 47  1  0
  3 48  1  1
  4 49  1  0
  4 50  1  0
  4 51  1  0
  7 52  1  0
  9 53  1  0
 10 54  1  0
 15 55  1  0
 16 56  1  0
 17 57  1  0
 21 58  1  0
 21 59  1  0
 21 60  1  0
 24 61  1  0
 25 62  1  0
 26 63  1  0
 27 64  1  0
 33 65  1  0
 34 66  1  0
 37 67  1  0
 37 68  1  0
 37 69  1  0
 39 70  1  0
 40 71  1  0
 42 72  1  0
M  END
$$$$
