
     RDKit          3D

 44 47  0  0  0  0  0  0  0  0999 V2000
   -2.0849   -0.7751   -0.9334 C   0  0  2  0  0  0  0  0  0  0  0  0
   -2.9694   -1.9039   -0.5393 C   0  0  0  0  0  0  0  0  0  0  0  0
   -2.2592   -2.8705    0.0361 C   0  0  0  0  0  0  0  0  0  0  0  0
   -0.8505   -2.4818    0.0793 C   0  0  0  0  0  0  0  0  0  0  0  0
    0.3052   -3.0748    0.5490 C   0  0  0  0  0  0  0  0  0  0  0  0
    0.1930   -4.6570    1.2842 Cl  0  0  0  0  0  0  0  0  0  0  0  0
    1.4824   -2.4347    0.4351 N   0  0  0  0  0  0  0  0  0  0  0  0
    1.5561   -1.2095   -0.1364 C   0  0  0  0  0  0  0  0  0  0  0  0
    2.7946   -0.5503   -0.2496 O   0  0  0  0  0  0  0  0  0  0  0  0
    3.9914   -1.1539    0.2319 C   0  0  0  0  0  0  0  0  0  0  0  0
    5.1041   -0.2068   -0.0388 C   0  0  0  0  0  0  0  0  0  0  0  0
    5.8526   -0.2021   -1.2095 C   0  0  0  0  0  0  0  0  0  0  0  0
    6.8786    0.7282   -1.3699 C   0  0  0  0  0  0  0  0  0  0  0  0
    7.1824    1.6485   -0.4093 C   0  0  0  0  0  0  0  0  0  0  0  0
    8.1855    2.5723   -0.5438 F   0  0  0  0  0  0  0  0  0  0  0  0
    6.4337    1.6352    0.7482 C   0  0  0  0  0  0  0  0  0  0  0  0
    5.4115    0.7328    0.9464 C   0  0  0  0  0  0  0  0  0  0  0  0
    0.3801   -0.6519   -0.5926 C   0  0  0  0  0  0  0  0  0  0  0  0
    0.5112    0.4843   -1.1124 O   0  0  0  0  0  0  0  0  0  0  0  0
   -0.8053   -1.2637   -0.4934 N   0  0  0  0  0  0  0  0  0  0  0  0
   -2.4970    0.4564   -0.1881 C   0  0  0  0  0  0  0  0  0  0  0  0
   -1.8609    1.2021    0.6266 O   0  0  0  0  0  0  0  0  0  0  0  0
   -3.8263    0.9279   -0.3835 N   0  0  0  0  0  0  0  0  0  0  0  0
   -4.1640    2.1248    0.3667 C   0  0  0  0  0  0  0  0  0  0  0  0
   -5.6962    2.1531    0.2776 C   0  0  0  0  0  0  0  0  0  0  0  0
   -5.8329    1.7700   -1.2030 C   0  0  0  0  0  0  0  0  0  0  0  0
   -4.9838    0.4950   -1.1798 C   0  0  0  0  0  0  0  0  0  0  0  0
   -2.1520   -0.6223   -2.0237 H   0  0  0  0  0  0  0  0  0  0  0  0
   -4.0447   -2.0857   -0.6270 H   0  0  0  0  0  0  0  0  0  0  0  0
   -2.5570   -3.8344    0.4468 H   0  0  0  0  0  0  0  0  0  0  0  0
    3.9111   -1.4324    1.2840 H   0  0  0  0  0  0  0  0  0  0  0  0
    4.1549   -2.0867   -0.3754 H   0  0  0  0  0  0  0  0  0  0  0  0
    5.5887   -0.9334   -1.9373 H   0  0  0  0  0  0  0  0  0  0  0  0
    7.4593    0.7161   -2.3027 H   0  0  0  0  0  0  0  0  0  0  0  0
    6.6881    2.3787    1.5103 H   0  0  0  0  0  0  0  0  0  0  0  0
    4.8636    0.7809    1.8840 H   0  0  0  0  0  0  0  0  0  0  0  0
   -3.8276    3.0216   -0.2229 H   0  0  0  0  0  0  0  0  0  0  0  0
   -3.8202    2.1286    1.3993 H   0  0  0  0  0  0  0  0  0  0  0  0
   -6.1070    3.1464    0.4897 H   0  0  0  0  0  0  0  0  0  0  0  0
   -6.1103    1.3375    0.9202 H   0  0  0  0  0  0  0  0  0  0  0  0
   -5.3015    2.5141   -1.8024 H   0  0  0  0  0  0  0  0  0  0  0  0
   -6.8784    1.5864   -1.4742 H   0  0  0  0  0  0  0  0  0  0  0  0
   -4.7181    0.1328   -2.1711 H   0  0  0  0  0  0  0  0  0  0  0  0
   -5.5807   -0.2426   -0.5679 H   0  0  0  0  0  0  0  0  0  0  0  0
  1  2  1  0
  2  3  2  0
  3  4  1  0
  4  5  2  0
  5  6  1  0
  5  7  1  0
  7  8  2  0
  8  9  1  0
  9 10  1  0
 10 11  1  0
 11 12  2  0
 12 13  1  0
 13 14  2  0
 14 15  1  0
 14 16  1  0
 16 17  2  0
  8 18  1  0
 18 19  2  0
 18 20  1  0
  1 21  1  0
 21 22  2  0
 21 23  1  0
 23 24  1  0
 24 25  1  0
 25 26  1  0
 26 27  1  0
 20  1  1  0
 27 23  1  0
 20  4  1  0
 17 11  1  0
  1 28  1  6
  2 29  1  0
  3 30  1  0
 10 31  1  0
 10 32  1  0
 12 33  1  0
 13 34  1  0
 16 35  1  0
 17 36  1  0
 24 37  1  0
 24 38  1  0
 25 39  1  0
 25 40  1  0
 26 41  1  0
 26 42  1  0
 27 43  1  0
 27 44  1  0
M  END
$$$$
