
     RDKit          3D

 51 54  0  0  0  0  0  0  0  0999 V2000
    5.8667    1.7140    0.6879 O   0  0  0  0  0  0  0  0  0  0  0  0
    5.5110    1.3123   -0.7352 S   0  0  0  0  0  6  0  0  0  0  0  0
    5.7152    2.4558   -1.6595 O   0  0  0  0  0  0  0  0  0  0  0  0
    6.4974   -0.0012   -1.2467 N   0  0  0  0  0  0  0  0  0  0  0  0
    6.5004   -1.2496   -0.5240 C   0  0  0  0  0  0  0  0  0  0  0  0
    7.0065   -2.3152   -0.5606 N   0  0  0  0  0  0  0  0  0  0  0  0
    6.9368   -3.3049    0.2884 C   0  0  0  0  0  0  0  0  0  0  0  0
    6.1437   -3.0732    1.4065 C   0  0  0  0  0  0  0  0  0  0  0  0
    5.5619   -1.3692    1.0885 S   0  0  0  0  0  0  0  0  0  0  0  0
    3.8390    0.8186   -0.7933 C   0  0  0  0  0  0  0  0  0  0  0  0
    3.4887   -0.4599   -1.1620 C   0  0  0  0  0  0  0  0  0  0  0  0
    2.1799   -0.8794   -1.1240 C   0  0  0  0  0  0  0  0  0  0  0  0
    1.7483   -2.5278   -1.5956 Cl  0  0  0  0  0  0  0  0  0  0  0  0
    1.2099    0.0110   -0.7059 C   0  0  0  0  0  0  0  0  0  0  0  0
   -0.1295   -0.4448   -0.5667 N   0  0  0  0  0  0  0  0  0  0  0  0
   -1.2546    0.3851   -0.1595 C   0  0  0  0  0  0  0  0  0  0  0  0
   -2.3753   -0.4606    0.3643 C   0  0  1  0  0  0  0  0  0  0  0  0
   -1.8662   -1.1671    1.5210 N   0  0  0  0  0  0  0  0  0  0  0  0
   -1.7235   -0.2972    2.6708 C   0  0  0  0  0  0  0  0  0  0  0  0
   -3.1133    0.0624    3.1279 C   0  0  0  0  0  0  0  0  0  0  0  0
   -3.9224    0.4618    1.9573 C   0  0  0  0  0  0  0  0  0  0  0  0
   -3.6221    0.2435    0.7014 C   0  0  0  0  0  0  0  0  0  0  0  0
   -4.5485    0.6833   -0.3530 C   0  0  0  0  0  0  0  0  0  0  0  0
   -4.3335    0.3617   -1.6858 C   0  0  0  0  0  0  0  0  0  0  0  0
   -5.1908    0.7668   -2.6926 C   0  0  0  0  0  0  0  0  0  0  0  0
   -6.3075    1.5166   -2.3966 C   0  0  0  0  0  0  0  0  0  0  0  0
   -7.1650    1.9230   -3.3931 F   0  0  0  0  0  0  0  0  0  0  0  0
   -6.5311    1.8385   -1.1001 C   0  0  0  0  0  0  0  0  0  0  0  0
   -5.6518    1.4233   -0.0725 C   0  0  0  0  0  0  0  0  0  0  0  0
    1.5757    1.2825   -0.3508 C   0  0  0  0  0  0  0  0  0  0  0  0
    2.8730    1.7093   -0.3854 C   0  0  0  0  0  0  0  0  0  0  0  0
    3.2460    2.9674   -0.0342 F   0  0  0  0  0  0  0  0  0  0  0  0
    7.1251    0.0775   -2.0928 H   0  0  0  0  0  0  0  0  0  0  0  0
    7.4520   -4.2902    0.1843 H   0  0  0  0  0  0  0  0  0  0  0  0
    5.8728   -3.6832    2.2921 H   0  0  0  0  0  0  0  0  0  0  0  0
    4.2592   -1.1528   -1.5097 H   0  0  0  0  0  0  0  0  0  0  0  0
   -0.2972   -1.4759   -0.7938 H   0  0  0  0  0  0  0  0  0  0  0  0
   -0.8731    1.1120    0.5702 H   0  0  0  0  0  0  0  0  0  0  0  0
   -1.6007    0.8951   -1.0969 H   0  0  0  0  0  0  0  0  0  0  0  0
   -2.6327   -1.2678   -0.3791 H   0  0  0  0  0  0  0  0  0  0  0  0
   -2.5606   -1.9149    1.8112 H   0  0  0  0  0  0  0  0  0  0  0  0
   -1.1478   -0.8179    3.4762 H   0  0  0  0  0  0  0  0  0  0  0  0
   -1.2304    0.6340    2.3792 H   0  0  0  0  0  0  0  0  0  0  0  0
   -3.0936    0.9223    3.8381 H   0  0  0  0  0  0  0  0  0  0  0  0
   -3.6316   -0.8181    3.6062 H   0  0  0  0  0  0  0  0  0  0  0  0
   -4.8588    0.9860    2.2523 H   0  0  0  0  0  0  0  0  0  0  0  0
   -3.4536   -0.2424   -1.9136 H   0  0  0  0  0  0  0  0  0  0  0  0
   -4.9891    0.5035   -3.6972 H   0  0  0  0  0  0  0  0  0  0  0  0
   -7.4098    2.4319   -0.8424 H   0  0  0  0  0  0  0  0  0  0  0  0
   -5.9101    1.7379    0.9199 H   0  0  0  0  0  0  0  0  0  0  0  0
    0.8148    1.9763   -0.0320 H   0  0  0  0  0  0  0  0  0  0  0  0
  1  2  2  0
  2  3  2  0
  2  4  1  0
  4  5  1  0
  5  6  2  0
  6  7  1  0
  7  8  2  0
  8  9  1  0
  2 10  1  0
 10 11  2  0
 11 12  1  0
 12 13  1  0
 12 14  2  0
 14 15  1  0
 15 16  1  0
 16 17  1  0
 17 18  1  0
 18 19  1  0
 19 20  1  0
 20 21  1  0
 21 22  2  0
 22 23  1  0
 23 24  2  0
 24 25  1  0
 25 26  2  0
 26 27  1  0
 26 28  1  0
 28 29  2  0
 14 30  1  0
 30 31  2  0
 31 32  1  0
  9  5  1  0
 31 10  1  0
 22 17  1  0
 29 23  1  0
  4 33  1  0
  7 34  1  0
  8 35  1  0
 11 36  1  0
 15 37  1  0
 16 38  1  0
 16 39  1  0
 17 40  1  6
 18 41  1  0
 19 42  1  0
 19 43  1  0
 20 44  1  0
 20 45  1  0
 21 46  1  0
 24 47  1  0
 25 48  1  0
 28 49  1  0
 29 50  1  0
 30 51  1  0
M  END
$$$$
