
     RDKit          3D

178179  0  0  0  0  0  0  0  0999 V2000
  -16.3236   -0.4035   -1.7096 C   0  0  0  0  0  0  0  0  0  0  0  0
  -15.3422    0.2932   -0.9694 O   0  0  0  0  0  0  0  0  0  0  0  0
  -15.2203    0.2787    0.3970 C   0  0  0  0  0  0  0  0  0  0  0  0
  -16.0859   -0.4285    1.0304 O   0  0  0  0  0  0  0  0  0  0  0  0
  -14.2299    0.9675    1.2184 C   0  0  2  0  0  0  0  0  0  0  0  0
  -14.8433    1.8949    2.2556 C   0  0  0  0  0  0  0  0  0  0  0  0
  -14.8223    3.2337    1.5992 C   0  0  0  0  0  0  0  0  0  0  0  0
  -13.6729    3.1961    0.6348 C   0  0  0  0  0  0  0  0  0  0  0  0
  -13.2801    1.7835    0.5276 N   0  0  0  0  0  0  0  0  0  0  0  0
  -12.0856    1.4128   -0.1437 C   0  0  0  0  0  0  0  0  0  0  0  0
  -11.3277    2.3564   -0.5864 O   0  0  0  0  0  0  0  0  0  0  0  0
  -11.6043    0.0544   -0.3933 C   0  0  1  0  0  0  0  0  0  0  0  0
  -11.8778   -0.2872   -1.8964 C   0  0  0  0  0  0  0  0  0  0  0  0
  -11.4094   -1.6543   -2.1694 C   0  0  0  0  0  0  0  0  0  0  0  0
  -10.1336   -1.9570   -2.6137 C   0  0  0  0  0  0  0  0  0  0  0  0
   -9.7573   -3.2511   -2.8524 C   0  0  0  0  0  0  0  0  0  0  0  0
  -10.6479   -4.2772   -2.6528 C   0  0  0  0  0  0  0  0  0  0  0  0
  -11.9443   -4.0238   -2.2065 C   0  0  0  0  0  0  0  0  0  0  0  0
  -12.2891   -2.7118   -1.9761 C   0  0  0  0  0  0  0  0  0  0  0  0
  -10.1499   -0.0440   -0.1934 N   0  0  0  0  0  0  0  0  0  0  0  0
   -9.3324    0.9815   -0.7737 C   0  0  0  0  0  0  0  0  0  0  0  0
   -9.6432   -1.1448    0.4950 C   0  0  0  0  0  0  0  0  0  0  0  0
  -10.5195   -2.0749    0.7443 O   0  0  0  0  0  0  0  0  0  0  0  0
   -8.2900   -1.4041    0.9660 C   0  0  2  0  0  0  0  0  0  0  0  0
   -8.3271   -2.4228    2.1167 C   0  0  0  0  0  0  0  0  0  0  0  0
   -7.6107   -0.2582    1.4770 N   0  0  0  0  0  0  0  0  0  0  0  0
   -6.4252    0.3358    1.0088 C   0  0  0  0  0  0  0  0  0  0  0  0
   -5.8866   -0.1779   -0.0297 O   0  0  0  0  0  0  0  0  0  0  0  0
   -5.7726    1.5247    1.6768 C   0  0  1  0  0  0  0  0  0  0  0  0
   -4.6784    2.0091    0.8896 N   0  0  0  0  0  0  0  0  0  0  0  0
   -3.5158    1.2334    0.6599 C   0  0  0  0  0  0  0  0  0  0  0  0
   -3.4288    0.0933    1.1302 O   0  0  0  0  0  0  0  0  0  0  0  0
   -2.4682    1.8652   -0.1552 C   0  0  0  0  0  0  0  0  0  0  0  0
   -1.4776    1.0055   -0.8189 C   0  0  2  0  0  0  0  0  0  0  0  0
   -2.2341    0.1533   -1.6692 O   0  0  0  0  0  0  0  0  0  0  0  0
   -0.4417    0.2640   -0.0344 C   0  0  2  0  0  0  0  0  0  0  0  0
   -0.0769    0.8886    1.2342 C   0  0  0  0  0  0  0  0  0  0  0  0
    0.9368    0.3184    2.1329 C   0  0  0  0  0  0  0  0  0  0  0  0
    2.3298    0.1942    1.6004 C   0  0  0  0  0  0  0  0  0  0  0  0
    0.4900   -0.9427    2.8592 C   0  0  0  0  0  0  0  0  0  0  0  0
    0.5504   -0.3171   -0.8644 N   0  0  0  0  0  0  0  0  0  0  0  0
    0.5166   -0.3441   -2.2749 C   0  0  0  0  0  0  0  0  0  0  0  0
   -0.4194    0.1780   -2.9768 O   0  0  0  0  0  0  0  0  0  0  0  0
    1.5715   -0.9844   -3.0960 C   0  0  2  0  0  0  0  0  0  0  0  0
    0.9922   -1.9523   -4.1138 C   0  0  0  0  0  0  0  0  0  0  0  0
    0.0856   -1.2769   -5.0522 C   0  0  0  0  0  0  0  0  0  0  0  0
    0.6716   -0.6459   -6.1852 N   0  0  0  0  0  0  0  0  0  0  0  0
   -1.1717   -1.2238   -4.9138 O   0  0  0  0  0  0  0  0  0  0  0  0
    2.6244   -1.6871   -2.4294 N   0  0  0  0  0  0  0  0  0  0  0  0
    3.9776   -1.2071   -2.4058 C   0  0  0  0  0  0  0  0  0  0  0  0
    4.1587   -0.0960   -2.9562 O   0  0  0  0  0  0  0  0  0  0  0  0
    5.0774   -1.9933   -1.7823 C   0  0  2  0  0  0  0  0  0  0  0  0
    4.7795   -2.5081   -0.4313 C   0  0  0  0  0  0  0  0  0  0  0  0
    5.8023   -3.4093    0.1440 C   0  0  0  0  0  0  0  0  0  0  0  0
    7.1705   -2.8983    0.3221 C   0  0  0  0  0  0  0  0  0  0  0  0
    5.2958   -3.9917    1.4627 C   0  0  0  0  0  0  0  0  0  0  0  0
    6.2432   -1.1277   -1.9147 N   0  0  0  0  0  0  0  0  0  0  0  0
    6.6810   -0.1703   -0.9730 C   0  0  0  0  0  0  0  0  0  0  0  0
    6.0582    0.0257    0.1134 O   0  0  0  0  0  0  0  0  0  0  0  0
    7.9105    0.6401   -1.2328 C   0  0  2  0  0  0  0  0  0  0  0  0
    8.4017    1.0619    0.0516 O   0  0  0  0  0  0  0  0  0  0  0  0
    9.7667    0.7854    0.2542 C   0  0  0  0  0  0  0  0  0  0  0  0
   10.3854    0.2465   -0.6885 O   0  0  0  0  0  0  0  0  0  0  0  0
   10.5152    1.0817    1.4896 C   0  0  1  0  0  0  0  0  0  0  0  0
   11.8714    0.8330    1.2962 O   0  0  0  0  0  0  0  0  0  0  0  0
   12.5490   -0.2734    1.7563 C   0  0  0  0  0  0  0  0  0  0  0  0
   11.8950   -1.1482    2.4053 O   0  0  0  0  0  0  0  0  0  0  0  0
   13.9977   -0.4085    1.4817 C   0  0  2  0  0  0  0  0  0  0  0  0
   14.4280    0.0428    0.1316 C   0  0  0  0  0  0  0  0  0  0  0  0
   14.1030    1.5272   -0.0735 C   0  0  0  0  0  0  0  0  0  0  0  0
   15.9308   -0.0776   -0.0167 C   0  0  0  0  0  0  0  0  0  0  0  0
   14.4784   -1.7593    1.7252 N   0  0  0  0  0  0  0  0  0  0  0  0
   14.2629   -2.2177    3.0635 C   0  0  0  0  0  0  0  0  0  0  0  0
   13.9521   -2.6860    0.7529 C   0  0  0  0  0  0  0  0  0  0  0  0
   10.1521    2.3359    2.1988 C   0  0  0  0  0  0  0  0  0  0  0  0
   11.0554    2.4869    3.4327 C   0  0  0  0  0  0  0  0  0  0  0  0
    8.7343    2.2872    2.7555 C   0  0  0  0  0  0  0  0  0  0  0  0
    7.4207    1.9246   -1.9496 C   0  0  0  0  0  0  0  0  0  0  0  0
    6.4688    2.6705   -1.0574 C   0  0  0  0  0  0  0  0  0  0  0  0
    8.6602    2.7583   -2.1397 C   0  0  0  0  0  0  0  0  0  0  0  0
   -6.7145    2.5746    2.1199 C   0  0  1  0  0  0  0  0  0  0  0  0
   -6.0339    3.5677    3.0654 C   0  0  0  0  0  0  0  0  0  0  0  0
   -7.2929    3.2715    1.0524 O   0  0  0  0  0  0  0  0  0  0  0  0
  -16.6735   -1.3131   -1.1842 H   0  0  0  0  0  0  0  0  0  0  0  0
  -15.9212   -0.6938   -2.7234 H   0  0  0  0  0  0  0  0  0  0  0  0
  -17.1549    0.3072   -1.9112 H   0  0  0  0  0  0  0  0  0  0  0  0
  -13.6110    0.2295    1.8279 H   0  0  0  0  0  0  0  0  0  0  0  0
  -15.8729    1.5572    2.5353 H   0  0  0  0  0  0  0  0  0  0  0  0
  -14.2027    1.9138    3.1480 H   0  0  0  0  0  0  0  0  0  0  0  0
  -15.7659    3.3767    1.0178 H   0  0  0  0  0  0  0  0  0  0  0  0
  -14.6966    4.0810    2.3414 H   0  0  0  0  0  0  0  0  0  0  0  0
  -14.0157    3.4644   -0.4017 H   0  0  0  0  0  0  0  0  0  0  0  0
  -12.8235    3.8170    0.9400 H   0  0  0  0  0  0  0  0  0  0  0  0
  -12.0780   -0.7657    0.1268 H   0  0  0  0  0  0  0  0  0  0  0  0
  -12.9602   -0.2197   -2.1061 H   0  0  0  0  0  0  0  0  0  0  0  0
  -11.3788    0.4578   -2.5219 H   0  0  0  0  0  0  0  0  0  0  0  0
   -9.4590   -1.1175   -2.7545 H   0  0  0  0  0  0  0  0  0  0  0  0
   -8.7603   -3.4706   -3.1993 H   0  0  0  0  0  0  0  0  0  0  0  0
  -10.3673   -5.3041   -2.8325 H   0  0  0  0  0  0  0  0  0  0  0  0
  -12.6634   -4.8274   -2.0461 H   0  0  0  0  0  0  0  0  0  0  0  0
  -13.3036   -2.4850   -1.6245 H   0  0  0  0  0  0  0  0  0  0  0  0
   -8.3311    0.5188   -1.0201 H   0  0  0  0  0  0  0  0  0  0  0  0
   -9.1399    1.8436   -0.1322 H   0  0  0  0  0  0  0  0  0  0  0  0
   -9.7089    1.3095   -1.7860 H   0  0  0  0  0  0  0  0  0  0  0  0
   -7.6492   -1.8416    0.1314 H   0  0  0  0  0  0  0  0  0  0  0  0
   -9.1422   -2.0964    2.7831 H   0  0  0  0  0  0  0  0  0  0  0  0
   -8.4753   -3.4541    1.7178 H   0  0  0  0  0  0  0  0  0  0  0  0
   -7.3668   -2.3291    2.6413 H   0  0  0  0  0  0  0  0  0  0  0  0
   -8.0469    0.2244    2.3281 H   0  0  0  0  0  0  0  0  0  0  0  0
   -5.3127    1.0196    2.6046 H   0  0  0  0  0  0  0  0  0  0  0  0
   -4.7867    2.9819    0.4840 H   0  0  0  0  0  0  0  0  0  0  0  0
   -3.0249    2.3709   -1.0081 H   0  0  0  0  0  0  0  0  0  0  0  0
   -2.0245    2.7592    0.3669 H   0  0  0  0  0  0  0  0  0  0  0  0
   -0.9498    1.7064   -1.5537 H   0  0  0  0  0  0  0  0  0  0  0  0
   -3.0744    0.6107   -1.9261 H   0  0  0  0  0  0  0  0  0  0  0  0
   -1.0858   -0.6917    0.2453 H   0  0  0  0  0  0  0  0  0  0  0  0
    0.2379    1.9846    1.1088 H   0  0  0  0  0  0  0  0  0  0  0  0
   -1.0101    1.0340    1.8771 H   0  0  0  0  0  0  0  0  0  0  0  0
    1.0206    1.0734    2.9854 H   0  0  0  0  0  0  0  0  0  0  0  0
    2.5314    0.8352    0.7069 H   0  0  0  0  0  0  0  0  0  0  0  0
    3.0921    0.6063    2.3474 H   0  0  0  0  0  0  0  0  0  0  0  0
    2.6907   -0.8560    1.4812 H   0  0  0  0  0  0  0  0  0  0  0  0
    0.2140   -0.7709    3.9180 H   0  0  0  0  0  0  0  0  0  0  0  0
   -0.4036   -1.4173    2.3884 H   0  0  0  0  0  0  0  0  0  0  0  0
    1.3425   -1.6850    2.9174 H   0  0  0  0  0  0  0  0  0  0  0  0
    1.4184   -0.8130   -0.4659 H   0  0  0  0  0  0  0  0  0  0  0  0
    2.0050   -0.1034   -3.6875 H   0  0  0  0  0  0  0  0  0  0  0  0
    1.8338   -2.3804   -4.7111 H   0  0  0  0  0  0  0  0  0  0  0  0
    0.4975   -2.8165   -3.6126 H   0  0  0  0  0  0  0  0  0  0  0  0
    1.7070   -0.5954   -6.2843 H   0  0  0  0  0  0  0  0  0  0  0  0
    0.0378   -0.2401   -6.9121 H   0  0  0  0  0  0  0  0  0  0  0  0
    2.4067   -2.5827   -1.9387 H   0  0  0  0  0  0  0  0  0  0  0  0
    5.2829   -2.8768   -2.4753 H   0  0  0  0  0  0  0  0  0  0  0  0
    3.7584   -3.0079   -0.4020 H   0  0  0  0  0  0  0  0  0  0  0  0
    4.6410   -1.6521    0.2733 H   0  0  0  0  0  0  0  0  0  0  0  0
    5.8483   -4.2960   -0.5899 H   0  0  0  0  0  0  0  0  0  0  0  0
    7.7356   -2.7139   -0.6184 H   0  0  0  0  0  0  0  0  0  0  0  0
    7.2920   -2.0864    1.0568 H   0  0  0  0  0  0  0  0  0  0  0  0
    7.7896   -3.7440    0.8216 H   0  0  0  0  0  0  0  0  0  0  0  0
    4.3087   -3.5708    1.7303 H   0  0  0  0  0  0  0  0  0  0  0  0
    5.3079   -5.0813    1.3978 H   0  0  0  0  0  0  0  0  0  0  0  0
    6.0068   -3.6565    2.2515 H   0  0  0  0  0  0  0  0  0  0  0  0
    6.8451   -1.1878   -2.7901 H   0  0  0  0  0  0  0  0  0  0  0  0
    8.6010    0.0997   -1.8405 H   0  0  0  0  0  0  0  0  0  0  0  0
   10.1817    0.2085    2.1872 H   0  0  0  0  0  0  0  0  0  0  0  0
   14.5551    0.2170    2.2390 H   0  0  0  0  0  0  0  0  0  0  0  0
   13.9544   -0.5400   -0.6812 H   0  0  0  0  0  0  0  0  0  0  0  0
   14.9458    2.0442   -0.6098 H   0  0  0  0  0  0  0  0  0  0  0  0
   14.0534    2.0300    0.9236 H   0  0  0  0  0  0  0  0  0  0  0  0
   13.2045    1.6540   -0.6912 H   0  0  0  0  0  0  0  0  0  0  0  0
   16.4039    0.6531    0.6705 H   0  0  0  0  0  0  0  0  0  0  0  0
   16.3187   -1.0940    0.1218 H   0  0  0  0  0  0  0  0  0  0  0  0
   16.1754    0.2625   -1.0492 H   0  0  0  0  0  0  0  0  0  0  0  0
   13.8887   -1.4320    3.7439 H   0  0  0  0  0  0  0  0  0  0  0  0
   15.2275   -2.5628    3.5014 H   0  0  0  0  0  0  0  0  0  0  0  0
   13.5579   -3.0811    3.0912 H   0  0  0  0  0  0  0  0  0  0  0  0
   13.6072   -3.6469    1.1416 H   0  0  0  0  0  0  0  0  0  0  0  0
   13.0970   -2.2087    0.1824 H   0  0  0  0  0  0  0  0  0  0  0  0
   14.7843   -2.9172    0.0239 H   0  0  0  0  0  0  0  0  0  0  0  0
   10.2813    3.1965    1.5575 H   0  0  0  0  0  0  0  0  0  0  0  0
   11.4000    3.5345    3.4437 H   0  0  0  0  0  0  0  0  0  0  0  0
   11.9522    1.8421    3.3105 H   0  0  0  0  0  0  0  0  0  0  0  0
   10.5263    2.1737    4.3576 H   0  0  0  0  0  0  0  0  0  0  0  0
    7.9677    2.2627    1.9634 H   0  0  0  0  0  0  0  0  0  0  0  0
    8.6462    1.4815    3.5097 H   0  0  0  0  0  0  0  0  0  0  0  0
    8.5793    3.2566    3.3131 H   0  0  0  0  0  0  0  0  0  0  0  0
    6.9573    1.7045   -2.9032 H   0  0  0  0  0  0  0  0  0  0  0  0
    6.7568    3.7612   -1.0626 H   0  0  0  0  0  0  0  0  0  0  0  0
    5.4106    2.5989   -1.3503 H   0  0  0  0  0  0  0  0  0  0  0  0
    6.6247    2.2584   -0.0276 H   0  0  0  0  0  0  0  0  0  0  0  0
    8.4478    3.6885   -2.7189 H   0  0  0  0  0  0  0  0  0  0  0  0
    9.0049    3.0695   -1.1246 H   0  0  0  0  0  0  0  0  0  0  0  0
    9.4462    2.1293   -2.5803 H   0  0  0  0  0  0  0  0  0  0  0  0
   -7.5525    2.1330    2.6783 H   0  0  0  0  0  0  0  0  0  0  0  0
   -4.9926    3.2610    3.1448 H   0  0  0  0  0  0  0  0  0  0  0  0
   -6.4963    3.5455    4.0645 H   0  0  0  0  0  0  0  0  0  0  0  0
   -6.1537    4.6122    2.6877 H   0  0  0  0  0  0  0  0  0  0  0  0
   -8.1169    3.6947    1.3937 H   0  0  0  0  0  0  0  0  0  0  0  0
  1  2  1  0
  2  3  1  0
  3  4  2  0
  3  5  1  0
  5  6  1  0
  6  7  1  0
  7  8  1  0
  8  9  1  0
  9 10  1  0
 10 11  2  0
 10 12  1  0
 12 13  1  0
 13 14  1  0
 14 15  2  0
 15 16  1  0
 16 17  2  0
 17 18  1  0
 18 19  2  0
 12 20  1  0
 20 21  1  0
 20 22  1  0
 22 23  2  0
 22 24  1  0
 24 25  1  0
 24 26  1  0
 26 27  1  0
 27 28  2  0
 27 29  1  0
 29 30  1  0
 30 31  1  0
 31 32  2  0
 31 33  1  0
 33 34  1  0
 34 35  1  0
 34 36  1  0
 36 37  1  0
 37 38  1  0
 38 39  1  0
 38 40  1  0
 36 41  1  0
 41 42  1  0
 42 43  2  0
 42 44  1  0
 44 45  1  0
 45 46  1  0
 46 47  1  0
 46 48  2  0
 44 49  1  0
 49 50  1  0
 50 51  2  0
 50 52  1  0
 52 53  1  0
 53 54  1  0
 54 55  1  0
 54 56  1  0
 52 57  1  0
 57 58  1  0
 58 59  2  0
 58 60  1  0
 60 61  1  0
 61 62  1  0
 62 63  2  0
 62 64  1  0
 64 65  1  0
 65 66  1  0
 66 67  2  0
 66 68  1  0
 68 69  1  0
 69 70  1  0
 69 71  1  0
 68 72  1  0
 72 73  1  0
 72 74  1  0
 64 75  1  0
 75 76  1  0
 75 77  1  0
 60 78  1  0
 78 79  1  0
 78 80  1  0
 29 81  1  0
 81 82  1  0
 81 83  1  0
  9  5  1  0
 19 14  1  0
  1 84  1  0
  1 85  1  0
  1 86  1  0
  5 87  1  1
  6 88  1  0
  6 89  1  0
  7 90  1  0
  7 91  1  0
  8 92  1  0
  8 93  1  0
 12 94  1  1
 13 95  1  0
 13 96  1  0
 15 97  1  0
 16 98  1  0
 17 99  1  0
 18100  1  0
 19101  1  0
 21102  1  0
 21103  1  0
 21104  1  0
 24105  1  6
 25106  1  0
 25107  1  0
 25108  1  0
 26109  1  0
 29110  1  1
 30111  1  0
 33112  1  0
 33113  1  0
 34114  1  6
 35115  1  0
 36116  1  1
 37117  1  0
 37118  1  0
 38119  1  0
 39120  1  0
 39121  1  0
 39122  1  0
 40123  1  0
 40124  1  0
 40125  1  0
 41126  1  0
 44127  1  6
 45128  1  0
 45129  1  0
 47130  1  0
 47131  1  0
 49132  1  0
 52133  1  6
 53134  1  0
 53135  1  0
 54136  1  0
 55137  1  0
 55138  1  0
 55139  1  0
 56140  1  0
 56141  1  0
 56142  1  0
 57143  1  0
 60144  1  6
 64145  1  1
 68146  1  1
 69147  1  0
 70148  1  0
 70149  1  0
 70150  1  0
 71151  1  0
 71152  1  0
 71153  1  0
 73154  1  0
 73155  1  0
 73156  1  0
 74157  1  0
 74158  1  0
 74159  1  0
 75160  1  0
 76161  1  0
 76162  1  0
 76163  1  0
 77164  1  0
 77165  1  0
 77166  1  0
 78167  1  0
 79168  1  0
 79169  1  0
 79170  1  0
 80171  1  0
 80172  1  0
 80173  1  0
 81174  1  1
 82175  1  0
 82176  1  0
 82177  1  0
 83178  1  0
M  END
$$$$
