
     RDKit          3D

 90 92  0  0  0  0  0  0  0  0999 V2000
   -0.7294   -0.2099   -1.8236 C   0  0  0  0  0  0  0  0  0  0  0  0
    0.4634   -0.8623   -1.7039 C   0  0  0  0  0  0  0  0  0  0  0  0
    1.1764   -0.8753   -0.4933 C   0  0  0  0  0  0  0  0  0  0  0  0
    2.4287   -1.6422   -0.4237 C   0  0  0  0  0  0  0  0  0  0  0  0
    3.5983   -1.0946   -0.8752 N   0  0  0  0  0  0  0  0  0  0  0  0
    4.7541   -2.0144   -0.9041 C   0  0  0  0  0  0  0  0  0  0  0  0
    5.9307   -1.2840   -1.4154 C   0  0  0  0  0  0  0  0  0  0  0  0
    7.2437   -1.9503   -1.4198 C   0  0  0  0  0  0  0  0  0  0  0  0
    7.6324   -2.4088   -0.0797 N   0  0  0  0  0  0  0  0  0  0  0  0
    7.6385   -1.3126    0.8311 C   0  0  0  0  0  0  0  0  0  0  0  0
    8.5444   -0.1711    0.5279 C   0  0  0  0  0  0  0  0  0  0  0  0
    8.4970    0.7901    1.5187 N   0  0  0  0  0  0  0  0  0  0  0  0
    7.4541    1.6068    1.8920 C   0  0  0  0  0  0  0  0  0  0  0  0
    6.9063    2.6968    1.1163 C   0  0  0  0  0  0  0  0  0  0  0  0
    5.9465    2.6404    0.0100 C   0  0  0  0  0  0  0  0  0  0  0  0
    4.6372    2.2332    0.2251 N   0  0  0  0  0  0  0  0  0  0  0  0
    4.1401    0.9440    0.3352 C   0  0  0  0  0  0  0  0  0  0  0  0
    3.9443    0.2332   -0.9925 C   0  0  0  0  0  0  0  0  0  0  0  0
    0.6428   -0.2109    0.5755 C   0  0  0  0  0  0  0  0  0  0  0  0
   -0.5463    0.4481    0.4806 C   0  0  0  0  0  0  0  0  0  0  0  0
   -1.2433    0.4569   -0.7088 C   0  0  0  0  0  0  0  0  0  0  0  0
   -2.5188    1.1794   -0.8026 C   0  0  0  0  0  0  0  0  0  0  0  0
   -3.7175    0.3623   -0.4609 N   0  0  0  0  0  0  0  0  0  0  0  0
   -3.6863   -0.7214   -1.3652 C   0  0  0  0  0  0  0  0  0  0  0  0
   -4.8813   -1.6238   -1.4527 C   0  0  0  0  0  0  0  0  0  0  0  0
   -6.1236   -0.9746   -1.9679 C   0  0  0  0  0  0  0  0  0  0  0  0
   -6.5567    0.1599   -1.2755 N   0  0  0  0  0  0  0  0  0  0  0  0
   -7.8467    0.6964   -1.6494 C   0  0  0  0  0  0  0  0  0  0  0  0
   -8.0608    1.9451   -0.7773 C   0  0  0  0  0  0  0  0  0  0  0  0
   -7.8457    1.5942    0.5876 N   0  0  0  0  0  0  0  0  0  0  0  0
   -8.8018    0.7157    1.1713 C   0  0  0  0  0  0  0  0  0  0  0  0
   -8.2874    0.3684    2.5693 C   0  0  0  0  0  0  0  0  0  0  0  0
   -6.9566   -0.3552    2.4661 C   0  0  0  0  0  0  0  0  0  0  0  0
   -5.9682    0.4068    1.7352 N   0  0  0  0  0  0  0  0  0  0  0  0
   -4.7503   -0.4150    1.7060 C   0  0  0  0  0  0  0  0  0  0  0  0
   -3.6474    0.1447    0.9248 C   0  0  0  0  0  0  0  0  0  0  0  0
   -1.2853   -0.1952   -2.7813 H   0  0  0  0  0  0  0  0  0  0  0  0
    0.8570   -1.3816   -2.5859 H   0  0  0  0  0  0  0  0  0  0  0  0
    2.2878   -2.6612   -0.9203 H   0  0  0  0  0  0  0  0  0  0  0  0
    2.5677   -1.9551    0.6618 H   0  0  0  0  0  0  0  0  0  0  0  0
    4.5527   -2.8972   -1.5158 H   0  0  0  0  0  0  0  0  0  0  0  0
    4.9153   -2.3226    0.1399 H   0  0  0  0  0  0  0  0  0  0  0  0
    5.7158   -0.9940   -2.4945 H   0  0  0  0  0  0  0  0  0  0  0  0
    6.1001   -0.3151   -0.8433 H   0  0  0  0  0  0  0  0  0  0  0  0
    7.1743   -2.8823   -2.0280 H   0  0  0  0  0  0  0  0  0  0  0  0
    8.0455   -1.3172   -1.7886 H   0  0  0  0  0  0  0  0  0  0  0  0
    8.6143   -2.7613   -0.1767 H   0  0  0  0  0  0  0  0  0  0  0  0
    6.6188   -1.0113    1.1151 H   0  0  0  0  0  0  0  0  0  0  0  0
    8.0474   -1.7562    1.8085 H   0  0  0  0  0  0  0  0  0  0  0  0
    8.4267    0.2112   -0.5180 H   0  0  0  0  0  0  0  0  0  0  0  0
    9.5904   -0.6099    0.5105 H   0  0  0  0  0  0  0  0  0  0  0  0
    9.4206    1.1300    1.8116 H   0  0  0  0  0  0  0  0  0  0  0  0
    6.5769    0.9706    2.3590 H   0  0  0  0  0  0  0  0  0  0  0  0
    7.7976    2.0938    2.9000 H   0  0  0  0  0  0  0  0  0  0  0  0
    6.4727    3.5290    1.8212 H   0  0  0  0  0  0  0  0  0  0  0  0
    7.8301    3.2516    0.6708 H   0  0  0  0  0  0  0  0  0  0  0  0
    6.3697    2.0077   -0.8406 H   0  0  0  0  0  0  0  0  0  0  0  0
    5.9150    3.6727   -0.4632 H   0  0  0  0  0  0  0  0  0  0  0  0
    3.9583    2.9821    0.5096 H   0  0  0  0  0  0  0  0  0  0  0  0
    4.7163    0.2950    0.9961 H   0  0  0  0  0  0  0  0  0  0  0  0
    3.1276    1.0152    0.8438 H   0  0  0  0  0  0  0  0  0  0  0  0
    2.9815    0.7697   -1.3935 H   0  0  0  0  0  0  0  0  0  0  0  0
    4.6657    0.5468   -1.7745 H   0  0  0  0  0  0  0  0  0  0  0  0
    1.2027   -0.2269    1.5110 H   0  0  0  0  0  0  0  0  0  0  0  0
   -0.9569    0.9976    1.3623 H   0  0  0  0  0  0  0  0  0  0  0  0
   -2.5027    2.0796   -0.1526 H   0  0  0  0  0  0  0  0  0  0  0  0
   -2.6707    1.5229   -1.8473 H   0  0  0  0  0  0  0  0  0  0  0  0
   -2.7523   -1.3370   -1.2953 H   0  0  0  0  0  0  0  0  0  0  0  0
   -3.6168   -0.2549   -2.3972 H   0  0  0  0  0  0  0  0  0  0  0  0
   -4.6473   -2.4324   -2.2440 H   0  0  0  0  0  0  0  0  0  0  0  0
   -5.0464   -2.2607   -0.5515 H   0  0  0  0  0  0  0  0  0  0  0  0
   -5.9665   -0.8019   -3.0728 H   0  0  0  0  0  0  0  0  0  0  0  0
   -6.9607   -1.7367   -1.9614 H   0  0  0  0  0  0  0  0  0  0  0  0
   -5.9038    0.9014   -1.0376 H   0  0  0  0  0  0  0  0  0  0  0  0
   -8.6586   -0.0345   -1.5504 H   0  0  0  0  0  0  0  0  0  0  0  0
   -7.7934    1.0467   -2.6925 H   0  0  0  0  0  0  0  0  0  0  0  0
   -7.2912    2.6796   -1.0813 H   0  0  0  0  0  0  0  0  0  0  0  0
   -9.0508    2.3578   -1.0059 H   0  0  0  0  0  0  0  0  0  0  0  0
   -7.8174    2.4841    1.1450 H   0  0  0  0  0  0  0  0  0  0  0  0
   -9.7601    1.2748    1.3554 H   0  0  0  0  0  0  0  0  0  0  0  0
   -9.0604   -0.1727    0.5962 H   0  0  0  0  0  0  0  0  0  0  0  0
   -9.0171   -0.3454    2.9989 H   0  0  0  0  0  0  0  0  0  0  0  0
   -8.2268    1.2702    3.1660 H   0  0  0  0  0  0  0  0  0  0  0  0
   -6.5774   -0.4491    3.5133 H   0  0  0  0  0  0  0  0  0  0  0  0
   -7.0554   -1.3506    2.0314 H   0  0  0  0  0  0  0  0  0  0  0  0
   -5.7810    1.3365    2.1579 H   0  0  0  0  0  0  0  0  0  0  0  0
   -5.0328   -1.4508    1.5904 H   0  0  0  0  0  0  0  0  0  0  0  0
   -4.4180   -0.3575    2.8099 H   0  0  0  0  0  0  0  0  0  0  0  0
   -3.3833    1.1433    1.3941 H   0  0  0  0  0  0  0  0  0  0  0  0
   -2.7262   -0.4906    1.1536 H   0  0  0  0  0  0  0  0  0  0  0  0
  1  2  2  0
  2  3  1  0
  3  4  1  0
  4  5  1  0
  5  6  1  0
  6  7  1  0
  7  8  1  0
  8  9  1  0
  9 10  1  0
 10 11  1  0
 11 12  1  0
 12 13  1  0
 13 14  1  0
 14 15  1  0
 15 16  1  0
 16 17  1  0
 17 18  1  0
  3 19  2  0
 19 20  1  0
 20 21  2  0
 21 22  1  0
 22 23  1  0
 23 24  1  0
 24 25  1  0
 25 26  1  0
 26 27  1  0
 27 28  1  0
 28 29  1  0
 29 30  1  0
 30 31  1  0
 31 32  1  0
 32 33  1  0
 33 34  1  0
 34 35  1  0
 35 36  1  0
 21  1  1  0
 36 23  1  0
 18  5  1  0
  1 37  1  0
  2 38  1  0
  4 39  1  0
  4 40  1  0
  6 41  1  0
  6 42  1  0
  7 43  1  0
  7 44  1  0
  8 45  1  0
  8 46  1  0
  9 47  1  0
 10 48  1  0
 10 49  1  0
 11 50  1  0
 11 51  1  0
 12 52  1  0
 13 53  1  0
 13 54  1  0
 14 55  1  0
 14 56  1  0
 15 57  1  0
 15 58  1  0
 16 59  1  0
 17 60  1  0
 17 61  1  0
 18 62  1  0
 18 63  1  0
 19 64  1  0
 20 65  1  0
 22 66  1  0
 22 67  1  0
 24 68  1  0
 24 69  1  0
 25 70  1  0
 25 71  1  0
 26 72  1  0
 26 73  1  0
 27 74  1  0
 28 75  1  0
 28 76  1  0
 29 77  1  0
 29 78  1  0
 30 79  1  0
 31 80  1  0
 31 81  1  0
 32 82  1  0
 32 83  1  0
 33 84  1  0
 33 85  1  0
 34 86  1  0
 35 87  1  0
 35 88  1  0
 36 89  1  0
 36 90  1  0
M  END
$$$$
