
     RDKit          3D

 57 61  0  0  0  0  0  0  0  0999 V2000
    7.3805   -1.7740    0.0288 C   0  0  0  0  0  0  0  0  0  0  0  0
    6.1327   -1.3640   -0.7154 C   0  0  0  0  0  0  0  0  0  0  0  0
    5.9414   -2.1653   -1.8320 O   0  0  0  0  0  0  0  0  0  0  0  0
    4.9153   -1.3579    0.1835 C   0  0  0  0  0  0  0  0  0  0  0  0
    3.7383   -0.9342   -0.6709 C   0  0  0  0  0  0  0  0  0  0  0  0
    3.5927    0.5656   -0.6863 C   0  0  0  0  0  0  0  0  0  0  0  0
    3.2585    0.9821    0.6592 N   0  0  0  0  0  0  0  0  0  0  0  0
    2.3893    2.0789    0.9402 C   0  0  0  0  0  0  0  0  0  0  0  0
    2.8320    3.1466    1.6512 N   0  0  0  0  0  0  0  0  0  0  0  0
    2.0367    4.1867    1.9275 C   0  0  0  0  0  0  0  0  0  0  0  0
    0.7216    4.1553    1.4646 C   0  0  0  0  0  0  0  0  0  0  0  0
    0.2784    3.0995    0.7597 N   0  0  0  0  0  0  0  0  0  0  0  0
    1.0921    2.0509    0.4852 C   0  0  0  0  0  0  0  0  0  0  0  0
    0.6843    0.9508   -0.2309 O   0  0  0  0  0  0  0  0  0  0  0  0
   -0.6048    0.8034   -0.7461 C   0  0  0  0  0  0  0  0  0  0  0  0
   -1.6017    0.2027   -0.0068 C   0  0  0  0  0  0  0  0  0  0  0  0
   -2.8804    0.0475   -0.4968 C   0  0  0  0  0  0  0  0  0  0  0  0
   -3.2370    0.4840   -1.7548 C   0  0  0  0  0  0  0  0  0  0  0  0
   -4.5451    0.3332   -2.2751 N   0  0  0  0  0  0  0  0  0  0  0  0
   -5.5033   -0.3081   -1.4144 C   0  0  0  0  0  0  0  0  0  0  0  0
   -5.9875   -1.3079   -1.0758 N   0  0  0  0  0  0  0  0  0  0  0  0
   -6.9203   -1.5338   -0.1816 C   0  0  0  0  0  0  0  0  0  0  0  0
   -7.4882   -2.7519    0.2092 C   0  0  0  0  0  0  0  0  0  0  0  0
   -8.4626   -2.7548    1.1763 C   0  0  0  0  0  0  0  0  0  0  0  0
   -8.9486   -1.6482    1.8163 C   0  0  0  0  0  0  0  0  0  0  0  0
   -8.3920   -0.4260    1.4373 C   0  0  0  0  0  0  0  0  0  0  0  0
   -7.4020   -0.4255    0.4543 C   0  0  0  0  0  0  0  0  0  0  0  0
   -6.4433    0.8983   -0.3094 S   0  0  0  0  0  0  0  0  0  0  0  0
   -2.2223    1.0916   -2.4983 C   0  0  0  0  0  0  0  0  0  0  0  0
   -0.9437    1.2462   -2.0069 C   0  0  0  0  0  0  0  0  0  0  0  0
    3.8485    0.2323    1.7508 C   0  0  0  0  0  0  0  0  0  0  0  0
    5.1402   -0.3843    1.3081 C   0  0  0  0  0  0  0  0  0  0  0  0
    7.7834   -0.8873    0.5418 H   0  0  0  0  0  0  0  0  0  0  0  0
    8.1100   -2.1385   -0.7177 H   0  0  0  0  0  0  0  0  0  0  0  0
    7.1971   -2.6027    0.7393 H   0  0  0  0  0  0  0  0  0  0  0  0
    6.3258   -0.3238   -1.0925 H   0  0  0  0  0  0  0  0  0  0  0  0
    5.4043   -2.9573   -1.6116 H   0  0  0  0  0  0  0  0  0  0  0  0
    4.7949   -2.3778    0.5947 H   0  0  0  0  0  0  0  0  0  0  0  0
    2.8075   -1.3398   -0.2030 H   0  0  0  0  0  0  0  0  0  0  0  0
    3.7799   -1.3109   -1.6916 H   0  0  0  0  0  0  0  0  0  0  0  0
    4.5282    1.0696   -1.0247 H   0  0  0  0  0  0  0  0  0  0  0  0
    2.7349    0.8122   -1.3462 H   0  0  0  0  0  0  0  0  0  0  0  0
    2.3752    5.0390    2.4900 H   0  0  0  0  0  0  0  0  0  0  0  0
    0.0825    4.9936    1.6879 H   0  0  0  0  0  0  0  0  0  0  0  0
   -1.3353   -0.1480    0.9906 H   0  0  0  0  0  0  0  0  0  0  0  0
   -3.6716   -0.4324    0.0973 H   0  0  0  0  0  0  0  0  0  0  0  0
   -4.7605    0.6795   -3.2286 H   0  0  0  0  0  0  0  0  0  0  0  0
   -7.1895   -3.7065   -0.2232 H   0  0  0  0  0  0  0  0  0  0  0  0
   -8.8876   -3.7307    1.4596 H   0  0  0  0  0  0  0  0  0  0  0  0
   -9.6961   -1.6832    2.5536 H   0  0  0  0  0  0  0  0  0  0  0  0
   -8.7102    0.5144    1.8871 H   0  0  0  0  0  0  0  0  0  0  0  0
   -2.5081    1.4357   -3.4930 H   0  0  0  0  0  0  0  0  0  0  0  0
   -0.1689    1.7203   -2.5982 H   0  0  0  0  0  0  0  0  0  0  0  0
    4.0963    0.9775    2.5597 H   0  0  0  0  0  0  0  0  0  0  0  0
    3.1104   -0.5156    2.1015 H   0  0  0  0  0  0  0  0  0  0  0  0
    5.7941    0.4262    0.9414 H   0  0  0  0  0  0  0  0  0  0  0  0
    5.6040   -0.9330    2.1598 H   0  0  0  0  0  0  0  0  0  0  0  0
  1  2  1  0
  2  3  1  0
  2  4  1  0
  4  5  1  0
  5  6  1  0
  6  7  1  0
  7  8  1  0
  8  9  2  0
  9 10  1  0
 10 11  2  0
 11 12  1  0
 12 13  2  0
 13 14  1  0
 14 15  1  0
 15 16  2  0
 16 17  1  0
 17 18  2  0
 18 19  1  0
 19 20  1  0
 20 21  2  0
 21 22  1  0
 22 23  2  0
 23 24  1  0
 24 25  2  0
 25 26  1  0
 26 27  2  0
 27 28  1  0
 18 29  1  0
 29 30  2  0
  7 31  1  0
 31 32  1  0
 32  4  1  0
 13  8  1  0
 30 15  1  0
 28 20  1  0
 27 22  1  0
  1 33  1  0
  1 34  1  0
  1 35  1  0
  2 36  1  0
  3 37  1  0
  4 38  1  0
  5 39  1  0
  5 40  1  0
  6 41  1  0
  6 42  1  0
 10 43  1  0
 11 44  1  0
 16 45  1  0
 17 46  1  0
 19 47  1  0
 23 48  1  0
 24 49  1  0
 25 50  1  0
 26 51  1  0
 29 52  1  0
 30 53  1  0
 31 54  1  0
 31 55  1  0
 32 56  1  0
 32 57  1  0
M  END
$$$$
