
     RDKit          3D

 33 33  0  0  0  0  0  0  0  0999 V2000
    4.5678    0.6552    0.5059 C   0  0  0  0  0  0  0  0  0  0  0  0
    3.2121    0.0737    0.0836 C   0  0  0  0  0  0  0  0  0  0  0  0
    2.9761    0.4393   -1.3558 C   0  0  0  0  0  0  0  0  0  0  0  0
    2.1868    0.6380    1.0038 C   0  0  0  0  0  0  0  0  0  0  0  0
    0.8192    0.1902    0.7490 C   0  0  0  0  0  0  0  0  0  0  0  0
    0.2294   -0.9220    1.3143 C   0  0  0  0  0  0  0  0  0  0  0  0
   -1.0824   -1.2692    1.0093 C   0  0  0  0  0  0  0  0  0  0  0  0
   -1.8211   -0.5094    0.1358 C   0  0  0  0  0  0  0  0  0  0  0  0
   -3.2194   -0.8952   -0.1777 C   0  0  2  0  0  0  0  0  0  0  0  0
   -3.4182   -1.2169   -1.6391 C   0  0  0  0  0  0  0  0  0  0  0  0
   -4.1908    0.1407    0.2115 C   0  0  0  0  0  0  0  0  0  0  0  0
   -4.9163    0.6577   -0.6640 O   0  0  0  0  0  0  0  0  0  0  0  0
   -4.3491    0.5834    1.5199 O   0  0  0  0  0  0  0  0  0  0  0  0
   -1.2559    0.5941   -0.4335 C   0  0  0  0  0  0  0  0  0  0  0  0
    0.0445    0.9281   -0.1238 C   0  0  0  0  0  0  0  0  0  0  0  0
    4.5656    1.7603    0.4222 H   0  0  0  0  0  0  0  0  0  0  0  0
    4.7272    0.4225    1.5730 H   0  0  0  0  0  0  0  0  0  0  0  0
    5.3873    0.2687   -0.1028 H   0  0  0  0  0  0  0  0  0  0  0  0
    3.2708   -1.0204    0.1924 H   0  0  0  0  0  0  0  0  0  0  0  0
    3.2553    1.5028   -1.5092 H   0  0  0  0  0  0  0  0  0  0  0  0
    1.9298    0.2492   -1.6615 H   0  0  0  0  0  0  0  0  0  0  0  0
    3.6293   -0.1721   -2.0113 H   0  0  0  0  0  0  0  0  0  0  0  0
    2.2171    1.7430    0.9427 H   0  0  0  0  0  0  0  0  0  0  0  0
    2.4945    0.3868    2.0488 H   0  0  0  0  0  0  0  0  0  0  0  0
    0.8284   -1.5078    2.0003 H   0  0  0  0  0  0  0  0  0  0  0  0
   -1.4836   -2.1624    1.4942 H   0  0  0  0  0  0  0  0  0  0  0  0
   -3.4899   -1.8167    0.3835 H   0  0  0  0  0  0  0  0  0  0  0  0
   -4.4405   -1.6606   -1.7258 H   0  0  0  0  0  0  0  0  0  0  0  0
   -2.6840   -1.9246   -2.0332 H   0  0  0  0  0  0  0  0  0  0  0  0
   -3.3963   -0.2539   -2.1870 H   0  0  0  0  0  0  0  0  0  0  0  0
   -5.2096    1.0884    1.7577 H   0  0  0  0  0  0  0  0  0  0  0  0
   -1.8321    1.1990   -1.1238 H   0  0  0  0  0  0  0  0  0  0  0  0
    0.4481    1.8100   -0.5993 H   0  0  0  0  0  0  0  0  0  0  0  0
  1  2  1  0
  2  3  1  0
  2  4  1  0
  4  5  1  0
  5  6  2  0
  6  7  1  0
  7  8  2  0
  8  9  1  0
  9 10  1  0
  9 11  1  0
 11 12  2  0
 11 13  1  0
  8 14  1  0
 14 15  2  0
 15  5  1  0
  1 16  1  0
  1 17  1  0
  1 18  1  0
  2 19  1  0
  3 20  1  0
  3 21  1  0
  3 22  1  0
  4 23  1  0
  4 24  1  0
  6 25  1  0
  7 26  1  0
  9 27  1  1
 10 28  1  0
 10 29  1  0
 10 30  1  0
 13 31  1  0
 14 32  1  0
 15 33  1  0
M  END
$$$$
