
     RDKit          3D

 51 53  0  0  0  0  0  0  0  0999 V2000
   -0.9604   -3.4240    1.1544 C   0  0  0  0  0  0  0  0  0  0  0  0
    0.2998   -2.7001    0.8589 C   0  0  0  0  0  0  0  0  0  0  0  0
    1.4837   -3.4361    0.8126 C   0  0  0  0  0  0  0  0  0  0  0  0
    2.6837   -2.7905    0.5924 C   0  0  0  0  0  0  0  0  0  0  0  0
    2.7359   -1.4291    0.4169 C   0  0  0  0  0  0  0  0  0  0  0  0
    4.0115   -0.7071    0.1789 C   0  0  0  0  0  0  0  0  0  0  0  0
    5.2184   -1.3547    0.1199 C   0  0  0  0  0  0  0  0  0  0  0  0
    6.3971   -0.6363   -0.1065 C   0  0  0  0  0  0  0  0  0  0  0  0
    6.3266    0.7295   -0.2689 C   0  0  0  0  0  0  0  0  0  0  0  0
    5.1286    1.4134   -0.2154 C   0  0  0  0  0  0  0  0  0  0  0  0
    5.0822    2.8880   -0.3942 C   0  0  0  0  0  0  0  0  0  0  0  0
    5.2203    3.4693    0.8603 O   0  0  0  0  0  0  0  0  0  0  0  0
    4.0063    0.6617    0.0085 C   0  0  0  0  0  0  0  0  0  0  0  0
    1.5860   -0.7606    0.4667 N   0  0  0  0  0  0  0  0  0  0  0  0
    0.3506   -1.3517    0.6832 C   0  0  0  0  0  0  0  0  0  0  0  0
   -0.8153   -0.4942    0.6457 C   0  0  0  0  0  0  0  0  0  0  0  0
   -0.5967    0.7531    0.9289 O   0  0  0  0  0  0  0  0  0  0  0  0
   -2.1333   -0.8341    0.3405 N   0  0  0  0  0  0  0  0  0  0  0  0
   -3.2109    0.1152    0.3470 C   0  0  0  0  0  0  0  0  0  0  0  0
   -3.9180    0.3201    1.5024 C   0  0  0  0  0  0  0  0  0  0  0  0
   -3.6454   -0.3814    2.7710 C   0  0  0  0  0  0  0  0  0  0  0  0
   -4.9699    1.2458    1.5126 C   0  0  0  0  0  0  0  0  0  0  0  0
   -5.3088    1.9523    0.3925 C   0  0  0  0  0  0  0  0  0  0  0  0
   -4.5918    1.7400   -0.7663 C   0  0  0  0  0  0  0  0  0  0  0  0
   -4.9735    2.5027   -1.9361 C   0  0  0  0  0  0  0  0  0  0  0  0
   -4.3570    2.3488   -3.0105 O   0  0  0  0  0  0  0  0  0  0  0  0
   -6.0080    3.4150   -1.9313 O   0  0  0  0  0  0  0  0  0  0  0  0
   -3.5537    0.8285   -0.7821 C   0  0  0  0  0  0  0  0  0  0  0  0
   -2.7796    0.6080   -2.0579 C   0  0  0  0  0  0  0  0  0  0  0  0
   -1.6162   -2.9230    1.8708 H   0  0  0  0  0  0  0  0  0  0  0  0
   -0.6881   -4.3920    1.7346 H   0  0  0  0  0  0  0  0  0  0  0  0
   -1.4455   -3.8547    0.2559 H   0  0  0  0  0  0  0  0  0  0  0  0
    1.3984   -4.4954    0.9543 H   0  0  0  0  0  0  0  0  0  0  0  0
    3.5826   -3.3730    0.5601 H   0  0  0  0  0  0  0  0  0  0  0  0
    5.3018   -2.4251    0.2439 H   0  0  0  0  0  0  0  0  0  0  0  0
    7.3545   -1.1282   -0.1560 H   0  0  0  0  0  0  0  0  0  0  0  0
    7.2227    1.3365   -0.4485 H   0  0  0  0  0  0  0  0  0  0  0  0
    4.1075    3.1310   -0.8587 H   0  0  0  0  0  0  0  0  0  0  0  0
    5.9447    3.2191   -1.0032 H   0  0  0  0  0  0  0  0  0  0  0  0
    6.0905    3.1225    1.2299 H   0  0  0  0  0  0  0  0  0  0  0  0
    3.0531    1.1834    0.0538 H   0  0  0  0  0  0  0  0  0  0  0  0
   -2.3879   -1.7935    0.0637 H   0  0  0  0  0  0  0  0  0  0  0  0
   -4.5705   -0.4244    3.3830 H   0  0  0  0  0  0  0  0  0  0  0  0
   -3.3047   -1.4112    2.6440 H   0  0  0  0  0  0  0  0  0  0  0  0
   -2.9243    0.2320    3.3877 H   0  0  0  0  0  0  0  0  0  0  0  0
   -5.5326    1.4141    2.4171 H   0  0  0  0  0  0  0  0  0  0  0  0
   -6.1117    2.6580    0.4029 H   0  0  0  0  0  0  0  0  0  0  0  0
   -6.4262    3.6866   -2.8113 H   0  0  0  0  0  0  0  0  0  0  0  0
   -2.2837    1.5278   -2.4069 H   0  0  0  0  0  0  0  0  0  0  0  0
   -3.4438    0.2343   -2.8378 H   0  0  0  0  0  0  0  0  0  0  0  0
   -2.0290   -0.2161   -1.8984 H   0  0  0  0  0  0  0  0  0  0  0  0
  1  2  1  0
  2  3  2  0
  3  4  1  0
  4  5  2  0
  5  6  1  0
  6  7  2  0
  7  8  1  0
  8  9  2  0
  9 10  1  0
 10 11  1  0
 11 12  1  0
 10 13  2  0
  5 14  1  0
 14 15  2  0
 15 16  1  0
 16 17  2  0
 16 18  1  0
 18 19  1  0
 19 20  2  0
 20 21  1  0
 20 22  1  0
 22 23  2  0
 23 24  1  0
 24 25  1  0
 25 26  2  0
 25 27  1  0
 24 28  2  0
 28 29  1  0
 15  2  1  0
 28 19  1  0
 13  6  1  0
  1 30  1  0
  1 31  1  0
  1 32  1  0
  3 33  1  0
  4 34  1  0
  7 35  1  0
  8 36  1  0
  9 37  1  0
 11 38  1  0
 11 39  1  0
 12 40  1  0
 13 41  1  0
 18 42  1  0
 21 43  1  0
 21 44  1  0
 21 45  1  0
 22 46  1  0
 23 47  1  0
 27 48  1  0
 29 49  1  0
 29 50  1  0
 29 51  1  0
M  END
$$$$
