
     RDKit          3D

 60 63  0  0  0  0  0  0  0  0999 V2000
    0.4223    1.9550    1.9415 C   0  0  0  0  0  0  0  0  0  0  0  0
    0.8338    1.8143    0.4574 C   0  0  1  0  0  0  0  0  0  0  0  0
    2.1431    1.1401    0.3599 C   0  0  0  0  0  0  0  0  0  0  0  0
    2.4424   -0.1073    0.8539 C   0  0  0  0  0  0  0  0  0  0  0  0
    3.6862   -0.6946    0.7125 C   0  0  0  0  0  0  0  0  0  0  0  0
    4.7156   -0.0526    0.0578 C   0  0  0  0  0  0  0  0  0  0  0  0
    6.0267   -0.6730   -0.0882 C   0  0  0  0  0  0  0  0  0  0  0  0
    6.6581   -0.6400   -1.3139 C   0  0  0  0  0  0  0  0  0  0  0  0
    7.8981   -1.2094   -1.5191 C   0  0  0  0  0  0  0  0  0  0  0  0
    8.5466   -1.8359   -0.4859 C   0  0  0  0  0  0  0  0  0  0  0  0
    9.7635   -2.4152   -0.6161 F   0  0  0  0  0  0  0  0  0  0  0  0
    7.9483   -1.8906    0.7566 C   0  0  0  0  0  0  0  0  0  0  0  0
    6.6950   -1.3070    0.9362 C   0  0  0  0  0  0  0  0  0  0  0  0
    6.1413   -1.3755    2.1473 F   0  0  0  0  0  0  0  0  0  0  0  0
    4.4317    1.2020   -0.4441 C   0  0  0  0  0  0  0  0  0  0  0  0
    3.1952    1.7889   -0.3053 C   0  0  0  0  0  0  0  0  0  0  0  0
   -0.2642    1.0878   -0.1515 N   0  0  0  0  0  0  0  0  0  0  0  0
   -0.6047   -0.2803    0.1040 C   0  0  0  0  0  0  0  0  0  0  0  0
   -1.9152   -0.6006   -0.5823 C   0  0  0  0  0  0  0  0  0  0  0  0
   -2.9794    0.4298   -0.4122 C   0  0  2  0  0  0  0  0  0  0  0  0
   -3.2274    0.8744    0.9627 C   0  0  0  0  0  0  0  0  0  0  0  0
   -3.5901   -0.0568    2.0245 C   0  0  0  0  0  0  0  0  0  0  0  0
   -4.8286   -0.8301    1.8859 C   0  0  0  0  0  0  0  0  0  0  0  0
   -5.1350   -1.9026    2.8082 N   0  0  0  0  0  0  0  0  0  0  0  0
   -5.7052   -0.6597    1.0117 O   0  0  0  0  0  0  0  0  0  0  0  0
   -4.1507    0.1096   -1.2412 C   0  0  0  0  0  0  0  0  0  0  0  0
   -4.3262   -1.0982   -1.8750 C   0  0  0  0  0  0  0  0  0  0  0  0
   -5.4191   -1.3446   -2.6864 C   0  0  0  0  0  0  0  0  0  0  0  0
   -6.3803   -0.3972   -2.8985 C   0  0  0  0  0  0  0  0  0  0  0  0
   -7.4735   -0.5688   -3.6780 F   0  0  0  0  0  0  0  0  0  0  0  0
   -6.2390    0.8243   -2.2808 C   0  0  0  0  0  0  0  0  0  0  0  0
   -5.1552    1.0647   -1.4777 C   0  0  0  0  0  0  0  0  0  0  0  0
   -2.4142    1.5991   -1.1170 O   0  0  0  0  0  0  0  0  0  0  0  0
   -1.0447    1.8196   -1.0843 C   0  0  0  0  0  0  0  0  0  0  0  0
   -0.5329    2.6607   -1.8801 O   0  0  0  0  0  0  0  0  0  0  0  0
    1.3458    2.3664    2.4390 H   0  0  0  0  0  0  0  0  0  0  0  0
    0.2560    0.9643    2.4063 H   0  0  0  0  0  0  0  0  0  0  0  0
   -0.3925    2.6693    2.0565 H   0  0  0  0  0  0  0  0  0  0  0  0
    0.9381    2.8491    0.1130 H   0  0  0  0  0  0  0  0  0  0  0  0
    1.6673   -0.6544    1.3965 H   0  0  0  0  0  0  0  0  0  0  0  0
    3.9043   -1.6851    1.1110 H   0  0  0  0  0  0  0  0  0  0  0  0
    6.1725   -0.1474   -2.1689 H   0  0  0  0  0  0  0  0  0  0  0  0
    8.3800   -1.1765   -2.4824 H   0  0  0  0  0  0  0  0  0  0  0  0
    8.4630   -2.3879    1.5772 H   0  0  0  0  0  0  0  0  0  0  0  0
    5.2438    1.7132   -0.9625 H   0  0  0  0  0  0  0  0  0  0  0  0
    2.9838    2.7843   -0.7083 H   0  0  0  0  0  0  0  0  0  0  0  0
    0.1492   -0.9885   -0.3307 H   0  0  0  0  0  0  0  0  0  0  0  0
   -0.6843   -0.3884    1.2098 H   0  0  0  0  0  0  0  0  0  0  0  0
   -1.6723   -0.6529   -1.6758 H   0  0  0  0  0  0  0  0  0  0  0  0
   -2.2589   -1.6309   -0.3239 H   0  0  0  0  0  0  0  0  0  0  0  0
   -2.3683    1.5442    1.2989 H   0  0  0  0  0  0  0  0  0  0  0  0
   -4.0723    1.6424    0.9045 H   0  0  0  0  0  0  0  0  0  0  0  0
   -2.7505   -0.7215    2.3715 H   0  0  0  0  0  0  0  0  0  0  0  0
   -3.7602    0.5732    2.9672 H   0  0  0  0  0  0  0  0  0  0  0  0
   -6.0547   -1.8719    3.2698 H   0  0  0  0  0  0  0  0  0  0  0  0
   -4.4751   -2.6635    3.0015 H   0  0  0  0  0  0  0  0  0  0  0  0
   -3.6157   -1.8881   -1.7591 H   0  0  0  0  0  0  0  0  0  0  0  0
   -5.5447   -2.2987   -3.1791 H   0  0  0  0  0  0  0  0  0  0  0  0
   -6.9963    1.6050   -2.4323 H   0  0  0  0  0  0  0  0  0  0  0  0
   -5.0204    2.0139   -0.9818 H   0  0  0  0  0  0  0  0  0  0  0  0
  1  2  1  0
  2  3  1  0
  3  4  2  0
  4  5  1  0
  5  6  2  0
  6  7  1  0
  7  8  2  0
  8  9  1  0
  9 10  2  0
 10 11  1  0
 10 12  1  0
 12 13  2  0
 13 14  1  0
  6 15  1  0
 15 16  2  0
  2 17  1  0
 17 18  1  0
 18 19  1  0
 19 20  1  0
 20 21  1  1
 21 22  1  0
 22 23  1  0
 23 24  1  0
 23 25  2  0
 20 26  1  0
 26 27  2  0
 27 28  1  0
 28 29  2  0
 29 30  1  0
 29 31  1  0
 31 32  2  0
 20 33  1  0
 33 34  1  0
 34 35  2  0
 16  3  1  0
 34 17  1  0
 13  7  1  0
 32 26  1  0
  1 36  1  0
  1 37  1  0
  1 38  1  0
  2 39  1  6
  4 40  1  0
  5 41  1  0
  8 42  1  0
  9 43  1  0
 12 44  1  0
 15 45  1  0
 16 46  1  0
 18 47  1  0
 18 48  1  0
 19 49  1  0
 19 50  1  0
 21 51  1  0
 21 52  1  0
 22 53  1  0
 22 54  1  0
 24 55  1  0
 24 56  1  0
 27 57  1  0
 28 58  1  0
 31 59  1  0
 32 60  1  0
M  END
$$$$
