
     RDKit          3D

100106  0  0  0  0  0  0  0  0999 V2000
  -11.5868    5.4555    0.2258 C   0  0  0  0  0  0  0  0  0  0  0  0
  -11.9675    4.2921   -0.2340 C   0  0  0  0  0  0  0  0  0  0  0  0
  -13.2204    4.0494   -0.8702 C   0  0  0  0  0  0  0  0  0  0  0  0
  -10.9357    3.2046   -0.1882 C   0  0  0  0  0  0  0  0  0  0  0  0
   -9.5418    3.5933   -0.1624 C   0  0  0  0  0  0  0  0  0  0  0  0
   -8.7574    2.4296   -0.2079 C   0  0  0  0  0  0  0  0  0  0  0  0
   -7.4045    2.4398   -0.4233 N   0  0  0  0  0  0  0  0  0  0  0  0
   -6.3321    1.6162   -0.1459 C   0  0  0  0  0  0  0  0  0  0  0  0
   -6.4942    0.6754    0.6391 O   0  0  0  0  0  0  0  0  0  0  0  0
   -5.0202    1.7941   -0.7553 N   0  0  0  0  0  0  0  0  0  0  0  0
   -3.9632    0.8860   -0.5282 C   0  0  0  0  0  0  0  0  0  0  0  0
   -3.9164   -0.3146   -1.1731 C   0  0  0  0  0  0  0  0  0  0  0  0
   -2.9485   -1.2520   -0.8618 C   0  0  0  0  0  0  0  0  0  0  0  0
   -1.9876   -1.0131    0.1530 C   0  0  0  0  0  0  0  0  0  0  0  0
   -1.1099   -1.9961    0.3646 O   0  0  0  0  0  0  0  0  0  0  0  0
    0.1801   -2.2400    0.4346 C   0  0  0  0  0  0  0  0  0  0  0  0
    0.4219   -3.7351    0.5241 C   0  0  0  0  0  0  0  0  0  0  0  0
    1.6747   -4.2212    0.5977 C   0  0  0  0  0  0  0  0  0  0  0  0
    2.7515   -3.4409    0.5934 N   0  0  0  0  0  0  0  0  0  0  0  0
    2.5327   -2.0456    0.5082 C   0  0  0  0  0  0  0  0  0  0  0  0
    3.6994   -1.2746    0.5304 N   0  0  0  0  0  0  0  0  0  0  0  0
    4.9163   -1.5775   -0.1509 C   0  0  0  0  0  0  0  0  0  0  0  0
    5.0220   -2.4663   -1.1758 C   0  0  0  0  0  0  0  0  0  0  0  0
    6.2033   -2.7209   -1.9162 C   0  0  0  0  0  0  0  0  0  0  0  0
    6.3823   -3.5396   -2.8947 O   0  0  0  0  0  0  0  0  0  0  0  0
    5.8838   -4.4521   -3.7220 C   0  0  0  0  0  0  0  0  0  0  0  0
    7.3289   -1.9442   -1.4689 C   0  0  0  0  0  0  0  0  0  0  0  0
    7.2557   -1.0783   -0.4742 C   0  0  0  0  0  0  0  0  0  0  0  0
    8.4173   -0.2397   -0.0801 C   0  0  0  0  0  0  0  0  0  0  0  0
    9.2699    0.0780   -0.9708 O   0  0  0  0  0  0  0  0  0  0  0  0
    8.5542    0.1752    1.2215 N   0  0  0  0  0  0  0  0  0  0  0  0
    9.4979    1.0142    1.8761 C   0  0  0  0  0  0  0  0  0  0  0  0
   10.9487    0.5980    1.7762 C   0  0  0  0  0  0  0  0  0  0  0  0
   11.3232    0.7950    0.3874 N   0  0  0  0  0  0  0  0  0  0  0  0
   12.6389    0.2474    0.0941 C   0  0  0  0  0  0  0  0  0  0  0  0
   12.8489    0.5057   -1.3928 C   0  0  0  0  0  0  0  0  0  0  0  0
   13.0222    1.8510   -1.6133 O   0  0  0  0  0  0  0  0  0  0  0  0
   12.5740    2.6758   -0.6241 C   0  0  0  0  0  0  0  0  0  0  0  0
   11.3513    2.2406    0.0941 C   0  0  0  0  0  0  0  0  0  0  0  0
    6.0535   -0.8845    0.1921 C   0  0  0  0  0  0  0  0  0  0  0  0
    1.3115   -1.6723    0.4407 N   0  0  0  0  0  0  0  0  0  0  0  0
   -2.0534    0.2003    0.8108 C   0  0  0  0  0  0  0  0  0  0  0  0
   -1.0364    0.5376    1.7077 C   0  0  0  0  0  0  0  0  0  0  0  0
   -1.0496    1.7655    2.1955 C   0  0  0  0  0  0  0  0  0  0  0  0
   -1.9987    2.7720    1.9226 C   0  0  0  0  0  0  0  0  0  0  0  0
   -3.0057    2.4316    1.0346 C   0  0  0  0  0  0  0  0  0  0  0  0
   -3.0023    1.1188    0.4731 C   0  0  0  0  0  0  0  0  0  0  0  0
   -9.7242    1.3815   -0.2283 N   0  0  0  0  0  0  0  0  0  0  0  0
   -9.3139    0.0582   -0.2613 C   0  0  0  0  0  0  0  0  0  0  0  0
   -9.7567   -0.8930    0.6522 C   0  0  0  0  0  0  0  0  0  0  0  0
   -9.4235   -2.1591    0.7141 C   0  0  0  0  0  0  0  0  0  0  0  0
   -8.4512   -2.7445   -0.2706 C   0  0  0  0  0  0  0  0  0  0  0  0
   -8.1515   -4.0471   -0.1724 O   0  0  0  0  0  0  0  0  0  0  0  0
   -8.8403   -4.8467    0.8142 C   0  0  0  0  0  0  0  0  0  0  0  0
   -8.0693   -1.7639   -1.1235 C   0  0  0  0  0  0  0  0  0  0  0  0
   -8.4068   -0.4737   -1.1946 C   0  0  0  0  0  0  0  0  0  0  0  0
  -10.8246    1.9720   -0.2255 N   0  0  0  0  0  0  0  0  0  0  0  0
  -12.8166    6.0552   -0.2423 H   0  0  0  0  0  0  0  0  0  0  0  0
  -11.3143    6.3215    0.5634 H   0  0  0  0  0  0  0  0  0  0  0  0
  -13.3117    2.9505   -1.1280 H   0  0  0  0  0  0  0  0  0  0  0  0
  -14.1109    4.2263   -0.2010 H   0  0  0  0  0  0  0  0  0  0  0  0
  -13.4415    4.5769   -1.8413 H   0  0  0  0  0  0  0  0  0  0  0  0
   -9.1762    4.5998   -0.0842 H   0  0  0  0  0  0  0  0  0  0  0  0
   -7.1080    3.2796   -1.1217 H   0  0  0  0  0  0  0  0  0  0  0  0
   -4.9398    2.6262   -1.3532 H   0  0  0  0  0  0  0  0  0  0  0  0
   -4.6738   -0.4662   -1.9386 H   0  0  0  0  0  0  0  0  0  0  0  0
   -2.9389   -2.1835   -1.4082 H   0  0  0  0  0  0  0  0  0  0  0  0
   -0.4462   -4.3341    0.5303 H   0  0  0  0  0  0  0  0  0  0  0  0
    1.8781   -5.3038    0.7360 H   0  0  0  0  0  0  0  0  0  0  0  0
    3.6843   -0.3871    1.1218 H   0  0  0  0  0  0  0  0  0  0  0  0
    4.1557   -3.0267   -1.4640 H   0  0  0  0  0  0  0  0  0  0  0  0
    6.2563   -5.5006   -3.4871 H   0  0  0  0  0  0  0  0  0  0  0  0
    6.3818   -4.1949   -4.7641 H   0  0  0  0  0  0  0  0  0  0  0  0
    4.8144   -4.4669   -3.9422 H   0  0  0  0  0  0  0  0  0  0  0  0
    8.2527   -2.1216   -2.0252 H   0  0  0  0  0  0  0  0  0  0  0  0
    7.8047   -0.2664    1.8934 H   0  0  0  0  0  0  0  0  0  0  0  0
    9.1690    1.1967    2.9208 H   0  0  0  0  0  0  0  0  0  0  0  0
    9.4156    2.0594    1.4023 H   0  0  0  0  0  0  0  0  0  0  0  0
   10.9917   -0.4960    1.9912 H   0  0  0  0  0  0  0  0  0  0  0  0
   11.5457    1.1873    2.4693 H   0  0  0  0  0  0  0  0  0  0  0  0
   13.4384    0.6595    0.6858 H   0  0  0  0  0  0  0  0  0  0  0  0
   12.6035   -0.8615    0.2533 H   0  0  0  0  0  0  0  0  0  0  0  0
   13.7222   -0.0503   -1.7872 H   0  0  0  0  0  0  0  0  0  0  0  0
   11.8865    0.1747   -1.8957 H   0  0  0  0  0  0  0  0  0  0  0  0
   12.3346    3.6719   -1.1337 H   0  0  0  0  0  0  0  0  0  0  0  0
   13.4090    2.9395    0.0751 H   0  0  0  0  0  0  0  0  0  0  0  0
   11.3547    2.7819    1.0813 H   0  0  0  0  0  0  0  0  0  0  0  0
   10.4525    2.5083   -0.4601 H   0  0  0  0  0  0  0  0  0  0  0  0
    6.0206   -0.1568    0.9649 H   0  0  0  0  0  0  0  0  0  0  0  0
   -0.3290   -0.2429    1.9677 H   0  0  0  0  0  0  0  0  0  0  0  0
   -0.2340    2.0535    2.9233 H   0  0  0  0  0  0  0  0  0  0  0  0
   -1.9300    3.7322    2.3356 H   0  0  0  0  0  0  0  0  0  0  0  0
   -3.7900    3.0845    0.7131 H   0  0  0  0  0  0  0  0  0  0  0  0
  -10.4560   -0.4766    1.4118 H   0  0  0  0  0  0  0  0  0  0  0  0
   -9.7297   -2.9151    1.4321 H   0  0  0  0  0  0  0  0  0  0  0  0
   -9.9549   -4.7441    0.5993 H   0  0  0  0  0  0  0  0  0  0  0  0
   -8.6076   -5.9037    0.7058 H   0  0  0  0  0  0  0  0  0  0  0  0
   -8.7030   -4.4848    1.8149 H   0  0  0  0  0  0  0  0  0  0  0  0
   -7.2861   -2.1583   -1.8656 H   0  0  0  0  0  0  0  0  0  0  0  0
   -8.0442    0.2388   -1.9393 H   0  0  0  0  0  0  0  0  0  0  0  0
  1  2  2  3
  2  3  1  0
  2  4  1  0
  4  5  1  0
  5  6  2  0
  6  7  1  0
  7  8  1  0
  8  9  2  0
  8 10  1  0
 10 11  1  0
 11 12  2  0
 12 13  1  0
 13 14  2  0
 14 15  1  0
 15 16  1  0
 16 17  2  0
 17 18  1  0
 18 19  2  0
 19 20  1  0
 20 21  1  0
 21 22  1  0
 22 23  2  0
 23 24  1  0
 24 25  1  0
 25 26  1  0
 24 27  2  0
 27 28  1  0
 28 29  1  0
 29 30  2  0
 29 31  1  0
 31 32  1  0
 32 33  1  0
 33 34  1  0
 34 35  1  0
 35 36  1  0
 36 37  1  0
 37 38  1  0
 38 39  1  0
 28 40  2  0
 20 41  2  0
 14 42  1  0
 42 43  2  0
 43 44  1  0
 44 45  2  0
 45 46  1  0
 46 47  2  0
  6 48  1  0
 48 49  1  0
 49 50  2  0
 50 51  1  0
 51 52  2  0
 52 53  1  0
 53 54  1  0
 52 55  1  0
 55 56  2  0
 48 57  1  0
 57  4  2  0
 47 11  1  0
 56 49  1  0
 41 16  1  0
 47 42  1  0
 40 22  1  0
 39 34  1  0
  1 58  1  0
  1 59  1  0
  3 60  1  0
  3 61  1  0
  3 62  1  0
  5 63  1  0
  7 64  1  0
 10 65  1  0
 12 66  1  0
 13 67  1  0
 17 68  1  0
 18 69  1  0
 21 70  1  0
 23 71  1  0
 26 72  1  0
 26 73  1  0
 26 74  1  0
 27 75  1  0
 31 76  1  0
 32 77  1  0
 32 78  1  0
 33 79  1  0
 33 80  1  0
 35 81  1  0
 35 82  1  0
 36 83  1  0
 36 84  1  0
 38 85  1  0
 38 86  1  0
 39 87  1  0
 39 88  1  0
 40 89  1  0
 43 90  1  0
 44 91  1  0
 45 92  1  0
 46 93  1  0
 50 94  1  0
 51 95  1  0
 54 96  1  0
 54 97  1  0
 54 98  1  0
 55 99  1  0
 56100  1  0
M  END
$$$$
