
     RDKit          3D

 47 49  0  0  0  0  0  0  0  0999 V2000
    6.3079    1.7815    1.0926 C   0  0  0  0  0  0  0  0  0  0  0  0
    5.1298    0.8064    1.1384 C   0  0  0  0  0  0  0  0  0  0  0  0
    5.2897   -0.1865    0.0276 C   0  0  0  0  0  0  0  0  0  0  0  0
    4.2472   -1.2298   -0.0695 C   0  0  0  0  0  0  0  0  0  0  0  0
    2.6242   -0.5614   -0.3301 S   0  0  0  0  0  6  0  0  0  0  0  0
    2.6153    0.1705   -1.6298 O   0  0  0  0  0  0  0  0  0  0  0  0
    2.2982    0.3041    0.8521 O   0  0  0  0  0  0  0  0  0  0  0  0
    1.5355   -1.9441   -0.4486 C   0  0  0  0  0  0  0  0  0  0  0  0
    0.1236   -1.6761   -0.6537 C   0  0  1  0  0  0  0  0  0  0  0  0
   -0.6052   -0.8490    0.4175 C   0  0  0  0  0  0  0  0  0  0  0  0
   -1.5596   -0.5212   -0.7034 C   0  0  1  0  0  0  0  0  0  0  0  0
   -2.2467    0.7047   -0.7122 N   0  0  0  0  0  0  0  0  0  0  0  0
   -1.6336    2.0173   -0.6742 C   0  0  0  0  0  0  0  0  0  0  0  0
   -3.6696    0.7144   -0.7775 C   0  0  0  0  0  0  0  0  0  0  0  0
   -4.3062    1.2510   -1.8617 N   0  0  0  0  0  0  0  0  0  0  0  0
   -5.6453    1.2507   -1.9252 C   0  0  0  0  0  0  0  0  0  0  0  0
   -6.4245    0.7361   -0.9519 N   0  0  0  0  0  0  0  0  0  0  0  0
   -5.8533    0.2010    0.1269 C   0  0  0  0  0  0  0  0  0  0  0  0
   -6.3519   -0.3675    1.2264 N   0  0  0  0  0  0  0  0  0  0  0  0
   -5.3255   -0.7397    2.0119 C   0  0  0  0  0  0  0  0  0  0  0  0
   -4.1347   -0.4028    1.4036 C   0  0  0  0  0  0  0  0  0  0  0  0
   -4.4777    0.1949    0.2048 C   0  0  0  0  0  0  0  0  0  0  0  0
   -0.3184   -0.5981   -1.6156 C   0  0  0  0  0  0  0  0  0  0  0  0
    6.5383    1.9783    0.0301 H   0  0  0  0  0  0  0  0  0  0  0  0
    7.1469    1.2471    1.6007 H   0  0  0  0  0  0  0  0  0  0  0  0
    6.0469    2.7256    1.5968 H   0  0  0  0  0  0  0  0  0  0  0  0
    5.0312    0.2989    2.1081 H   0  0  0  0  0  0  0  0  0  0  0  0
    4.2332    1.4591    0.9897 H   0  0  0  0  0  0  0  0  0  0  0  0
    6.2674   -0.7110    0.2017 H   0  0  0  0  0  0  0  0  0  0  0  0
    5.3167    0.3416   -0.9677 H   0  0  0  0  0  0  0  0  0  0  0  0
    4.5228   -1.9242   -0.8943 H   0  0  0  0  0  0  0  0  0  0  0  0
    4.2196   -1.8949    0.8435 H   0  0  0  0  0  0  0  0  0  0  0  0
    1.6556   -2.5209    0.5148 H   0  0  0  0  0  0  0  0  0  0  0  0
    1.9146   -2.6091   -1.2344 H   0  0  0  0  0  0  0  0  0  0  0  0
   -0.5206   -2.5773   -0.8393 H   0  0  0  0  0  0  0  0  0  0  0  0
   -0.9878   -1.4415    1.2473 H   0  0  0  0  0  0  0  0  0  0  0  0
   -0.0215    0.0532    0.6829 H   0  0  0  0  0  0  0  0  0  0  0  0
   -2.1858   -1.3950   -0.9267 H   0  0  0  0  0  0  0  0  0  0  0  0
   -2.2359    2.6490    0.0341 H   0  0  0  0  0  0  0  0  0  0  0  0
   -0.6104    2.0210   -0.3042 H   0  0  0  0  0  0  0  0  0  0  0  0
   -1.6758    2.5189   -1.6523 H   0  0  0  0  0  0  0  0  0  0  0  0
   -6.1462    1.6823   -2.7967 H   0  0  0  0  0  0  0  0  0  0  0  0
   -7.3610   -0.5323    1.5034 H   0  0  0  0  0  0  0  0  0  0  0  0
   -5.4044   -1.2270    2.9715 H   0  0  0  0  0  0  0  0  0  0  0  0
   -3.1313   -0.5613    1.7716 H   0  0  0  0  0  0  0  0  0  0  0  0
    0.3203    0.2984   -1.5283 H   0  0  0  0  0  0  0  0  0  0  0  0
   -0.5520   -0.9353   -2.6388 H   0  0  0  0  0  0  0  0  0  0  0  0
  1  2  1  0
  2  3  1  0
  3  4  1  0
  4  5  1  0
  5  6  2  0
  5  7  2  0
  5  8  1  0
  8  9  1  0
  9 10  1  0
 10 11  1  0
 11 12  1  0
 12 13  1  0
 12 14  1  0
 14 15  2  0
 15 16  1  0
 16 17  2  0
 17 18  1  0
 18 19  1  0
 19 20  1  0
 20 21  2  0
 21 22  1  0
 11 23  1  0
 23  9  1  0
 22 14  1  0
 22 18  2  0
  1 24  1  0
  1 25  1  0
  1 26  1  0
  2 27  1  0
  2 28  1  0
  3 29  1  0
  3 30  1  0
  4 31  1  0
  4 32  1  0
  8 33  1  0
  8 34  1  0
  9 35  1  6
 10 36  1  0
 10 37  1  0
 11 38  1  6
 13 39  1  0
 13 40  1  0
 13 41  1  0
 16 42  1  0
 19 43  1  0
 20 44  1  0
 21 45  1  0
 23 46  1  0
 23 47  1  0
M  END
$$$$
