
     RDKit          3D

 49 54  0  0  0  0  0  0  0  0999 V2000
    7.4379    1.9202   -1.0706 C   0  0  0  0  0  0  0  0  0  0  0  0
    6.2429    1.5445   -1.6505 C   0  0  0  0  0  0  0  0  0  0  0  0
    5.4088    0.5938   -1.0948 C   0  0  0  0  0  0  0  0  0  0  0  0
    5.7923    0.0035    0.0828 C   0  0  0  0  0  0  0  0  0  0  0  0
    4.9694   -0.9522    0.6557 C   0  0  0  0  0  0  0  0  0  0  0  0
    3.7124   -1.3281    0.0188 C   0  0  0  0  0  0  0  0  0  0  0  0
    3.4918   -2.3271   -0.9128 C   0  0  0  0  0  0  0  0  0  0  0  0
    2.1969   -2.3162   -1.2191 N   0  0  0  0  0  0  0  0  0  0  0  0
    1.5502   -1.3730   -0.5481 N   0  0  0  0  0  0  0  0  0  0  0  0
    0.2523   -1.0176   -0.5524 C   0  0  0  0  0  0  0  0  0  0  0  0
   -0.1513    0.0128    0.2546 C   0  0  0  0  0  0  0  0  0  0  0  0
   -1.5754    0.4674    0.3067 C   0  0  0  0  0  0  0  0  0  0  0  0
   -2.2545    1.2729    0.8487 N   0  0  0  0  0  0  0  0  0  0  0  0
   -3.5433    1.4677    0.7056 C   0  0  0  0  0  0  0  0  0  0  0  0
   -4.1820    0.6653   -0.1551 C   0  0  0  0  0  0  0  0  0  0  0  0
   -5.5419    0.5404   -0.5965 N   0  0  0  0  0  0  0  0  0  0  0  0
   -6.5884    1.3932   -0.1023 C   0  0  0  0  0  0  0  0  0  0  0  0
   -7.9071    0.8512   -0.6267 C   0  0  0  0  0  0  0  0  0  0  0  0
   -7.9633   -0.5622   -0.3723 N   0  0  0  0  0  0  0  0  0  0  0  0
   -7.0632   -1.2947   -1.2081 C   0  0  0  0  0  0  0  0  0  0  0  0
   -5.8458   -0.4782   -1.5655 C   0  0  0  0  0  0  0  0  0  0  0  0
   -2.8204   -0.3927   -0.7525 S   0  0  0  0  0  0  0  0  0  0  0  0
    0.7770    0.6477    1.0388 C   0  0  0  0  0  0  0  0  0  0  0  0
    2.0631    0.2580    1.0101 N   0  0  0  0  0  0  0  0  0  0  0  0
    2.4672   -0.7538    0.2196 C   0  0  0  0  0  0  0  0  0  0  0  0
    5.4099   -1.5087    1.8387 C   0  0  0  0  0  0  0  0  0  0  0  0
    6.5962   -1.1592    2.4471 C   0  0  0  0  0  0  0  0  0  0  0  0
    7.3839   -0.2204    1.8652 N   0  0  0  0  0  0  0  0  0  0  0  0
    6.9800    0.3478    0.6997 C   0  0  0  0  0  0  0  0  0  0  0  0
    7.7927    1.3007    0.1213 C   0  0  0  0  0  0  0  0  0  0  0  0
    8.0667    2.6576   -1.5183 H   0  0  0  0  0  0  0  0  0  0  0  0
    5.9429    2.0112   -2.5785 H   0  0  0  0  0  0  0  0  0  0  0  0
    4.4719    0.2891   -1.5351 H   0  0  0  0  0  0  0  0  0  0  0  0
    4.2295   -3.0046   -1.3282 H   0  0  0  0  0  0  0  0  0  0  0  0
   -0.4830   -1.5141   -1.1680 H   0  0  0  0  0  0  0  0  0  0  0  0
   -4.0923    2.2601    1.2677 H   0  0  0  0  0  0  0  0  0  0  0  0
   -6.4409    2.4093   -0.5327 H   0  0  0  0  0  0  0  0  0  0  0  0
   -6.5770    1.4314    1.0122 H   0  0  0  0  0  0  0  0  0  0  0  0
   -7.9667    1.1138   -1.7027 H   0  0  0  0  0  0  0  0  0  0  0  0
   -8.7824    1.3279   -0.1174 H   0  0  0  0  0  0  0  0  0  0  0  0
   -8.9539   -0.8648   -0.5571 H   0  0  0  0  0  0  0  0  0  0  0  0
   -6.7384   -2.2642   -0.7557 H   0  0  0  0  0  0  0  0  0  0  0  0
   -7.5968   -1.5904   -2.1557 H   0  0  0  0  0  0  0  0  0  0  0  0
   -6.1117    0.0666   -2.5174 H   0  0  0  0  0  0  0  0  0  0  0  0
   -4.9671   -1.1411   -1.7543 H   0  0  0  0  0  0  0  0  0  0  0  0
    0.4285    1.4624    1.6697 H   0  0  0  0  0  0  0  0  0  0  0  0
    4.8016   -2.2591    2.3234 H   0  0  0  0  0  0  0  0  0  0  0  0
    6.9502   -1.5894    3.3741 H   0  0  0  0  0  0  0  0  0  0  0  0
    8.7307    1.5952    0.5770 H   0  0  0  0  0  0  0  0  0  0  0  0
  1  2  2  0
  2  3  1  0
  3  4  2  0
  4  5  1  0
  5  6  1  0
  6  7  1  0
  7  8  2  0
  8  9  1  0
  9 10  1  0
 10 11  2  0
 11 12  1  0
 12 13  2  0
 13 14  1  0
 14 15  2  0
 15 16  1  0
 16 17  1  0
 17 18  1  0
 18 19  1  0
 19 20  1  0
 20 21  1  0
 15 22  1  0
 11 23  1  0
 23 24  2  0
 24 25  1  0
  5 26  2  0
 26 27  1  0
 27 28  2  0
 28 29  1  0
 29 30  2  0
 30  1  1  0
 29  4  1  0
 25  6  2  0
 25  9  1  0
 22 12  1  0
 21 16  1  0
  1 31  1  0
  2 32  1  0
  3 33  1  0
  7 34  1  0
 10 35  1  0
 14 36  1  0
 17 37  1  0
 17 38  1  0
 18 39  1  0
 18 40  1  0
 19 41  1  0
 20 42  1  0
 20 43  1  0
 21 44  1  0
 21 45  1  0
 23 46  1  0
 26 47  1  0
 27 48  1  0
 30 49  1  0
M  END
$$$$
