
     RDKit          3D

 75 80  0  0  0  0  0  0  0  0999 V2000
   -2.1323    6.4392    1.9530 C   0  0  0  0  0  0  0  0  0  0  0  0
   -2.7998    6.7607    0.7186 N   0  0  0  0  0  0  0  0  0  0  0  0
   -3.7350    5.7060    0.3114 C   0  0  1  0  0  0  0  0  0  0  0  0
   -4.5111    6.1510   -0.9036 C   0  0  0  0  0  0  0  0  0  0  0  0
   -3.0236    4.4215    0.0406 C   0  0  0  0  0  0  0  0  0  0  0  0
   -1.7882    4.2692    0.1755 O   0  0  0  0  0  0  0  0  0  0  0  0
   -3.7789    3.2967   -0.3957 N   0  0  0  0  0  0  0  0  0  0  0  0
   -3.1538    2.0379   -0.6629 C   0  0  0  0  0  0  0  0  0  0  0  0
   -3.8850    0.9719   -1.1157 C   0  0  0  0  0  0  0  0  0  0  0  0
   -3.2654   -0.2546   -1.3396 C   0  0  0  0  0  0  0  0  0  0  0  0
   -1.9272   -0.4200   -1.1143 C   0  0  0  0  0  0  0  0  0  0  0  0
   -1.2771   -1.6610   -1.3563 C   0  0  0  0  0  0  0  0  0  0  0  0
   -1.0969   -2.7115   -0.5114 C   0  0  0  0  0  0  0  0  0  0  0  0
   -1.5543   -2.9450    0.8514 C   0  0  0  0  0  0  0  0  0  0  0  0
   -2.1182   -2.0107    1.6579 C   0  0  0  0  0  0  0  0  0  0  0  0
   -2.5193   -2.2750    2.9624 C   0  0  0  0  0  0  0  0  0  0  0  0
   -2.3406   -3.5662    3.4928 C   0  0  0  0  0  0  0  0  0  0  0  0
   -2.7232   -3.7931    4.7106 O   0  0  0  0  0  0  0  0  0  0  0  0
   -2.7731   -4.7468    5.6342 C   0  0  0  0  0  0  0  0  0  0  0  0
   -1.7820   -4.4694    2.6774 N   0  0  0  0  0  0  0  0  0  0  0  0
   -1.3966   -4.2088    1.4170 C   0  0  0  0  0  0  0  0  0  0  0  0
   -0.3900   -3.6262   -1.2494 N   0  0  0  0  0  0  0  0  0  0  0  0
   -0.1459   -3.1747   -2.4822 C   0  0  0  0  0  0  0  0  0  0  0  0
    0.5098   -3.7240   -3.5938 C   0  0  0  0  0  0  0  0  0  0  0  0
    0.6075   -3.0382   -4.7749 C   0  0  0  0  0  0  0  0  0  0  0  0
    1.3030   -3.6263   -5.9706 C   0  0  0  0  0  0  0  0  0  0  0  0
    0.0432   -1.7842   -4.8454 C   0  0  0  0  0  0  0  0  0  0  0  0
   -0.5958   -1.2758   -3.7260 C   0  0  0  0  0  0  0  0  0  0  0  0
   -0.6895   -1.9600   -2.5616 N   0  0  0  0  0  0  0  0  0  0  0  0
   -1.2261    0.6834   -0.6558 C   0  0  0  0  0  0  0  0  0  0  0  0
    0.1909    0.5964   -0.3142 C   0  0  0  0  0  0  0  0  0  0  0  0
    1.3483    0.5256   -0.0501 C   0  0  0  0  0  0  0  0  0  0  0  0
    2.7395    0.4221    0.2668 C   0  0  0  0  0  0  0  0  0  0  0  0
    3.6143    1.4686    0.1683 C   0  0  0  0  0  0  0  0  0  0  0  0
    4.9554    1.3472    0.4761 C   0  0  0  0  0  0  0  0  0  0  0  0
    5.4728    0.1618    0.8974 C   0  0  0  0  0  0  0  0  0  0  0  0
    6.7832    0.0429    1.2181 C   0  0  0  0  0  0  0  0  0  0  0  0
    7.7913    1.1432    1.1655 C   0  0  0  0  0  0  0  0  0  0  0  0
    7.2264   -1.1882    1.6570 N   0  0  0  0  0  0  0  0  0  0  0  0
    6.4379   -2.2451    1.7773 C   0  0  0  0  0  0  0  0  0  0  0  0
    5.1079   -2.1188    1.4496 C   0  0  0  0  0  0  0  0  0  0  0  0
    4.6133   -0.9376    1.0135 C   0  0  0  0  0  0  0  0  0  0  0  0
    3.2823   -0.7776    0.6969 C   0  0  0  0  0  0  0  0  0  0  0  0
   -1.8265    1.8638   -0.4423 N   0  0  0  0  0  0  0  0  0  0  0  0
   -2.7832    6.8492    2.7792 H   0  0  0  0  0  0  0  0  0  0  0  0
   -1.1077    6.8720    2.0250 H   0  0  0  0  0  0  0  0  0  0  0  0
   -2.0811    5.3514    2.1706 H   0  0  0  0  0  0  0  0  0  0  0  0
   -2.0981    6.8594   -0.0295 H   0  0  0  0  0  0  0  0  0  0  0  0
   -4.4397    5.5739    1.1434 H   0  0  0  0  0  0  0  0  0  0  0  0
   -4.8646    7.2049   -0.8298 H   0  0  0  0  0  0  0  0  0  0  0  0
   -3.8572    6.0021   -1.7687 H   0  0  0  0  0  0  0  0  0  0  0  0
   -5.4183    5.4895   -1.0141 H   0  0  0  0  0  0  0  0  0  0  0  0
   -4.7956    3.3888   -0.5244 H   0  0  0  0  0  0  0  0  0  0  0  0
   -4.9565    1.0982   -1.2955 H   0  0  0  0  0  0  0  0  0  0  0  0
   -3.9134   -1.0706   -1.7030 H   0  0  0  0  0  0  0  0  0  0  0  0
   -2.2620   -1.0245    1.2485 H   0  0  0  0  0  0  0  0  0  0  0  0
   -2.9588   -1.4965    3.5629 H   0  0  0  0  0  0  0  0  0  0  0  0
   -3.7158   -4.7940    6.2562 H   0  0  0  0  0  0  0  0  0  0  0  0
   -2.6815   -5.7956    5.2196 H   0  0  0  0  0  0  0  0  0  0  0  0
   -1.9582   -4.6181    6.4191 H   0  0  0  0  0  0  0  0  0  0  0  0
   -0.9609   -5.0245    0.8597 H   0  0  0  0  0  0  0  0  0  0  0  0
    0.9479   -4.7067   -3.5154 H   0  0  0  0  0  0  0  0  0  0  0  0
    2.2984   -4.0142   -5.7157 H   0  0  0  0  0  0  0  0  0  0  0  0
    1.3451   -2.8782   -6.7796 H   0  0  0  0  0  0  0  0  0  0  0  0
    0.6942   -4.4773   -6.4028 H   0  0  0  0  0  0  0  0  0  0  0  0
    0.0909   -1.2049   -5.7528 H   0  0  0  0  0  0  0  0  0  0  0  0
   -1.0571   -0.2739   -3.7631 H   0  0  0  0  0  0  0  0  0  0  0  0
    3.1978    2.4266   -0.1687 H   0  0  0  0  0  0  0  0  0  0  0  0
    5.6090    2.2168    0.3777 H   0  0  0  0  0  0  0  0  0  0  0  0
    8.3756    1.1628    2.1380 H   0  0  0  0  0  0  0  0  0  0  0  0
    7.4188    2.1120    0.8959 H   0  0  0  0  0  0  0  0  0  0  0  0
    8.5571    0.8493    0.3868 H   0  0  0  0  0  0  0  0  0  0  0  0
    6.7369   -3.2300    2.1224 H   0  0  0  0  0  0  0  0  0  0  0  0
    4.4084   -2.9580    1.5326 H   0  0  0  0  0  0  0  0  0  0  0  0
    2.6577   -1.6603    0.8018 H   0  0  0  0  0  0  0  0  0  0  0  0
  1  2  1  0
  2  3  1  0
  3  4  1  0
  3  5  1  0
  5  6  2  0
  5  7  1  0
  7  8  1  0
  8  9  2  0
  9 10  1  0
 10 11  2  0
 11 12  1  0
 12 13  2  0
 13 14  1  0
 14 15  2  0
 15 16  1  0
 16 17  2  0
 17 18  1  0
 18 19  1  0
 17 20  1  0
 20 21  2  0
 13 22  1  0
 22 23  2  0
 23 24  1  0
 24 25  2  0
 25 26  1  0
 25 27  1  0
 27 28  2  0
 28 29  1  0
 11 30  1  0
 30 31  1  0
 31 32  3  0
 32 33  1  0
 33 34  2  0
 34 35  1  0
 35 36  2  0
 36 37  1  0
 37 38  1  0
 37 39  2  0
 39 40  1  0
 40 41  2  0
 41 42  1  0
 42 43  2  0
 30 44  2  0
 44  8  1  0
 29 12  1  0
 43 33  1  0
 21 14  1  0
 29 23  1  0
 42 36  1  0
  1 45  1  0
  1 46  1  0
  1 47  1  0
  2 48  1  0
  3 49  1  1
  4 50  1  0
  4 51  1  0
  4 52  1  0
  7 53  1  0
  9 54  1  0
 10 55  1  0
 15 56  1  0
 16 57  1  0
 19 58  1  0
 19 59  1  0
 19 60  1  0
 21 61  1  0
 24 62  1  0
 26 63  1  0
 26 64  1  0
 26 65  1  0
 27 66  1  0
 28 67  1  0
 34 68  1  0
 35 69  1  0
 38 70  1  0
 38 71  1  0
 38 72  1  0
 40 73  1  0
 41 74  1  0
 43 75  1  0
M  END
$$$$
