
     RDKit          3D

 45 48  0  0  0  0  0  0  0  0999 V2000
   -2.6281   -3.1058    0.3276 C   0  0  0  0  0  0  0  0  0  0  0  0
   -2.8568   -1.9473   -0.6060 C   0  0  1  0  0  0  0  0  0  0  0  0
   -3.6522   -0.8694   -0.0451 C   0  0  0  0  0  0  0  0  0  0  0  0
   -3.6445   -0.5046    1.2828 C   0  0  0  0  0  0  0  0  0  0  0  0
   -4.3871    0.5050    1.8177 C   0  0  0  0  0  0  0  0  0  0  0  0
   -5.2540    1.2779    1.0002 C   0  0  0  0  0  0  0  0  0  0  0  0
   -6.0100    2.2630    1.3931 N   0  0  0  0  0  0  0  0  0  0  0  0
   -6.7871    2.9292    0.5656 C   0  0  0  0  0  0  0  0  0  0  0  0
   -7.5680    3.8570    0.6523 O   0  0  0  0  0  0  0  0  0  0  0  0
   -6.4240    2.0560   -1.0448 S   0  0  0  0  0  0  0  0  0  0  0  0
   -5.2515    0.9059   -0.3115 C   0  0  0  0  0  0  0  0  0  0  0  0
   -4.5033   -0.1150   -0.8637 C   0  0  0  0  0  0  0  0  0  0  0  0
   -1.5133   -1.4430   -1.0700 C   0  0  0  0  0  0  0  0  0  0  0  0
   -1.2039   -0.9609   -2.3232 C   0  0  0  0  0  0  0  0  0  0  0  0
    0.1284   -0.6210   -2.2816 C   0  0  0  0  0  0  0  0  0  0  0  0
    0.6273   -0.8841   -1.0432 N   0  0  0  0  0  0  0  0  0  0  0  0
    1.9623   -0.6606   -0.6345 C   0  0  0  0  0  0  0  0  0  0  0  0
    2.4767   -1.3210    0.4515 C   0  0  0  0  0  0  0  0  0  0  0  0
    3.7598   -1.1355    0.8824 C   0  0  0  0  0  0  0  0  0  0  0  0
    4.6275   -0.2311    0.2057 C   0  0  0  0  0  0  0  0  0  0  0  0
    5.8831   -0.0749    0.6501 O   0  0  0  0  0  0  0  0  0  0  0  0
    6.9503    0.6877    0.3286 C   0  0  0  0  0  0  0  0  0  0  0  0
    6.7801    2.1449    0.6101 C   0  0  0  0  0  0  0  0  0  0  0  0
    5.7607    2.7914   -0.0229 O   0  0  0  0  0  0  0  0  0  0  0  0
    4.0647    0.4005   -0.8724 C   0  0  0  0  0  0  0  0  0  0  0  0
    2.7710    0.1851   -1.2702 N   0  0  0  0  0  0  0  0  0  0  0  0
   -0.3922   -1.3733   -0.3573 N   0  0  0  0  0  0  0  0  0  0  0  0
   -1.6643   -2.9542    0.8797 H   0  0  0  0  0  0  0  0  0  0  0  0
   -3.4059   -3.2308    1.0832 H   0  0  0  0  0  0  0  0  0  0  0  0
   -2.4885   -4.0671   -0.2382 H   0  0  0  0  0  0  0  0  0  0  0  0
   -3.3575   -2.3323   -1.5192 H   0  0  0  0  0  0  0  0  0  0  0  0
   -2.9684   -1.1118    1.9048 H   0  0  0  0  0  0  0  0  0  0  0  0
   -4.2775    0.6748    2.8720 H   0  0  0  0  0  0  0  0  0  0  0  0
   -6.0559    2.6127    2.4473 H   0  0  0  0  0  0  0  0  0  0  0  0
   -4.5871   -0.3124   -1.9096 H   0  0  0  0  0  0  0  0  0  0  0  0
   -1.8299   -0.8513   -3.1861 H   0  0  0  0  0  0  0  0  0  0  0  0
    0.7361   -0.2084   -3.0694 H   0  0  0  0  0  0  0  0  0  0  0  0
    1.8767   -2.0384    1.0339 H   0  0  0  0  0  0  0  0  0  0  0  0
    4.1903   -1.6425    1.7344 H   0  0  0  0  0  0  0  0  0  0  0  0
    7.2058    0.6414   -0.7962 H   0  0  0  0  0  0  0  0  0  0  0  0
    7.9092    0.3339    0.8153 H   0  0  0  0  0  0  0  0  0  0  0  0
    6.5424    2.2131    1.7247 H   0  0  0  0  0  0  0  0  0  0  0  0
    7.7455    2.7095    0.4825 H   0  0  0  0  0  0  0  0  0  0  0  0
    6.0363    3.7277   -0.1937 H   0  0  0  0  0  0  0  0  0  0  0  0
    4.6772    1.0802   -1.4726 H   0  0  0  0  0  0  0  0  0  0  0  0
  1  2  1  0
  2  3  1  0
  3  4  2  0
  4  5  1  0
  5  6  2  0
  6  7  1  0
  7  8  1  0
  8  9  2  0
  8 10  1  0
 10 11  1  0
 11 12  2  0
  2 13  1  0
 13 14  1  0
 14 15  2  0
 15 16  1  0
 16 17  1  0
 17 18  2  0
 18 19  1  0
 19 20  2  0
 20 21  1  0
 21 22  1  0
 22 23  1  0
 23 24  1  0
 20 25  1  0
 25 26  2  0
 16 27  1  0
 12  3  1  0
 27 13  2  0
 11  6  1  0
 26 17  1  0
  1 28  1  0
  1 29  1  0
  1 30  1  0
  2 31  1  6
  4 32  1  0
  5 33  1  0
  7 34  1  0
 12 35  1  0
 14 36  1  0
 15 37  1  0
 18 38  1  0
 19 39  1  0
 22 40  1  0
 22 41  1  0
 23 42  1  0
 23 43  1  0
 24 44  1  0
 25 45  1  0
M  END
$$$$
