
     RDKit          3D

 57 59  0  0  0  0  0  0  0  0999 V2000
   -8.0239    1.4402    0.7907 C   0  0  0  0  0  0  0  0  0  0  0  0
   -7.6594   -0.0313    0.6058 C   0  0  0  0  0  0  0  0  0  0  0  0
   -6.3397   -0.0857   -0.1536 C   0  0  2  0  0  0  0  0  0  0  0  0
   -6.4724    0.5752   -1.4836 C   0  0  0  0  0  0  0  0  0  0  0  0
   -5.7984    1.6007   -1.7729 O   0  0  0  0  0  0  0  0  0  0  0  0
   -7.3367    0.0875   -2.4424 O   0  0  0  0  0  0  0  0  0  0  0  0
   -6.0143   -1.5189   -0.3879 C   0  0  0  0  0  0  0  0  0  0  0  0
   -4.8953   -2.0388    0.4504 C   0  0  0  0  0  0  0  0  0  0  0  0
   -3.7694   -1.0852    0.3633 C   0  0  0  0  0  0  0  0  0  0  0  0
   -2.4700   -1.4412    0.1923 C   0  0  0  0  0  0  0  0  0  0  0  0
   -1.4630   -0.4688    0.1253 C   0  0  0  0  0  0  0  0  0  0  0  0
   -1.7123    0.8775    0.2243 C   0  0  0  0  0  0  0  0  0  0  0  0
   -0.7940    1.8905    0.1650 O   0  0  0  0  0  0  0  0  0  0  0  0
    0.5644    1.7610   -0.0391 C   0  0  0  0  0  0  0  0  0  0  0  0
    1.0114    1.2178   -1.3541 C   0  0  0  0  0  0  0  0  0  0  0  0
    2.5404    1.1418   -1.3723 C   0  0  0  0  0  0  0  0  0  0  0  0
    2.9748    0.3004   -0.3412 O   0  0  0  0  0  0  0  0  0  0  0  0
    4.2787    0.0015   -0.0606 C   0  0  0  0  0  0  0  0  0  0  0  0
    5.3582    0.5093   -0.7829 C   0  0  0  0  0  0  0  0  0  0  0  0
    6.6442    0.1586   -0.4353 C   0  0  0  0  0  0  0  0  0  0  0  0
    6.9259   -0.6870    0.6125 C   0  0  0  0  0  0  0  0  0  0  0  0
    8.2252   -1.0292    0.9483 O   0  0  0  0  0  0  0  0  0  0  0  0
    9.2727   -0.4780    0.1738 C   0  0  0  0  0  0  0  0  0  0  0  0
   10.6256   -0.9515    0.6717 C   0  0  0  0  0  0  0  0  0  0  0  0
   10.7036   -2.3279    0.5930 F   0  0  0  0  0  0  0  0  0  0  0  0
   11.6173   -0.3458   -0.0407 F   0  0  0  0  0  0  0  0  0  0  0  0
   10.7191   -0.5779    1.9926 F   0  0  0  0  0  0  0  0  0  0  0  0
    5.8487   -1.1844    1.3215 C   0  0  0  0  0  0  0  0  0  0  0  0
    4.5406   -0.8526    0.9995 C   0  0  0  0  0  0  0  0  0  0  0  0
    3.2002   -1.5072    1.9267 Cl  0  0  0  0  0  0  0  0  0  0  0  0
   -3.0646    1.2274    0.4017 C   0  0  0  0  0  0  0  0  0  0  0  0
   -4.0446    0.2626    0.4662 C   0  0  0  0  0  0  0  0  0  0  0  0
   -5.3959    0.6024    0.6430 O   0  0  0  0  0  0  0  0  0  0  0  0
   -8.7016    1.4934    1.6608 H   0  0  0  0  0  0  0  0  0  0  0  0
   -7.0843    2.0009    0.9191 H   0  0  0  0  0  0  0  0  0  0  0  0
   -8.5676    1.7403   -0.1521 H   0  0  0  0  0  0  0  0  0  0  0  0
   -8.4605   -0.5726    0.1009 H   0  0  0  0  0  0  0  0  0  0  0  0
   -7.5490   -0.4430    1.6271 H   0  0  0  0  0  0  0  0  0  0  0  0
   -7.2163    0.2774   -3.4277 H   0  0  0  0  0  0  0  0  0  0  0  0
   -5.7414   -1.7239   -1.4616 H   0  0  0  0  0  0  0  0  0  0  0  0
   -6.9020   -2.1825   -0.2045 H   0  0  0  0  0  0  0  0  0  0  0  0
   -5.2092   -2.2071    1.4949 H   0  0  0  0  0  0  0  0  0  0  0  0
   -4.6084   -3.0479    0.0351 H   0  0  0  0  0  0  0  0  0  0  0  0
   -2.2090   -2.4868    0.1068 H   0  0  0  0  0  0  0  0  0  0  0  0
   -0.4493   -0.8149    0.0126 H   0  0  0  0  0  0  0  0  0  0  0  0
    1.0570    1.1004    0.7492 H   0  0  0  0  0  0  0  0  0  0  0  0
    1.0290    2.7621    0.1800 H   0  0  0  0  0  0  0  0  0  0  0  0
    0.5842    0.2648   -1.6589 H   0  0  0  0  0  0  0  0  0  0  0  0
    0.6665    1.9548   -2.1330 H   0  0  0  0  0  0  0  0  0  0  0  0
    2.9478    2.1616   -1.1676 H   0  0  0  0  0  0  0  0  0  0  0  0
    2.8879    0.7941   -2.3570 H   0  0  0  0  0  0  0  0  0  0  0  0
    5.1497    1.1709   -1.6035 H   0  0  0  0  0  0  0  0  0  0  0  0
    7.4926    0.5494   -0.9927 H   0  0  0  0  0  0  0  0  0  0  0  0
    9.2075    0.6281    0.1642 H   0  0  0  0  0  0  0  0  0  0  0  0
    9.1356   -0.8955   -0.8605 H   0  0  0  0  0  0  0  0  0  0  0  0
    6.0399   -1.8610    2.1623 H   0  0  0  0  0  0  0  0  0  0  0  0
   -3.2964    2.2943    0.4871 H   0  0  0  0  0  0  0  0  0  0  0  0
  1  2  1  0
  3  2  1  1
  3  4  1  0
  4  5  2  0
  4  6  1  0
  3  7  1  0
  7  8  1  0
  8  9  1  0
  9 10  2  0
 10 11  1  0
 11 12  2  0
 12 13  1  0
 13 14  1  0
 14 15  1  0
 15 16  1  0
 16 17  1  0
 17 18  1  0
 18 19  2  0
 19 20  1  0
 20 21  2  0
 21 22  1  0
 22 23  1  0
 23 24  1  0
 24 25  1  0
 24 26  1  0
 24 27  1  0
 21 28  1  0
 28 29  2  0
 29 30  1  0
 12 31  1  0
 31 32  2  0
 32 33  1  0
 33  3  1  0
 32  9  1  0
 29 18  1  0
  1 34  1  0
  1 35  1  0
  1 36  1  0
  2 37  1  0
  2 38  1  0
  6 39  1  0
  7 40  1  0
  7 41  1  0
  8 42  1  0
  8 43  1  0
 10 44  1  0
 11 45  1  0
 14 46  1  0
 14 47  1  0
 15 48  1  0
 15 49  1  0
 16 50  1  0
 16 51  1  0
 19 52  1  0
 20 53  1  0
 23 54  1  0
 23 55  1  0
 28 56  1  0
 31 57  1  0
M  END
$$$$
