
     RDKit          3D

 46 48  0  0  0  0  0  0  0  0999 V2000
    4.0995   -0.0982   -3.4999 C   0  0  0  0  0  0  0  0  0  0  0  0
    3.7827   -0.2744   -1.7679 S   0  0  0  0  0  6  0  0  0  0  0  0
    4.8069    0.5235   -1.0125 O   0  0  0  0  0  0  0  0  0  0  0  0
    3.9513   -1.7171   -1.3802 O   0  0  0  0  0  0  0  0  0  0  0  0
    2.1969    0.2939   -1.4255 N   0  0  0  0  0  0  0  0  0  0  0  0
    1.1755   -0.4348   -2.0972 C   0  0  0  0  0  0  0  0  0  0  0  0
    0.1043   -0.8076   -1.0670 C   0  0  0  0  0  0  0  0  0  0  0  0
    0.6552   -0.3698    0.2406 C   0  0  2  0  0  0  0  0  0  0  0  0
   -0.2571    0.2164    1.1744 N   0  0  0  0  0  0  0  0  0  0  0  0
   -0.8522   -0.6181    2.1722 C   0  0  0  0  0  0  0  0  0  0  0  0
   -1.4807   -1.8427    1.6167 C   0  0  0  0  0  0  0  0  0  0  0  0
   -0.8335   -3.0718    1.7651 C   0  0  0  0  0  0  0  0  0  0  0  0
   -1.4536   -4.1898    1.2347 C   0  0  0  0  0  0  0  0  0  0  0  0
   -2.6638   -4.1191    0.5802 C   0  0  0  0  0  0  0  0  0  0  0  0
   -3.3052   -2.9002    0.4332 C   0  0  0  0  0  0  0  0  0  0  0  0
   -2.6790   -1.7630    0.9702 C   0  0  0  0  0  0  0  0  0  0  0  0
   -3.4524   -0.2172    0.8066 Cl  0  0  0  0  0  0  0  0  0  0  0  0
   -0.6364    1.5609    1.0590 C   0  0  0  0  0  0  0  0  0  0  0  0
   -1.3264    2.2012    2.0679 C   0  0  0  0  0  0  0  0  0  0  0  0
   -1.7841    3.5085    1.9696 C   0  0  0  0  0  0  0  0  0  0  0  0
   -1.5446    4.2091    0.8187 C   0  0  0  0  0  0  0  0  0  0  0  0
   -2.0046    5.5771    0.6727 C   0  0  0  0  0  0  0  0  0  0  0  0
   -2.3780    6.6707    0.5488 N   0  0  0  0  0  0  0  0  0  0  0  0
   -0.8687    3.6377   -0.2181 C   0  0  0  0  0  0  0  0  0  0  0  0
   -0.5852    4.5647   -1.6770 Cl  0  0  0  0  0  0  0  0  0  0  0  0
   -0.4249    2.3159   -0.0779 C   0  0  0  0  0  0  0  0  0  0  0  0
    1.9205    0.3492   -0.0163 C   0  0  0  0  0  0  0  0  0  0  0  0
    4.4346    0.9314   -3.7587 H   0  0  0  0  0  0  0  0  0  0  0  0
    3.1932   -0.3698   -4.0858 H   0  0  0  0  0  0  0  0  0  0  0  0
    4.8946   -0.8049   -3.8157 H   0  0  0  0  0  0  0  0  0  0  0  0
    0.7462    0.2732   -2.8703 H   0  0  0  0  0  0  0  0  0  0  0  0
    1.4948   -1.3108   -2.6638 H   0  0  0  0  0  0  0  0  0  0  0  0
   -0.8160   -0.3110   -1.3785 H   0  0  0  0  0  0  0  0  0  0  0  0
   -0.0765   -1.8953   -1.1445 H   0  0  0  0  0  0  0  0  0  0  0  0
    0.9996   -1.3885    0.7247 H   0  0  0  0  0  0  0  0  0  0  0  0
   -1.6300   -0.1582    2.8017 H   0  0  0  0  0  0  0  0  0  0  0  0
   -0.0571   -0.9452    2.8796 H   0  0  0  0  0  0  0  0  0  0  0  0
    0.1213   -3.1463    2.2782 H   0  0  0  0  0  0  0  0  0  0  0  0
   -0.9687   -5.1509    1.3394 H   0  0  0  0  0  0  0  0  0  0  0  0
   -3.1001   -5.0233    0.1866 H   0  0  0  0  0  0  0  0  0  0  0  0
   -4.2591   -2.7976   -0.0768 H   0  0  0  0  0  0  0  0  0  0  0  0
   -1.5453    1.7120    3.0323 H   0  0  0  0  0  0  0  0  0  0  0  0
   -2.3219    3.9457    2.8072 H   0  0  0  0  0  0  0  0  0  0  0  0
    0.0692    1.9512   -0.9661 H   0  0  0  0  0  0  0  0  0  0  0  0
    1.8560    1.3959    0.3038 H   0  0  0  0  0  0  0  0  0  0  0  0
    2.8025   -0.1124    0.5151 H   0  0  0  0  0  0  0  0  0  0  0  0
  1  2  1  0
  2  3  2  0
  2  4  2  0
  2  5  1  0
  5  6  1  0
  6  7  1  0
  7  8  1  0
  8  9  1  0
  9 10  1  0
 10 11  1  0
 11 12  2  0
 12 13  1  0
 13 14  2  0
 14 15  1  0
 15 16  2  0
 16 17  1  0
  9 18  1  0
 18 19  2  0
 19 20  1  0
 20 21  2  0
 21 22  1  0
 22 23  3  0
 21 24  1  0
 24 25  1  0
 24 26  2  0
  8 27  1  0
 27  5  1  0
 16 11  1  0
 26 18  1  0
  1 28  1  0
  1 29  1  0
  1 30  1  0
  6 31  1  0
  6 32  1  0
  7 33  1  0
  7 34  1  0
  8 35  1  1
 10 36  1  0
 10 37  1  0
 12 38  1  0
 13 39  1  0
 14 40  1  0
 15 41  1  0
 19 42  1  0
 20 43  1  0
 26 44  1  0
 27 45  1  0
 27 46  1  0
M  END
$$$$
