
     RDKit          3D

 62 66  0  0  0  0  0  0  0  0999 V2000
   -2.8568    2.7639   -0.0795 O   0  0  0  0  0  0  0  0  0  0  0  0
   -2.6044    1.6020    0.3285 C   0  0  0  0  0  0  0  0  0  0  0  0
   -1.1760    1.2571    0.3798 C   0  0  0  0  0  0  0  0  0  0  0  0
   -0.1236    2.1225    0.1552 C   0  0  0  0  0  0  0  0  0  0  0  0
    1.0883    1.4568    0.2848 C   0  0  0  0  0  0  0  0  0  0  0  0
    2.4291    2.0044    0.1275 C   0  0  0  0  0  0  0  0  0  0  0  0
    2.6822    3.3201   -0.1857 C   0  0  0  0  0  0  0  0  0  0  0  0
    3.9619    3.8106   -0.3283 C   0  0  0  0  0  0  0  0  0  0  0  0
    4.9827    2.9467   -0.1485 N   0  0  0  0  0  0  0  0  0  0  0  0
    4.7616    1.6624    0.1566 C   0  0  0  0  0  0  0  0  0  0  0  0
    5.8344    0.7755    0.3412 N   0  0  0  0  0  0  0  0  0  0  0  0
    5.6030   -0.6052    0.6672 C   0  0  2  0  0  0  0  0  0  0  0  0
    6.9366   -1.3297    0.8138 C   0  0  0  0  0  0  0  0  0  0  0  0
    7.1233   -2.0129   -0.5292 C   0  0  2  0  0  0  0  0  0  0  0  0
    7.6825   -1.1739   -1.4700 O   0  0  0  0  0  0  0  0  0  0  0  0
    5.7347   -2.4373   -0.8869 C   0  0  1  0  0  0  0  0  0  0  0  0
    5.4332   -3.6481   -0.2918 F   0  0  0  0  0  0  0  0  0  0  0  0
    4.8480   -1.3459   -0.3875 C   0  0  0  0  0  0  0  0  0  0  0  0
    3.4921    1.2023    0.2919 N   0  0  0  0  0  0  0  0  0  0  0  0
    0.7320    0.1597    0.5956 C   0  0  0  0  0  0  0  0  0  0  0  0
   -0.6065    0.0486    0.6501 N   0  0  0  0  0  0  0  0  0  0  0  0
   -1.3777   -1.1577    0.9489 C   0  0  0  0  0  0  0  0  0  0  0  0
   -2.3358   -0.8122    2.0368 C   0  0  0  0  0  0  0  0  0  0  0  0
   -3.7041   -0.3995    1.5900 C   0  0  0  0  0  0  0  0  0  0  0  0
   -3.6894    0.7476    0.6940 N   0  0  0  0  0  0  0  0  0  0  0  0
   -4.9281    1.0912    0.0742 C   0  0  2  0  0  0  0  0  0  0  0  0
   -6.0611    1.3582    1.0181 C   0  0  0  0  0  0  0  0  0  0  0  0
   -6.4039    0.3035    1.8253 O   0  0  0  0  0  0  0  0  0  0  0  0
   -5.2478   -0.0580   -0.8542 C   0  0  0  0  0  0  0  0  0  0  0  0
   -4.2624   -0.5743   -1.6708 C   0  0  0  0  0  0  0  0  0  0  0  0
   -4.5328   -1.6208   -2.5211 C   0  0  0  0  0  0  0  0  0  0  0  0
   -5.7851   -2.1887   -2.5902 C   0  0  0  0  0  0  0  0  0  0  0  0
   -6.7606   -1.6651   -1.7706 C   0  0  0  0  0  0  0  0  0  0  0  0
   -6.4933   -0.5997   -0.9022 C   0  0  0  0  0  0  0  0  0  0  0  0
   -0.2097    3.1713   -0.0882 H   0  0  0  0  0  0  0  0  0  0  0  0
    1.8644    4.0099   -0.3287 H   0  0  0  0  0  0  0  0  0  0  0  0
    4.1935    4.8356   -0.5735 H   0  0  0  0  0  0  0  0  0  0  0  0
    6.8029    1.1164    0.2418 H   0  0  0  0  0  0  0  0  0  0  0  0
    5.0263   -0.7167    1.6261 H   0  0  0  0  0  0  0  0  0  0  0  0
    7.7518   -0.6206    1.0003 H   0  0  0  0  0  0  0  0  0  0  0  0
    6.8622   -2.0400    1.6410 H   0  0  0  0  0  0  0  0  0  0  0  0
    7.8281   -2.8622   -0.3810 H   0  0  0  0  0  0  0  0  0  0  0  0
    8.2946   -0.4956   -1.1039 H   0  0  0  0  0  0  0  0  0  0  0  0
    5.7018   -2.5280   -2.0017 H   0  0  0  0  0  0  0  0  0  0  0  0
    4.5286   -0.7082   -1.2410 H   0  0  0  0  0  0  0  0  0  0  0  0
    3.8980   -1.8040    0.0053 H   0  0  0  0  0  0  0  0  0  0  0  0
    1.4329   -0.6550    0.7710 H   0  0  0  0  0  0  0  0  0  0  0  0
   -1.8949   -1.4580    0.0283 H   0  0  0  0  0  0  0  0  0  0  0  0
   -0.6534   -1.9503    1.2285 H   0  0  0  0  0  0  0  0  0  0  0  0
   -2.4572   -1.6706    2.7250 H   0  0  0  0  0  0  0  0  0  0  0  0
   -1.8761    0.0022    2.6708 H   0  0  0  0  0  0  0  0  0  0  0  0
   -4.2670   -1.2483    1.2065 H   0  0  0  0  0  0  0  0  0  0  0  0
   -4.2187   -0.0399    2.5302 H   0  0  0  0  0  0  0  0  0  0  0  0
   -4.8021    1.9634   -0.5727 H   0  0  0  0  0  0  0  0  0  0  0  0
   -6.9467    1.6496    0.4183 H   0  0  0  0  0  0  0  0  0  0  0  0
   -5.7941    2.2749    1.5901 H   0  0  0  0  0  0  0  0  0  0  0  0
   -7.3560    0.2550    2.0706 H   0  0  0  0  0  0  0  0  0  0  0  0
   -3.2734   -0.1670   -1.6538 H   0  0  0  0  0  0  0  0  0  0  0  0
   -3.7654   -2.0325   -3.1654 H   0  0  0  0  0  0  0  0  0  0  0  0
   -6.0004   -3.0140   -3.2601 H   0  0  0  0  0  0  0  0  0  0  0  0
   -7.7688   -2.0522   -1.7633 H   0  0  0  0  0  0  0  0  0  0  0  0
   -7.2774   -0.2193   -0.2784 H   0  0  0  0  0  0  0  0  0  0  0  0
  1  2  2  0
  2  3  1  0
  3  4  2  0
  4  5  1  0
  5  6  1  0
  6  7  2  0
  7  8  1  0
  8  9  2  0
  9 10  1  0
 10 11  1  0
 11 12  1  0
 12 13  1  0
 13 14  1  0
 14 15  1  0
 14 16  1  0
 16 17  1  0
 16 18  1  0
 10 19  2  0
  5 20  2  0
 20 21  1  0
 21 22  1  0
 22 23  1  0
 23 24  1  0
 24 25  1  0
 25 26  1  0
 26 27  1  0
 27 28  1  0
 26 29  1  0
 29 30  2  0
 30 31  1  0
 31 32  2  0
 32 33  1  0
 33 34  2  0
 25  2  1  0
 34 29  1  0
 21  3  1  0
 19  6  1  0
 18 12  1  0
  4 35  1  0
  7 36  1  0
  8 37  1  0
 11 38  1  0
 12 39  1  1
 13 40  1  0
 13 41  1  0
 14 42  1  1
 15 43  1  0
 16 44  1  6
 18 45  1  0
 18 46  1  0
 20 47  1  0
 22 48  1  0
 22 49  1  0
 23 50  1  0
 23 51  1  0
 24 52  1  0
 24 53  1  0
 26 54  1  6
 27 55  1  0
 27 56  1  0
 28 57  1  0
 30 58  1  0
 31 59  1  0
 32 60  1  0
 33 61  1  0
 34 62  1  0
M  END
$$$$
