
     RDKit          3D

 50 53  0  0  0  0  0  0  0  0999 V2000
    5.7346   -2.2398   -1.1961 N   0  0  0  0  0  0  0  0  0  0  0  0
    6.6947   -1.5686   -0.3980 C   0  0  0  0  0  0  0  0  0  0  0  0
    8.0427   -1.8055   -0.6771 C   0  0  0  0  0  0  0  0  0  0  0  0
    9.0295   -1.1733    0.0748 C   0  0  0  0  0  0  0  0  0  0  0  0
    8.6545   -0.3199    1.0871 C   0  0  0  0  0  0  0  0  0  0  0  0
    7.3001   -0.0952    1.3517 C   0  0  0  0  0  0  0  0  0  0  0  0
    6.3207   -0.7139    0.6159 C   0  0  0  0  0  0  0  0  0  0  0  0
    4.9373   -0.4938    0.8750 N   0  0  0  0  0  0  0  0  0  0  0  0
    4.1933    0.5282    0.2534 C   0  0  0  0  0  0  0  0  0  0  0  0
    4.7975    1.2656   -0.5617 O   0  0  0  0  0  0  0  0  0  0  0  0
    2.7546    0.7781    0.5053 C   0  0  0  0  0  0  0  0  0  0  0  0
    2.1215    1.8043   -0.1556 C   0  0  0  0  0  0  0  0  0  0  0  0
    0.7899    2.0546    0.0616 C   0  0  0  0  0  0  0  0  0  0  0  0
    0.0610    1.2919    0.9381 C   0  0  0  0  0  0  0  0  0  0  0  0
   -1.3527    1.5502    1.1749 C   0  0  0  0  0  0  0  0  0  0  0  0
   -2.2222    0.8182    0.2785 N   0  0  0  0  0  0  0  0  0  0  0  0
   -3.6265    0.9903    0.4150 C   0  0  0  0  0  0  0  0  0  0  0  0
   -4.1193    1.8134    1.3549 N   0  0  0  0  0  0  0  0  0  0  0  0
   -5.4258    2.0290    1.5468 C   0  0  0  0  0  0  0  0  0  0  0  0
   -6.3295    1.3591    0.7214 C   0  0  0  0  0  0  0  0  0  0  0  0
   -5.8634    0.5093   -0.2510 C   0  0  0  0  0  0  0  0  0  0  0  0
   -6.7556   -0.2190   -1.1441 C   0  0  0  0  0  0  0  0  0  0  0  0
   -8.1173   -0.1189   -1.0899 C   0  0  0  0  0  0  0  0  0  0  0  0
   -8.9409   -0.8388   -1.9700 C   0  0  0  0  0  0  0  0  0  0  0  0
   -8.3455   -1.6590   -2.9019 C   0  0  0  0  0  0  0  0  0  0  0  0
   -7.0065   -1.7648   -2.9639 N   0  0  0  0  0  0  0  0  0  0  0  0
   -6.2174   -1.0697   -2.1143 C   0  0  0  0  0  0  0  0  0  0  0  0
   -4.5078    0.3496   -0.3752 N   0  0  0  0  0  0  0  0  0  0  0  0
    0.7092    0.2710    1.5896 C   0  0  0  0  0  0  0  0  0  0  0  0
    2.0470    0.0025    1.3858 C   0  0  0  0  0  0  0  0  0  0  0  0
    5.9095   -2.5383   -2.1829 H   0  0  0  0  0  0  0  0  0  0  0  0
    4.7932   -2.4520   -0.7784 H   0  0  0  0  0  0  0  0  0  0  0  0
    8.3717   -2.4688   -1.4638 H   0  0  0  0  0  0  0  0  0  0  0  0
   10.0617   -1.3672   -0.1537 H   0  0  0  0  0  0  0  0  0  0  0  0
    9.4135    0.1700    1.6696 H   0  0  0  0  0  0  0  0  0  0  0  0
    6.9895    0.5678    2.1381 H   0  0  0  0  0  0  0  0  0  0  0  0
    4.4600   -1.1182    1.5542 H   0  0  0  0  0  0  0  0  0  0  0  0
    2.6955    2.4188   -0.8575 H   0  0  0  0  0  0  0  0  0  0  0  0
    0.3571    2.8835   -0.4975 H   0  0  0  0  0  0  0  0  0  0  0  0
   -1.6735    1.3067    2.2217 H   0  0  0  0  0  0  0  0  0  0  0  0
   -1.6288    2.6346    1.0406 H   0  0  0  0  0  0  0  0  0  0  0  0
   -1.8792    0.1726   -0.4609 H   0  0  0  0  0  0  0  0  0  0  0  0
   -5.8045    2.6925    2.3055 H   0  0  0  0  0  0  0  0  0  0  0  0
   -7.3977    1.5053    0.8432 H   0  0  0  0  0  0  0  0  0  0  0  0
   -8.5949    0.5134   -0.3724 H   0  0  0  0  0  0  0  0  0  0  0  0
  -10.0123   -0.7685   -1.9373 H   0  0  0  0  0  0  0  0  0  0  0  0
   -8.9649   -2.2146   -3.5805 H   0  0  0  0  0  0  0  0  0  0  0  0
   -5.1536   -1.1470   -2.1557 H   0  0  0  0  0  0  0  0  0  0  0  0
    0.1843   -0.3764    2.3035 H   0  0  0  0  0  0  0  0  0  0  0  0
    2.5160   -0.8268    1.9335 H   0  0  0  0  0  0  0  0  0  0  0  0
  1  2  1  0
  2  3  2  0
  3  4  1  0
  4  5  2  0
  5  6  1  0
  6  7  2  0
  7  8  1  0
  8  9  1  0
  9 10  2  0
  9 11  1  0
 11 12  2  0
 12 13  1  0
 13 14  2  0
 14 15  1  0
 15 16  1  0
 16 17  1  0
 17 18  2  0
 18 19  1  0
 19 20  2  0
 20 21  1  0
 21 22  1  0
 22 23  2  0
 23 24  1  0
 24 25  2  0
 25 26  1  0
 26 27  2  0
 21 28  2  0
 14 29  1  0
 29 30  2  0
  7  2  1  0
 30 11  1  0
 28 17  1  0
 27 22  1  0
  1 31  1  0
  1 32  1  0
  3 33  1  0
  4 34  1  0
  5 35  1  0
  6 36  1  0
  8 37  1  0
 12 38  1  0
 13 39  1  0
 15 40  1  0
 15 41  1  0
 16 42  1  0
 19 43  1  0
 20 44  1  0
 23 45  1  0
 24 46  1  0
 25 47  1  0
 27 48  1  0
 29 49  1  0
 30 50  1  0
M  END
$$$$
