
     RDKit          3D

 38 39  0  0  0  0  0  0  0  0999 V2000
    3.1541    0.7412   -0.1300 C   0  0  0  0  0  0  0  0  0  0  0  0
    2.2662   -0.3130   -0.5951 N   0  0  0  0  0  0  0  0  0  0  0  0
    2.9757   -1.1213   -1.5622 C   0  0  0  0  0  0  0  0  0  0  0  0
    1.8090   -1.1150    0.4985 C   0  0  0  0  0  0  0  0  0  0  0  0
    0.8958   -0.5156    1.4595 C   0  0  0  0  0  0  0  0  0  0  0  0
   -0.4242    0.0066    1.1845 C   0  0  0  0  0  0  0  0  0  0  0  0
   -1.4747   -0.8976    0.6498 C   0  0  0  0  0  0  0  0  0  0  0  0
   -2.7389   -0.9915    1.2571 C   0  0  0  0  0  0  0  0  0  0  0  0
   -3.7528   -1.7892    0.8069 C   0  0  0  0  0  0  0  0  0  0  0  0
   -3.5341   -2.5616   -0.3203 C   0  0  0  0  0  0  0  0  0  0  0  0
   -4.7796   -3.6080   -0.9642 Cl  0  0  0  0  0  0  0  0  0  0  0  0
   -2.3271   -2.5118   -0.9496 C   0  0  0  0  0  0  0  0  0  0  0  0
   -1.3139   -1.6821   -0.4584 C   0  0  0  0  0  0  0  0  0  0  0  0
   -0.5406    1.3695    0.5966 C   0  0  0  0  0  0  0  0  0  0  0  0
   -0.3542    1.5212   -0.7476 C   0  0  0  0  0  0  0  0  0  0  0  0
   -0.4370    2.7362   -1.3988 C   0  0  0  0  0  0  0  0  0  0  0  0
   -0.7261    3.8623   -0.6485 C   0  0  0  0  0  0  0  0  0  0  0  0
   -0.9112    3.7067    0.6889 C   0  0  0  0  0  0  0  0  0  0  0  0
   -0.8191    2.4901    1.2883 N   0  0  0  0  0  0  0  0  0  0  0  0
    3.2069    0.6946    0.9848 H   0  0  0  0  0  0  0  0  0  0  0  0
    2.8481    1.7456   -0.4539 H   0  0  0  0  0  0  0  0  0  0  0  0
    4.1995    0.5953   -0.4807 H   0  0  0  0  0  0  0  0  0  0  0  0
    3.9982   -0.7355   -1.7891 H   0  0  0  0  0  0  0  0  0  0  0  0
    2.3957   -1.1341   -2.5109 H   0  0  0  0  0  0  0  0  0  0  0  0
    3.1297   -2.1611   -1.2165 H   0  0  0  0  0  0  0  0  0  0  0  0
    2.7729   -1.2892    1.0944 H   0  0  0  0  0  0  0  0  0  0  0  0
    1.5897   -2.1872    0.2070 H   0  0  0  0  0  0  0  0  0  0  0  0
    1.4741    0.3101    1.9841 H   0  0  0  0  0  0  0  0  0  0  0  0
    0.8046   -1.2795    2.3061 H   0  0  0  0  0  0  0  0  0  0  0  0
   -0.8192    0.1962    2.2548 H   0  0  0  0  0  0  0  0  0  0  0  0
   -2.9543   -0.3928    2.1555 H   0  0  0  0  0  0  0  0  0  0  0  0
   -4.7097   -1.8481    1.2843 H   0  0  0  0  0  0  0  0  0  0  0  0
   -2.1437   -3.1023   -1.8241 H   0  0  0  0  0  0  0  0  0  0  0  0
   -0.3891   -1.6725   -0.9872 H   0  0  0  0  0  0  0  0  0  0  0  0
   -0.1448    0.6663   -1.3572 H   0  0  0  0  0  0  0  0  0  0  0  0
   -0.2843    2.8375   -2.4669 H   0  0  0  0  0  0  0  0  0  0  0  0
   -0.8030    4.8438   -1.1160 H   0  0  0  0  0  0  0  0  0  0  0  0
   -1.1388    4.5860    1.2762 H   0  0  0  0  0  0  0  0  0  0  0  0
  1  2  1  0
  2  3  1  0
  2  4  1  0
  4  5  1  0
  5  6  1  0
  6  7  1  0
  7  8  2  0
  8  9  1  0
  9 10  2  0
 10 11  1  0
 10 12  1  0
 12 13  2  0
  6 14  1  0
 14 15  2  0
 15 16  1  0
 16 17  2  0
 17 18  1  0
 18 19  2  0
 13  7  1  0
 19 14  1  0
  1 20  1  0
  1 21  1  0
  1 22  1  0
  3 23  1  0
  3 24  1  0
  3 25  1  0
  4 26  1  0
  4 27  1  0
  5 28  1  0
  5 29  1  0
  6 30  1  0
  8 31  1  0
  9 32  1  0
 12 33  1  0
 13 34  1  0
 15 35  1  0
 16 36  1  0
 17 37  1  0
 18 38  1  0
M  END
$$$$
