
     RDKit          3D

 41 40  0  0  0  0  0  0  0  0999 V2000
   -4.3824    0.1795    1.0795 C   0  0  0  0  0  0  0  0  0  0  0  0
   -4.5094   -0.4522   -0.2539 C   0  0  0  0  0  0  0  0  0  0  0  0
   -5.8697   -0.6763   -0.8130 C   0  0  0  0  0  0  0  0  0  0  0  0
   -3.4589   -0.8206   -0.9580 C   0  0  0  0  0  0  0  0  0  0  0  0
   -2.0626   -0.5979   -0.3993 C   0  0  0  0  0  0  0  0  0  0  0  0
   -1.2857    0.2820   -1.2998 C   0  0  0  0  0  0  0  0  0  0  0  0
    0.1264    0.5646   -0.7452 C   0  0  0  0  0  0  0  0  0  0  0  0
   -0.0764    1.2384    0.5648 C   0  0  0  0  0  0  0  0  0  0  0  0
    0.8858   -0.6823   -0.7687 C   0  0  0  0  0  0  0  0  0  0  0  0
    2.2607   -0.8265   -0.3559 C   0  0  0  0  0  0  0  0  0  0  0  0
    3.2503   -0.1438    0.0744 C   0  0  0  0  0  0  0  0  0  0  0  0
    4.8453   -1.0344    0.4332 P   0  0  0  0  0  5  0  0  0  0  0  0
    5.8662   -0.4434   -0.5015 O   0  0  0  0  0  0  0  0  0  0  0  0
    5.2046   -0.6499    2.0280 O   0  0  0  0  0  0  0  0  0  0  0  0
    4.6300   -2.6739    0.2397 O   0  0  0  0  0  0  0  0  0  0  0  0
    3.3470    1.5838    0.3887 P   0  0  0  0  0  5  0  0  0  0  0  0
    2.7721    2.4164   -0.7104 O   0  0  0  0  0  0  0  0  0  0  0  0
    2.7127    1.9796    1.9146 O   0  0  0  0  0  0  0  0  0  0  0  0
    5.0175    2.0661    0.5251 O   0  0  0  0  0  0  0  0  0  0  0  0
   -3.8721   -0.5583    1.7383 H   0  0  0  0  0  0  0  0  0  0  0  0
   -5.3613    0.4299    1.4994 H   0  0  0  0  0  0  0  0  0  0  0  0
   -3.7898    1.1234    0.9785 H   0  0  0  0  0  0  0  0  0  0  0  0
   -6.6540   -0.6375   -0.0333 H   0  0  0  0  0  0  0  0  0  0  0  0
   -6.0594    0.1395   -1.5626 H   0  0  0  0  0  0  0  0  0  0  0  0
   -5.8710   -1.6483   -1.3515 H   0  0  0  0  0  0  0  0  0  0  0  0
   -3.5228   -1.2769   -1.9192 H   0  0  0  0  0  0  0  0  0  0  0  0
   -2.1812   -0.2800    0.6282 H   0  0  0  0  0  0  0  0  0  0  0  0
   -1.5878   -1.6106   -0.3689 H   0  0  0  0  0  0  0  0  0  0  0  0
   -1.7380    1.2984   -1.4211 H   0  0  0  0  0  0  0  0  0  0  0  0
   -1.1130   -0.1732   -2.2978 H   0  0  0  0  0  0  0  0  0  0  0  0
    0.6043    1.2816   -1.4610 H   0  0  0  0  0  0  0  0  0  0  0  0
   -1.1673    1.3785    0.7552 H   0  0  0  0  0  0  0  0  0  0  0  0
    0.3577    2.2831    0.5611 H   0  0  0  0  0  0  0  0  0  0  0  0
    0.3520    0.7182    1.4211 H   0  0  0  0  0  0  0  0  0  0  0  0
    0.2897   -1.4659   -0.1747 H   0  0  0  0  0  0  0  0  0  0  0  0
    0.8238   -1.1234   -1.8318 H   0  0  0  0  0  0  0  0  0  0  0  0
    2.5911   -1.9686   -0.4477 H   0  0  0  0  0  0  0  0  0  0  0  0
    6.1542   -0.8144    2.2448 H   0  0  0  0  0  0  0  0  0  0  0  0
    4.7896   -2.8976   -0.7195 H   0  0  0  0  0  0  0  0  0  0  0  0
    2.3776    2.8967    1.9546 H   0  0  0  0  0  0  0  0  0  0  0  0
    5.3045    1.5959    1.3656 H   0  0  0  0  0  0  0  0  0  0  0  0
  1  2  1  0
  2  3  1  0
  2  4  2  3
  4  5  1  0
  5  6  1  0
  6  7  1  0
  7  8  1  0
  7  9  1  0
  9 10  1  0
 10 11  2  3
 11 12  1  0
 12 13  2  0
 12 14  1  0
 12 15  1  0
 11 16  1  0
 16 17  2  0
 16 18  1  0
 16 19  1  0
  1 20  1  0
  1 21  1  0
  1 22  1  0
  3 23  1  0
  3 24  1  0
  3 25  1  0
  4 26  1  0
  5 27  1  0
  5 28  1  0
  6 29  1  0
  6 30  1  0
  7 31  1  0
  8 32  1  0
  8 33  1  0
  8 34  1  0
  9 35  1  0
  9 36  1  0
 10 37  1  0
 14 38  1  0
 15 39  1  0
 18 40  1  0
 19 41  1  0
M  END
$$$$
