
     RDKit          3D

 74 76  0  0  0  0  0  0  0  0999 V2000
   -2.7501   -0.2349   -4.7618 C   0  0  0  0  0  0  0  0  0  0  0  0
   -2.3438   -0.3395   -3.2797 C   0  0  0  0  0  0  0  0  0  0  0  0
   -0.8879   -0.6665   -3.2851 C   0  0  0  0  0  0  0  0  0  0  0  0
   -2.7379    0.9397   -2.6439 C   0  0  0  0  0  0  0  0  0  0  0  0
   -2.4650    1.1027   -1.1999 C   0  0  1  0  0  0  0  0  0  0  0  0
   -3.0879    0.1446   -0.3474 N   0  0  0  0  0  0  0  0  0  0  0  0
   -4.0128    0.5077    0.6705 C   0  0  0  0  0  0  0  0  0  0  0  0
   -4.2423    1.7592    0.7615 O   0  0  0  0  0  0  0  0  0  0  0  0
   -4.6550   -0.4072    1.5396 N   0  0  0  0  0  0  0  0  0  0  0  0
   -5.5901    0.1217    2.5436 C   0  0  0  0  0  0  0  0  0  0  0  0
   -6.2026   -1.0233    3.3152 C   0  0  0  0  0  0  0  0  0  0  0  0
   -5.2646   -1.8855    3.8306 O   0  0  0  0  0  0  0  0  0  0  0  0
   -4.3978   -2.4300    2.9227 C   0  0  0  0  0  0  0  0  0  0  0  0
   -4.4758   -1.8330    1.5339 C   0  0  0  0  0  0  0  0  0  0  0  0
   -0.9925    1.2568   -0.9850 C   0  0  0  0  0  0  0  0  0  0  0  0
   -0.4635    2.1220   -1.7279 O   0  0  0  0  0  0  0  0  0  0  0  0
   -0.2749    0.5126   -0.0492 N   0  0  0  0  0  0  0  0  0  0  0  0
    1.1357    0.6643    0.1679 C   0  0  1  0  0  0  0  0  0  0  0  0
    1.9731    0.0828   -0.9132 C   0  0  0  0  0  0  0  0  0  0  0  0
    2.6683   -1.0191   -0.7959 C   0  0  0  0  0  0  0  0  0  0  0  0
    2.6780   -1.9386    0.6887 S   0  0  0  0  0  6  0  0  0  0  0  0
    3.3419   -1.1726    1.8007 O   0  0  0  0  0  0  0  0  0  0  0  0
    1.2362   -2.2284    1.0563 O   0  0  0  0  0  0  0  0  0  0  0  0
    3.5081   -3.4510    0.5149 C   0  0  0  0  0  0  0  0  0  0  0  0
    4.8627   -3.4873    0.7801 C   0  0  0  0  0  0  0  0  0  0  0  0
    5.5889   -4.6720    0.6573 C   0  0  0  0  0  0  0  0  0  0  0  0
    4.9538   -5.8464    0.2620 C   0  0  0  0  0  0  0  0  0  0  0  0
    3.6076   -5.8092   -0.0010 C   0  0  0  0  0  0  0  0  0  0  0  0
    2.9111   -4.6171    0.1295 C   0  0  0  0  0  0  0  0  0  0  0  0
    1.5460    2.1308    0.3211 C   0  0  0  0  0  0  0  0  0  0  0  0
    3.0501    2.2195    0.5665 C   0  0  0  0  0  0  0  0  0  0  0  0
    3.3701    3.6629    0.7140 C   0  0  0  0  0  0  0  0  0  0  0  0
    3.3359    4.2738    1.9515 C   0  0  0  0  0  0  0  0  0  0  0  0
    3.6244    5.6056    2.1370 C   0  0  0  0  0  0  0  0  0  0  0  0
    3.9649    6.3833    1.0561 C   0  0  0  0  0  0  0  0  0  0  0  0
    4.0086    5.8053   -0.1932 C   0  0  0  0  0  0  0  0  0  0  0  0
    3.7143    4.4650   -0.3525 C   0  0  0  0  0  0  0  0  0  0  0  0
   -2.8074   -1.2589   -5.2085 H   0  0  0  0  0  0  0  0  0  0  0  0
   -3.6407    0.3693   -4.9018 H   0  0  0  0  0  0  0  0  0  0  0  0
   -1.8990    0.2713   -5.2765 H   0  0  0  0  0  0  0  0  0  0  0  0
   -2.9748   -1.1492   -2.8731 H   0  0  0  0  0  0  0  0  0  0  0  0
   -0.7400   -1.4488   -4.0991 H   0  0  0  0  0  0  0  0  0  0  0  0
   -0.4744   -1.0242   -2.3412 H   0  0  0  0  0  0  0  0  0  0  0  0
   -0.2627    0.1799   -3.6324 H   0  0  0  0  0  0  0  0  0  0  0  0
   -2.2509    1.7601   -3.2523 H   0  0  0  0  0  0  0  0  0  0  0  0
   -3.8376    1.0813   -2.8711 H   0  0  0  0  0  0  0  0  0  0  0  0
   -2.8737    2.1188   -0.9063 H   0  0  0  0  0  0  0  0  0  0  0  0
   -2.8998   -0.9003   -0.4208 H   0  0  0  0  0  0  0  0  0  0  0  0
   -6.4289    0.5753    1.9455 H   0  0  0  0  0  0  0  0  0  0  0  0
   -5.1320    0.8793    3.1824 H   0  0  0  0  0  0  0  0  0  0  0  0
   -6.9592   -1.5601    2.7156 H   0  0  0  0  0  0  0  0  0  0  0  0
   -6.7631   -0.5964    4.1846 H   0  0  0  0  0  0  0  0  0  0  0  0
   -4.5315   -3.5408    2.7880 H   0  0  0  0  0  0  0  0  0  0  0  0
   -3.3576   -2.2741    3.2839 H   0  0  0  0  0  0  0  0  0  0  0  0
   -5.4016   -2.2712    1.0569 H   0  0  0  0  0  0  0  0  0  0  0  0
   -3.5708   -2.1583    0.9865 H   0  0  0  0  0  0  0  0  0  0  0  0
   -0.8521   -0.1959    0.5110 H   0  0  0  0  0  0  0  0  0  0  0  0
    1.3617    0.1761    1.1622 H   0  0  0  0  0  0  0  0  0  0  0  0
    1.9810    0.6477   -1.8569 H   0  0  0  0  0  0  0  0  0  0  0  0
    3.2543   -1.3800   -1.6303 H   0  0  0  0  0  0  0  0  0  0  0  0
    5.4180   -2.5984    1.0953 H   0  0  0  0  0  0  0  0  0  0  0  0
    6.6311   -4.6877    0.8643 H   0  0  0  0  0  0  0  0  0  0  0  0
    5.5503   -6.7578    0.1747 H   0  0  0  0  0  0  0  0  0  0  0  0
    3.0982   -6.7320   -0.3139 H   0  0  0  0  0  0  0  0  0  0  0  0
    1.8474   -4.6040   -0.0823 H   0  0  0  0  0  0  0  0  0  0  0  0
    1.0658    2.6144    1.1934 H   0  0  0  0  0  0  0  0  0  0  0  0
    1.3931    2.6532   -0.6403 H   0  0  0  0  0  0  0  0  0  0  0  0
    3.3813    1.5994    1.3974 H   0  0  0  0  0  0  0  0  0  0  0  0
    3.5458    1.8562   -0.3625 H   0  0  0  0  0  0  0  0  0  0  0  0
    3.0626    3.6401    2.8040 H   0  0  0  0  0  0  0  0  0  0  0  0
    3.5860    6.0431    3.1181 H   0  0  0  0  0  0  0  0  0  0  0  0
    4.2002    7.4516    1.1812 H   0  0  0  0  0  0  0  0  0  0  0  0
    4.2815    6.4591   -1.0102 H   0  0  0  0  0  0  0  0  0  0  0  0
    3.7641    4.0632   -1.3511 H   0  0  0  0  0  0  0  0  0  0  0  0
  1  2  1  0
  2  3  1  0
  2  4  1  0
  4  5  1  0
  5  6  1  0
  6  7  1  0
  7  8  2  0
  7  9  1  0
  9 10  1  0
 10 11  1  0
 11 12  1  0
 12 13  1  0
 13 14  1  0
  5 15  1  0
 15 16  2  0
 15 17  1  0
 17 18  1  0
 18 19  1  0
 19 20  2  3
 20 21  1  0
 21 22  2  0
 21 23  2  0
 21 24  1  0
 24 25  2  0
 25 26  1  0
 26 27  2  0
 27 28  1  0
 28 29  2  0
 18 30  1  0
 30 31  1  0
 31 32  1  0
 32 33  2  0
 33 34  1  0
 34 35  2  0
 35 36  1  0
 36 37  2  0
 14  9  1  0
 29 24  1  0
 37 32  1  0
  1 38  1  0
  1 39  1  0
  1 40  1  0
  2 41  1  0
  3 42  1  0
  3 43  1  0
  3 44  1  0
  4 45  1  0
  4 46  1  0
  5 47  1  1
  6 48  1  0
 10 49  1  0
 10 50  1  0
 11 51  1  0
 11 52  1  0
 13 53  1  0
 13 54  1  0
 14 55  1  0
 14 56  1  0
 17 57  1  0
 18 58  1  1
 19 59  1  0
 20 60  1  0
 25 61  1  0
 26 62  1  0
 27 63  1  0
 28 64  1  0
 29 65  1  0
 30 66  1  0
 30 67  1  0
 31 68  1  0
 31 69  1  0
 33 70  1  0
 34 71  1  0
 35 72  1  0
 36 73  1  0
 37 74  1  0
M  END
$$$$
