
     RDKit          3D

 29 29  0  0  0  0  0  0  0  0999 V2000
   -2.0322   -0.4677    1.0961 C   0  0  0  0  0  0  0  0  0  0  0  0
   -1.8584    0.0056   -0.3325 C   0  0  2  0  0  0  0  0  0  0  0  0
   -2.9592   -0.5980   -1.1720 C   0  0  0  0  0  0  0  0  0  0  0  0
   -4.6030   -0.1215   -0.6116 S   0  0  0  0  0  0  0  0  0  0  0  0
   -0.5600   -0.3723   -0.9073 C   0  0  0  0  0  0  0  0  0  0  0  0
   -0.4818   -1.1057   -1.9459 O   0  0  0  0  0  0  0  0  0  0  0  0
    0.6384    0.0656   -0.3261 N   0  0  0  0  0  0  0  0  0  0  0  0
    0.6850    0.9060    0.8600 C   0  0  0  0  0  0  0  0  0  0  0  0
    1.8431    1.8154    0.5465 C   0  0  0  0  0  0  0  0  0  0  0  0
    2.7429    1.0302   -0.3738 C   0  0  0  0  0  0  0  0  0  0  0  0
    2.0043   -0.2147   -0.7653 C   0  0  1  0  0  0  0  0  0  0  0  0
    2.5335   -1.3934    0.0103 C   0  0  0  0  0  0  0  0  0  0  0  0
    3.6841   -1.8254   -0.1869 O   0  0  0  0  0  0  0  0  0  0  0  0
    1.7353   -2.0129    0.9595 O   0  0  0  0  0  0  0  0  0  0  0  0
   -1.1419   -1.0136    1.4714 H   0  0  0  0  0  0  0  0  0  0  0  0
   -2.1820    0.3819    1.8040 H   0  0  0  0  0  0  0  0  0  0  0  0
   -2.8786   -1.2037    1.1756 H   0  0  0  0  0  0  0  0  0  0  0  0
   -2.0052    1.1231   -0.3928 H   0  0  0  0  0  0  0  0  0  0  0  0
   -2.9042   -1.7162   -1.1410 H   0  0  0  0  0  0  0  0  0  0  0  0
   -2.8613   -0.3223   -2.2378 H   0  0  0  0  0  0  0  0  0  0  0  0
   -4.5406    1.2384   -0.1967 H   0  0  0  0  0  0  0  0  0  0  0  0
   -0.2309    1.5121    0.9809 H   0  0  0  0  0  0  0  0  0  0  0  0
    0.8598    0.2797    1.7556 H   0  0  0  0  0  0  0  0  0  0  0  0
    1.4339    2.7197    0.0563 H   0  0  0  0  0  0  0  0  0  0  0  0
    2.3397    2.0996    1.4888 H   0  0  0  0  0  0  0  0  0  0  0  0
    3.7031    0.8262    0.1208 H   0  0  0  0  0  0  0  0  0  0  0  0
    2.9677    1.6519   -1.2675 H   0  0  0  0  0  0  0  0  0  0  0  0
    2.0357   -0.3888   -1.8488 H   0  0  0  0  0  0  0  0  0  0  0  0
    2.0328   -2.8995    1.3799 H   0  0  0  0  0  0  0  0  0  0  0  0
  1  2  1  0
  2  3  1  0
  3  4  1  0
  2  5  1  0
  5  6  2  0
  5  7  1  0
  7  8  1  0
  8  9  1  0
  9 10  1  0
 10 11  1  0
 11 12  1  0
 12 13  2  0
 12 14  1  0
 11  7  1  0
  1 15  1  0
  1 16  1  0
  1 17  1  0
  2 18  1  1
  3 19  1  0
  3 20  1  0
  4 21  1  0
  8 22  1  0
  8 23  1  0
  9 24  1  0
  9 25  1  0
 10 26  1  0
 10 27  1  0
 11 28  1  6
 14 29  1  0
M  END
$$$$
