
     RDKit          3D

 22 23  0  0  0  0  0  0  0  0999 V2000
   -3.8048    0.8192    1.2671 O   0  0  0  0  0  0  0  0  0  0  0  0
   -3.2950   -0.0758   -0.0812 S   0  0  0  0  0  0  0  0  0  0  0  0
   -3.5443    0.6219   -1.3631 O   0  0  0  0  0  0  0  0  0  0  0  0
   -4.0421   -1.3985   -0.0472 O   0  0  0  0  0  0  0  0  0  0  0  0
   -1.5729   -0.3324    0.0783 C   0  0  0  0  0  0  0  0  0  0  0  0
   -0.7068    0.6123   -0.4729 C   0  0  0  0  0  0  0  0  0  0  0  0
    0.6663    0.4503   -0.3708 C   0  0  0  0  0  0  0  0  0  0  0  0
    1.1305   -0.6748    0.2930 C   0  0  0  0  0  0  0  0  0  0  0  0
    2.4992   -0.8255    0.3885 C   0  0  0  0  0  0  0  0  0  0  0  0
    3.3525    0.1166   -0.1612 C   0  0  0  0  0  0  0  0  0  0  0  0
    2.8521    1.2408   -0.8247 C   0  0  0  0  0  0  0  0  0  0  0  0
    1.4867    1.4080   -0.9298 C   0  0  0  0  0  0  0  0  0  0  0  0
    0.2606   -1.6124    0.8400 C   0  0  0  0  0  0  0  0  0  0  0  0
   -1.0959   -1.4596    0.7434 C   0  0  0  0  0  0  0  0  0  0  0  0
   -3.8585    1.7658    0.9724 H   0  0  0  0  0  0  0  0  0  0  0  0
   -1.0761    1.4825   -0.9863 H   0  0  0  0  0  0  0  0  0  0  0  0
    2.8774   -1.7121    0.9116 H   0  0  0  0  0  0  0  0  0  0  0  0
    4.4396   -0.0333   -0.0677 H   0  0  0  0  0  0  0  0  0  0  0  0
    3.5296    1.9897   -1.2617 H   0  0  0  0  0  0  0  0  0  0  0  0
    1.0549    2.2753   -1.4419 H   0  0  0  0  0  0  0  0  0  0  0  0
    0.6283   -2.4861    1.3555 H   0  0  0  0  0  0  0  0  0  0  0  0
   -1.7815   -2.1719    1.1588 H   0  0  0  0  0  0  0  0  0  0  0  0
  1  2  1  0
  2  3  2  0
  2  4  2  0
  2  5  1  0
  5  6  2  0
  6  7  1  0
  7  8  2  0
  8  9  1  0
  9 10  2  0
 10 11  1  0
 11 12  2  0
  8 13  1  0
 13 14  2  0
 14  5  1  0
 12  7  1  0
  1 15  1  0
  6 16  1  0
  9 17  1  0
 10 18  1  0
 11 19  1  0
 12 20  1  0
 13 21  1  0
 14 22  1  0
M  END
$$$$
