
     RDKit          3D

 19 18  0  0  0  0  0  0  0  0999 V2000
   -1.9347   -0.4731    0.3046 C   0  0  0  0  0  0  0  0  0  0  0  0
   -0.7256   -0.0088   -0.4638 C   0  0  0  0  0  0  0  0  0  0  0  0
   -0.6363    1.4855   -0.3643 C   0  0  0  0  0  0  0  0  0  0  0  0
    0.5125   -0.7019    0.0405 C   0  0  2  0  0  0  0  0  0  0  0  0
    0.7937   -0.4676    1.4258 N   0  0  0  0  0  0  0  0  0  0  0  0
    1.6944   -0.2887   -0.7548 C   0  0  0  0  0  0  0  0  0  0  0  0
    2.8551    0.2358   -0.1611 O   0  0  0  0  0  0  0  0  0  0  0  0
    1.7596   -0.3694   -1.9978 O   0  0  0  0  0  0  0  0  0  0  0  0
   -2.3771   -1.3334   -0.2506 H   0  0  0  0  0  0  0  0  0  0  0  0
   -1.7086   -0.7486    1.3551 H   0  0  0  0  0  0  0  0  0  0  0  0
   -2.7063    0.3415    0.2910 H   0  0  0  0  0  0  0  0  0  0  0  0
   -0.8457   -0.2771   -1.5260 H   0  0  0  0  0  0  0  0  0  0  0  0
    0.4106    1.8565   -0.4038 H   0  0  0  0  0  0  0  0  0  0  0  0
   -1.1645    1.8836    0.5392 H   0  0  0  0  0  0  0  0  0  0  0  0
   -1.1585    1.9561   -1.2313 H   0  0  0  0  0  0  0  0  0  0  0  0
    0.3334   -1.7964   -0.1149 H   0  0  0  0  0  0  0  0  0  0  0  0
    1.0730   -1.3112    1.9424 H   0  0  0  0  0  0  0  0  0  0  0  0
    0.0689    0.0586    1.9474 H   0  0  0  0  0  0  0  0  0  0  0  0
    3.7561   -0.0414   -0.5776 H   0  0  0  0  0  0  0  0  0  0  0  0
  1  2  1  0
  2  3  1  0
  2  4  1  0
  4  5  1  0
  4  6  1  0
  6  7  1  0
  6  8  2  0
  1  9  1  0
  1 10  1  0
  1 11  1  0
  2 12  1  0
  3 13  1  0
  3 14  1  0
  3 15  1  0
  4 16  1  1
  5 17  1  0
  5 18  1  0
  7 19  1  0
M  END
$$$$
