
     RDKit          3D

 33 36  0  0  0  0  0  0  0  0999 V2000
   -0.1384    4.0282    0.1617 O   0  0  0  0  0  0  0  0  0  0  0  0
   -0.1531    2.7720    0.1101 C   0  0  0  0  0  0  0  0  0  0  0  0
   -1.3334    2.0435   -0.0357 C   0  0  0  0  0  0  0  0  0  0  0  0
   -1.3230    0.6720   -0.0894 C   0  0  0  0  0  0  0  0  0  0  0  0
   -2.5715   -0.0985   -0.2436 C   0  0  0  0  0  0  0  0  0  0  0  0
   -3.8098    0.4852   -0.3430 C   0  0  0  0  0  0  0  0  0  0  0  0
   -4.9629   -0.2402   -0.4860 C   0  0  0  0  0  0  0  0  0  0  0  0
   -4.8687   -1.6161   -0.5314 C   0  0  0  0  0  0  0  0  0  0  0  0
   -3.6588   -2.2644   -0.4374 C   0  0  0  0  0  0  0  0  0  0  0  0
   -2.5320   -1.4845   -0.2949 C   0  0  0  0  0  0  0  0  0  0  0  0
   -0.1881    0.0430   -0.0021 O   0  0  0  0  0  0  0  0  0  0  0  0
    0.9780    0.6413    0.1371 C   0  0  0  0  0  0  0  0  0  0  0  0
    2.1325   -0.1254    0.2208 C   0  0  0  0  0  0  0  0  0  0  0  0
    3.3604    0.5210    0.3681 C   0  0  0  0  0  0  0  0  0  0  0  0
    3.3943    1.9068    0.4267 C   0  0  0  0  0  0  0  0  0  0  0  0
    2.2439    2.6586    0.3428 C   0  0  0  0  0  0  0  0  0  0  0  0
    1.0124    2.0290    0.1959 C   0  0  0  0  0  0  0  0  0  0  0  0
    4.5073   -0.2277    0.4518 O   0  0  0  0  0  0  0  0  0  0  0  0
    4.5064   -1.6119    0.3965 C   0  0  0  0  0  0  0  0  0  0  0  0
    3.1987   -2.2548    0.2414 C   0  0  0  0  0  0  0  0  0  0  0  0
    2.0886   -1.5810    0.1584 C   0  0  0  0  0  0  0  0  0  0  0  0
   -2.2351    2.6306   -0.1016 H   0  0  0  0  0  0  0  0  0  0  0  0
   -3.9121    1.5559   -0.3106 H   0  0  0  0  0  0  0  0  0  0  0  0
   -5.9495    0.2392   -0.5646 H   0  0  0  0  0  0  0  0  0  0  0  0
   -5.7806   -2.2010   -0.6450 H   0  0  0  0  0  0  0  0  0  0  0  0
   -3.5660   -3.3384   -0.4710 H   0  0  0  0  0  0  0  0  0  0  0  0
   -1.5377   -1.9256   -0.2140 H   0  0  0  0  0  0  0  0  0  0  0  0
    4.3639    2.4050    0.5425 H   0  0  0  0  0  0  0  0  0  0  0  0
    2.2753    3.7437    0.3892 H   0  0  0  0  0  0  0  0  0  0  0  0
    4.9769   -2.0048    1.3425 H   0  0  0  0  0  0  0  0  0  0  0  0
    5.2120   -1.9998   -0.4003 H   0  0  0  0  0  0  0  0  0  0  0  0
    3.1643   -3.3326    0.1950 H   0  0  0  0  0  0  0  0  0  0  0  0
    1.1058   -2.0682    0.0418 H   0  0  0  0  0  0  0  0  0  0  0  0
  1  2  2  0
  2  3  1  0
  3  4  2  0
  4  5  1  0
  5  6  2  0
  6  7  1  0
  7  8  2  0
  8  9  1  0
  9 10  2  0
  4 11  1  0
 11 12  1  0
 12 13  2  0
 13 14  1  0
 14 15  2  0
 15 16  1  0
 16 17  2  0
 14 18  1  0
 18 19  1  0
 19 20  1  0
 20 21  2  0
 17  2  1  0
 10  5  1  0
 17 12  1  0
 21 13  1  0
  3 22  1  0
  6 23  1  0
  7 24  1  0
  8 25  1  0
  9 26  1  0
 10 27  1  0
 15 28  1  0
 16 29  1  0
 19 30  1  0
 19 31  1  0
 20 32  1  0
 21 33  1  0
M  END
$$$$
