
     RDKit          3D

 59 63  0  0  0  0  0  0  0  0999 V2000
   -6.1450    3.0303   -0.8472 N   0  0  0  0  0  0  0  0  0  0  0  0
   -6.3761    1.7261   -0.3159 C   0  0  0  0  0  0  0  0  0  0  0  0
   -7.5354    1.2787   -0.1210 O   0  0  0  0  0  0  0  0  0  0  0  0
   -5.1942    0.9051    0.0030 C   0  0  2  0  0  0  0  0  0  0  0  0
   -5.6252   -0.4206    0.5453 C   0  0  0  0  0  0  0  0  0  0  0  0
   -4.4318   -1.2602    0.9534 C   0  0  0  0  0  0  0  0  0  0  0  0
   -3.5354   -0.5287    1.9278 C   0  0  0  0  0  0  0  0  0  0  0  0
   -3.1624    0.8138    1.3561 C   0  0  0  0  0  0  0  0  0  0  0  0
   -4.3969    1.6359    1.0642 C   0  0  0  0  0  0  0  0  0  0  0  0
   -2.3418    0.5733    0.1058 C   0  0  1  0  0  0  0  0  0  0  0  0
   -1.2503   -0.2433    0.4962 O   0  0  0  0  0  0  0  0  0  0  0  0
    0.0678    0.1356    0.3073 C   0  0  0  0  0  0  0  0  0  0  0  0
    0.2647    1.2529   -0.2340 O   0  0  0  0  0  0  0  0  0  0  0  0
    1.1701   -0.6797    0.6971 N   0  0  0  0  0  0  0  0  0  0  0  0
    1.1472   -1.9848    1.3286 C   0  0  0  0  0  0  0  0  0  0  0  0
    2.2854   -2.6807    0.6041 C   0  0  0  0  0  0  0  0  0  0  0  0
    3.3422   -1.6206    0.6252 C   0  0  1  0  0  0  0  0  0  0  0  0
    4.3209   -1.7697   -0.4092 N   0  0  0  0  0  0  0  0  0  0  0  0
    5.3747   -0.8249   -0.4932 C   0  0  0  0  0  0  0  0  0  0  0  0
    6.3430   -0.9175   -1.4654 C   0  0  0  0  0  0  0  0  0  0  0  0
    7.3768   -0.0057   -1.5617 C   0  0  0  0  0  0  0  0  0  0  0  0
    7.4133    1.0139   -0.6451 C   0  0  0  0  0  0  0  0  0  0  0  0
    8.5191    2.0305   -0.7096 C   0  0  0  0  0  0  0  0  0  0  0  0
    8.3093    3.0058    0.2376 F   0  0  0  0  0  0  0  0  0  0  0  0
    8.5641    2.5767   -1.9593 F   0  0  0  0  0  0  0  0  0  0  0  0
    9.6954    1.3219   -0.4632 F   0  0  0  0  0  0  0  0  0  0  0  0
    6.4447    1.1107    0.3313 C   0  0  0  0  0  0  0  0  0  0  0  0
    5.4569    0.1921    0.3793 N   0  0  0  0  0  0  0  0  0  0  0  0
    2.5666   -0.3375    0.5256 C   0  0  0  0  0  0  0  0  0  0  0  0
   -3.1937   -0.1986   -0.8749 C   0  0  0  0  0  0  0  0  0  0  0  0
   -3.6161   -1.5102   -0.2995 C   0  0  0  0  0  0  0  0  0  0  0  0
   -4.3720    0.6521   -1.2430 C   0  0  0  0  0  0  0  0  0  0  0  0
   -6.2930    3.2118   -1.8609 H   0  0  0  0  0  0  0  0  0  0  0  0
   -5.8310    3.7994   -0.2329 H   0  0  0  0  0  0  0  0  0  0  0  0
   -6.1148   -0.9801   -0.2967 H   0  0  0  0  0  0  0  0  0  0  0  0
   -6.3723   -0.3221    1.3664 H   0  0  0  0  0  0  0  0  0  0  0  0
   -4.7921   -2.2025    1.4102 H   0  0  0  0  0  0  0  0  0  0  0  0
   -4.0483   -0.4344    2.9135 H   0  0  0  0  0  0  0  0  0  0  0  0
   -2.6252   -1.1327    2.0517 H   0  0  0  0  0  0  0  0  0  0  0  0
   -2.5383    1.3541    2.1226 H   0  0  0  0  0  0  0  0  0  0  0  0
   -4.9979    1.6696    1.9786 H   0  0  0  0  0  0  0  0  0  0  0  0
   -4.0866    2.6250    0.7318 H   0  0  0  0  0  0  0  0  0  0  0  0
   -2.0196    1.5238   -0.3554 H   0  0  0  0  0  0  0  0  0  0  0  0
    0.1876   -2.4927    1.1856 H   0  0  0  0  0  0  0  0  0  0  0  0
    1.4128   -1.8609    2.4035 H   0  0  0  0  0  0  0  0  0  0  0  0
    1.9305   -2.9118   -0.4100 H   0  0  0  0  0  0  0  0  0  0  0  0
    2.5676   -3.5878    1.1753 H   0  0  0  0  0  0  0  0  0  0  0  0
    3.8763   -1.7006    1.6168 H   0  0  0  0  0  0  0  0  0  0  0  0
    4.2653   -2.5655   -1.0999 H   0  0  0  0  0  0  0  0  0  0  0  0
    6.2816   -1.7371   -2.1730 H   0  0  0  0  0  0  0  0  0  0  0  0
    8.1391   -0.0703   -2.3195 H   0  0  0  0  0  0  0  0  0  0  0  0
    6.4886    1.9163    1.0419 H   0  0  0  0  0  0  0  0  0  0  0  0
    2.8999    0.3608    1.3351 H   0  0  0  0  0  0  0  0  0  0  0  0
    2.7658    0.1450   -0.4460 H   0  0  0  0  0  0  0  0  0  0  0  0
   -2.5596   -0.4083   -1.7746 H   0  0  0  0  0  0  0  0  0  0  0  0
   -4.2572   -2.0307   -1.0204 H   0  0  0  0  0  0  0  0  0  0  0  0
   -2.7261   -2.1047   -0.0115 H   0  0  0  0  0  0  0  0  0  0  0  0
   -4.0259    1.6046   -1.6947 H   0  0  0  0  0  0  0  0  0  0  0  0
   -5.0128    0.0592   -1.9280 H   0  0  0  0  0  0  0  0  0  0  0  0
  1  2  1  0
  2  3  2  0
  4  2  1  6
  4  5  1  0
  5  6  1  0
  6  7  1  0
  7  8  1  0
  8  9  1  0
  8 10  1  0
 10 11  1  0
 11 12  1  0
 12 13  2  0
 12 14  1  0
 14 15  1  0
 15 16  1  0
 16 17  1  0
 17 18  1  0
 18 19  1  0
 19 20  2  0
 20 21  1  0
 21 22  2  0
 22 23  1  0
 23 24  1  0
 23 25  1  0
 23 26  1  0
 22 27  1  0
 27 28  2  0
 17 29  1  0
 10 30  1  0
 30 31  1  0
 30 32  1  0
  9  4  1  0
 29 14  1  0
 32  4  1  0
 31  6  1  0
 28 19  1  0
  1 33  1  0
  1 34  1  0
  5 35  1  0
  5 36  1  0
  6 37  1  0
  7 38  1  0
  7 39  1  0
  8 40  1  0
  9 41  1  0
  9 42  1  0
 10 43  1  6
 15 44  1  0
 15 45  1  0
 16 46  1  0
 16 47  1  0
 17 48  1  1
 18 49  1  0
 20 50  1  0
 21 51  1  0
 27 52  1  0
 29 53  1  0
 29 54  1  0
 30 55  1  0
 31 56  1  0
 31 57  1  0
 32 58  1  0
 32 59  1  0
M  END
$$$$
