
     RDKit          3D

 46 47  0  0  0  0  0  0  0  0999 V2000
   -5.6041    1.8641   -1.6824 C   0  0  0  0  0  0  0  0  0  0  0  0
   -5.4541    0.8088   -0.6318 C   0  0  0  0  0  0  0  0  0  0  0  0
   -6.1476    1.1322    0.6592 C   0  0  0  0  0  0  0  0  0  0  0  0
   -4.1200    0.4175   -0.4009 O   0  0  0  0  0  0  0  0  0  0  0  0
   -3.6247   -0.8395   -0.6487 C   0  0  0  0  0  0  0  0  0  0  0  0
   -4.3857   -1.7047   -1.1070 O   0  0  0  0  0  0  0  0  0  0  0  0
   -2.1909   -1.0785   -0.3463 C   0  0  0  0  0  0  0  0  0  0  0  0
   -2.1060   -2.2828    0.5507 C   0  0  0  0  0  0  0  0  0  0  0  0
   -1.5295   -1.4416   -1.6817 C   0  0  0  0  0  0  0  0  0  0  0  0
   -1.5419    0.0440    0.1583 O   0  0  0  0  0  0  0  0  0  0  0  0
   -0.1779   -0.1179    0.4656 C   0  0  0  0  0  0  0  0  0  0  0  0
    0.8032    0.1253   -0.4705 C   0  0  0  0  0  0  0  0  0  0  0  0
    2.1538   -0.0360   -0.1639 C   0  0  0  0  0  0  0  0  0  0  0  0
    2.5452   -0.4437    1.0887 C   0  0  0  0  0  0  0  0  0  0  0  0
    3.9268   -0.6171    1.4927 C   0  0  0  0  0  0  0  0  0  0  0  0
    4.2576   -1.3953    2.4423 O   0  0  0  0  0  0  0  0  0  0  0  0
    5.0082    0.0960    0.8260 C   0  0  0  0  0  0  0  0  0  0  0  0
    6.2696   -0.5116    0.7535 C   0  0  0  0  0  0  0  0  0  0  0  0
    7.2901    0.1770    0.1413 C   0  0  0  0  0  0  0  0  0  0  0  0
    7.1255    1.4167   -0.3936 C   0  0  0  0  0  0  0  0  0  0  0  0
    8.4246    2.3028   -1.1777 Cl  0  0  0  0  0  0  0  0  0  0  0  0
    5.8762    1.9848   -0.3056 C   0  0  0  0  0  0  0  0  0  0  0  0
    4.8080    1.3386    0.3006 C   0  0  0  0  0  0  0  0  0  0  0  0
    1.5615   -0.6902    2.0354 C   0  0  0  0  0  0  0  0  0  0  0  0
    0.2310   -0.5275    1.7195 C   0  0  0  0  0  0  0  0  0  0  0  0
   -5.3269    2.8714   -1.3744 H   0  0  0  0  0  0  0  0  0  0  0  0
   -4.9532    1.5804   -2.5346 H   0  0  0  0  0  0  0  0  0  0  0  0
   -6.6567    1.8408   -2.0345 H   0  0  0  0  0  0  0  0  0  0  0  0
   -5.9691   -0.1116   -1.0406 H   0  0  0  0  0  0  0  0  0  0  0  0
   -7.1392    1.5689    0.5170 H   0  0  0  0  0  0  0  0  0  0  0  0
   -5.5463    1.7857    1.3325 H   0  0  0  0  0  0  0  0  0  0  0  0
   -6.2790    0.1664    1.2287 H   0  0  0  0  0  0  0  0  0  0  0  0
   -2.8139   -3.0572    0.2018 H   0  0  0  0  0  0  0  0  0  0  0  0
   -2.4002   -2.0024    1.5763 H   0  0  0  0  0  0  0  0  0  0  0  0
   -1.0719   -2.6702    0.4865 H   0  0  0  0  0  0  0  0  0  0  0  0
   -2.1567   -2.2393   -2.1203 H   0  0  0  0  0  0  0  0  0  0  0  0
   -0.4927   -1.7485   -1.4852 H   0  0  0  0  0  0  0  0  0  0  0  0
   -1.5801   -0.5554   -2.3545 H   0  0  0  0  0  0  0  0  0  0  0  0
    0.5015    0.4488   -1.4641 H   0  0  0  0  0  0  0  0  0  0  0  0
    2.8784    0.1570   -0.9452 H   0  0  0  0  0  0  0  0  0  0  0  0
    6.4509   -1.4981    1.1650 H   0  0  0  0  0  0  0  0  0  0  0  0
    8.2942   -0.2611    0.0620 H   0  0  0  0  0  0  0  0  0  0  0  0
    5.6929    2.9637   -0.7122 H   0  0  0  0  0  0  0  0  0  0  0  0
    3.8340    1.8146    0.3696 H   0  0  0  0  0  0  0  0  0  0  0  0
    1.8626   -1.0162    3.0371 H   0  0  0  0  0  0  0  0  0  0  0  0
   -0.5276   -0.7221    2.4653 H   0  0  0  0  0  0  0  0  0  0  0  0
  1  2  1  0
  2  3  1  0
  2  4  1  0
  4  5  1  0
  5  6  2  0
  5  7  1  0
  7  8  1  0
  7  9  1  0
  7 10  1  0
 10 11  1  0
 11 12  2  0
 12 13  1  0
 13 14  2  0
 14 15  1  0
 15 16  2  0
 15 17  1  0
 17 18  2  0
 18 19  1  0
 19 20  2  0
 20 21  1  0
 20 22  1  0
 22 23  2  0
 14 24  1  0
 24 25  2  0
 25 11  1  0
 23 17  1  0
  1 26  1  0
  1 27  1  0
  1 28  1  0
  2 29  1  0
  3 30  1  0
  3 31  1  0
  3 32  1  0
  8 33  1  0
  8 34  1  0
  8 35  1  0
  9 36  1  0
  9 37  1  0
  9 38  1  0
 12 39  1  0
 13 40  1  0
 18 41  1  0
 19 42  1  0
 22 43  1  0
 23 44  1  0
 24 45  1  0
 25 46  1  0
M  END
$$$$
