
     RDKit          3D

 63 68  0  0  0  0  0  0  0  0999 V2000
    4.7177   -3.4464   -4.1763 N   0  0  0  0  0  0  0  0  0  0  0  0
    5.2294   -3.5617   -2.5331 S   0  0  0  0  0  6  0  0  0  0  0  0
    6.5949   -2.9351   -2.4394 O   0  0  0  0  0  0  0  0  0  0  0  0
    5.4030   -5.0222   -2.2238 O   0  0  0  0  0  0  0  0  0  0  0  0
    4.0963   -2.7927   -1.4484 C   0  0  0  0  0  0  0  0  0  0  0  0
    4.2378   -1.4648   -1.1291 C   0  0  0  0  0  0  0  0  0  0  0  0
    3.3628   -0.8261   -0.2782 C   0  0  0  0  0  0  0  0  0  0  0  0
    2.2786   -1.4888    0.3118 C   0  0  0  0  0  0  0  0  0  0  0  0
    1.4067   -0.7584    1.2533 C   0  0  0  0  0  0  0  0  0  0  0  0
    0.6264    0.3502    0.7345 C   0  0  0  0  0  0  0  0  0  0  0  0
   -0.5809    0.3034    0.0751 C   0  0  0  0  0  0  0  0  0  0  0  0
   -1.4341   -0.8303   -0.2686 C   0  0  0  0  0  0  0  0  0  0  0  0
   -0.9972   -1.8909   -1.0078 C   0  0  0  0  0  0  0  0  0  0  0  0
   -1.8267   -2.9742   -1.2967 C   0  0  0  0  0  0  0  0  0  0  0  0
   -3.1089   -2.9614   -0.8229 C   0  0  0  0  0  0  0  0  0  0  0  0
   -3.6115   -1.9194   -0.0716 C   0  0  0  0  0  0  0  0  0  0  0  0
   -4.9911   -1.9590    0.4048 C   0  0  0  0  0  0  0  0  0  0  0  0
   -5.3750   -1.3653    1.5903 C   0  0  0  0  0  0  0  0  0  0  0  0
   -6.6890   -1.4201    2.0107 C   0  0  0  0  0  0  0  0  0  0  0  0
   -7.6704   -2.0588    1.2826 C   0  0  0  0  0  0  0  0  0  0  0  0
   -7.3009   -2.6579    0.0937 C   0  0  0  0  0  0  0  0  0  0  0  0
   -5.9892   -2.6003   -0.3210 C   0  0  0  0  0  0  0  0  0  0  0  0
   -2.7594   -0.8814    0.1853 C   0  0  0  0  0  0  0  0  0  0  0  0
   -0.9819    1.5771   -0.2264 N   0  0  0  0  0  0  0  0  0  0  0  0
   -0.0605    2.3730    0.2264 N   0  0  0  0  0  0  0  0  0  0  0  0
   -0.0461    3.8327    0.1428 C   0  0  0  0  0  0  0  0  0  0  0  0
    0.7644    4.6736   -0.2379 N   0  0  0  0  0  0  0  0  0  0  0  0
    0.5980    5.9629   -0.2383 C   0  0  0  0  0  0  0  0  0  0  0  0
    1.6121    6.9566   -0.7116 C   0  0  0  0  0  0  0  0  0  0  0  0
    2.6931    6.5173   -1.1345 O   0  0  0  0  0  0  0  0  0  0  0  0
    1.3810    8.2999   -0.6891 O   0  0  0  0  0  0  0  0  0  0  0  0
   -0.6400    6.3985    0.2510 C   0  0  0  0  0  0  0  0  0  0  0  0
   -1.4228    4.8083    0.6608 S   0  0  0  0  0  0  0  0  0  0  0  0
    0.9616    1.6842    0.8302 C   0  0  0  0  0  0  0  0  0  0  0  0
    2.1101    2.3431    1.3999 C   0  0  0  0  0  0  0  0  0  0  0  0
    2.0924    2.8202    2.8415 C   0  0  0  0  0  0  0  0  0  0  0  0
    3.1302    1.9136    2.3120 C   0  0  0  0  0  0  0  0  0  0  0  0
    2.1615   -2.8214   -0.0270 C   0  0  0  0  0  0  0  0  0  0  0  0
    3.0351   -3.4659   -0.8787 C   0  0  0  0  0  0  0  0  0  0  0  0
    4.1381   -4.2645   -4.4654 H   0  0  0  0  0  0  0  0  0  0  0  0
    5.5123   -3.2660   -4.8259 H   0  0  0  0  0  0  0  0  0  0  0  0
    5.0623   -0.8936   -1.5580 H   0  0  0  0  0  0  0  0  0  0  0  0
    3.4625    0.2221   -0.0172 H   0  0  0  0  0  0  0  0  0  0  0  0
    0.5890   -1.5615    1.4924 H   0  0  0  0  0  0  0  0  0  0  0  0
    1.8165   -0.6621    2.2763 H   0  0  0  0  0  0  0  0  0  0  0  0
   -0.0160   -1.9146   -1.4108 H   0  0  0  0  0  0  0  0  0  0  0  0
   -1.4429   -3.7879   -1.8803 H   0  0  0  0  0  0  0  0  0  0  0  0
   -3.7745   -3.8003   -1.0387 H   0  0  0  0  0  0  0  0  0  0  0  0
   -4.6239   -0.8539    2.1874 H   0  0  0  0  0  0  0  0  0  0  0  0
   -6.9906   -0.9553    2.9399 H   0  0  0  0  0  0  0  0  0  0  0  0
   -8.7005   -2.0964    1.6213 H   0  0  0  0  0  0  0  0  0  0  0  0
   -8.0336   -3.1671   -0.5047 H   0  0  0  0  0  0  0  0  0  0  0  0
   -5.6643   -3.0621   -1.2541 H   0  0  0  0  0  0  0  0  0  0  0  0
   -3.1333   -0.0546    0.7726 H   0  0  0  0  0  0  0  0  0  0  0  0
    2.1096    9.0035   -0.6822 H   0  0  0  0  0  0  0  0  0  0  0  0
   -1.0857    7.4061    0.3820 H   0  0  0  0  0  0  0  0  0  0  0  0
    2.4685    3.2099    0.7245 H   0  0  0  0  0  0  0  0  0  0  0  0
    1.2285    2.4597    3.4299 H   0  0  0  0  0  0  0  0  0  0  0  0
    2.3501    3.8680    3.0918 H   0  0  0  0  0  0  0  0  0  0  0  0
    3.3185    0.9146    2.7308 H   0  0  0  0  0  0  0  0  0  0  0  0
    4.1583    2.4219    2.2508 H   0  0  0  0  0  0  0  0  0  0  0  0
    1.3191   -3.3746    0.4189 H   0  0  0  0  0  0  0  0  0  0  0  0
    2.9244   -4.5034   -1.1280 H   0  0  0  0  0  0  0  0  0  0  0  0
  1  2  1  0
  2  3  2  0
  2  4  2  0
  2  5  1  0
  5  6  2  0
  6  7  1  0
  7  8  2  0
  8  9  1  0
  9 10  1  0
 10 11  1  0
 11 12  1  0
 12 13  2  0
 13 14  1  0
 14 15  2  0
 15 16  1  0
 16 17  1  0
 17 18  2  0
 18 19  1  0
 19 20  2  0
 20 21  1  0
 21 22  2  0
 16 23  2  0
 11 24  2  0
 24 25  1  0
 25 26  1  0
 26 27  2  0
 27 28  1  0
 28 29  1  0
 29 30  2  0
 29 31  1  0
 28 32  2  0
 32 33  1  0
 25 34  1  0
 34 35  1  0
 35 36  1  0
 36 37  1  0
  8 38  1  0
 38 39  2  0
 39  5  1  0
 34 10  2  0
 37 35  1  0
 23 12  1  0
 33 26  1  0
 22 17  1  0
  1 40  1  0
  1 41  1  0
  6 42  1  0
  7 43  1  0
  9 44  1  0
  9 45  1  0
 13 46  1  0
 14 47  1  0
 15 48  1  0
 18 49  1  0
 19 50  1  0
 20 51  1  0
 21 52  1  0
 22 53  1  0
 23 54  1  0
 31 55  1  0
 32 56  1  0
 35 57  1  0
 36 58  1  0
 36 59  1  0
 37 60  1  0
 37 61  1  0
 38 62  1  0
 39 63  1  0
M  END
$$$$
