
     RDKit          3D

 56 58  0  0  0  0  0  0  0  0999 V2000
    0.5061    2.5625    1.8848 C   0  0  0  0  0  0  0  0  0  0  0  0
    0.2124    2.2949    0.4257 C   0  0  0  0  0  0  0  0  0  0  0  0
    0.1578    3.6705   -0.2346 C   0  0  0  0  0  0  0  0  0  0  0  0
   -0.9450    1.4879    0.2263 N   0  0  0  0  0  0  0  0  0  0  0  0
   -0.8935    0.1528    0.2424 C   0  0  0  0  0  0  0  0  0  0  0  0
    0.0728   -0.8702    0.5023 C   0  0  0  0  0  0  0  0  0  0  0  0
    1.3119   -0.8802    0.9309 C   0  0  0  0  0  0  0  0  0  0  0  0
    2.3167   -1.9366    1.1993 C   0  0  2  0  0  0  0  0  0  0  0  0
    2.9642   -1.8178    2.4021 O   0  0  0  0  0  0  0  0  0  0  0  0
    3.2504   -2.1508    0.0452 C   0  0  0  0  0  0  0  0  0  0  0  0
    3.9888   -0.9147   -0.3038 C   0  0  2  0  0  0  0  0  0  0  0  0
    4.8361   -1.1874   -1.3880 O   0  0  0  0  0  0  0  0  0  0  0  0
    4.7340   -0.3458    0.8508 C   0  0  0  0  0  0  0  0  0  0  0  0
    5.4797    0.8904    0.4249 C   0  0  0  0  0  0  0  0  0  0  0  0
    5.8924    1.8579   -0.4714 O   0  0  0  0  0  0  0  0  0  0  0  0
    6.1697    1.4829    1.3171 O   0  0  0  0  0  0  0  0  0  0  0  0
   -2.1882   -0.3354   -0.0177 C   0  0  0  0  0  0  0  0  0  0  0  0
   -2.7335   -1.7145   -0.1250 C   0  0  0  0  0  0  0  0  0  0  0  0
   -3.2338   -2.3925    0.9744 C   0  0  0  0  0  0  0  0  0  0  0  0
   -3.7312   -3.6739    0.8275 C   0  0  0  0  0  0  0  0  0  0  0  0
   -3.7090   -4.2372   -0.4325 C   0  0  0  0  0  0  0  0  0  0  0  0
   -4.2138   -5.5052   -0.5163 F   0  0  0  0  0  0  0  0  0  0  0  0
   -3.2141   -3.5760   -1.5397 C   0  0  0  0  0  0  0  0  0  0  0  0
   -2.7190   -2.2896   -1.3712 C   0  0  0  0  0  0  0  0  0  0  0  0
   -3.0102    0.7531   -0.1860 C   0  0  0  0  0  0  0  0  0  0  0  0
   -4.3660    0.8649   -0.4517 C   0  0  0  0  0  0  0  0  0  0  0  0
   -4.9735    2.0936   -0.5688 C   0  0  0  0  0  0  0  0  0  0  0  0
   -4.1831    3.2121   -0.4115 C   0  0  0  0  0  0  0  0  0  0  0  0
   -2.8585    3.0586   -0.1521 C   0  0  0  0  0  0  0  0  0  0  0  0
   -2.2033    1.8576   -0.0266 C   0  0  0  0  0  0  0  0  0  0  0  0
   -0.0010    3.4966    2.2464 H   0  0  0  0  0  0  0  0  0  0  0  0
    0.1071    1.7603    2.5515 H   0  0  0  0  0  0  0  0  0  0  0  0
    1.5804    2.7343    2.0845 H   0  0  0  0  0  0  0  0  0  0  0  0
    1.1321    1.8368   -0.0183 H   0  0  0  0  0  0  0  0  0  0  0  0
   -0.1342    4.4556    0.4747 H   0  0  0  0  0  0  0  0  0  0  0  0
    1.2201    3.9800   -0.5228 H   0  0  0  0  0  0  0  0  0  0  0  0
   -0.3544    3.6656   -1.2109 H   0  0  0  0  0  0  0  0  0  0  0  0
   -0.0833   -1.9547    0.3608 H   0  0  0  0  0  0  0  0  0  0  0  0
    1.7197    0.0668    1.1680 H   0  0  0  0  0  0  0  0  0  0  0  0
    1.7505   -2.9213    1.2815 H   0  0  0  0  0  0  0  0  0  0  0  0
    2.4177   -2.0845    3.1713 H   0  0  0  0  0  0  0  0  0  0  0  0
    3.9702   -2.9748    0.3431 H   0  0  0  0  0  0  0  0  0  0  0  0
    2.6562   -2.5428   -0.8303 H   0  0  0  0  0  0  0  0  0  0  0  0
    3.3021   -0.1126   -0.6942 H   0  0  0  0  0  0  0  0  0  0  0  0
    4.2156   -1.4813   -2.1218 H   0  0  0  0  0  0  0  0  0  0  0  0
    5.4687   -1.0619    1.2318 H   0  0  0  0  0  0  0  0  0  0  0  0
    4.0494   -0.0288    1.6896 H   0  0  0  0  0  0  0  0  0  0  0  0
    5.2090    2.4971   -0.8598 H   0  0  0  0  0  0  0  0  0  0  0  0
   -3.2163   -1.8797    1.9345 H   0  0  0  0  0  0  0  0  0  0  0  0
   -4.1239   -4.2077    1.6875 H   0  0  0  0  0  0  0  0  0  0  0  0
   -3.2479   -4.1207   -2.4839 H   0  0  0  0  0  0  0  0  0  0  0  0
   -2.3347   -1.7833   -2.2456 H   0  0  0  0  0  0  0  0  0  0  0  0
   -4.9763   -0.0163   -0.5726 H   0  0  0  0  0  0  0  0  0  0  0  0
   -6.0315    2.1310   -0.7765 H   0  0  0  0  0  0  0  0  0  0  0  0
   -4.6808    4.1586   -0.5071 H   0  0  0  0  0  0  0  0  0  0  0  0
   -2.3317    3.9761   -0.0360 H   0  0  0  0  0  0  0  0  0  0  0  0
  1  2  1  0
  2  3  1  0
  2  4  1  0
  4  5  1  0
  5  6  1  0
  6  7  2  0
  7  8  1  0
  8  9  1  0
  8 10  1  0
 10 11  1  0
 11 12  1  0
 11 13  1  0
 13 14  1  0
 14 15  1  0
 14 16  2  0
  5 17  2  0
 17 18  1  0
 18 19  2  0
 19 20  1  0
 20 21  2  0
 21 22  1  0
 21 23  1  0
 23 24  2  0
 17 25  1  0
 25 26  2  0
 26 27  1  0
 27 28  2  0
 28 29  1  0
 29 30  2  0
 30  4  1  0
 24 18  1  0
 30 25  1  0
  1 31  1  0
  1 32  1  0
  1 33  1  0
  2 34  1  0
  3 35  1  0
  3 36  1  0
  3 37  1  0
  6 38  1  0
  7 39  1  0
  8 40  1  1
  9 41  1  0
 10 42  1  0
 10 43  1  0
 11 44  1  6
 12 45  1  0
 13 46  1  0
 13 47  1  0
 15 48  1  0
 19 49  1  0
 20 50  1  0
 23 51  1  0
 24 52  1  0
 26 53  1  0
 27 54  1  0
 28 55  1  0
 29 56  1  0
M  END
$$$$
