
     RDKit          3D

 56 59  0  0  0  0  0  0  0  0999 V2000
   -4.7811    2.4954   -1.6539 C   0  0  0  0  0  0  0  0  0  0  0  0
   -4.7781    1.6546   -0.4507 C   0  0  0  0  0  0  0  0  0  0  0  0
   -5.7534    1.8506    0.5421 C   0  0  0  0  0  0  0  0  0  0  0  0
   -5.7098    1.0476    1.6754 C   0  0  0  0  0  0  0  0  0  0  0  0
   -4.7401    0.0836    1.8296 C   0  0  0  0  0  0  0  0  0  0  0  0
   -3.7888   -0.1026    0.8535 C   0  0  0  0  0  0  0  0  0  0  0  0
   -3.8083    0.6907   -0.2984 C   0  0  0  0  0  0  0  0  0  0  0  0
   -2.7987    0.4612   -1.3492 C   0  0  2  0  0  0  0  0  0  0  0  0
   -3.1154   -0.8018   -2.1630 C   0  0  0  0  0  0  0  0  0  0  0  0
   -4.4114   -0.7476   -2.8350 C   0  0  0  0  0  0  0  0  0  0  0  0
   -5.5094   -0.9553   -2.2616 O   0  0  0  0  0  0  0  0  0  0  0  0
   -4.4229   -0.4440   -4.2083 O   0  0  0  0  0  0  0  0  0  0  0  0
   -1.4835    0.2492   -0.7723 N   0  0  0  0  0  0  0  0  0  0  0  0
   -0.3531    1.0212   -1.1965 C   0  0  0  0  0  0  0  0  0  0  0  0
   -0.5342    1.8865   -2.0802 O   0  0  0  0  0  0  0  0  0  0  0  0
    0.9605    0.7788   -0.5952 C   0  0  0  0  0  0  0  0  0  0  0  0
    1.2652   -0.1226    0.4213 C   0  0  0  0  0  0  0  0  0  0  0  0
    2.6066   -0.0335    0.6724 C   0  0  0  0  0  0  0  0  0  0  0  0
    3.3085   -0.7557    1.6033 O   0  0  0  0  0  0  0  0  0  0  0  0
    2.7649   -1.7086    2.4418 C   0  0  0  0  0  0  0  0  0  0  0  0
    2.1557   -2.9076    1.7498 C   0  0  0  0  0  0  0  0  0  0  0  0
    1.5504   -3.9592    2.6975 C   0  0  0  0  0  0  0  0  0  0  0  0
    2.8749   -4.1869    2.0009 C   0  0  0  0  0  0  0  0  0  0  0  0
    3.1146    0.9036   -0.1723 N   0  0  0  0  0  0  0  0  0  0  0  0
    4.4906    1.2616   -0.1935 C   0  0  0  0  0  0  0  0  0  0  0  0
    5.0176    2.1869    0.6786 C   0  0  0  0  0  0  0  0  0  0  0  0
    6.3769    2.5202    0.6354 C   0  0  0  0  0  0  0  0  0  0  0  0
    7.2000    1.9242   -0.2818 C   0  0  0  0  0  0  0  0  0  0  0  0
    6.6652    1.0023   -1.1481 C   0  0  0  0  0  0  0  0  0  0  0  0
    5.3261    0.6683   -1.1115 C   0  0  0  0  0  0  0  0  0  0  0  0
    4.8456   -0.2491   -1.9889 F   0  0  0  0  0  0  0  0  0  0  0  0
    2.1234    1.3687   -0.9104 N   0  0  0  0  0  0  0  0  0  0  0  0
   -3.7968    3.0149   -1.8211 H   0  0  0  0  0  0  0  0  0  0  0  0
   -5.4923    3.3613   -1.4705 H   0  0  0  0  0  0  0  0  0  0  0  0
   -5.1130    2.0160   -2.5773 H   0  0  0  0  0  0  0  0  0  0  0  0
   -6.5105    2.6178    0.3988 H   0  0  0  0  0  0  0  0  0  0  0  0
   -6.4382    1.1632    2.4605 H   0  0  0  0  0  0  0  0  0  0  0  0
   -4.7462   -0.5126    2.7220 H   0  0  0  0  0  0  0  0  0  0  0  0
   -3.0123   -0.8642    0.9586 H   0  0  0  0  0  0  0  0  0  0  0  0
   -2.7710    1.2904   -2.0863 H   0  0  0  0  0  0  0  0  0  0  0  0
   -3.0643   -1.6673   -1.4461 H   0  0  0  0  0  0  0  0  0  0  0  0
   -2.2921   -0.9694   -2.8912 H   0  0  0  0  0  0  0  0  0  0  0  0
   -5.2688   -0.5660   -4.7449 H   0  0  0  0  0  0  0  0  0  0  0  0
   -1.3104   -0.4670   -0.0369 H   0  0  0  0  0  0  0  0  0  0  0  0
    0.4913   -0.7263    0.8609 H   0  0  0  0  0  0  0  0  0  0  0  0
    1.9589   -1.2479    3.0943 H   0  0  0  0  0  0  0  0  0  0  0  0
    3.5575   -2.0329    3.1470 H   0  0  0  0  0  0  0  0  0  0  0  0
    1.6766   -2.7412    0.7726 H   0  0  0  0  0  0  0  0  0  0  0  0
    1.5287   -3.7171    3.7691 H   0  0  0  0  0  0  0  0  0  0  0  0
    0.6469   -4.4854    2.2699 H   0  0  0  0  0  0  0  0  0  0  0  0
    3.7767   -4.1853    2.6370 H   0  0  0  0  0  0  0  0  0  0  0  0
    2.8560   -5.0121    1.2647 H   0  0  0  0  0  0  0  0  0  0  0  0
    4.3881    2.6646    1.4037 H   0  0  0  0  0  0  0  0  0  0  0  0
    6.7188    3.2646    1.3612 H   0  0  0  0  0  0  0  0  0  0  0  0
    8.2377    2.1749   -0.3190 H   0  0  0  0  0  0  0  0  0  0  0  0
    7.3202    0.5466   -1.8578 H   0  0  0  0  0  0  0  0  0  0  0  0
  1  2  1  0
  2  3  2  0
  3  4  1  0
  4  5  2  0
  5  6  1  0
  6  7  2  0
  7  8  1  0
  8  9  1  0
  9 10  1  0
 10 11  2  0
 10 12  1  0
  8 13  1  0
 13 14  1  0
 14 15  2  0
 14 16  1  0
 16 17  1  0
 17 18  2  0
 18 19  1  0
 19 20  1  0
 20 21  1  0
 21 22  1  0
 22 23  1  0
 18 24  1  0
 24 25  1  0
 25 26  2  0
 26 27  1  0
 27 28  2  0
 28 29  1  0
 29 30  2  0
 30 31  1  0
 24 32  1  0
  7  2  1  0
 32 16  2  0
 23 21  1  0
 30 25  1  0
  1 33  1  0
  1 34  1  0
  1 35  1  0
  3 36  1  0
  4 37  1  0
  5 38  1  0
  6 39  1  0
  8 40  1  6
  9 41  1  0
  9 42  1  0
 12 43  1  0
 13 44  1  0
 17 45  1  0
 20 46  1  0
 20 47  1  0
 21 48  1  0
 22 49  1  0
 22 50  1  0
 23 51  1  0
 23 52  1  0
 26 53  1  0
 27 54  1  0
 28 55  1  0
 29 56  1  0
M  END
$$$$
