
     RDKit          3D

 18 18  0  0  0  0  0  0  0  0999 V2000
    2.4875    1.2101    0.6267 N   0  0  0  0  0  0  0  0  0  0  0  0
    2.0520    0.0646   -0.0949 C   0  0  0  0  0  0  0  0  0  0  0  0
    2.9168   -0.6419   -0.6674 O   0  0  0  0  0  0  0  0  0  0  0  0
    0.6572   -0.3032   -0.1857 C   0  0  0  0  0  0  0  0  0  0  0  0
    0.3025   -1.4262   -0.9011 C   0  0  0  0  0  0  0  0  0  0  0  0
   -1.0397   -1.8009   -1.0024 C   0  0  0  0  0  0  0  0  0  0  0  0
   -2.0504   -1.0822   -0.4054 C   0  0  0  0  0  0  0  0  0  0  0  0
   -1.6664    0.0519    0.3142 C   0  0  0  0  0  0  0  0  0  0  0  0
   -2.7317    0.7471    0.9015 O   0  0  0  0  0  0  0  0  0  0  0  0
   -0.3415    0.4239    0.4156 C   0  0  0  0  0  0  0  0  0  0  0  0
   -0.0400    1.5637    1.1484 O   0  0  0  0  0  0  0  0  0  0  0  0
    2.3931    2.2456    0.7213 H   0  0  0  0  0  0  0  0  0  0  0  0
    3.1871    0.9181    1.3691 H   0  0  0  0  0  0  0  0  0  0  0  0
    1.0873   -2.0008   -1.3758 H   0  0  0  0  0  0  0  0  0  0  0  0
   -1.2954   -2.6992   -1.5779 H   0  0  0  0  0  0  0  0  0  0  0  0
   -3.0649   -1.4338   -0.5280 H   0  0  0  0  0  0  0  0  0  0  0  0
   -2.8567    1.7135    0.5998 H   0  0  0  0  0  0  0  0  0  0  0  0
    0.0031    2.4499    0.6420 H   0  0  0  0  0  0  0  0  0  0  0  0
  1  2  1  0
  2  3  2  0
  2  4  1  0
  4  5  2  0
  5  6  1  0
  6  7  2  0
  7  8  1  0
  8  9  1  0
  8 10  2  0
 10 11  1  0
 10  4  1  0
  1 12  1  0
  1 13  1  0
  5 14  1  0
  6 15  1  0
  7 16  1  0
  9 17  1  0
 11 18  1  0
M  END
$$$$
