
     RDKit          3D

 62 67  0  0  0  0  0  0  0  0999 V2000
    6.2133   -0.2652   -2.7887 C   0  0  0  0  0  0  0  0  0  0  0  0
    6.8080   -1.3385   -1.5054 S   0  0  0  0  0  6  0  0  0  0  0  0
    6.7641   -2.7525   -2.0199 O   0  0  0  0  0  0  0  0  0  0  0  0
    8.2437   -0.9901   -1.2450 O   0  0  0  0  0  0  0  0  0  0  0  0
    5.8999   -1.2338   -0.0786 N   0  0  0  0  0  0  0  0  0  0  0  0
    4.5320   -1.5994   -0.1987 C   0  0  0  0  0  0  0  0  0  0  0  0
    3.7254   -0.2990   -0.2817 C   0  0  0  0  0  0  0  0  0  0  0  0
    3.8165    0.3373    0.9817 N   0  0  0  0  0  0  0  0  0  0  0  0
    2.8988   -0.1461    1.9536 C   0  0  0  0  0  0  0  0  0  0  0  0
    1.4746    0.0524    1.5212 C   0  0  0  0  0  0  0  0  0  0  0  0
    0.5957    1.0719    1.6639 C   0  0  0  0  0  0  0  0  0  0  0  0
   -0.6391    0.9023    1.1476 C   0  0  0  0  0  0  0  0  0  0  0  0
   -1.6567    1.8283    1.1997 N   0  0  0  0  0  0  0  0  0  0  0  0
   -2.8514    1.5730    0.6598 C   0  0  0  0  0  0  0  0  0  0  0  0
   -3.8729    2.6392    0.7741 C   0  0  0  0  0  0  0  0  0  0  0  0
   -3.5937    3.8298    1.4070 C   0  0  0  0  0  0  0  0  0  0  0  0
   -4.5095    4.8508    1.5389 C   0  0  0  0  0  0  0  0  0  0  0  0
   -5.7673    4.6427    0.9983 C   0  0  0  0  0  0  0  0  0  0  0  0
   -6.0968    3.4739    0.3572 C   0  0  0  0  0  0  0  0  0  0  0  0
   -7.2083    3.0147   -0.2439 N   0  0  0  0  0  0  0  0  0  0  0  0
   -7.0042    1.8162   -0.7084 N   0  0  0  0  0  0  0  0  0  0  0  0
   -5.7322    1.4559   -0.4175 C   0  0  0  0  0  0  0  0  0  0  0  0
   -5.1202    2.4772    0.2579 C   0  0  0  0  0  0  0  0  0  0  0  0
   -3.1801    0.4332    0.0323 N   0  0  0  0  0  0  0  0  0  0  0  0
   -2.2154   -0.4977   -0.0408 C   0  0  0  0  0  0  0  0  0  0  0  0
   -2.3789   -1.7599   -0.6655 N   0  0  0  0  0  0  0  0  0  0  0  0
   -2.2317   -3.0404   -0.0099 C   0  0  0  0  0  0  0  0  0  0  0  0
   -3.5376   -3.7872   -0.1853 C   0  0  0  0  0  0  0  0  0  0  0  0
   -4.0739   -3.6673   -1.4425 O   0  0  0  0  0  0  0  0  0  0  0  0
   -3.1745   -3.2103   -2.4004 C   0  0  0  0  0  0  0  0  0  0  0  0
   -2.7205   -1.7827   -2.0718 C   0  0  0  0  0  0  0  0  0  0  0  0
   -0.9502   -0.2477    0.5219 C   0  0  0  0  0  0  0  0  0  0  0  0
    0.4964   -1.1967    0.6132 S   0  0  0  0  0  0  0  0  0  0  0  0
    5.1276    0.5151    1.4961 C   0  0  0  0  0  0  0  0  0  0  0  0
    6.2229   -0.1729    0.7925 C   0  0  0  0  0  0  0  0  0  0  0  0
    5.2631   -0.6356   -3.2180 H   0  0  0  0  0  0  0  0  0  0  0  0
    6.9407   -0.2194   -3.6234 H   0  0  0  0  0  0  0  0  0  0  0  0
    6.0840    0.7754   -2.4336 H   0  0  0  0  0  0  0  0  0  0  0  0
    4.2291   -2.1861    0.6772 H   0  0  0  0  0  0  0  0  0  0  0  0
    4.3881   -2.1608   -1.1421 H   0  0  0  0  0  0  0  0  0  0  0  0
    4.1353    0.2993   -1.1205 H   0  0  0  0  0  0  0  0  0  0  0  0
    2.6882   -0.5917   -0.4890 H   0  0  0  0  0  0  0  0  0  0  0  0
    3.0940    0.4129    2.8967 H   0  0  0  0  0  0  0  0  0  0  0  0
    3.1104   -1.2355    2.0867 H   0  0  0  0  0  0  0  0  0  0  0  0
    0.9586    1.9934    2.2059 H   0  0  0  0  0  0  0  0  0  0  0  0
   -2.6108    3.9827    1.8250 H   0  0  0  0  0  0  0  0  0  0  0  0
   -4.2952    5.7835    2.0332 H   0  0  0  0  0  0  0  0  0  0  0  0
   -6.5341    5.4096    1.0694 H   0  0  0  0  0  0  0  0  0  0  0  0
   -8.0866    3.6077   -0.2905 H   0  0  0  0  0  0  0  0  0  0  0  0
   -5.3563    0.4949   -0.7145 H   0  0  0  0  0  0  0  0  0  0  0  0
   -2.0601   -2.9478    1.0785 H   0  0  0  0  0  0  0  0  0  0  0  0
   -1.3774   -3.5633   -0.4799 H   0  0  0  0  0  0  0  0  0  0  0  0
   -3.3258   -4.8541    0.1017 H   0  0  0  0  0  0  0  0  0  0  0  0
   -4.2233   -3.3821    0.6115 H   0  0  0  0  0  0  0  0  0  0  0  0
   -2.3005   -3.8845   -2.4595 H   0  0  0  0  0  0  0  0  0  0  0  0
   -3.7157   -3.1897   -3.3671 H   0  0  0  0  0  0  0  0  0  0  0  0
   -3.6287   -1.1530   -2.1981 H   0  0  0  0  0  0  0  0  0  0  0  0
   -1.8979   -1.5250   -2.7353 H   0  0  0  0  0  0  0  0  0  0  0  0
    5.3050    1.6282    1.5858 H   0  0  0  0  0  0  0  0  0  0  0  0
    5.1200    0.1660    2.5695 H   0  0  0  0  0  0  0  0  0  0  0  0
    6.7881    0.6019    0.1938 H   0  0  0  0  0  0  0  0  0  0  0  0
    7.0042   -0.5532    1.5154 H   0  0  0  0  0  0  0  0  0  0  0  0
  1  2  1  0
  2  3  2  0
  2  4  2  0
  2  5  1  0
  5  6  1  0
  6  7  1  0
  7  8  1  0
  8  9  1  0
  9 10  1  0
 10 11  2  0
 11 12  1  0
 12 13  2  0
 13 14  1  0
 14 15  1  0
 15 16  2  0
 16 17  1  0
 17 18  2  0
 18 19  1  0
 19 20  1  0
 20 21  1  0
 21 22  2  0
 22 23  1  0
 14 24  2  0
 24 25  1  0
 25 26  1  0
 26 27  1  0
 27 28  1  0
 28 29  1  0
 29 30  1  0
 30 31  1  0
 25 32  2  0
 32 33  1  0
  8 34  1  0
 34 35  1  0
 35  5  1  0
 33 10  1  0
 32 12  1  0
 23 15  1  0
 31 26  1  0
 23 19  2  0
  1 36  1  0
  1 37  1  0
  1 38  1  0
  6 39  1  0
  6 40  1  0
  7 41  1  0
  7 42  1  0
  9 43  1  0
  9 44  1  0
 11 45  1  0
 16 46  1  0
 17 47  1  0
 18 48  1  0
 20 49  1  0
 22 50  1  0
 27 51  1  0
 27 52  1  0
 28 53  1  0
 28 54  1  0
 30 55  1  0
 30 56  1  0
 31 57  1  0
 31 58  1  0
 34 59  1  0
 34 60  1  0
 35 61  1  0
 35 62  1  0
M  END
$$$$
