
     RDKit          3D

 25 25  0  0  0  0  0  0  0  0999 V2000
    3.5144    1.4064   -0.2949 N   0  0  0  0  0  0  0  0  0  0  0  0
    2.1105    1.1985   -0.5218 C   0  0  0  0  0  0  0  0  0  0  0  0
    1.6301   -0.0419    0.1505 C   0  0  0  0  0  0  0  0  0  0  0  0
    2.4677   -0.7134    0.7963 O   0  0  0  0  0  0  0  0  0  0  0  0
    0.2778   -0.4631    0.0737 N   0  0  0  0  0  0  0  0  0  0  0  0
   -0.2196   -1.6677    0.7187 C   0  0  0  0  0  0  0  0  0  0  0  0
   -1.4609   -2.0426   -0.0373 C   0  0  0  0  0  0  0  0  0  0  0  0
   -1.7282   -0.9382   -1.0065 C   0  0  0  0  0  0  0  0  0  0  0  0
   -0.8218    0.1852   -0.6244 C   0  0  1  0  0  0  0  0  0  0  0  0
   -1.5804    1.2242    0.2866 B   0  0  0  0  0  0  0  0  0  0  0  0
   -2.6279    0.7249    1.1723 O   0  0  0  0  0  0  0  0  0  0  0  0
   -1.3074    2.6314    0.1203 O   0  0  0  0  0  0  0  0  0  0  0  0
    3.7363    1.4293    0.7238 H   0  0  0  0  0  0  0  0  0  0  0  0
    4.1284    0.7171   -0.7368 H   0  0  0  0  0  0  0  0  0  0  0  0
    1.5671    2.0706   -0.1016 H   0  0  0  0  0  0  0  0  0  0  0  0
    1.9553    1.1267   -1.6186 H   0  0  0  0  0  0  0  0  0  0  0  0
    0.5359   -2.4913    0.6556 H   0  0  0  0  0  0  0  0  0  0  0  0
   -0.4727   -1.4758    1.8016 H   0  0  0  0  0  0  0  0  0  0  0  0
   -2.3104   -2.2258    0.6731 H   0  0  0  0  0  0  0  0  0  0  0  0
   -1.2701   -2.9787   -0.6029 H   0  0  0  0  0  0  0  0  0  0  0  0
   -2.7942   -0.6377   -0.9404 H   0  0  0  0  0  0  0  0  0  0  0  0
   -1.5338   -1.2043   -2.0630 H   0  0  0  0  0  0  0  0  0  0  0  0
   -0.3878    0.6657   -1.5231 H   0  0  0  0  0  0  0  0  0  0  0  0
   -2.1671    0.4218    2.0149 H   0  0  0  0  0  0  0  0  0  0  0  0
   -1.2415    3.0787    0.9974 H   0  0  0  0  0  0  0  0  0  0  0  0
  1  2  1  0
  2  3  1  0
  3  4  2  0
  3  5  1  0
  5  6  1  0
  6  7  1  0
  7  8  1  0
  8  9  1  0
  9 10  1  0
 10 11  1  0
 10 12  1  0
  9  5  1  0
  1 13  1  0
  1 14  1  0
  2 15  1  0
  2 16  1  0
  6 17  1  0
  6 18  1  0
  7 19  1  0
  7 20  1  0
  8 21  1  0
  8 22  1  0
  9 23  1  6
 11 24  1  0
 12 25  1  0
M  END
$$$$
