
     RDKit          3D

 42 44  0  0  0  0  0  0  0  0999 V2000
    6.0308    3.0547   -0.1141 C   0  0  0  0  0  0  0  0  0  0  0  0
    5.7595    1.7471   -0.5727 O   0  0  0  0  0  0  0  0  0  0  0  0
    4.6271    1.1059   -0.0798 C   0  0  0  0  0  0  0  0  0  0  0  0
    3.8115    1.7493    0.8274 C   0  0  0  0  0  0  0  0  0  0  0  0
    2.7024    1.0757    1.2870 C   0  0  0  0  0  0  0  0  0  0  0  0
    2.3667   -0.2013    0.8897 C   0  0  0  0  0  0  0  0  0  0  0  0
    1.3615   -1.0511    1.1867 N   0  0  0  0  0  0  0  0  0  0  0  0
    1.5457   -2.2044    0.4781 C   0  0  0  0  0  0  0  0  0  0  0  0
    0.5210   -3.6674    0.4837 S   0  0  0  0  0  0  0  0  0  0  0  0
   -0.7488   -3.5109   -0.8022 C   0  0  0  0  0  0  0  0  0  0  0  0
   -1.7016   -2.4219   -0.4976 C   0  0  0  0  0  0  0  0  0  0  0  0
   -2.8574   -2.6420    0.2371 C   0  0  0  0  0  0  0  0  0  0  0  0
   -3.6870   -1.5781    0.4759 C   0  0  0  0  0  0  0  0  0  0  0  0
   -3.3924   -0.3167    0.0039 C   0  0  0  0  0  0  0  0  0  0  0  0
   -4.3441    0.7852    0.3067 C   0  0  0  0  0  0  0  0  0  0  0  0
   -4.8415    1.4634   -0.9402 C   0  0  0  0  0  0  0  0  0  0  0  0
   -3.6403    1.8311    1.1764 C   0  0  0  0  0  0  0  0  0  0  0  0
   -2.2367   -0.0835   -0.7340 C   0  0  0  0  0  0  0  0  0  0  0  0
   -1.4117   -1.1569   -0.9677 C   0  0  0  0  0  0  0  0  0  0  0  0
    2.6643   -2.0463   -0.2461 N   0  0  0  0  0  0  0  0  0  0  0  0
    3.2041   -0.8155   -0.0185 C   0  0  0  0  0  0  0  0  0  0  0  0
    4.3252   -0.1903   -0.5109 C   0  0  0  0  0  0  0  0  0  0  0  0
    6.9492    3.4423   -0.5556 H   0  0  0  0  0  0  0  0  0  0  0  0
    6.1114    2.9815    1.0004 H   0  0  0  0  0  0  0  0  0  0  0  0
    5.1467    3.6776   -0.3700 H   0  0  0  0  0  0  0  0  0  0  0  0
    4.0367    2.7653    1.1736 H   0  0  0  0  0  0  0  0  0  0  0  0
    2.0438    1.5559    1.9998 H   0  0  0  0  0  0  0  0  0  0  0  0
   -1.3186   -4.4539   -0.9229 H   0  0  0  0  0  0  0  0  0  0  0  0
   -0.3015   -3.2973   -1.7951 H   0  0  0  0  0  0  0  0  0  0  0  0
   -3.0428   -3.6519    0.5853 H   0  0  0  0  0  0  0  0  0  0  0  0
   -4.6027   -1.7607    1.0603 H   0  0  0  0  0  0  0  0  0  0  0  0
   -5.1823    0.3768    0.8796 H   0  0  0  0  0  0  0  0  0  0  0  0
   -4.7519    2.5689   -0.8442 H   0  0  0  0  0  0  0  0  0  0  0  0
   -5.9157    1.2363   -1.0629 H   0  0  0  0  0  0  0  0  0  0  0  0
   -4.3347    1.0630   -1.8397 H   0  0  0  0  0  0  0  0  0  0  0  0
   -4.4383    2.5177    1.5189 H   0  0  0  0  0  0  0  0  0  0  0  0
   -2.8501    2.3396    0.5895 H   0  0  0  0  0  0  0  0  0  0  0  0
   -3.1483    1.2856    2.0161 H   0  0  0  0  0  0  0  0  0  0  0  0
   -1.9949    0.8857   -1.1059 H   0  0  0  0  0  0  0  0  0  0  0  0
   -0.4910   -1.0044   -1.5480 H   0  0  0  0  0  0  0  0  0  0  0  0
    3.0754   -2.7518   -0.8940 H   0  0  0  0  0  0  0  0  0  0  0  0
    4.9513   -0.7018   -1.2157 H   0  0  0  0  0  0  0  0  0  0  0  0
  1  2  1  0
  2  3  1  0
  3  4  2  0
  4  5  1  0
  5  6  2  0
  6  7  1  0
  7  8  2  0
  8  9  1  0
  9 10  1  0
 10 11  1  0
 11 12  2  0
 12 13  1  0
 13 14  2  0
 14 15  1  0
 15 16  1  0
 15 17  1  0
 14 18  1  0
 18 19  2  0
  8 20  1  0
 20 21  1  0
 21 22  2  0
 22  3  1  0
 21  6  1  0
 19 11  1  0
  1 23  1  0
  1 24  1  0
  1 25  1  0
  4 26  1  0
  5 27  1  0
 10 28  1  0
 10 29  1  0
 12 30  1  0
 13 31  1  0
 15 32  1  0
 16 33  1  0
 16 34  1  0
 16 35  1  0
 17 36  1  0
 17 37  1  0
 17 38  1  0
 18 39  1  0
 19 40  1  0
 20 41  1  0
 22 42  1  0
M  END
$$$$
