
     RDKit          3D

 44 45  0  0  0  0  0  0  0  0999 V2000
   -3.5817    0.1499    2.8197 C   0  0  0  0  0  0  0  0  0  0  0  0
   -3.1954    0.7389    1.6092 O   0  0  0  0  0  0  0  0  0  0  0  0
   -3.5100    0.2073    0.3603 C   0  0  0  0  0  0  0  0  0  0  0  0
   -4.2407   -0.9625    0.2585 C   0  0  0  0  0  0  0  0  0  0  0  0
   -4.5371   -1.4652   -0.9977 C   0  0  0  0  0  0  0  0  0  0  0  0
   -4.1114   -0.8121   -2.1457 C   0  0  0  0  0  0  0  0  0  0  0  0
   -4.4115   -1.3191   -3.3576 F   0  0  0  0  0  0  0  0  0  0  0  0
   -3.3865    0.3489   -2.0154 C   0  0  0  0  0  0  0  0  0  0  0  0
   -3.0902    0.8515   -0.7630 C   0  0  0  0  0  0  0  0  0  0  0  0
   -2.3076    2.1058   -0.6206 C   0  0  0  0  0  0  0  0  0  0  0  0
   -0.8904    1.8225   -0.2130 C   0  0  0  0  0  0  0  0  0  0  0  0
   -0.1634    0.9617   -1.2151 C   0  0  0  0  0  0  0  0  0  0  0  0
    1.2337    0.7341   -0.7281 C   0  0  0  0  0  0  0  0  0  0  0  0
    2.0064   -0.1394   -1.7224 C   0  0  0  0  0  0  0  0  0  0  0  0
    3.2354   -0.4214   -0.8450 C   0  0  0  0  0  0  0  0  0  0  0  0
    2.5476   -0.6069    0.4906 C   0  0  0  0  0  0  0  0  0  0  0  0
    3.4306   -0.0736    1.5833 C   0  0  0  0  0  0  0  0  0  0  0  0
    4.7603   -0.7770    1.6454 C   0  0  0  0  0  0  0  0  0  0  0  0
    5.5313   -0.6690    0.4475 N   0  0  0  0  0  0  0  0  0  0  0  0
    1.3311    0.0076    0.4240 O   0  0  0  0  0  0  0  0  0  0  0  0
   -3.4863    0.9199    3.6174 H   0  0  0  0  0  0  0  0  0  0  0  0
   -4.6008   -0.2684    2.8015 H   0  0  0  0  0  0  0  0  0  0  0  0
   -2.8897   -0.7049    3.0103 H   0  0  0  0  0  0  0  0  0  0  0  0
   -4.5792   -1.4827    1.1501 H   0  0  0  0  0  0  0  0  0  0  0  0
   -5.1035   -2.3708   -1.0538 H   0  0  0  0  0  0  0  0  0  0  0  0
   -3.0596    0.8493   -2.9204 H   0  0  0  0  0  0  0  0  0  0  0  0
   -2.3926    2.7700   -1.4896 H   0  0  0  0  0  0  0  0  0  0  0  0
   -2.7758    2.6641    0.2383 H   0  0  0  0  0  0  0  0  0  0  0  0
   -0.9435    1.2383    0.7407 H   0  0  0  0  0  0  0  0  0  0  0  0
   -0.3521    2.7635   -0.0587 H   0  0  0  0  0  0  0  0  0  0  0  0
   -0.1130    1.5293   -2.1649 H   0  0  0  0  0  0  0  0  0  0  0  0
   -0.6912   -0.0028   -1.3627 H   0  0  0  0  0  0  0  0  0  0  0  0
    1.7816    1.7018   -0.6956 H   0  0  0  0  0  0  0  0  0  0  0  0
    1.5145   -1.1173   -1.8650 H   0  0  0  0  0  0  0  0  0  0  0  0
    2.2622    0.3909   -2.6370 H   0  0  0  0  0  0  0  0  0  0  0  0
    3.8490    0.5080   -0.7458 H   0  0  0  0  0  0  0  0  0  0  0  0
    3.7945   -1.2914   -1.1804 H   0  0  0  0  0  0  0  0  0  0  0  0
    2.3940   -1.7139    0.6639 H   0  0  0  0  0  0  0  0  0  0  0  0
    2.9367   -0.1097    2.5752 H   0  0  0  0  0  0  0  0  0  0  0  0
    3.6203    1.0104    1.3805 H   0  0  0  0  0  0  0  0  0  0  0  0
    5.3453   -0.2581    2.4577 H   0  0  0  0  0  0  0  0  0  0  0  0
    4.6543   -1.8471    1.8932 H   0  0  0  0  0  0  0  0  0  0  0  0
    6.1232   -1.5096    0.2569 H   0  0  0  0  0  0  0  0  0  0  0  0
    6.0615    0.2261    0.3734 H   0  0  0  0  0  0  0  0  0  0  0  0
  1  2  1  0
  2  3  1  0
  3  4  2  0
  4  5  1  0
  5  6  2  0
  6  7  1  0
  6  8  1  0
  8  9  2  0
  9 10  1  0
 10 11  1  0
 11 12  1  0
 12 13  1  0
 13 14  1  0
 14 15  1  0
 15 16  1  0
 16 17  1  0
 17 18  1  0
 18 19  1  0
 16 20  1  0
  9  3  1  0
 20 13  1  0
  1 21  1  0
  1 22  1  0
  1 23  1  0
  4 24  1  0
  5 25  1  0
  8 26  1  0
 10 27  1  0
 10 28  1  0
 11 29  1  0
 11 30  1  0
 12 31  1  0
 12 32  1  0
 13 33  1  0
 14 34  1  0
 14 35  1  0
 15 36  1  0
 15 37  1  0
 16 38  1  0
 17 39  1  0
 17 40  1  0
 18 41  1  0
 18 42  1  0
 19 43  1  0
 19 44  1  0
M  END
$$$$
