
     RDKit          3D

 67 69  0  0  0  0  0  0  0  0999 V2000
   -4.4788   -5.1047   -2.4719 C   0  0  0  0  0  0  0  0  0  0  0  0
   -3.3669   -4.9021   -3.1303 C   0  0  0  0  0  0  0  0  0  0  0  0
   -3.0579   -5.6838   -4.3354 C   0  0  0  0  0  0  0  0  0  0  0  0
   -2.4148   -3.8941   -2.6835 C   0  0  0  0  0  0  0  0  0  0  0  0
   -1.2242   -3.6784   -3.3825 C   0  0  0  0  0  0  0  0  0  0  0  0
   -0.2966   -2.7372   -3.0030 C   0  0  0  0  0  0  0  0  0  0  0  0
   -0.5295   -1.9563   -1.8821 C   0  0  0  0  0  0  0  0  0  0  0  0
    0.3974   -0.9470   -1.3917 C   0  0  0  0  0  0  0  0  0  0  0  0
    0.2886    0.3977   -1.7255 C   0  0  0  0  0  0  0  0  0  0  0  0
    1.1823    1.2983   -1.2088 C   0  0  0  0  0  0  0  0  0  0  0  0
    2.2140    0.9201   -0.3488 C   0  0  0  0  0  0  0  0  0  0  0  0
    3.1303    1.8992    0.1945 C   0  0  0  0  0  0  0  0  0  0  0  0
    2.8733    3.1188   -0.0149 O   0  0  0  0  0  0  0  0  0  0  0  0
    4.2664    1.5080    0.9280 N   0  0  0  0  0  0  0  0  0  0  0  0
    5.1861    2.4901    1.4749 C   0  0  0  0  0  0  0  0  0  0  0  0
    5.8241    3.3634    0.4150 C   0  0  0  0  0  0  0  0  0  0  0  0
    6.6116    2.5433   -0.5719 C   0  0  0  0  0  0  0  0  0  0  0  0
    6.7370    4.3858    1.0717 C   0  0  0  0  0  0  0  0  0  0  0  0
    2.2972   -0.4162   -0.0369 C   0  0  0  0  0  0  0  0  0  0  0  0
    1.4043   -1.3511   -0.5463 C   0  0  0  0  0  0  0  0  0  0  0  0
    1.5801   -2.7381   -0.1566 C   0  0  0  0  0  0  0  0  0  0  0  0
    2.5282   -3.0743    0.6310 O   0  0  0  0  0  0  0  0  0  0  0  0
    0.7645   -3.7771   -0.5896 O   0  0  0  0  0  0  0  0  0  0  0  0
   -1.6959   -2.1439   -1.1694 C   0  0  0  0  0  0  0  0  0  0  0  0
   -1.9297   -1.2975   -0.0095 C   0  0  0  0  0  0  0  0  0  0  0  0
   -1.2741   -1.3846    1.0544 O   0  0  0  0  0  0  0  0  0  0  0  0
   -2.9723   -0.2994   -0.0865 N   0  0  0  0  0  0  0  0  0  0  0  0
   -3.2721    0.5794    0.9772 C   0  0  0  0  0  0  0  0  0  0  0  0
   -2.6134    1.7942    1.0576 C   0  0  0  0  0  0  0  0  0  0  0  0
   -2.8668    2.6903    2.0677 C   0  0  0  0  0  0  0  0  0  0  0  0
   -3.7994    2.3828    3.0323 C   0  0  0  0  0  0  0  0  0  0  0  0
   -4.0436    3.3672    4.0929 C   0  0  0  0  0  0  0  0  0  0  0  0
   -3.8728    4.6244    3.8479 N   0  0  0  0  0  0  0  0  0  0  0  0
   -4.4650    2.9639    5.3824 N   0  0  0  0  0  0  0  0  0  0  0  0
   -4.4723    1.1769    2.9769 C   0  0  0  0  0  0  0  0  0  0  0  0
   -4.2000    0.2785    1.9410 C   0  0  0  0  0  0  0  0  0  0  0  0
   -2.6114   -3.0932   -1.5680 C   0  0  0  0  0  0  0  0  0  0  0  0
   -4.8167   -4.6080   -1.5906 H   0  0  0  0  0  0  0  0  0  0  0  0
   -5.1648   -5.8775   -2.8587 H   0  0  0  0  0  0  0  0  0  0  0  0
   -3.1641   -5.0414   -5.2550 H   0  0  0  0  0  0  0  0  0  0  0  0
   -2.0245   -6.0924   -4.3683 H   0  0  0  0  0  0  0  0  0  0  0  0
   -3.7330   -6.5634   -4.4530 H   0  0  0  0  0  0  0  0  0  0  0  0
   -1.0562   -4.2944   -4.2538 H   0  0  0  0  0  0  0  0  0  0  0  0
    0.6277   -2.5867   -3.5652 H   0  0  0  0  0  0  0  0  0  0  0  0
   -0.5131    0.6982   -2.3956 H   0  0  0  0  0  0  0  0  0  0  0  0
    1.1290    2.3513   -1.4447 H   0  0  0  0  0  0  0  0  0  0  0  0
    4.5201    0.5057    1.1212 H   0  0  0  0  0  0  0  0  0  0  0  0
    4.6473    3.1031    2.2281 H   0  0  0  0  0  0  0  0  0  0  0  0
    6.0172    1.9956    2.0039 H   0  0  0  0  0  0  0  0  0  0  0  0
    5.0278    3.9297   -0.0883 H   0  0  0  0  0  0  0  0  0  0  0  0
    7.6389    2.9795   -0.7425 H   0  0  0  0  0  0  0  0  0  0  0  0
    6.7252    1.4973   -0.2407 H   0  0  0  0  0  0  0  0  0  0  0  0
    6.1234    2.5737   -1.5767 H   0  0  0  0  0  0  0  0  0  0  0  0
    7.7828    4.1071    0.8511 H   0  0  0  0  0  0  0  0  0  0  0  0
    6.5836    5.4104    0.6430 H   0  0  0  0  0  0  0  0  0  0  0  0
    6.5243    4.4389    2.1691 H   0  0  0  0  0  0  0  0  0  0  0  0
    3.0890   -0.7638    0.6352 H   0  0  0  0  0  0  0  0  0  0  0  0
    0.6927   -4.6042   -0.0147 H   0  0  0  0  0  0  0  0  0  0  0  0
   -3.5143   -0.2613   -1.0042 H   0  0  0  0  0  0  0  0  0  0  0  0
   -1.8669    2.0840    0.3181 H   0  0  0  0  0  0  0  0  0  0  0  0
   -2.3305    3.6182    2.0859 H   0  0  0  0  0  0  0  0  0  0  0  0
   -4.0217    5.3715    4.5325 H   0  0  0  0  0  0  0  0  0  0  0  0
   -3.8010    2.9202    6.2018 H   0  0  0  0  0  0  0  0  0  0  0  0
   -5.4691    2.7044    5.5131 H   0  0  0  0  0  0  0  0  0  0  0  0
   -5.1956    0.9782    3.7551 H   0  0  0  0  0  0  0  0  0  0  0  0
   -4.7580   -0.6593    1.9429 H   0  0  0  0  0  0  0  0  0  0  0  0
   -3.5271   -3.2177   -0.9813 H   0  0  0  0  0  0  0  0  0  0  0  0
  1  2  2  3
  2  3  1  0
  2  4  1  0
  4  5  2  0
  5  6  1  0
  6  7  2  0
  7  8  1  0
  8  9  2  0
  9 10  1  0
 10 11  2  0
 11 12  1  0
 12 13  2  0
 12 14  1  0
 14 15  1  0
 15 16  1  0
 16 17  1  0
 16 18  1  0
 11 19  1  0
 19 20  2  0
 20 21  1  0
 21 22  2  0
 21 23  1  0
  7 24  1  0
 24 25  1  0
 25 26  2  0
 25 27  1  0
 27 28  1  0
 28 29  2  0
 29 30  1  0
 30 31  2  0
 31 32  1  0
 32 33  2  3
 32 34  1  0
 31 35  1  0
 35 36  2  0
 24 37  2  0
 37  4  1  0
 20  8  1  0
 36 28  1  0
  1 38  1  0
  1 39  1  0
  3 40  1  0
  3 41  1  0
  3 42  1  0
  5 43  1  0
  6 44  1  0
  9 45  1  0
 10 46  1  0
 14 47  1  0
 15 48  1  0
 15 49  1  0
 16 50  1  0
 17 51  1  0
 17 52  1  0
 17 53  1  0
 18 54  1  0
 18 55  1  0
 18 56  1  0
 19 57  1  0
 23 58  1  0
 27 59  1  0
 29 60  1  0
 30 61  1  0
 33 62  1  0
 34 63  1  0
 34 64  1  0
 35 65  1  0
 36 66  1  0
 37 67  1  0
M  END
$$$$
