
     RDKit          3D

 49 52  0  0  0  0  0  0  0  0999 V2000
   -3.3993    2.6513    2.2692 C   0  0  0  0  0  0  0  0  0  0  0  0
   -1.6638    2.5145    2.2881 S   0  0  0  0  0  6  0  0  0  0  0  0
   -1.0671    3.8895    2.1139 O   0  0  0  0  0  0  0  0  0  0  0  0
   -1.1734    1.9813    3.5981 O   0  0  0  0  0  0  0  0  0  0  0  0
   -1.0242    1.4760    1.0326 N   0  0  0  0  0  0  0  0  0  0  0  0
    0.3849    1.4007    0.8380 C   0  0  0  0  0  0  0  0  0  0  0  0
    1.1006    1.7617    1.8240 O   0  0  0  0  0  0  0  0  0  0  0  0
    0.9465    0.9548   -0.3689 N   0  0  0  0  0  0  0  0  0  0  0  0
    2.3299    0.8899   -0.5993 C   0  0  0  0  0  0  0  0  0  0  0  0
    2.9890    1.9824   -1.1174 C   0  0  0  0  0  0  0  0  0  0  0  0
    4.3471    1.8794   -1.3300 C   0  0  0  0  0  0  0  0  0  0  0  0
    5.0657    0.7237   -1.0428 C   0  0  0  0  0  0  0  0  0  0  0  0
    4.3547   -0.3394   -0.5258 C   0  0  0  0  0  0  0  0  0  0  0  0
    5.0583   -1.6245   -0.1922 C   0  0  0  0  0  0  0  0  0  0  0  0
    4.2681   -2.4077    0.6010 F   0  0  0  0  0  0  0  0  0  0  0  0
    6.2194   -1.3543    0.4972 F   0  0  0  0  0  0  0  0  0  0  0  0
    5.4204   -2.2787   -1.3716 F   0  0  0  0  0  0  0  0  0  0  0  0
    2.9962   -0.2795   -0.2973 C   0  0  0  0  0  0  0  0  0  0  0  0
    0.0687    0.5326   -1.4397 C   0  0  0  0  0  0  0  0  0  0  0  0
   -1.2153    0.5425   -1.2268 C   0  0  0  0  0  0  0  0  0  0  0  0
   -1.9443    0.1182   -2.4362 C   0  0  0  0  0  0  0  0  0  0  0  0
   -3.1796    0.0777   -2.6156 O   0  0  0  0  0  0  0  0  0  0  0  0
   -0.9269   -0.2628   -3.4292 C   0  0  0  0  0  0  0  0  0  0  0  0
    0.3572    0.0733   -2.8164 C   0  0  0  0  0  0  0  0  0  0  0  0
   -1.8518    0.7276    0.1408 C   0  0  1  0  0  0  0  0  0  0  0  0
   -2.1465   -0.6347    0.7113 C   0  0  0  0  0  0  0  0  0  0  0  0
   -2.5960   -0.8328    1.9930 C   0  0  0  0  0  0  0  0  0  0  0  0
   -2.8534   -2.0829    2.5197 C   0  0  0  0  0  0  0  0  0  0  0  0
   -2.6549   -3.1866    1.7370 C   0  0  0  0  0  0  0  0  0  0  0  0
   -2.9284   -4.4850    2.2943 C   0  0  0  0  0  0  0  0  0  0  0  0
   -3.1325   -5.5253    2.7531 N   0  0  0  0  0  0  0  0  0  0  0  0
   -2.2118   -3.0203    0.4705 C   0  0  0  0  0  0  0  0  0  0  0  0
   -1.9467   -1.7504   -0.0744 C   0  0  0  0  0  0  0  0  0  0  0  0
   -3.9291    2.0400    3.0366 H   0  0  0  0  0  0  0  0  0  0  0  0
   -3.6823    3.7047    2.5087 H   0  0  0  0  0  0  0  0  0  0  0  0
   -3.8361    2.4620    1.2444 H   0  0  0  0  0  0  0  0  0  0  0  0
    2.4767    2.9158   -1.3618 H   0  0  0  0  0  0  0  0  0  0  0  0
    4.9275    2.7099   -1.7376 H   0  0  0  0  0  0  0  0  0  0  0  0
    6.1416    0.6698   -1.2205 H   0  0  0  0  0  0  0  0  0  0  0  0
    2.4772   -1.1574    0.1168 H   0  0  0  0  0  0  0  0  0  0  0  0
   -1.0895    0.3151   -4.3911 H   0  0  0  0  0  0  0  0  0  0  0  0
   -0.9966   -1.3569   -3.6687 H   0  0  0  0  0  0  0  0  0  0  0  0
    1.1376   -0.7071   -2.8555 H   0  0  0  0  0  0  0  0  0  0  0  0
    0.8120    0.9376   -3.3931 H   0  0  0  0  0  0  0  0  0  0  0  0
   -2.8218    1.2209   -0.0124 H   0  0  0  0  0  0  0  0  0  0  0  0
   -2.7617   -0.0092    2.6485 H   0  0  0  0  0  0  0  0  0  0  0  0
   -3.2055   -2.2186    3.5291 H   0  0  0  0  0  0  0  0  0  0  0  0
   -2.0530   -3.8978   -0.1505 H   0  0  0  0  0  0  0  0  0  0  0  0
   -1.5877   -1.7410   -1.0913 H   0  0  0  0  0  0  0  0  0  0  0  0
  1  2  1  0
  2  3  2  0
  2  4  2  0
  2  5  1  0
  5  6  1  0
  6  7  2  0
  6  8  1  0
  8  9  1  0
  9 10  2  0
 10 11  1  0
 11 12  2  0
 12 13  1  0
 13 14  1  0
 14 15  1  0
 14 16  1  0
 14 17  1  0
 13 18  2  0
  8 19  1  0
 19 20  2  0
 20 21  1  0
 21 22  2  0
 21 23  1  0
 23 24  1  0
 20 25  1  0
 25 26  1  0
 26 27  2  0
 27 28  1  0
 28 29  2  0
 29 30  1  0
 30 31  3  0
 29 32  1  0
 32 33  2  0
 25  5  1  0
 33 26  1  0
 18  9  1  0
 24 19  1  0
  1 34  1  0
  1 35  1  0
  1 36  1  0
 10 37  1  0
 11 38  1  0
 12 39  1  0
 18 40  1  0
 23 41  1  0
 23 42  1  0
 24 43  1  0
 24 44  1  0
 25 45  1  6
 27 46  1  0
 28 47  1  0
 32 48  1  0
 33 49  1  0
M  END
$$$$
