
     RDKit          3D

 60 59  0  0  0  0  0  0  0  0999 V2000
    6.0502    1.6275   -0.7848 C   0  0  0  0  0  0  0  0  0  0  0  0
    5.7903    0.1709   -0.9895 C   0  0  0  0  0  0  0  0  0  0  0  0
    4.5155   -0.2822   -0.2138 C   0  0  0  0  0  0  0  0  0  0  0  0
    4.8787    0.0406    1.2350 C   0  0  0  0  0  0  0  0  0  0  0  0
    4.3929   -1.7473   -0.4308 C   0  0  0  0  0  0  0  0  0  0  0  0
    3.4800    0.5171   -0.7018 N   0  0  0  0  0  0  0  0  0  0  0  0
    2.1299    0.2380   -0.5274 C   0  0  0  0  0  0  0  0  0  0  0  0
    1.5652    0.3273    0.8598 C   0  0  0  0  0  0  0  0  0  0  0  0
    2.0947   -0.5294    1.7829 O   0  0  0  0  0  0  0  0  0  0  0  0
    0.0701    0.1922    0.8447 C   0  0  0  0  0  0  0  0  0  0  0  0
   -0.5353   -1.0440    0.8290 C   0  0  0  0  0  0  0  0  0  0  0  0
   -1.8966   -1.2150    0.8179 C   0  0  0  0  0  0  0  0  0  0  0  0
   -2.5233   -2.4454    0.8017 O   0  0  0  0  0  0  0  0  0  0  0  0
   -2.8513   -3.0811   -0.3784 C   0  0  0  0  0  0  0  0  0  0  0  0
   -2.5549   -2.4896   -1.4497 O   0  0  0  0  0  0  0  0  0  0  0  0
   -3.4861   -4.3310   -0.3393 N   0  0  0  0  0  0  0  0  0  0  0  0
   -3.8343   -5.0074   -1.5643 C   0  0  0  0  0  0  0  0  0  0  0  0
   -3.7955   -4.9523    0.9219 C   0  0  0  0  0  0  0  0  0  0  0  0
   -2.6731   -0.0775    0.8230 C   0  0  0  0  0  0  0  0  0  0  0  0
   -2.1034    1.1878    0.8388 C   0  0  0  0  0  0  0  0  0  0  0  0
   -2.8624    2.3384    0.8446 O   0  0  0  0  0  0  0  0  0  0  0  0
   -3.3256    2.9520   -0.3071 C   0  0  0  0  0  0  0  0  0  0  0  0
   -3.0209    2.4070   -1.3968 O   0  0  0  0  0  0  0  0  0  0  0  0
   -4.1015    4.1296   -0.2705 N   0  0  0  0  0  0  0  0  0  0  0  0
   -4.4158    4.7074    1.0201 C   0  0  0  0  0  0  0  0  0  0  0  0
   -4.5597    4.7221   -1.5157 C   0  0  0  0  0  0  0  0  0  0  0  0
   -0.7285    1.3133    0.8495 C   0  0  0  0  0  0  0  0  0  0  0  0
    0.6917    0.0000    0.0000 Cl  0  0  0  0  0  0  0  0  0  0  0  0
    7.1555    1.7816   -0.9662 H   0  0  0  0  0  0  0  0  0  0  0  0
    5.5533    2.2201   -1.5886 H   0  0  0  0  0  0  0  0  0  0  0  0
    5.8197    2.0255    0.2029 H   0  0  0  0  0  0  0  0  0  0  0  0
    5.6485   -0.0291   -2.0539 H   0  0  0  0  0  0  0  0  0  0  0  0
    6.5919   -0.4569   -0.5700 H   0  0  0  0  0  0  0  0  0  0  0  0
    4.3287    0.9378    1.5768 H   0  0  0  0  0  0  0  0  0  0  0  0
    5.9611    0.3387    1.3336 H   0  0  0  0  0  0  0  0  0  0  0  0
    4.7399   -0.8321    1.8704 H   0  0  0  0  0  0  0  0  0  0  0  0
    3.8366   -2.2789    0.3662 H   0  0  0  0  0  0  0  0  0  0  0  0
    3.9901   -1.9520   -1.4408 H   0  0  0  0  0  0  0  0  0  0  0  0
    5.4202   -2.1849   -0.4206 H   0  0  0  0  0  0  0  0  0  0  0  0
    3.6998    1.5348   -0.6412 H   0  0  0  0  0  0  0  0  0  0  0  0
    1.5541    1.0371   -1.1121 H   0  0  0  0  0  0  0  0  0  0  0  0
    1.7793   -0.7020   -1.0461 H   0  0  0  0  0  0  0  0  0  0  0  0
    1.8042    1.3726    1.2184 H   0  0  0  0  0  0  0  0  0  0  0  0
    1.3886   -0.9392    2.3753 H   0  0  0  0  0  0  0  0  0  0  0  0
    0.1007   -1.9106    0.8248 H   0  0  0  0  0  0  0  0  0  0  0  0
   -3.2474   -4.6597   -2.4380 H   0  0  0  0  0  0  0  0  0  0  0  0
   -4.9292   -4.8806   -1.7201 H   0  0  0  0  0  0  0  0  0  0  0  0
   -3.6925   -6.1018   -1.3831 H   0  0  0  0  0  0  0  0  0  0  0  0
   -4.3529   -4.1876    1.5212 H   0  0  0  0  0  0  0  0  0  0  0  0
   -4.4406   -5.8396    0.8032 H   0  0  0  0  0  0  0  0  0  0  0  0
   -2.8547   -5.2522    1.4385 H   0  0  0  0  0  0  0  0  0  0  0  0
   -3.7596   -0.1360    0.8145 H   0  0  0  0  0  0  0  0  0  0  0  0
   -5.0889    5.5658    0.8373 H   0  0  0  0  0  0  0  0  0  0  0  0
   -3.4811    5.0443    1.5270 H   0  0  0  0  0  0  0  0  0  0  0  0
   -4.9119    3.9966    1.7031 H   0  0  0  0  0  0  0  0  0  0  0  0
   -3.7136    5.1663   -2.0767 H   0  0  0  0  0  0  0  0  0  0  0  0
   -5.3576    5.4559   -1.2905 H   0  0  0  0  0  0  0  0  0  0  0  0
   -4.9763    3.8958   -2.1260 H   0  0  0  0  0  0  0  0  0  0  0  0
   -0.2651    2.3017    0.8623 H   0  0  0  0  0  0  0  0  0  0  0  0
   -0.6917    0.0000    0.0000 H   0  0  0  0  0  0  0  0  0  0  0  0
  1  2  1  0
  2  3  1  0
  3  4  1  0
  3  5  1  0
  3  6  1  0
  6  7  1  0
  7  8  1  0
  8  9  1  0
  8 10  1  0
 10 11  2  0
 11 12  1  0
 12 13  1  0
 13 14  1  0
 14 15  2  0
 14 16  1  0
 16 17  1  0
 16 18  1  0
 12 19  2  0
 19 20  1  0
 20 21  1  0
 21 22  1  0
 22 23  2  0
 22 24  1  0
 24 25  1  0
 24 26  1  0
 20 27  2  0
 27 10  1  0
  1 29  1  0
  1 30  1  0
  1 31  1  0
  2 32  1  0
  2 33  1  0
  4 34  1  0
  4 35  1  0
  4 36  1  0
  5 37  1  0
  5 38  1  0
  5 39  1  0
  6 40  1  0
  7 41  1  0
  7 42  1  0
  8 43  1  0
  9 44  1  0
 11 45  1  0
 17 46  1  0
 17 47  1  0
 17 48  1  0
 18 49  1  0
 18 50  1  0
 18 51  1  0
 19 52  1  0
 25 53  1  0
 25 54  1  0
 25 55  1  0
 26 56  1  0
 26 57  1  0
 26 58  1  0
 27 59  1  0
 28 60  1  0
M  END
$$$$
