
     RDKit          3D

 54 58  0  0  0  0  0  0  0  0999 V2000
    0.8115   -0.2388   -1.9776 O   0  0  0  0  0  0  0  0  0  0  0  0
    0.0744    0.5749   -1.3198 C   0  0  0  0  0  0  0  0  0  0  0  0
    0.7533    1.6789   -0.6253 C   0  0  0  0  0  0  0  0  0  0  0  0
    2.2444    1.5223   -0.8181 C   0  0  0  0  0  0  0  0  0  0  0  0
    2.9798    0.8099    0.0435 N   0  0  0  0  0  0  0  0  0  0  0  0
    4.3145    0.6391   -0.0833 C   0  0  0  0  0  0  0  0  0  0  0  0
    5.0588   -0.1157    0.8451 N   0  0  0  0  0  0  0  0  0  0  0  0
    4.3333   -0.6296    2.0117 C   0  0  0  0  0  0  0  0  0  0  0  0
    4.9050   -1.9539    2.4016 C   0  0  0  0  0  0  0  0  0  0  0  0
    5.5514   -2.5985    1.3677 O   0  0  0  0  0  0  0  0  0  0  0  0
    6.6599   -1.9278    0.9065 C   0  0  0  0  0  0  0  0  0  0  0  0
    6.4458   -0.4339    0.7671 C   0  0  0  0  0  0  0  0  0  0  0  0
    4.9124    1.2398   -1.1603 C   0  0  0  0  0  0  0  0  0  0  0  0
    4.1447    1.9772   -2.0505 C   0  0  0  0  0  0  0  0  0  0  0  0
    4.7360    2.5107   -3.0244 O   0  0  0  0  0  0  0  0  0  0  0  0
    2.8019    2.1200   -1.8792 N   0  0  0  0  0  0  0  0  0  0  0  0
   -1.3062    0.3052   -1.3443 N   0  0  0  0  0  0  0  0  0  0  0  0
   -1.9571   -0.8026   -2.0735 C   0  0  0  0  0  0  0  0  0  0  0  0
   -2.9765   -1.2333   -1.0436 C   0  0  0  0  0  0  0  0  0  0  0  0
   -3.4478    0.0783   -0.5126 C   0  0  0  0  0  0  0  0  0  0  0  0
   -4.6198    0.5027    0.0840 C   0  0  0  0  0  0  0  0  0  0  0  0
   -5.6773   -0.4589    0.2770 C   0  0  0  0  0  0  0  0  0  0  0  0
   -6.9670   -0.1344   -0.0401 C   0  0  0  0  0  0  0  0  0  0  0  0
   -8.0180   -1.0431    0.1357 C   0  0  0  0  0  0  0  0  0  0  0  0
   -7.6898   -2.2598    0.6361 N   0  0  0  0  0  0  0  0  0  0  0  0
   -6.4332   -2.5996    0.9537 C   0  0  0  0  0  0  0  0  0  0  0  0
   -5.3968   -1.6989    0.7787 C   0  0  0  0  0  0  0  0  0  0  0  0
   -4.7549    1.8251    0.4803 C   0  0  0  0  0  0  0  0  0  0  0  0
   -3.7207    2.6915    0.2731 C   0  0  0  0  0  0  0  0  0  0  0  0
   -2.5365    2.2844   -0.3241 C   0  0  0  0  0  0  0  0  0  0  0  0
   -2.3992    0.9717   -0.7189 C   0  0  0  0  0  0  0  0  0  0  0  0
    0.5399    1.6506    0.4453 H   0  0  0  0  0  0  0  0  0  0  0  0
    0.4704    2.6748   -1.0520 H   0  0  0  0  0  0  0  0  0  0  0  0
    3.2541   -0.6284    1.8467 H   0  0  0  0  0  0  0  0  0  0  0  0
    4.5512    0.0894    2.8424 H   0  0  0  0  0  0  0  0  0  0  0  0
    4.0529   -2.6056    2.7159 H   0  0  0  0  0  0  0  0  0  0  0  0
    5.5531   -1.8864    3.3225 H   0  0  0  0  0  0  0  0  0  0  0  0
    7.5598   -2.0764    1.5396 H   0  0  0  0  0  0  0  0  0  0  0  0
    6.9046   -2.3405   -0.0913 H   0  0  0  0  0  0  0  0  0  0  0  0
    7.0449    0.1193    1.5478 H   0  0  0  0  0  0  0  0  0  0  0  0
    6.8541   -0.1088   -0.2045 H   0  0  0  0  0  0  0  0  0  0  0  0
    5.9565    1.1867   -1.3769 H   0  0  0  0  0  0  0  0  0  0  0  0
    2.2653    2.6837   -2.5740 H   0  0  0  0  0  0  0  0  0  0  0  0
   -2.4428   -0.4423   -2.9907 H   0  0  0  0  0  0  0  0  0  0  0  0
   -1.2498   -1.6241   -2.2517 H   0  0  0  0  0  0  0  0  0  0  0  0
   -2.3953   -1.8054   -0.2683 H   0  0  0  0  0  0  0  0  0  0  0  0
   -3.7857   -1.8472   -1.4559 H   0  0  0  0  0  0  0  0  0  0  0  0
   -7.1644    0.8535   -0.4361 H   0  0  0  0  0  0  0  0  0  0  0  0
   -9.0388   -0.7820   -0.1169 H   0  0  0  0  0  0  0  0  0  0  0  0
   -6.2009   -3.5748    1.3502 H   0  0  0  0  0  0  0  0  0  0  0  0
   -4.3899   -2.0022    1.0452 H   0  0  0  0  0  0  0  0  0  0  0  0
   -5.6634    2.1312    0.9369 H   0  0  0  0  0  0  0  0  0  0  0  0
   -3.7655    3.7484    0.5637 H   0  0  0  0  0  0  0  0  0  0  0  0
   -1.7366    2.9836   -0.4768 H   0  0  0  0  0  0  0  0  0  0  0  0
  1  2  2  0
  2  3  1  0
  3  4  1  0
  4  5  2  0
  5  6  1  0
  6  7  1  0
  7  8  1  0
  8  9  1  0
  9 10  1  0
 10 11  1  0
 11 12  1  0
  6 13  2  0
 13 14  1  0
 14 15  2  0
 14 16  1  0
  2 17  1  0
 17 18  1  0
 18 19  1  0
 19 20  1  0
 20 21  2  0
 21 22  1  0
 22 23  2  0
 23 24  1  0
 24 25  2  0
 25 26  1  0
 26 27  2  0
 21 28  1  0
 28 29  2  0
 29 30  1  0
 30 31  2  0
 16  4  1  0
 31 17  1  0
 12  7  1  0
 31 20  1  0
 27 22  1  0
  3 32  1  0
  3 33  1  0
  8 34  1  0
  8 35  1  0
  9 36  1  0
  9 37  1  0
 11 38  1  0
 11 39  1  0
 12 40  1  0
 12 41  1  0
 13 42  1  0
 16 43  1  0
 18 44  1  0
 18 45  1  0
 19 46  1  0
 19 47  1  0
 23 48  1  0
 24 49  1  0
 26 50  1  0
 27 51  1  0
 28 52  1  0
 29 53  1  0
 30 54  1  0
M  END
$$$$
