
     RDKit          3D

 41 43  0  0  0  0  0  0  0  0999 V2000
   -5.9735   -1.3398   -0.2484 C   0  0  0  0  0  0  0  0  0  0  0  0
   -5.0994   -0.2700    0.0165 O   0  0  0  0  0  0  0  0  0  0  0  0
   -3.7142   -0.4202    0.0318 C   0  0  0  0  0  0  0  0  0  0  0  0
   -3.1464   -1.6428   -0.2169 C   0  0  0  0  0  0  0  0  0  0  0  0
   -1.7530   -1.7525   -0.1928 C   0  0  0  0  0  0  0  0  0  0  0  0
   -0.9285   -0.6753    0.0723 C   0  0  0  0  0  0  0  0  0  0  0  0
   -1.5420    0.5356    0.3168 C   0  0  0  0  0  0  0  0  0  0  0  0
   -2.9176    0.6727    0.2992 C   0  0  0  0  0  0  0  0  0  0  0  0
   -0.5210    1.4234    0.5462 C   0  0  0  0  0  0  0  0  0  0  0  0
   -0.7535    2.8503    0.8483 C   0  0  0  0  0  0  0  0  0  0  0  0
   -1.1228    3.6246   -0.3733 C   0  0  0  0  0  0  0  0  0  0  0  0
   -1.2149    3.0934   -1.5072 O   0  0  0  0  0  0  0  0  0  0  0  0
   -1.3726    4.9653   -0.2645 O   0  0  0  0  0  0  0  0  0  0  0  0
    0.7054    0.7599    0.4432 C   0  0  0  0  0  0  0  0  0  0  0  0
    2.0102    1.4392    0.7131 C   0  0  0  0  0  0  0  0  0  0  0  0
    0.4373   -0.5255    0.1497 N   0  0  0  0  0  0  0  0  0  0  0  0
    1.3520   -1.5627   -0.1388 C   0  0  0  0  0  0  0  0  0  0  0  0
    0.8495   -2.7647   -0.1542 O   0  0  0  0  0  0  0  0  0  0  0  0
    2.7614   -1.4572   -0.4178 C   0  0  0  0  0  0  0  0  0  0  0  0
    3.6065   -2.4388    0.1105 C   0  0  0  0  0  0  0  0  0  0  0  0
    4.9589   -2.4777   -0.1659 C   0  0  0  0  0  0  0  0  0  0  0  0
    5.5338   -1.5346   -0.9861 C   0  0  0  0  0  0  0  0  0  0  0  0
    7.2400   -1.5217   -1.3785 Cl  0  0  0  0  0  0  0  0  0  0  0  0
    4.7080   -0.5674   -1.5093 C   0  0  0  0  0  0  0  0  0  0  0  0
    3.3317   -0.5286   -1.2283 C   0  0  0  0  0  0  0  0  0  0  0  0
   -5.5810   -1.9977   -1.0392 H   0  0  0  0  0  0  0  0  0  0  0  0
   -6.9727   -0.9395   -0.5916 H   0  0  0  0  0  0  0  0  0  0  0  0
   -6.2023   -1.9430    0.6583 H   0  0  0  0  0  0  0  0  0  0  0  0
   -3.7110   -2.5289   -0.4310 H   0  0  0  0  0  0  0  0  0  0  0  0
   -1.3304   -2.7175   -0.3920 H   0  0  0  0  0  0  0  0  0  0  0  0
   -3.4063    1.6146    0.4888 H   0  0  0  0  0  0  0  0  0  0  0  0
   -1.6571    2.9137    1.5159 H   0  0  0  0  0  0  0  0  0  0  0  0
    0.0774    3.3252    1.3806 H   0  0  0  0  0  0  0  0  0  0  0  0
   -2.0797    5.4449   -0.8421 H   0  0  0  0  0  0  0  0  0  0  0  0
    2.3598    1.9564   -0.1705 H   0  0  0  0  0  0  0  0  0  0  0  0
    2.6776    0.7116    1.1843 H   0  0  0  0  0  0  0  0  0  0  0  0
    1.7975    2.2743    1.4596 H   0  0  0  0  0  0  0  0  0  0  0  0
    3.1432   -3.1840    0.7606 H   0  0  0  0  0  0  0  0  0  0  0  0
    5.6105   -3.2378    0.2435 H   0  0  0  0  0  0  0  0  0  0  0  0
    5.1203    0.2010   -2.1654 H   0  0  0  0  0  0  0  0  0  0  0  0
    2.7189    0.2219   -1.6843 H   0  0  0  0  0  0  0  0  0  0  0  0
  1  2  1  0
  2  3  1  0
  3  4  2  0
  4  5  1  0
  5  6  2  0
  6  7  1  0
  7  8  2  0
  7  9  1  0
  9 10  1  0
 10 11  1  0
 11 12  2  0
 11 13  1  0
  9 14  2  0
 14 15  1  0
 14 16  1  0
 16 17  1  0
 17 18  2  0
 17 19  1  0
 19 20  2  0
 20 21  1  0
 21 22  2  0
 22 23  1  0
 22 24  1  0
 24 25  2  0
  8  3  1  0
 25 19  1  0
 16  6  1  0
  1 26  1  0
  1 27  1  0
  1 28  1  0
  4 29  1  0
  5 30  1  0
  8 31  1  0
 10 32  1  0
 10 33  1  0
 13 34  1  0
 15 35  1  0
 15 36  1  0
 15 37  1  0
 20 38  1  0
 21 39  1  0
 24 40  1  0
 25 41  1  0
M  END
$$$$
