
     RDKit          3D

 33 35  0  0  0  0  0  0  0  0999 V2000
    5.4317   -0.3463    0.0096 N   0  0  0  0  0  0  0  0  0  0  0  0
    4.0481   -1.0250   -0.7691 S   0  0  0  0  0  0  0  0  0  0  0  0
    3.8425   -2.3889   -0.1517 O   0  0  0  0  0  0  0  0  0  0  0  0
    4.2249   -1.1963   -2.2401 O   0  0  0  0  0  0  0  0  0  0  0  0
    2.6024   -0.0773   -0.4559 C   0  0  0  0  0  0  0  0  0  0  0  0
    1.4906   -0.6239    0.1831 C   0  0  0  0  0  0  0  0  0  0  0  0
    0.3883    0.1706    0.4032 C   0  0  0  0  0  0  0  0  0  0  0  0
    0.3024    1.5008    0.0275 C   0  0  0  0  0  0  0  0  0  0  0  0
    1.4281    2.0247   -0.6106 C   0  0  0  0  0  0  0  0  0  0  0  0
    2.5234    1.2487   -0.8332 C   0  0  0  0  0  0  0  0  0  0  0  0
    3.8668    2.0257   -1.6422 Cl  0  0  0  0  0  0  0  0  0  0  0  0
   -0.7842   -0.4264    1.0851 C   0  0  1  0  0  0  0  0  0  0  0  0
   -0.4923   -1.6903    1.5983 O   0  0  0  0  0  0  0  0  0  0  0  0
   -1.1368    0.4725    2.1702 N   0  0  0  0  0  0  0  0  0  0  0  0
   -2.4610    0.9688    2.0235 C   0  0  0  0  0  0  0  0  0  0  0  0
   -2.9755    1.7657    2.8595 O   0  0  0  0  0  0  0  0  0  0  0  0
   -2.9778    0.3728    0.7984 C   0  0  0  0  0  0  0  0  0  0  0  0
   -4.2288    0.5355    0.2024 C   0  0  0  0  0  0  0  0  0  0  0  0
   -4.5469   -0.1136   -0.9730 C   0  0  0  0  0  0  0  0  0  0  0  0
   -3.5898   -0.9237   -1.5343 C   0  0  0  0  0  0  0  0  0  0  0  0
   -2.3508   -1.0821   -0.9404 C   0  0  0  0  0  0  0  0  0  0  0  0
   -1.9969   -0.4512    0.2325 C   0  0  0  0  0  0  0  0  0  0  0  0
    5.8276    0.4799   -0.4871 H   0  0  0  0  0  0  0  0  0  0  0  0
    6.1716   -1.1030    0.0061 H   0  0  0  0  0  0  0  0  0  0  0  0
    1.5101   -1.6763    0.5014 H   0  0  0  0  0  0  0  0  0  0  0  0
   -0.5908    2.0727    0.2285 H   0  0  0  0  0  0  0  0  0  0  0  0
    1.3261    3.0813   -0.8940 H   0  0  0  0  0  0  0  0  0  0  0  0
   -0.4305   -2.3450    0.8442 H   0  0  0  0  0  0  0  0  0  0  0  0
   -0.3818    0.6266    2.8944 H   0  0  0  0  0  0  0  0  0  0  0  0
   -4.9530    1.1939    0.6947 H   0  0  0  0  0  0  0  0  0  0  0  0
   -5.5399    0.0806   -1.3484 H   0  0  0  0  0  0  0  0  0  0  0  0
   -3.8967   -1.4121   -2.4631 H   0  0  0  0  0  0  0  0  0  0  0  0
   -1.6511   -1.7395   -1.4484 H   0  0  0  0  0  0  0  0  0  0  0  0
  1  2  1  0
  2  3  2  0
  2  4  2  0
  2  5  1  0
  5  6  2  0
  6  7  1  0
  7  8  2  0
  8  9  1  0
  9 10  2  0
 10 11  1  0
  7 12  1  0
 12 13  1  1
 12 14  1  0
 14 15  1  0
 15 16  2  0
 15 17  1  0
 17 18  2  0
 18 19  1  0
 19 20  2  0
 20 21  1  0
 21 22  2  0
 10  5  1  0
 22 12  1  0
 22 17  1  0
  1 23  1  0
  1 24  1  0
  6 25  1  0
  8 26  1  0
  9 27  1  0
 13 28  1  0
 14 29  1  0
 18 30  1  0
 19 31  1  0
 20 32  1  0
 21 33  1  0
M  END
$$$$
