
     RDKit          3D

 42 44  0  0  0  0  0  0  0  0999 V2000
   -4.6110   -1.2245   -0.2604 N   0  0  0  0  0  0  0  0  0  0  0  0
   -4.3463   -0.2162    0.7602 C   0  0  0  0  0  0  0  0  0  0  0  0
   -4.1645    1.1444    0.2161 C   0  0  0  0  0  0  0  0  0  0  0  0
   -2.7797    1.5200   -0.2151 C   0  0  0  0  0  0  0  0  0  0  0  0
   -1.7136    0.8650    0.6192 C   0  0  0  0  0  0  0  0  0  0  0  0
   -0.3935    1.0968    0.1628 N   0  0  0  0  0  0  0  0  0  0  0  0
   -0.0784    0.6692   -1.1530 C   0  0  0  0  0  0  0  0  0  0  0  0
    0.0465   -0.8361   -1.2965 C   0  0  0  0  0  0  0  0  0  0  0  0
    1.1699    0.1221   -1.6346 C   0  0  0  0  0  0  0  0  0  0  0  0
    2.4341    0.0231   -0.8984 C   0  0  0  0  0  0  0  0  0  0  0  0
    2.8335    0.9639    0.0085 C   0  0  0  0  0  0  0  0  0  0  0  0
    4.0453    0.8313    0.7107 C   0  0  0  0  0  0  0  0  0  0  0  0
    4.8516   -0.2684    0.4833 C   0  0  0  0  0  0  0  0  0  0  0  0
    6.1413   -0.4037    1.2347 C   0  0  0  0  0  0  0  0  0  0  0  0
    5.9495   -0.9279    2.4820 F   0  0  0  0  0  0  0  0  0  0  0  0
    7.0334   -1.2059    0.5600 F   0  0  0  0  0  0  0  0  0  0  0  0
    6.7587    0.8408    1.3797 F   0  0  0  0  0  0  0  0  0  0  0  0
    4.4533   -1.2154   -0.4280 C   0  0  0  0  0  0  0  0  0  0  0  0
    3.2544   -1.0647   -1.1090 C   0  0  0  0  0  0  0  0  0  0  0  0
   -1.9577   -0.5921    0.8437 C   0  0  0  0  0  0  0  0  0  0  0  0
   -3.2379   -0.7207    1.6508 C   0  0  0  0  0  0  0  0  0  0  0  0
   -3.8795   -1.2675   -0.9836 H   0  0  0  0  0  0  0  0  0  0  0  0
   -5.5652   -1.0202   -0.6300 H   0  0  0  0  0  0  0  0  0  0  0  0
   -5.2746   -0.2070    1.4046 H   0  0  0  0  0  0  0  0  0  0  0  0
   -4.8245    1.2520   -0.6813 H   0  0  0  0  0  0  0  0  0  0  0  0
   -4.5690    1.9069    0.9451 H   0  0  0  0  0  0  0  0  0  0  0  0
   -2.6326    1.2851   -1.2901 H   0  0  0  0  0  0  0  0  0  0  0  0
   -2.6849    2.6177   -0.0702 H   0  0  0  0  0  0  0  0  0  0  0  0
   -1.7950    1.3476    1.6414 H   0  0  0  0  0  0  0  0  0  0  0  0
    0.3208    0.6799    0.8491 H   0  0  0  0  0  0  0  0  0  0  0  0
   -0.6905    1.1989   -1.9335 H   0  0  0  0  0  0  0  0  0  0  0  0
    0.2737   -1.4554   -0.4173 H   0  0  0  0  0  0  0  0  0  0  0  0
   -0.5856   -1.2697   -2.0706 H   0  0  0  0  0  0  0  0  0  0  0  0
    1.3619    0.0793   -2.7625 H   0  0  0  0  0  0  0  0  0  0  0  0
    2.2331    1.8295    0.1925 H   0  0  0  0  0  0  0  0  0  0  0  0
    4.3319    1.5815    1.4136 H   0  0  0  0  0  0  0  0  0  0  0  0
    5.0934   -2.0656   -0.5932 H   0  0  0  0  0  0  0  0  0  0  0  0
    2.9979   -1.8391   -1.8088 H   0  0  0  0  0  0  0  0  0  0  0  0
   -2.0488   -1.1877   -0.0864 H   0  0  0  0  0  0  0  0  0  0  0  0
   -1.1299   -1.0019    1.4505 H   0  0  0  0  0  0  0  0  0  0  0  0
   -3.4392   -1.7613    1.8975 H   0  0  0  0  0  0  0  0  0  0  0  0
   -3.1823   -0.1041    2.5459 H   0  0  0  0  0  0  0  0  0  0  0  0
  1  2  1  0
  2  3  1  0
  3  4  1  0
  4  5  1  0
  5  6  1  0
  6  7  1  0
  7  8  1  0
  8  9  1  0
  9 10  1  0
 10 11  2  0
 11 12  1  0
 12 13  2  0
 13 14  1  0
 14 15  1  0
 14 16  1  0
 14 17  1  0
 13 18  1  0
 18 19  2  0
  5 20  1  0
 20 21  1  0
 21  2  1  0
  9  7  1  0
 19 10  1  0
  1 22  1  0
  1 23  1  0
  2 24  1  0
  3 25  1  0
  3 26  1  0
  4 27  1  0
  4 28  1  0
  5 29  1  0
  6 30  1  0
  7 31  1  0
  8 32  1  0
  8 33  1  0
  9 34  1  0
 11 35  1  0
 12 36  1  0
 18 37  1  0
 19 38  1  0
 20 39  1  0
 20 40  1  0
 21 41  1  0
 21 42  1  0
M  END
$$$$
