
     RDKit          3D

 39 42  0  0  0  0  0  0  0  0999 V2000
    4.5447    2.0816    2.1271 C   0  0  0  0  0  0  0  0  0  0  0  0
    4.0865    0.8032    1.4725 C   0  0  0  0  0  0  0  0  0  0  0  0
    4.8244   -0.3065    1.6428 N   0  0  0  0  0  0  0  0  0  0  0  0
    4.4795   -1.4776    1.0919 C   0  0  0  0  0  0  0  0  0  0  0  0
    3.3023   -1.4882    0.3233 C   0  0  0  0  0  0  0  0  0  0  0  0
    2.5288   -0.3847    0.1264 C   0  0  0  0  0  0  0  0  0  0  0  0
    1.2737   -0.3020   -0.6078 C   0  0  0  0  0  0  0  0  0  0  0  0
    0.3133    0.7157   -0.4325 C   0  0  0  0  0  0  0  0  0  0  0  0
   -0.6952    0.5081   -1.2882 N   0  0  0  0  0  0  0  0  0  0  0  0
   -1.8413    1.3868   -1.3470 C   0  0  0  0  0  0  0  0  0  0  0  0
   -2.9348    1.0066   -0.4480 C   0  0  0  0  0  0  0  0  0  0  0  0
   -3.9666    0.1719   -0.8013 C   0  0  0  0  0  0  0  0  0  0  0  0
   -4.9381   -0.1147    0.1287 C   0  0  0  0  0  0  0  0  0  0  0  0
   -4.9429    0.3895    1.4114 C   0  0  0  0  0  0  0  0  0  0  0  0
   -3.8907    1.2327    1.7516 C   0  0  0  0  0  0  0  0  0  0  0  0
   -2.9246    1.5196    0.8317 C   0  0  0  0  0  0  0  0  0  0  0  0
   -0.4702   -0.5790   -2.0225 C   0  0  0  0  0  0  0  0  0  0  0  0
   -1.2493   -1.1187   -3.0137 C   0  0  0  0  0  0  0  0  0  0  0  0
   -0.7806   -2.2310   -3.6277 N   0  0  0  0  0  0  0  0  0  0  0  0
    0.3988   -2.7679   -3.2683 C   0  0  0  0  0  0  0  0  0  0  0  0
    1.1926   -2.2131   -2.2538 C   0  0  0  0  0  0  0  0  0  0  0  0
    0.7560   -1.0883   -1.6041 C   0  0  0  0  0  0  0  0  0  0  0  0
    2.9802    0.7520    0.7379 N   0  0  0  0  0  0  0  0  0  0  0  0
    5.1070    2.7152    1.4163 H   0  0  0  0  0  0  0  0  0  0  0  0
    3.6762    2.6067    2.5713 H   0  0  0  0  0  0  0  0  0  0  0  0
    5.2094    1.8144    2.9730 H   0  0  0  0  0  0  0  0  0  0  0  0
    5.0248   -2.3873    1.1927 H   0  0  0  0  0  0  0  0  0  0  0  0
    3.0048   -2.4308   -0.0928 H   0  0  0  0  0  0  0  0  0  0  0  0
    0.4402    1.5085    0.3005 H   0  0  0  0  0  0  0  0  0  0  0  0
   -1.5096    2.4131   -1.2078 H   0  0  0  0  0  0  0  0  0  0  0  0
   -2.2378    1.3068   -2.3970 H   0  0  0  0  0  0  0  0  0  0  0  0
   -4.0124   -0.2488   -1.7884 H   0  0  0  0  0  0  0  0  0  0  0  0
   -5.7501   -0.7821   -0.1759 H   0  0  0  0  0  0  0  0  0  0  0  0
   -5.7271    0.1366    2.1076 H   0  0  0  0  0  0  0  0  0  0  0  0
   -3.8896    1.6384    2.7753 H   0  0  0  0  0  0  0  0  0  0  0  0
   -2.1227    2.1818    1.1402 H   0  0  0  0  0  0  0  0  0  0  0  0
   -2.1999   -0.6713   -3.2931 H   0  0  0  0  0  0  0  0  0  0  0  0
    0.8090   -3.6583   -3.7369 H   0  0  0  0  0  0  0  0  0  0  0  0
    2.1314   -2.6390   -1.9992 H   0  0  0  0  0  0  0  0  0  0  0  0
  1  2  1  0
  2  3  2  0
  3  4  1  0
  4  5  2  0
  5  6  1  0
  6  7  1  0
  7  8  2  0
  8  9  1  0
  9 10  1  0
 10 11  1  0
 11 12  2  0
 12 13  1  0
 13 14  2  0
 14 15  1  0
 15 16  2  0
  9 17  1  0
 17 18  2  0
 18 19  1  0
 19 20  2  0
 20 21  1  0
 21 22  2  0
  6 23  2  0
 23  2  1  0
 22  7  1  0
 16 11  1  0
 22 17  1  0
  1 24  1  0
  1 25  1  0
  1 26  1  0
  4 27  1  0
  5 28  1  0
  8 29  1  0
 10 30  1  0
 10 31  1  0
 12 32  1  0
 13 33  1  0
 14 34  1  0
 15 35  1  0
 16 36  1  0
 18 37  1  0
 20 38  1  0
 21 39  1  0
M  END
$$$$
