
     RDKit          3D

 65 67  0  0  0  0  0  0  0  0999 V2000
   -1.0308   -1.1896    1.2141 C   0  0  1  0  0  0  0  0  0  0  0  0
   -1.7066   -2.5027    1.0212 C   0  0  0  0  0  0  0  0  0  0  0  0
   -2.7118   -2.6027    0.0271 N   0  0  0  0  0  0  0  0  0  0  0  0
   -3.3567   -3.9264    0.1463 C   0  0  0  0  0  0  0  0  0  0  0  0
   -2.7628   -4.8106   -0.9017 C   0  0  0  0  0  0  0  0  0  0  0  0
   -1.6474   -3.9983   -1.4942 C   0  0  0  0  0  0  0  0  0  0  0  0
   -2.2008   -2.5877   -1.3333 C   0  0  0  0  0  0  0  0  0  0  0  0
   -0.3472   -0.6476    0.0953 N   0  0  0  0  0  0  0  0  0  0  0  0
    0.8622   -0.2357    0.0254 C   0  0  0  0  0  0  0  0  0  0  0  0
    0.5327    0.0327   -1.2878 O   0  0  0  0  0  0  0  0  0  0  0  0
    1.9505   -0.1738    1.0349 C   0  0  0  0  0  0  0  0  0  0  0  0
    3.1688    0.5394    0.4488 C   0  0  0  0  0  0  0  0  0  0  0  0
    3.6631   -0.2064   -0.7476 C   0  0  0  0  0  0  0  0  0  0  0  0
    4.8513    0.4493   -1.3686 C   0  0  0  0  0  0  0  0  0  0  0  0
    5.9794    0.5217   -0.3809 C   0  0  0  0  0  0  0  0  0  0  0  0
    7.1692    1.1740   -1.0661 C   0  0  0  0  0  0  0  0  0  0  0  0
    8.3226    1.2625   -0.0964 C   0  0  0  0  0  0  0  0  0  0  0  0
   -1.8356   -0.1782    1.9508 C   0  0  2  0  0  0  0  0  0  0  0  0
   -2.5135   -0.7454    3.0505 O   0  0  0  0  0  0  0  0  0  0  0  0
   -2.7360    0.6637    1.1463 C   0  0  0  0  0  0  0  0  0  0  0  0
   -2.3326    1.9331    0.7508 C   0  0  0  0  0  0  0  0  0  0  0  0
   -3.1527    2.7542    0.0114 C   0  0  0  0  0  0  0  0  0  0  0  0
   -4.4208    2.3837   -0.3883 C   0  0  0  0  0  0  0  0  0  0  0  0
   -5.1409    3.2856   -1.1204 O   0  0  0  0  0  0  0  0  0  0  0  0
   -5.0998    4.7023   -0.8853 C   0  0  0  0  0  0  0  0  0  0  0  0
   -3.7507    5.1100   -0.3397 C   0  0  0  0  0  0  0  0  0  0  0  0
   -2.8110    4.0497   -0.4213 O   0  0  0  0  0  0  0  0  0  0  0  0
   -4.8545    1.1175   -0.0086 C   0  0  0  0  0  0  0  0  0  0  0  0
   -4.0061    0.3239    0.7316 C   0  0  0  0  0  0  0  0  0  0  0  0
   -0.1727   -1.4492    1.9536 H   0  0  0  0  0  0  0  0  0  0  0  0
   -2.1218   -2.8827    2.0025 H   0  0  0  0  0  0  0  0  0  0  0  0
   -0.8829   -3.2461    0.7991 H   0  0  0  0  0  0  0  0  0  0  0  0
   -3.1095   -4.3540    1.1447 H   0  0  0  0  0  0  0  0  0  0  0  0
   -4.4659   -3.8016    0.0216 H   0  0  0  0  0  0  0  0  0  0  0  0
   -3.5191   -5.0703   -1.6771 H   0  0  0  0  0  0  0  0  0  0  0  0
   -2.3493   -5.7565   -0.5159 H   0  0  0  0  0  0  0  0  0  0  0  0
   -1.5326   -4.2920   -2.5626 H   0  0  0  0  0  0  0  0  0  0  0  0
   -0.6734   -4.1421   -0.9945 H   0  0  0  0  0  0  0  0  0  0  0  0
   -3.0459   -2.5060   -2.0537 H   0  0  0  0  0  0  0  0  0  0  0  0
   -1.3928   -1.9007   -1.5281 H   0  0  0  0  0  0  0  0  0  0  0  0
    0.2873    0.9351   -1.6696 H   0  0  0  0  0  0  0  0  0  0  0  0
    1.6519    0.4335    1.9119 H   0  0  0  0  0  0  0  0  0  0  0  0
    2.2877   -1.1514    1.3822 H   0  0  0  0  0  0  0  0  0  0  0  0
    3.9807    0.5861    1.2014 H   0  0  0  0  0  0  0  0  0  0  0  0
    2.8695    1.5573    0.1983 H   0  0  0  0  0  0  0  0  0  0  0  0
    2.8289   -0.2578   -1.4858 H   0  0  0  0  0  0  0  0  0  0  0  0
    3.9877   -1.2517   -0.4767 H   0  0  0  0  0  0  0  0  0  0  0  0
    5.1735   -0.1558   -2.2614 H   0  0  0  0  0  0  0  0  0  0  0  0
    4.5959    1.4697   -1.7799 H   0  0  0  0  0  0  0  0  0  0  0  0
    6.1910   -0.4702    0.0177 H   0  0  0  0  0  0  0  0  0  0  0  0
    5.7437    1.1985    0.4744 H   0  0  0  0  0  0  0  0  0  0  0  0
    6.8529    2.1620   -1.4063 H   0  0  0  0  0  0  0  0  0  0  0  0
    7.4412    0.4944   -1.9034 H   0  0  0  0  0  0  0  0  0  0  0  0
    9.1750    0.6769   -0.4793 H   0  0  0  0  0  0  0  0  0  0  0  0
    7.9838    0.9027    0.8892 H   0  0  0  0  0  0  0  0  0  0  0  0
    8.6014    2.3364    0.0655 H   0  0  0  0  0  0  0  0  0  0  0  0
   -1.0932    0.5215    2.4475 H   0  0  0  0  0  0  0  0  0  0  0  0
   -3.3573   -1.1057    2.6892 H   0  0  0  0  0  0  0  0  0  0  0  0
   -1.3467    2.2980    1.0270 H   0  0  0  0  0  0  0  0  0  0  0  0
   -5.4248    5.2635   -1.7640 H   0  0  0  0  0  0  0  0  0  0  0  0
   -5.8524    4.9113   -0.0685 H   0  0  0  0  0  0  0  0  0  0  0  0
   -3.7896    5.4517    0.7048 H   0  0  0  0  0  0  0  0  0  0  0  0
   -3.3639    5.9315   -0.9721 H   0  0  0  0  0  0  0  0  0  0  0  0
   -5.8398    0.8108   -0.3106 H   0  0  0  0  0  0  0  0  0  0  0  0
   -4.4001   -0.6453    1.0019 H   0  0  0  0  0  0  0  0  0  0  0  0
  1  2  1  0
  2  3  1  0
  3  4  1  0
  4  5  1  0
  5  6  1  0
  6  7  1  0
  1  8  1  0
  8  9  2  3
  9 10  1  0
  9 11  1  0
 11 12  1  0
 12 13  1  0
 13 14  1  0
 14 15  1  0
 15 16  1  0
 16 17  1  0
  1 18  1  0
 18 19  1  0
 18 20  1  0
 20 21  2  0
 21 22  1  0
 22 23  2  0
 23 24  1  0
 24 25  1  0
 25 26  1  0
 26 27  1  0
 23 28  1  0
 28 29  2  0
  7  3  1  0
 29 20  1  0
 27 22  1  0
  1 30  1  1
  2 31  1  0
  2 32  1  0
  4 33  1  0
  4 34  1  0
  5 35  1  0
  5 36  1  0
  6 37  1  0
  6 38  1  0
  7 39  1  0
  7 40  1  0
 10 41  1  0
 11 42  1  0
 11 43  1  0
 12 44  1  0
 12 45  1  0
 13 46  1  0
 13 47  1  0
 14 48  1  0
 14 49  1  0
 15 50  1  0
 15 51  1  0
 16 52  1  0
 16 53  1  0
 17 54  1  0
 17 55  1  0
 17 56  1  0
 18 57  1  1
 19 58  1  0
 21 59  1  0
 25 60  1  0
 25 61  1  0
 26 62  1  0
 26 63  1  0
 28 64  1  0
 29 65  1  0
M  END
$$$$
