
     RDKit          3D

 81 84  0  0  0  0  0  0  0  0999 V2000
    2.3163    3.2153    2.1040 C   0  0  0  0  0  0  0  0  0  0  0  0
    1.6388    4.4030    1.4364 C   0  0  0  0  0  0  0  0  0  0  0  0
    0.8569    4.0218    0.3186 N   0  0  0  0  0  0  0  0  0  0  0  0
    0.1948    5.0514   -0.3519 C   0  0  0  0  0  0  0  0  0  0  0  0
    1.2505    5.9220   -1.0316 C   0  0  0  0  0  0  0  0  0  0  0  0
    0.4053    2.6830    0.2567 C   0  0  0  0  0  0  0  0  0  0  0  0
   -0.4256    2.4355   -0.9496 C   0  0  0  0  0  0  0  0  0  0  0  0
   -0.8516    1.0286   -1.0536 N   0  0  0  0  0  0  0  0  0  0  0  0
   -0.0285    0.1941   -1.8541 C   0  0  0  0  0  0  0  0  0  0  0  0
    1.2204   -0.3107   -1.2245 C   0  0  0  0  0  0  0  0  0  0  0  0
    1.2874   -1.3628   -0.3559 C   0  0  0  0  0  0  0  0  0  0  0  0
    2.5130   -1.8128    0.1562 C   0  0  0  0  0  0  0  0  0  0  0  0
    3.7090   -1.2295   -0.1810 C   0  0  0  0  0  0  0  0  0  0  0  0
    4.9948   -1.6854    0.3439 C   0  0  0  0  0  0  0  0  0  0  0  0
    5.2344   -3.0075    0.6488 C   0  0  0  0  0  0  0  0  0  0  0  0
    6.4292   -3.4526    1.1457 C   0  0  0  0  0  0  0  0  0  0  0  0
    7.4406   -2.5348    1.3516 C   0  0  0  0  0  0  0  0  0  0  0  0
    8.7331   -3.0430    1.8922 C   0  0  0  0  0  0  0  0  0  0  0  0
    9.5231   -1.9505    2.1674 F   0  0  0  0  0  0  0  0  0  0  0  0
    9.3615   -3.8305    0.9282 F   0  0  0  0  0  0  0  0  0  0  0  0
    8.4587   -3.7784    3.0167 F   0  0  0  0  0  0  0  0  0  0  0  0
    7.2429   -1.1950    1.0589 C   0  0  0  0  0  0  0  0  0  0  0  0
    6.0294   -0.7898    0.5615 C   0  0  0  0  0  0  0  0  0  0  0  0
    3.6477   -0.1596   -1.0635 C   0  0  0  0  0  0  0  0  0  0  0  0
    2.4518    0.2816   -1.5645 C   0  0  0  0  0  0  0  0  0  0  0  0
   -2.0035    0.6283   -0.4027 C   0  0  0  0  0  0  0  0  0  0  0  0
   -2.6072    1.6133    0.2403 O   0  0  0  0  0  0  0  0  0  0  0  0
   -2.7237   -0.6343   -0.2543 C   0  0  0  0  0  0  0  0  0  0  0  0
   -3.3252   -1.1813   -1.4404 N   0  0  0  0  0  0  0  0  0  0  0  0
   -2.8170   -2.2330   -2.0825 C   0  0  0  0  0  0  0  0  0  0  0  0
   -1.7245   -3.0826   -1.5196 C   0  0  0  0  0  0  0  0  0  0  0  0
   -3.3794   -2.5939   -3.3112 C   0  0  0  0  0  0  0  0  0  0  0  0
   -4.4316   -1.8583   -3.8085 C   0  0  0  0  0  0  0  0  0  0  0  0
   -4.9005   -2.2245   -4.9189 O   0  0  0  0  0  0  0  0  0  0  0  0
   -4.9367   -0.8071   -3.1547 N   0  0  0  0  0  0  0  0  0  0  0  0
   -4.3749   -0.4732   -1.9622 C   0  0  0  0  0  0  0  0  0  0  0  0
   -5.0713    0.8731   -1.0124 S   0  0  0  0  0  0  0  0  0  0  0  0
   -6.5113    0.3180   -0.1150 C   0  0  0  0  0  0  0  0  0  0  0  0
   -6.3017   -0.6684    0.9438 C   0  0  0  0  0  0  0  0  0  0  0  0
   -6.0604   -0.2960    2.2588 C   0  0  0  0  0  0  0  0  0  0  0  0
   -5.8655   -1.2341    3.2618 C   0  0  0  0  0  0  0  0  0  0  0  0
   -5.9066   -2.5808    2.9783 C   0  0  0  0  0  0  0  0  0  0  0  0
   -5.7183   -3.5213    3.9540 F   0  0  0  0  0  0  0  0  0  0  0  0
   -6.1458   -2.9633    1.6756 C   0  0  0  0  0  0  0  0  0  0  0  0
   -6.3377   -2.0221    0.6882 C   0  0  0  0  0  0  0  0  0  0  0  0
    2.8202    3.5864    3.0424 H   0  0  0  0  0  0  0  0  0  0  0  0
    1.5874    2.4515    2.4469 H   0  0  0  0  0  0  0  0  0  0  0  0
    3.0804    2.7510    1.4779 H   0  0  0  0  0  0  0  0  0  0  0  0
    2.4894    5.0517    1.0754 H   0  0  0  0  0  0  0  0  0  0  0  0
    1.1183    5.0170    2.2018 H   0  0  0  0  0  0  0  0  0  0  0  0
   -0.4931    4.7490   -1.1370 H   0  0  0  0  0  0  0  0  0  0  0  0
   -0.3586    5.7064    0.3865 H   0  0  0  0  0  0  0  0  0  0  0  0
    1.3717    6.8945   -0.5187 H   0  0  0  0  0  0  0  0  0  0  0  0
    0.9784    6.1352   -2.0817 H   0  0  0  0  0  0  0  0  0  0  0  0
    2.2363    5.4453   -1.0266 H   0  0  0  0  0  0  0  0  0  0  0  0
    1.2668    1.9983    0.2832 H   0  0  0  0  0  0  0  0  0  0  0  0
   -0.1732    2.4696    1.2098 H   0  0  0  0  0  0  0  0  0  0  0  0
   -1.3893    2.9994   -0.9197 H   0  0  0  0  0  0  0  0  0  0  0  0
    0.1241    2.7463   -1.8503 H   0  0  0  0  0  0  0  0  0  0  0  0
    0.2735    0.8672   -2.7425 H   0  0  0  0  0  0  0  0  0  0  0  0
   -0.5800   -0.5979   -2.3594 H   0  0  0  0  0  0  0  0  0  0  0  0
    0.3654   -1.8466   -0.0565 H   0  0  0  0  0  0  0  0  0  0  0  0
    2.5307   -2.6536    0.8480 H   0  0  0  0  0  0  0  0  0  0  0  0
    4.4433   -3.7276    0.4872 H   0  0  0  0  0  0  0  0  0  0  0  0
    6.6133   -4.5099    1.3842 H   0  0  0  0  0  0  0  0  0  0  0  0
    8.0387   -0.4903    1.2225 H   0  0  0  0  0  0  0  0  0  0  0  0
    5.8495    0.2472    0.3262 H   0  0  0  0  0  0  0  0  0  0  0  0
    4.6026    0.2972   -1.3233 H   0  0  0  0  0  0  0  0  0  0  0  0
    2.4027    1.1123   -2.2502 H   0  0  0  0  0  0  0  0  0  0  0  0
   -3.5747   -0.4763    0.4677 H   0  0  0  0  0  0  0  0  0  0  0  0
   -2.1031   -1.4039    0.2817 H   0  0  0  0  0  0  0  0  0  0  0  0
   -1.9288   -4.1702   -1.8363 H   0  0  0  0  0  0  0  0  0  0  0  0
   -0.7779   -2.8537   -1.9928 H   0  0  0  0  0  0  0  0  0  0  0  0
   -1.6955   -3.1422   -0.4359 H   0  0  0  0  0  0  0  0  0  0  0  0
   -2.9524   -3.4381   -3.8072 H   0  0  0  0  0  0  0  0  0  0  0  0
   -6.9956    1.2508    0.3165 H   0  0  0  0  0  0  0  0  0  0  0  0
   -7.2678   -0.0231   -0.8700 H   0  0  0  0  0  0  0  0  0  0  0  0
   -6.0228    0.7615    2.5136 H   0  0  0  0  0  0  0  0  0  0  0  0
   -5.6763   -0.9500    4.2968 H   0  0  0  0  0  0  0  0  0  0  0  0
   -6.1734   -4.0440    1.4739 H   0  0  0  0  0  0  0  0  0  0  0  0
   -6.5211   -2.3623   -0.3091 H   0  0  0  0  0  0  0  0  0  0  0  0
  1  2  1  0
  2  3  1  0
  3  4  1  0
  4  5  1  0
  3  6  1  0
  6  7  1  0
  7  8  1  0
  8  9  1  0
  9 10  1  0
 10 11  2  0
 11 12  1  0
 12 13  2  0
 13 14  1  0
 14 15  2  0
 15 16  1  0
 16 17  2  0
 17 18  1  0
 18 19  1  0
 18 20  1  0
 18 21  1  0
 17 22  1  0
 22 23  2  0
 13 24  1  0
 24 25  2  0
  8 26  1  0
 26 27  2  0
 26 28  1  0
 28 29  1  0
 29 30  1  0
 30 31  1  0
 30 32  2  0
 32 33  1  0
 33 34  2  0
 33 35  1  0
 35 36  2  0
 36 37  1  0
 37 38  1  0
 38 39  1  0
 39 40  2  0
 40 41  1  0
 41 42  2  0
 42 43  1  0
 42 44  1  0
 44 45  2  0
 25 10  1  0
 36 29  1  0
 45 39  1  0
 23 14  1  0
  1 46  1  0
  1 47  1  0
  1 48  1  0
  2 49  1  0
  2 50  1  0
  4 51  1  0
  4 52  1  0
  5 53  1  0
  5 54  1  0
  5 55  1  0
  6 56  1  0
  6 57  1  0
  7 58  1  0
  7 59  1  0
  9 60  1  0
  9 61  1  0
 11 62  1  0
 12 63  1  0
 15 64  1  0
 16 65  1  0
 22 66  1  0
 23 67  1  0
 24 68  1  0
 25 69  1  0
 28 70  1  0
 28 71  1  0
 31 72  1  0
 31 73  1  0
 31 74  1  0
 32 75  1  0
 38 76  1  0
 38 77  1  0
 40 78  1  0
 41 79  1  0
 44 80  1  0
 45 81  1  0
M  END
$$$$
