
     RDKit          3D

 44 46  0  0  0  0  0  0  0  0999 V2000
   -1.9827   -0.8827    1.2971 C   0  0  0  0  0  0  0  0  0  0  0  0
   -2.4118   -0.1198    0.0498 C   0  0  1  0  0  0  0  0  0  0  0  0
   -1.1960    0.4649   -0.6068 C   0  0  0  0  0  0  0  0  0  0  0  0
    0.0805    0.2407   -0.1781 C   0  0  0  0  0  0  0  0  0  0  0  0
    1.2210    0.7835   -0.7920 C   0  0  0  0  0  0  0  0  0  0  0  0
    2.4763    0.4794   -0.2583 N   0  0  0  0  0  0  0  0  0  0  0  0
    3.7095    0.9153   -0.7184 C   0  0  0  0  0  0  0  0  0  0  0  0
    3.8184    1.6601   -1.7054 O   0  0  0  0  0  0  0  0  0  0  0  0
    4.9647    0.5099   -0.0488 C   0  0  0  0  0  0  0  0  0  0  0  0
    6.1936    0.9178   -0.4714 C   0  0  0  0  0  0  0  0  0  0  0  0
    7.3733    0.5431    0.1493 C   0  0  0  0  0  0  0  0  0  0  0  0
    7.3092   -0.2790    1.2442 C   0  0  0  0  0  0  0  0  0  0  0  0
    8.9072   -0.8369    2.1525 Br  0  0  0  0  0  0  0  0  0  0  0  0
    6.0550   -0.6888    1.6667 C   0  0  0  0  0  0  0  0  0  0  0  0
    4.9276   -0.3065    1.0411 N   0  0  0  0  0  0  0  0  0  0  0  0
    1.0559    1.5872   -1.8870 C   0  0  0  0  0  0  0  0  0  0  0  0
   -0.2455    1.8283   -2.3410 C   0  0  0  0  0  0  0  0  0  0  0  0
   -0.4282    2.8692   -3.7563 Cl  0  0  0  0  0  0  0  0  0  0  0  0
   -1.3412    1.2784   -1.7130 C   0  0  0  0  0  0  0  0  0  0  0  0
   -2.5842    1.5464   -2.1966 F   0  0  0  0  0  0  0  0  0  0  0  0
   -3.0643   -1.0907   -0.8761 C   0  0  0  0  0  0  0  0  0  0  0  0
   -4.4863   -1.3616   -0.5462 C   0  0  1  0  0  0  0  0  0  0  0  0
   -4.8359   -2.7934   -0.2976 C   0  0  0  0  0  0  0  0  0  0  0  0
   -4.5646   -3.5829   -1.4172 F   0  0  0  0  0  0  0  0  0  0  0  0
   -4.1430   -3.3203    0.7464 F   0  0  0  0  0  0  0  0  0  0  0  0
   -6.1796   -2.9708   -0.0393 F   0  0  0  0  0  0  0  0  0  0  0  0
   -4.9517   -0.5942    0.5538 O   0  0  0  0  0  0  0  0  0  0  0  0
   -4.5076    0.7139    0.7483 C   0  0  0  0  0  0  0  0  0  0  0  0
   -5.4111    1.7173    1.1989 N   0  0  0  0  0  0  0  0  0  0  0  0
   -3.2682    0.9307    0.4984 N   0  0  0  0  0  0  0  0  0  0  0  0
   -2.8913   -1.2185    1.8388 H   0  0  0  0  0  0  0  0  0  0  0  0
   -1.3852   -0.1914    1.9090 H   0  0  0  0  0  0  0  0  0  0  0  0
   -1.3305   -1.7059    0.9640 H   0  0  0  0  0  0  0  0  0  0  0  0
    0.1999   -0.4048    0.6961 H   0  0  0  0  0  0  0  0  0  0  0  0
    2.5036   -0.1609    0.6026 H   0  0  0  0  0  0  0  0  0  0  0  0
    6.2509    1.5667   -1.3349 H   0  0  0  0  0  0  0  0  0  0  0  0
    8.3250    0.9073   -0.2426 H   0  0  0  0  0  0  0  0  0  0  0  0
    6.0525   -1.3438    2.5440 H   0  0  0  0  0  0  0  0  0  0  0  0
    1.8539    2.0532   -2.4324 H   0  0  0  0  0  0  0  0  0  0  0  0
   -2.9312   -0.7027   -1.9118 H   0  0  0  0  0  0  0  0  0  0  0  0
   -2.5242   -2.0651   -0.8651 H   0  0  0  0  0  0  0  0  0  0  0  0
   -5.1110   -1.0363   -1.4221 H   0  0  0  0  0  0  0  0  0  0  0  0
   -5.2378    2.7188    1.0505 H   0  0  0  0  0  0  0  0  0  0  0  0
   -6.2650    1.4246    1.6892 H   0  0  0  0  0  0  0  0  0  0  0  0
  2  1  1  1
  2  3  1  0
  3  4  2  0
  4  5  1  0
  5  6  1  0
  6  7  1  0
  7  8  2  0
  7  9  1  0
  9 10  2  0
 10 11  1  0
 11 12  2  0
 12 13  1  0
 12 14  1  0
 14 15  2  0
  5 16  2  0
 16 17  1  0
 17 18  1  0
 17 19  2  0
 19 20  1  0
  2 21  1  0
 21 22  1  0
 22 23  1  0
 23 24  1  0
 23 25  1  0
 23 26  1  0
 22 27  1  0
 27 28  1  0
 28 29  1  0
 28 30  2  0
 30  2  1  0
 19  3  1  0
 15  9  1  0
  1 31  1  0
  1 32  1  0
  1 33  1  0
  4 34  1  0
  6 35  1  0
 10 36  1  0
 11 37  1  0
 14 38  1  0
 16 39  1  0
 21 40  1  0
 21 41  1  0
 22 42  1  6
 29 43  1  0
 29 44  1  0
M  END
$$$$
