
     RDKit          3D

 24 26  0  0  0  0  0  0  0  0999 V2000
   -0.7039    0.4881   -2.8701 Cl  0  0  0  0  0  0  0  0  0  0  0  0
   -1.5528    0.3985   -1.3441 C   0  0  0  0  0  0  0  0  0  0  0  0
   -1.1534   -0.3933   -0.2927 C   0  0  0  0  0  0  0  0  0  0  0  0
    0.0246   -1.1409   -0.5600 N   0  0  0  0  0  0  0  0  0  0  0  0
    1.3459   -0.6751   -0.2927 C   0  0  0  0  0  0  0  0  0  0  0  0
    1.5966    0.1949    0.6240 N   0  0  0  0  0  0  0  0  0  0  0  0
    3.0169    0.4950    0.6893 C   0  0  0  0  0  0  0  0  0  0  0  0
    3.4866    0.0626   -0.6875 C   0  0  0  0  0  0  0  0  0  0  0  0
    2.5680   -1.0473   -0.9349 N   0  0  0  0  0  0  0  0  0  0  0  0
   -1.8535   -0.4155    0.8562 C   0  0  0  0  0  0  0  0  0  0  0  0
   -1.3809   -1.2744    1.9350 N   0  0  0  0  0  0  0  0  0  0  0  0
   -2.6315   -0.9266    3.1647 S   0  0  0  0  0  0  0  0  0  0  0  0
   -3.5995    0.1943    2.3097 N   0  0  0  0  0  0  0  0  0  0  0  0
   -2.9552    0.3518    0.9616 C   0  0  0  0  0  0  0  0  0  0  0  0
   -3.3809    1.1459   -0.0534 C   0  0  0  0  0  0  0  0  0  0  0  0
   -2.6649    1.1654   -1.2215 C   0  0  0  0  0  0  0  0  0  0  0  0
   -0.0771   -2.1088   -0.9860 H   0  0  0  0  0  0  0  0  0  0  0  0
    3.5556   -0.1964    1.4016 H   0  0  0  0  0  0  0  0  0  0  0  0
    3.2318    1.5569    0.9034 H   0  0  0  0  0  0  0  0  0  0  0  0
    4.5359   -0.2491   -0.7212 H   0  0  0  0  0  0  0  0  0  0  0  0
    3.2345    0.8340   -1.4583 H   0  0  0  0  0  0  0  0  0  0  0  0
    2.6584   -1.9707   -1.4531 H   0  0  0  0  0  0  0  0  0  0  0  0
   -4.2750    1.7059    0.1652 H   0  0  0  0  0  0  0  0  0  0  0  0
   -3.0262    1.8047   -2.0094 H   0  0  0  0  0  0  0  0  0  0  0  0
  1  2  1  0
  2  3  2  0
  3  4  1  0
  4  5  1  0
  5  6  2  0
  6  7  1  0
  7  8  1  0
  8  9  1  0
  3 10  1  0
 10 11  2  0
 11 12  1  0
 12 13  1  0
 13 14  2  0
 14 15  1  0
 15 16  2  0
 16  2  1  0
  9  5  1  0
 14 10  1  0
  4 17  1  0
  7 18  1  0
  7 19  1  0
  8 20  1  0
  8 21  1  0
  9 22  1  0
 15 23  1  0
 16 24  1  0
M  END
$$$$
