
     RDKit          3D

 50 51  0  0  0  0  0  0  0  0999 V2000
   -3.3921   -0.3118    0.1233 C   0  0  1  0  0  0  0  0  0  0  0  0
   -3.5656   -0.4093    1.5047 O   0  0  0  0  0  0  0  0  0  0  0  0
   -2.7538    0.8634   -0.1973 O   0  0  0  0  0  0  0  0  0  0  0  0
   -1.4063    0.9087    0.0805 C   0  0  2  0  0  0  0  0  0  0  0  0
   -0.9405    2.2774   -0.3775 C   0  0  0  0  0  0  0  0  0  0  0  0
   -1.6016    3.3017    0.2867 O   0  0  0  0  0  0  0  0  0  0  0  0
   -1.0690    4.8117   -0.2342 S   0  0  0  0  0  0  0  0  0  0  0  0
   -0.2113    5.4871    1.0491 O   0  0  0  0  0  1  0  0  0  0  0  0
   -0.1837    4.6821   -1.4266 O   0  0  0  0  0  0  0  0  0  0  0  0
   -2.1862    5.7306   -0.5702 O   0  0  0  0  0  0  0  0  0  0  0  0
   -0.6215   -0.1193   -0.6604 C   0  0  1  0  0  0  0  0  0  0  0  0
    0.4052   -0.5628    0.1874 O   0  0  0  0  0  0  0  0  0  0  0  0
    1.6624   -0.3122   -0.3283 C   0  0  2  0  0  0  0  0  0  0  0  0
    2.3542   -1.5226   -0.6363 O   0  0  0  0  0  0  0  0  0  0  0  0
    3.2265   -2.0845    0.2842 C   0  0  0  0  0  0  0  0  0  0  0  0
    3.6183   -1.4660    1.3869 C   0  0  0  0  0  0  0  0  0  0  0  0
    3.1314   -0.0985    1.7073 C   0  0  2  0  0  0  0  0  0  0  0  0
    2.2453   -0.1905    2.7778 O   0  0  0  0  0  0  0  0  0  0  0  0
    2.5023    0.5929    0.5205 C   0  0  1  0  0  0  0  0  0  0  0  0
    3.4605    1.1870   -0.3040 O   0  0  0  0  0  0  0  0  0  0  0  0
    3.3289    2.8416   -0.4010 S   0  0  0  0  0  0  0  0  0  0  0  0
    2.5549    3.5432    0.8905 O   0  0  0  0  0  1  0  0  0  0  0  0
    2.5210    3.1830   -1.6433 O   0  0  0  0  0  0  0  0  0  0  0  0
    4.7037    3.4013   -0.6495 O   0  0  0  0  0  0  0  0  0  0  0  0
    3.7265   -3.4265    0.0046 C   0  0  0  0  0  0  0  0  0  0  0  0
    3.3984   -4.1825   -1.1074 O   0  0  0  0  0  1  0  0  0  0  0  0
    4.5276   -4.0149    0.7926 O   0  0  0  0  0  0  0  0  0  0  0  0
   -1.4488   -1.2676   -1.1643 C   0  0  2  0  0  0  0  0  0  0  0  0
   -1.7022   -1.1607   -2.5323 O   0  0  0  0  0  0  0  0  0  0  0  0
   -2.6949   -1.5407   -0.3782 C   0  0  1  0  0  0  0  0  0  0  0  0
   -2.4724   -2.4951    0.6944 N   0  0  0  0  0  0  0  0  0  0  0  0
   -3.3849   -3.9362    0.3305 S   0  0  0  0  0  0  0  0  0  0  0  0
   -2.8591   -4.6251   -1.1075 O   0  0  0  0  0  1  0  0  0  0  0  0
   -3.3678   -4.8877    1.4793 O   0  0  0  0  0  0  0  0  0  0  0  0
   -4.8294   -3.5272    0.0745 O   0  0  0  0  0  0  0  0  0  0  0  0
   -4.4287   -0.2124   -0.2947 H   0  0  0  0  0  0  0  0  0  0  0  0
   -4.4618   -0.0658    1.8065 H   0  0  0  0  0  0  0  0  0  0  0  0
   -1.2033    0.8658    1.1719 H   0  0  0  0  0  0  0  0  0  0  0  0
   -1.2993    2.3474   -1.4453 H   0  0  0  0  0  0  0  0  0  0  0  0
    0.1415    2.3768   -0.4314 H   0  0  0  0  0  0  0  0  0  0  0  0
   -0.1143    0.3258   -1.5417 H   0  0  0  0  0  0  0  0  0  0  0  0
    1.5443    0.1948   -1.3177 H   0  0  0  0  0  0  0  0  0  0  0  0
    4.2920   -1.9368    2.0687 H   0  0  0  0  0  0  0  0  0  0  0  0
    4.0087    0.4600    2.0658 H   0  0  0  0  0  0  0  0  0  0  0  0
    1.4010    0.2728    2.5691 H   0  0  0  0  0  0  0  0  0  0  0  0
    1.8558    1.3954    0.9312 H   0  0  0  0  0  0  0  0  0  0  0  0
   -0.8151   -2.1875   -1.0462 H   0  0  0  0  0  0  0  0  0  0  0  0
   -1.3963   -0.2767   -2.8279 H   0  0  0  0  0  0  0  0  0  0  0  0
   -3.3832   -2.0503   -1.0876 H   0  0  0  0  0  0  0  0  0  0  0  0
   -2.8170   -2.1791    1.6198 H   0  0  0  0  0  0  0  0  0  0  0  0
  1  2  1  0
  1  3  1  0
  3  4  1  0
  4  5  1  0
  5  6  1  0
  6  7  1  0
  7  8  1  0
  7  9  2  0
  7 10  2  0
  4 11  1  0
 11 12  1  0
 12 13  1  0
 13 14  1  0
 14 15  1  0
 15 16  2  0
 16 17  1  0
 17 18  1  0
 17 19  1  0
 19 20  1  0
 20 21  1  0
 21 22  1  0
 21 23  2  0
 21 24  2  0
 15 25  1  0
 25 26  1  0
 25 27  2  0
 11 28  1  0
 28 29  1  0
 28 30  1  0
 30 31  1  0
 31 32  1  0
 32 33  1  0
 32 34  2  0
 32 35  2  0
 30  1  1  0
 19 13  1  0
  1 36  1  6
  2 37  1  0
  4 38  1  1
  5 39  1  0
  5 40  1  0
 11 41  1  6
 13 42  1  6
 16 43  1  0
 17 44  1  1
 18 45  1  0
 19 46  1  1
 28 47  1  6
 29 48  1  0
 30 49  1  6
 31 50  1  0
M  CHG  4   8  -1  22  -1  26  -1  33  -1
M  END
$$$$
