
     RDKit          3D

 68 73  0  0  0  0  0  0  0  0999 V2000
   -8.2540   -0.0060    2.0605 C   0  0  0  0  0  0  0  0  0  0  0  0
   -7.0547   -0.5451    1.4604 N   0  0  0  0  0  0  0  0  0  0  0  0
   -7.1724   -1.6920    0.5965 C   0  0  0  0  0  0  0  0  0  0  0  0
   -5.7654   -0.0008    1.6836 C   0  0  0  0  0  0  0  0  0  0  0  0
   -5.6709    0.9923    2.4416 O   0  0  0  0  0  0  0  0  0  0  0  0
   -4.5569   -0.5331    1.0837 C   0  0  0  0  0  0  0  0  0  0  0  0
   -3.8667   -1.6922    1.4701 C   0  0  0  0  0  0  0  0  0  0  0  0
   -2.7924   -1.8008    0.6159 C   0  0  0  0  0  0  0  0  0  0  0  0
   -1.7734   -2.7470    0.5229 C   0  0  0  0  0  0  0  0  0  0  0  0
   -0.8663   -2.5744   -0.4305 N   0  0  0  0  0  0  0  0  0  0  0  0
   -0.8766   -1.5524   -1.2959 C   0  0  0  0  0  0  0  0  0  0  0  0
    0.1436   -1.4896   -2.2733 N   0  0  0  0  0  0  0  0  0  0  0  0
    1.4618   -1.1862   -1.8712 C   0  0  0  0  0  0  0  0  0  0  0  0
    2.4665   -1.1012   -2.7960 C   0  0  0  0  0  0  0  0  0  0  0  0
    3.7736   -0.8262   -2.3834 C   0  0  0  0  0  0  0  0  0  0  0  0
    4.0888   -0.6355   -1.0693 C   0  0  0  0  0  0  0  0  0  0  0  0
    5.3614   -0.3337   -0.5444 N   0  0  0  0  0  0  0  0  0  0  0  0
    5.5639   -0.3618    0.8834 C   0  0  0  0  0  0  0  0  0  0  0  0
    6.9944   -0.6378    1.2927 C   0  0  2  0  0  0  0  0  0  0  0  0
    7.2511    0.2180    2.5278 C   0  0  0  0  0  0  0  0  0  0  0  0
    7.9011    1.4176    2.0791 N   0  0  0  0  0  0  0  0  0  0  0  0
    7.9510    1.3786    0.6276 C   0  0  0  0  0  0  0  0  0  0  0  0
    8.0266   -0.0921    0.3607 C   0  0  2  0  0  0  0  0  0  0  0  0
    7.8340   -0.4690   -1.0844 C   0  0  0  0  0  0  0  0  0  0  0  0
    6.4320   -0.0343   -1.4323 C   0  0  0  0  0  0  0  0  0  0  0  0
    6.2552    0.5790   -2.4974 O   0  0  0  0  0  0  0  0  0  0  0  0
    3.0226   -0.7328   -0.1678 C   0  0  0  0  0  0  0  0  0  0  0  0
    1.7554   -1.0011   -0.5790 N   0  0  0  0  0  0  0  0  0  0  0  0
   -1.8559   -0.6442   -1.2068 N   0  0  0  0  0  0  0  0  0  0  0  0
   -2.8137   -0.7462   -0.2697 C   0  0  0  0  0  0  0  0  0  0  0  0
   -3.9128    0.0169    0.0428 N   0  0  0  0  0  0  0  0  0  0  0  0
   -4.2316    1.1835   -0.6997 C   0  0  0  0  0  0  0  0  0  0  0  0
   -3.8252    2.4875   -0.1036 C   0  0  0  0  0  0  0  0  0  0  0  0
   -4.4957    3.4751   -1.0597 C   0  0  0  0  0  0  0  0  0  0  0  0
   -5.5973    2.7310   -1.7642 C   0  0  0  0  0  0  0  0  0  0  0  0
   -5.6914    1.4024   -0.9951 C   0  0  0  0  0  0  0  0  0  0  0  0
   -8.8272   -0.8055    2.5775 H   0  0  0  0  0  0  0  0  0  0  0  0
   -8.8739    0.3853    1.2237 H   0  0  0  0  0  0  0  0  0  0  0  0
   -8.0271    0.8480    2.7224 H   0  0  0  0  0  0  0  0  0  0  0  0
   -6.4139   -1.6815   -0.2253 H   0  0  0  0  0  0  0  0  0  0  0  0
   -8.1527   -1.7951    0.1291 H   0  0  0  0  0  0  0  0  0  0  0  0
   -6.9820   -2.6355    1.1618 H   0  0  0  0  0  0  0  0  0  0  0  0
   -4.1286   -2.3472    2.2636 H   0  0  0  0  0  0  0  0  0  0  0  0
   -1.8006   -3.5447    1.2326 H   0  0  0  0  0  0  0  0  0  0  0  0
   -0.0833   -1.6671   -3.2870 H   0  0  0  0  0  0  0  0  0  0  0  0
    2.2889   -1.2387   -3.8678 H   0  0  0  0  0  0  0  0  0  0  0  0
    4.5660   -0.7672   -3.1217 H   0  0  0  0  0  0  0  0  0  0  0  0
    5.1690    0.5815    1.3044 H   0  0  0  0  0  0  0  0  0  0  0  0
    4.9720   -1.1893    1.3819 H   0  0  0  0  0  0  0  0  0  0  0  0
    7.1554   -1.7206    1.5225 H   0  0  0  0  0  0  0  0  0  0  0  0
    6.2940    0.3951    3.0576 H   0  0  0  0  0  0  0  0  0  0  0  0
    7.9011   -0.4026    3.1938 H   0  0  0  0  0  0  0  0  0  0  0  0
    8.9091    1.3538    2.4093 H   0  0  0  0  0  0  0  0  0  0  0  0
    6.9460    1.7237    0.2837 H   0  0  0  0  0  0  0  0  0  0  0  0
    8.7721    1.9566    0.2115 H   0  0  0  0  0  0  0  0  0  0  0  0
    9.0074   -0.5024    0.6720 H   0  0  0  0  0  0  0  0  0  0  0  0
    8.5788    0.0667   -1.6756 H   0  0  0  0  0  0  0  0  0  0  0  0
    7.8672   -1.5489   -1.1696 H   0  0  0  0  0  0  0  0  0  0  0  0
    3.1534   -0.5961    0.8880 H   0  0  0  0  0  0  0  0  0  0  0  0
   -3.7431    1.1562   -1.7240 H   0  0  0  0  0  0  0  0  0  0  0  0
   -2.7169    2.6489   -0.1076 H   0  0  0  0  0  0  0  0  0  0  0  0
   -4.1574    2.6734    0.9170 H   0  0  0  0  0  0  0  0  0  0  0  0
   -3.7259    3.7918   -1.8060 H   0  0  0  0  0  0  0  0  0  0  0  0
   -4.8435    4.3688   -0.5389 H   0  0  0  0  0  0  0  0  0  0  0  0
   -6.5880    3.2562   -1.6882 H   0  0  0  0  0  0  0  0  0  0  0  0
   -5.3276    2.4948   -2.7922 H   0  0  0  0  0  0  0  0  0  0  0  0
   -6.3196    1.6253   -0.1360 H   0  0  0  0  0  0  0  0  0  0  0  0
   -6.0791    0.6693   -1.6978 H   0  0  0  0  0  0  0  0  0  0  0  0
  1  2  1  0
  2  3  1  0
  2  4  1  0
  4  5  2  0
  4  6  1  0
  6  7  2  0
  7  8  1  0
  8  9  2  0
  9 10  1  0
 10 11  2  0
 11 12  1  0
 12 13  1  0
 13 14  2  0
 14 15  1  0
 15 16  2  0
 16 17  1  0
 17 18  1  0
 18 19  1  0
 19 20  1  0
 20 21  1  0
 21 22  1  0
 22 23  1  0
 23 24  1  0
 24 25  1  0
 25 26  2  0
 16 27  1  0
 27 28  2  0
 11 29  1  0
 29 30  2  0
 30 31  1  0
 31 32  1  0
 32 33  1  0
 33 34  1  0
 34 35  1  0
 35 36  1  0
 31  6  1  0
 36 32  1  0
 30  8  1  0
 28 13  1  0
 25 17  1  0
 23 19  1  0
  1 37  1  0
  1 38  1  0
  1 39  1  0
  3 40  1  0
  3 41  1  0
  3 42  1  0
  7 43  1  0
  9 44  1  0
 12 45  1  0
 14 46  1  0
 15 47  1  0
 18 48  1  0
 18 49  1  0
 19 50  1  1
 20 51  1  0
 20 52  1  0
 21 53  1  0
 22 54  1  0
 22 55  1  0
 23 56  1  1
 24 57  1  0
 24 58  1  0
 27 59  1  0
 32 60  1  0
 33 61  1  0
 33 62  1  0
 34 63  1  0
 34 64  1  0
 35 65  1  0
 35 66  1  0
 36 67  1  0
 36 68  1  0
M  END
$$$$
