
     RDKit          3D

 70 74  0  0  0  0  0  0  0  0999 V2000
   -8.1299    2.5648   -2.4621 C   0  0  0  0  0  0  0  0  0  0  0  0
   -7.8169    2.2031   -1.2623 O   0  0  0  0  0  0  0  0  0  0  0  0
   -7.9159    1.9552   -0.0051 C   0  0  0  0  0  0  0  0  0  0  0  0
   -9.0453    2.1269    0.7778 N   0  0  0  0  0  0  0  0  0  0  0  0
   -8.8186    1.7834    2.0028 N   0  0  0  0  0  0  0  0  0  0  0  0
   -9.7791    1.8304    3.1091 C   0  0  0  0  0  0  0  0  0  0  0  0
   -7.5429    1.3717    2.0938 C   0  0  0  0  0  0  0  0  0  0  0  0
   -6.9312    1.4558    0.8791 C   0  0  0  0  0  0  0  0  0  0  0  0
   -5.6243    1.1547    0.4610 N   0  0  0  0  0  0  0  0  0  0  0  0
   -4.6347    0.6091    1.3501 C   0  0  0  0  0  0  0  0  0  0  0  0
   -4.9251    0.3174    2.6260 N   0  0  0  0  0  0  0  0  0  0  0  0
   -4.0261   -0.1942    3.4753 C   0  0  0  0  0  0  0  0  0  0  0  0
   -2.7082   -0.4510    3.0552 C   0  0  0  0  0  0  0  0  0  0  0  0
   -1.7431   -1.0086    4.0487 C   0  0  0  0  0  0  0  0  0  0  0  0
   -2.4073   -0.1561    1.7572 C   0  0  0  0  0  0  0  0  0  0  0  0
   -1.1017   -0.3449    1.1813 C   0  0  0  0  0  0  0  0  0  0  0  0
    0.0221   -0.9271    1.6694 C   0  0  0  0  0  0  0  0  0  0  0  0
    1.0361   -0.9123    0.7659 N   0  0  0  0  0  0  0  0  0  0  0  0
    0.5657   -0.3053   -0.3492 C   0  0  0  0  0  0  0  0  0  0  0  0
    1.2606   -0.0570   -1.5426 C   0  0  0  0  0  0  0  0  0  0  0  0
    2.6058   -0.4825   -1.6627 N   0  0  0  0  0  0  0  0  0  0  0  0
    3.4802   -0.2154   -2.7228 C   0  0  0  0  0  0  0  0  0  0  0  0
    3.0757    0.4670   -3.6899 O   0  0  0  0  0  0  0  0  0  0  0  0
    4.9064   -0.7208   -2.7471 C   0  0  1  0  0  0  0  0  0  0  0  0
    5.7742    0.5173   -2.9526 C   0  0  0  0  0  0  0  0  0  0  0  0
    5.3229   -1.4046   -1.5975 N   0  0  0  0  0  0  0  0  0  0  0  0
    5.3761   -0.7219   -0.3615 C   0  0  0  0  0  0  0  0  0  0  0  0
    6.8261   -0.4629    0.0134 C   0  0  0  0  0  0  0  0  0  0  0  0
    7.4802   -1.7353    0.0505 N   0  0  0  0  0  0  0  0  0  0  0  0
    8.7621   -1.7452    0.6868 C   0  0  0  0  0  0  0  0  0  0  0  0
    7.5553   -2.2541   -1.2976 C   0  0  0  0  0  0  0  0  0  0  0  0
    6.1416   -2.5553   -1.7528 C   0  0  0  0  0  0  0  0  0  0  0  0
    0.5399    0.5867   -2.5151 C   0  0  0  0  0  0  0  0  0  0  0  0
   -0.7908    0.9579   -2.3066 C   0  0  0  0  0  0  0  0  0  0  0  0
   -1.4195    0.6972   -1.1366 C   0  0  0  0  0  0  0  0  0  0  0  0
   -0.7384    0.0492   -0.1181 C   0  0  0  0  0  0  0  0  0  0  0  0
   -3.3940    0.3653    0.9570 N   0  0  0  0  0  0  0  0  0  0  0  0
   -7.3495    3.2903   -2.8921 H   0  0  0  0  0  0  0  0  0  0  0  0
   -9.0732    3.1989   -2.5682 H   0  0  0  0  0  0  0  0  0  0  0  0
   -8.2054    1.7428   -3.2482 H   0  0  0  0  0  0  0  0  0  0  0  0
   -9.8901    0.8046    3.5460 H   0  0  0  0  0  0  0  0  0  0  0  0
  -10.7578    2.1463    2.7119 H   0  0  0  0  0  0  0  0  0  0  0  0
   -9.4632    2.5786    3.8638 H   0  0  0  0  0  0  0  0  0  0  0  0
   -7.0845    1.0256    3.0141 H   0  0  0  0  0  0  0  0  0  0  0  0
   -5.3430    1.3212   -0.5219 H   0  0  0  0  0  0  0  0  0  0  0  0
   -4.2663   -0.4312    4.5048 H   0  0  0  0  0  0  0  0  0  0  0  0
   -1.4343   -2.0455    3.8432 H   0  0  0  0  0  0  0  0  0  0  0  0
   -2.3090   -1.1144    5.0317 H   0  0  0  0  0  0  0  0  0  0  0  0
   -0.8868   -0.3576    4.1927 H   0  0  0  0  0  0  0  0  0  0  0  0
    0.1939   -1.3827    2.6243 H   0  0  0  0  0  0  0  0  0  0  0  0
    1.9909   -1.2917    0.8968 H   0  0  0  0  0  0  0  0  0  0  0  0
    2.9769   -1.0765   -0.8543 H   0  0  0  0  0  0  0  0  0  0  0  0
    5.0622   -1.3566   -3.6497 H   0  0  0  0  0  0  0  0  0  0  0  0
    5.7052    1.2070   -2.0882 H   0  0  0  0  0  0  0  0  0  0  0  0
    6.8364    0.2542   -3.0909 H   0  0  0  0  0  0  0  0  0  0  0  0
    5.4823    1.0427   -3.9029 H   0  0  0  0  0  0  0  0  0  0  0  0
    4.9070   -1.2701    0.4838 H   0  0  0  0  0  0  0  0  0  0  0  0
    4.8906    0.2681   -0.4619 H   0  0  0  0  0  0  0  0  0  0  0  0
    6.8015   -0.0061    1.0235 H   0  0  0  0  0  0  0  0  0  0  0  0
    7.3031    0.2037   -0.7033 H   0  0  0  0  0  0  0  0  0  0  0  0
    9.5940   -1.8719   -0.0391 H   0  0  0  0  0  0  0  0  0  0  0  0
    8.9450   -0.8984    1.3654 H   0  0  0  0  0  0  0  0  0  0  0  0
    8.7896   -2.6768    1.3255 H   0  0  0  0  0  0  0  0  0  0  0  0
    8.2004   -3.1744   -1.3018 H   0  0  0  0  0  0  0  0  0  0  0  0
    7.9813   -1.4817   -1.9691 H   0  0  0  0  0  0  0  0  0  0  0  0
    5.7620   -3.4603   -1.2434 H   0  0  0  0  0  0  0  0  0  0  0  0
    6.1824   -2.8036   -2.8375 H   0  0  0  0  0  0  0  0  0  0  0  0
    0.9981    0.8101   -3.4631 H   0  0  0  0  0  0  0  0  0  0  0  0
   -1.3165    1.4628   -3.1065 H   0  0  0  0  0  0  0  0  0  0  0  0
   -2.4615    0.9838   -0.9634 H   0  0  0  0  0  0  0  0  0  0  0  0
  1  2  1  0
  2  3  1  0
  3  4  2  0
  4  5  1  0
  5  6  1  0
  5  7  1  0
  7  8  2  0
  8  9  1  0
  9 10  1  0
 10 11  2  0
 11 12  1  0
 12 13  2  0
 13 14  1  0
 13 15  1  0
 15 16  1  0
 16 17  2  0
 17 18  1  0
 18 19  1  0
 19 20  2  0
 20 21  1  0
 21 22  1  0
 22 23  2  0
 22 24  1  0
 24 25  1  0
 24 26  1  0
 26 27  1  0
 27 28  1  0
 28 29  1  0
 29 30  1  0
 29 31  1  0
 31 32  1  0
 20 33  1  0
 33 34  2  0
 34 35  1  0
 35 36  2  0
 15 37  2  0
  8  3  1  0
 37 10  1  0
 36 16  1  0
 36 19  1  0
 32 26  1  0
  1 38  1  0
  1 39  1  0
  1 40  1  0
  6 41  1  0
  6 42  1  0
  6 43  1  0
  7 44  1  0
  9 45  1  0
 12 46  1  0
 14 47  1  0
 14 48  1  0
 14 49  1  0
 17 50  1  0
 18 51  1  0
 21 52  1  0
 24 53  1  6
 25 54  1  0
 25 55  1  0
 25 56  1  0
 27 57  1  0
 27 58  1  0
 28 59  1  0
 28 60  1  0
 30 61  1  0
 30 62  1  0
 30 63  1  0
 31 64  1  0
 31 65  1  0
 32 66  1  0
 32 67  1  0
 33 68  1  0
 34 69  1  0
 35 70  1  0
M  END
$$$$
