
     RDKit          3D

 50 54  0  0  0  0  0  0  0  0999 V2000
    4.0393   -3.7923    0.8223 O   0  0  0  0  0  0  0  0  0  0  0  0
    2.8050   -3.6338    0.5666 C   0  0  0  0  0  0  0  0  0  0  0  0
    1.8655   -4.5756    0.7202 N   0  0  0  0  0  0  0  0  0  0  0  0
    0.7423   -4.0175    0.3518 N   0  0  0  0  0  0  0  0  0  0  0  0
    0.9367   -2.7429   -0.0340 C   0  0  0  0  0  0  0  0  0  0  0  0
   -0.0331   -1.7732   -0.5120 C   0  0  0  0  0  0  0  0  0  0  0  0
   -0.1771   -1.4870   -1.8520 C   0  0  0  0  0  0  0  0  0  0  0  0
   -1.1198   -0.5476   -2.2882 C   0  0  0  0  0  0  0  0  0  0  0  0
   -1.8945    0.0859   -1.4110 N   0  0  0  0  0  0  0  0  0  0  0  0
   -1.7903   -0.1602   -0.0926 C   0  0  0  0  0  0  0  0  0  0  0  0
   -2.6309    0.5334    0.8041 N   0  0  0  0  0  0  0  0  0  0  0  0
   -3.5832    1.4892    0.3027 C   0  0  0  0  0  0  0  0  0  0  0  0
   -4.5811    0.8335   -0.6608 C   0  0  0  0  0  0  0  0  0  0  0  0
   -5.9849    0.9001   -0.0892 C   0  0  0  0  0  0  0  0  0  0  0  0
   -6.0571    0.4600    1.3371 C   0  0  0  0  0  0  0  0  0  0  0  0
   -5.0064    0.9604    2.0980 O   0  0  0  0  0  0  0  0  0  0  0  0
   -4.3783    2.0360    1.4491 C   0  0  0  0  0  0  0  0  0  0  0  0
   -0.8524   -1.0966    0.3566 C   0  0  0  0  0  0  0  0  0  0  0  0
    2.2503   -2.5031    0.1043 N   0  0  0  0  0  0  0  0  0  0  0  0
    2.9661   -1.3098   -0.1688 C   0  0  0  0  0  0  0  0  0  0  0  0
    3.1334   -0.9414   -1.4815 C   0  0  0  0  0  0  0  0  0  0  0  0
    3.8387    0.2316   -1.7110 C   0  0  0  0  0  0  0  0  0  0  0  0
    4.3520    0.9991   -0.6710 C   0  0  0  0  0  0  0  0  0  0  0  0
    5.0533    2.1665   -0.9135 C   0  0  0  0  0  0  0  0  0  0  0  0
    5.5680    2.9376    0.1080 C   0  0  0  0  0  0  0  0  0  0  0  0
    5.3941    2.5578    1.4320 C   0  0  0  0  0  0  0  0  0  0  0  0
    4.6935    1.3926    1.6584 C   0  0  0  0  0  0  0  0  0  0  0  0
    4.1771    0.6183    0.6421 C   0  0  0  0  0  0  0  0  0  0  0  0
    3.4692   -0.5589    0.8692 C   0  0  0  0  0  0  0  0  0  0  0  0
    1.9692   -5.5706    1.0636 H   0  0  0  0  0  0  0  0  0  0  0  0
    0.4125   -1.9602   -2.5997 H   0  0  0  0  0  0  0  0  0  0  0  0
   -1.2040   -0.3496   -3.3456 H   0  0  0  0  0  0  0  0  0  0  0  0
   -2.5700    0.3614    1.8276 H   0  0  0  0  0  0  0  0  0  0  0  0
   -3.1019    2.3033   -0.2803 H   0  0  0  0  0  0  0  0  0  0  0  0
   -4.5938    1.3058   -1.6411 H   0  0  0  0  0  0  0  0  0  0  0  0
   -4.2531   -0.2121   -0.7814 H   0  0  0  0  0  0  0  0  0  0  0  0
   -6.6036    0.2124   -0.7040 H   0  0  0  0  0  0  0  0  0  0  0  0
   -6.3685    1.9114   -0.2140 H   0  0  0  0  0  0  0  0  0  0  0  0
   -6.0732   -0.6542    1.4156 H   0  0  0  0  0  0  0  0  0  0  0  0
   -7.0076    0.8743    1.7697 H   0  0  0  0  0  0  0  0  0  0  0  0
   -3.6304    2.4239    2.1996 H   0  0  0  0  0  0  0  0  0  0  0  0
   -5.0775    2.8359    1.1764 H   0  0  0  0  0  0  0  0  0  0  0  0
   -0.8018   -1.2633    1.4186 H   0  0  0  0  0  0  0  0  0  0  0  0
    2.7532   -1.5049   -2.3223 H   0  0  0  0  0  0  0  0  0  0  0  0
    3.9801    0.5369   -2.7365 H   0  0  0  0  0  0  0  0  0  0  0  0
    5.1693    2.4319   -1.9643 H   0  0  0  0  0  0  0  0  0  0  0  0
    6.1177    3.8554   -0.1206 H   0  0  0  0  0  0  0  0  0  0  0  0
    5.7948    3.1570    2.2423 H   0  0  0  0  0  0  0  0  0  0  0  0
    4.5547    1.0913    2.6876 H   0  0  0  0  0  0  0  0  0  0  0  0
    3.3383   -0.8481    1.9127 H   0  0  0  0  0  0  0  0  0  0  0  0
  1  2  2  0
  2  3  1  0
  3  4  1  0
  4  5  2  0
  5  6  1  0
  6  7  2  0
  7  8  1  0
  8  9  2  0
  9 10  1  0
 10 11  1  0
 11 12  1  0
 12 13  1  0
 13 14  1  0
 14 15  1  0
 15 16  1  0
 16 17  1  0
 10 18  2  0
  5 19  1  0
 19 20  1  0
 20 21  2  0
 21 22  1  0
 22 23  2  0
 23 24  1  0
 24 25  2  0
 25 26  1  0
 26 27  2  0
 27 28  1  0
 28 29  2  0
 19  2  1  0
 29 20  1  0
 18  6  1  0
 28 23  1  0
 17 12  1  0
  3 30  1  0
  7 31  1  0
  8 32  1  0
 11 33  1  0
 12 34  1  0
 13 35  1  0
 13 36  1  0
 14 37  1  0
 14 38  1  0
 15 39  1  0
 15 40  1  0
 17 41  1  0
 17 42  1  0
 18 43  1  0
 21 44  1  0
 22 45  1  0
 24 46  1  0
 25 47  1  0
 26 48  1  0
 27 49  1  0
 29 50  1  0
M  END
$$$$
