
     RDKit          3D

 56 60  0  0  0  0  0  0  0  0999 V2000
   -6.1587    0.0657    1.8590 C   0  0  0  0  0  0  0  0  0  0  0  0
   -5.9661    0.7938    0.5536 C   0  0  1  0  0  0  0  0  0  0  0  0
   -6.9047    1.9771    0.4661 C   0  0  0  0  0  0  0  0  0  0  0  0
   -5.7149    2.7521    0.9596 C   0  0  0  0  0  0  0  0  0  0  0  0
   -4.8615    1.7026    0.4758 N   0  0  0  0  0  0  0  0  0  0  0  0
   -3.5079    1.5987    0.0841 C   0  0  0  0  0  0  0  0  0  0  0  0
   -2.7587    2.6287    0.1279 O   0  0  0  0  0  0  0  0  0  0  0  0
   -2.8808    0.3539   -0.3844 C   0  0  2  0  0  0  0  0  0  0  0  0
   -2.7924   -0.8461    0.4867 C   0  0  0  0  0  0  0  0  0  0  0  0
   -1.5865   -0.1182    0.0963 C   0  0  1  0  0  0  0  0  0  0  0  0
   -0.5974   -0.5783   -0.9271 C   0  0  1  0  0  0  0  0  0  0  0  0
   -0.1304    0.6764   -1.6616 C   0  0  0  0  0  0  0  0  0  0  0  0
    0.5925   -1.1769   -0.2712 C   0  0  0  0  0  0  0  0  0  0  0  0
    1.8310   -0.5968   -0.3803 C   0  0  0  0  0  0  0  0  0  0  0  0
    2.9747   -1.1487    0.2210 C   0  0  0  0  0  0  0  0  0  0  0  0
    4.2659   -0.4935    0.0679 C   0  0  0  0  0  0  0  0  0  0  0  0
    5.1727   -0.4214    1.0214 C   0  0  0  0  0  0  0  0  0  0  0  0
    4.9314   -0.9697    2.2153 F   0  0  0  0  0  0  0  0  0  0  0  0
    6.4662    0.2618    0.7963 C   0  0  0  0  0  0  0  0  0  0  0  0
    7.3994    0.3267    1.8039 C   0  0  0  0  0  0  0  0  0  0  0  0
    8.6209    0.9548    1.6400 C   0  0  0  0  0  0  0  0  0  0  0  0
    8.9146    1.5401    0.4156 C   0  0  0  0  0  0  0  0  0  0  0  0
   10.4321    2.3607    0.1075 Cl  0  0  0  0  0  0  0  0  0  0  0  0
    7.9413    1.4431   -0.5553 C   0  0  0  0  0  0  0  0  0  0  0  0
    6.7677    0.8308   -0.3739 N   0  0  0  0  0  0  0  0  0  0  0  0
    2.8766   -2.3104    0.9501 C   0  0  0  0  0  0  0  0  0  0  0  0
    1.6395   -2.9089    1.0718 C   0  0  0  0  0  0  0  0  0  0  0  0
    0.5266   -2.3468    0.4704 C   0  0  0  0  0  0  0  0  0  0  0  0
   -0.6810   -2.9388    0.5917 F   0  0  0  0  0  0  0  0  0  0  0  0
   -1.0880   -1.5691   -1.8526 N   0  0  0  0  0  0  0  0  0  0  0  0
   -2.2000   -1.4884   -2.4775 C   0  0  0  0  0  0  0  0  0  0  0  0
   -2.6303   -2.4826   -3.3699 N   0  0  0  0  0  0  0  0  0  0  0  0
   -3.1935   -0.0406   -2.1453 S   0  0  0  0  0  0  0  0  0  0  0  0
   -5.9349    0.6541    2.7459 H   0  0  0  0  0  0  0  0  0  0  0  0
   -5.5988   -0.8927    1.9010 H   0  0  0  0  0  0  0  0  0  0  0  0
   -7.2466   -0.2114    1.9140 H   0  0  0  0  0  0  0  0  0  0  0  0
   -6.0620    0.0666   -0.2797 H   0  0  0  0  0  0  0  0  0  0  0  0
   -7.1441    2.1978   -0.5858 H   0  0  0  0  0  0  0  0  0  0  0  0
   -7.7658    1.9455    1.1633 H   0  0  0  0  0  0  0  0  0  0  0  0
   -5.6821    2.9488    2.0470 H   0  0  0  0  0  0  0  0  0  0  0  0
   -5.6512    3.7164    0.4143 H   0  0  0  0  0  0  0  0  0  0  0  0
   -3.0655   -1.8332    0.0658 H   0  0  0  0  0  0  0  0  0  0  0  0
   -3.1818   -0.7058    1.5165 H   0  0  0  0  0  0  0  0  0  0  0  0
   -1.0960    0.4963    0.9055 H   0  0  0  0  0  0  0  0  0  0  0  0
   -0.9950    1.2111   -2.1360 H   0  0  0  0  0  0  0  0  0  0  0  0
    0.6149    0.4851   -2.4329 H   0  0  0  0  0  0  0  0  0  0  0  0
    0.2524    1.3702   -0.8857 H   0  0  0  0  0  0  0  0  0  0  0  0
    1.9645    0.3171   -0.9442 H   0  0  0  0  0  0  0  0  0  0  0  0
    4.4854   -0.0400   -0.8960 H   0  0  0  0  0  0  0  0  0  0  0  0
    7.1472   -0.1357    2.7480 H   0  0  0  0  0  0  0  0  0  0  0  0
    9.3583    1.0092    2.4303 H   0  0  0  0  0  0  0  0  0  0  0  0
    8.1580    1.8968   -1.5160 H   0  0  0  0  0  0  0  0  0  0  0  0
    3.7507   -2.7482    1.4160 H   0  0  0  0  0  0  0  0  0  0  0  0
    1.6020   -3.8240    1.6532 H   0  0  0  0  0  0  0  0  0  0  0  0
   -3.0793   -2.2373   -4.2816 H   0  0  0  0  0  0  0  0  0  0  0  0
   -2.5309   -3.5184   -3.1822 H   0  0  0  0  0  0  0  0  0  0  0  0
  1  2  1  0
  2  3  1  0
  3  4  1  0
  4  5  1  0
  5  6  1  0
  6  7  2  0
  8  6  1  1
  8  9  1  0
  9 10  1  0
 10 11  1  0
 11 12  1  6
 11 13  1  0
 13 14  2  0
 14 15  1  0
 15 16  1  0
 16 17  2  0
 17 18  1  0
 17 19  1  0
 19 20  2  0
 20 21  1  0
 21 22  2  0
 22 23  1  0
 22 24  1  0
 24 25  2  0
 15 26  2  0
 26 27  1  0
 27 28  2  0
 28 29  1  0
 11 30  1  0
 30 31  2  0
 31 32  1  0
 31 33  1  0
  5  2  1  0
 10  8  1  0
 28 13  1  0
 33  8  1  0
 25 19  1  0
  1 34  1  0
  1 35  1  0
  1 36  1  0
  2 37  1  6
  3 38  1  0
  3 39  1  0
  4 40  1  0
  4 41  1  0
  9 42  1  0
  9 43  1  0
 10 44  1  1
 12 45  1  0
 12 46  1  0
 12 47  1  0
 14 48  1  0
 16 49  1  0
 20 50  1  0
 21 51  1  0
 24 52  1  0
 26 53  1  0
 27 54  1  0
 32 55  1  0
 32 56  1  0
M  END
$$$$
