
     RDKit          3D

 48 51  0  0  0  0  0  0  0  0999 V2000
    5.6245   -1.1476   -2.5738 C   0  0  0  0  0  0  0  0  0  0  0  0
    5.0794   -0.4882   -1.3474 C   0  0  0  0  0  0  0  0  0  0  0  0
    5.8619   -0.0066   -0.3475 C   0  0  0  0  0  0  0  0  0  0  0  0
    5.2560    0.5829    0.7385 C   0  0  0  0  0  0  0  0  0  0  0  0
    6.0919    1.1006    1.8129 C   0  0  0  0  0  0  0  0  0  0  0  0
    7.3339    0.9954    1.7193 O   0  0  0  0  0  0  0  0  0  0  0  0
    5.5544    1.7074    2.9382 O   0  0  0  0  0  0  0  0  0  0  0  0
    3.9011    0.6739    0.7947 N   0  0  0  0  0  0  0  0  0  0  0  0
    3.1117    0.2002   -0.1906 C   0  0  0  0  0  0  0  0  0  0  0  0
    1.7071    0.2863   -0.1483 N   0  0  0  0  0  0  0  0  0  0  0  0
    0.8932    0.8575    0.8821 C   0  0  0  0  0  0  0  0  0  0  0  0
   -0.2787   -0.0679    0.9237 C   0  0  1  0  0  0  0  0  0  0  0  0
   -1.6163    0.6819    0.8058 C   0  0  0  0  0  0  0  0  0  0  0  0
   -2.4714   -0.4016    0.2375 C   0  0  1  0  0  0  0  0  0  0  0  0
   -3.8273   -0.0670   -0.1253 C   0  0  0  0  0  0  0  0  0  0  0  0
   -4.1015    0.5863   -1.3071 C   0  0  0  0  0  0  0  0  0  0  0  0
   -5.4120    0.9230   -1.6634 C   0  0  0  0  0  0  0  0  0  0  0  0
   -6.4526    0.6090   -0.8422 C   0  0  0  0  0  0  0  0  0  0  0  0
   -6.1960   -0.0391    0.3331 C   0  0  0  0  0  0  0  0  0  0  0  0
   -4.8832   -0.3740    0.6853 C   0  0  0  0  0  0  0  0  0  0  0  0
   -4.6943   -1.0731    1.9505 C   0  0  0  0  0  0  0  0  0  0  0  0
   -3.8906   -0.3322    2.7847 F   0  0  0  0  0  0  0  0  0  0  0  0
   -4.2381   -2.3685    1.8037 F   0  0  0  0  0  0  0  0  0  0  0  0
   -5.9039   -1.2073    2.6533 F   0  0  0  0  0  0  0  0  0  0  0  0
   -1.6129   -0.8076   -0.9734 C   0  0  0  0  0  0  0  0  0  0  0  0
   -0.2337   -0.9120   -0.3236 C   0  0  1  0  0  0  0  0  0  0  0  0
    0.8097   -0.1951   -1.1561 C   0  0  0  0  0  0  0  0  0  0  0  0
    3.7593   -0.3755   -1.2461 N   0  0  0  0  0  0  0  0  0  0  0  0
    4.9872   -0.8739   -3.4426 H   0  0  0  0  0  0  0  0  0  0  0  0
    6.6556   -0.8464   -2.7822 H   0  0  0  0  0  0  0  0  0  0  0  0
    5.5246   -2.2638   -2.4520 H   0  0  0  0  0  0  0  0  0  0  0  0
    6.9333   -0.1068   -0.4466 H   0  0  0  0  0  0  0  0  0  0  0  0
    6.0961    2.3692    3.4997 H   0  0  0  0  0  0  0  0  0  0  0  0
    0.5403    1.8932    0.6055 H   0  0  0  0  0  0  0  0  0  0  0  0
    1.4147    0.9498    1.8512 H   0  0  0  0  0  0  0  0  0  0  0  0
   -0.2988   -0.6875    1.8422 H   0  0  0  0  0  0  0  0  0  0  0  0
   -1.4942    1.4968    0.0574 H   0  0  0  0  0  0  0  0  0  0  0  0
   -1.8471    1.0414    1.7955 H   0  0  0  0  0  0  0  0  0  0  0  0
   -2.3821   -1.2853    0.9191 H   0  0  0  0  0  0  0  0  0  0  0  0
   -3.3516    0.8797   -2.0261 H   0  0  0  0  0  0  0  0  0  0  0  0
   -5.6239    1.4417   -2.6029 H   0  0  0  0  0  0  0  0  0  0  0  0
   -7.4921    0.8695   -1.1123 H   0  0  0  0  0  0  0  0  0  0  0  0
   -7.0215   -0.2881    0.9846 H   0  0  0  0  0  0  0  0  0  0  0  0
   -1.5350    0.0168   -1.7052 H   0  0  0  0  0  0  0  0  0  0  0  0
   -1.9363   -1.7633   -1.3973 H   0  0  0  0  0  0  0  0  0  0  0  0
    0.0488   -1.9657   -0.1291 H   0  0  0  0  0  0  0  0  0  0  0  0
    1.2936   -0.8730   -1.8860 H   0  0  0  0  0  0  0  0  0  0  0  0
    0.3169    0.6544   -1.6735 H   0  0  0  0  0  0  0  0  0  0  0  0
  1  2  1  0
  2  3  2  0
  3  4  1  0
  4  5  1  0
  5  6  2  0
  5  7  1  0
  4  8  2  0
  8  9  1  0
  9 10  1  0
 10 11  1  0
 11 12  1  0
 12 13  1  0
 13 14  1  0
 14 15  1  0
 15 16  2  0
 16 17  1  0
 17 18  2  0
 18 19  1  0
 19 20  2  0
 20 21  1  0
 21 22  1  0
 21 23  1  0
 21 24  1  0
 14 25  1  0
 25 26  1  0
 26 27  1  0
  9 28  2  0
 28  2  1  0
 27 10  1  0
 26 12  1  0
 20 15  1  0
  1 29  1  0
  1 30  1  0
  1 31  1  0
  3 32  1  0
  7 33  1  0
 11 34  1  0
 11 35  1  0
 12 36  1  1
 13 37  1  0
 13 38  1  0
 14 39  1  1
 16 40  1  0
 17 41  1  0
 18 42  1  0
 19 43  1  0
 25 44  1  0
 25 45  1  0
 26 46  1  1
 27 47  1  0
 27 48  1  0
M  END
$$$$
