
     RDKit          3D

 48 51  0  0  0  0  0  0  0  0999 V2000
    6.6974    1.1240    2.7563 O   0  0  0  0  0  0  0  0  0  0  0  0
    6.7608    0.6481    1.5994 C   0  0  0  0  0  0  0  0  0  0  0  0
    8.0415    0.4306    1.0531 N   0  0  0  0  0  0  0  0  0  0  0  0
    9.1853    0.7159    1.7297 O   0  0  0  0  0  0  0  0  0  0  0  0
    5.5235    0.3519    0.8975 C   0  0  0  0  0  0  0  0  0  0  0  0
    5.4805   -0.1673   -0.3768 C   0  0  0  0  0  0  0  0  0  0  0  0
    4.2981   -0.4430   -1.0276 C   0  0  0  0  0  0  0  0  0  0  0  0
    3.0816   -0.2068   -0.4209 C   0  0  0  0  0  0  0  0  0  0  0  0
    3.0893    0.3117    0.8525 C   0  0  0  0  0  0  0  0  0  0  0  0
    4.2889    0.5825    1.4908 C   0  0  0  0  0  0  0  0  0  0  0  0
    1.8231    0.5982    1.5852 C   0  0  0  0  0  0  0  0  0  0  0  0
    0.6493    0.3359    0.8355 N   0  0  0  0  0  0  0  0  0  0  0  0
   -0.1271   -0.7675    1.2956 C   0  0  0  0  0  0  0  0  0  0  0  0
   -1.3564   -0.9293    0.4410 C   0  0  0  0  0  0  0  0  0  0  0  0
   -1.5159   -1.6997   -0.6901 C   0  0  0  0  0  0  0  0  0  0  0  0
   -2.8228   -1.4941   -1.0851 C   0  0  0  0  0  0  0  0  0  0  0  0
   -3.4156   -0.6180   -0.1985 C   0  0  0  0  0  0  0  0  0  0  0  0
   -4.8014   -0.1560   -0.2850 C   0  0  0  0  0  0  0  0  0  0  0  0
   -5.3324    0.7227    0.6356 C   0  0  0  0  0  0  0  0  0  0  0  0
   -6.6524    1.1595    0.5499 C   0  0  0  0  0  0  0  0  0  0  0  0
   -7.4806    0.7214   -0.4716 C   0  0  0  0  0  0  0  0  0  0  0  0
   -6.9510   -0.1573   -1.3928 C   0  0  0  0  0  0  0  0  0  0  0  0
   -7.8087   -0.6008   -2.4368 N   0  0  0  0  0  4  0  0  0  0  0  0
   -7.3505   -1.3988   -3.2861 O   0  0  0  0  0  0  0  0  0  0  0  0
   -9.0971   -0.2093   -2.5674 O   0  0  0  0  0  1  0  0  0  0  0  0
   -5.6438   -0.5810   -1.2957 C   0  0  0  0  0  0  0  0  0  0  0  0
   -2.4994   -0.3231    0.6760 O   0  0  0  0  0  0  0  0  0  0  0  0
    0.7731    0.4565   -0.5793 C   0  0  0  0  0  0  0  0  0  0  0  0
    1.7994   -0.5139   -1.1466 C   0  0  0  0  0  0  0  0  0  0  0  0
    8.1225    0.0363    0.0957 H   0  0  0  0  0  0  0  0  0  0  0  0
    9.8818    0.9310    1.0603 H   0  0  0  0  0  0  0  0  0  0  0  0
    6.4404   -0.3642   -0.8818 H   0  0  0  0  0  0  0  0  0  0  0  0
    4.3154   -0.8504   -2.0288 H   0  0  0  0  0  0  0  0  0  0  0  0
    4.3187    0.9969    2.5080 H   0  0  0  0  0  0  0  0  0  0  0  0
    1.8333   -0.0621    2.4921 H   0  0  0  0  0  0  0  0  0  0  0  0
    1.8181    1.6541    1.9374 H   0  0  0  0  0  0  0  0  0  0  0  0
    0.4117   -1.7396    1.2620 H   0  0  0  0  0  0  0  0  0  0  0  0
   -0.4906   -0.6512    2.3347 H   0  0  0  0  0  0  0  0  0  0  0  0
   -0.7549   -2.3199   -1.1400 H   0  0  0  0  0  0  0  0  0  0  0  0
   -3.3098   -1.9391   -1.9425 H   0  0  0  0  0  0  0  0  0  0  0  0
   -4.6988    1.0820    1.4498 H   0  0  0  0  0  0  0  0  0  0  0  0
   -7.0884    1.8482    1.2611 H   0  0  0  0  0  0  0  0  0  0  0  0
   -8.5110    1.0559   -0.5473 H   0  0  0  0  0  0  0  0  0  0  0  0
   -5.2402   -1.2711   -2.0256 H   0  0  0  0  0  0  0  0  0  0  0  0
    1.1679    1.4737   -0.7943 H   0  0  0  0  0  0  0  0  0  0  0  0
   -0.2231    0.3476   -1.0429 H   0  0  0  0  0  0  0  0  0  0  0  0
    1.4866   -1.5304   -0.9088 H   0  0  0  0  0  0  0  0  0  0  0  0
    1.8837   -0.3198   -2.2272 H   0  0  0  0  0  0  0  0  0  0  0  0
  1  2  2  0
  2  3  1  0
  3  4  1  0
  2  5  1  0
  5  6  2  0
  6  7  1  0
  7  8  2  0
  8  9  1  0
  9 10  2  0
  9 11  1  0
 11 12  1  0
 12 13  1  0
 13 14  1  0
 14 15  2  0
 15 16  1  0
 16 17  2  0
 17 18  1  0
 18 19  2  0
 19 20  1  0
 20 21  2  0
 21 22  1  0
 22 23  1  0
 23 24  2  0
 23 25  1  0
 22 26  2  0
 17 27  1  0
 12 28  1  0
 28 29  1  0
 10  5  1  0
 27 14  1  0
 29  8  1  0
 26 18  1  0
  3 30  1  0
  4 31  1  0
  6 32  1  0
  7 33  1  0
 10 34  1  0
 11 35  1  0
 11 36  1  0
 13 37  1  0
 13 38  1  0
 15 39  1  0
 16 40  1  0
 19 41  1  0
 20 42  1  0
 21 43  1  0
 26 44  1  0
 28 45  1  0
 28 46  1  0
 29 47  1  0
 29 48  1  0
M  CHG  2  23   1  25  -1
M  END
$$$$
