
     RDKit          3D

 15 14  0  0  0  0  0  0  0  0999 V2000
   -1.1859   -1.4265    0.3201 N   0  0  0  0  0  0  0  0  0  0  0  0
   -0.2317   -0.3543    0.3127 C   0  0  1  0  0  0  0  0  0  0  0  0
    0.7204   -0.4644   -0.8745 C   0  0  0  0  0  0  0  0  0  0  0  0
    1.8582    0.9507   -0.7508 S   0  0  0  0  0  0  0  0  0  0  0  0
    3.0118    0.6103    1.0273 S   0  0  0  0  0  0  0  0  0  0  0  0
   -0.9423    0.9578    0.2991 C   0  0  0  0  0  0  0  0  0  0  0  0
   -2.3080    1.2323    0.2854 O   0  0  0  0  0  0  0  0  0  0  0  0
   -0.4889    2.1390    0.2965 O   0  0  0  0  0  0  0  0  0  0  0  0
   -1.4485   -1.7584   -0.6350 H   0  0  0  0  0  0  0  0  0  0  0  0
   -2.0437   -1.2152    0.8627 H   0  0  0  0  0  0  0  0  0  0  0  0
    0.3423   -0.4150    1.2662 H   0  0  0  0  0  0  0  0  0  0  0  0
    0.1500   -0.3804   -1.8076 H   0  0  0  0  0  0  0  0  0  0  0  0
    1.2236   -1.4358   -0.7788 H   0  0  0  0  0  0  0  0  0  0  0  0
    4.1531   -0.1375    0.6078 H   0  0  0  0  0  0  0  0  0  0  0  0
   -2.8105    1.6975   -0.4310 H   0  0  0  0  0  0  0  0  0  0  0  0
  1  2  1  0
  2  3  1  0
  3  4  1  0
  4  5  1  0
  2  6  1  0
  6  7  1  0
  6  8  2  0
  1  9  1  0
  1 10  1  0
  2 11  1  1
  3 12  1  0
  3 13  1  0
  5 14  1  0
  7 15  1  0
M  END
$$$$
