
     RDKit          3D

 55 59  0  0  0  0  0  0  0  0999 V2000
   -6.7831    0.8452    1.3424 C   0  0  0  0  0  0  0  0  0  0  0  0
   -6.2697    0.4905    0.0062 C   0  0  0  0  0  0  0  0  0  0  0  0
   -7.0661    0.3004   -1.0849 N   0  0  0  0  0  0  0  0  0  0  0  0
   -6.5660   -0.0163   -2.2973 C   0  0  0  0  0  0  0  0  0  0  0  0
   -5.1898   -0.1664   -2.4929 C   0  0  0  0  0  0  0  0  0  0  0  0
   -4.3919    0.0267   -1.3840 C   0  0  0  0  0  0  0  0  0  0  0  0
   -4.9096    0.3477   -0.1619 C   0  0  0  0  0  0  0  0  0  0  0  0
   -3.8489    0.4668    0.7143 C   0  0  0  0  0  0  0  0  0  0  0  0
   -3.7743    0.7707    2.0237 N   0  0  0  0  0  0  0  0  0  0  0  0
   -2.6019    0.8358    2.6697 C   0  0  0  0  0  0  0  0  0  0  0  0
   -1.4572    0.6017    2.0416 N   0  0  0  0  0  0  0  0  0  0  0  0
   -1.4952    0.2888    0.7058 C   0  0  0  0  0  0  0  0  0  0  0  0
   -0.2656    0.0055    0.0628 N   0  0  0  0  0  0  0  0  0  0  0  0
    0.1598   -1.3315   -0.1446 C   0  0  0  0  0  0  0  0  0  0  0  0
    1.6750   -1.3913   -0.3043 C   0  0  0  0  0  0  0  0  0  0  0  0
    2.3527   -0.3705    0.4100 N   0  0  0  0  0  0  0  0  0  0  0  0
    3.0149   -0.7869    1.5888 C   0  0  0  0  0  0  0  0  0  0  0  0
    4.2377   -1.6225    1.1851 C   0  0  0  0  0  0  0  0  0  0  0  0
    5.0852   -0.7047    0.4026 C   0  0  0  0  0  0  0  0  0  0  0  0
    4.9702   -0.6222   -0.9571 C   0  0  0  0  0  0  0  0  0  0  0  0
    5.7731    0.2781   -1.6825 C   0  0  0  0  0  0  0  0  0  0  0  0
    6.6756    1.0746   -1.0122 C   0  0  0  0  0  0  0  0  0  0  0  0
    7.4588    1.9539   -1.7217 F   0  0  0  0  0  0  0  0  0  0  0  0
    6.7678    0.9689    0.3507 C   0  0  0  0  0  0  0  0  0  0  0  0
    7.6411    1.7325    1.0580 F   0  0  0  0  0  0  0  0  0  0  0  0
    5.9872    0.0911    1.0738 C   0  0  0  0  0  0  0  0  0  0  0  0
    1.9143    0.9462    0.3368 C   0  0  0  0  0  0  0  0  0  0  0  0
    0.5726    1.1384   -0.3323 C   0  0  0  0  0  0  0  0  0  0  0  0
   -2.6788    0.2128    0.0094 C   0  0  0  0  0  0  0  0  0  0  0  0
   -3.0281   -0.0533   -1.2743 N   0  0  0  0  0  0  0  0  0  0  0  0
   -2.1550   -0.3496   -2.3687 C   0  0  0  0  0  0  0  0  0  0  0  0
   -7.7748    1.3421    1.2815 H   0  0  0  0  0  0  0  0  0  0  0  0
   -6.8491   -0.0848    1.9433 H   0  0  0  0  0  0  0  0  0  0  0  0
   -6.0334    1.5021    1.8743 H   0  0  0  0  0  0  0  0  0  0  0  0
   -7.1959   -0.1698   -3.1583 H   0  0  0  0  0  0  0  0  0  0  0  0
   -4.7723   -0.4173   -3.4429 H   0  0  0  0  0  0  0  0  0  0  0  0
   -2.5578    1.0834    3.7455 H   0  0  0  0  0  0  0  0  0  0  0  0
   -0.2997   -1.8400   -0.9868 H   0  0  0  0  0  0  0  0  0  0  0  0
   -0.0962   -1.9508    0.7642 H   0  0  0  0  0  0  0  0  0  0  0  0
    1.9981   -2.3695    0.0828 H   0  0  0  0  0  0  0  0  0  0  0  0
    1.9089   -1.3537   -1.3828 H   0  0  0  0  0  0  0  0  0  0  0  0
    2.3367   -1.3887    2.2365 H   0  0  0  0  0  0  0  0  0  0  0  0
    3.3065    0.0977    2.1552 H   0  0  0  0  0  0  0  0  0  0  0  0
    3.9427   -2.5124    0.6046 H   0  0  0  0  0  0  0  0  0  0  0  0
    4.6931   -1.9795    2.1281 H   0  0  0  0  0  0  0  0  0  0  0  0
    4.2851   -1.2190   -1.5371 H   0  0  0  0  0  0  0  0  0  0  0  0
    5.7150    0.3830   -2.7514 H   0  0  0  0  0  0  0  0  0  0  0  0
    6.0564    0.0013    2.1748 H   0  0  0  0  0  0  0  0  0  0  0  0
    1.7998    1.3714    1.3525 H   0  0  0  0  0  0  0  0  0  0  0  0
    2.6535    1.5704   -0.1905 H   0  0  0  0  0  0  0  0  0  0  0  0
    0.7465    1.1778   -1.4234 H   0  0  0  0  0  0  0  0  0  0  0  0
    0.1514    2.1092   -0.0381 H   0  0  0  0  0  0  0  0  0  0  0  0
   -2.0603   -1.4656   -2.5464 H   0  0  0  0  0  0  0  0  0  0  0  0
   -2.6105    0.1122   -3.3008 H   0  0  0  0  0  0  0  0  0  0  0  0
   -1.1488    0.0396   -2.3281 H   0  0  0  0  0  0  0  0  0  0  0  0
  1  2  1  0
  2  3  2  0
  3  4  1  0
  4  5  2  0
  5  6  1  0
  6  7  2  0
  7  8  1  0
  8  9  2  0
  9 10  1  0
 10 11  2  0
 11 12  1  0
 12 13  1  0
 13 14  1  0
 14 15  1  0
 15 16  1  0
 16 17  1  0
 17 18  1  0
 18 19  1  0
 19 20  2  0
 20 21  1  0
 21 22  2  0
 22 23  1  0
 22 24  1  0
 24 25  1  0
 24 26  2  0
 16 27  1  0
 27 28  1  0
 12 29  2  0
 29 30  1  0
 30 31  1  0
  7  2  1  0
 29  8  1  0
 30  6  1  0
 28 13  1  0
 26 19  1  0
  1 32  1  0
  1 33  1  0
  1 34  1  0
  4 35  1  0
  5 36  1  0
 10 37  1  0
 14 38  1  0
 14 39  1  0
 15 40  1  0
 15 41  1  0
 17 42  1  0
 17 43  1  0
 18 44  1  0
 18 45  1  0
 20 46  1  0
 21 47  1  0
 26 48  1  0
 27 49  1  0
 27 50  1  0
 28 51  1  0
 28 52  1  0
 31 53  1  0
 31 54  1  0
 31 55  1  0
M  END
$$$$
