
     RDKit          3D

 57 59  0  0  0  0  0  0  0  0999 V2000
   -6.7553    0.5247    2.3082 C   0  0  0  0  0  0  0  0  0  0  0  0
   -6.6932    0.9867    0.8789 C   0  0  0  0  0  0  0  0  0  0  0  0
   -7.2551    2.3758    0.6987 C   0  0  0  0  0  0  0  0  0  0  0  0
   -5.2924    0.9798    0.3060 C   0  0  1  0  0  0  0  0  0  0  0  0
   -5.4393    1.4344   -1.0836 N   0  0  0  0  0  0  0  0  0  0  0  0
   -4.8935    0.1567   -2.1100 S   0  0  0  0  0  6  0  0  0  0  0  0
   -5.6125   -1.1189   -1.7387 O   0  0  0  0  0  0  0  0  0  0  0  0
   -5.0633    0.4762   -3.5594 O   0  0  0  0  0  0  0  0  0  0  0  0
   -3.1822   -0.0898   -1.7484 C   0  0  0  0  0  0  0  0  0  0  0  0
   -2.2850    0.7272   -2.4931 C   0  0  0  0  0  0  0  0  0  0  0  0
   -0.9514    0.5632   -2.2551 C   0  0  0  0  0  0  0  0  0  0  0  0
   -0.3958   -0.3153   -1.3654 C   0  0  0  0  0  0  0  0  0  0  0  0
    1.0309   -0.4865   -1.2033 C   0  0  0  0  0  0  0  0  0  0  0  0
    1.6107   -1.6950   -0.7873 C   0  0  0  0  0  0  0  0  0  0  0  0
    2.9592   -1.8319   -0.7254 C   0  0  0  0  0  0  0  0  0  0  0  0
    3.8302   -0.8086   -1.0640 C   0  0  0  0  0  0  0  0  0  0  0  0
    5.1164   -0.9458   -1.0104 O   0  0  0  0  0  0  0  0  0  0  0  0
    6.3901   -1.0862   -0.9555 C   0  0  0  0  0  0  0  0  0  0  0  0
    6.9903   -1.2418    0.4226 C   0  0  0  0  0  0  0  0  0  0  0  0
    7.7218   -0.1368    0.8774 C   0  0  0  0  0  0  0  0  0  0  0  0
    8.3414   -0.2133    2.1032 C   0  0  0  0  0  0  0  0  0  0  0  0
    8.2334   -1.3524    2.8465 C   0  0  0  0  0  0  0  0  0  0  0  0
    7.5154   -2.4348    2.4023 C   0  0  0  0  0  0  0  0  0  0  0  0
    6.8775   -2.3740    1.1562 C   0  0  0  0  0  0  0  0  0  0  0  0
    6.0833   -3.4900    0.7290 C   0  0  0  0  0  0  0  0  0  0  0  0
    5.4441   -4.4128    0.3778 N   0  0  0  0  0  0  0  0  0  0  0  0
    3.2469    0.4111   -1.4817 C   0  0  0  0  0  0  0  0  0  0  0  0
    1.8866    0.5273   -1.5358 C   0  0  0  0  0  0  0  0  0  0  0  0
   -1.3238   -1.1056   -0.6476 C   0  0  0  0  0  0  0  0  0  0  0  0
   -2.6705   -0.9558   -0.8752 C   0  0  0  0  0  0  0  0  0  0  0  0
   -4.3395    1.8146    1.0474 C   0  0  0  0  0  0  0  0  0  0  0  0
   -3.7842    2.7926    0.4336 O   0  0  0  0  0  0  0  0  0  0  0  0
   -3.9531    1.6727    2.3604 O   0  0  0  0  0  0  0  0  0  0  0  0
   -6.5249   -0.5834    2.3009 H   0  0  0  0  0  0  0  0  0  0  0  0
   -7.8155    0.5941    2.6449 H   0  0  0  0  0  0  0  0  0  0  0  0
   -6.0512    1.0239    2.9600 H   0  0  0  0  0  0  0  0  0  0  0  0
   -7.3627    0.2975    0.2837 H   0  0  0  0  0  0  0  0  0  0  0  0
   -6.4406    3.0758    0.9399 H   0  0  0  0  0  0  0  0  0  0  0  0
   -7.6084    2.4724   -0.3694 H   0  0  0  0  0  0  0  0  0  0  0  0
   -8.0968    2.4976    1.3809 H   0  0  0  0  0  0  0  0  0  0  0  0
   -4.9225   -0.0587    0.3743 H   0  0  0  0  0  0  0  0  0  0  0  0
   -4.7532    2.2282   -1.1933 H   0  0  0  0  0  0  0  0  0  0  0  0
   -2.7051    1.4229   -3.1901 H   0  0  0  0  0  0  0  0  0  0  0  0
   -0.2404    1.1832   -2.8284 H   0  0  0  0  0  0  0  0  0  0  0  0
    0.9236   -2.4901   -0.5324 H   0  0  0  0  0  0  0  0  0  0  0  0
    3.4348   -2.7780   -0.4017 H   0  0  0  0  0  0  0  0  0  0  0  0
    6.7545   -2.0628   -1.5172 H   0  0  0  0  0  0  0  0  0  0  0  0
    7.0290   -0.2754   -1.4842 H   0  0  0  0  0  0  0  0  0  0  0  0
    7.7928    0.7616    0.2665 H   0  0  0  0  0  0  0  0  0  0  0  0
    8.9019    0.6724    2.4162 H   0  0  0  0  0  0  0  0  0  0  0  0
    8.7507   -1.3482    3.8193 H   0  0  0  0  0  0  0  0  0  0  0  0
    7.4295   -3.3363    2.9896 H   0  0  0  0  0  0  0  0  0  0  0  0
    3.9168    1.1966   -1.7338 H   0  0  0  0  0  0  0  0  0  0  0  0
    1.5070    1.4964   -1.8608 H   0  0  0  0  0  0  0  0  0  0  0  0
   -0.9209   -1.8073    0.0568 H   0  0  0  0  0  0  0  0  0  0  0  0
   -3.3791   -1.6035   -0.3143 H   0  0  0  0  0  0  0  0  0  0  0  0
   -3.0077    1.8552    2.6846 H   0  0  0  0  0  0  0  0  0  0  0  0
  1  2  1  0
  2  3  1  0
  2  4  1  0
  4  5  1  0
  5  6  1  0
  6  7  2  0
  6  8  2  0
  6  9  1  0
  9 10  2  0
 10 11  1  0
 11 12  2  0
 12 13  1  0
 13 14  2  0
 14 15  1  0
 15 16  2  0
 16 17  1  0
 17 18  1  0
 18 19  1  0
 19 20  2  0
 20 21  1  0
 21 22  2  0
 22 23  1  0
 23 24  2  0
 24 25  1  0
 25 26  3  0
 16 27  1  0
 27 28  2  0
 12 29  1  0
 29 30  2  0
  4 31  1  0
 31 32  2  0
 31 33  1  0
 30  9  1  0
 28 13  1  0
 24 19  1  0
  1 34  1  0
  1 35  1  0
  1 36  1  0
  2 37  1  0
  3 38  1  0
  3 39  1  0
  3 40  1  0
  4 41  1  6
  5 42  1  0
 10 43  1  0
 11 44  1  0
 14 45  1  0
 15 46  1  0
 18 47  1  0
 18 48  1  0
 20 49  1  0
 21 50  1  0
 22 51  1  0
 23 52  1  0
 27 53  1  0
 28 54  1  0
 29 55  1  0
 30 56  1  0
 33 57  1  0
M  END
$$$$
