
     RDKit          3D

 44 47  0  0  0  0  0  0  0  0999 V2000
   -3.9064   -4.5836   -0.7867 F   0  0  0  0  0  0  0  0  0  0  0  0
   -3.5050   -3.3215   -0.5100 C   0  0  0  0  0  0  0  0  0  0  0  0
   -3.8655   -2.6442    0.6324 C   0  0  0  0  0  0  0  0  0  0  0  0
   -3.4248   -1.3466    0.8684 C   0  0  0  0  0  0  0  0  0  0  0  0
   -2.6123   -0.6947   -0.0331 C   0  0  0  0  0  0  0  0  0  0  0  0
   -2.1715    0.6631    0.2488 C   0  0  2  0  0  0  0  0  0  0  0  0
   -2.7248    1.5885   -0.8420 C   0  0  0  0  0  0  0  0  0  0  0  0
   -2.6950    2.9830   -0.2419 C   0  0  0  0  0  0  0  0  0  0  0  0
   -1.6109    3.0659    0.7176 N   0  0  0  0  0  0  0  0  0  0  0  0
   -0.4296    2.3582    0.2552 C   0  0  0  0  0  0  0  0  0  0  0  0
   -0.6752    0.8307    0.2906 C   0  0  1  0  0  0  0  0  0  0  0  0
   -0.1097    0.3741    1.6139 C   0  0  0  0  0  0  0  0  0  0  0  0
    1.2432    0.5117    1.6623 O   0  0  0  0  0  0  0  0  0  0  0  0
    2.2769   -0.0525    0.9799 C   0  0  0  0  0  0  0  0  0  0  0  0
    2.1113   -1.0083    0.0119 C   0  0  0  0  0  0  0  0  0  0  0  0
    3.2006   -1.5652   -0.6750 C   0  0  0  0  0  0  0  0  0  0  0  0
    4.4855   -1.1681   -0.3974 C   0  0  0  0  0  0  0  0  0  0  0  0
    4.6724   -0.2084    0.5737 C   0  0  0  0  0  0  0  0  0  0  0  0
    3.6051    0.3349    1.2437 C   0  0  0  0  0  0  0  0  0  0  0  0
    6.0620   -0.0169    0.6291 O   0  0  0  0  0  0  0  0  0  0  0  0
    6.6013   -0.4459   -0.6245 C   0  0  0  0  0  0  0  0  0  0  0  0
    5.7440   -1.5372   -0.9079 O   0  0  0  0  0  0  0  0  0  0  0  0
   -2.2509   -1.3729   -1.1778 C   0  0  0  0  0  0  0  0  0  0  0  0
   -2.6857   -2.6770   -1.4291 C   0  0  0  0  0  0  0  0  0  0  0  0
   -4.5059   -3.1698    1.3341 H   0  0  0  0  0  0  0  0  0  0  0  0
   -3.7521   -0.8778    1.7934 H   0  0  0  0  0  0  0  0  0  0  0  0
   -2.5727    1.0136    1.2100 H   0  0  0  0  0  0  0  0  0  0  0  0
   -3.7781    1.3283   -1.0872 H   0  0  0  0  0  0  0  0  0  0  0  0
   -2.0592    1.5141   -1.7329 H   0  0  0  0  0  0  0  0  0  0  0  0
   -3.6472    3.1139    0.3142 H   0  0  0  0  0  0  0  0  0  0  0  0
   -2.6545    3.7737   -1.0087 H   0  0  0  0  0  0  0  0  0  0  0  0
   -1.3372    4.0701    0.7804 H   0  0  0  0  0  0  0  0  0  0  0  0
   -0.2171    2.6956   -0.7797 H   0  0  0  0  0  0  0  0  0  0  0  0
    0.4039    2.6347    0.9084 H   0  0  0  0  0  0  0  0  0  0  0  0
   -0.1379    0.4550   -0.5667 H   0  0  0  0  0  0  0  0  0  0  0  0
   -0.5748    1.0273    2.4152 H   0  0  0  0  0  0  0  0  0  0  0  0
   -0.4800   -0.6492    1.8811 H   0  0  0  0  0  0  0  0  0  0  0  0
    1.1235   -1.3907   -0.2493 H   0  0  0  0  0  0  0  0  0  0  0  0
    3.0565   -2.3182   -1.4372 H   0  0  0  0  0  0  0  0  0  0  0  0
    3.7449    1.0829    2.0013 H   0  0  0  0  0  0  0  0  0  0  0  0
    6.3856    0.3618   -1.3467 H   0  0  0  0  0  0  0  0  0  0  0  0
    7.6530   -0.7167   -0.5532 H   0  0  0  0  0  0  0  0  0  0  0  0
   -1.6161   -0.8491   -1.8712 H   0  0  0  0  0  0  0  0  0  0  0  0
   -2.3698   -3.1670   -2.3506 H   0  0  0  0  0  0  0  0  0  0  0  0
  1  2  1  0
  2  3  2  0
  3  4  1  0
  4  5  2  0
  5  6  1  0
  6  7  1  0
  7  8  1  0
  8  9  1  0
  9 10  1  0
 10 11  1  0
 11 12  1  0
 12 13  1  0
 13 14  1  0
 14 15  2  0
 15 16  1  0
 16 17  2  0
 17 18  1  0
 18 19  2  0
 18 20  1  0
 20 21  1  0
 21 22  1  0
  5 23  1  0
 23 24  2  0
 24  2  1  0
 11  6  1  0
 19 14  1  0
 22 17  1  0
  3 25  1  0
  4 26  1  0
  6 27  1  1
  7 28  1  0
  7 29  1  0
  8 30  1  0
  8 31  1  0
  9 32  1  0
 10 33  1  0
 10 34  1  0
 11 35  1  6
 12 36  1  0
 12 37  1  0
 15 38  1  0
 16 39  1  0
 19 40  1  0
 21 41  1  0
 21 42  1  0
 23 43  1  0
 24 44  1  0
M  END
$$$$
