
     RDKit          3D

 83 87  0  0  0  0  0  0  0  0999 V2000
   -2.2916    0.1015   -2.0667 C   0  0  0  0  0  0  0  0  0  0  0  0
   -2.2948    1.6038   -1.8384 C   0  0  0  0  0  0  0  0  0  0  0  0
   -3.2515    1.8745   -0.7919 N   0  0  0  0  0  0  0  0  0  0  0  0
   -2.9879    2.0310    0.4870 C   0  0  0  0  0  0  0  0  0  0  0  0
   -1.8827    2.0832    1.3954 C   0  0  0  0  0  0  0  0  0  0  0  0
   -0.4914    1.9289    1.1208 C   0  0  0  0  0  0  0  0  0  0  0  0
    0.0750    0.6167    0.6525 C   0  0  0  0  0  0  0  0  0  0  0  0
    1.5689    0.7813    0.4796 C   0  0  0  0  0  0  0  0  0  0  0  0
    2.4339    0.5362    1.5148 C   0  0  0  0  0  0  0  0  0  0  0  0
    3.8186    0.6894    1.3545 C   0  0  0  0  0  0  0  0  0  0  0  0
    4.3526    1.0903    0.1552 C   0  0  0  0  0  0  0  0  0  0  0  0
    5.8021    1.2666   -0.0591 C   0  0  0  0  0  0  0  0  0  0  0  0
    6.7430    1.0511    0.9150 C   0  0  0  0  0  0  0  0  0  0  0  0
    8.1089    1.2341    0.6600 C   0  0  0  0  0  0  0  0  0  0  0  0
    8.5369    1.6368   -0.5847 C   0  0  0  0  0  0  0  0  0  0  0  0
    9.9026    1.8407   -0.9296 N   0  0  0  0  0  0  0  0  0  0  0  0
   11.1026    0.7142   -0.4174 S   0  0  0  0  0  6  0  0  0  0  0  0
   12.4750    1.2227   -0.7894 O   0  0  0  0  0  0  0  0  0  0  0  0
   11.1036    0.6063    1.0998 O   0  0  0  0  0  0  0  0  0  0  0  0
   10.8311   -0.8789   -1.0556 C   0  0  0  0  0  0  0  0  0  0  0  0
   11.3481   -1.2549   -2.2667 C   0  0  0  0  0  0  0  0  0  0  0  0
   11.1048   -2.5321   -2.7336 C   0  0  0  0  0  0  0  0  0  0  0  0
   10.3561   -3.4371   -2.0139 C   0  0  0  0  0  0  0  0  0  0  0  0
    9.8505   -3.0255   -0.7985 C   0  0  0  0  0  0  0  0  0  0  0  0
   10.0776   -1.7585   -0.3089 C   0  0  0  0  0  0  0  0  0  0  0  0
    7.5577    1.8451   -1.5451 C   0  0  0  0  0  0  0  0  0  0  0  0
    6.2568    1.6616   -1.2698 N   0  0  0  0  0  0  0  0  0  0  0  0
    3.4729    1.3381   -0.8924 C   0  0  0  0  0  0  0  0  0  0  0  0
    2.1060    1.1819   -0.7179 C   0  0  0  0  0  0  0  0  0  0  0  0
   -4.2576    2.2382    1.0416 N   0  0  0  0  0  0  0  0  0  0  0  0
   -5.1626    2.1986    0.1204 N   0  0  0  0  0  0  0  0  0  0  0  0
   -6.6106    2.3714    0.3057 C   0  0  0  0  0  0  0  0  0  0  0  0
   -7.2311    1.0488    0.5607 C   0  0  0  0  0  0  0  0  0  0  0  0
   -7.3989    0.5227    1.8285 C   0  0  0  0  0  0  0  0  0  0  0  0
   -7.9823   -0.7165    2.0055 C   0  0  0  0  0  0  0  0  0  0  0  0
   -8.4250   -1.4910    0.9553 C   0  0  0  0  0  0  0  0  0  0  0  0
   -9.0539   -2.8287    1.1201 C   0  0  0  0  0  0  0  0  0  0  0  0
   -7.9756   -3.9205    1.0873 C   0  0  0  0  0  0  0  0  0  0  0  0
  -10.0557   -3.1070    0.0163 C   0  0  0  0  0  0  0  0  0  0  0  0
   -9.7262   -2.9162    2.4598 C   0  0  0  0  0  0  0  0  0  0  0  0
   -8.2599   -0.9683   -0.3197 C   0  0  0  0  0  0  0  0  0  0  0  0
   -7.6778    0.2677   -0.4973 C   0  0  0  0  0  0  0  0  0  0  0  0
   -4.5929    1.9719   -1.0650 C   0  0  0  0  0  0  0  0  0  0  0  0
   -5.1227    1.8631   -2.2057 O   0  0  0  0  0  0  0  0  0  0  0  0
   -2.4498   -0.4032   -1.0702 H   0  0  0  0  0  0  0  0  0  0  0  0
   -1.3204   -0.2615   -2.4401 H   0  0  0  0  0  0  0  0  0  0  0  0
   -3.1328   -0.2193   -2.7145 H   0  0  0  0  0  0  0  0  0  0  0  0
   -2.6592    2.0287   -2.8245 H   0  0  0  0  0  0  0  0  0  0  0  0
   -1.2678    1.8861   -1.6290 H   0  0  0  0  0  0  0  0  0  0  0  0
   -1.9723    3.0151    2.0960 H   0  0  0  0  0  0  0  0  0  0  0  0
   -2.1277    1.2782    2.2055 H   0  0  0  0  0  0  0  0  0  0  0  0
    0.0487    2.0747    2.1306 H   0  0  0  0  0  0  0  0  0  0  0  0
   -0.0076    2.7855    0.5516 H   0  0  0  0  0  0  0  0  0  0  0  0
   -0.2829    0.2514   -0.2890 H   0  0  0  0  0  0  0  0  0  0  0  0
   -0.0192   -0.1299    1.4833 H   0  0  0  0  0  0  0  0  0  0  0  0
    2.0184    0.2195    2.4605 H   0  0  0  0  0  0  0  0  0  0  0  0
    4.4881    0.4917    2.1836 H   0  0  0  0  0  0  0  0  0  0  0  0
    6.4478    0.7354    1.8968 H   0  0  0  0  0  0  0  0  0  0  0  0
    8.8362    1.0625    1.4288 H   0  0  0  0  0  0  0  0  0  0  0  0
   10.2057    2.6757   -1.4999 H   0  0  0  0  0  0  0  0  0  0  0  0
   11.9454   -0.5875   -2.8818 H   0  0  0  0  0  0  0  0  0  0  0  0
   11.4926   -2.8816   -3.6906 H   0  0  0  0  0  0  0  0  0  0  0  0
   10.1579   -4.4402   -2.3705 H   0  0  0  0  0  0  0  0  0  0  0  0
    9.2628   -3.7238   -0.2240 H   0  0  0  0  0  0  0  0  0  0  0  0
    9.6574   -1.4673    0.6681 H   0  0  0  0  0  0  0  0  0  0  0  0
    7.8653    2.1599   -2.5244 H   0  0  0  0  0  0  0  0  0  0  0  0
    3.9006    1.6515   -1.8266 H   0  0  0  0  0  0  0  0  0  0  0  0
    1.4094    1.3730   -1.5323 H   0  0  0  0  0  0  0  0  0  0  0  0
   -6.8201    3.0921    1.1222 H   0  0  0  0  0  0  0  0  0  0  0  0
   -7.0029    2.7681   -0.6312 H   0  0  0  0  0  0  0  0  0  0  0  0
   -7.0502    1.1350    2.6501 H   0  0  0  0  0  0  0  0  0  0  0  0
   -8.1016   -1.1067    2.9914 H   0  0  0  0  0  0  0  0  0  0  0  0
   -7.0707   -3.4582    0.6464 H   0  0  0  0  0  0  0  0  0  0  0  0
   -7.6834   -4.1727    2.1439 H   0  0  0  0  0  0  0  0  0  0  0  0
   -8.3140   -4.8008    0.5346 H   0  0  0  0  0  0  0  0  0  0  0  0
  -10.8249   -3.8300    0.3293 H   0  0  0  0  0  0  0  0  0  0  0  0
   -9.4789   -3.6112   -0.8021 H   0  0  0  0  0  0  0  0  0  0  0  0
  -10.4548   -2.1772   -0.4261 H   0  0  0  0  0  0  0  0  0  0  0  0
   -9.9724   -1.9230    2.8903 H   0  0  0  0  0  0  0  0  0  0  0  0
  -10.6901   -3.4789    2.3245 H   0  0  0  0  0  0  0  0  0  0  0  0
   -9.1374   -3.5397    3.1615 H   0  0  0  0  0  0  0  0  0  0  0  0
   -8.5986   -1.5453   -1.1896 H   0  0  0  0  0  0  0  0  0  0  0  0
   -7.5496    0.6722   -1.5013 H   0  0  0  0  0  0  0  0  0  0  0  0
  1  2  1  0
  2  3  1  0
  3  4  1  0
  4  5  1  0
  5  6  1  0
  6  7  1  0
  7  8  1  0
  8  9  2  0
  9 10  1  0
 10 11  2  0
 11 12  1  0
 12 13  2  0
 13 14  1  0
 14 15  2  0
 15 16  1  0
 16 17  1  0
 17 18  2  0
 17 19  2  0
 17 20  1  0
 20 21  2  0
 21 22  1  0
 22 23  2  0
 23 24  1  0
 24 25  2  0
 15 26  1  0
 26 27  2  0
 11 28  1  0
 28 29  2  0
  4 30  2  0
 30 31  1  0
 31 32  1  0
 32 33  1  0
 33 34  2  0
 34 35  1  0
 35 36  2  0
 36 37  1  0
 37 38  1  0
 37 39  1  0
 37 40  1  0
 36 41  1  0
 41 42  2  0
 31 43  1  0
 43 44  2  0
 43  3  1  0
 29  8  1  0
 42 33  1  0
 27 12  1  0
 25 20  1  0
  1 45  1  0
  1 46  1  0
  1 47  1  0
  2 48  1  0
  2 49  1  0
  5 50  1  0
  5 51  1  0
  6 52  1  0
  6 53  1  0
  7 54  1  0
  7 55  1  0
  9 56  1  0
 10 57  1  0
 13 58  1  0
 14 59  1  0
 16 60  1  0
 21 61  1  0
 22 62  1  0
 23 63  1  0
 24 64  1  0
 25 65  1  0
 26 66  1  0
 28 67  1  0
 29 68  1  0
 32 69  1  0
 32 70  1  0
 34 71  1  0
 35 72  1  0
 38 73  1  0
 38 74  1  0
 38 75  1  0
 39 76  1  0
 39 77  1  0
 39 78  1  0
 40 79  1  0
 40 80  1  0
 40 81  1  0
 41 82  1  0
 42 83  1  0
M  END
$$$$
