
     RDKit          3D

 68 71  0  0  0  0  0  0  0  0999 V2000
    5.7457    2.1681    1.8079 C   0  0  0  0  0  0  0  0  0  0  0  0
    5.7745    0.6549    2.0207 C   0  0  0  0  0  0  0  0  0  0  0  0
    5.3472   -0.0747    0.7935 C   0  0  0  0  0  0  0  0  0  0  0  0
    4.0722   -0.6395    0.7456 C   0  0  0  0  0  0  0  0  0  0  0  0
    3.5710   -1.3194   -0.3432 C   0  0  0  0  0  0  0  0  0  0  0  0
    2.3132   -1.8549   -0.3442 O   0  0  0  0  0  0  0  0  0  0  0  0
    1.2035   -1.2717   -0.9205 C   0  0  0  0  0  0  0  0  0  0  0  0
    0.8817   -1.6801   -2.2238 C   0  0  0  0  0  0  0  0  0  0  0  0
   -0.2093   -1.1439   -2.8706 C   0  0  0  0  0  0  0  0  0  0  0  0
   -0.5351   -1.5349   -4.1467 F   0  0  0  0  0  0  0  0  0  0  0  0
   -1.0147   -0.1987   -2.2681 C   0  0  0  0  0  0  0  0  0  0  0  0
   -0.7062    0.2073   -0.9895 C   0  0  0  0  0  0  0  0  0  0  0  0
   -1.5900    1.2397   -0.3350 C   0  0  1  0  0  0  0  0  0  0  0  0
   -1.4526    2.5667   -1.0809 C   0  0  0  0  0  0  0  0  0  0  0  0
   -2.9709    0.8210   -0.4798 N   0  0  0  0  0  0  0  0  0  0  0  0
   -3.7999    0.7974    0.6560 C   0  0  0  0  0  0  0  0  0  0  0  0
   -3.2830    1.1668    1.7826 O   0  0  0  0  0  0  0  0  0  0  0  0
   -5.1809    0.3893    0.6232 C   0  0  0  0  0  0  0  0  0  0  0  0
   -5.8480   -0.3443   -0.3202 C   0  0  0  0  0  0  0  0  0  0  0  0
   -5.2716   -0.9755   -1.5649 C   0  0  0  0  0  0  0  0  0  0  0  0
   -7.1941   -0.4535    0.0528 C   0  0  0  0  0  0  0  0  0  0  0  0
   -8.2403   -1.0842   -0.5670 C   0  0  0  0  0  0  0  0  0  0  0  0
   -9.5056   -1.0328    0.0359 C   0  0  0  0  0  0  0  0  0  0  0  0
  -10.8605   -1.8302   -0.7290 Cl  0  0  0  0  0  0  0  0  0  0  0  0
   -9.6695   -0.3554    1.2293 C   0  0  0  0  0  0  0  0  0  0  0  0
   -8.5782    0.2714    1.8241 C   0  0  0  0  0  0  0  0  0  0  0  0
   -7.3091    0.2271    1.2310 C   0  0  0  0  0  0  0  0  0  0  0  0
   -6.1062    0.7321    1.5734 N   0  0  0  0  0  0  0  0  0  0  0  0
   -5.9316    1.5101    2.7685 C   0  0  0  0  0  0  0  0  0  0  0  0
    0.3858   -0.3350   -0.3535 C   0  0  0  0  0  0  0  0  0  0  0  0
    4.3978   -1.4349   -1.4380 C   0  0  0  0  0  0  0  0  0  0  0  0
    5.6646   -0.8905   -1.4329 C   0  0  0  0  0  0  0  0  0  0  0  0
    6.1682   -0.1999   -0.3173 C   0  0  0  0  0  0  0  0  0  0  0  0
    7.5284    0.3636   -0.3674 C   0  0  0  0  0  0  0  0  0  0  0  0
    8.6016   -0.3634    0.3468 C   0  0  0  0  0  0  0  0  0  0  0  0
    8.8157   -1.7514   -0.0994 C   0  0  0  0  0  0  0  0  0  0  0  0
    8.1873   -2.2732   -1.0183 O   0  0  0  0  0  0  0  0  0  0  0  0
    9.7985   -2.4755    0.5910 O   0  0  0  0  0  0  0  0  0  0  0  0
    5.2461    2.4029    0.8530 H   0  0  0  0  0  0  0  0  0  0  0  0
    5.1418    2.6746    2.6076 H   0  0  0  0  0  0  0  0  0  0  0  0
    6.7561    2.6101    1.8761 H   0  0  0  0  0  0  0  0  0  0  0  0
    4.9645    0.4629    2.7958 H   0  0  0  0  0  0  0  0  0  0  0  0
    6.6882    0.2943    2.4819 H   0  0  0  0  0  0  0  0  0  0  0  0
    3.4556   -0.5142    1.6544 H   0  0  0  0  0  0  0  0  0  0  0  0
    1.4627   -2.4169   -2.7642 H   0  0  0  0  0  0  0  0  0  0  0  0
   -1.8787    0.2261   -2.7865 H   0  0  0  0  0  0  0  0  0  0  0  0
   -1.3612    1.4022    0.7135 H   0  0  0  0  0  0  0  0  0  0  0  0
   -2.4497    2.9521   -1.2905 H   0  0  0  0  0  0  0  0  0  0  0  0
   -0.9346    3.3165   -0.4060 H   0  0  0  0  0  0  0  0  0  0  0  0
   -0.7844    2.4456   -1.9406 H   0  0  0  0  0  0  0  0  0  0  0  0
   -3.3118    0.5674   -1.4043 H   0  0  0  0  0  0  0  0  0  0  0  0
   -4.3287   -1.4969   -1.3672 H   0  0  0  0  0  0  0  0  0  0  0  0
   -5.2162   -0.2766   -2.4048 H   0  0  0  0  0  0  0  0  0  0  0  0
   -6.0159   -1.7650   -1.9091 H   0  0  0  0  0  0  0  0  0  0  0  0
   -8.0907   -1.6103   -1.5008 H   0  0  0  0  0  0  0  0  0  0  0  0
  -10.6343   -0.2888    1.7336 H   0  0  0  0  0  0  0  0  0  0  0  0
   -8.7047    0.7990    2.7514 H   0  0  0  0  0  0  0  0  0  0  0  0
   -5.0547    2.1496    2.7935 H   0  0  0  0  0  0  0  0  0  0  0  0
   -6.8570    2.1566    2.8710 H   0  0  0  0  0  0  0  0  0  0  0  0
   -6.0066    0.8070    3.6405 H   0  0  0  0  0  0  0  0  0  0  0  0
    0.6245   -0.0154    0.6499 H   0  0  0  0  0  0  0  0  0  0  0  0
    4.0479   -1.9582   -2.3131 H   0  0  0  0  0  0  0  0  0  0  0  0
    6.2972   -0.9691   -2.3064 H   0  0  0  0  0  0  0  0  0  0  0  0
    7.5177    1.4564   -0.0808 H   0  0  0  0  0  0  0  0  0  0  0  0
    7.8422    0.4124   -1.4565 H   0  0  0  0  0  0  0  0  0  0  0  0
    9.6005    0.1569    0.0748 H   0  0  0  0  0  0  0  0  0  0  0  0
    8.6075   -0.2761    1.4514 H   0  0  0  0  0  0  0  0  0  0  0  0
   10.1770   -3.3031    0.1284 H   0  0  0  0  0  0  0  0  0  0  0  0
  1  2  1  0
  2  3  1  0
  3  4  2  0
  4  5  1  0
  5  6  1  0
  6  7  1  0
  7  8  2  0
  8  9  1  0
  9 10  1  0
  9 11  2  0
 11 12  1  0
 12 13  1  0
 13 14  1  0
 13 15  1  0
 15 16  1  0
 16 17  2  0
 16 18  1  0
 18 19  2  0
 19 20  1  0
 19 21  1  0
 21 22  2  0
 22 23  1  0
 23 24  1  0
 23 25  2  0
 25 26  1  0
 26 27  2  0
 27 28  1  0
 28 29  1  0
 12 30  2  0
  5 31  2  0
 31 32  1  0
 32 33  2  0
 33 34  1  0
 34 35  1  0
 35 36  1  0
 36 37  2  0
 36 38  1  0
 33  3  1  0
 30  7  1  0
 28 18  1  0
 27 21  1  0
  1 39  1  0
  1 40  1  0
  1 41  1  0
  2 42  1  0
  2 43  1  0
  4 44  1  0
  8 45  1  0
 11 46  1  0
 13 47  1  1
 14 48  1  0
 14 49  1  0
 14 50  1  0
 15 51  1  0
 20 52  1  0
 20 53  1  0
 20 54  1  0
 22 55  1  0
 25 56  1  0
 26 57  1  0
 29 58  1  0
 29 59  1  0
 29 60  1  0
 30 61  1  0
 31 62  1  0
 32 63  1  0
 34 64  1  0
 34 65  1  0
 35 66  1  0
 35 67  1  0
 38 68  1  0
M  END
$$$$
