
     RDKit          3D

 62 69  0  0  0  0  0  0  0  0999 V2000
   -4.2759   -1.6898    0.9169 C   0  0  1  0  0  0  0  0  0  0  0  0
   -4.1969   -1.8375    2.3127 O   0  0  0  0  0  0  0  0  0  0  0  0
   -5.2407   -0.6238    0.6940 N   0  0  0  0  0  0  0  0  0  0  0  0
   -4.7002    0.4085    0.1580 C   0  0  0  0  0  0  0  0  0  0  0  0
   -5.5866    1.4195   -0.0585 O   0  0  0  0  0  0  0  0  0  0  0  0
   -3.3054    0.1836   -0.0565 C   0  0  0  0  0  0  0  0  0  0  0  0
   -2.3083    0.9449   -0.5832 C   0  0  0  0  0  0  0  0  0  0  0  0
   -2.3341    2.1995   -1.0734 C   0  0  0  0  0  0  0  0  0  0  0  0
   -3.1681    3.2497   -1.3077 C   0  0  0  0  0  0  0  0  0  0  0  0
   -2.8496    4.4692   -1.8582 C   0  0  0  0  0  0  0  0  0  0  0  0
   -1.5116    4.6612   -2.2234 C   0  0  0  0  0  0  0  0  0  0  0  0
   -0.6074    3.6402   -2.0159 C   0  0  0  0  0  0  0  0  0  0  0  0
   -1.0373    2.4652   -1.4588 C   0  0  0  0  0  0  0  0  0  0  0  0
   -0.2699    1.4065   -1.2067 N   0  0  0  0  0  0  0  0  0  0  0  0
   -1.0467    0.4276   -0.6529 C   0  0  0  0  0  0  0  0  0  0  0  0
   -0.7341   -0.8470   -0.2086 C   0  0  0  0  0  0  0  0  0  0  0  0
    0.4772   -1.4880   -0.2146 N   0  0  0  0  0  0  0  0  0  0  0  0
    0.1791   -2.6591    0.3298 C   0  0  0  0  0  0  0  0  0  0  0  0
    0.9474   -3.7459    0.6128 C   0  0  0  0  0  0  0  0  0  0  0  0
    0.4615   -4.8969    1.1945 C   0  0  0  0  0  0  0  0  0  0  0  0
   -0.8743   -4.9972    1.5264 C   0  0  0  0  0  0  0  0  0  0  0  0
   -1.6797   -3.9104    1.2521 C   0  0  0  0  0  0  0  0  0  0  0  0
   -1.1497   -2.7801    0.6694 C   0  0  0  0  0  0  0  0  0  0  0  0
   -1.7462   -1.5959    0.3175 C   0  0  0  0  0  0  0  0  0  0  0  0
   -3.0242   -1.0854    0.3938 C   0  0  0  0  0  0  0  0  0  0  0  0
    1.7378   -0.9898   -0.7180 C   0  0  1  0  0  0  0  0  0  0  0  0
    2.5629   -2.0857   -1.4150 C   0  0  0  0  0  0  0  0  0  0  0  0
    1.4565   -0.0963   -1.7390 O   0  0  0  0  0  0  0  0  0  0  0  0
    1.1717    1.1873   -1.4221 C   0  0  2  0  0  0  0  0  0  0  0  0
    2.0065    1.7879   -0.3387 C   0  0  0  0  0  0  0  0  0  0  0  0
    3.2057    0.8578   -0.1623 C   0  0  1  0  0  0  0  0  0  0  0  0
    4.1823    1.4286    0.7356 N   0  0  0  0  0  0  0  0  0  0  0  0
    4.6225    2.6853    0.1622 C   0  0  0  0  0  0  0  0  0  0  0  0
    2.6014   -0.4187    0.3811 C   0  0  1  0  0  0  0  0  0  0  0  0
    1.7435   -0.0485    1.4184 O   0  0  0  0  0  0  0  0  0  0  0  0
    2.0989   -0.6855    2.6046 C   0  0  0  0  0  0  0  0  0  0  0  0
   -4.5782   -2.5979    0.3944 H   0  0  0  0  0  0  0  0  0  0  0  0
   -3.9774   -0.9402    2.6728 H   0  0  0  0  0  0  0  0  0  0  0  0
   -6.1490    1.7899    0.6941 H   0  0  0  0  0  0  0  0  0  0  0  0
   -4.1910    3.1420   -1.0438 H   0  0  0  0  0  0  0  0  0  0  0  0
   -3.5561    5.2525   -2.0147 H   0  0  0  0  0  0  0  0  0  0  0  0
   -1.2242    5.6068   -2.6590 H   0  0  0  0  0  0  0  0  0  0  0  0
    0.4017    3.8383   -2.3123 H   0  0  0  0  0  0  0  0  0  0  0  0
    1.9818   -3.7347    0.3947 H   0  0  0  0  0  0  0  0  0  0  0  0
    1.1185   -5.7491    1.4042 H   0  0  0  0  0  0  0  0  0  0  0  0
   -1.2456   -5.9048    1.9823 H   0  0  0  0  0  0  0  0  0  0  0  0
   -2.7093   -3.9746    1.5005 H   0  0  0  0  0  0  0  0  0  0  0  0
    1.9428   -2.9063   -1.7961 H   0  0  0  0  0  0  0  0  0  0  0  0
    3.0460   -1.6683   -2.3607 H   0  0  0  0  0  0  0  0  0  0  0  0
    3.4476   -2.3846   -0.8178 H   0  0  0  0  0  0  0  0  0  0  0  0
    1.4117    1.7916   -2.3420 H   0  0  0  0  0  0  0  0  0  0  0  0
    1.4249    1.7453    0.6034 H   0  0  0  0  0  0  0  0  0  0  0  0
    2.3032    2.8270   -0.4810 H   0  0  0  0  0  0  0  0  0  0  0  0
    3.6550    0.6528   -1.1385 H   0  0  0  0  0  0  0  0  0  0  0  0
    4.9593    0.7395    0.8338 H   0  0  0  0  0  0  0  0  0  0  0  0
    4.2994    2.8160   -0.9017 H   0  0  0  0  0  0  0  0  0  0  0  0
    5.7445    2.7277    0.1012 H   0  0  0  0  0  0  0  0  0  0  0  0
    4.2334    3.5708    0.7206 H   0  0  0  0  0  0  0  0  0  0  0  0
    3.3758   -1.1347    0.7206 H   0  0  0  0  0  0  0  0  0  0  0  0
    2.0531   -1.7726    2.5096 H   0  0  0  0  0  0  0  0  0  0  0  0
    3.0760   -0.3122    3.0117 H   0  0  0  0  0  0  0  0  0  0  0  0
    1.3480   -0.3609    3.3576 H   0  0  0  0  0  0  0  0  0  0  0  0
  1  2  1  0
  1  3  1  0
  3  4  2  0
  4  5  1  0
  4  6  1  0
  6  7  2  0
  7  8  1  0
  8  9  2  0
  9 10  1  0
 10 11  2  0
 11 12  1  0
 12 13  2  0
 13 14  1  0
 14 15  1  0
 15 16  2  0
 16 17  1  0
 17 18  1  0
 18 19  2  0
 19 20  1  0
 20 21  2  0
 21 22  1  0
 22 23  2  0
 23 24  1  0
 24 25  2  0
 17 26  1  0
 26 27  1  6
 26 28  1  0
 28 29  1  0
 29 30  1  0
 30 31  1  0
 31 32  1  0
 32 33  1  0
 31 34  1  0
 34 35  1  0
 35 36  1  0
 25  1  1  0
 34 26  1  0
 25  6  1  0
 15  7  1  0
 24 16  1  0
 13  8  1  0
 29 14  1  0
 23 18  1  0
  1 37  1  6
  2 38  1  0
  5 39  1  0
  9 40  1  0
 10 41  1  0
 11 42  1  0
 12 43  1  0
 19 44  1  0
 20 45  1  0
 21 46  1  0
 22 47  1  0
 27 48  1  0
 27 49  1  0
 27 50  1  0
 29 51  1  6
 30 52  1  0
 30 53  1  0
 31 54  1  6
 32 55  1  0
 33 56  1  0
 33 57  1  0
 33 58  1  0
 34 59  1  1
 36 60  1  0
 36 61  1  0
 36 62  1  0
M  END
$$$$
