
     RDKit          3D

 38 40  0  0  0  0  0  0  0  0999 V2000
    6.3409   -0.4255   -1.4333 C   0  0  0  0  0  0  0  0  0  0  0  0
    5.0214   -0.1857   -0.9736 O   0  0  0  0  0  0  0  0  0  0  0  0
    4.6523   -0.3856    0.3489 C   0  0  0  0  0  0  0  0  0  0  0  0
    5.5244   -0.7911    1.1437 O   0  0  0  0  0  0  0  0  0  0  0  0
    3.2657   -0.1206    0.7810 C   0  0  0  0  0  0  0  0  0  0  0  0
    2.8815   -0.3045    2.0917 C   0  0  0  0  0  0  0  0  0  0  0  0
    1.5683   -0.0567    2.5015 C   0  0  0  0  0  0  0  0  0  0  0  0
    0.6388    0.3829    1.5633 C   0  0  0  0  0  0  0  0  0  0  0  0
    1.0010    0.5762    0.2353 C   0  0  0  0  0  0  0  0  0  0  0  0
    0.0278    1.0219   -0.7011 N   0  0  0  0  0  0  0  0  0  0  0  0
   -1.3536    1.0230   -0.4212 C   0  0  0  0  0  0  0  0  0  0  0  0
   -1.9854    2.2399   -0.4055 C   0  0  0  0  0  0  0  0  0  0  0  0
   -3.3276    2.2741   -0.1376 C   0  0  0  0  0  0  0  0  0  0  0  0
   -4.0944    1.1360    0.1212 C   0  0  0  0  0  0  0  0  0  0  0  0
   -5.4698    1.2440    0.3938 N   0  0  0  0  0  4  0  0  0  0  0  0
   -6.3623    0.4654    0.0970 O   0  0  0  0  0  0  0  0  0  0  0  0
   -5.8689    2.3991    1.0689 O   0  0  0  0  0  1  0  0  0  0  0  0
   -3.4107   -0.0602    0.0926 C   0  0  0  0  0  0  0  0  0  0  0  0
   -4.0367   -1.2593    0.3265 C   0  0  0  0  0  0  0  0  0  0  0  0
   -3.3653   -2.4820    0.2983 C   0  0  0  0  0  0  0  0  0  0  0  0
   -2.0201   -2.5244    0.0280 C   0  0  0  0  0  0  0  0  0  0  0  0
   -1.3669   -1.3239   -0.2103 C   0  0  0  0  0  0  0  0  0  0  0  0
   -2.0357   -0.1305   -0.1788 C   0  0  0  0  0  0  0  0  0  0  0  0
    2.3055    0.3153   -0.1027 C   0  0  0  0  0  0  0  0  0  0  0  0
    6.4651   -0.1294   -2.4894 H   0  0  0  0  0  0  0  0  0  0  0  0
    6.6329   -1.4866   -1.3556 H   0  0  0  0  0  0  0  0  0  0  0  0
    7.0376    0.1593   -0.8213 H   0  0  0  0  0  0  0  0  0  0  0  0
    3.6082   -0.6447    2.8072 H   0  0  0  0  0  0  0  0  0  0  0  0
    1.2603   -0.1980    3.5283 H   0  0  0  0  0  0  0  0  0  0  0  0
   -0.3981    0.5908    1.8283 H   0  0  0  0  0  0  0  0  0  0  0  0
    0.3055    1.3763   -1.6584 H   0  0  0  0  0  0  0  0  0  0  0  0
   -1.4236    3.1381   -0.6014 H   0  0  0  0  0  0  0  0  0  0  0  0
   -3.8337    3.2271   -0.1228 H   0  0  0  0  0  0  0  0  0  0  0  0
   -5.0859   -1.2576    0.5479 H   0  0  0  0  0  0  0  0  0  0  0  0
   -3.9228   -3.4089    0.4939 H   0  0  0  0  0  0  0  0  0  0  0  0
   -1.4814   -3.4598    0.0010 H   0  0  0  0  0  0  0  0  0  0  0  0
   -0.3078   -1.3940   -0.4318 H   0  0  0  0  0  0  0  0  0  0  0  0
    2.6135    0.4595   -1.1333 H   0  0  0  0  0  0  0  0  0  0  0  0
  1  2  1  0
  2  3  1  0
  3  4  2  0
  3  5  1  0
  5  6  2  0
  6  7  1  0
  7  8  2  0
  8  9  1  0
  9 10  1  0
 10 11  1  0
 11 12  2  0
 12 13  1  0
 13 14  2  0
 14 15  1  0
 15 16  2  0
 15 17  1  0
 14 18  1  0
 18 19  2  0
 19 20  1  0
 20 21  2  0
 21 22  1  0
 22 23  2  0
  9 24  2  0
 24  5  1  0
 23 11  1  0
 23 18  1  0
  1 25  1  0
  1 26  1  0
  1 27  1  0
  6 28  1  0
  7 29  1  0
  8 30  1  0
 10 31  1  0
 12 32  1  0
 13 33  1  0
 19 34  1  0
 20 35  1  0
 21 36  1  0
 22 37  1  0
 24 38  1  0
M  CHG  2  15   1  17  -1
M  END
$$$$
