
     RDKit          3D

 58 62  0  0  0  0  0  0  0  0999 V2000
    1.8798   -3.1206   -1.9847 C   0  0  0  0  0  0  0  0  0  0  0  0
    0.7686   -2.3161   -1.6703 O   0  0  0  0  0  0  0  0  0  0  0  0
    0.9767   -1.1218   -0.9959 C   0  0  0  0  0  0  0  0  0  0  0  0
    2.2638   -0.7539   -0.6484 C   0  0  0  0  0  0  0  0  0  0  0  0
    2.5087    0.4225    0.0196 C   0  0  0  0  0  0  0  0  0  0  0  0
    3.7718    0.8292    0.3871 C   0  0  0  0  0  0  0  0  0  0  0  0
    4.9123    0.0307    0.1251 N   0  0  0  0  0  0  0  0  0  0  0  0
    6.2552    0.4411    0.3976 C   0  0  0  0  0  0  0  0  0  0  0  0
    6.5902    1.7558    0.2873 C   0  0  0  0  0  0  0  0  0  0  0  0
    7.9001    2.1334    0.5819 C   0  0  0  0  0  0  0  0  0  0  0  0
    8.8419    1.2140    0.9752 C   0  0  0  0  0  0  0  0  0  0  0  0
   10.4859    1.7086    1.3456 Cl  0  0  0  0  0  0  0  0  0  0  0  0
    8.4921   -0.1026    1.0811 C   0  0  0  0  0  0  0  0  0  0  0  0
    9.7179   -1.2495    1.5878 Cl  0  0  0  0  0  0  0  0  0  0  0  0
    7.2110   -0.4810    0.7944 C   0  0  0  0  0  0  0  0  0  0  0  0
    3.9783    1.9954    1.0444 N   0  0  0  0  0  0  0  0  0  0  0  0
    2.9506    2.7957    1.3608 C   0  0  0  0  0  0  0  0  0  0  0  0
    1.7194    2.4097    1.0089 N   0  0  0  0  0  0  0  0  0  0  0  0
    1.4671    1.2633    0.3570 C   0  0  0  0  0  0  0  0  0  0  0  0
    0.1952    0.8775    0.0018 C   0  0  0  0  0  0  0  0  0  0  0  0
   -0.1109   -0.2936   -0.6700 C   0  0  0  0  0  0  0  0  0  0  0  0
   -1.3065   -0.6283   -0.9876 O   0  0  0  0  0  0  0  0  0  0  0  0
   -2.5098   -0.9640   -1.3068 C   0  0  0  0  0  0  0  0  0  0  0  0
   -3.3932   -1.1158   -0.0401 C   0  0  0  0  0  0  0  0  0  0  0  0
   -3.4623    0.1445    0.7304 C   0  0  0  0  0  0  0  0  0  0  0  0
   -4.8341    0.6653    1.0384 C   0  0  0  0  0  0  0  0  0  0  0  0
   -5.3330    1.4319   -0.1898 C   0  0  0  0  0  0  0  0  0  0  0  0
   -5.9955    0.3440   -0.9771 C   0  0  0  0  0  0  0  0  0  0  0  0
   -5.9156   -0.8955   -0.1369 C   0  0  0  0  0  0  0  0  0  0  0  0
   -4.7066   -1.7077   -0.4430 C   0  0  0  0  0  0  0  0  0  0  0  0
   -5.7856   -0.4207    1.2347 N   0  0  0  0  0  0  0  0  0  0  0  0
   -7.0256    0.0615    1.7653 C   0  0  0  0  0  0  0  0  0  0  0  0
    2.3860   -3.4652   -1.0622 H   0  0  0  0  0  0  0  0  0  0  0  0
    1.5641   -3.9979   -2.6010 H   0  0  0  0  0  0  0  0  0  0  0  0
    2.6439   -2.5503   -2.5769 H   0  0  0  0  0  0  0  0  0  0  0  0
    3.1084   -1.3818   -0.8956 H   0  0  0  0  0  0  0  0  0  0  0  0
    4.8658   -0.9428   -0.2952 H   0  0  0  0  0  0  0  0  0  0  0  0
    5.9236    2.5312   -0.0230 H   0  0  0  0  0  0  0  0  0  0  0  0
    8.1918    3.1771    0.5030 H   0  0  0  0  0  0  0  0  0  0  0  0
    6.9064   -1.5153    0.8714 H   0  0  0  0  0  0  0  0  0  0  0  0
    3.1303    3.7396    1.8946 H   0  0  0  0  0  0  0  0  0  0  0  0
   -0.6060    1.5634    0.2836 H   0  0  0  0  0  0  0  0  0  0  0  0
   -3.0948   -0.3118   -2.0238 H   0  0  0  0  0  0  0  0  0  0  0  0
   -2.5353   -1.9665   -1.8544 H   0  0  0  0  0  0  0  0  0  0  0  0
   -2.8609   -1.8762    0.5688 H   0  0  0  0  0  0  0  0  0  0  0  0
   -2.9193    0.0733    1.7190 H   0  0  0  0  0  0  0  0  0  0  0  0
   -2.9297    0.9772    0.1912 H   0  0  0  0  0  0  0  0  0  0  0  0
   -4.7667    1.3518    1.8860 H   0  0  0  0  0  0  0  0  0  0  0  0
   -6.0792    2.2055    0.0967 H   0  0  0  0  0  0  0  0  0  0  0  0
   -4.4401    1.8452   -0.6822 H   0  0  0  0  0  0  0  0  0  0  0  0
   -7.0474    0.5717   -1.2384 H   0  0  0  0  0  0  0  0  0  0  0  0
   -5.4454    0.2145   -1.9336 H   0  0  0  0  0  0  0  0  0  0  0  0
   -6.8041   -1.5393   -0.2653 H   0  0  0  0  0  0  0  0  0  0  0  0
   -4.7068   -1.9129   -1.5374 H   0  0  0  0  0  0  0  0  0  0  0  0
   -4.8747   -2.7237    0.0251 H   0  0  0  0  0  0  0  0  0  0  0  0
   -7.5799   -0.7137    2.3598 H   0  0  0  0  0  0  0  0  0  0  0  0
   -6.8049    0.8857    2.4863 H   0  0  0  0  0  0  0  0  0  0  0  0
   -7.7330    0.4085    0.9892 H   0  0  0  0  0  0  0  0  0  0  0  0
  1  2  1  0
  2  3  1  0
  3  4  2  0
  4  5  1  0
  5  6  2  0
  6  7  1  0
  7  8  1  0
  8  9  2  0
  9 10  1  0
 10 11  2  0
 11 12  1  0
 11 13  1  0
 13 14  1  0
 13 15  2  0
  6 16  1  0
 16 17  2  0
 17 18  1  0
 18 19  2  0
 19 20  1  0
 20 21  2  0
 21 22  1  0
 22 23  1  0
 23 24  1  0
 24 25  1  0
 25 26  1  0
 26 27  1  0
 27 28  1  0
 28 29  1  0
 29 30  1  0
 29 31  1  0
 31 32  1  0
 21  3  1  0
 30 24  1  0
 19  5  1  0
 31 26  1  0
 15  8  1  0
  1 33  1  0
  1 34  1  0
  1 35  1  0
  4 36  1  0
  7 37  1  0
  9 38  1  0
 10 39  1  0
 15 40  1  0
 17 41  1  0
 20 42  1  0
 23 43  1  0
 23 44  1  0
 24 45  1  0
 25 46  1  0
 25 47  1  0
 26 48  1  0
 27 49  1  0
 27 50  1  0
 28 51  1  0
 28 52  1  0
 29 53  1  0
 30 54  1  0
 30 55  1  0
 32 56  1  0
 32 57  1  0
 32 58  1  0
M  END
$$$$
