
     RDKit          3D

100106  0  0  0  0  0  0  0  0999 V2000
   -7.9619   -1.7641    5.8380 C   0  0  0  0  0  0  0  0  0  0  0  0
   -8.8984   -1.6147    4.9432 C   0  0  0  0  0  0  0  0  0  0  0  0
  -10.2542   -2.1319    5.1331 C   0  0  0  0  0  0  0  0  0  0  0  0
   -8.5947   -0.8956    3.6842 C   0  0  0  0  0  0  0  0  0  0  0  0
   -7.3808   -0.3564    3.3759 C   0  0  0  0  0  0  0  0  0  0  0  0
   -7.4939    0.2415    2.0920 C   0  0  0  0  0  0  0  0  0  0  0  0
   -6.3686    0.8521    1.5235 N   0  0  0  0  0  0  0  0  0  0  0  0
   -5.5797    0.3332    0.4515 C   0  0  0  0  0  0  0  0  0  0  0  0
   -5.9855   -0.6901   -0.1375 O   0  0  0  0  0  0  0  0  0  0  0  0
   -4.3632    0.9730    0.0803 N   0  0  0  0  0  0  0  0  0  0  0  0
   -3.5306    0.5594   -0.9838 C   0  0  0  0  0  0  0  0  0  0  0  0
   -3.4160    1.4150   -2.0894 C   0  0  0  0  0  0  0  0  0  0  0  0
   -2.6094    1.0221   -3.1334 C   0  0  0  0  0  0  0  0  0  0  0  0
   -1.9385   -0.1996   -3.0636 C   0  0  0  0  0  0  0  0  0  0  0  0
   -1.1201   -0.5156   -4.1645 O   0  0  0  0  0  0  0  0  0  0  0  0
    0.2404   -0.6378   -3.8068 C   0  0  0  0  0  0  0  0  0  0  0  0
    1.1483   -0.8936   -4.8124 C   0  0  0  0  0  0  0  0  0  0  0  0
    2.4948   -1.0139   -4.4642 C   0  0  0  0  0  0  0  0  0  0  0  0
    2.8569   -0.8825   -3.1959 N   0  0  0  0  0  0  0  0  0  0  0  0
    1.9883   -0.6364   -2.2140 C   0  0  0  0  0  0  0  0  0  0  0  0
    2.3944   -0.5652   -0.8778 N   0  0  0  0  0  0  0  0  0  0  0  0
    3.6888   -0.6096   -0.3473 C   0  0  0  0  0  0  0  0  0  0  0  0
    3.8616   -1.4905    0.7330 C   0  0  0  0  0  0  0  0  0  0  0  0
    5.0609   -1.6052    1.3736 C   0  0  0  0  0  0  0  0  0  0  0  0
    5.2233   -2.4924    2.4498 O   0  0  0  0  0  0  0  0  0  0  0  0
    4.1129   -3.2682    2.8391 C   0  0  0  0  0  0  0  0  0  0  0  0
    6.1163   -0.8264    0.9360 C   0  0  0  0  0  0  0  0  0  0  0  0
    5.9987    0.0523   -0.1158 C   0  0  0  0  0  0  0  0  0  0  0  0
    7.0854    0.9076   -0.5615 C   0  0  0  0  0  0  0  0  0  0  0  0
    6.9211    1.7032   -1.5281 O   0  0  0  0  0  0  0  0  0  0  0  0
    8.3669    0.9131    0.0419 N   0  0  0  0  0  0  0  0  0  0  0  0
    9.4279    1.8118   -0.4329 C   0  0  0  0  0  0  0  0  0  0  0  0
   10.6870    1.6122    0.3806 C   0  0  0  0  0  0  0  0  0  0  0  0
   11.6962    2.5056   -0.0637 N   0  0  0  0  0  0  0  0  0  0  0  0
   12.9337    2.3867    0.6354 C   0  0  0  0  0  0  0  0  0  0  0  0
   13.9990    1.7526   -0.2320 C   0  0  0  0  0  0  0  0  0  0  0  0
   14.2635    2.6210   -1.2744 O   0  0  0  0  0  0  0  0  0  0  0  0
   13.1924    3.3713   -1.6932 C   0  0  0  0  0  0  0  0  0  0  0  0
   11.8458    2.6697   -1.4684 C   0  0  0  0  0  0  0  0  0  0  0  0
    4.7731    0.1370   -0.7383 C   0  0  0  0  0  0  0  0  0  0  0  0
    0.6930   -0.5214   -2.5701 N   0  0  0  0  0  0  0  0  0  0  0  0
   -2.0378   -1.0467   -2.0112 C   0  0  0  0  0  0  0  0  0  0  0  0
   -1.3995   -2.2639   -1.9619 C   0  0  0  0  0  0  0  0  0  0  0  0
   -1.5223   -3.1248   -0.8932 C   0  0  0  0  0  0  0  0  0  0  0  0
   -2.3233   -2.7089    0.1378 C   0  0  0  0  0  0  0  0  0  0  0  0
   -2.9801   -1.4915    0.1155 C   0  0  0  0  0  0  0  0  0  0  0  0
   -2.8666   -0.6207   -0.9529 C   0  0  0  0  0  0  0  0  0  0  0  0
   -8.7397    0.0294    1.7159 N   0  0  0  0  0  0  0  0  0  0  0  0
   -9.3286    0.4033    0.4848 C   0  0  0  0  0  0  0  0  0  0  0  0
   -8.9988    1.4821   -0.2494 C   0  0  0  0  0  0  0  0  0  0  0  0
   -9.6058    1.8015   -1.4568 C   0  0  0  0  0  0  0  0  0  0  0  0
  -10.5960    1.0125   -1.9731 C   0  0  0  0  0  0  0  0  0  0  0  0
  -11.2240    1.2989   -3.1726 O   0  0  0  0  0  0  0  0  0  0  0  0
  -12.2507    0.5155   -3.7349 C   0  0  0  0  0  0  0  0  0  0  0  0
  -10.9634   -0.1205   -1.2304 C   0  0  0  0  0  0  0  0  0  0  0  0
  -10.3473   -0.4176   -0.0335 C   0  0  0  0  0  0  0  0  0  0  0  0
   -9.4140   -0.6558    2.6709 N   0  0  0  0  0  0  0  0  0  0  0  0
   -6.9460   -1.3626    5.6663 H   0  0  0  0  0  0  0  0  0  0  0  0
   -8.0911   -2.2661    6.7823 H   0  0  0  0  0  0  0  0  0  0  0  0
  -10.3172   -3.2031    5.3862 H   0  0  0  0  0  0  0  0  0  0  0  0
  -10.7530   -1.5069    5.9272 H   0  0  0  0  0  0  0  0  0  0  0  0
  -10.8867   -2.0054    4.2268 H   0  0  0  0  0  0  0  0  0  0  0  0
   -6.4829   -0.3698    3.9814 H   0  0  0  0  0  0  0  0  0  0  0  0
   -5.9954    1.7438    1.9785 H   0  0  0  0  0  0  0  0  0  0  0  0
   -4.0497    1.8242    0.6330 H   0  0  0  0  0  0  0  0  0  0  0  0
   -3.9670    2.3348   -2.0631 H   0  0  0  0  0  0  0  0  0  0  0  0
   -2.5057    1.6658   -3.9877 H   0  0  0  0  0  0  0  0  0  0  0  0
    0.8304   -1.0002   -5.8478 H   0  0  0  0  0  0  0  0  0  0  0  0
    3.1764   -1.2096   -5.2570 H   0  0  0  0  0  0  0  0  0  0  0  0
    1.5900   -0.4659   -0.1664 H   0  0  0  0  0  0  0  0  0  0  0  0
    3.0259   -2.0888    1.0620 H   0  0  0  0  0  0  0  0  0  0  0  0
    4.3979   -4.0780    3.5462 H   0  0  0  0  0  0  0  0  0  0  0  0
    3.3141   -2.6629    3.2753 H   0  0  0  0  0  0  0  0  0  0  0  0
    3.6532   -3.7971    1.9664 H   0  0  0  0  0  0  0  0  0  0  0  0
    7.0650   -0.9148    1.4390 H   0  0  0  0  0  0  0  0  0  0  0  0
    8.5758    0.2729    0.8364 H   0  0  0  0  0  0  0  0  0  0  0  0
    9.5734    1.5439   -1.4978 H   0  0  0  0  0  0  0  0  0  0  0  0
    9.0485    2.8248   -0.2709 H   0  0  0  0  0  0  0  0  0  0  0  0
   10.4641    1.7856    1.4476 H   0  0  0  0  0  0  0  0  0  0  0  0
   11.0394    0.5485    0.3055 H   0  0  0  0  0  0  0  0  0  0  0  0
   13.3093    3.4251    0.8472 H   0  0  0  0  0  0  0  0  0  0  0  0
   12.7639    1.8270    1.5657 H   0  0  0  0  0  0  0  0  0  0  0  0
   13.6332    0.7657   -0.5783 H   0  0  0  0  0  0  0  0  0  0  0  0
   14.9234    1.6143    0.3497 H   0  0  0  0  0  0  0  0  0  0  0  0
   13.2819    3.4839   -2.7926 H   0  0  0  0  0  0  0  0  0  0  0  0
   13.1754    4.4033   -1.2832 H   0  0  0  0  0  0  0  0  0  0  0  0
   11.0851    3.4095   -1.8453 H   0  0  0  0  0  0  0  0  0  0  0  0
   11.8779    1.7641   -2.0748 H   0  0  0  0  0  0  0  0  0  0  0  0
    4.6248    0.8174   -1.5869 H   0  0  0  0  0  0  0  0  0  0  0  0
   -0.7866   -2.6224   -2.8032 H   0  0  0  0  0  0  0  0  0  0  0  0
   -1.0232   -4.0820   -0.8479 H   0  0  0  0  0  0  0  0  0  0  0  0
   -2.4667   -3.3300    1.0105 H   0  0  0  0  0  0  0  0  0  0  0  0
   -3.5927   -1.2005    0.9592 H   0  0  0  0  0  0  0  0  0  0  0  0
   -8.2128    2.1448    0.1083 H   0  0  0  0  0  0  0  0  0  0  0  0
   -9.3143    2.6884   -2.0283 H   0  0  0  0  0  0  0  0  0  0  0  0
  -11.8716   -0.2729   -4.3931 H   0  0  0  0  0  0  0  0  0  0  0  0
  -12.9223    0.0478   -2.9790 H   0  0  0  0  0  0  0  0  0  0  0  0
  -12.8566    1.2198   -4.3724 H   0  0  0  0  0  0  0  0  0  0  0  0
  -11.7398   -0.7585   -1.6188 H   0  0  0  0  0  0  0  0  0  0  0  0
  -10.6247   -1.2800    0.5345 H   0  0  0  0  0  0  0  0  0  0  0  0
  1  2  2  3
  2  3  1  0
  2  4  1  0
  4  5  1  0
  5  6  2  0
  6  7  1  0
  7  8  1  0
  8  9  2  0
  8 10  1  0
 10 11  1  0
 11 12  2  0
 12 13  1  0
 13 14  2  0
 14 15  1  0
 15 16  1  0
 16 17  2  0
 17 18  1  0
 18 19  2  0
 19 20  1  0
 20 21  1  0
 21 22  1  0
 22 23  2  0
 23 24  1  0
 24 25  1  0
 25 26  1  0
 24 27  2  0
 27 28  1  0
 28 29  1  0
 29 30  2  0
 29 31  1  0
 31 32  1  0
 32 33  1  0
 33 34  1  0
 34 35  1  0
 35 36  1  0
 36 37  1  0
 37 38  1  0
 38 39  1  0
 28 40  2  0
 20 41  2  0
 14 42  1  0
 42 43  2  0
 43 44  1  0
 44 45  2  0
 45 46  1  0
 46 47  2  0
  6 48  1  0
 48 49  1  0
 49 50  2  0
 50 51  1  0
 51 52  2  0
 52 53  1  0
 53 54  1  0
 52 55  1  0
 55 56  2  0
 48 57  1  0
 57  4  2  0
 47 11  1  0
 56 49  1  0
 41 16  1  0
 47 42  1  0
 40 22  1  0
 39 34  1  0
  1 58  1  0
  1 59  1  0
  3 60  1  0
  3 61  1  0
  3 62  1  0
  5 63  1  0
  7 64  1  0
 10 65  1  0
 12 66  1  0
 13 67  1  0
 17 68  1  0
 18 69  1  0
 21 70  1  0
 23 71  1  0
 26 72  1  0
 26 73  1  0
 26 74  1  0
 27 75  1  0
 31 76  1  0
 32 77  1  0
 32 78  1  0
 33 79  1  0
 33 80  1  0
 35 81  1  0
 35 82  1  0
 36 83  1  0
 36 84  1  0
 38 85  1  0
 38 86  1  0
 39 87  1  0
 39 88  1  0
 40 89  1  0
 43 90  1  0
 44 91  1  0
 45 92  1  0
 46 93  1  0
 50 94  1  0
 51 95  1  0
 54 96  1  0
 54 97  1  0
 54 98  1  0
 55 99  1  0
 56100  1  0
M  END
$$$$
