
     RDKit          3D

 39 41  0  0  0  0  0  0  0  0999 V2000
    7.1059   -0.3122   -2.0667 Cl  0  0  0  0  0  0  0  0  0  0  0  0
    5.5775   -0.2137   -1.2296 C   0  0  0  0  0  0  0  0  0  0  0  0
    4.7883   -1.3284   -1.1189 C   0  0  0  0  0  0  0  0  0  0  0  0
    3.5897   -1.2730   -0.4686 C   0  0  0  0  0  0  0  0  0  0  0  0
    3.0949   -0.1032    0.1165 C   0  0  0  0  0  0  0  0  0  0  0  0
    1.7887   -0.0672    0.8185 C   0  0  0  0  0  0  0  0  0  0  0  0
    0.7459    0.2520   -0.0491 O   0  0  0  0  0  0  0  0  0  0  0  0
   -0.4852    0.2858    0.6134 C   0  0  0  0  0  0  0  0  0  0  0  0
   -1.0454    1.6576    0.4305 C   0  0  0  0  0  0  0  0  0  0  0  0
   -2.3133    1.8977    1.0435 N   0  0  0  0  0  0  0  0  0  0  0  0
   -3.5137    1.6833    0.4349 C   0  0  0  0  0  0  0  0  0  0  0  0
   -4.4992    2.0236    1.3080 C   0  0  0  0  0  0  0  0  0  0  0  0
   -3.9464    2.4456    2.4476 N   0  0  0  0  0  0  0  0  0  0  0  0
   -2.6205    2.3631    2.2708 C   0  0  0  0  0  0  0  0  0  0  0  0
   -1.3391   -0.7392   -0.0459 C   0  0  0  0  0  0  0  0  0  0  0  0
   -1.1496   -0.9785   -1.3953 C   0  0  0  0  0  0  0  0  0  0  0  0
   -1.9494   -1.9234   -1.9980 C   0  0  0  0  0  0  0  0  0  0  0  0
   -2.9151   -2.6238   -1.3068 C   0  0  0  0  0  0  0  0  0  0  0  0
   -3.8916   -3.8128   -2.1577 Cl  0  0  0  0  0  0  0  0  0  0  0  0
   -3.0987   -2.3807    0.0372 C   0  0  0  0  0  0  0  0  0  0  0  0
   -2.2958   -1.4241    0.6692 C   0  0  0  0  0  0  0  0  0  0  0  0
   -2.5164   -1.1135    2.3800 Cl  0  0  0  0  0  0  0  0  0  0  0  0
    3.9037    1.0053   -0.0063 C   0  0  0  0  0  0  0  0  0  0  0  0
    5.1121    0.9546   -0.6606 C   0  0  0  0  0  0  0  0  0  0  0  0
    5.1361   -2.2500   -1.5575 H   0  0  0  0  0  0  0  0  0  0  0  0
    2.9593   -2.1473   -0.3757 H   0  0  0  0  0  0  0  0  0  0  0  0
    1.5931   -1.1073    1.1717 H   0  0  0  0  0  0  0  0  0  0  0  0
    1.8083    0.6735    1.6320 H   0  0  0  0  0  0  0  0  0  0  0  0
   -0.3149    0.0452    1.6818 H   0  0  0  0  0  0  0  0  0  0  0  0
   -1.1350    1.8618   -0.6562 H   0  0  0  0  0  0  0  0  0  0  0  0
   -0.3280    2.4134    0.8359 H   0  0  0  0  0  0  0  0  0  0  0  0
   -3.6362    1.3095   -0.5626 H   0  0  0  0  0  0  0  0  0  0  0  0
   -5.5787    1.9807    1.1595 H   0  0  0  0  0  0  0  0  0  0  0  0
   -1.9063    2.6408    3.0317 H   0  0  0  0  0  0  0  0  0  0  0  0
   -0.3920   -0.4222   -1.9153 H   0  0  0  0  0  0  0  0  0  0  0  0
   -1.8205   -2.1337   -3.0692 H   0  0  0  0  0  0  0  0  0  0  0  0
   -3.8364   -2.9016    0.6110 H   0  0  0  0  0  0  0  0  0  0  0  0
    3.5806    1.9366    0.4219 H   0  0  0  0  0  0  0  0  0  0  0  0
    5.7436    1.8258   -0.7549 H   0  0  0  0  0  0  0  0  0  0  0  0
  1  2  1  0
  2  3  2  0
  3  4  1  0
  4  5  2  0
  5  6  1  0
  6  7  1  0
  7  8  1  0
  8  9  1  0
  9 10  1  0
 10 11  1  0
 11 12  2  0
 12 13  1  0
 13 14  2  0
  8 15  1  0
 15 16  2  0
 16 17  1  0
 17 18  2  0
 18 19  1  0
 18 20  1  0
 20 21  2  0
 21 22  1  0
  5 23  1  0
 23 24  2  0
 24  2  1  0
 14 10  1  0
 21 15  1  0
  3 25  1  0
  4 26  1  0
  6 27  1  0
  6 28  1  0
  8 29  1  0
  9 30  1  0
  9 31  1  0
 11 32  1  0
 12 33  1  0
 14 34  1  0
 16 35  1  0
 17 36  1  0
 20 37  1  0
 23 38  1  0
 24 39  1  0
M  END
$$$$
