
     RDKit          3D

 54 57  0  0  0  0  0  0  0  0999 V2000
    8.7442    3.4694    0.3608 C   0  0  0  0  0  0  0  0  0  0  0  0
    9.0019    2.1378    0.2977 C   0  0  0  0  0  0  0  0  0  0  0  0
    9.2755    0.6840    0.2238 C   0  0  0  0  0  0  0  0  0  0  0  0
    8.3391   -0.1893    0.6357 O   0  0  0  0  0  0  0  0  0  0  0  0
    6.9226   -0.0088    0.5255 C   0  0  0  0  0  0  0  0  0  0  0  0
    6.2082   -1.0574    1.1369 C   0  0  0  0  0  0  0  0  0  0  0  0
    4.8610   -1.0162    0.9914 N   0  0  0  0  0  0  0  0  0  0  0  0
    4.2174   -0.0442    0.3245 C   0  0  0  0  0  0  0  0  0  0  0  0
    2.7880   -0.1769   -0.0597 C   0  0  0  0  0  0  0  0  0  0  0  0
    2.1644    0.3955   -1.0479 F   0  0  0  0  0  0  0  0  0  0  0  0
    2.1205   -0.9928    0.7062 C   0  0  0  0  0  0  0  0  0  0  0  0
    0.8291   -1.5386    0.8537 C   0  0  0  0  0  0  0  0  0  0  0  0
    0.6037   -2.7325    1.4322 C   0  0  0  0  0  0  0  0  0  0  0  0
   -0.6597   -3.3495    1.4408 C   0  0  0  0  0  0  0  0  0  0  0  0
   -1.7296   -2.7116    0.8468 C   0  0  0  0  0  0  0  0  0  0  0  0
   -2.9939   -3.1333    0.7966 F   0  0  0  0  0  0  0  0  0  0  0  0
   -1.5445   -1.3598    0.1935 C   0  0  0  0  0  0  0  0  0  0  0  0
   -2.7217   -0.6863   -0.3695 C   0  0  1  0  0  0  0  0  0  0  0  0
   -2.2188    0.5698   -1.1686 C   0  0  0  0  0  0  0  0  0  0  0  0
   -3.2154   -1.6507   -1.3928 N   0  0  0  0  0  0  0  0  0  0  0  0
   -4.3471   -1.6910   -1.8545 C   0  0  0  0  0  0  0  0  0  0  0  0
   -4.9713   -2.4936   -2.7596 N   0  0  0  0  0  0  0  0  0  0  0  0
   -5.5472   -0.4294   -1.1933 S   0  0  0  0  0  0  0  0  0  0  0  0
   -4.8799    0.3250    0.2570 C   0  0  1  0  0  0  0  0  0  0  0  0
   -5.0793    1.8315    0.4435 C   0  0  0  0  0  0  0  0  0  0  0  0
   -4.6111    2.4987    1.3343 O   0  0  0  0  0  0  0  0  0  0  0  0
   -5.9245    2.4523   -0.5758 N   0  0  0  0  0  0  0  0  0  0  0  0
   -6.2628    3.8578   -0.5926 C   0  0  0  0  0  0  0  0  0  0  0  0
   -4.6491   -0.5661    1.4784 C   0  0  0  0  0  0  0  0  0  0  0  0
   -3.5196   -0.1595    0.6887 C   0  0  1  0  0  0  0  0  0  0  0  0
   -0.2962   -1.0192    0.3049 C   0  0  0  0  0  0  0  0  0  0  0  0
    4.9437    0.9910   -0.2412 C   0  0  0  0  0  0  0  0  0  0  0  0
    6.3235    0.9495   -0.1077 N   0  0  0  0  0  0  0  0  0  0  0  0
    8.5495    4.3907    0.4088 H   0  0  0  0  0  0  0  0  0  0  0  0
   10.3013    0.4404    0.6818 H   0  0  0  0  0  0  0  0  0  0  0  0
    9.4666    0.5137   -0.8826 H   0  0  0  0  0  0  0  0  0  0  0  0
    6.7198   -1.7751    1.7290 H   0  0  0  0  0  0  0  0  0  0  0  0
    2.8075   -1.2267    1.6325 H   0  0  0  0  0  0  0  0  0  0  0  0
    1.4252   -3.2961    1.9191 H   0  0  0  0  0  0  0  0  0  0  0  0
   -0.7541   -4.2975    1.9307 H   0  0  0  0  0  0  0  0  0  0  0  0
   -3.1144    1.2342   -1.3695 H   0  0  0  0  0  0  0  0  0  0  0  0
   -1.7158    0.2232   -2.0827 H   0  0  0  0  0  0  0  0  0  0  0  0
   -1.5688    1.1210   -0.4906 H   0  0  0  0  0  0  0  0  0  0  0  0
   -4.5435   -3.4272   -3.1168 H   0  0  0  0  0  0  0  0  0  0  0  0
   -5.9257   -2.3339   -3.2019 H   0  0  0  0  0  0  0  0  0  0  0  0
   -6.2716    1.8162   -1.3120 H   0  0  0  0  0  0  0  0  0  0  0  0
   -7.2289    3.9559   -1.1685 H   0  0  0  0  0  0  0  0  0  0  0  0
   -6.4236    4.1667    0.4622 H   0  0  0  0  0  0  0  0  0  0  0  0
   -5.4629    4.4520   -1.1371 H   0  0  0  0  0  0  0  0  0  0  0  0
   -4.8512   -0.0334    2.4655 H   0  0  0  0  0  0  0  0  0  0  0  0
   -5.0790   -1.5738    1.4594 H   0  0  0  0  0  0  0  0  0  0  0  0
   -2.9032    0.7037    1.2473 H   0  0  0  0  0  0  0  0  0  0  0  0
   -0.0629   -0.0235   -0.2704 H   0  0  0  0  0  0  0  0  0  0  0  0
    4.4648    1.8136   -0.6984 H   0  0  0  0  0  0  0  0  0  0  0  0
  1  2  3  0
  2  3  1  0
  3  4  1  0
  4  5  1  0
  5  6  2  0
  6  7  1  0
  7  8  2  0
  8  9  1  0
  9 10  1  0
  9 11  2  0
 11 12  1  0
 12 13  2  0
 13 14  1  0
 14 15  2  0
 15 16  1  0
 15 17  1  0
 17 18  1  0
 18 19  1  6
 18 20  1  0
 20 21  2  0
 21 22  1  0
 21 23  1  0
 23 24  1  0
 24 25  1  1
 25 26  2  0
 25 27  1  0
 27 28  1  0
 24 29  1  0
 29 30  1  0
 17 31  2  0
  8 32  1  0
 32 33  2  0
 33  5  1  0
 31 12  1  0
 30 18  1  0
 30 24  1  0
  1 34  1  0
  3 35  1  0
  3 36  1  0
  6 37  1  0
 11 38  1  0
 13 39  1  0
 14 40  1  0
 19 41  1  0
 19 42  1  0
 19 43  1  0
 22 44  1  0
 22 45  1  0
 27 46  1  0
 28 47  1  0
 28 48  1  0
 28 49  1  0
 29 50  1  0
 29 51  1  0
 30 52  1  1
 31 53  1  0
 32 54  1  0
M  END
$$$$
