
     RDKit          3D

 56 60  0  0  0  0  0  0  0  0999 V2000
    2.6316   -3.5096    0.5253 O   0  0  0  0  0  0  0  0  0  0  0  0
    2.7160   -2.2633    0.4282 C   0  0  0  0  0  0  0  0  0  0  0  0
    4.0733   -1.6953    0.4458 C   0  0  0  0  0  0  0  0  0  0  0  0
    4.3786   -0.4448    0.3580 C   0  0  0  0  0  0  0  0  0  0  0  0
    5.6510    0.2398    0.3587 C   0  0  0  0  0  0  0  0  0  0  0  0
    5.8124    1.6286    0.4545 C   0  0  0  0  0  0  0  0  0  0  0  0
    4.7479    2.6026    0.6143 C   0  0  0  0  0  0  0  0  0  0  0  0
    5.0423    3.8427    0.6886 O   0  0  0  0  0  0  0  0  0  0  0  0
    3.4170    2.3097    0.6965 O   0  0  0  0  0  0  0  0  0  0  0  0
    7.1281    1.9070    0.3813 N   0  0  0  0  0  0  0  0  0  0  0  0
    7.8666    0.8089    0.2430 C   0  0  0  0  0  0  0  0  0  0  0  0
    9.2199    0.5685    0.1181 C   0  0  0  0  0  0  0  0  0  0  0  0
   10.3373    1.9419    0.1471 Cl  0  0  0  0  0  0  0  0  0  0  0  0
    9.7121   -0.7076   -0.0271 C   0  0  0  0  0  0  0  0  0  0  0  0
    8.8236   -1.7368   -0.0452 C   0  0  0  0  0  0  0  0  0  0  0  0
    7.4541   -1.5207    0.0791 C   0  0  0  0  0  0  0  0  0  0  0  0
    6.9470   -0.2493    0.2267 C   0  0  0  0  0  0  0  0  0  0  0  0
    1.5311   -1.5183    0.3122 N   0  0  0  0  0  0  0  0  0  0  0  0
    0.2025   -1.9967    0.2886 C   0  0  0  0  0  0  0  0  0  0  0  0
   -0.1270   -3.3064    0.3793 C   0  0  0  0  0  0  0  0  0  0  0  0
   -1.4377   -3.7718    0.3555 C   0  0  0  0  0  0  0  0  0  0  0  0
   -2.4363   -2.8157    0.2311 C   0  0  0  0  0  0  0  0  0  0  0  0
   -2.1689   -1.4806    0.1354 C   0  0  0  0  0  0  0  0  0  0  0  0
   -3.2187   -0.4718    0.0043 C   0  0  0  0  0  0  0  0  0  0  0  0
   -4.5068   -0.7092   -0.0369 C   0  0  0  0  0  0  0  0  0  0  0  0
   -5.5232    0.3129   -0.1675 C   0  0  0  0  0  0  0  0  0  0  0  0
   -5.2013    1.6348   -0.2596 C   0  0  0  0  0  0  0  0  0  0  0  0
   -6.2147    2.6041   -0.3858 C   0  0  0  0  0  0  0  0  0  0  0  0
   -7.5401    2.2337   -0.4180 C   0  0  0  0  0  0  0  0  0  0  0  0
   -8.5176    3.1969   -0.5420 C   0  0  0  0  0  0  0  0  0  0  0  0
   -9.8307    2.7868   -0.5703 C   0  0  0  0  0  0  0  0  0  0  0  0
  -10.1467    1.4591   -0.4775 C   0  0  0  0  0  0  0  0  0  0  0  0
  -11.8395    0.9714   -0.5174 Cl  0  0  0  0  0  0  0  0  0  0  0  0
   -9.1489    0.5204   -0.3545 C   0  0  0  0  0  0  0  0  0  0  0  0
   -7.8202    0.8850   -0.3217 C   0  0  0  0  0  0  0  0  0  0  0  0
   -6.8241   -0.0133   -0.2021 N   0  0  0  0  0  0  0  0  0  0  0  0
   -0.8473   -1.0734    0.1644 C   0  0  0  0  0  0  0  0  0  0  0  0
    4.8589   -2.4024    0.5698 H   0  0  0  0  0  0  0  0  0  0  0  0
    3.4951    0.2178    0.2435 H   0  0  0  0  0  0  0  0  0  0  0  0
    2.7248    2.8482    1.1980 H   0  0  0  0  0  0  0  0  0  0  0  0
    7.5091    2.8718    0.4287 H   0  0  0  0  0  0  0  0  0  0  0  0
   10.8008   -0.8850   -0.1259 H   0  0  0  0  0  0  0  0  0  0  0  0
    9.1747   -2.7431   -0.1575 H   0  0  0  0  0  0  0  0  0  0  0  0
    6.7818   -2.3449    0.0449 H   0  0  0  0  0  0  0  0  0  0  0  0
    1.6785   -0.4456    0.2325 H   0  0  0  0  0  0  0  0  0  0  0  0
    0.6067   -4.0925    0.4775 H   0  0  0  0  0  0  0  0  0  0  0  0
   -1.6430   -4.8260    0.4313 H   0  0  0  0  0  0  0  0  0  0  0  0
   -3.4801   -3.1514    0.2093 H   0  0  0  0  0  0  0  0  0  0  0  0
   -2.9235    0.5916   -0.0681 H   0  0  0  0  0  0  0  0  0  0  0  0
   -4.8233   -1.7583    0.0333 H   0  0  0  0  0  0  0  0  0  0  0  0
   -4.1983    2.0299   -0.2446 H   0  0  0  0  0  0  0  0  0  0  0  0
   -5.9745    3.6525   -0.4596 H   0  0  0  0  0  0  0  0  0  0  0  0
   -8.2769    4.2455   -0.6157 H   0  0  0  0  0  0  0  0  0  0  0  0
  -10.5963    3.5590   -0.6689 H   0  0  0  0  0  0  0  0  0  0  0  0
   -9.4307   -0.5101   -0.2842 H   0  0  0  0  0  0  0  0  0  0  0  0
   -0.6264   -0.0274    0.0900 H   0  0  0  0  0  0  0  0  0  0  0  0
  1  2  2  0
  2  3  1  0
  3  4  2  0
  4  5  1  0
  5  6  2  0
  6  7  1  0
  7  8  2  0
  7  9  1  0
  6 10  1  0
 10 11  1  0
 11 12  2  0
 12 13  1  0
 12 14  1  0
 14 15  2  0
 15 16  1  0
 16 17  2  0
  2 18  1  0
 18 19  1  0
 19 20  2  0
 20 21  1  0
 21 22  2  0
 22 23  1  0
 23 24  1  0
 24 25  2  0
 25 26  1  0
 26 27  2  0
 27 28  1  0
 28 29  2  0
 29 30  1  0
 30 31  2  0
 31 32  1  0
 32 33  1  0
 32 34  2  0
 34 35  1  0
 35 36  2  0
 23 37  2  0
 17  5  1  0
 37 19  1  0
 17 11  1  0
 36 26  1  0
 35 29  1  0
  3 38  1  0
  4 39  1  0
  9 40  1  0
 10 41  1  0
 14 42  1  0
 15 43  1  0
 16 44  1  0
 18 45  1  0
 20 46  1  0
 21 47  1  0
 22 48  1  0
 24 49  1  0
 25 50  1  0
 27 51  1  0
 28 52  1  0
 30 53  1  0
 31 54  1  0
 34 55  1  0
 37 56  1  0
M  END
$$$$
