
     RDKit          3D

 63 69  0  0  0  0  0  0  0  0999 V2000
    1.5497    1.9182    1.4123 N   0  0  0  0  0  0  0  0  0  0  0  0
    0.2708    2.0165    0.7826 C   0  0  0  0  0  0  0  0  0  0  0  0
   -0.3171    3.2228    0.8782 N   0  0  0  0  0  0  0  0  0  0  0  0
   -1.5209    3.3893    0.3418 C   0  0  0  0  0  0  0  0  0  0  0  0
   -2.1313    2.3281   -0.2934 C   0  0  0  0  0  0  0  0  0  0  0  0
   -1.5738    1.1177   -0.4040 N   0  0  0  0  0  0  0  0  0  0  0  0
   -0.3550    0.9693    0.1436 C   0  0  0  0  0  0  0  0  0  0  0  0
    0.0454   -0.3537   -0.0742 C   0  0  0  0  0  0  0  0  0  0  0  0
    1.2913   -0.9591    0.3820 C   0  0  0  0  0  0  0  0  0  0  0  0
    1.2973   -2.1093    1.1450 C   0  0  0  0  0  0  0  0  0  0  0  0
    2.4697   -2.6950    1.5729 C   0  0  0  0  0  0  0  0  0  0  0  0
    3.6812   -2.1126    1.2279 C   0  0  0  0  0  0  0  0  0  0  0  0
    4.8842   -2.6238    1.6243 C   0  0  0  0  0  0  0  0  0  0  0  0
    6.0592   -1.9808    1.2526 C   0  0  0  0  0  0  0  0  0  0  0  0
    6.0670   -0.8402    0.4953 C   0  0  0  0  0  0  0  0  0  0  0  0
    7.2717   -0.1301    0.0874 C   0  0  0  0  0  0  0  0  0  0  0  0
    8.5247   -0.5548    0.4389 C   0  0  0  0  0  0  0  0  0  0  0  0
    9.6870    0.1205    0.0518 C   0  0  0  0  0  0  0  0  0  0  0  0
    9.6076    1.2532   -0.7085 C   0  0  0  0  0  0  0  0  0  0  0  0
    8.3522    1.6949   -1.0721 C   0  0  0  0  0  0  0  0  0  0  0  0
    7.2087    1.0179   -0.6827 C   0  0  0  0  0  0  0  0  0  0  0  0
    4.8438   -0.3640    0.1202 N   0  0  0  0  0  0  0  0  0  0  0  0
    3.6981   -0.9557    0.4597 C   0  0  0  0  0  0  0  0  0  0  0  0
    2.4856   -0.3853    0.0390 C   0  0  0  0  0  0  0  0  0  0  0  0
   -0.9545   -0.9235   -0.7357 N   0  0  0  0  0  0  0  0  0  0  0  0
   -1.9768   -0.0328   -0.9545 C   0  0  0  0  0  0  0  0  0  0  0  0
   -3.2016   -0.4410   -1.6308 C   0  0  1  0  0  0  0  0  0  0  0  0
   -4.2079   -1.1838   -0.6524 C   0  0  0  0  0  0  0  0  0  0  0  0
   -5.2154   -0.8229   -1.7162 C   0  0  1  0  0  0  0  0  0  0  0  0
   -6.6125   -0.5389   -1.3398 C   0  0  0  0  0  0  0  0  0  0  0  0
   -6.8103    0.5573   -0.4198 N   0  0  0  0  0  0  0  0  0  0  0  0
   -8.2043    0.9160   -0.2629 C   0  0  0  0  0  0  0  0  0  0  0  0
   -8.3654   -0.1951    0.7305 C   0  0  0  0  0  0  0  0  0  0  0  0
   -6.8779    0.0022    0.9346 C   0  0  0  0  0  0  0  0  0  0  0  0
   -4.3168    0.4628   -1.8844 C   0  0  0  0  0  0  0  0  0  0  0  0
    1.7174    1.3907    2.2727 H   0  0  0  0  0  0  0  0  0  0  0  0
    2.4014    2.4031    1.0016 H   0  0  0  0  0  0  0  0  0  0  0  0
   -2.0039    4.3534    0.4117 H   0  0  0  0  0  0  0  0  0  0  0  0
   -3.0781    2.5069   -0.7172 H   0  0  0  0  0  0  0  0  0  0  0  0
    0.3820   -2.5961    1.4352 H   0  0  0  0  0  0  0  0  0  0  0  0
    2.5120   -3.5936    2.1692 H   0  0  0  0  0  0  0  0  0  0  0  0
    4.8885   -3.5287    2.2255 H   0  0  0  0  0  0  0  0  0  0  0  0
    6.9940   -2.4069    1.5799 H   0  0  0  0  0  0  0  0  0  0  0  0
    8.6567   -1.4422    1.0435 H   0  0  0  0  0  0  0  0  0  0  0  0
   10.6583   -0.2315    0.3409 H   0  0  0  0  0  0  0  0  0  0  0  0
   10.4934    1.8048   -1.0271 H   0  0  0  0  0  0  0  0  0  0  0  0
    8.2831    2.6018   -1.6825 H   0  0  0  0  0  0  0  0  0  0  0  0
    6.2413    1.3960   -0.9898 H   0  0  0  0  0  0  0  0  0  0  0  0
    2.5954    0.4985   -0.5762 H   0  0  0  0  0  0  0  0  0  0  0  0
   -3.0620   -1.2021   -2.4451 H   0  0  0  0  0  0  0  0  0  0  0  0
   -3.9519   -2.2321   -0.5353 H   0  0  0  0  0  0  0  0  0  0  0  0
   -4.1816   -0.5376    0.2523 H   0  0  0  0  0  0  0  0  0  0  0  0
   -5.0913   -1.4846   -2.5850 H   0  0  0  0  0  0  0  0  0  0  0  0
   -7.1776   -0.3558   -2.3031 H   0  0  0  0  0  0  0  0  0  0  0  0
   -7.0550   -1.4833   -0.9403 H   0  0  0  0  0  0  0  0  0  0  0  0
   -8.8261    0.7837   -1.1748 H   0  0  0  0  0  0  0  0  0  0  0  0
   -8.3319    1.9220    0.2200 H   0  0  0  0  0  0  0  0  0  0  0  0
   -8.9675    0.0766    1.6255 H   0  0  0  0  0  0  0  0  0  0  0  0
   -8.6297   -1.1780    0.3125 H   0  0  0  0  0  0  0  0  0  0  0  0
   -6.3134   -0.9462    1.0223 H   0  0  0  0  0  0  0  0  0  0  0  0
   -6.6562    0.7499    1.7246 H   0  0  0  0  0  0  0  0  0  0  0  0
   -4.4340    0.8110   -2.9340 H   0  0  0  0  0  0  0  0  0  0  0  0
   -4.7170    1.1359   -1.1159 H   0  0  0  0  0  0  0  0  0  0  0  0
  1  2  1  0
  2  3  2  0
  3  4  1  0
  4  5  2  0
  5  6  1  0
  6  7  1  0
  7  8  2  0
  8  9  1  0
  9 10  2  0
 10 11  1  0
 11 12  2  0
 12 13  1  0
 13 14  2  0
 14 15  1  0
 15 16  1  0
 16 17  2  0
 17 18  1  0
 18 19  2  0
 19 20  1  0
 20 21  2  0
 15 22  2  0
 22 23  1  0
 23 24  2  0
  8 25  1  0
 25 26  2  0
 26 27  1  0
 27 28  1  0
 28 29  1  0
 29 30  1  0
 30 31  1  0
 31 32  1  0
 32 33  1  0
 33 34  1  0
 29 35  1  0
  7  2  1  0
 24  9  1  0
 35 27  1  0
 26  6  1  0
 34 31  1  0
 23 12  1  0
 21 16  1  0
  1 36  1  0
  1 37  1  0
  4 38  1  0
  5 39  1  0
 10 40  1  0
 11 41  1  0
 13 42  1  0
 14 43  1  0
 17 44  1  0
 18 45  1  0
 19 46  1  0
 20 47  1  0
 21 48  1  0
 24 49  1  0
 27 50  1  6
 28 51  1  0
 28 52  1  0
 29 53  1  6
 30 54  1  0
 30 55  1  0
 32 56  1  0
 32 57  1  0
 33 58  1  0
 33 59  1  0
 34 60  1  0
 34 61  1  0
 35 62  1  0
 35 63  1  0
M  END
$$$$
