
     RDKit          3D

 59 61  0  0  0  0  0  0  0  0999 V2000
    2.6148    2.1366    1.4854 O   0  0  0  0  0  0  0  0  0  0  0  0
    3.2601    1.5392    0.4261 C   0  0  2  0  0  0  0  0  0  0  0  0
    2.8874    0.0537    0.4144 C   0  0  1  0  0  0  0  0  0  0  0  0
    1.6150   -0.0646   -0.3754 C   0  0  0  0  0  0  0  0  0  0  0  0
    1.2062   -1.3458   -0.6442 O   0  0  0  0  0  0  0  0  0  0  0  0
   -0.2413   -1.1952   -1.5391 P   0  0  0  0  0  0  0  0  0  0  0  0
    0.0342   -0.9829   -3.1757 O   0  0  0  0  0  0  0  0  0  0  0  0
   -1.1463   -2.3736   -1.2709 O   0  0  0  0  0  0  0  0  0  0  0  0
   -1.0645    0.1771   -0.9495 O   0  0  0  0  0  0  0  0  0  0  0  0
   -1.9869   -0.1729    0.4008 P   0  0  0  0  0  0  0  0  0  0  0  0
   -1.4662    0.6882    1.7715 O   0  0  0  0  0  0  0  0  0  0  0  0
   -2.0276   -1.6420    0.7460 O   0  0  0  0  0  0  0  0  0  0  0  0
   -3.6011    0.3263    0.1426 O   0  0  0  0  0  0  0  0  0  0  0  0
   -4.3468   -0.7767   -0.2928 C   0  0  1  0  0  0  0  0  0  0  0  0
   -5.2833   -1.0658    0.7012 O   0  0  0  0  0  0  0  0  0  0  0  0
   -6.1319    0.0420    0.8360 C   0  0  1  0  0  0  0  0  0  0  0  0
   -7.1047    0.0082   -0.3208 C   0  0  1  0  0  0  0  0  0  0  0  0
   -7.3995    1.3175   -0.6948 O   0  0  0  0  0  0  0  0  0  0  0  0
   -6.4906   -0.6977   -1.4999 C   0  0  2  0  0  0  0  0  0  0  0  0
   -6.7682   -2.0637   -1.4663 O   0  0  0  0  0  0  0  0  0  0  0  0
   -5.0084   -0.5021   -1.6093 C   0  0  1  0  0  0  0  0  0  0  0  0
   -4.7113    0.7681   -2.0980 O   0  0  0  0  0  0  0  0  0  0  0  0
   -6.8457    0.0032    2.1409 C   0  0  0  0  0  0  0  0  0  0  0  0
   -6.7534   -0.9489    3.1469 O   0  0  0  0  0  0  0  0  0  0  0  0
   -7.6748    0.8761    2.5297 O   0  0  0  0  0  0  0  0  0  0  0  0
    3.9973   -0.5063   -0.1654 O   0  0  0  0  0  0  0  0  0  0  0  0
    5.0025   -0.0137    0.6824 C   0  0  2  0  0  0  0  0  0  0  0  0
    4.7753    1.4612    0.6231 C   0  0  2  0  0  0  0  0  0  0  0  0
    5.0511    2.0687    1.8468 O   0  0  0  0  0  0  0  0  0  0  0  0
    6.3210   -0.4389    0.3138 N   0  0  0  0  0  0  0  0  0  0  0  0
    7.3685    0.3433   -0.0066 C   0  0  0  0  0  0  0  0  0  0  0  0
    8.5913   -0.1685   -0.3456 C   0  0  0  0  0  0  0  0  0  0  0  0
    8.7112   -1.5446   -0.3462 C   0  0  0  0  0  0  0  0  0  0  0  0
    9.8529   -2.0018   -0.6631 O   0  0  0  0  0  0  0  0  0  0  0  0
    7.6709   -2.3368   -0.0276 N   0  0  0  0  0  0  0  0  0  0  0  0
    6.4696   -1.7793    0.3040 C   0  0  0  0  0  0  0  0  0  0  0  0
    5.6126   -2.6603    0.5721 O   0  0  0  0  0  0  0  0  0  0  0  0
    1.7051    1.7139    1.5554 H   0  0  0  0  0  0  0  0  0  0  0  0
    2.9906    1.9636   -0.5492 H   0  0  0  0  0  0  0  0  0  0  0  0
    2.7945   -0.2521    1.4548 H   0  0  0  0  0  0  0  0  0  0  0  0
    1.6828    0.4875   -1.3352 H   0  0  0  0  0  0  0  0  0  0  0  0
    0.8161    0.3909    0.2651 H   0  0  0  0  0  0  0  0  0  0  0  0
    0.8812   -0.4485   -3.2982 H   0  0  0  0  0  0  0  0  0  0  0  0
   -1.3567    1.6483    1.5497 H   0  0  0  0  0  0  0  0  0  0  0  0
   -3.6312   -1.6227   -0.3264 H   0  0  0  0  0  0  0  0  0  0  0  0
   -5.5158    0.9411    0.8189 H   0  0  0  0  0  0  0  0  0  0  0  0
   -8.0376   -0.5235    0.0170 H   0  0  0  0  0  0  0  0  0  0  0  0
   -7.9827    1.7351   -0.0152 H   0  0  0  0  0  0  0  0  0  0  0  0
   -6.9621   -0.3173   -2.4346 H   0  0  0  0  0  0  0  0  0  0  0  0
   -5.9462   -2.6153   -1.4513 H   0  0  0  0  0  0  0  0  0  0  0  0
   -4.6319   -1.2659   -2.3333 H   0  0  0  0  0  0  0  0  0  0  0  0
   -4.3234    0.7021   -2.9937 H   0  0  0  0  0  0  0  0  0  0  0  0
   -6.5205   -0.6533    4.0919 H   0  0  0  0  0  0  0  0  0  0  0  0
    4.7072   -0.3467    1.7015 H   0  0  0  0  0  0  0  0  0  0  0  0
    5.2314    1.9809   -0.2264 H   0  0  0  0  0  0  0  0  0  0  0  0
    4.7044    1.4357    2.5374 H   0  0  0  0  0  0  0  0  0  0  0  0
    7.1767    1.4019    0.0224 H   0  0  0  0  0  0  0  0  0  0  0  0
    9.3640    0.5496   -0.5854 H   0  0  0  0  0  0  0  0  0  0  0  0
    7.8648   -3.3694   -0.0579 H   0  0  0  0  0  0  0  0  0  0  0  0
  1  2  1  0
  2  3  1  0
  3  4  1  0
  4  5  1  0
  5  6  1  0
  6  7  1  0
  6  8  2  0
  6  9  1  0
  9 10  1  0
 10 11  1  0
 10 12  2  0
 10 13  1  0
 13 14  1  0
 14 15  1  0
 15 16  1  0
 16 17  1  0
 17 18  1  0
 17 19  1  0
 19 20  1  0
 19 21  1  0
 21 22  1  0
 16 23  1  0
 23 24  1  0
 23 25  2  0
  3 26  1  0
 26 27  1  0
 27 28  1  0
 28 29  1  0
 27 30  1  0
 30 31  1  0
 31 32  2  0
 32 33  1  0
 33 34  2  0
 33 35  1  0
 35 36  1  0
 36 37  2  0
 28  2  1  0
 36 30  1  0
 21 14  1  0
  1 38  1  0
  2 39  1  6
  3 40  1  1
  4 41  1  0
  4 42  1  0
  7 43  1  0
 11 44  1  0
 14 45  1  6
 16 46  1  1
 17 47  1  1
 18 48  1  0
 19 49  1  6
 20 50  1  0
 21 51  1  6
 22 52  1  0
 24 53  1  0
 27 54  1  1
 28 55  1  6
 29 56  1  0
 31 57  1  0
 32 58  1  0
 35 59  1  0
M  END
$$$$
