
     RDKit          3D

 60 62  0  0  0  0  0  0  0  0999 V2000
    6.7930   -2.0068   -0.0344 O   0  0  0  0  0  0  0  0  0  0  0  0
    7.3652   -1.1379   -0.9709 C   0  0  0  0  0  0  0  0  0  0  0  0
    6.6603    0.2184   -0.9384 C   0  0  1  0  0  0  0  0  0  0  0  0
    5.3259    0.0966   -1.2323 O   0  0  0  0  0  0  0  0  0  0  0  0
    4.4792    0.2967   -0.1542 C   0  0  2  0  0  0  0  0  0  0  0  0
    3.1829    0.1722   -0.6526 O   0  0  0  0  0  0  0  0  0  0  0  0
    2.4394   -1.0852    0.2379 P   0  0  1  0  0  5  0  0  0  0  0  0
    3.0928   -2.5886   -0.2429 O   0  0  0  0  0  0  0  0  0  0  0  0
    2.7081   -0.9283    1.7165 O   0  0  0  0  0  0  0  0  0  0  0  0
    0.7961   -1.1388   -0.0606 O   0  0  0  0  0  0  0  0  0  0  0  0
   -0.0962   -1.7651    1.2411 P   0  0  1  0  0  5  0  0  0  0  0  0
    0.5206   -3.2554    1.7418 O   0  0  0  0  0  0  0  0  0  0  0  0
   -0.0380   -0.7681    2.3730 O   0  0  0  0  0  0  0  0  0  0  0  0
   -1.6907   -1.9492    0.6487 O   0  0  0  0  0  0  0  0  0  0  0  0
   -1.9607   -0.7941   -0.0702 C   0  0  0  0  0  0  0  0  0  0  0  0
   -3.3353   -0.7596   -0.6817 C   0  0  1  0  0  0  0  0  0  0  0  0
   -4.3581   -0.8440    0.2414 O   0  0  0  0  0  0  0  0  0  0  0  0
   -5.4451   -0.2673   -0.4357 C   0  0  2  0  0  0  0  0  0  0  0  0
   -4.8307    1.0648   -0.8189 C   0  0  2  0  0  0  0  0  0  0  0  0
   -5.5622    1.7383   -1.7734 O   0  0  0  0  0  0  0  0  0  0  0  0
   -3.4740    0.6005   -1.3527 C   0  0  2  0  0  0  0  0  0  0  0  0
   -3.6049    0.3962   -2.7272 O   0  0  0  0  0  0  0  0  0  0  0  0
   -6.6303   -0.1624    0.3501 N   0  0  0  0  0  0  0  0  0  0  0  0
   -7.8217   -0.1481   -0.3168 C   0  0  0  0  0  0  0  0  0  0  0  0
   -9.0491   -0.0514    0.3055 C   0  0  0  0  0  0  0  0  0  0  0  0
   -8.9999    0.0325    1.6812 C   0  0  0  0  0  0  0  0  0  0  0  0
  -10.1284    0.1223    2.2680 O   0  0  0  0  0  0  0  0  0  0  0  0
   -7.8526    0.0225    2.3826 N   0  0  0  0  0  0  0  0  0  0  0  0
   -6.6819   -0.0754    1.7000 C   0  0  0  0  0  0  0  0  0  0  0  0
   -5.5991   -0.0875    2.3184 O   0  0  0  0  0  0  0  0  0  0  0  0
    4.6080    1.6808    0.4386 C   0  0  2  0  0  0  0  0  0  0  0  0
    3.7205    2.5701   -0.1734 O   0  0  0  0  0  0  0  0  0  0  0  0
    6.0272    2.1822    0.3310 C   0  0  1  0  0  0  0  0  0  0  0  0
    6.4099    3.0147    1.3634 O   0  0  0  0  0  0  0  0  0  0  0  0
    6.9555    0.9771    0.3145 C   0  0  1  0  0  0  0  0  0  0  0  0
    6.8446    0.2219    1.4625 O   0  0  0  0  0  0  0  0  0  0  0  0
    5.9517   -2.3181   -0.4624 H   0  0  0  0  0  0  0  0  0  0  0  0
    8.4311   -0.9372   -0.7296 H   0  0  0  0  0  0  0  0  0  0  0  0
    7.3002   -1.5204   -1.9995 H   0  0  0  0  0  0  0  0  0  0  0  0
    7.1292    0.8050   -1.7761 H   0  0  0  0  0  0  0  0  0  0  0  0
    4.5857   -0.4635    0.6509 H   0  0  0  0  0  0  0  0  0  0  0  0
    3.4663   -2.5158   -1.1580 H   0  0  0  0  0  0  0  0  0  0  0  0
    0.9483   -3.7701    1.0049 H   0  0  0  0  0  0  0  0  0  0  0  0
   -1.8442    0.1252    0.5590 H   0  0  0  0  0  0  0  0  0  0  0  0
   -1.2318   -0.7129   -0.8979 H   0  0  0  0  0  0  0  0  0  0  0  0
   -3.4753   -1.5764   -1.4147 H   0  0  0  0  0  0  0  0  0  0  0  0
   -5.6631   -0.8176   -1.3755 H   0  0  0  0  0  0  0  0  0  0  0  0
   -4.6811    1.6718    0.1079 H   0  0  0  0  0  0  0  0  0  0  0  0
   -5.6037    2.7029   -1.4809 H   0  0  0  0  0  0  0  0  0  0  0  0
   -2.6721    1.3035   -1.0883 H   0  0  0  0  0  0  0  0  0  0  0  0
   -3.0530   -0.4000   -3.0097 H   0  0  0  0  0  0  0  0  0  0  0  0
   -7.8211   -0.2169   -1.4148 H   0  0  0  0  0  0  0  0  0  0  0  0
   -9.9445   -0.0468   -0.2933 H   0  0  0  0  0  0  0  0  0  0  0  0
   -7.8598    0.0877    3.4187 H   0  0  0  0  0  0  0  0  0  0  0  0
    4.3168    1.6095    1.5017 H   0  0  0  0  0  0  0  0  0  0  0  0
    3.8358    2.6105   -1.1420 H   0  0  0  0  0  0  0  0  0  0  0  0
    6.1533    2.6664   -0.6748 H   0  0  0  0  0  0  0  0  0  0  0  0
    6.2948    3.9527    1.0173 H   0  0  0  0  0  0  0  0  0  0  0  0
    8.0088    1.3240    0.2465 H   0  0  0  0  0  0  0  0  0  0  0  0
    6.6571    0.8419    2.2310 H   0  0  0  0  0  0  0  0  0  0  0  0
  1  2  1  0
  2  3  1  0
  3  4  1  0
  4  5  1  0
  5  6  1  0
  7  6  1  6
  7  8  1  0
  7  9  2  0
  7 10  1  0
 11 10  1  6
 11 12  1  0
 11 13  2  0
 11 14  1  0
 14 15  1  0
 15 16  1  0
 16 17  1  0
 17 18  1  0
 18 19  1  0
 19 20  1  0
 19 21  1  0
 21 22  1  0
 18 23  1  0
 23 24  1  0
 24 25  2  0
 25 26  1  0
 26 27  2  0
 26 28  1  0
 28 29  1  0
 29 30  2  0
  5 31  1  0
 31 32  1  0
 31 33  1  0
 33 34  1  0
 33 35  1  0
 35 36  1  0
 35  3  1  0
 21 16  1  0
 29 23  1  0
  1 37  1  0
  2 38  1  0
  2 39  1  0
  3 40  1  6
  5 41  1  1
  8 42  1  0
 12 43  1  0
 15 44  1  0
 15 45  1  0
 16 46  1  6
 18 47  1  6
 19 48  1  1
 20 49  1  0
 21 50  1  6
 22 51  1  0
 24 52  1  0
 25 53  1  0
 28 54  1  0
 31 55  1  1
 32 56  1  0
 33 57  1  6
 34 58  1  0
 35 59  1  6
 36 60  1  0
M  END
$$$$
