
     RDKit          3D

 39 38  0  0  0  0  0  0  0  0999 V2000
   -4.1086    1.5610    0.5353 O   0  0  0  0  0  0  0  0  0  0  0  0
   -4.6142    0.6586    1.4464 C   0  0  0  0  0  0  0  0  0  0  0  0
   -3.5338   -0.2881    1.9156 C   0  0  0  0  0  0  0  0  0  0  0  0
   -2.9358   -1.0754    0.8356 C   0  0  0  0  0  0  0  0  0  0  0  0
   -2.2481   -0.4198   -0.2801 C   0  0  0  0  0  0  0  0  0  0  0  0
   -1.0666    0.4207    0.0695 C   0  0  0  0  0  0  0  0  0  0  0  0
   -0.3988    1.0697   -1.0905 C   0  0  0  0  0  0  0  0  0  0  0  0
    0.1425    0.1717   -2.1332 C   0  0  0  0  0  0  0  0  0  0  0  0
    1.1935   -0.7955   -1.6315 C   0  0  0  0  0  0  0  0  0  0  0  0
    2.3933   -0.0835   -1.0493 C   0  0  0  0  0  0  0  0  0  0  0  0
    3.4403   -1.0310   -0.5520 C   0  0  0  0  0  0  0  0  0  0  0  0
    4.6537   -0.3480    0.0360 C   0  0  0  0  0  0  0  0  0  0  0  0
    4.2291    0.4849    1.1904 C   0  0  0  0  0  0  0  0  0  0  0  0
    5.3003    1.1445    1.7682 O   0  0  0  0  0  0  0  0  0  0  0  0
    3.1257    0.7425    1.7798 O   0  0  0  0  0  0  0  0  0  0  0  0
   -4.8212    1.8579   -0.0701 H   0  0  0  0  0  0  0  0  0  0  0  0
   -5.3452    0.0271    0.8605 H   0  0  0  0  0  0  0  0  0  0  0  0
   -5.1300    1.1429    2.2986 H   0  0  0  0  0  0  0  0  0  0  0  0
   -4.0459   -0.9515    2.6586 H   0  0  0  0  0  0  0  0  0  0  0  0
   -2.8424    0.3201    2.5238 H   0  0  0  0  0  0  0  0  0  0  0  0
   -2.2493   -1.8482    1.2932 H   0  0  0  0  0  0  0  0  0  0  0  0
   -3.7413   -1.7253    0.3859 H   0  0  0  0  0  0  0  0  0  0  0  0
   -2.9306    0.1849   -0.9156 H   0  0  0  0  0  0  0  0  0  0  0  0
   -1.8838   -1.2559   -0.9546 H   0  0  0  0  0  0  0  0  0  0  0  0
   -1.4015    1.2462    0.7298 H   0  0  0  0  0  0  0  0  0  0  0  0
   -0.3115   -0.1326    0.6663 H   0  0  0  0  0  0  0  0  0  0  0  0
   -1.1089    1.7855   -1.5978 H   0  0  0  0  0  0  0  0  0  0  0  0
    0.4111    1.7227   -0.7069 H   0  0  0  0  0  0  0  0  0  0  0  0
   -0.5979   -0.3189   -2.7679 H   0  0  0  0  0  0  0  0  0  0  0  0
    0.7035    0.8495   -2.8466 H   0  0  0  0  0  0  0  0  0  0  0  0
    0.7051   -1.4110   -0.8502 H   0  0  0  0  0  0  0  0  0  0  0  0
    1.5120   -1.4525   -2.4592 H   0  0  0  0  0  0  0  0  0  0  0  0
    2.8878    0.5408   -1.8312 H   0  0  0  0  0  0  0  0  0  0  0  0
    2.0483    0.6019   -0.2767 H   0  0  0  0  0  0  0  0  0  0  0  0
    3.8047   -1.6737   -1.3683 H   0  0  0  0  0  0  0  0  0  0  0  0
    2.9887   -1.6160    0.2784 H   0  0  0  0  0  0  0  0  0  0  0  0
    5.1527    0.2909   -0.7430 H   0  0  0  0  0  0  0  0  0  0  0  0
    5.3965   -1.1087    0.3119 H   0  0  0  0  0  0  0  0  0  0  0  0
    5.2266    1.7734    2.5411 H   0  0  0  0  0  0  0  0  0  0  0  0
  1  2  1  0
  2  3  1  0
  3  4  1  0
  4  5  1  0
  5  6  1  0
  6  7  1  0
  7  8  1  0
  8  9  1  0
  9 10  1  0
 10 11  1  0
 11 12  1  0
 12 13  1  0
 13 14  1  0
 13 15  2  0
  1 16  1  0
  2 17  1  0
  2 18  1  0
  3 19  1  0
  3 20  1  0
  4 21  1  0
  4 22  1  0
  5 23  1  0
  5 24  1  0
  6 25  1  0
  6 26  1  0
  7 27  1  0
  7 28  1  0
  8 29  1  0
  8 30  1  0
  9 31  1  0
  9 32  1  0
 10 33  1  0
 10 34  1  0
 11 35  1  0
 11 36  1  0
 12 37  1  0
 12 38  1  0
 14 39  1  0
M  END
$$$$
