
     RDKit          3D

 42 45  0  0  0  0  0  0  0  0999 V2000
    6.0188    2.2069    0.8472 C   0  0  0  0  0  0  0  0  0  0  0  0
    4.7040    1.5849    0.5337 C   0  0  0  0  0  0  0  0  0  0  0  0
    3.7052    1.1383    1.3740 C   0  0  0  0  0  0  0  0  0  0  0  0
    2.6580    0.6279    0.6400 C   0  0  0  0  0  0  0  0  0  0  0  0
    1.4290    0.0587    1.0955 N   0  0  0  0  0  0  0  0  0  0  0  0
    0.4676   -0.4153    0.1710 C   0  0  0  0  0  0  0  0  0  0  0  0
   -0.5038    0.4176   -0.2103 N   0  0  0  0  0  0  0  0  0  0  0  0
   -1.4231    0.0041   -1.0821 C   0  0  0  0  0  0  0  0  0  0  0  0
   -2.4988    0.9428   -1.4863 C   0  0  2  0  0  0  0  0  0  0  0  0
   -2.0434    2.2250   -1.7484 O   0  0  0  0  0  0  0  0  0  0  0  0
   -3.5127    0.9729   -0.3987 C   0  0  0  0  0  0  0  0  0  0  0  0
   -3.4685    0.0865    0.6561 C   0  0  0  0  0  0  0  0  0  0  0  0
   -4.4131    0.1142    1.6678 C   0  0  0  0  0  0  0  0  0  0  0  0
   -5.4407    1.0341    1.6604 C   0  0  0  0  0  0  0  0  0  0  0  0
   -6.3651    1.0660    2.6459 F   0  0  0  0  0  0  0  0  0  0  0  0
   -5.4871    1.9226    0.6056 C   0  0  0  0  0  0  0  0  0  0  0  0
   -4.5340    1.8973   -0.4184 C   0  0  0  0  0  0  0  0  0  0  0  0
   -1.3460   -1.2405   -1.5532 N   0  0  0  0  0  0  0  0  0  0  0  0
   -0.3950   -2.1213   -1.2079 C   0  0  0  0  0  0  0  0  0  0  0  0
   -0.3291   -3.4023   -1.7023 C   0  0  0  0  0  0  0  0  0  0  0  0
    0.6718   -4.2741   -1.3146 C   0  0  0  0  0  0  0  0  0  0  0  0
    1.6162   -3.8479   -0.4185 C   0  0  0  0  0  0  0  0  0  0  0  0
    1.5714   -2.5648    0.0928 C   0  0  0  0  0  0  0  0  0  0  0  0
    0.5831   -1.7146   -0.2941 C   0  0  0  0  0  0  0  0  0  0  0  0
    3.0400    0.7736   -0.6573 N   0  0  0  0  0  0  0  0  0  0  0  0
    4.2349    1.3326   -0.7147 N   0  0  0  0  0  0  0  0  0  0  0  0
    6.3011    3.0013    0.1282 H   0  0  0  0  0  0  0  0  0  0  0  0
    6.8162    1.4068    0.8562 H   0  0  0  0  0  0  0  0  0  0  0  0
    6.0052    2.6324    1.8677 H   0  0  0  0  0  0  0  0  0  0  0  0
    3.7471    1.1865    2.4496 H   0  0  0  0  0  0  0  0  0  0  0  0
    1.2200   -0.0169    2.1119 H   0  0  0  0  0  0  0  0  0  0  0  0
   -2.9551    0.5879   -2.4479 H   0  0  0  0  0  0  0  0  0  0  0  0
   -1.2854    2.4640   -1.1569 H   0  0  0  0  0  0  0  0  0  0  0  0
   -2.6445   -0.6324    0.6391 H   0  0  0  0  0  0  0  0  0  0  0  0
   -4.3537   -0.5911    2.4813 H   0  0  0  0  0  0  0  0  0  0  0  0
   -6.2812    2.6622    0.5640 H   0  0  0  0  0  0  0  0  0  0  0  0
   -4.5867    2.6117   -1.2500 H   0  0  0  0  0  0  0  0  0  0  0  0
   -1.0885   -3.6987   -2.4027 H   0  0  0  0  0  0  0  0  0  0  0  0
    0.6981   -5.2731   -1.7195 H   0  0  0  0  0  0  0  0  0  0  0  0
    2.4051   -4.5216   -0.1068 H   0  0  0  0  0  0  0  0  0  0  0  0
    2.3040   -2.1994    0.8031 H   0  0  0  0  0  0  0  0  0  0  0  0
    4.7586    1.5550   -1.6005 H   0  0  0  0  0  0  0  0  0  0  0  0
  1  2  1  0
  2  3  2  0
  3  4  1  0
  4  5  1  0
  5  6  1  0
  6  7  2  0
  7  8  1  0
  8  9  1  0
  9 10  1  0
  9 11  1  0
 11 12  2  0
 12 13  1  0
 13 14  2  0
 14 15  1  0
 14 16  1  0
 16 17  2  0
  8 18  2  0
 18 19  1  0
 19 20  2  0
 20 21  1  0
 21 22  2  0
 22 23  1  0
 23 24  2  0
  4 25  2  0
 25 26  1  0
 26  2  1  0
 24  6  1  0
 17 11  1  0
 24 19  1  0
  1 27  1  0
  1 28  1  0
  1 29  1  0
  3 30  1  0
  5 31  1  0
  9 32  1  6
 10 33  1  0
 12 34  1  0
 13 35  1  0
 16 36  1  0
 17 37  1  0
 20 38  1  0
 21 39  1  0
 22 40  1  0
 23 41  1  0
 26 42  1  0
M  END
$$$$
