
     RDKit          3D

 32 34  0  0  0  0  0  0  0  0999 V2000
   -2.5730    0.4635   -0.1378 C   0  0  1  0  0  0  0  0  0  0  0  0
   -3.8858    0.9523    0.3942 C   0  0  0  0  0  0  0  0  0  0  0  0
   -3.6972    2.3261    0.6681 O   0  0  0  0  0  0  0  0  0  0  0  0
   -1.5278    0.6262    0.7704 O   0  0  0  0  0  0  0  0  0  0  0  0
   -0.4622    0.1204   -0.0063 C   0  0  1  0  0  0  0  0  0  0  0  0
    0.7270   -0.0718    0.7639 N   0  0  0  0  0  0  0  0  0  0  0  0
    0.7409   -0.4301    2.0638 C   0  0  0  0  0  0  0  0  0  0  0  0
    2.0207   -0.5183    2.4623 N   0  0  0  0  0  0  0  0  0  0  0  0
    2.8256   -0.2155    1.4141 C   0  0  0  0  0  0  0  0  0  0  0  0
    4.1924   -0.1377    1.2163 C   0  0  0  0  0  0  0  0  0  0  0  0
    4.6839    0.2127   -0.0235 C   0  0  0  0  0  0  0  0  0  0  0  0
    6.4195    0.3182   -0.2994 Cl  0  0  0  0  0  0  0  0  0  0  0  0
    3.8737    0.4960   -1.1008 C   0  0  0  0  0  0  0  0  0  0  0  0
    4.4576    0.9423   -2.6828 Cl  0  0  0  0  0  0  0  0  0  0  0  0
    2.4903    0.4208   -0.9131 C   0  0  0  0  0  0  0  0  0  0  0  0
    2.0020    0.0679    0.3361 C   0  0  0  0  0  0  0  0  0  0  0  0
   -0.9870   -1.1545   -0.6297 C   0  0  2  0  0  0  0  0  0  0  0  0
   -0.7406   -1.1194   -2.0055 O   0  0  0  0  0  0  0  0  0  0  0  0
   -2.4961   -1.0037   -0.4052 C   0  0  2  0  0  0  0  0  0  0  0  0
   -3.2297   -1.4023   -1.5169 O   0  0  0  0  0  0  0  0  0  0  0  0
   -2.3137    1.0147   -1.0434 H   0  0  0  0  0  0  0  0  0  0  0  0
   -4.6039    0.9504   -0.4623 H   0  0  0  0  0  0  0  0  0  0  0  0
   -4.2411    0.4324    1.2813 H   0  0  0  0  0  0  0  0  0  0  0  0
   -2.8576    2.3633    1.2217 H   0  0  0  0  0  0  0  0  0  0  0  0
   -0.2978    0.9118   -0.7825 H   0  0  0  0  0  0  0  0  0  0  0  0
   -0.1059   -0.6296    2.7350 H   0  0  0  0  0  0  0  0  0  0  0  0
    4.8606   -0.3486    2.0220 H   0  0  0  0  0  0  0  0  0  0  0  0
    1.8112    0.6336   -1.7265 H   0  0  0  0  0  0  0  0  0  0  0  0
   -0.5805   -2.0448   -0.1427 H   0  0  0  0  0  0  0  0  0  0  0  0
   -0.6626   -0.1735   -2.3296 H   0  0  0  0  0  0  0  0  0  0  0  0
   -2.7470   -1.6225    0.4680 H   0  0  0  0  0  0  0  0  0  0  0  0
   -3.0960   -2.3805   -1.6090 H   0  0  0  0  0  0  0  0  0  0  0  0
  1  2  1  0
  2  3  1  0
  1  4  1  0
  4  5  1  0
  5  6  1  0
  6  7  1  0
  7  8  2  0
  8  9  1  0
  9 10  2  0
 10 11  1  0
 11 12  1  0
 11 13  2  0
 13 14  1  0
 13 15  1  0
 15 16  2  0
  5 17  1  0
 17 18  1  0
 17 19  1  0
 19 20  1  0
 19  1  1  0
 16  6  1  0
 16  9  1  0
  1 21  1  6
  2 22  1  0
  2 23  1  0
  3 24  1  0
  5 25  1  6
  7 26  1  0
 10 27  1  0
 15 28  1  0
 17 29  1  1
 18 30  1  0
 19 31  1  1
 20 32  1  0
M  END
$$$$
