
     RDKit          3D

 59 63  0  0  0  0  0  0  0  0999 V2000
   -1.2641   -3.4651   -1.9827 O   0  0  0  0  0  0  0  0  0  0  0  0
   -2.0427   -2.4804   -1.9691 C   0  0  0  0  0  0  0  0  0  0  0  0
   -3.4817   -2.4292   -2.1679 C   0  0  0  0  0  0  0  0  0  0  0  0
   -4.2153   -3.4257   -2.3989 O   0  0  0  0  0  0  0  0  0  0  0  0
   -3.9150   -1.0743   -2.0580 N   0  0  0  0  0  0  0  0  0  0  0  0
   -5.2811   -0.5933   -2.1950 C   0  0  0  0  0  0  0  0  0  0  0  0
   -6.0451   -0.5901   -0.9492 C   0  0  0  0  0  0  0  0  0  0  0  0
   -6.7890   -1.6833   -0.5234 C   0  0  0  0  0  0  0  0  0  0  0  0
   -7.5060   -1.6372    0.6723 C   0  0  0  0  0  0  0  0  0  0  0  0
   -7.4998   -0.5118    1.4658 C   0  0  0  0  0  0  0  0  0  0  0  0
   -8.2268   -0.4935    2.6577 O   0  0  0  0  0  0  0  0  0  0  0  0
   -6.7644    0.5732    1.0476 C   0  0  0  0  0  0  0  0  0  0  0  0
   -6.0459    0.5289   -0.1493 C   0  0  0  0  0  0  0  0  0  0  0  0
   -2.7409   -0.3213   -1.7953 C   0  0  0  0  0  0  0  0  0  0  0  0
   -2.6115    1.0620   -1.6032 C   0  0  0  0  0  0  0  0  0  0  0  0
   -1.3778    1.6211   -1.3576 C   0  0  0  0  0  0  0  0  0  0  0  0
   -0.2786    0.8226   -1.3016 C   0  0  0  0  0  0  0  0  0  0  0  0
    1.2841    1.5271   -0.9886 S   0  0  0  0  0  6  0  0  0  0  0  0
    2.2545    0.7462   -1.8371 O   0  0  0  0  0  0  0  0  0  0  0  0
    1.2390    2.9138   -1.6341 O   0  0  0  0  0  0  0  0  0  0  0  0
    1.7899    1.6653    0.5371 N   0  0  0  0  0  0  0  0  0  0  0  0
    1.1681    2.4091    1.5283 C   0  0  0  0  0  0  0  0  0  0  0  0
    1.6736    1.7443    2.8149 C   0  0  0  0  0  0  0  0  0  0  0  0
    2.8836    0.9024    2.3809 C   0  0  0  0  0  0  0  0  0  0  0  0
    3.0938    1.4341    0.9743 C   0  0  1  0  0  0  0  0  0  0  0  0
    4.0083    0.6236    0.1518 C   0  0  0  0  0  0  0  0  0  0  0  0
    5.2647    0.5521    0.8469 O   0  0  0  0  0  0  0  0  0  0  0  0
    6.2908   -0.1721    0.2473 C   0  0  0  0  0  0  0  0  0  0  0  0
    6.1158   -0.8045   -0.9758 C   0  0  0  0  0  0  0  0  0  0  0  0
    7.1263   -1.5241   -1.5775 C   0  0  0  0  0  0  0  0  0  0  0  0
    8.3656   -1.6495   -0.9879 C   0  0  0  0  0  0  0  0  0  0  0  0
    8.5500   -1.0212    0.2340 C   0  0  0  0  0  0  0  0  0  0  0  0
    7.5320   -0.3058    0.8235 C   0  0  0  0  0  0  0  0  0  0  0  0
   -0.3504   -0.5489   -1.4842 C   0  0  0  0  0  0  0  0  0  0  0  0
   -1.6144   -1.1088   -1.7342 C   0  0  0  0  0  0  0  0  0  0  0  0
   -5.8082   -1.2945   -2.9066 H   0  0  0  0  0  0  0  0  0  0  0  0
   -5.3398    0.3964   -2.6589 H   0  0  0  0  0  0  0  0  0  0  0  0
   -6.7855   -2.5492   -1.1473 H   0  0  0  0  0  0  0  0  0  0  0  0
   -8.0810   -2.4930    0.9940 H   0  0  0  0  0  0  0  0  0  0  0  0
   -9.0146   -1.1452    2.7380 H   0  0  0  0  0  0  0  0  0  0  0  0
   -6.7623    1.4569    1.6749 H   0  0  0  0  0  0  0  0  0  0  0  0
   -5.4901    1.4140   -0.4213 H   0  0  0  0  0  0  0  0  0  0  0  0
   -3.4637    1.6909   -1.6473 H   0  0  0  0  0  0  0  0  0  0  0  0
   -1.2633    2.6635   -1.2104 H   0  0  0  0  0  0  0  0  0  0  0  0
    0.0903    2.5225    1.5090 H   0  0  0  0  0  0  0  0  0  0  0  0
    1.6069    3.4426    1.5511 H   0  0  0  0  0  0  0  0  0  0  0  0
    0.9227    1.0076    3.1950 H   0  0  0  0  0  0  0  0  0  0  0  0
    1.9427    2.4795    3.5783 H   0  0  0  0  0  0  0  0  0  0  0  0
    3.7504    1.0953    3.0341 H   0  0  0  0  0  0  0  0  0  0  0  0
    2.6359   -0.1634    2.3109 H   0  0  0  0  0  0  0  0  0  0  0  0
    3.5931    2.4395    1.1282 H   0  0  0  0  0  0  0  0  0  0  0  0
    3.7039   -0.3968   -0.0603 H   0  0  0  0  0  0  0  0  0  0  0  0
    4.2629    1.2259   -0.7644 H   0  0  0  0  0  0  0  0  0  0  0  0
    5.1541   -0.7202   -1.4563 H   0  0  0  0  0  0  0  0  0  0  0  0
    6.8924   -1.9895   -2.5460 H   0  0  0  0  0  0  0  0  0  0  0  0
    9.1358   -2.2195   -1.4843 H   0  0  0  0  0  0  0  0  0  0  0  0
    9.5195   -1.1044    0.7214 H   0  0  0  0  0  0  0  0  0  0  0  0
    7.7198    0.1645    1.7706 H   0  0  0  0  0  0  0  0  0  0  0  0
    0.4886   -1.2092   -1.4479 H   0  0  0  0  0  0  0  0  0  0  0  0
  1  2  2  0
  2  3  1  0
  3  4  2  0
  3  5  1  0
  5  6  1  0
  6  7  1  0
  7  8  2  0
  8  9  1  0
  9 10  2  0
 10 11  1  0
 10 12  1  0
 12 13  2  0
  5 14  1  0
 14 15  2  0
 15 16  1  0
 16 17  2  0
 17 18  1  0
 18 19  2  0
 18 20  2  0
 18 21  1  0
 21 22  1  0
 22 23  1  0
 23 24  1  0
 24 25  1  0
 25 26  1  0
 26 27  1  0
 27 28  1  0
 28 29  2  0
 29 30  1  0
 30 31  2  0
 31 32  1  0
 32 33  2  0
 17 34  1  0
 34 35  2  0
 35  2  1  0
 13  7  1  0
 35 14  1  0
 25 21  1  0
 33 28  1  0
  6 36  1  0
  6 37  1  0
  8 38  1  0
  9 39  1  0
 11 40  1  0
 12 41  1  0
 13 42  1  0
 15 43  1  0
 16 44  1  0
 22 45  1  0
 22 46  1  0
 23 47  1  0
 23 48  1  0
 24 49  1  0
 24 50  1  0
 25 51  1  1
 26 52  1  0
 26 53  1  0
 29 54  1  0
 30 55  1  0
 31 56  1  0
 32 57  1  0
 33 58  1  0
 34 59  1  0
M  END
$$$$
