
     RDKit          3D

 38 40  0  0  0  0  0  0  0  0999 V2000
    0.6860   -3.2425    0.4110 N   0  0  0  0  0  0  0  0  0  0  0  0
   -0.3210   -2.2454    0.3183 C   0  0  0  0  0  0  0  0  0  0  0  0
   -1.6180   -2.6586    0.0970 C   0  0  0  0  0  0  0  0  0  0  0  0
   -2.6035   -1.7119    0.0040 C   0  0  0  0  0  0  0  0  0  0  0  0
   -2.3629   -0.3574    0.1211 C   0  0  0  0  0  0  0  0  0  0  0  0
   -3.4617    0.6145    0.0141 C   0  0  0  0  0  0  0  0  0  0  0  0
   -4.7400    0.2737    0.4474 C   0  0  0  0  0  0  0  0  0  0  0  0
   -5.7928    1.1286    0.3724 C   0  0  0  0  0  0  0  0  0  0  0  0
   -5.5872    2.3940   -0.1577 C   0  0  0  0  0  0  0  0  0  0  0  0
   -4.3433    2.7584   -0.5918 C   0  0  0  0  0  0  0  0  0  0  0  0
   -3.2886    1.8757   -0.5067 C   0  0  0  0  0  0  0  0  0  0  0  0
   -1.0654    0.0552    0.3425 C   0  0  0  0  0  0  0  0  0  0  0  0
   -0.0560   -0.8991    0.4387 C   0  0  0  0  0  0  0  0  0  0  0  0
    1.3103   -0.5169    0.6713 N   0  0  0  0  0  0  0  0  0  0  0  0
    2.1851   -0.2490   -0.4128 C   0  0  0  0  0  0  0  0  0  0  0  0
    1.6968   -0.3651   -1.5894 O   0  0  0  0  0  0  0  0  0  0  0  0
    3.5706    0.1400   -0.2501 C   0  0  0  0  0  0  0  0  0  0  0  0
    4.1361    0.2725    0.9918 C   0  0  0  0  0  0  0  0  0  0  0  0
    5.4765    0.6496    1.1359 C   0  0  0  0  0  0  0  0  0  0  0  0
    6.2669    0.8987    0.0321 C   0  0  0  0  0  0  0  0  0  0  0  0
    5.6843    0.7616   -1.2201 C   0  0  0  0  0  0  0  0  0  0  0  0
    4.3504    0.3862   -1.3558 C   0  0  0  0  0  0  0  0  0  0  0  0
    1.1637   -3.5131    1.2751 H   0  0  0  0  0  0  0  0  0  0  0  0
    0.9448   -3.7279   -0.4940 H   0  0  0  0  0  0  0  0  0  0  0  0
   -1.8483   -3.7159   -0.0005 H   0  0  0  0  0  0  0  0  0  0  0  0
   -3.6436   -2.0109   -0.1717 H   0  0  0  0  0  0  0  0  0  0  0  0
   -4.8854   -0.7157    0.8585 H   0  0  0  0  0  0  0  0  0  0  0  0
   -6.7822    0.8061    0.7300 H   0  0  0  0  0  0  0  0  0  0  0  0
   -6.4652    3.0430   -0.1962 H   0  0  0  0  0  0  0  0  0  0  0  0
   -4.2362    3.7574   -0.9976 H   0  0  0  0  0  0  0  0  0  0  0  0
   -2.2992    2.1515   -0.8467 H   0  0  0  0  0  0  0  0  0  0  0  0
   -0.8103    1.1022    0.4436 H   0  0  0  0  0  0  0  0  0  0  0  0
    1.6508   -0.4393    1.6652 H   0  0  0  0  0  0  0  0  0  0  0  0
    3.5831    0.0947    1.9114 H   0  0  0  0  0  0  0  0  0  0  0  0
    5.9174    0.7522    2.1247 H   0  0  0  0  0  0  0  0  0  0  0  0
    7.2995    1.1904    0.0813 H   0  0  0  0  0  0  0  0  0  0  0  0
    6.2927    0.9539   -2.1017 H   0  0  0  0  0  0  0  0  0  0  0  0
    3.9957    0.3086   -2.3772 H   0  0  0  0  0  0  0  0  0  0  0  0
  1  2  1  0
  2  3  2  0
  3  4  1  0
  4  5  2  0
  5  6  1  0
  6  7  2  0
  7  8  1  0
  8  9  2  0
  9 10  1  0
 10 11  2  0
  5 12  1  0
 12 13  2  0
 13 14  1  0
 14 15  1  0
 15 16  2  0
 15 17  1  0
 17 18  2  0
 18 19  1  0
 19 20  2  0
 20 21  1  0
 21 22  2  0
 13  2  1  0
 22 17  1  0
 11  6  1  0
  1 23  1  0
  1 24  1  0
  3 25  1  0
  4 26  1  0
  7 27  1  0
  8 28  1  0
  9 29  1  0
 10 30  1  0
 11 31  1  0
 12 32  1  0
 14 33  1  0
 18 34  1  0
 19 35  1  0
 20 36  1  0
 21 37  1  0
 22 38  1  0
M  END
$$$$
