
     RDKit          3D

 39 41  0  0  0  0  0  0  0  0999 V2000
    5.3733   -0.0669   -1.6212 C   0  0  0  0  0  0  0  0  0  0  0  0
    4.4077    0.8959   -1.4175 C   0  0  0  0  0  0  0  0  0  0  0  0
    3.3043    0.6647   -0.5923 C   0  0  0  0  0  0  0  0  0  0  0  0
    3.1505   -0.5462    0.0463 C   0  0  0  0  0  0  0  0  0  0  0  0
    1.9812   -0.7895    0.9390 C   0  0  1  0  0  0  0  0  0  0  0  0
    1.7255    0.3326    1.9938 C   0  0  0  0  0  0  0  0  0  0  0  0
    0.7544    0.0127    0.8596 C   0  0  2  0  0  0  0  0  0  0  0  0
   -0.4934   -0.5115    1.3625 N   0  0  0  0  0  0  0  0  0  0  0  0
   -1.5588    0.4121    1.1016 C   0  0  0  0  0  0  0  0  0  0  0  0
   -1.9142    0.4861   -0.3653 C   0  0  0  0  0  0  0  0  0  0  0  0
   -2.3395   -0.8914   -0.7804 C   0  0  0  0  0  0  0  0  0  0  0  0
   -3.7808   -1.1537   -0.9054 C   0  0  0  0  0  0  0  0  0  0  0  0
   -4.7128   -0.1632   -0.5615 N   0  0  0  0  0  0  0  0  0  0  0  0
   -4.2665    1.0424    0.0241 C   0  0  0  0  0  0  0  0  0  0  0  0
   -2.9811    1.5362   -0.5566 C   0  0  0  0  0  0  0  0  0  0  0  0
    4.1076   -1.5160   -0.1506 C   0  0  0  0  0  0  0  0  0  0  0  0
    5.2073   -1.2813   -0.9744 C   0  0  0  0  0  0  0  0  0  0  0  0
    6.2434    0.1044   -2.2655 H   0  0  0  0  0  0  0  0  0  0  0  0
    4.4980    1.8547   -1.9010 H   0  0  0  0  0  0  0  0  0  0  0  0
    2.5376    1.4031   -0.4211 H   0  0  0  0  0  0  0  0  0  0  0  0
    1.9078   -1.8085    1.3692 H   0  0  0  0  0  0  0  0  0  0  0  0
    1.5063    0.0188    3.0113 H   0  0  0  0  0  0  0  0  0  0  0  0
    2.3082    1.2708    1.8028 H   0  0  0  0  0  0  0  0  0  0  0  0
    0.6458    0.7884    0.0643 H   0  0  0  0  0  0  0  0  0  0  0  0
   -0.4615   -0.7644    2.3669 H   0  0  0  0  0  0  0  0  0  0  0  0
   -2.4576    0.1337    1.7155 H   0  0  0  0  0  0  0  0  0  0  0  0
   -1.3082    1.4496    1.4898 H   0  0  0  0  0  0  0  0  0  0  0  0
   -1.0280    0.8393   -0.9220 H   0  0  0  0  0  0  0  0  0  0  0  0
   -1.8626   -1.0599   -1.7936 H   0  0  0  0  0  0  0  0  0  0  0  0
   -1.8350   -1.6654   -0.1213 H   0  0  0  0  0  0  0  0  0  0  0  0
   -4.0538   -1.5307   -1.9441 H   0  0  0  0  0  0  0  0  0  0  0  0
   -4.0251   -2.0668   -0.2660 H   0  0  0  0  0  0  0  0  0  0  0  0
   -5.4886   -0.0168   -1.2614 H   0  0  0  0  0  0  0  0  0  0  0  0
   -4.2033    1.0005    1.1332 H   0  0  0  0  0  0  0  0  0  0  0  0
   -5.0414    1.8303   -0.2269 H   0  0  0  0  0  0  0  0  0  0  0  0
   -3.0741    1.7916   -1.6178 H   0  0  0  0  0  0  0  0  0  0  0  0
   -2.7060    2.4591   -0.0110 H   0  0  0  0  0  0  0  0  0  0  0  0
    3.9718   -2.4642    0.3583 H   0  0  0  0  0  0  0  0  0  0  0  0
    5.9615   -2.0308   -1.1341 H   0  0  0  0  0  0  0  0  0  0  0  0
  1  2  2  0
  2  3  1  0
  3  4  2  0
  4  5  1  0
  5  6  1  0
  6  7  1  0
  7  8  1  0
  8  9  1  0
  9 10  1  0
 10 11  1  0
 11 12  1  0
 12 13  1  0
 13 14  1  0
 14 15  1  0
  4 16  1  0
 16 17  2  0
 17  1  1  0
  7  5  1  0
 15 10  1  0
  1 18  1  0
  2 19  1  0
  3 20  1  0
  5 21  1  1
  6 22  1  0
  6 23  1  0
  7 24  1  6
  8 25  1  0
  9 26  1  0
  9 27  1  0
 10 28  1  0
 11 29  1  0
 11 30  1  0
 12 31  1  0
 12 32  1  0
 13 33  1  0
 14 34  1  0
 14 35  1  0
 15 36  1  0
 15 37  1  0
 16 38  1  0
 17 39  1  0
M  END
$$$$
