
     RDKit          3D

 69 72  0  0  0  0  0  0  0  0999 V2000
    8.8352    1.0647   -1.7759 C   0  0  0  0  0  0  0  0  0  0  0  0
    8.7318    0.1108   -0.5860 C   0  0  0  0  0  0  0  0  0  0  0  0
    7.5348    0.5004    0.1606 N   0  0  0  0  0  0  0  0  0  0  0  0
    6.3332   -0.0215   -0.1019 C   0  0  0  0  0  0  0  0  0  0  0  0
    5.1773    0.3156    0.5751 C   0  0  0  0  0  0  0  0  0  0  0  0
    3.8844   -0.3024    0.2285 C   0  0  0  0  0  0  0  0  0  0  0  0
    3.5991   -0.6852   -1.0643 C   0  0  0  0  0  0  0  0  0  0  0  0
    2.3853   -1.2620   -1.3807 C   0  0  0  0  0  0  0  0  0  0  0  0
    1.4033   -1.4857   -0.4392 C   0  0  0  0  0  0  0  0  0  0  0  0
    0.0910   -2.1027   -0.7519 C   0  0  2  0  0  0  0  0  0  0  0  0
    0.0009   -2.2358   -2.2572 C   0  0  0  0  0  0  0  0  0  0  0  0
   -1.0129   -1.4326   -0.1691 N   0  0  0  0  0  0  0  0  0  0  0  0
   -1.3818   -0.0398   -0.3855 C   0  0  0  0  0  0  0  0  0  0  0  0
   -2.8775   -0.0618   -0.7518 C   0  0  0  0  0  0  0  0  0  0  0  0
   -3.6445   -0.3383    0.4903 C   0  0  2  0  0  0  0  0  0  0  0  0
   -4.9901   -0.9591    0.3365 C   0  0  0  0  0  0  0  0  0  0  0  0
   -6.0361   -0.2439   -0.4087 C   0  0  0  0  0  0  0  0  0  0  0  0
   -7.3124   -1.1331   -0.3572 C   0  0  0  0  0  0  0  0  0  0  0  0
   -5.7242   -0.1492   -1.8751 C   0  0  0  0  0  0  0  0  0  0  0  0
   -6.4160    0.9669    0.1215 O   0  0  0  0  0  0  0  0  0  0  0  0
   -3.7158    0.8750    1.3776 C   0  0  0  0  0  0  0  0  0  0  0  0
   -4.3066    0.7592    2.6143 C   0  0  0  0  0  0  0  0  0  0  0  0
   -4.3905    1.8765    3.4518 C   0  0  0  0  0  0  0  0  0  0  0  0
   -3.8934    3.1046    3.0719 C   0  0  0  0  0  0  0  0  0  0  0  0
   -3.3002    3.2252    1.8327 C   0  0  0  0  0  0  0  0  0  0  0  0
   -3.2249    2.1052    1.0122 C   0  0  0  0  0  0  0  0  0  0  0  0
   -2.8872   -1.2806    1.2773 O   0  0  0  0  0  0  0  0  0  0  0  0
   -1.9122   -2.1018    0.7335 C   0  0  0  0  0  0  0  0  0  0  0  0
   -1.7987   -3.3262    0.9873 O   0  0  0  0  0  0  0  0  0  0  0  0
    1.7088   -1.0947    0.8525 C   0  0  0  0  0  0  0  0  0  0  0  0
    2.9147   -0.5186    1.1816 C   0  0  0  0  0  0  0  0  0  0  0  0
    5.2996    1.2516    1.5799 C   0  0  0  0  0  0  0  0  0  0  0  0
    6.5223    1.8139    1.8814 C   0  0  0  0  0  0  0  0  0  0  0  0
    7.6369    1.4118    1.1433 C   0  0  0  0  0  0  0  0  0  0  0  0
    8.7808    1.8899    1.3722 O   0  0  0  0  0  0  0  0  0  0  0  0
    8.1223    1.8983   -1.6857 H   0  0  0  0  0  0  0  0  0  0  0  0
    8.5582    0.5001   -2.7064 H   0  0  0  0  0  0  0  0  0  0  0  0
    9.8523    1.4807   -1.8533 H   0  0  0  0  0  0  0  0  0  0  0  0
    9.6010    0.2237    0.1016 H   0  0  0  0  0  0  0  0  0  0  0  0
    8.6209   -0.9343   -0.9272 H   0  0  0  0  0  0  0  0  0  0  0  0
    6.2676   -0.7587   -0.9013 H   0  0  0  0  0  0  0  0  0  0  0  0
    4.3794   -0.5087   -1.8177 H   0  0  0  0  0  0  0  0  0  0  0  0
    2.1962   -1.5534   -2.4244 H   0  0  0  0  0  0  0  0  0  0  0  0
    0.0901   -3.1585   -0.3748 H   0  0  0  0  0  0  0  0  0  0  0  0
    0.2095   -1.3188   -2.8036 H   0  0  0  0  0  0  0  0  0  0  0  0
   -0.9878   -2.6977   -2.5308 H   0  0  0  0  0  0  0  0  0  0  0  0
    0.7587   -2.9899   -2.5549 H   0  0  0  0  0  0  0  0  0  0  0  0
   -0.7732    0.4870   -1.1049 H   0  0  0  0  0  0  0  0  0  0  0  0
   -1.3282    0.4320    0.6163 H   0  0  0  0  0  0  0  0  0  0  0  0
   -3.1506    0.8168   -1.3265 H   0  0  0  0  0  0  0  0  0  0  0  0
   -2.9632   -0.9517   -1.4253 H   0  0  0  0  0  0  0  0  0  0  0  0
   -4.8416   -1.9848   -0.0938 H   0  0  0  0  0  0  0  0  0  0  0  0
   -5.3764   -1.1255    1.3903 H   0  0  0  0  0  0  0  0  0  0  0  0
   -7.0726   -2.1640   -0.6565 H   0  0  0  0  0  0  0  0  0  0  0  0
   -7.8065   -1.0463    0.6129 H   0  0  0  0  0  0  0  0  0  0  0  0
   -8.0140   -0.7349   -1.1328 H   0  0  0  0  0  0  0  0  0  0  0  0
   -5.3416    0.8552   -2.0927 H   0  0  0  0  0  0  0  0  0  0  0  0
   -5.1187   -0.9813   -2.2636 H   0  0  0  0  0  0  0  0  0  0  0  0
   -6.6787   -0.2091   -2.4892 H   0  0  0  0  0  0  0  0  0  0  0  0
   -7.2766    1.2179   -0.2995 H   0  0  0  0  0  0  0  0  0  0  0  0
   -4.7267   -0.1490    3.0188 H   0  0  0  0  0  0  0  0  0  0  0  0
   -4.8517    1.8037    4.4274 H   0  0  0  0  0  0  0  0  0  0  0  0
   -3.9380    3.9915    3.6884 H   0  0  0  0  0  0  0  0  0  0  0  0
   -2.8995    4.1778    1.5044 H   0  0  0  0  0  0  0  0  0  0  0  0
   -2.7593    2.2452    0.0585 H   0  0  0  0  0  0  0  0  0  0  0  0
    0.9892   -1.2391    1.6380 H   0  0  0  0  0  0  0  0  0  0  0  0
    3.1187   -0.2262    2.1997 H   0  0  0  0  0  0  0  0  0  0  0  0
    4.4488    1.5553    2.1395 H   0  0  0  0  0  0  0  0  0  0  0  0
    6.6782    2.5503    2.6564 H   0  0  0  0  0  0  0  0  0  0  0  0
  1  2  1  0
  2  3  1  0
  3  4  1  0
  4  5  2  0
  5  6  1  0
  6  7  2  0
  7  8  1  0
  8  9  2  0
  9 10  1  0
 10 11  1  0
 10 12  1  0
 12 13  1  0
 13 14  1  0
 14 15  1  0
 15 16  1  6
 16 17  1  0
 17 18  1  0
 17 19  1  0
 17 20  1  0
 15 21  1  0
 21 22  2  0
 22 23  1  0
 23 24  2  0
 24 25  1  0
 25 26  2  0
 15 27  1  0
 27 28  1  0
 28 29  2  0
  9 30  1  0
 30 31  2  0
  5 32  1  0
 32 33  2  0
 33 34  1  0
 34 35  2  0
 34  3  1  0
 31  6  1  0
 28 12  1  0
 26 21  1  0
  1 36  1  0
  1 37  1  0
  1 38  1  0
  2 39  1  0
  2 40  1  0
  4 41  1  0
  7 42  1  0
  8 43  1  0
 10 44  1  1
 11 45  1  0
 11 46  1  0
 11 47  1  0
 13 48  1  0
 13 49  1  0
 14 50  1  0
 14 51  1  0
 16 52  1  0
 16 53  1  0
 18 54  1  0
 18 55  1  0
 18 56  1  0
 19 57  1  0
 19 58  1  0
 19 59  1  0
 20 60  1  0
 22 61  1  0
 23 62  1  0
 24 63  1  0
 25 64  1  0
 26 65  1  0
 30 66  1  0
 31 67  1  0
 32 68  1  0
 33 69  1  0
M  END
$$$$
