
     RDKit          3D

 40 41  0  0  0  0  0  0  0  0999 V2000
   -3.0430   -3.7345    0.5520 C   0  0  0  0  0  0  0  0  0  0  0  0
   -2.0354   -3.4507   -0.4128 N   0  0  0  0  0  0  0  0  0  0  0  0
   -1.1098   -2.4179   -0.0814 C   0  0  0  0  0  0  0  0  0  0  0  0
   -1.8264   -1.0846   -0.0806 C   0  0  0  0  0  0  0  0  0  0  0  0
   -0.8951    0.0617    0.2658 C   0  0  0  0  0  0  0  0  0  0  0  0
    0.1508    0.1292   -0.6659 O   0  0  0  0  0  0  0  0  0  0  0  0
    1.4838    0.1482   -0.3638 C   0  0  0  0  0  0  0  0  0  0  0  0
    1.9765    0.1102    0.9210 C   0  0  0  0  0  0  0  0  0  0  0  0
    3.3590    0.1346    1.1266 C   0  0  0  0  0  0  0  0  0  0  0  0
    4.2531    0.1950    0.0895 C   0  0  0  0  0  0  0  0  0  0  0  0
    5.7239    0.2220    0.3168 C   0  0  0  0  0  0  0  0  0  0  0  0
    6.1737    1.4779   -0.0897 F   0  0  0  0  0  0  0  0  0  0  0  0
    6.0354    0.0457    1.6325 F   0  0  0  0  0  0  0  0  0  0  0  0
    6.3451   -0.7239   -0.4596 F   0  0  0  0  0  0  0  0  0  0  0  0
    3.7552    0.2330   -1.2034 C   0  0  0  0  0  0  0  0  0  0  0  0
    2.3960    0.2092   -1.4124 C   0  0  0  0  0  0  0  0  0  0  0  0
   -1.6625    1.3517    0.1111 C   0  0  0  0  0  0  0  0  0  0  0  0
   -0.9288    2.5343    0.0059 C   0  0  0  0  0  0  0  0  0  0  0  0
   -1.5322    3.7591   -0.1319 C   0  0  0  0  0  0  0  0  0  0  0  0
   -2.9158    3.8286   -0.1678 C   0  0  0  0  0  0  0  0  0  0  0  0
   -3.6290    2.6568   -0.0631 C   0  0  0  0  0  0  0  0  0  0  0  0
   -3.0263    1.4201    0.0754 C   0  0  0  0  0  0  0  0  0  0  0  0
   -3.7036   -2.8797    0.6810 H   0  0  0  0  0  0  0  0  0  0  0  0
   -3.6900   -4.5442    0.0904 H   0  0  0  0  0  0  0  0  0  0  0  0
   -2.6767   -4.1817    1.5010 H   0  0  0  0  0  0  0  0  0  0  0  0
   -1.6662   -4.2592   -0.9217 H   0  0  0  0  0  0  0  0  0  0  0  0
   -0.2771   -2.3415   -0.8075 H   0  0  0  0  0  0  0  0  0  0  0  0
   -0.6366   -2.5464    0.9144 H   0  0  0  0  0  0  0  0  0  0  0  0
   -2.6564   -1.1682    0.6508 H   0  0  0  0  0  0  0  0  0  0  0  0
   -2.2487   -0.9334   -1.0932 H   0  0  0  0  0  0  0  0  0  0  0  0
   -0.5397   -0.0562    1.2881 H   0  0  0  0  0  0  0  0  0  0  0  0
    1.3688    0.0632    1.7858 H   0  0  0  0  0  0  0  0  0  0  0  0
    3.7426    0.1060    2.1435 H   0  0  0  0  0  0  0  0  0  0  0  0
    4.4663    0.2820   -2.0279 H   0  0  0  0  0  0  0  0  0  0  0  0
    2.0005    0.2374   -2.4402 H   0  0  0  0  0  0  0  0  0  0  0  0
    0.1500    2.4776    0.0339 H   0  0  0  0  0  0  0  0  0  0  0  0
   -0.9129    4.6323   -0.2081 H   0  0  0  0  0  0  0  0  0  0  0  0
   -3.4194    4.7832   -0.2752 H   0  0  0  0  0  0  0  0  0  0  0  0
   -4.7256    2.7021   -0.0910 H   0  0  0  0  0  0  0  0  0  0  0  0
   -3.6237    0.5210    0.1533 H   0  0  0  0  0  0  0  0  0  0  0  0
  1  2  1  0
  2  3  1  0
  3  4  1  0
  4  5  1  0
  5  6  1  0
  6  7  1  0
  7  8  2  0
  8  9  1  0
  9 10  2  0
 10 11  1  0
 11 12  1  0
 11 13  1  0
 11 14  1  0
 10 15  1  0
 15 16  2  0
  5 17  1  0
 17 18  2  0
 18 19  1  0
 19 20  2  0
 20 21  1  0
 21 22  2  0
 16  7  1  0
 22 17  1  0
  1 23  1  0
  1 24  1  0
  1 25  1  0
  2 26  1  0
  3 27  1  0
  3 28  1  0
  4 29  1  0
  4 30  1  0
  5 31  1  0
  8 32  1  0
  9 33  1  0
 15 34  1  0
 16 35  1  0
 18 36  1  0
 19 37  1  0
 20 38  1  0
 21 39  1  0
 22 40  1  0
M  END
$$$$
