
     RDKit          3D

 47 51  0  0  0  0  0  0  0  0999 V2000
   -2.1103   -2.1405   -0.8799 C   0  0  0  0  0  0  0  0  0  0  0  0
   -2.4236   -1.1489    0.2488 C   0  0  2  0  0  0  0  0  0  0  0  0
   -3.8912   -1.3003    0.5242 C   0  0  0  0  0  0  0  0  0  0  0  0
   -4.6420   -0.9834   -0.7158 C   0  0  0  0  0  0  0  0  0  0  0  0
   -4.0420   -0.0257   -1.6530 C   0  0  0  0  0  0  0  0  0  0  0  0
   -2.6929    0.1621   -1.6098 O   0  0  0  0  0  0  0  0  0  0  0  0
   -2.2434    0.2500   -0.2860 C   0  0  2  0  0  0  0  0  0  0  0  0
   -0.9027    0.8375   -0.1476 C   0  0  1  0  0  0  0  0  0  0  0  0
   -0.4073    1.5156   -1.4103 C   0  0  0  0  0  0  0  0  0  0  0  0
    0.1537    2.7155   -0.9220 O   0  0  0  0  0  0  0  0  0  0  0  0
   -0.4232    3.0131    0.2983 C   0  0  0  0  0  0  0  0  0  0  0  0
   -0.3918    4.2731    1.0009 N   0  0  0  0  0  0  0  0  0  0  0  0
   -1.0189    1.9930    0.7584 N   0  0  0  0  0  0  0  0  0  0  0  0
    0.1016   -0.0389    0.4478 C   0  0  0  0  0  0  0  0  0  0  0  0
    1.4272    0.2708    0.2628 C   0  0  0  0  0  0  0  0  0  0  0  0
    2.4115   -0.5362    0.8321 C   0  0  0  0  0  0  0  0  0  0  0  0
    3.8167   -0.1592    0.6048 C   0  0  0  0  0  0  0  0  0  0  0  0
    4.1552    1.1526    0.4755 C   0  0  0  0  0  0  0  0  0  0  0  0
    5.4409    1.5582    0.2622 N   0  0  0  0  0  0  0  0  0  0  0  0
    6.4208    0.6427    0.1740 C   0  0  0  0  0  0  0  0  0  0  0  0
    6.0883   -0.6852    0.3035 C   0  0  0  0  0  0  0  0  0  0  0  0
    7.3834   -1.8635    0.1851 Cl  0  0  0  0  0  0  0  0  0  0  0  0
    4.7990   -1.1237    0.5193 C   0  0  0  0  0  0  0  0  0  0  0  0
    2.0682   -1.6364    1.5749 C   0  0  0  0  0  0  0  0  0  0  0  0
    0.7481   -1.9556    1.7659 C   0  0  0  0  0  0  0  0  0  0  0  0
   -0.2419   -1.1352    1.1871 C   0  0  0  0  0  0  0  0  0  0  0  0
   -1.5936   -1.4165    1.3500 O   0  0  0  0  0  0  0  0  0  0  0  0
   -2.1914   -1.6822   -1.8666 H   0  0  0  0  0  0  0  0  0  0  0  0
   -1.0912   -2.5891   -0.7114 H   0  0  0  0  0  0  0  0  0  0  0  0
   -2.8121   -2.9981   -0.8333 H   0  0  0  0  0  0  0  0  0  0  0  0
   -4.1504   -0.5273    1.3013 H   0  0  0  0  0  0  0  0  0  0  0  0
   -4.1062   -2.3086    0.9094 H   0  0  0  0  0  0  0  0  0  0  0  0
   -5.6510   -0.5829   -0.3999 H   0  0  0  0  0  0  0  0  0  0  0  0
   -4.8979   -1.9663   -1.2109 H   0  0  0  0  0  0  0  0  0  0  0  0
   -4.5214    0.9956   -1.5872 H   0  0  0  0  0  0  0  0  0  0  0  0
   -4.2942   -0.3588   -2.7044 H   0  0  0  0  0  0  0  0  0  0  0  0
   -3.0216    0.9171    0.2042 H   0  0  0  0  0  0  0  0  0  0  0  0
    0.3635    0.9112   -1.8963 H   0  0  0  0  0  0  0  0  0  0  0  0
   -1.2443    1.7949   -2.0728 H   0  0  0  0  0  0  0  0  0  0  0  0
    0.4404    4.4543    1.5748 H   0  0  0  0  0  0  0  0  0  0  0  0
   -1.2041    4.9057    0.8806 H   0  0  0  0  0  0  0  0  0  0  0  0
    1.7380    1.1242   -0.3143 H   0  0  0  0  0  0  0  0  0  0  0  0
    3.3968    1.9222    0.5414 H   0  0  0  0  0  0  0  0  0  0  0  0
    7.4519    0.9782    0.0024 H   0  0  0  0  0  0  0  0  0  0  0  0
    4.5366   -2.1672    0.6212 H   0  0  0  0  0  0  0  0  0  0  0  0
    2.8318   -2.2451    2.0048 H   0  0  0  0  0  0  0  0  0  0  0  0
    0.4370   -2.8126    2.3455 H   0  0  0  0  0  0  0  0  0  0  0  0
  2  1  1  6
  2  3  1  0
  3  4  1  0
  4  5  1  0
  5  6  1  0
  6  7  1  0
  7  8  1  0
  8  9  1  6
  9 10  1  0
 10 11  1  0
 11 12  1  0
 11 13  2  0
  8 14  1  0
 14 15  2  0
 15 16  1  0
 16 17  1  0
 17 18  2  0
 18 19  1  0
 19 20  2  0
 20 21  1  0
 21 22  1  0
 21 23  2  0
 16 24  2  0
 24 25  1  0
 25 26  2  0
 26 27  1  0
  7  2  1  0
 13  8  1  0
 26 14  1  0
 27  2  1  0
 23 17  1  0
  1 28  1  0
  1 29  1  0
  1 30  1  0
  3 31  1  0
  3 32  1  0
  4 33  1  0
  4 34  1  0
  5 35  1  0
  5 36  1  0
  7 37  1  1
  9 38  1  0
  9 39  1  0
 12 40  1  0
 12 41  1  0
 15 42  1  0
 18 43  1  0
 20 44  1  0
 23 45  1  0
 24 46  1  0
 25 47  1  0
M  END
$$$$
