
     RDKit          3D

 53 58  0  0  0  0  0  0  0  0999 V2000
   -4.3748    1.4651    1.9720 C   0  0  0  0  0  0  0  0  0  0  0  0
   -3.7364    0.5161    1.0310 C   0  0  0  0  0  0  0  0  0  0  0  0
   -2.3653    0.4485    0.9420 C   0  0  0  0  0  0  0  0  0  0  0  0
   -1.6794   -0.4021    0.0952 C   0  0  0  0  0  0  0  0  0  0  0  0
   -0.2587   -0.4412    0.0325 N   0  0  0  0  0  0  0  0  0  0  0  0
    0.5775   -1.2625   -0.7379 C   0  0  0  0  0  0  0  0  0  0  0  0
    0.2452   -2.1022   -1.5833 O   0  0  0  0  0  0  0  0  0  0  0  0
    1.9971   -1.0041   -0.4134 C   0  0  0  0  0  0  0  0  0  0  0  0
    1.9920   -0.0218    0.5477 C   0  0  0  0  0  0  0  0  0  0  0  0
    3.2883    0.2358    0.9063 C   0  0  0  0  0  0  0  0  0  0  0  0
    3.8021    1.2234    1.9243 C   0  0  0  0  0  0  0  0  0  0  0  0
    3.5948    0.7220    3.2106 O   0  0  0  0  0  0  0  0  0  0  0  0
    4.0736   -0.5873    0.1616 N   0  0  0  0  0  0  0  0  0  0  0  0
    3.2815   -1.3045   -0.6062 N   0  0  0  0  0  0  0  0  0  0  0  0
    3.7435   -2.2946   -1.5484 C   0  0  0  0  0  0  0  0  0  0  0  0
    5.1013   -2.9560   -1.2455 C   0  0  0  0  0  0  0  0  0  0  0  0
    3.8183   -3.7161   -1.1963 C   0  0  0  0  0  0  0  0  0  0  0  0
    0.6098    0.4165    0.8149 C   0  0  0  0  0  0  0  0  0  0  0  0
    0.4618    1.8513    0.4498 C   0  0  0  0  0  0  0  0  0  0  0  0
    0.4565    2.8012    1.4426 C   0  0  0  0  0  0  0  0  0  0  0  0
    0.3195    4.1393    1.0799 C   0  0  0  0  0  0  0  0  0  0  0  0
    0.1954    4.4610   -0.2442 C   0  0  0  0  0  0  0  0  0  0  0  0
    0.0252    6.1465   -0.6717 Cl  0  0  0  0  0  0  0  0  0  0  0  0
    0.2038    3.4805   -1.2293 C   0  0  0  0  0  0  0  0  0  0  0  0
    0.3382    2.1573   -0.8859 C   0  0  0  0  0  0  0  0  0  0  0  0
   -2.4603   -1.2328   -0.7071 C   0  0  0  0  0  0  0  0  0  0  0  0
   -3.8075   -1.1842   -0.6366 N   0  0  0  0  0  0  0  0  0  0  0  0
   -4.7356   -1.9056   -1.3283 C   0  0  0  0  0  0  0  0  0  0  0  0
   -4.4454   -2.9538   -2.3589 C   0  0  0  0  0  0  0  0  0  0  0  0
   -5.9235   -1.4731   -0.8834 N   0  0  0  0  0  0  0  0  0  0  0  0
   -5.7507   -0.5346    0.0342 N   0  0  0  0  0  0  0  0  0  0  0  0
   -4.4383   -0.3376    0.2048 C   0  0  0  0  0  0  0  0  0  0  0  0
   -4.4990    2.4859    1.5050 H   0  0  0  0  0  0  0  0  0  0  0  0
   -5.3607    1.0907    2.3195 H   0  0  0  0  0  0  0  0  0  0  0  0
   -3.7666    1.6388    2.8800 H   0  0  0  0  0  0  0  0  0  0  0  0
   -1.8104    1.1061    1.5868 H   0  0  0  0  0  0  0  0  0  0  0  0
    4.8618    1.4600    1.7149 H   0  0  0  0  0  0  0  0  0  0  0  0
    3.2533    2.1888    1.8403 H   0  0  0  0  0  0  0  0  0  0  0  0
    4.4868    0.7320    3.6709 H   0  0  0  0  0  0  0  0  0  0  0  0
    3.6392   -1.9565   -2.6108 H   0  0  0  0  0  0  0  0  0  0  0  0
    5.5962   -2.6204   -0.3110 H   0  0  0  0  0  0  0  0  0  0  0  0
    5.7641   -3.1523   -2.1004 H   0  0  0  0  0  0  0  0  0  0  0  0
    3.4487   -3.9968   -0.1938 H   0  0  0  0  0  0  0  0  0  0  0  0
    3.6459   -4.4622   -2.0044 H   0  0  0  0  0  0  0  0  0  0  0  0
    0.3146    0.3031    1.8750 H   0  0  0  0  0  0  0  0  0  0  0  0
    0.5554    2.5283    2.4817 H   0  0  0  0  0  0  0  0  0  0  0  0
    0.3187    4.8550    1.8764 H   0  0  0  0  0  0  0  0  0  0  0  0
    0.1036    3.7742   -2.2599 H   0  0  0  0  0  0  0  0  0  0  0  0
    0.3499    1.3563   -1.6251 H   0  0  0  0  0  0  0  0  0  0  0  0
   -2.0145   -1.9223   -1.3919 H   0  0  0  0  0  0  0  0  0  0  0  0
   -4.1547   -2.5184   -3.3306 H   0  0  0  0  0  0  0  0  0  0  0  0
   -5.2947   -3.6390   -2.4821 H   0  0  0  0  0  0  0  0  0  0  0  0
   -3.5872   -3.6019   -2.0133 H   0  0  0  0  0  0  0  0  0  0  0  0
  1  2  1  0
  2  3  2  0
  3  4  1  0
  4  5  1  0
  5  6  1  0
  6  7  2  0
  6  8  1  0
  8  9  2  0
  9 10  1  0
 10 11  1  0
 11 12  1  0
 10 13  2  0
 13 14  1  0
 14 15  1  0
 15 16  1  0
 16 17  1  0
  9 18  1  0
 18 19  1  0
 19 20  2  0
 20 21  1  0
 21 22  2  0
 22 23  1  0
 22 24  1  0
 24 25  2  0
  4 26  2  0
 26 27  1  0
 27 28  1  0
 28 29  1  0
 28 30  2  0
 30 31  1  0
 31 32  2  0
 32  2  1  0
 18  5  1  0
 25 19  1  0
 32 27  1  0
 14  8  1  0
 17 15  1  0
  1 33  1  0
  1 34  1  0
  1 35  1  0
  3 36  1  0
 11 37  1  0
 11 38  1  0
 12 39  1  0
 15 40  1  0
 16 41  1  0
 16 42  1  0
 17 43  1  0
 17 44  1  0
 18 45  1  0
 20 46  1  0
 21 47  1  0
 24 48  1  0
 25 49  1  0
 26 50  1  0
 29 51  1  0
 29 52  1  0
 29 53  1  0
M  END
$$$$
