
     RDKit          3D

 35 35  0  0  0  0  0  0  0  0999 V2000
    5.0575   -0.1332   -0.9632 C   0  0  0  0  0  0  0  0  0  0  0  0
    4.0395    0.3118   -0.0230 N   0  0  0  0  0  0  0  0  0  0  0  0
    4.3628    1.3457    0.9400 C   0  0  0  0  0  0  0  0  0  0  0  0
    2.7628   -0.3154   -0.1164 C   0  0  0  0  0  0  0  0  0  0  0  0
    3.0002   -1.0991   -1.0656 O   0  0  0  0  0  0  0  0  0  0  0  0
    1.8052    0.1002    0.7650 O   0  0  0  0  0  0  0  0  0  0  0  0
    0.5167   -0.3446    0.8729 C   0  0  0  0  0  0  0  0  0  0  0  0
   -0.5835    0.1742    0.2067 C   0  0  0  0  0  0  0  0  0  0  0  0
   -1.8555   -0.3532    0.3877 C   0  0  0  0  0  0  0  0  0  0  0  0
   -1.9712   -1.4158    1.2602 C   0  0  0  0  0  0  0  0  0  0  0  0
   -0.9030   -1.9570    1.9386 C   0  0  0  0  0  0  0  0  0  0  0  0
    0.3562   -1.4140    1.7418 C   0  0  0  0  0  0  0  0  0  0  0  0
   -2.8743    0.2676   -0.3475 N   0  0  0  0  0  4  0  0  0  0  0  0
   -3.9811   -0.6365   -0.5487 C   0  0  0  0  0  0  0  0  0  0  0  0
   -3.3530    1.4240    0.4090 C   0  0  0  0  0  0  0  0  0  0  0  0
   -2.3939    0.6710   -1.6422 C   0  0  0  0  0  0  0  0  0  0  0  0
    5.9199    0.5486   -0.9981 H   0  0  0  0  0  0  0  0  0  0  0  0
    5.3378   -1.1721   -0.6257 H   0  0  0  0  0  0  0  0  0  0  0  0
    4.5506   -0.2776   -1.9393 H   0  0  0  0  0  0  0  0  0  0  0  0
    5.4516    1.3379    1.1402 H   0  0  0  0  0  0  0  0  0  0  0  0
    3.8632    1.2064    1.9210 H   0  0  0  0  0  0  0  0  0  0  0  0
    4.1142    2.3545    0.5695 H   0  0  0  0  0  0  0  0  0  0  0  0
   -0.3191    0.9952   -0.4311 H   0  0  0  0  0  0  0  0  0  0  0  0
   -2.9651   -1.8102    1.3867 H   0  0  0  0  0  0  0  0  0  0  0  0
   -1.0360   -2.7866    2.6109 H   0  0  0  0  0  0  0  0  0  0  0  0
    1.1670   -1.8731    2.2974 H   0  0  0  0  0  0  0  0  0  0  0  0
   -4.4740   -0.8392    0.4162 H   0  0  0  0  0  0  0  0  0  0  0  0
   -4.7413   -0.2452   -1.2350 H   0  0  0  0  0  0  0  0  0  0  0  0
   -3.5999   -1.5790   -1.0093 H   0  0  0  0  0  0  0  0  0  0  0  0
   -4.1982    1.9381   -0.0968 H   0  0  0  0  0  0  0  0  0  0  0  0
   -3.7443    1.0585    1.3853 H   0  0  0  0  0  0  0  0  0  0  0  0
   -2.4683    2.0824    0.5416 H   0  0  0  0  0  0  0  0  0  0  0  0
   -1.8811    1.6693   -1.5590 H   0  0  0  0  0  0  0  0  0  0  0  0
   -1.6689   -0.0276   -2.0801 H   0  0  0  0  0  0  0  0  0  0  0  0
   -3.2937    0.7937   -2.2955 H   0  0  0  0  0  0  0  0  0  0  0  0
  1  2  1  0
  2  3  1  0
  2  4  1  0
  4  5  2  0
  4  6  1  0
  6  7  1  0
  7  8  2  0
  8  9  1  0
  9 10  2  0
 10 11  1  0
 11 12  2  0
  9 13  1  0
 13 14  1  0
 13 15  1  0
 13 16  1  0
 12  7  1  0
  1 17  1  0
  1 18  1  0
  1 19  1  0
  3 20  1  0
  3 21  1  0
  3 22  1  0
  8 23  1  0
 10 24  1  0
 11 25  1  0
 12 26  1  0
 14 27  1  0
 14 28  1  0
 14 29  1  0
 15 30  1  0
 15 31  1  0
 15 32  1  0
 16 33  1  0
 16 34  1  0
 16 35  1  0
M  CHG  1  13   1
M  END
$$$$
