
     RDKit          3D

 50 53  0  0  0  0  0  0  0  0999 V2000
   -0.0871    0.9515   -1.7900 O   0  0  0  0  0  0  0  0  0  0  0  0
   -0.0536    1.7138   -0.5955 C   0  0  0  0  0  0  0  0  0  0  0  0
    0.5114    0.8707    0.4780 C   0  0  0  0  0  0  0  0  0  0  0  0
    1.8178    0.4413    0.3173 O   0  0  0  0  0  0  0  0  0  0  0  0
    2.9917    1.0946    0.2104 C   0  0  0  0  0  0  0  0  0  0  0  0
    3.3664    2.4161    0.2249 C   0  0  0  0  0  0  0  0  0  0  0  0
    4.6522    2.8837    0.0977 C   0  0  0  0  0  0  0  0  0  0  0  0
    5.6677    1.9647   -0.0584 C   0  0  0  0  0  0  0  0  0  0  0  0
    5.3690    0.6190   -0.0824 C   0  0  0  0  0  0  0  0  0  0  0  0
    4.0449    0.1826    0.0504 C   0  0  0  0  0  0  0  0  0  0  0  0
    3.9188   -1.2046    0.0049 C   0  0  0  0  0  0  0  0  0  0  0  0
    2.7551   -1.6588    0.1185 O   0  0  0  0  0  0  0  0  0  0  0  0
    5.0311   -1.9992   -0.1568 C   0  0  0  0  0  0  0  0  0  0  0  0
    6.2978   -1.4759   -0.2792 C   0  0  0  0  0  0  0  0  0  0  0  0
    6.3901   -0.1766   -0.2337 O   0  0  0  0  0  0  0  0  0  0  0  0
    7.4541   -2.3479   -0.4493 C   0  0  0  0  0  0  0  0  0  0  0  0
    8.7219   -1.8120   -0.5713 O   0  0  0  0  0  0  0  0  0  0  0  0
    7.2655   -3.5912   -0.4814 O   0  0  0  0  0  0  0  0  0  0  0  0
   -1.4279    2.2190   -0.2538 C   0  0  0  0  0  0  0  0  0  0  0  0
   -2.4293    1.3418   -0.0232 O   0  0  0  0  0  0  0  0  0  0  0  0
   -2.8832    0.3879    0.7479 C   0  0  0  0  0  0  0  0  0  0  0  0
   -2.4921   -0.2716    1.8918 C   0  0  0  0  0  0  0  0  0  0  0  0
   -3.1315   -1.2777    2.5715 C   0  0  0  0  0  0  0  0  0  0  0  0
   -4.3268   -1.6544    2.0030 C   0  0  0  0  0  0  0  0  0  0  0  0
   -4.8505   -1.0915    0.8641 C   0  0  0  0  0  0  0  0  0  0  0  0
   -4.1148   -0.0716    0.2501 C   0  0  0  0  0  0  0  0  0  0  0  0
   -4.7670    0.4043   -0.8932 C   0  0  0  0  0  0  0  0  0  0  0  0
   -4.1760    1.3329   -1.5201 O   0  0  0  0  0  0  0  0  0  0  0  0
   -5.9757   -0.0902   -1.3285 C   0  0  0  0  0  0  0  0  0  0  0  0
   -6.5935   -1.1007   -0.6244 C   0  0  0  0  0  0  0  0  0  0  0  0
   -5.9983   -1.5597    0.4490 O   0  0  0  0  0  0  0  0  0  0  0  0
   -7.8710   -1.6039   -1.1083 C   0  0  0  0  0  0  0  0  0  0  0  0
   -8.5718   -2.6118   -0.4790 O   0  0  0  0  0  0  0  0  0  0  0  0
   -8.3510   -1.0942   -2.1446 O   0  0  0  0  0  0  0  0  0  0  0  0
    0.8054    0.5215   -1.8165 H   0  0  0  0  0  0  0  0  0  0  0  0
    0.6204    2.5697   -0.8783 H   0  0  0  0  0  0  0  0  0  0  0  0
    0.3509    1.3058    1.4632 H   0  0  0  0  0  0  0  0  0  0  0  0
   -0.0942   -0.1037    0.4340 H   0  0  0  0  0  0  0  0  0  0  0  0
    2.5349    3.0876    0.3580 H   0  0  0  0  0  0  0  0  0  0  0  0
    4.7596    3.9749    0.1326 H   0  0  0  0  0  0  0  0  0  0  0  0
    6.6571    2.3900   -0.1535 H   0  0  0  0  0  0  0  0  0  0  0  0
    4.8409   -3.0649   -0.1811 H   0  0  0  0  0  0  0  0  0  0  0  0
    9.5231   -2.3790   -0.8764 H   0  0  0  0  0  0  0  0  0  0  0  0
   -1.7437    3.0045   -1.0284 H   0  0  0  0  0  0  0  0  0  0  0  0
   -1.3492    2.9035    0.6724 H   0  0  0  0  0  0  0  0  0  0  0  0
   -1.5538    0.0940    2.2781 H   0  0  0  0  0  0  0  0  0  0  0  0
   -2.6685   -1.6789    3.4605 H   0  0  0  0  0  0  0  0  0  0  0  0
   -4.8637   -2.4461    2.5087 H   0  0  0  0  0  0  0  0  0  0  0  0
   -6.3844    0.3554   -2.2250 H   0  0  0  0  0  0  0  0  0  0  0  0
   -9.5894   -2.6652   -0.4960 H   0  0  0  0  0  0  0  0  0  0  0  0
  1  2  1  0
  2  3  1  0
  3  4  1  0
  4  5  1  0
  5  6  2  0
  6  7  1  0
  7  8  2  0
  8  9  1  0
  9 10  2  0
 10 11  1  0
 11 12  2  0
 11 13  1  0
 13 14  2  0
 14 15  1  0
 14 16  1  0
 16 17  1  0
 16 18  2  0
  2 19  1  0
 19 20  1  0
 20 21  1  0
 21 22  2  0
 22 23  1  0
 23 24  2  0
 24 25  1  0
 25 26  2  0
 26 27  1  0
 27 28  2  0
 27 29  1  0
 29 30  2  0
 30 31  1  0
 30 32  1  0
 32 33  1  0
 32 34  2  0
 10  5  1  0
 26 21  1  0
 15  9  1  0
 31 25  1  0
  1 35  1  0
  2 36  1  0
  3 37  1  0
  3 38  1  0
  6 39  1  0
  7 40  1  0
  8 41  1  0
 13 42  1  0
 17 43  1  0
 19 44  1  0
 19 45  1  0
 22 46  1  0
 23 47  1  0
 24 48  1  0
 29 49  1  0
 33 50  1  0
M  END
$$$$
