
     RDKit          3D

 48 51  0  0  0  0  0  0  0  0999 V2000
   -2.4417   -0.3659   -5.4772 C   0  0  0  0  0  0  0  0  0  0  0  0
   -1.7214   -1.2963   -4.5962 C   0  0  0  0  0  0  0  0  0  0  0  0
   -0.7412   -1.8812   -4.9230 O   0  0  0  0  0  0  0  0  0  0  0  0
   -2.2780   -1.4864   -3.2261 C   0  0  2  0  0  0  0  0  0  0  0  0
   -2.6263   -0.1431   -2.5231 C   0  0  0  0  0  0  0  0  0  0  0  0
   -1.5013   -0.9978   -2.0721 C   0  0  1  0  0  0  0  0  0  0  0  0
   -1.4616   -1.7380   -0.8251 C   0  0  1  0  0  0  0  0  0  0  0  0
   -0.0869   -2.5028   -0.8270 C   0  0  0  0  0  0  0  0  0  0  0  0
   -1.3514   -0.7408    0.2957 C   0  0  0  0  0  0  0  0  0  0  0  0
   -0.1687   -0.2296    0.7751 C   0  0  0  0  0  0  0  0  0  0  0  0
   -0.0664    0.8342    1.6324 C   0  0  0  0  0  0  0  0  0  0  0  0
    1.1996    1.4409    2.0341 C   0  0  0  0  0  0  0  0  0  0  0  0
    2.3029    0.8429    2.3328 C   0  0  0  0  0  0  0  0  0  0  0  0
    2.4641   -0.4627    2.3290 F   0  0  0  0  0  0  0  0  0  0  0  0
    3.4695    1.7280    2.6275 C   0  0  0  0  0  0  0  0  0  0  0  0
    4.6996    1.1881    3.0277 C   0  0  0  0  0  0  0  0  0  0  0  0
    5.7495    2.1108    3.2235 C   0  0  0  0  0  0  0  0  0  0  0  0
    5.5979    3.4345    3.0397 C   0  0  0  0  0  0  0  0  0  0  0  0
    6.6521    4.4222    3.2071 C   0  0  0  0  0  0  0  0  0  0  0  0
    7.4770    5.1948    3.3583 N   0  0  0  0  0  0  0  0  0  0  0  0
    4.3411    3.9033    2.6373 C   0  0  0  0  0  0  0  0  0  0  0  0
    3.3613    3.0254    2.4580 N   0  0  0  0  0  0  0  0  0  0  0  0
   -1.2448    1.4571    2.0681 C   0  0  0  0  0  0  0  0  0  0  0  0
   -2.4423    0.9772    1.6204 C   0  0  0  0  0  0  0  0  0  0  0  0
   -2.4974   -0.0910    0.7604 C   0  0  0  0  0  0  0  0  0  0  0  0
   -3.7386   -0.5357    0.4112 F   0  0  0  0  0  0  0  0  0  0  0  0
   -2.4417   -2.7017   -0.4619 N   0  0  0  0  0  0  0  0  0  0  0  0
   -3.3119   -3.2529   -1.1981 C   0  0  0  0  0  0  0  0  0  0  0  0
   -4.2386   -4.2038   -0.7151 N   0  0  0  0  0  0  0  0  0  0  0  0
   -3.3828   -2.8588   -2.9213 S   0  0  0  0  0  0  0  0  0  0  0  0
   -3.1278    0.3088   -4.9101 H   0  0  0  0  0  0  0  0  0  0  0  0
   -3.0399   -0.9513   -6.2175 H   0  0  0  0  0  0  0  0  0  0  0  0
   -1.7152    0.2407   -6.1120 H   0  0  0  0  0  0  0  0  0  0  0  0
   -3.6165   -0.1514   -2.0712 H   0  0  0  0  0  0  0  0  0  0  0  0
   -2.3172    0.7891   -3.0683 H   0  0  0  0  0  0  0  0  0  0  0  0
   -0.4479   -0.6195   -2.3657 H   0  0  0  0  0  0  0  0  0  0  0  0
   -0.0904   -3.2523   -1.6548 H   0  0  0  0  0  0  0  0  0  0  0  0
    0.7057   -1.7936   -0.9943 H   0  0  0  0  0  0  0  0  0  0  0  0
    0.0281   -3.0412    0.1079 H   0  0  0  0  0  0  0  0  0  0  0  0
    0.7681   -0.6856    0.4748 H   0  0  0  0  0  0  0  0  0  0  0  0
    1.1773    2.5573    2.0804 H   0  0  0  0  0  0  0  0  0  0  0  0
    4.8176    0.1685    3.1718 H   0  0  0  0  0  0  0  0  0  0  0  0
    6.7161    1.7210    3.5300 H   0  0  0  0  0  0  0  0  0  0  0  0
    4.2261    4.9508    2.4812 H   0  0  0  0  0  0  0  0  0  0  0  0
   -1.1380    2.3036    2.7422 H   0  0  0  0  0  0  0  0  0  0  0  0
   -3.3447    1.4784    1.9706 H   0  0  0  0  0  0  0  0  0  0  0  0
   -5.2258   -3.9230   -0.5640 H   0  0  0  0  0  0  0  0  0  0  0  0
   -3.9475   -5.1710   -0.5162 H   0  0  0  0  0  0  0  0  0  0  0  0
  1  2  1  0
  2  3  2  0
  4  2  1  6
  4  5  1  0
  5  6  1  0
  6  7  1  0
  7  8  1  6
  7  9  1  0
  9 10  2  0
 10 11  1  0
 11 12  1  0
 12 13  2  0
 13 14  1  0
 13 15  1  0
 15 16  2  0
 16 17  1  0
 17 18  2  0
 18 19  1  0
 19 20  3  0
 18 21  1  0
 21 22  2  0
 11 23  2  0
 23 24  1  0
 24 25  2  0
 25 26  1  0
  7 27  1  0
 27 28  2  0
 28 29  1  0
 28 30  1  0
  6  4  1  0
 25  9  1  0
 30  4  1  0
 22 15  1  0
  1 31  1  0
  1 32  1  0
  1 33  1  0
  5 34  1  0
  5 35  1  0
  6 36  1  6
  8 37  1  0
  8 38  1  0
  8 39  1  0
 10 40  1  0
 12 41  1  0
 16 42  1  0
 17 43  1  0
 21 44  1  0
 23 45  1  0
 24 46  1  0
 29 47  1  0
 29 48  1  0
M  END
$$$$
