
     RDKit          3D

 61 63  0  0  0  0  0  0  0  0999 V2000
   -0.6703    2.7892   -0.8490 C   0  0  0  0  0  0  0  0  0  0  0  0
   -0.7975    1.5647    0.0723 C   0  0  2  0  0  0  0  0  0  0  0  0
    0.4850    0.9454    0.1027 N   0  0  0  0  0  0  0  0  0  0  0  0
    1.3145    0.8601    1.2510 C   0  0  0  0  0  0  0  0  0  0  0  0
    0.8816    1.3677    2.3153 O   0  0  0  0  0  0  0  0  0  0  0  0
    2.6541    0.2207    1.2973 C   0  0  0  0  0  0  0  0  0  0  0  0
    3.6151    1.3142    1.7601 C   0  0  0  0  0  0  0  0  0  0  0  0
    2.7055   -0.8536    2.3761 C   0  0  0  0  0  0  0  0  0  0  0  0
    3.0147   -0.3032    0.0399 O   0  0  0  0  0  0  0  0  0  0  0  0
    4.2745   -0.9392   -0.0345 C   0  0  0  0  0  0  0  0  0  0  0  0
    4.3946   -2.2883    0.2088 C   0  0  0  0  0  0  0  0  0  0  0  0
    5.6304   -2.8792    0.1323 C   0  0  0  0  0  0  0  0  0  0  0  0
    6.7455   -2.1454   -0.1840 C   0  0  0  0  0  0  0  0  0  0  0  0
    8.1014   -2.7037   -0.2770 C   0  0  0  0  0  0  0  0  0  0  0  0
    8.8072   -2.4548    0.9062 F   0  0  0  0  0  0  0  0  0  0  0  0
    8.7807   -1.9920   -1.2669 F   0  0  0  0  0  0  0  0  0  0  0  0
    8.1481   -4.0500   -0.5133 F   0  0  0  0  0  0  0  0  0  0  0  0
    6.5929   -0.7751   -0.4269 C   0  0  0  0  0  0  0  0  0  0  0  0
    5.3752   -0.2452   -0.3410 N   0  0  0  0  0  0  0  0  0  0  0  0
   -1.9150    0.7461   -0.5055 C   0  0  1  0  0  0  0  0  0  0  0  0
   -2.1878   -0.5153    0.2696 C   0  0  0  0  0  0  0  0  0  0  0  0
   -3.2831   -1.3016   -0.3247 C   0  0  0  0  0  0  0  0  0  0  0  0
   -4.5892   -1.1445    0.0618 C   0  0  0  0  0  0  0  0  0  0  0  0
   -5.6126   -1.8997   -0.5245 C   0  0  0  0  0  0  0  0  0  0  0  0
   -5.3080   -2.8220   -1.5121 C   0  0  0  0  0  0  0  0  0  0  0  0
   -6.5612   -3.7848   -2.2671 Cl  0  0  0  0  0  0  0  0  0  0  0  0
   -4.0055   -2.9653   -1.8840 C   0  0  0  0  0  0  0  0  0  0  0  0
   -2.9921   -2.2166   -1.3020 C   0  0  0  0  0  0  0  0  0  0  0  0
   -3.1222    1.5985   -0.4832 C   0  0  0  0  0  0  0  0  0  0  0  0
   -3.5739    2.0760    0.7226 C   0  0  0  0  0  0  0  0  0  0  0  0
   -4.7186    2.8886    0.7415 C   0  0  0  0  0  0  0  0  0  0  0  0
   -5.3904    3.2130   -0.4157 C   0  0  0  0  0  0  0  0  0  0  0  0
   -4.9358    2.7310   -1.6434 C   0  0  0  0  0  0  0  0  0  0  0  0
   -5.6221    3.0853   -2.7819 C   0  0  0  0  0  0  0  0  0  0  0  0
   -6.2631    3.4029   -3.8039 N   0  0  0  0  0  0  0  0  0  0  0  0
   -3.8002    1.9291   -1.6240 C   0  0  0  0  0  0  0  0  0  0  0  0
   -0.7172    2.4432   -1.9094 H   0  0  0  0  0  0  0  0  0  0  0  0
    0.3534    3.2020   -0.6967 H   0  0  0  0  0  0  0  0  0  0  0  0
   -1.3890    3.5724   -0.6016 H   0  0  0  0  0  0  0  0  0  0  0  0
   -1.1173    1.9815    1.0502 H   0  0  0  0  0  0  0  0  0  0  0  0
    0.8585    0.5160   -0.7740 H   0  0  0  0  0  0  0  0  0  0  0  0
    3.1279    2.3098    1.8150 H   0  0  0  0  0  0  0  0  0  0  0  0
    4.0062    1.1270    2.7894 H   0  0  0  0  0  0  0  0  0  0  0  0
    4.4930    1.4021    1.0950 H   0  0  0  0  0  0  0  0  0  0  0  0
    3.6486   -1.4127    2.3616 H   0  0  0  0  0  0  0  0  0  0  0  0
    2.6536   -0.3636    3.3760 H   0  0  0  0  0  0  0  0  0  0  0  0
    1.8958   -1.6138    2.2542 H   0  0  0  0  0  0  0  0  0  0  0  0
    3.5080   -2.8728    0.4584 H   0  0  0  0  0  0  0  0  0  0  0  0
    5.7468   -3.9334    0.3197 H   0  0  0  0  0  0  0  0  0  0  0  0
    7.4808   -0.1939   -0.6770 H   0  0  0  0  0  0  0  0  0  0  0  0
   -1.7235    0.4643   -1.5658 H   0  0  0  0  0  0  0  0  0  0  0  0
   -1.2647   -1.1084    0.4166 H   0  0  0  0  0  0  0  0  0  0  0  0
   -2.5256   -0.2579    1.3158 H   0  0  0  0  0  0  0  0  0  0  0  0
   -4.9048   -0.4575    0.8204 H   0  0  0  0  0  0  0  0  0  0  0  0
   -6.6466   -1.7956   -0.2385 H   0  0  0  0  0  0  0  0  0  0  0  0
   -3.7289   -3.6764   -2.6544 H   0  0  0  0  0  0  0  0  0  0  0  0
   -1.9776   -2.3460   -1.6086 H   0  0  0  0  0  0  0  0  0  0  0  0
   -3.1248    1.8826    1.6844 H   0  0  0  0  0  0  0  0  0  0  0  0
   -5.0820    3.2714    1.6955 H   0  0  0  0  0  0  0  0  0  0  0  0
   -6.2781    3.8424   -0.3780 H   0  0  0  0  0  0  0  0  0  0  0  0
   -3.4652    1.5643   -2.6004 H   0  0  0  0  0  0  0  0  0  0  0  0
  1  2  1  0
  2  3  1  0
  3  4  1  0
  4  5  2  0
  4  6  1  0
  6  7  1  0
  6  8  1  0
  6  9  1  0
  9 10  1  0
 10 11  2  0
 11 12  1  0
 12 13  2  0
 13 14  1  0
 14 15  1  0
 14 16  1  0
 14 17  1  0
 13 18  1  0
 18 19  2  0
  2 20  1  0
 20 21  1  0
 21 22  1  0
 22 23  2  0
 23 24  1  0
 24 25  2  0
 25 26  1  0
 25 27  1  0
 27 28  2  0
 20 29  1  0
 29 30  2  0
 30 31  1  0
 31 32  2  0
 32 33  1  0
 33 34  1  0
 34 35  3  0
 33 36  2  0
 19 10  1  0
 28 22  1  0
 36 29  1  0
  1 37  1  0
  1 38  1  0
  1 39  1  0
  2 40  1  1
  3 41  1  0
  7 42  1  0
  7 43  1  0
  7 44  1  0
  8 45  1  0
  8 46  1  0
  8 47  1  0
 11 48  1  0
 12 49  1  0
 18 50  1  0
 20 51  1  6
 21 52  1  0
 21 53  1  0
 23 54  1  0
 24 55  1  0
 27 56  1  0
 28 57  1  0
 30 58  1  0
 31 59  1  0
 32 60  1  0
 36 61  1  0
M  END
$$$$
