
     RDKit          3D

 54 54  0  0  0  0  0  0  0  0999 V2000
   -7.5461    2.0314   -0.0866 C   0  0  0  0  0  0  0  0  0  0  0  0
   -7.3428    0.6793    0.5659 C   0  0  0  0  0  0  0  0  0  0  0  0
   -8.0276   -0.3244   -0.3689 C   0  0  0  0  0  0  0  0  0  0  0  0
   -5.9054    0.3986    0.4721 N   0  0  0  0  0  0  0  0  0  0  0  0
   -5.5589   -0.8521    1.0460 C   0  0  0  0  0  0  0  0  0  0  0  0
   -4.0659   -1.0684    0.9345 C   0  0  0  0  0  0  0  0  0  0  0  0
   -3.4554   -0.0409    1.5965 O   0  0  0  0  0  0  0  0  0  0  0  0
   -3.6852   -1.2648   -0.5045 C   0  0  0  0  0  0  0  0  0  0  0  0
   -2.3894   -1.5460   -0.7951 O   0  0  0  0  0  0  0  0  0  0  0  0
   -1.1854   -0.9942   -0.6792 C   0  0  0  0  0  0  0  0  0  0  0  0
   -0.6475    0.1767   -0.2006 C   0  0  0  0  0  0  0  0  0  0  0  0
    0.6822    0.5257   -0.1901 C   0  0  0  0  0  0  0  0  0  0  0  0
    1.5414   -0.4124   -0.7200 C   0  0  0  0  0  0  0  0  0  0  0  0
    3.0067   -0.0589   -0.7206 C   0  0  0  0  0  0  0  0  0  0  0  0
    3.6194   -0.4847    0.4381 O   0  0  0  0  0  0  0  0  0  0  0  0
    4.9567   -0.2091    0.5394 C   0  0  0  0  0  0  0  0  0  0  0  0
    5.8335   -0.8006   -0.5123 C   0  0  0  0  0  0  0  0  0  0  0  0
    7.1365   -0.4403   -0.2765 O   0  0  0  0  0  0  0  0  0  0  0  0
    7.4268    0.8922   -0.2946 C   0  0  0  0  0  0  0  0  0  0  0  0
    7.9630    1.2226    1.1057 C   0  0  0  0  0  0  0  0  0  0  0  0
    8.5889    1.1586   -1.2410 C   0  0  0  0  0  0  0  0  0  0  0  0
    1.1271   -1.6246   -1.2323 C   0  0  0  0  0  0  0  0  0  0  0  0
   -0.2497   -1.9036   -1.2049 C   0  0  0  0  0  0  0  0  0  0  0  0
   -8.6272    2.3078   -0.1379 H   0  0  0  0  0  0  0  0  0  0  0  0
   -6.9124    2.8177    0.3325 H   0  0  0  0  0  0  0  0  0  0  0  0
   -7.1992    1.9085   -1.1516 H   0  0  0  0  0  0  0  0  0  0  0  0
   -7.7196    0.6249    1.5943 H   0  0  0  0  0  0  0  0  0  0  0  0
   -7.9923   -1.3520    0.0046 H   0  0  0  0  0  0  0  0  0  0  0  0
   -9.0372    0.0176   -0.6465 H   0  0  0  0  0  0  0  0  0  0  0  0
   -7.4209   -0.2722   -1.3200 H   0  0  0  0  0  0  0  0  0  0  0  0
   -5.6605    0.5720   -0.5033 H   0  0  0  0  0  0  0  0  0  0  0  0
   -6.0819   -1.7260    0.6149 H   0  0  0  0  0  0  0  0  0  0  0  0
   -5.8131   -0.7995    2.1311 H   0  0  0  0  0  0  0  0  0  0  0  0
   -3.8004   -2.0434    1.4735 H   0  0  0  0  0  0  0  0  0  0  0  0
   -4.0377    0.7610    1.6103 H   0  0  0  0  0  0  0  0  0  0  0  0
   -4.2923   -2.1722   -0.8296 H   0  0  0  0  0  0  0  0  0  0  0  0
   -4.0281   -0.3912   -1.1134 H   0  0  0  0  0  0  0  0  0  0  0  0
   -1.3833    0.8391    0.1766 H   0  0  0  0  0  0  0  0  0  0  0  0
    0.9384    1.4832    0.2224 H   0  0  0  0  0  0  0  0  0  0  0  0
    3.1432    1.0589   -0.7420 H   0  0  0  0  0  0  0  0  0  0  0  0
    3.4866   -0.4106   -1.6556 H   0  0  0  0  0  0  0  0  0  0  0  0
    5.0454    0.9044    0.6174 H   0  0  0  0  0  0  0  0  0  0  0  0
    5.2714   -0.6201    1.5463 H   0  0  0  0  0  0  0  0  0  0  0  0
    5.4942   -0.6181   -1.5400 H   0  0  0  0  0  0  0  0  0  0  0  0
    5.7787   -1.9179   -0.3901 H   0  0  0  0  0  0  0  0  0  0  0  0
    6.5789    1.5367   -0.5097 H   0  0  0  0  0  0  0  0  0  0  0  0
    8.5796    0.3631    1.4461 H   0  0  0  0  0  0  0  0  0  0  0  0
    7.1546    1.4499    1.8100 H   0  0  0  0  0  0  0  0  0  0  0  0
    8.6348    2.1053    1.0165 H   0  0  0  0  0  0  0  0  0  0  0  0
    8.9321    2.1940   -1.0563 H   0  0  0  0  0  0  0  0  0  0  0  0
    8.2358    1.0125   -2.2770 H   0  0  0  0  0  0  0  0  0  0  0  0
    9.4075    0.4735   -0.9573 H   0  0  0  0  0  0  0  0  0  0  0  0
    1.9049   -2.2639   -1.6156 H   0  0  0  0  0  0  0  0  0  0  0  0
   -0.4030   -2.9028   -1.6486 H   0  0  0  0  0  0  0  0  0  0  0  0
  1  2  1  0
  2  3  1  0
  2  4  1  0
  4  5  1  0
  5  6  1  0
  6  7  1  0
  6  8  1  0
  8  9  1  0
  9 10  1  0
 10 11  2  0
 11 12  1  0
 12 13  2  0
 13 14  1  0
 14 15  1  0
 15 16  1  0
 16 17  1  0
 17 18  1  0
 18 19  1  0
 19 20  1  0
 19 21  1  0
 13 22  1  0
 22 23  2  0
 23 10  1  0
  1 24  1  0
  1 25  1  0
  1 26  1  0
  2 27  1  0
  3 28  1  0
  3 29  1  0
  3 30  1  0
  4 31  1  0
  5 32  1  0
  5 33  1  0
  6 34  1  0
  7 35  1  0
  8 36  1  0
  8 37  1  0
 11 38  1  0
 12 39  1  0
 14 40  1  0
 14 41  1  0
 16 42  1  0
 16 43  1  0
 17 44  1  0
 17 45  1  0
 19 46  1  0
 20 47  1  0
 20 48  1  0
 20 49  1  0
 21 50  1  0
 21 51  1  0
 21 52  1  0
 22 53  1  0
 23 54  1  0
M  END
$$$$
