
     RDKit          3D

 34 37  0  0  0  0  0  0  0  0999 V2000
   -3.3238    2.3010   -1.7966 C   0  0  0  0  0  0  0  0  0  0  0  0
   -3.5627    1.1441   -0.9279 C   0  0  0  0  0  0  0  0  0  0  0  0
   -4.8389    0.6933   -0.6464 N   0  0  0  0  0  0  0  0  0  0  0  0
   -4.7714   -0.3542    0.1159 N   0  0  0  0  0  0  0  0  0  0  0  0
   -3.4812   -0.6195    0.3560 C   0  0  0  0  0  0  0  0  0  0  0  0
   -2.7459    0.3049   -0.2887 N   0  0  0  0  0  0  0  0  0  0  0  0
   -1.3083    0.2148   -0.2455 C   0  0  0  0  0  0  0  0  0  0  0  0
   -0.5437    1.1735   -0.8332 C   0  0  0  0  0  0  0  0  0  0  0  0
   -0.9914    2.2256   -1.4843 F   0  0  0  0  0  0  0  0  0  0  0  0
    0.8538    1.0635   -0.7126 C   0  0  0  0  0  0  0  0  0  0  0  0
    1.4629    0.0549   -0.0419 C   0  0  0  0  0  0  0  0  0  0  0  0
    2.9294   -0.0170    0.0588 C   0  0  0  0  0  0  0  0  0  0  0  0
    3.7244    0.4503   -0.9527 C   0  0  0  0  0  0  0  0  0  0  0  0
    5.0585    0.3930   -0.8707 N   0  0  0  0  0  0  0  0  0  0  0  0
    5.6547   -0.1248    0.2065 C   0  0  0  0  0  0  0  0  0  0  0  0
    4.8916   -0.6027    1.2395 C   0  0  0  0  0  0  0  0  0  0  0  0
    5.5389   -1.1208    2.3159 F   0  0  0  0  0  0  0  0  0  0  0  0
    3.5148   -0.5524    1.1736 C   0  0  0  0  0  0  0  0  0  0  0  0
    0.6701   -0.8934    0.5392 C   0  0  0  0  0  0  0  0  0  0  0  0
   -0.7189   -0.8432    0.4556 C   0  0  0  0  0  0  0  0  0  0  0  0
   -1.4821   -1.9402    1.0861 C   0  0  0  0  0  0  0  0  0  0  0  0
   -2.9219   -1.6770    1.1881 C   0  0  0  0  0  0  0  0  0  0  0  0
   -2.8306    2.1023   -2.7567 H   0  0  0  0  0  0  0  0  0  0  0  0
   -4.3629    2.6402   -2.2158 H   0  0  0  0  0  0  0  0  0  0  0  0
   -3.0710    3.1867   -1.2158 H   0  0  0  0  0  0  0  0  0  0  0  0
    1.4491    1.8298   -1.1842 H   0  0  0  0  0  0  0  0  0  0  0  0
    3.3204    0.8885   -1.8672 H   0  0  0  0  0  0  0  0  0  0  0  0
    6.7493   -0.1674    0.2643 H   0  0  0  0  0  0  0  0  0  0  0  0
    2.9600   -0.9422    2.0140 H   0  0  0  0  0  0  0  0  0  0  0  0
    1.1321   -1.7139    1.0844 H   0  0  0  0  0  0  0  0  0  0  0  0
   -1.2354   -2.9305    0.6162 H   0  0  0  0  0  0  0  0  0  0  0  0
   -1.0536   -2.0469    2.1324 H   0  0  0  0  0  0  0  0  0  0  0  0
   -3.1666   -1.5019    2.2775 H   0  0  0  0  0  0  0  0  0  0  0  0
   -3.4999   -2.6182    0.9164 H   0  0  0  0  0  0  0  0  0  0  0  0
  1  2  1  0
  2  3  2  0
  3  4  1  0
  4  5  2  0
  5  6  1  0
  6  7  1  0
  7  8  2  0
  8  9  1  0
  8 10  1  0
 10 11  2  0
 11 12  1  0
 12 13  2  0
 13 14  1  0
 14 15  2  0
 15 16  1  0
 16 17  1  0
 16 18  2  0
 11 19  1  0
 19 20  2  0
 20 21  1  0
 21 22  1  0
  6  2  1  0
 20  7  1  0
 22  5  1  0
 18 12  1  0
  1 23  1  0
  1 24  1  0
  1 25  1  0
 10 26  1  0
 13 27  1  0
 15 28  1  0
 18 29  1  0
 19 30  1  0
 21 31  1  0
 21 32  1  0
 22 33  1  0
 22 34  1  0
M  END
$$$$
