
     RDKit          3D

 64 66  0  0  0  0  0  0  0  0999 V2000
   -7.5573   -1.4811   -1.7214 C   0  0  0  0  0  0  0  0  0  0  0  0
   -6.3770   -1.8703   -1.0091 O   0  0  0  0  0  0  0  0  0  0  0  0
   -5.2120   -1.1165   -1.0597 C   0  0  0  0  0  0  0  0  0  0  0  0
   -5.4483   -0.1306   -1.8037 O   0  0  0  0  0  0  0  0  0  0  0  0
   -4.0045   -1.5031   -0.3384 C   0  0  0  0  0  0  0  0  0  0  0  0
   -3.9505   -2.5929    0.4052 C   0  0  0  0  0  0  0  0  0  0  0  0
   -5.1137   -3.4933    0.5546 C   0  0  0  0  0  0  0  0  0  0  0  0
   -2.7260   -2.8825    1.0674 N   0  0  0  0  0  0  0  0  0  0  0  0
   -1.5383   -2.1124    1.0128 C   0  0  0  0  0  0  0  0  0  0  0  0
   -0.2943   -2.4583    1.7215 C   0  0  0  0  0  0  0  0  0  0  0  0
   -1.6645   -1.0383    0.2521 C   0  0  0  0  0  0  0  0  0  0  0  0
   -2.8649   -0.5973   -0.5007 C   0  0  0  0  0  0  0  0  0  0  0  0
   -3.2212    0.8039   -0.2457 C   0  0  0  0  0  0  0  0  0  0  0  0
   -3.6571    1.2814    0.9710 C   0  0  0  0  0  0  0  0  0  0  0  0
   -3.9875    2.5894    1.2016 C   0  0  0  0  0  0  0  0  0  0  0  0
   -3.8865    3.5020    0.1712 C   0  0  0  0  0  0  0  0  0  0  0  0
   -3.4559    3.1205   -1.0967 C   0  0  0  0  0  0  0  0  0  0  0  0
   -3.1457    1.7882   -1.2368 C   0  0  0  0  0  0  0  0  0  0  0  0
   -4.4375    3.0764    2.4626 N   0  0  0  0  0  4  0  0  0  0  0  0
   -4.7417    4.4110    2.5825 O   0  0  0  0  0  1  0  0  0  0  0  0
   -4.5632    2.3231    3.4615 O   0  0  0  0  0  0  0  0  0  0  0  0
   -0.5381   -0.1320    0.0795 C   0  0  0  0  0  0  0  0  0  0  0  0
   -0.1492    0.9111   -0.4641 O   0  0  0  0  0  0  0  0  0  0  0  0
    0.6763    0.0077    0.4481 O   0  0  0  0  0  0  0  0  0  0  0  0
    1.9265    0.1620    0.8205 C   0  0  0  0  0  0  0  0  0  0  0  0
    2.8307    0.1699   -0.4190 C   0  0  0  0  0  0  0  0  0  0  0  0
    4.2062    0.3311   -0.1496 N   0  0  0  0  0  0  0  0  0  0  0  0
    4.8940   -0.7237    0.5023 C   0  0  0  0  0  0  0  0  0  0  0  0
    4.9585    1.1168   -1.0705 C   0  0  0  0  0  0  0  0  0  0  0  0
    6.3696    1.2072   -0.6906 C   0  0  0  0  0  0  0  0  0  0  0  0
    7.2526    0.2635   -1.1747 C   0  0  0  0  0  0  0  0  0  0  0  0
    8.6050    0.2640   -0.8726 C   0  0  0  0  0  0  0  0  0  0  0  0
    9.1255    1.2601   -0.0372 C   0  0  0  0  0  0  0  0  0  0  0  0
    8.2211    2.1974    0.4382 C   0  0  0  0  0  0  0  0  0  0  0  0
    6.8768    2.1955    0.1366 C   0  0  0  0  0  0  0  0  0  0  0  0
   -7.2880   -0.9462   -2.6595 H   0  0  0  0  0  0  0  0  0  0  0  0
   -8.2209   -0.8867   -1.0536 H   0  0  0  0  0  0  0  0  0  0  0  0
   -8.0623   -2.4270   -2.0238 H   0  0  0  0  0  0  0  0  0  0  0  0
   -5.9753   -2.9805    1.0091 H   0  0  0  0  0  0  0  0  0  0  0  0
   -5.3898   -3.9479   -0.4366 H   0  0  0  0  0  0  0  0  0  0  0  0
   -4.8644   -4.3379    1.2124 H   0  0  0  0  0  0  0  0  0  0  0  0
   -2.7088   -3.7636    1.6583 H   0  0  0  0  0  0  0  0  0  0  0  0
    0.0423   -1.6385    2.3771 H   0  0  0  0  0  0  0  0  0  0  0  0
    0.4662   -2.7797    0.9989 H   0  0  0  0  0  0  0  0  0  0  0  0
   -0.5228   -3.3176    2.4046 H   0  0  0  0  0  0  0  0  0  0  0  0
   -2.5613   -0.6679   -1.5860 H   0  0  0  0  0  0  0  0  0  0  0  0
   -3.7503    0.5941    1.8030 H   0  0  0  0  0  0  0  0  0  0  0  0
   -4.1309    4.5656    0.2715 H   0  0  0  0  0  0  0  0  0  0  0  0
   -3.3522    3.7779   -1.9482 H   0  0  0  0  0  0  0  0  0  0  0  0
   -2.8024    1.4527   -2.2220 H   0  0  0  0  0  0  0  0  0  0  0  0
    2.3738   -0.6807    1.4490 H   0  0  0  0  0  0  0  0  0  0  0  0
    2.1981    1.1045    1.3706 H   0  0  0  0  0  0  0  0  0  0  0  0
    2.6828   -0.8041   -0.9319 H   0  0  0  0  0  0  0  0  0  0  0  0
    2.4844    1.0187   -1.0275 H   0  0  0  0  0  0  0  0  0  0  0  0
    5.3272   -1.3702   -0.3188 H   0  0  0  0  0  0  0  0  0  0  0  0
    5.7019   -0.3960    1.1818 H   0  0  0  0  0  0  0  0  0  0  0  0
    4.2090   -1.3760    1.0386 H   0  0  0  0  0  0  0  0  0  0  0  0
    4.8367    0.6318   -2.0795 H   0  0  0  0  0  0  0  0  0  0  0  0
    4.5169    2.1304   -1.1285 H   0  0  0  0  0  0  0  0  0  0  0  0
    7.0025   -0.5552   -1.8221 H   0  0  0  0  0  0  0  0  0  0  0  0
    9.3275   -0.4477   -1.2258 H   0  0  0  0  0  0  0  0  0  0  0  0
   10.1786    1.2779    0.2114 H   0  0  0  0  0  0  0  0  0  0  0  0
    8.6537    2.9682    1.0933 H   0  0  0  0  0  0  0  0  0  0  0  0
    6.2195    2.9516    0.5360 H   0  0  0  0  0  0  0  0  0  0  0  0
  1  2  1  0
  2  3  1  0
  3  4  2  0
  3  5  1  0
  5  6  2  0
  6  7  1  0
  6  8  1  0
  8  9  1  0
  9 10  1  0
  9 11  2  0
 11 12  1  0
 12 13  1  0
 13 14  2  0
 14 15  1  0
 15 16  2  0
 16 17  1  0
 17 18  2  0
 15 19  1  0
 19 20  1  0
 19 21  2  0
 11 22  1  0
 22 23  2  0
 22 24  1  0
 24 25  1  0
 25 26  1  0
 26 27  1  0
 27 28  1  0
 27 29  1  0
 29 30  1  0
 30 31  2  0
 31 32  1  0
 32 33  2  0
 33 34  1  0
 34 35  2  0
 12  5  1  0
 18 13  1  0
 35 30  1  0
  1 36  1  0
  1 37  1  0
  1 38  1  0
  7 39  1  0
  7 40  1  0
  7 41  1  0
  8 42  1  0
 10 43  1  0
 10 44  1  0
 10 45  1  0
 12 46  1  0
 14 47  1  0
 16 48  1  0
 17 49  1  0
 18 50  1  0
 25 51  1  0
 25 52  1  0
 26 53  1  0
 26 54  1  0
 28 55  1  0
 28 56  1  0
 28 57  1  0
 29 58  1  0
 29 59  1  0
 31 60  1  0
 32 61  1  0
 33 62  1  0
 34 63  1  0
 35 64  1  0
M  CHG  2  19   1  20  -1
M  END
$$$$
