
     RDKit          3D

 56 58  0  0  0  0  0  0  0  0999 V2000
    6.7082    1.1893   -1.0230 C   0  0  0  0  0  0  0  0  0  0  0  0
    5.7716    0.0604   -1.3055 C   0  0  0  0  0  0  0  0  0  0  0  0
    4.9620   -0.1681   -0.0912 N   0  0  0  0  0  0  0  0  0  0  0  0
    4.0628   -1.2627   -0.3421 C   0  0  0  0  0  0  0  0  0  0  0  0
    4.9594   -2.5141   -0.4761 C   0  0  0  0  0  0  0  0  0  0  0  0
    4.3777    1.0465    0.3464 C   0  0  0  0  0  0  0  0  0  0  0  0
    3.5954    1.0679    1.5911 C   0  0  0  0  0  0  0  0  0  0  0  0
    2.3989    0.2913    1.6743 N   0  0  0  0  0  0  0  0  0  0  0  0
    1.2718    0.5100    0.8285 C   0  0  0  0  0  0  0  0  0  0  0  0
    1.4465    1.4710   -0.0018 O   0  0  0  0  0  0  0  0  0  0  0  0
    0.0352   -0.2354    0.8567 C   0  0  0  0  0  0  0  0  0  0  0  0
   -0.3479   -1.3674    1.5227 C   0  0  0  0  0  0  0  0  0  0  0  0
    0.5153   -2.1968    2.4309 C   0  0  0  0  0  0  0  0  0  0  0  0
   -1.6485   -1.6299    1.2122 N   0  0  0  0  0  0  0  0  0  0  0  0
   -2.1362   -0.7078    0.3625 C   0  0  0  0  0  0  0  0  0  0  0  0
   -3.4963   -0.7335   -0.2094 C   0  0  0  0  0  0  0  0  0  0  0  0
   -4.3691    0.2013    0.0126 C   0  0  0  0  0  0  0  0  0  0  0  0
   -4.2159    1.3992    0.8261 C   0  0  0  0  0  0  0  0  0  0  0  0
   -3.2105    1.7477    1.4931 O   0  0  0  0  0  0  0  0  0  0  0  0
   -5.4604    2.0949    0.7060 N   0  0  0  0  0  0  0  0  0  0  0  0
   -6.3358    1.3535   -0.1427 C   0  0  0  0  0  0  0  0  0  0  0  0
   -7.6452    1.5828   -0.5787 C   0  0  0  0  0  0  0  0  0  0  0  0
   -8.2768    0.6886   -1.4131 C   0  0  0  0  0  0  0  0  0  0  0  0
   -7.6510   -0.4639   -1.8519 C   0  0  0  0  0  0  0  0  0  0  0  0
   -8.2971   -1.3408   -2.6832 F   0  0  0  0  0  0  0  0  0  0  0  0
   -6.3644   -0.6901   -1.4237 C   0  0  0  0  0  0  0  0  0  0  0  0
   -5.7285    0.2018   -0.5891 C   0  0  0  0  0  0  0  0  0  0  0  0
   -1.0992    0.1598    0.1352 C   0  0  0  0  0  0  0  0  0  0  0  0
   -1.1563    1.3354   -0.7859 C   0  0  0  0  0  0  0  0  0  0  0  0
    7.6214    1.1523   -1.6658 H   0  0  0  0  0  0  0  0  0  0  0  0
    7.0673    1.0752    0.0226 H   0  0  0  0  0  0  0  0  0  0  0  0
    6.2414    2.1894   -1.2193 H   0  0  0  0  0  0  0  0  0  0  0  0
    5.1600    0.2697   -2.1840 H   0  0  0  0  0  0  0  0  0  0  0  0
    6.3549   -0.8677   -1.4826 H   0  0  0  0  0  0  0  0  0  0  0  0
    3.5151   -1.1033   -1.3137 H   0  0  0  0  0  0  0  0  0  0  0  0
    3.3443   -1.4101    0.4716 H   0  0  0  0  0  0  0  0  0  0  0  0
    5.2685   -2.6519   -1.5387 H   0  0  0  0  0  0  0  0  0  0  0  0
    4.3298   -3.3804   -0.1235 H   0  0  0  0  0  0  0  0  0  0  0  0
    5.8484   -2.4443    0.1557 H   0  0  0  0  0  0  0  0  0  0  0  0
    3.8065    1.4949   -0.5156 H   0  0  0  0  0  0  0  0  0  0  0  0
    5.2223    1.7883    0.4859 H   0  0  0  0  0  0  0  0  0  0  0  0
    4.2642    0.7882    2.4477 H   0  0  0  0  0  0  0  0  0  0  0  0
    3.3648    2.1684    1.8008 H   0  0  0  0  0  0  0  0  0  0  0  0
    2.3259   -0.4643    2.3843 H   0  0  0  0  0  0  0  0  0  0  0  0
    0.6713   -1.7280    3.3982 H   0  0  0  0  0  0  0  0  0  0  0  0
    1.4100   -2.5277    1.8782 H   0  0  0  0  0  0  0  0  0  0  0  0
   -0.0574   -3.1693    2.5911 H   0  0  0  0  0  0  0  0  0  0  0  0
   -2.1764   -2.4435    1.5958 H   0  0  0  0  0  0  0  0  0  0  0  0
   -3.7631   -1.5926   -0.8500 H   0  0  0  0  0  0  0  0  0  0  0  0
   -5.6665    3.0007    1.1774 H   0  0  0  0  0  0  0  0  0  0  0  0
   -8.1241    2.4927   -0.2221 H   0  0  0  0  0  0  0  0  0  0  0  0
   -9.2939    0.8579   -1.7570 H   0  0  0  0  0  0  0  0  0  0  0  0
   -5.8641   -1.5777   -1.7538 H   0  0  0  0  0  0  0  0  0  0  0  0
   -0.3325    1.3737   -1.5046 H   0  0  0  0  0  0  0  0  0  0  0  0
   -2.1120    1.3338   -1.3493 H   0  0  0  0  0  0  0  0  0  0  0  0
   -1.0920    2.2846   -0.1763 H   0  0  0  0  0  0  0  0  0  0  0  0
  1  2  1  0
  2  3  1  0
  3  4  1  0
  4  5  1  0
  3  6  1  0
  6  7  1  0
  7  8  1  0
  8  9  1  0
  9 10  2  0
  9 11  1  0
 11 12  2  0
 12 13  1  0
 12 14  1  0
 14 15  1  0
 15 16  1  0
 16 17  2  0
 17 18  1  0
 18 19  2  0
 18 20  1  0
 20 21  1  0
 21 22  2  0
 22 23  1  0
 23 24  2  0
 24 25  1  0
 24 26  1  0
 26 27  2  0
 15 28  2  0
 28 29  1  0
 28 11  1  0
 27 17  1  0
 27 21  1  0
  1 30  1  0
  1 31  1  0
  1 32  1  0
  2 33  1  0
  2 34  1  0
  4 35  1  0
  4 36  1  0
  5 37  1  0
  5 38  1  0
  5 39  1  0
  6 40  1  0
  6 41  1  0
  7 42  1  0
  7 43  1  0
  8 44  1  0
 13 45  1  0
 13 46  1  0
 13 47  1  0
 14 48  1  0
 16 49  1  0
 20 50  1  0
 22 51  1  0
 23 52  1  0
 26 53  1  0
 29 54  1  0
 29 55  1  0
 29 56  1  0
M  END
$$$$
