
     RDKit          3D

 56 59  0  0  0  0  0  0  0  0999 V2000
   -0.6452   -0.0825    0.6760 C   0  0  2  0  0  0  0  0  0  0  0  0
   -1.6654   -0.6708    1.5679 C   0  0  0  0  0  0  0  0  0  0  0  0
   -2.9673   -0.2507    0.9009 C   0  0  1  0  0  0  0  0  0  0  0  0
   -3.7706    0.6453    1.8268 C   0  0  0  0  0  0  0  0  0  0  0  0
   -2.5663    0.4718   -0.3513 C   0  0  2  0  0  0  0  0  0  0  0  0
   -3.5441    0.4885   -1.4393 C   0  0  0  0  0  0  0  0  0  0  0  0
   -3.2206   -0.0112   -2.5178 O   0  0  0  0  0  0  0  0  0  0  0  0
   -4.8725    1.1133   -1.1649 C   0  0  0  0  0  0  0  0  0  0  0  0
   -5.6881    1.0561   -2.2913 O   0  0  0  0  0  0  0  0  0  0  0  0
   -1.2861   -0.2602   -0.6874 C   0  0  2  0  0  0  0  0  0  0  0  0
   -1.5233   -1.7210   -0.9740 C   0  0  0  0  0  0  0  0  0  0  0  0
   -0.5071    0.3985   -1.7837 C   0  0  0  0  0  0  0  0  0  0  0  0
    0.9686    0.3890   -1.6094 C   0  0  2  0  0  0  0  0  0  0  0  0
    1.4793   -0.6193   -2.4296 O   0  0  0  0  0  0  0  0  0  0  0  0
    1.4958    0.2075   -0.2456 C   0  0  1  0  0  0  0  0  0  0  0  0
    1.4294    1.4379    0.4339 F   0  0  0  0  0  0  0  0  0  0  0  0
    0.6908   -0.7307    0.6307 C   0  0  1  0  0  0  0  0  0  0  0  0
    1.2228   -0.8437    2.0107 C   0  0  0  0  0  0  0  0  0  0  0  0
    2.6934   -0.7193    2.1804 C   0  0  0  0  0  0  0  0  0  0  0  0
    3.3938    0.1152    1.2043 C   0  0  0  0  0  0  0  0  0  0  0  0
    4.2966    0.9929    1.6100 C   0  0  0  0  0  0  0  0  0  0  0  0
    4.9300    1.7687    0.5510 C   0  0  0  0  0  0  0  0  0  0  0  0
    5.7966    2.6189    0.8762 O   0  0  0  0  0  0  0  0  0  0  0  0
    4.6119    1.6110   -0.8634 C   0  0  0  0  0  0  0  0  0  0  0  0
    3.6927    0.7023   -1.1498 C   0  0  0  0  0  0  0  0  0  0  0  0
    2.9479   -0.1751   -0.1991 C   0  0  2  0  0  0  0  0  0  0  0  0
    3.2278   -1.6252   -0.4338 C   0  0  0  0  0  0  0  0  0  0  0  0
   -0.5474    0.9966    0.8759 H   0  0  0  0  0  0  0  0  0  0  0  0
   -1.6003   -0.1385    2.5558 H   0  0  0  0  0  0  0  0  0  0  0  0
   -1.6072   -1.7324    1.7887 H   0  0  0  0  0  0  0  0  0  0  0  0
   -3.5699   -1.1327    0.6007 H   0  0  0  0  0  0  0  0  0  0  0  0
   -3.2160    0.7151    2.7970 H   0  0  0  0  0  0  0  0  0  0  0  0
   -4.7525    0.1853    1.9955 H   0  0  0  0  0  0  0  0  0  0  0  0
   -3.8787    1.6328    1.3506 H   0  0  0  0  0  0  0  0  0  0  0  0
   -2.2469    1.4981   -0.0156 H   0  0  0  0  0  0  0  0  0  0  0  0
   -5.3640    0.6750   -0.2712 H   0  0  0  0  0  0  0  0  0  0  0  0
   -4.6849    2.1824   -0.9382 H   0  0  0  0  0  0  0  0  0  0  0  0
   -6.6125    0.9822   -1.9677 H   0  0  0  0  0  0  0  0  0  0  0  0
   -0.9278   -1.9825   -1.8727 H   0  0  0  0  0  0  0  0  0  0  0  0
   -1.2717   -2.4087   -0.1720 H   0  0  0  0  0  0  0  0  0  0  0  0
   -2.5731   -1.9379   -1.2547 H   0  0  0  0  0  0  0  0  0  0  0  0
   -0.8075   -0.0998   -2.7337 H   0  0  0  0  0  0  0  0  0  0  0  0
   -0.9006    1.4382   -1.8699 H   0  0  0  0  0  0  0  0  0  0  0  0
    1.3777    1.3322   -2.0335 H   0  0  0  0  0  0  0  0  0  0  0  0
    1.1897   -0.5540   -3.3658 H   0  0  0  0  0  0  0  0  0  0  0  0
    0.6242   -1.7470    0.1857 H   0  0  0  0  0  0  0  0  0  0  0  0
    0.8741   -1.8132    2.4740 H   0  0  0  0  0  0  0  0  0  0  0  0
    0.7581   -0.0561    2.6740 H   0  0  0  0  0  0  0  0  0  0  0  0
    2.9771   -0.4095    3.2305 H   0  0  0  0  0  0  0  0  0  0  0  0
    3.1422   -1.7548    2.1138 H   0  0  0  0  0  0  0  0  0  0  0  0
    4.5024    1.0787    2.6616 H   0  0  0  0  0  0  0  0  0  0  0  0
    5.0819    2.1848   -1.6318 H   0  0  0  0  0  0  0  0  0  0  0  0
    3.4619    0.5909   -2.2039 H   0  0  0  0  0  0  0  0  0  0  0  0
    2.5864   -2.2498    0.2182 H   0  0  0  0  0  0  0  0  0  0  0  0
    3.0864   -1.9852   -1.4542 H   0  0  0  0  0  0  0  0  0  0  0  0
    4.2781   -1.7969   -0.0655 H   0  0  0  0  0  0  0  0  0  0  0  0
  1  2  1  0
  2  3  1  0
  3  4  1  0
  3  5  1  0
  5  6  1  0
  6  7  2  0
  6  8  1  0
  8  9  1  0
  5 10  1  0
 10 11  1  6
 10 12  1  0
 12 13  1  0
 13 14  1  0
 13 15  1  0
 15 16  1  1
 15 17  1  0
 17 18  1  0
 18 19  1  0
 19 20  1  0
 20 21  2  0
 21 22  1  0
 22 23  2  0
 22 24  1  0
 24 25  2  0
 25 26  1  0
 26 27  1  6
 10  1  1  0
 26 15  1  0
 17  1  1  0
 26 20  1  0
  1 28  1  1
  2 29  1  0
  2 30  1  0
  3 31  1  6
  4 32  1  0
  4 33  1  0
  4 34  1  0
  5 35  1  1
  8 36  1  0
  8 37  1  0
  9 38  1  0
 11 39  1  0
 11 40  1  0
 11 41  1  0
 12 42  1  0
 12 43  1  0
 13 44  1  6
 14 45  1  0
 17 46  1  6
 18 47  1  0
 18 48  1  0
 19 49  1  0
 19 50  1  0
 21 51  1  0
 24 52  1  0
 25 53  1  0
 27 54  1  0
 27 55  1  0
 27 56  1  0
M  END
$$$$
