
     RDKit          3D

 40 39  0  0  0  0  0  0  0  0999 V2000
   -5.4533    1.0359   -0.4262 N   0  0  0  0  0  0  0  0  0  0  0  0
   -5.5499   -0.4011   -0.2235 C   0  0  0  0  0  0  0  0  0  0  0  0
   -4.5765   -1.1969   -1.0212 C   0  0  0  0  0  0  0  0  0  0  0  0
   -3.1320   -0.9281   -0.7720 C   0  0  0  0  0  0  0  0  0  0  0  0
   -2.7085    0.4138   -0.9864 N   0  0  0  0  0  0  0  0  0  0  0  0
   -1.2808    0.5058   -0.8292 C   0  0  0  0  0  0  0  0  0  0  0  0
   -0.7585    0.2555    0.5489 C   0  0  0  0  0  0  0  0  0  0  0  0
    0.7800    0.4681    0.4300 C   0  0  0  0  0  0  0  0  0  0  0  0
    1.3859    0.1976    1.7692 C   0  0  0  0  0  0  0  0  0  0  0  0
    2.7387    0.4846    1.8853 N   0  0  0  0  0  0  0  0  0  0  0  0
    3.7304   -0.1776    1.1673 C   0  0  0  0  0  0  0  0  0  0  0  0
    3.9380    0.1937   -0.2774 C   0  0  0  0  0  0  0  0  0  0  0  0
    5.0283   -0.6349   -0.9352 C   0  0  0  0  0  0  0  0  0  0  0  0
    6.3106   -0.5076   -0.3137 N   0  0  0  0  0  0  0  0  0  0  0  0
   -5.7341    1.2603   -1.4245 H   0  0  0  0  0  0  0  0  0  0  0  0
   -6.2533    1.4427    0.1512 H   0  0  0  0  0  0  0  0  0  0  0  0
   -5.6069   -0.6653    0.8541 H   0  0  0  0  0  0  0  0  0  0  0  0
   -6.5704   -0.6908   -0.6225 H   0  0  0  0  0  0  0  0  0  0  0  0
   -4.8332   -1.1528   -2.0997 H   0  0  0  0  0  0  0  0  0  0  0  0
   -4.7582   -2.2812   -0.7206 H   0  0  0  0  0  0  0  0  0  0  0  0
   -2.8831   -1.1796    0.2987 H   0  0  0  0  0  0  0  0  0  0  0  0
   -2.5441   -1.6058   -1.4536 H   0  0  0  0  0  0  0  0  0  0  0  0
   -3.1068    1.0149   -0.2043 H   0  0  0  0  0  0  0  0  0  0  0  0
   -0.7853   -0.1939   -1.5588 H   0  0  0  0  0  0  0  0  0  0  0  0
   -0.9350    1.5300   -1.1202 H   0  0  0  0  0  0  0  0  0  0  0  0
   -0.8748   -0.7819    0.9153 H   0  0  0  0  0  0  0  0  0  0  0  0
   -1.2037    0.9257    1.2808 H   0  0  0  0  0  0  0  0  0  0  0  0
    1.0482    1.4098    0.0095 H   0  0  0  0  0  0  0  0  0  0  0  0
    1.1329   -0.3916   -0.2294 H   0  0  0  0  0  0  0  0  0  0  0  0
    1.1773   -0.8924    2.0530 H   0  0  0  0  0  0  0  0  0  0  0  0
    0.7668    0.8336    2.4921 H   0  0  0  0  0  0  0  0  0  0  0  0
    2.9657    1.4537    2.1390 H   0  0  0  0  0  0  0  0  0  0  0  0
    4.7113   -0.0261    1.7315 H   0  0  0  0  0  0  0  0  0  0  0  0
    3.6260   -1.3123    1.2246 H   0  0  0  0  0  0  0  0  0  0  0  0
    3.0550    0.1528   -0.8849 H   0  0  0  0  0  0  0  0  0  0  0  0
    4.2934    1.2809   -0.3362 H   0  0  0  0  0  0  0  0  0  0  0  0
    4.7127   -1.6771   -0.9383 H   0  0  0  0  0  0  0  0  0  0  0  0
    5.0966   -0.2886   -1.9872 H   0  0  0  0  0  0  0  0  0  0  0  0
    6.4639    0.4060    0.1609 H   0  0  0  0  0  0  0  0  0  0  0  0
    6.5866   -1.3433    0.2535 H   0  0  0  0  0  0  0  0  0  0  0  0
  1  2  1  0
  2  3  1  0
  3  4  1  0
  4  5  1  0
  5  6  1  0
  6  7  1  0
  7  8  1  0
  8  9  1  0
  9 10  1  0
 10 11  1  0
 11 12  1  0
 12 13  1  0
 13 14  1  0
  1 15  1  0
  1 16  1  0
  2 17  1  0
  2 18  1  0
  3 19  1  0
  3 20  1  0
  4 21  1  0
  4 22  1  0
  5 23  1  0
  6 24  1  0
  6 25  1  0
  7 26  1  0
  7 27  1  0
  8 28  1  0
  8 29  1  0
  9 30  1  0
  9 31  1  0
 10 32  1  0
 11 33  1  0
 11 34  1  0
 12 35  1  0
 12 36  1  0
 13 37  1  0
 13 38  1  0
 14 39  1  0
 14 40  1  0
M  END
$$$$
