
     RDKit          3D

 73 78  0  0  0  0  0  0  0  0999 V2000
   -3.3724    6.8378    2.6620 C   0  0  0  0  0  0  0  0  0  0  0  0
   -2.9090    5.5404    2.4412 O   0  0  0  0  0  0  0  0  0  0  0  0
   -2.1879    5.1954    1.3082 C   0  0  0  0  0  0  0  0  0  0  0  0
   -1.7519    3.8850    1.1420 C   0  0  0  0  0  0  0  0  0  0  0  0
   -1.0345    3.5771   -0.0021 C   0  0  0  0  0  0  0  0  0  0  0  0
   -0.5646    2.2738   -0.2382 N   0  0  0  0  0  0  0  0  0  0  0  0
    0.7159    1.7773    0.2212 C   0  0  0  0  0  0  0  0  0  0  0  0
    1.2795    2.2024    1.2607 O   0  0  0  0  0  0  0  0  0  0  0  0
    1.1642    0.7819   -0.6873 N   0  0  0  0  0  0  0  0  0  0  0  0
    2.3631   -0.0035   -0.6553 C   0  0  0  0  0  0  0  0  0  0  0  0
    3.2468    0.1843    0.3762 C   0  0  0  0  0  0  0  0  0  0  0  0
    4.4236   -0.5679    0.4455 C   0  0  0  0  0  0  0  0  0  0  0  0
    4.6562   -1.4833   -0.5390 C   0  0  0  0  0  0  0  0  0  0  0  0
    5.8811   -2.3005   -0.4944 C   0  0  0  0  0  0  0  0  0  0  0  0
    6.5167   -2.7472   -1.6412 C   0  0  0  0  0  0  0  0  0  0  0  0
    7.6628   -3.5165   -1.4997 C   0  0  0  0  0  0  0  0  0  0  0  0
    8.1784   -3.8434   -0.2529 C   0  0  0  0  0  0  0  0  0  0  0  0
    9.3809   -4.6528   -0.1713 C   0  0  0  0  0  0  0  0  0  0  0  0
    9.8445   -4.9464    0.9538 O   0  0  0  0  0  0  0  0  0  0  0  0
   10.0306   -5.1101   -1.2983 O   0  0  0  0  0  0  0  0  0  0  0  0
    7.5366   -3.3930    0.8562 C   0  0  0  0  0  0  0  0  0  0  0  0
    6.3903   -2.6232    0.7306 C   0  0  0  0  0  0  0  0  0  0  0  0
    3.7929   -1.6987   -1.5887 C   0  0  0  0  0  0  0  0  0  0  0  0
    2.6286   -0.9383   -1.6357 C   0  0  0  0  0  0  0  0  0  0  0  0
    0.1291    0.7046   -1.6869 C   0  0  0  0  0  0  0  0  0  0  0  0
    0.2330    0.3695   -2.8786 O   0  0  0  0  0  0  0  0  0  0  0  0
   -1.1222    1.1308   -0.9409 C   0  0  0  0  0  0  0  0  0  0  0  0
   -2.1632    1.4642   -1.9453 C   0  0  0  0  0  0  0  0  0  0  0  0
   -3.5210    1.5126   -1.2863 C   0  0  0  0  0  0  0  0  0  0  0  0
   -3.7563    0.2649   -0.6426 N   0  0  0  0  0  0  0  0  0  0  0  0
   -4.9868   -0.3665   -0.8258 C   0  0  0  0  0  0  0  0  0  0  0  0
   -5.0640   -1.6392   -0.0723 C   0  0  0  0  0  0  0  0  0  0  0  0
   -4.8604   -2.8161   -0.7321 N   0  0  0  0  0  0  0  0  0  0  0  0
   -4.8965   -4.0066   -0.1628 C   0  0  0  0  0  0  0  0  0  0  0  0
   -5.1514   -4.1550    1.1874 C   0  0  0  0  0  0  0  0  0  0  0  0
   -5.3627   -2.9803    1.8864 C   0  0  0  0  0  0  0  0  0  0  0  0
   -5.3226   -1.7357    1.2792 C   0  0  0  0  0  0  0  0  0  0  0  0
   -5.5674   -0.4956    2.0825 C   0  0  0  0  0  0  0  0  0  0  0  0
   -2.8969   -0.0609    0.4137 C   0  0  0  0  0  0  0  0  0  0  0  0
   -1.4518   -0.0165   -0.0517 C   0  0  0  0  0  0  0  0  0  0  0  0
   -0.8254    4.5892   -0.8547 N   0  0  0  0  0  0  0  0  0  0  0  0
   -1.2400    5.8360   -0.6970 C   0  0  0  0  0  0  0  0  0  0  0  0
   -1.9372    6.1607    0.4029 N   0  0  0  0  0  0  0  0  0  0  0  0
   -4.3824    7.0135    2.1890 H   0  0  0  0  0  0  0  0  0  0  0  0
   -2.7207    7.6308    2.2800 H   0  0  0  0  0  0  0  0  0  0  0  0
   -3.5791    6.9204    3.7646 H   0  0  0  0  0  0  0  0  0  0  0  0
   -1.9673    3.1227    1.8881 H   0  0  0  0  0  0  0  0  0  0  0  0
    3.0687    0.9120    1.1646 H   0  0  0  0  0  0  0  0  0  0  0  0
    5.1103   -0.3991    1.2775 H   0  0  0  0  0  0  0  0  0  0  0  0
    6.1016   -2.4835   -2.6037 H   0  0  0  0  0  0  0  0  0  0  0  0
    8.1824   -3.8808   -2.3869 H   0  0  0  0  0  0  0  0  0  0  0  0
   10.7199   -5.8528   -1.2939 H   0  0  0  0  0  0  0  0  0  0  0  0
    7.9518   -3.6567    1.8261 H   0  0  0  0  0  0  0  0  0  0  0  0
    5.8888   -2.2712    1.6219 H   0  0  0  0  0  0  0  0  0  0  0  0
    3.9907   -2.4312   -2.3673 H   0  0  0  0  0  0  0  0  0  0  0  0
    1.9196   -1.0764   -2.4428 H   0  0  0  0  0  0  0  0  0  0  0  0
   -2.1539    0.6664   -2.7247 H   0  0  0  0  0  0  0  0  0  0  0  0
   -1.9100    2.4125   -2.4582 H   0  0  0  0  0  0  0  0  0  0  0  0
   -3.5096    2.2892   -0.4690 H   0  0  0  0  0  0  0  0  0  0  0  0
   -4.3276    1.7384   -2.0226 H   0  0  0  0  0  0  0  0  0  0  0  0
   -5.8329    0.3204   -0.5372 H   0  0  0  0  0  0  0  0  0  0  0  0
   -5.1962   -0.6355   -1.9084 H   0  0  0  0  0  0  0  0  0  0  0  0
   -4.7175   -4.8760   -0.7990 H   0  0  0  0  0  0  0  0  0  0  0  0
   -5.1753   -5.1319    1.6257 H   0  0  0  0  0  0  0  0  0  0  0  0
   -5.5677   -3.0419    2.9547 H   0  0  0  0  0  0  0  0  0  0  0  0
   -5.6842    0.3991    1.4790 H   0  0  0  0  0  0  0  0  0  0  0  0
   -6.4523   -0.7271    2.7282 H   0  0  0  0  0  0  0  0  0  0  0  0
   -4.7119   -0.3168    2.7925 H   0  0  0  0  0  0  0  0  0  0  0  0
   -3.0595   -1.1079    0.7391 H   0  0  0  0  0  0  0  0  0  0  0  0
   -3.0377    0.5889    1.3083 H   0  0  0  0  0  0  0  0  0  0  0  0
   -1.2200   -0.9607   -0.5920 H   0  0  0  0  0  0  0  0  0  0  0  0
   -0.7942    0.0104    0.8402 H   0  0  0  0  0  0  0  0  0  0  0  0
   -1.0426    6.6339   -1.4288 H   0  0  0  0  0  0  0  0  0  0  0  0
  1  2  1  0
  2  3  1  0
  3  4  2  0
  4  5  1  0
  5  6  1  0
  6  7  1  0
  7  8  2  0
  7  9  1  0
  9 10  1  0
 10 11  2  0
 11 12  1  0
 12 13  2  0
 13 14  1  0
 14 15  2  0
 15 16  1  0
 16 17  2  0
 17 18  1  0
 18 19  2  0
 18 20  1  0
 17 21  1  0
 21 22  2  0
 13 23  1  0
 23 24  2  0
  9 25  1  0
 25 26  2  0
 25 27  1  0
 27 28  1  0
 28 29  1  0
 29 30  1  0
 30 31  1  0
 31 32  1  0
 32 33  2  0
 33 34  1  0
 34 35  2  0
 35 36  1  0
 36 37  2  0
 37 38  1  0
 30 39  1  0
 39 40  1  0
  5 41  2  0
 41 42  1  0
 42 43  2  0
 43  3  1  0
 27  6  1  0
 37 32  1  0
 24 10  1  0
 40 27  1  0
 22 14  1  0
  1 44  1  0
  1 45  1  0
  1 46  1  0
  4 47  1  0
 11 48  1  0
 12 49  1  0
 15 50  1  0
 16 51  1  0
 20 52  1  0
 21 53  1  0
 22 54  1  0
 23 55  1  0
 24 56  1  0
 28 57  1  0
 28 58  1  0
 29 59  1  0
 29 60  1  0
 31 61  1  0
 31 62  1  0
 34 63  1  0
 35 64  1  0
 36 65  1  0
 38 66  1  0
 38 67  1  0
 38 68  1  0
 39 69  1  0
 39 70  1  0
 40 71  1  0
 40 72  1  0
 42 73  1  0
M  END
$$$$
