
     RDKit          3D

 53 55  0  0  0  0  0  0  0  0999 V2000
   -4.0702    0.6563    2.5430 N   0  0  0  0  0  0  0  0  0  0  0  0
   -4.2102   -0.5759    2.3692 C   0  0  0  0  0  0  0  0  0  0  0  0
   -4.3681   -1.9519    2.1998 C   0  0  2  0  0  0  0  0  0  0  0  0
   -3.7987   -2.6272    3.4552 C   0  0  0  0  0  0  0  0  0  0  0  0
   -3.8473   -4.3640    2.8877 S   0  0  0  0  0  0  0  0  0  0  0  0
   -3.7662   -3.9808    1.0915 C   0  0  0  0  0  0  0  0  0  0  0  0
   -3.7120   -2.5013    1.0799 N   0  0  0  0  0  0  0  0  0  0  0  0
   -3.0908   -1.8207    0.0227 C   0  0  0  0  0  0  0  0  0  0  0  0
   -2.6053   -2.5491   -0.9330 O   0  0  0  0  0  0  0  0  0  0  0  0
   -2.9188   -0.3729   -0.1410 C   0  0  0  0  0  0  0  0  0  0  0  0
   -2.2639   -0.0560   -1.3575 N   0  0  0  0  0  0  0  0  0  0  0  0
   -1.6418   -0.9735   -2.0881 N   0  0  0  0  0  0  0  0  0  0  0  0
   -1.9639    1.3315   -1.5367 C   0  0  0  0  0  0  0  0  0  0  0  0
   -1.4998    1.7587   -2.8642 C   0  0  0  0  0  0  0  0  0  0  0  0
   -0.0550    1.5025   -3.0784 C   0  0  0  0  0  0  0  0  0  0  0  0
    0.8344    2.1168   -2.0859 N   0  0  0  0  0  0  0  0  0  0  0  0
    1.7051    1.0762   -1.6550 C   0  0  0  0  0  0  0  0  0  0  0  0
    2.7852    1.4330   -0.7407 C   0  0  0  0  0  0  0  0  0  0  0  0
    2.9252    2.5926   -0.3203 O   0  0  0  0  0  0  0  0  0  0  0  0
    3.7377    0.4469   -0.2901 N   0  0  0  0  0  0  0  0  0  0  0  0
    4.8100    0.6986    0.5872 C   0  0  0  0  0  0  0  0  0  0  0  0
    5.7186   -0.3645    0.7705 C   0  0  0  0  0  0  0  0  0  0  0  0
    6.8063   -0.2155    1.5995 C   0  0  0  0  0  0  0  0  0  0  0  0
    7.0458    0.9611    2.2750 C   0  0  0  0  0  0  0  0  0  0  0  0
    8.4194    1.1826    3.3317 Cl  0  0  0  0  0  0  0  0  0  0  0  0
    6.1165    1.9930    2.0652 C   0  0  0  0  0  0  0  0  0  0  0  0
    5.0770    1.7996    1.2514 N   0  0  0  0  0  0  0  0  0  0  0  0
    0.0419    2.6949   -1.0547 C   0  0  0  0  0  0  0  0  0  0  0  0
   -1.0012    1.8018   -0.4566 C   0  0  0  0  0  0  0  0  0  0  0  0
   -5.4837   -2.1702    2.1823 H   0  0  0  0  0  0  0  0  0  0  0  0
   -2.7912   -2.2757    3.6893 H   0  0  0  0  0  0  0  0  0  0  0  0
   -4.5460   -2.4616    4.2549 H   0  0  0  0  0  0  0  0  0  0  0  0
   -2.7908   -4.3372    0.7680 H   0  0  0  0  0  0  0  0  0  0  0  0
   -4.6411   -4.3338    0.5427 H   0  0  0  0  0  0  0  0  0  0  0  0
   -2.2670   -0.0233    0.6843 H   0  0  0  0  0  0  0  0  0  0  0  0
   -3.8941    0.1743   -0.0309 H   0  0  0  0  0  0  0  0  0  0  0  0
   -2.0591   -1.4291   -2.8849 H   0  0  0  0  0  0  0  0  0  0  0  0
   -0.7537   -1.2939   -1.7047 H   0  0  0  0  0  0  0  0  0  0  0  0
   -2.9231    1.8868   -1.3144 H   0  0  0  0  0  0  0  0  0  0  0  0
   -2.0371    1.2553   -3.7111 H   0  0  0  0  0  0  0  0  0  0  0  0
   -1.6942    2.8518   -2.9783 H   0  0  0  0  0  0  0  0  0  0  0  0
    0.1201    0.4217   -3.1029 H   0  0  0  0  0  0  0  0  0  0  0  0
    0.2761    1.8594   -4.1047 H   0  0  0  0  0  0  0  0  0  0  0  0
    1.0321    0.2901   -1.1866 H   0  0  0  0  0  0  0  0  0  0  0  0
    2.0857    0.5763   -2.5968 H   0  0  0  0  0  0  0  0  0  0  0  0
    3.5610   -0.5155   -0.6906 H   0  0  0  0  0  0  0  0  0  0  0  0
    5.5516   -1.2965    0.2537 H   0  0  0  0  0  0  0  0  0  0  0  0
    7.5302   -1.0143    1.7550 H   0  0  0  0  0  0  0  0  0  0  0  0
    6.3076    2.9155    2.6036 H   0  0  0  0  0  0  0  0  0  0  0  0
    0.6995    3.0573   -0.2327 H   0  0  0  0  0  0  0  0  0  0  0  0
   -0.4614    3.6087   -1.4792 H   0  0  0  0  0  0  0  0  0  0  0  0
   -0.5048    0.9187    0.0283 H   0  0  0  0  0  0  0  0  0  0  0  0
   -1.5266    2.3985    0.3287 H   0  0  0  0  0  0  0  0  0  0  0  0
  1  2  3  0
  2  3  1  0
  3  4  1  0
  4  5  1  0
  5  6  1  0
  6  7  1  0
  7  8  1  0
  8  9  2  0
  8 10  1  0
 10 11  1  0
 11 12  1  0
 11 13  1  0
 13 14  1  0
 14 15  1  0
 15 16  1  0
 16 17  1  0
 17 18  1  0
 18 19  2  0
 18 20  1  0
 20 21  1  0
 21 22  2  0
 22 23  1  0
 23 24  2  0
 24 25  1  0
 24 26  1  0
 26 27  2  0
 16 28  1  0
 28 29  1  0
  7  3  1  0
 29 13  1  0
 27 21  1  0
  3 30  1  6
  4 31  1  0
  4 32  1  0
  6 33  1  0
  6 34  1  0
 10 35  1  0
 10 36  1  0
 12 37  1  0
 12 38  1  0
 13 39  1  0
 14 40  1  0
 14 41  1  0
 15 42  1  0
 15 43  1  0
 17 44  1  0
 17 45  1  0
 20 46  1  0
 22 47  1  0
 23 48  1  0
 26 49  1  0
 28 50  1  0
 28 51  1  0
 29 52  1  0
 29 53  1  0
M  END
$$$$
