
     RDKit          3D

 43 45  0  0  0  0  0  0  0  0999 V2000
    6.2618    0.7410    0.1615 C   0  0  0  0  0  0  0  0  0  0  0  0
    4.7889    0.6643   -0.0319 C   0  0  0  0  0  0  0  0  0  0  0  0
    4.0008    1.4964    0.7273 C   0  0  0  0  0  0  0  0  0  0  0  0
    2.6413    1.4473    0.5702 C   0  0  0  0  0  0  0  0  0  0  0  0
    2.0951    0.5535   -0.3564 C   0  0  0  0  0  0  0  0  0  0  0  0
    0.3366    0.5317   -0.5182 S   0  0  0  0  0  0  0  0  0  0  0  0
   -0.4476   -0.6143    0.5691 C   0  0  0  0  0  0  0  0  0  0  0  0
    0.3562   -1.3638    1.4176 C   0  0  0  0  0  0  0  0  0  0  0  0
   -0.2712   -2.2646    2.2669 C   0  0  0  0  0  0  0  0  0  0  0  0
   -1.6475   -2.4070    2.2645 C   0  0  0  0  0  0  0  0  0  0  0  0
   -2.4200   -1.6405    1.4023 C   0  0  0  0  0  0  0  0  0  0  0  0
   -1.8164   -0.7398    0.5505 C   0  0  0  0  0  0  0  0  0  0  0  0
   -2.5824    0.0542   -0.3350 N   0  0  0  0  0  0  0  0  0  0  0  0
   -2.5194    1.4932   -0.1811 C   0  0  0  0  0  0  0  0  0  0  0  0
   -3.8408    2.1416   -0.5433 C   0  0  0  0  0  0  0  0  0  0  0  0
   -4.9298    1.2126   -0.3444 N   0  0  0  0  0  0  0  0  0  0  0  0
   -4.8350    0.0038   -1.1005 C   0  0  0  0  0  0  0  0  0  0  0  0
   -3.4310   -0.4549   -1.3876 C   0  0  0  0  0  0  0  0  0  0  0  0
    2.8830   -0.2740   -1.1110 C   0  0  0  0  0  0  0  0  0  0  0  0
    2.2697   -1.2118   -2.0865 C   0  0  0  0  0  0  0  0  0  0  0  0
    4.2443   -0.2284   -0.9574 C   0  0  0  0  0  0  0  0  0  0  0  0
    6.7112   -0.2584   -0.0479 H   0  0  0  0  0  0  0  0  0  0  0  0
    6.5136    1.0078    1.2039 H   0  0  0  0  0  0  0  0  0  0  0  0
    6.7268    1.5176   -0.4801 H   0  0  0  0  0  0  0  0  0  0  0  0
    4.4395    2.1840    1.4415 H   0  0  0  0  0  0  0  0  0  0  0  0
    1.9790    2.0961    1.1583 H   0  0  0  0  0  0  0  0  0  0  0  0
    1.4374   -1.2375    1.4047 H   0  0  0  0  0  0  0  0  0  0  0  0
    0.3566   -2.8608    2.9405 H   0  0  0  0  0  0  0  0  0  0  0  0
   -2.1358   -3.1045    2.9219 H   0  0  0  0  0  0  0  0  0  0  0  0
   -3.4976   -1.7491    1.3975 H   0  0  0  0  0  0  0  0  0  0  0  0
   -1.7321    1.9656   -0.8037 H   0  0  0  0  0  0  0  0  0  0  0  0
   -2.3105    1.7092    0.8853 H   0  0  0  0  0  0  0  0  0  0  0  0
   -3.9905    2.9876    0.1536 H   0  0  0  0  0  0  0  0  0  0  0  0
   -3.8259    2.4645   -1.5967 H   0  0  0  0  0  0  0  0  0  0  0  0
   -5.8411    1.6826   -0.4465 H   0  0  0  0  0  0  0  0  0  0  0  0
   -5.3766   -0.8008   -0.5254 H   0  0  0  0  0  0  0  0  0  0  0  0
   -5.4024    0.1171   -2.0503 H   0  0  0  0  0  0  0  0  0  0  0  0
   -3.1513   -0.0473   -2.3837 H   0  0  0  0  0  0  0  0  0  0  0  0
   -3.4431   -1.5682   -1.4230 H   0  0  0  0  0  0  0  0  0  0  0  0
    3.0621   -1.4713   -2.8448 H   0  0  0  0  0  0  0  0  0  0  0  0
    1.3925   -0.7331   -2.5400 H   0  0  0  0  0  0  0  0  0  0  0  0
    2.0254   -2.1974   -1.6020 H   0  0  0  0  0  0  0  0  0  0  0  0
    4.9264   -0.8439   -1.5110 H   0  0  0  0  0  0  0  0  0  0  0  0
  1  2  1  0
  2  3  2  0
  3  4  1  0
  4  5  2  0
  5  6  1  0
  6  7  1  0
  7  8  2  0
  8  9  1  0
  9 10  2  0
 10 11  1  0
 11 12  2  0
 12 13  1  0
 13 14  1  0
 14 15  1  0
 15 16  1  0
 16 17  1  0
 17 18  1  0
  5 19  1  0
 19 20  1  0
 19 21  2  0
 21  2  1  0
 12  7  1  0
 18 13  1  0
  1 22  1  0
  1 23  1  0
  1 24  1  0
  3 25  1  0
  4 26  1  0
  8 27  1  0
  9 28  1  0
 10 29  1  0
 11 30  1  0
 14 31  1  0
 14 32  1  0
 15 33  1  0
 15 34  1  0
 16 35  1  0
 17 36  1  0
 17 37  1  0
 18 38  1  0
 18 39  1  0
 20 40  1  0
 20 41  1  0
 20 42  1  0
 21 43  1  0
M  END
$$$$
