
     RDKit          3D

 70 72  0  0  0  0  0  0  0  0999 V2000
   -4.4548    1.1602    2.9178 C   0  0  0  0  0  0  0  0  0  0  0  0
   -4.5494    1.1402    1.3591 C   0  0  1  0  0  0  0  0  0  0  0  0
   -3.2860    0.5357    0.8747 C   0  0  0  0  0  0  0  0  0  0  0  0
   -3.0000    0.4025   -0.5441 C   0  0  1  0  0  0  0  0  0  0  0  0
   -3.0101    1.7449   -1.2835 C   0  0  0  0  0  0  0  0  0  0  0  0
   -1.6064   -0.2287   -0.7136 C   0  0  0  0  0  0  0  0  0  0  0  0
   -0.2605    0.6450   -0.0884 S   0  0  0  0  0  6  0  0  0  0  0  0
   -0.3875    0.8273    1.4091 O   0  0  0  0  0  0  0  0  0  0  0  0
   -0.1115    1.9670   -0.7874 O   0  0  0  0  0  0  0  0  0  0  0  0
    1.1958   -0.2366   -0.4196 N   0  0  0  0  0  0  0  0  0  0  0  0
    1.1072   -1.4984    0.2605 C   0  0  0  0  0  0  0  0  0  0  0  0
    2.3063   -2.3790    0.0115 C   0  0  0  0  0  0  0  0  0  0  0  0
    3.1339   -1.9899   -1.1494 C   0  0  0  0  0  0  0  0  0  0  0  0
    4.3650   -1.2123   -0.8646 C   0  0  0  0  0  0  0  0  0  0  0  0
    4.2510    0.0992   -0.1962 C   0  0  0  0  0  0  0  0  0  0  0  0
    5.5758    0.7198    0.0697 C   0  0  0  0  0  0  0  0  0  0  0  0
    6.2023    1.4958   -0.9179 C   0  0  0  0  0  0  0  0  0  0  0  0
    7.4545    2.0184   -0.7112 C   0  0  0  0  0  0  0  0  0  0  0  0
    8.1372    1.8094    0.4498 C   0  0  0  0  0  0  0  0  0  0  0  0
    9.3900    2.3320    0.6496 F   0  0  0  0  0  0  0  0  0  0  0  0
    7.5372    1.0523    1.4304 C   0  0  0  0  0  0  0  0  0  0  0  0
    6.2446    0.5017    1.2415 C   0  0  0  0  0  0  0  0  0  0  0  0
    5.6350   -0.2389    2.3410 C   0  0  0  0  0  0  0  0  0  0  0  0
    6.5518   -0.2610    3.4147 F   0  0  0  0  0  0  0  0  0  0  0  0
    4.5220    0.4001    2.8671 F   0  0  0  0  0  0  0  0  0  0  0  0
    5.3598   -1.5644    2.1098 F   0  0  0  0  0  0  0  0  0  0  0  0
    2.2836   -1.4348   -2.2594 C   0  0  0  0  0  0  0  0  0  0  0  0
    1.3992   -0.3280   -1.8137 C   0  0  0  0  0  0  0  0  0  0  0  0
   -3.8618   -0.4825   -1.2740 N   0  0  0  0  0  0  0  0  0  0  0  0
   -4.7649   -1.2962   -0.7305 O   0  0  0  0  0  0  0  0  0  0  0  0
   -3.7511   -0.5702   -2.7160 C   0  0  0  0  0  0  0  0  0  0  0  0
   -4.4589   -1.3131   -3.4062 O   0  0  0  0  0  0  0  0  0  0  0  0
   -5.8182    0.4443    1.1073 C   0  0  0  0  0  0  0  0  0  0  0  0
   -6.0638   -0.7129    1.8132 N   0  0  0  0  0  0  0  0  0  0  0  0
   -7.2090   -1.3907    1.6581 C   0  0  0  0  0  0  0  0  0  0  0  0
   -8.1889   -0.9664    0.7918 C   0  0  0  0  0  0  0  0  0  0  0  0
   -9.3560   -1.6097    0.6001 F   0  0  0  0  0  0  0  0  0  0  0  0
   -7.9162    0.2141    0.0837 C   0  0  0  0  0  0  0  0  0  0  0  0
   -6.7653    0.8276    0.2892 N   0  0  0  0  0  0  0  0  0  0  0  0
   -4.5797    0.1324    3.3148 H   0  0  0  0  0  0  0  0  0  0  0  0
   -3.4713    1.5723    3.1760 H   0  0  0  0  0  0  0  0  0  0  0  0
   -5.2742    1.7749    3.3341 H   0  0  0  0  0  0  0  0  0  0  0  0
   -4.6752    2.2012    1.0460 H   0  0  0  0  0  0  0  0  0  0  0  0
   -2.4445    1.1407    1.3730 H   0  0  0  0  0  0  0  0  0  0  0  0
   -3.1835   -0.4559    1.4221 H   0  0  0  0  0  0  0  0  0  0  0  0
   -3.9761    1.8376   -1.8271 H   0  0  0  0  0  0  0  0  0  0  0  0
   -2.2397    1.6618   -2.0753 H   0  0  0  0  0  0  0  0  0  0  0  0
   -2.7900    2.5971   -0.6426 H   0  0  0  0  0  0  0  0  0  0  0  0
   -1.5442   -0.4739   -1.7966 H   0  0  0  0  0  0  0  0  0  0  0  0
   -1.7254   -1.2390   -0.2159 H   0  0  0  0  0  0  0  0  0  0  0  0
    1.0373   -1.2879    1.3468 H   0  0  0  0  0  0  0  0  0  0  0  0
    0.1489   -1.9770   -0.0260 H   0  0  0  0  0  0  0  0  0  0  0  0
    2.8997   -2.4729    0.9678 H   0  0  0  0  0  0  0  0  0  0  0  0
    1.9087   -3.4029   -0.1492 H   0  0  0  0  0  0  0  0  0  0  0  0
    3.5367   -2.9628   -1.6141 H   0  0  0  0  0  0  0  0  0  0  0  0
    5.1731   -1.8085   -0.4163 H   0  0  0  0  0  0  0  0  0  0  0  0
    4.8020   -1.0122   -1.9226 H   0  0  0  0  0  0  0  0  0  0  0  0
    3.7323    0.8167   -0.8678 H   0  0  0  0  0  0  0  0  0  0  0  0
    3.6377    0.0801    0.7378 H   0  0  0  0  0  0  0  0  0  0  0  0
    5.6414    1.6504   -1.8319 H   0  0  0  0  0  0  0  0  0  0  0  0
    7.9207    2.6132   -1.4859 H   0  0  0  0  0  0  0  0  0  0  0  0
    8.0661    0.8809    2.3571 H   0  0  0  0  0  0  0  0  0  0  0  0
    1.7370   -2.2496   -2.7872 H   0  0  0  0  0  0  0  0  0  0  0  0
    3.0237   -1.0428   -3.0187 H   0  0  0  0  0  0  0  0  0  0  0  0
    0.4264   -0.4614   -2.3870 H   0  0  0  0  0  0  0  0  0  0  0  0
    1.7897    0.6323   -2.2203 H   0  0  0  0  0  0  0  0  0  0  0  0
   -4.3381   -1.9030   -0.0818 H   0  0  0  0  0  0  0  0  0  0  0  0
   -3.0178    0.0415   -3.2031 H   0  0  0  0  0  0  0  0  0  0  0  0
   -7.3902   -2.3109    2.2256 H   0  0  0  0  0  0  0  0  0  0  0  0
   -8.6632    0.5733   -0.6053 H   0  0  0  0  0  0  0  0  0  0  0  0
  1  2  1  0
  2  3  1  0
  3  4  1  0
  4  5  1  0
  4  6  1  0
  6  7  1  0
  7  8  2  0
  7  9  2  0
  7 10  1  0
 10 11  1  0
 11 12  1  0
 12 13  1  0
 13 14  1  0
 14 15  1  0
 15 16  1  0
 16 17  2  0
 17 18  1  0
 18 19  2  0
 19 20  1  0
 19 21  1  0
 21 22  2  0
 22 23  1  0
 23 24  1  0
 23 25  1  0
 23 26  1  0
 13 27  1  0
 27 28  1  0
  4 29  1  6
 29 30  1  0
 29 31  1  0
 31 32  2  0
  2 33  1  0
 33 34  2  0
 34 35  1  0
 35 36  2  0
 36 37  1  0
 36 38  1  0
 38 39  2  0
 28 10  1  0
 39 33  1  0
 22 16  1  0
  1 40  1  0
  1 41  1  0
  1 42  1  0
  2 43  1  6
  3 44  1  0
  3 45  1  0
  5 46  1  0
  5 47  1  0
  5 48  1  0
  6 49  1  0
  6 50  1  0
 11 51  1  0
 11 52  1  0
 12 53  1  0
 12 54  1  0
 13 55  1  0
 14 56  1  0
 14 57  1  0
 15 58  1  0
 15 59  1  0
 17 60  1  0
 18 61  1  0
 21 62  1  0
 27 63  1  0
 27 64  1  0
 28 65  1  0
 28 66  1  0
 30 67  1  0
 31 68  1  0
 35 69  1  0
 38 70  1  0
M  END
$$$$
