
     RDKit          3D

 52 55  0  0  0  0  0  0  0  0999 V2000
   -6.8827   -0.4667    2.4276 C   0  0  0  0  0  0  0  0  0  0  0  0
   -5.7751   -1.1085    1.6727 C   0  0  0  0  0  0  0  0  0  0  0  0
   -5.1257   -2.0467    2.2184 O   0  0  0  0  0  0  0  0  0  0  0  0
   -5.4155   -0.7101    0.3613 N   0  0  0  0  0  0  0  0  0  0  0  0
   -6.0933    0.3501   -0.3385 C   0  0  0  0  0  0  0  0  0  0  0  0
   -5.2536    1.1693   -1.2526 C   0  0  0  0  0  0  0  0  0  0  0  0
   -3.7953    0.9125   -1.0562 C   0  0  0  0  0  0  0  0  0  0  0  0
   -3.3296   -0.3050   -0.6077 C   0  0  0  0  0  0  0  0  0  0  0  0
   -1.9409   -0.2458   -0.5318 C   0  0  0  0  0  0  0  0  0  0  0  0
   -1.1084   -1.3025   -0.0925 N   0  0  0  0  0  0  0  0  0  0  0  0
    0.2868   -1.1893   -0.1187 C   0  0  0  0  0  0  0  0  0  0  0  0
    1.0907   -1.9179    0.7724 C   0  0  0  0  0  0  0  0  0  0  0  0
    2.4574   -1.8062    0.7241 C   0  0  0  0  0  0  0  0  0  0  0  0
    3.1006   -0.9933   -0.1793 C   0  0  0  0  0  0  0  0  0  0  0  0
    4.5512   -0.9198   -0.1602 C   0  0  0  0  0  0  0  0  0  0  0  0
    5.3821   -1.9669    0.2039 C   0  0  0  0  0  0  0  0  0  0  0  0
    6.6418   -1.5336    0.1017 N   0  0  0  0  0  0  0  0  0  0  0  0
    6.6489   -0.2775   -0.3049 N   0  0  0  0  0  0  0  0  0  0  0  0
    7.8793    0.4705   -0.5058 C   0  0  0  0  0  0  0  0  0  0  0  0
    8.3099    1.2046    0.7461 C   0  0  0  0  0  0  0  0  0  0  0  0
    7.2790    2.0857    1.0721 O   0  0  0  0  0  0  0  0  0  0  0  0
    5.3904    0.1209   -0.4722 C   0  0  0  0  0  0  0  0  0  0  0  0
    2.2964   -0.2882   -1.0441 C   0  0  0  0  0  0  0  0  0  0  0  0
    0.9080   -0.3766   -1.0240 C   0  0  0  0  0  0  0  0  0  0  0  0
   -1.6340    0.9888   -0.9325 N   0  0  0  0  0  0  0  0  0  0  0  0
   -2.7080    1.6876   -1.2453 N   0  0  0  0  0  0  0  0  0  0  0  0
   -2.7485    3.0793   -1.7194 C   0  0  0  0  0  0  0  0  0  0  0  0
   -4.3321   -1.3936   -0.3020 C   0  0  0  0  0  0  0  0  0  0  0  0
   -7.8368   -0.4889    1.8505 H   0  0  0  0  0  0  0  0  0  0  0  0
   -7.0704   -1.0761    3.3320 H   0  0  0  0  0  0  0  0  0  0  0  0
   -6.6256    0.5562    2.7800 H   0  0  0  0  0  0  0  0  0  0  0  0
   -6.6292    0.9579    0.4276 H   0  0  0  0  0  0  0  0  0  0  0  0
   -6.8933   -0.1737   -0.9472 H   0  0  0  0  0  0  0  0  0  0  0  0
   -5.4251    2.2620   -1.1642 H   0  0  0  0  0  0  0  0  0  0  0  0
   -5.5202    0.9329   -2.3230 H   0  0  0  0  0  0  0  0  0  0  0  0
   -1.5443   -2.1823    0.2582 H   0  0  0  0  0  0  0  0  0  0  0  0
    0.5874   -2.5500    1.4754 H   0  0  0  0  0  0  0  0  0  0  0  0
    3.0682   -2.3779    1.4222 H   0  0  0  0  0  0  0  0  0  0  0  0
    5.0230   -2.9542    0.5128 H   0  0  0  0  0  0  0  0  0  0  0  0
    8.7116   -0.2359   -0.7408 H   0  0  0  0  0  0  0  0  0  0  0  0
    7.7120    1.2214   -1.2971 H   0  0  0  0  0  0  0  0  0  0  0  0
    9.2598    1.7217    0.5060 H   0  0  0  0  0  0  0  0  0  0  0  0
    8.4448    0.4275    1.5377 H   0  0  0  0  0  0  0  0  0  0  0  0
    7.3607    2.8841    0.4814 H   0  0  0  0  0  0  0  0  0  0  0  0
    5.0862    1.0929   -0.7972 H   0  0  0  0  0  0  0  0  0  0  0  0
    2.7492    0.3600   -1.7707 H   0  0  0  0  0  0  0  0  0  0  0  0
    0.3586    0.2178   -1.7613 H   0  0  0  0  0  0  0  0  0  0  0  0
   -3.5341    3.1360   -2.4938 H   0  0  0  0  0  0  0  0  0  0  0  0
   -1.7727    3.3635   -2.1433 H   0  0  0  0  0  0  0  0  0  0  0  0
   -3.0857    3.7547   -0.8937 H   0  0  0  0  0  0  0  0  0  0  0  0
   -3.8531   -2.1598    0.3423 H   0  0  0  0  0  0  0  0  0  0  0  0
   -4.6509   -1.9108   -1.2257 H   0  0  0  0  0  0  0  0  0  0  0  0
  1  2  1  0
  2  3  2  0
  2  4  1  0
  4  5  1  0
  5  6  1  0
  6  7  1  0
  7  8  2  0
  8  9  1  0
  9 10  1  0
 10 11  1  0
 11 12  2  0
 12 13  1  0
 13 14  2  0
 14 15  1  0
 15 16  1  0
 16 17  2  0
 17 18  1  0
 18 19  1  0
 19 20  1  0
 20 21  1  0
 18 22  1  0
 14 23  1  0
 23 24  2  0
  9 25  2  0
 25 26  1  0
 26 27  1  0
  8 28  1  0
 28  4  1  0
 26  7  1  0
 24 11  1  0
 22 15  2  0
  1 29  1  0
  1 30  1  0
  1 31  1  0
  5 32  1  0
  5 33  1  0
  6 34  1  0
  6 35  1  0
 10 36  1  0
 12 37  1  0
 13 38  1  0
 16 39  1  0
 19 40  1  0
 19 41  1  0
 20 42  1  0
 20 43  1  0
 21 44  1  0
 22 45  1  0
 23 46  1  0
 24 47  1  0
 27 48  1  0
 27 49  1  0
 27 50  1  0
 28 51  1  0
 28 52  1  0
M  END
$$$$
