
     RDKit          3D

 57 62  0  0  0  0  0  0  0  0999 V2000
    5.0359   -1.0265    1.3140 O   0  0  0  0  0  0  0  0  0  0  0  0
    5.0727    0.2016    1.0034 C   0  0  0  0  0  0  0  0  0  0  0  0
    6.3215    0.8318    1.0163 N   0  0  0  0  0  0  0  0  0  0  0  0
    7.5871    0.2399    1.3450 C   0  0  0  0  0  0  0  0  0  0  0  0
    8.1696   -0.5975    0.2803 C   0  0  0  0  0  0  0  0  0  0  0  0
    8.9854   -0.0391   -0.6776 C   0  0  0  0  0  0  0  0  0  0  0  0
    9.5557   -0.7990   -1.6915 C   0  0  0  0  0  0  0  0  0  0  0  0
    9.3053   -2.1209   -1.7424 N   0  0  0  0  0  0  0  0  0  0  0  0
    8.5170   -2.7105   -0.8321 C   0  0  0  0  0  0  0  0  0  0  0  0
    7.9427   -1.9526    0.1873 C   0  0  0  0  0  0  0  0  0  0  0  0
    3.7972    0.8324    0.6630 C   0  0  0  0  0  0  0  0  0  0  0  0
    3.7505    2.1620    0.3036 C   0  0  0  0  0  0  0  0  0  0  0  0
    2.5588    2.7567   -0.0137 C   0  0  0  0  0  0  0  0  0  0  0  0
    1.3938    2.0211    0.0262 C   0  0  0  0  0  0  0  0  0  0  0  0
    1.3875    0.6812    0.3814 C   0  0  0  0  0  0  0  0  0  0  0  0
    2.6110    0.1338    0.6902 C   0  0  0  0  0  0  0  0  0  0  0  0
   -0.0096    0.1446    0.3380 C   0  0  0  0  0  0  0  0  0  0  0  0
   -0.8178    1.2984   -0.0777 C   0  0  0  0  0  0  0  0  0  0  0  0
   -2.1157    1.7147   -0.3626 C   0  0  0  0  0  0  0  0  0  0  0  0
   -3.3622    0.9596   -0.3304 C   0  0  0  0  0  0  0  0  0  0  0  0
   -3.5162   -0.3024   -0.8536 C   0  0  0  0  0  0  0  0  0  0  0  0
   -4.7518   -0.9451   -0.7792 C   0  0  0  0  0  0  0  0  0  0  0  0
   -5.8331   -0.3495   -0.1923 C   0  0  0  0  0  0  0  0  0  0  0  0
   -7.1585   -0.9812   -0.0898 C   0  0  0  0  0  0  0  0  0  0  0  0
   -7.6237   -1.8535   -1.0531 C   0  0  0  0  0  0  0  0  0  0  0  0
   -8.8763   -2.4282   -0.9242 C   0  0  0  0  0  0  0  0  0  0  0  0
   -9.7006   -2.1653    0.1446 C   0  0  0  0  0  0  0  0  0  0  0  0
  -10.9685   -2.7406    0.2847 O   0  0  0  0  0  0  0  0  0  0  0  0
   -9.2362   -1.2943    1.1065 C   0  0  0  0  0  0  0  0  0  0  0  0
   -7.9915   -0.7219    0.9805 C   0  0  0  0  0  0  0  0  0  0  0  0
   -5.6948    0.9117    0.3356 C   0  0  0  0  0  0  0  0  0  0  0  0
   -4.4669    1.5464    0.2599 C   0  0  0  0  0  0  0  0  0  0  0  0
   -1.9963    3.0333   -0.6973 N   0  0  0  0  0  0  0  0  0  0  0  0
   -0.7498    3.4195   -0.6327 N   0  0  0  0  0  0  0  0  0  0  0  0
    0.0098    2.3776   -0.2537 C   0  0  0  0  0  0  0  0  0  0  0  0
    6.3301    1.8531    0.7527 H   0  0  0  0  0  0  0  0  0  0  0  0
    7.4762   -0.3763    2.2815 H   0  0  0  0  0  0  0  0  0  0  0  0
    8.2861    1.0594    1.6621 H   0  0  0  0  0  0  0  0  0  0  0  0
    9.2168    1.0198   -0.6792 H   0  0  0  0  0  0  0  0  0  0  0  0
   10.1964   -0.3935   -2.4526 H   0  0  0  0  0  0  0  0  0  0  0  0
    8.3453   -3.7666   -0.9113 H   0  0  0  0  0  0  0  0  0  0  0  0
    7.3213   -2.4658    0.8942 H   0  0  0  0  0  0  0  0  0  0  0  0
    4.6363    2.7930    0.2544 H   0  0  0  0  0  0  0  0  0  0  0  0
    2.4976    3.8194   -0.3040 H   0  0  0  0  0  0  0  0  0  0  0  0
    2.6561   -0.9222    0.9772 H   0  0  0  0  0  0  0  0  0  0  0  0
   -0.0804   -0.6963   -0.4078 H   0  0  0  0  0  0  0  0  0  0  0  0
   -0.2936   -0.2721    1.3138 H   0  0  0  0  0  0  0  0  0  0  0  0
   -2.6874   -0.7828   -1.3144 H   0  0  0  0  0  0  0  0  0  0  0  0
   -4.8754   -1.9505   -1.1963 H   0  0  0  0  0  0  0  0  0  0  0  0
   -6.9985   -2.0940   -1.9272 H   0  0  0  0  0  0  0  0  0  0  0  0
   -9.2316   -3.1174   -1.6956 H   0  0  0  0  0  0  0  0  0  0  0  0
  -11.1306   -3.2030    1.1923 H   0  0  0  0  0  0  0  0  0  0  0  0
   -9.8342   -1.0351    1.9869 H   0  0  0  0  0  0  0  0  0  0  0  0
   -7.6559   -0.0313    1.7702 H   0  0  0  0  0  0  0  0  0  0  0  0
   -6.5494    1.3954    0.8055 H   0  0  0  0  0  0  0  0  0  0  0  0
   -4.3679    2.5518    0.6841 H   0  0  0  0  0  0  0  0  0  0  0  0
   -0.3891    4.3765   -0.8388 H   0  0  0  0  0  0  0  0  0  0  0  0
  1  2  2  0
  2  3  1  0
  3  4  1  0
  4  5  1  0
  5  6  2  0
  6  7  1  0
  7  8  2  0
  8  9  1  0
  9 10  2  0
  2 11  1  0
 11 12  2  0
 12 13  1  0
 13 14  2  0
 14 15  1  0
 15 16  2  0
 15 17  1  0
 17 18  1  0
 18 19  1  0
 19 20  1  0
 20 21  2  0
 21 22  1  0
 22 23  2  0
 23 24  1  0
 24 25  2  0
 25 26  1  0
 26 27  2  0
 27 28  1  0
 27 29  1  0
 29 30  2  0
 23 31  1  0
 31 32  2  0
 19 33  2  0
 33 34  1  0
 34 35  1  0
 10  5  1  0
 16 11  1  0
 35 18  2  0
 35 14  1  0
 32 20  1  0
 30 24  1  0
  3 36  1  0
  4 37  1  0
  4 38  1  0
  6 39  1  0
  7 40  1  0
  9 41  1  0
 10 42  1  0
 12 43  1  0
 13 44  1  0
 16 45  1  0
 17 46  1  0
 17 47  1  0
 21 48  1  0
 22 49  1  0
 25 50  1  0
 26 51  1  0
 28 52  1  0
 29 53  1  0
 30 54  1  0
 31 55  1  0
 32 56  1  0
 34 57  1  0
M  END
$$$$
