
     RDKit          3D

 39 42  0  0  0  0  0  0  0  0999 V2000
   -3.5608    2.0134   -3.6940 N   0  0  0  0  0  0  0  0  0  0  0  0
   -3.3344    2.1519   -2.5683 C   0  0  0  0  0  0  0  0  0  0  0  0
   -3.0455    2.3343   -1.1533 C   0  0  0  0  0  0  0  0  0  0  0  0
   -3.5951    3.2850   -0.3480 C   0  0  0  0  0  0  0  0  0  0  0  0
   -3.0727    3.1281    0.8905 N   0  0  0  0  0  0  0  0  0  0  0  0
   -2.2121    2.0931    0.8466 C   0  0  0  0  0  0  0  0  0  0  0  0
   -1.4418    1.5572    1.8529 C   0  0  0  0  0  0  0  0  0  0  0  0
   -0.6319    0.4786    1.5287 C   0  0  0  0  0  0  0  0  0  0  0  0
   -0.6011   -0.0346    0.2498 C   0  0  0  0  0  0  0  0  0  0  0  0
    0.2281   -1.1425   -0.1241 C   0  0  0  0  0  0  0  0  0  0  0  0
    1.6000   -1.1556   -0.2475 C   0  0  0  0  0  0  0  0  0  0  0  0
    2.5675   -0.0738   -0.0397 C   0  0  0  0  0  0  0  0  0  0  0  0
    3.1863    0.4060   -1.1668 C   0  0  0  0  0  0  0  0  0  0  0  0
    4.1175    1.4240   -1.0690 C   0  0  0  0  0  0  0  0  0  0  0  0
    4.3832    1.9203    0.2055 C   0  0  0  0  0  0  0  0  0  0  0  0
    5.2957    2.9142    0.2769 F   0  0  0  0  0  0  0  0  0  0  0  0
    3.7618    1.4379    1.3345 C   0  0  0  0  0  0  0  0  0  0  0  0
    4.0605    1.9639    2.5725 F   0  0  0  0  0  0  0  0  0  0  0  0
    2.8430    0.4272    1.2010 C   0  0  0  0  0  0  0  0  0  0  0  0
    1.9948   -2.3920   -0.6162 N   0  0  0  0  0  0  0  0  0  0  0  0
    0.9048   -3.1494   -0.7257 C   0  0  0  0  0  0  0  0  0  0  0  0
   -0.1783   -2.3877   -0.4251 N   0  0  0  0  0  0  0  0  0  0  0  0
   -1.5251   -2.9148   -0.4473 C   0  0  0  0  0  0  0  0  0  0  0  0
   -1.9172   -3.4867    0.9058 C   0  0  0  0  0  0  0  0  0  0  0  0
   -1.8594   -2.5166    1.8821 F   0  0  0  0  0  0  0  0  0  0  0  0
   -1.1707   -4.5973    1.2206 F   0  0  0  0  0  0  0  0  0  0  0  0
   -1.4084    0.5587   -0.7194 C   0  0  0  0  0  0  0  0  0  0  0  0
   -2.1965    1.6076   -0.4062 N   0  0  0  0  0  0  0  0  0  0  0  0
   -4.3198    4.0603   -0.5704 H   0  0  0  0  0  0  0  0  0  0  0  0
   -1.4461    1.9332    2.8494 H   0  0  0  0  0  0  0  0  0  0  0  0
   -0.0227    0.0464    2.3159 H   0  0  0  0  0  0  0  0  0  0  0  0
    2.9846    0.0228   -2.1741 H   0  0  0  0  0  0  0  0  0  0  0  0
    4.6215    1.8224   -1.9390 H   0  0  0  0  0  0  0  0  0  0  0  0
    2.3473    0.0389    2.1086 H   0  0  0  0  0  0  0  0  0  0  0  0
    0.8928   -4.2084   -1.0107 H   0  0  0  0  0  0  0  0  0  0  0  0
   -1.6097   -3.7495   -1.1726 H   0  0  0  0  0  0  0  0  0  0  0  0
   -2.2840   -2.1635   -0.7231 H   0  0  0  0  0  0  0  0  0  0  0  0
   -2.9807   -3.8005    0.8159 H   0  0  0  0  0  0  0  0  0  0  0  0
   -1.3752    0.1475   -1.7167 H   0  0  0  0  0  0  0  0  0  0  0  0
  1  2  3  0
  2  3  1  0
  3  4  2  0
  4  5  1  0
  5  6  2  0
  6  7  1  0
  7  8  2  0
  8  9  1  0
  9 10  1  0
 10 11  2  0
 11 12  1  0
 12 13  2  0
 13 14  1  0
 14 15  2  0
 15 16  1  0
 15 17  1  0
 17 18  1  0
 17 19  2  0
 11 20  1  0
 20 21  2  0
 21 22  1  0
 22 23  1  0
 23 24  1  0
 24 25  1  0
 24 26  1  0
  9 27  2  0
 27 28  1  0
 28  3  1  0
 28  6  1  0
 22 10  1  0
 19 12  1  0
  4 29  1  0
  7 30  1  0
  8 31  1  0
 13 32  1  0
 14 33  1  0
 19 34  1  0
 21 35  1  0
 23 36  1  0
 23 37  1  0
 24 38  1  0
 27 39  1  0
M  END
$$$$
