
     RDKit          3D

 45 48  0  0  0  0  0  0  0  0999 V2000
    0.3121   -0.7798   -2.0971 O   0  0  0  0  0  0  0  0  0  0  0  0
    1.2309   -0.1668   -1.4279 C   0  0  0  0  0  0  0  0  0  0  0  0
    0.9132    1.1170   -0.7668 C   0  0  0  0  0  0  0  0  0  0  0  0
   -0.5418    1.4475   -0.9334 C   0  0  0  0  0  0  0  0  0  0  0  0
   -1.4239    1.0249   -0.0223 N   0  0  0  0  0  0  0  0  0  0  0  0
   -2.7577    1.2721   -0.0877 C   0  0  0  0  0  0  0  0  0  0  0  0
   -3.5698    0.7677    0.9471 N   0  0  0  0  0  0  0  0  0  0  0  0
   -5.0105    0.8592    0.9190 C   0  0  0  0  0  0  0  0  0  0  0  0
   -5.5585   -0.4825    1.3870 C   0  0  0  0  0  0  0  0  0  0  0  0
   -5.0083   -0.8124    2.6029 O   0  0  0  0  0  0  0  0  0  0  0  0
   -3.6670   -1.1768    2.3383 C   0  0  0  0  0  0  0  0  0  0  0  0
   -2.9397    0.1277    2.1126 C   0  0  0  0  0  0  0  0  0  0  0  0
   -3.2320    1.9985   -1.1504 C   0  0  0  0  0  0  0  0  0  0  0  0
   -2.3308    2.4411   -2.0991 C   0  0  0  0  0  0  0  0  0  0  0  0
   -2.7832    3.1053   -3.0663 O   0  0  0  0  0  0  0  0  0  0  0  0
   -1.0131    2.1537   -1.9641 N   0  0  0  0  0  0  0  0  0  0  0  0
    2.4735   -0.8311   -1.4113 N   0  0  0  0  0  0  0  0  0  0  0  0
    2.8185   -2.0939   -2.0968 C   0  0  0  0  0  0  0  0  0  0  0  0
    3.6465   -2.7556   -1.0182 C   0  0  0  0  0  0  0  0  0  0  0  0
    4.4244   -1.6092   -0.4875 C   0  0  0  0  0  0  0  0  0  0  0  0
    5.6430   -1.5815    0.1481 C   0  0  0  0  0  0  0  0  0  0  0  0
    6.3863   -2.6803    0.4097 F   0  0  0  0  0  0  0  0  0  0  0  0
    6.1396   -0.3594    0.5437 C   0  0  0  0  0  0  0  0  0  0  0  0
    5.4153    0.7997    0.2987 C   0  0  0  0  0  0  0  0  0  0  0  0
    4.1915    0.7340   -0.3438 C   0  0  0  0  0  0  0  0  0  0  0  0
    3.6706   -0.4622   -0.7493 C   0  0  0  0  0  0  0  0  0  0  0  0
    1.2189    1.0659    0.2872 H   0  0  0  0  0  0  0  0  0  0  0  0
    1.4983    1.9565   -1.2340 H   0  0  0  0  0  0  0  0  0  0  0  0
   -5.4213    0.9997   -0.0969 H   0  0  0  0  0  0  0  0  0  0  0  0
   -5.3158    1.6739    1.6215 H   0  0  0  0  0  0  0  0  0  0  0  0
   -6.6715   -0.4718    1.4138 H   0  0  0  0  0  0  0  0  0  0  0  0
   -5.2763   -1.2182    0.5932 H   0  0  0  0  0  0  0  0  0  0  0  0
   -3.6725   -1.7809    1.3959 H   0  0  0  0  0  0  0  0  0  0  0  0
   -3.2686   -1.7529    3.1809 H   0  0  0  0  0  0  0  0  0  0  0  0
   -3.1457    0.7757    3.0142 H   0  0  0  0  0  0  0  0  0  0  0  0
   -1.8659    0.0198    1.9611 H   0  0  0  0  0  0  0  0  0  0  0  0
   -4.2866    2.2020   -1.2104 H   0  0  0  0  0  0  0  0  0  0  0  0
   -0.3415    2.4964   -2.6917 H   0  0  0  0  0  0  0  0  0  0  0  0
    3.4615   -1.8380   -2.9720 H   0  0  0  0  0  0  0  0  0  0  0  0
    1.9280   -2.6516   -2.3817 H   0  0  0  0  0  0  0  0  0  0  0  0
    2.9400   -3.1109   -0.2204 H   0  0  0  0  0  0  0  0  0  0  0  0
    4.2770   -3.5698   -1.3998 H   0  0  0  0  0  0  0  0  0  0  0  0
    7.0927   -0.2448    1.0512 H   0  0  0  0  0  0  0  0  0  0  0  0
    5.7815    1.7742    0.5988 H   0  0  0  0  0  0  0  0  0  0  0  0
    3.6386    1.6178   -0.5309 H   0  0  0  0  0  0  0  0  0  0  0  0
  1  2  2  0
  2  3  1  0
  3  4  1  0
  4  5  2  0
  5  6  1  0
  6  7  1  0
  7  8  1  0
  8  9  1  0
  9 10  1  0
 10 11  1  0
 11 12  1  0
  6 13  2  0
 13 14  1  0
 14 15  2  0
 14 16  1  0
  2 17  1  0
 17 18  1  0
 18 19  1  0
 19 20  1  0
 20 21  2  0
 21 22  1  0
 21 23  1  0
 23 24  2  0
 24 25  1  0
 25 26  2  0
 16  4  1  0
 26 17  1  0
 12  7  1  0
 26 20  1  0
  3 27  1  0
  3 28  1  0
  8 29  1  0
  8 30  1  0
  9 31  1  0
  9 32  1  0
 11 33  1  0
 11 34  1  0
 12 35  1  0
 12 36  1  0
 13 37  1  0
 16 38  1  0
 18 39  1  0
 18 40  1  0
 19 41  1  0
 19 42  1  0
 23 43  1  0
 24 44  1  0
 25 45  1  0
M  END
$$$$
