
     RDKit          3D

 61 65  0  0  0  0  0  0  0  0999 V2000
   -9.5750    2.8718    0.4997 C   0  0  0  0  0  0  0  0  0  0  0  0
   -8.4772    2.3681   -0.8701 S   0  0  0  0  0  0  0  0  0  0  0  0
   -7.2032    1.2999   -0.1727 C   0  0  0  0  0  0  0  0  0  0  0  0
   -6.0251    1.8377    0.2973 C   0  0  0  0  0  0  0  0  0  0  0  0
   -5.0618    0.9738    0.8311 C   0  0  0  0  0  0  0  0  0  0  0  0
   -5.3032   -0.3824    0.8776 C   0  0  0  0  0  0  0  0  0  0  0  0
   -4.2570   -1.2610    1.4493 C   0  0  0  0  0  0  0  0  0  0  0  0
   -3.3264   -1.7407    0.4763 N   0  0  0  0  0  0  0  0  0  0  0  0
   -3.5310   -2.9536   -0.2598 C   0  0  0  0  0  0  0  0  0  0  0  0
   -4.5189   -3.7546   -0.1729 O   0  0  0  0  0  0  0  0  0  0  0  0
   -2.3622   -3.0643   -1.1247 C   0  0  0  0  0  0  0  0  0  0  0  0
   -2.1145   -3.9763   -1.9479 O   0  0  0  0  0  0  0  0  0  0  0  0
   -1.4798   -1.9158   -0.8902 C   0  0  0  0  0  0  0  0  0  0  0  0
   -0.2560   -1.5366   -1.4383 C   0  0  0  0  0  0  0  0  0  0  0  0
    0.4009   -0.3889   -1.0518 C   0  0  0  0  0  0  0  0  0  0  0  0
    1.9366    0.0941   -1.7345 S   0  0  0  0  0  6  0  0  0  0  0  0
    2.0535   -0.3808   -3.1756 O   0  0  0  0  0  0  0  0  0  0  0  0
    2.0616    1.5930   -1.7864 O   0  0  0  0  0  0  0  0  0  0  0  0
    3.2715   -0.5242   -0.8819 N   0  0  0  0  0  0  0  0  0  0  0  0
    3.3524   -1.9527   -0.8529 C   0  0  0  0  0  0  0  0  0  0  0  0
    2.8376   -2.3403    0.5163 C   0  0  0  0  0  0  0  0  0  0  0  0
    2.7906   -1.0794    1.3324 C   0  0  0  0  0  0  0  0  0  0  0  0
    3.4002   -0.0382    0.4547 C   0  0  1  0  0  0  0  0  0  0  0  0
    4.8594    0.2121    0.7706 C   0  0  0  0  0  0  0  0  0  0  0  0
    5.3849    1.1723   -0.1254 O   0  0  0  0  0  0  0  0  0  0  0  0
    6.7332    1.5276    0.0228 C   0  0  0  0  0  0  0  0  0  0  0  0
    7.3239    2.4562   -0.8095 C   0  0  0  0  0  0  0  0  0  0  0  0
    8.6562    2.8014   -0.6563 C   0  0  0  0  0  0  0  0  0  0  0  0
    9.4271    2.2180    0.3412 C   0  0  0  0  0  0  0  0  0  0  0  0
    8.8332    1.3193    1.1374 N   0  0  0  0  0  0  0  0  0  0  0  0
    7.5348    0.9715    1.0013 C   0  0  0  0  0  0  0  0  0  0  0  0
   -0.2108    0.3816   -0.0857 C   0  0  0  0  0  0  0  0  0  0  0  0
   -1.4220    0.0131    0.4616 C   0  0  0  0  0  0  0  0  0  0  0  0
   -2.0920   -1.1462    0.0753 C   0  0  0  0  0  0  0  0  0  0  0  0
   -6.5046   -0.8882    0.3934 C   0  0  0  0  0  0  0  0  0  0  0  0
   -7.4417   -0.0497   -0.1256 C   0  0  0  0  0  0  0  0  0  0  0  0
   -9.0313    2.8188    1.4682 H   0  0  0  0  0  0  0  0  0  0  0  0
  -10.5086    2.2905    0.5134 H   0  0  0  0  0  0  0  0  0  0  0  0
   -9.8226    3.9358    0.3331 H   0  0  0  0  0  0  0  0  0  0  0  0
   -5.8273    2.9003    0.2647 H   0  0  0  0  0  0  0  0  0  0  0  0
   -4.1576    1.4433    1.1861 H   0  0  0  0  0  0  0  0  0  0  0  0
   -3.6688   -0.6968    2.2213 H   0  0  0  0  0  0  0  0  0  0  0  0
   -4.7370   -2.1058    2.0016 H   0  0  0  0  0  0  0  0  0  0  0  0
    0.2184   -2.1420   -2.1932 H   0  0  0  0  0  0  0  0  0  0  0  0
    2.8600   -2.4692   -1.6748 H   0  0  0  0  0  0  0  0  0  0  0  0
    4.4407   -2.2251   -0.8988 H   0  0  0  0  0  0  0  0  0  0  0  0
    3.5306   -3.0531    1.0047 H   0  0  0  0  0  0  0  0  0  0  0  0
    1.8254   -2.7837    0.4552 H   0  0  0  0  0  0  0  0  0  0  0  0
    3.4318   -1.1677    2.2436 H   0  0  0  0  0  0  0  0  0  0  0  0
    1.7538   -0.8378    1.6646 H   0  0  0  0  0  0  0  0  0  0  0  0
    2.8499    0.9345    0.5218 H   0  0  0  0  0  0  0  0  0  0  0  0
    5.3964   -0.7438    0.6652 H   0  0  0  0  0  0  0  0  0  0  0  0
    4.9803    0.5346    1.8320 H   0  0  0  0  0  0  0  0  0  0  0  0
    6.7191    2.9091   -1.5864 H   0  0  0  0  0  0  0  0  0  0  0  0
    9.1434    3.5386   -1.3094 H   0  0  0  0  0  0  0  0  0  0  0  0
   10.4665    2.4968    0.4496 H   0  0  0  0  0  0  0  0  0  0  0  0
    7.0710    0.2439    1.6530 H   0  0  0  0  0  0  0  0  0  0  0  0
    0.2787    1.2895    0.2403 H   0  0  0  0  0  0  0  0  0  0  0  0
   -1.9181    0.6088    1.2260 H   0  0  0  0  0  0  0  0  0  0  0  0
   -6.6164   -1.9620    0.4660 H   0  0  0  0  0  0  0  0  0  0  0  0
   -8.3731   -0.4949   -0.4949 H   0  0  0  0  0  0  0  0  0  0  0  0
  1  2  1  0
  2  3  1  0
  3  4  2  0
  4  5  1  0
  5  6  2  0
  6  7  1  0
  7  8  1  0
  8  9  1  0
  9 10  2  0
  9 11  1  0
 11 12  2  0
 11 13  1  0
 13 14  2  0
 14 15  1  0
 15 16  1  0
 16 17  2  0
 16 18  2  0
 16 19  1  0
 19 20  1  0
 20 21  1  0
 21 22  1  0
 22 23  1  0
 23 24  1  0
 24 25  1  0
 25 26  1  0
 26 27  2  0
 27 28  1  0
 28 29  2  0
 29 30  1  0
 30 31  2  0
 15 32  2  0
 32 33  1  0
 33 34  2  0
  6 35  1  0
 35 36  2  0
 36  3  1  0
 34  8  1  0
 34 13  1  0
 23 19  1  0
 31 26  1  0
  1 37  1  0
  1 38  1  0
  1 39  1  0
  4 40  1  0
  5 41  1  0
  7 42  1  0
  7 43  1  0
 14 44  1  0
 20 45  1  0
 20 46  1  0
 21 47  1  0
 21 48  1  0
 22 49  1  0
 22 50  1  0
 23 51  1  6
 24 52  1  0
 24 53  1  0
 27 54  1  0
 28 55  1  0
 29 56  1  0
 31 57  1  0
 32 58  1  0
 33 59  1  0
 35 60  1  0
 36 61  1  0
M  END
$$$$
