
     RDKit          3D

 26 27  0  0  0  0  0  0  0  0999 V2000
   -2.1903    0.3356   -0.6968 C   0  0  0  0  0  0  0  0  0  0  0  0
   -1.0568   -0.3370   -0.0002 C   0  0  0  0  0  0  0  0  0  0  0  0
   -1.4549   -1.5733    0.7472 C   0  0  0  0  0  0  0  0  0  0  0  0
   -0.2909    0.6454    0.8109 C   0  0  2  0  0  0  0  0  0  0  0  0
   -0.3818    2.0224    0.2648 C   0  0  0  0  0  0  0  0  0  0  0  0
   -1.4615    2.6588    0.1597 O   0  0  0  0  0  0  0  0  0  0  0  0
    0.7606    2.6978   -0.1715 O   0  0  0  0  0  0  0  0  0  0  0  0
    1.0919    0.2499    0.8170 N   0  0  0  0  0  0  0  0  0  0  0  0
    2.3880   -0.0672    1.2887 C   0  0  0  0  0  0  0  0  0  0  0  0
    3.0964    0.2997    2.2464 O   0  0  0  0  0  0  0  0  0  0  0  0
    2.5038   -1.0184    0.1349 C   0  0  0  0  0  0  0  0  0  0  0  0
    1.5709   -0.0409   -0.5167 C   0  0  1  0  0  0  0  0  0  0  0  0
    0.1510   -0.8249   -1.2414 S   0  0  0  0  0  6  0  0  0  0  0  0
   -0.1911   -0.2787   -2.5754 O   0  0  0  0  0  0  0  0  0  0  0  0
    0.3322   -2.3144   -1.2542 O   0  0  0  0  0  0  0  0  0  0  0  0
   -2.7889   -0.4532   -1.2311 H   0  0  0  0  0  0  0  0  0  0  0  0
   -1.8551    1.0363   -1.4612 H   0  0  0  0  0  0  0  0  0  0  0  0
   -2.8801    0.8183    0.0377 H   0  0  0  0  0  0  0  0  0  0  0  0
   -1.2888   -1.4317    1.8421 H   0  0  0  0  0  0  0  0  0  0  0  0
   -2.5612   -1.7098    0.5698 H   0  0  0  0  0  0  0  0  0  0  0  0
   -0.9767   -2.4999    0.3678 H   0  0  0  0  0  0  0  0  0  0  0  0
   -0.7017    0.6562    1.8249 H   0  0  0  0  0  0  0  0  0  0  0  0
    0.6406    3.3656   -0.9211 H   0  0  0  0  0  0  0  0  0  0  0  0
    3.5060   -1.0423   -0.3303 H   0  0  0  0  0  0  0  0  0  0  0  0
    2.0312   -1.9736    0.3631 H   0  0  0  0  0  0  0  0  0  0  0  0
    2.0073    0.7794   -1.0752 H   0  0  0  0  0  0  0  0  0  0  0  0
  1  2  1  0
  2  3  1  0
  2  4  1  0
  4  5  1  0
  5  6  2  0
  5  7  1  0
  4  8  1  0
  8  9  1  0
  9 10  2  0
  9 11  1  0
 11 12  1  0
 12 13  1  0
 13 14  2  0
 13 15  2  0
 13  2  1  0
 12  8  1  0
  1 16  1  0
  1 17  1  0
  1 18  1  0
  3 19  1  0
  3 20  1  0
  3 21  1  0
  4 22  1  1
  7 23  1  0
 11 24  1  0
 11 25  1  0
 12 26  1  6
M  END
$$$$
