
     RDKit          3D

 19 18  0  0  0  0  0  0  0  0999 V2000
    1.5453   -1.6262   -0.4873 N   0  0  0  0  0  0  0  0  0  0  0  0
    1.2681   -0.2133   -0.5170 C   0  0  1  0  0  0  0  0  0  0  0  0
   -0.0925    0.1218    0.0905 C   0  0  0  0  0  0  0  0  0  0  0  0
   -1.0457   -0.5409   -0.6455 O   0  0  0  0  0  0  0  0  0  0  0  0
   -2.6113   -0.2806   -0.1088 P   0  0  0  0  0  0  0  0  0  0  0  0
   -2.9056    1.3328    0.3069 O   0  0  0  0  0  0  0  0  0  0  0  0
   -3.0752   -1.2829    1.1465 O   0  0  0  0  0  0  0  0  0  0  0  0
   -3.5436   -0.5700   -1.2864 O   0  0  0  0  0  0  0  0  0  0  0  0
    2.3687    0.5455    0.1491 C   0  0  0  0  0  0  0  0  0  0  0  0
    2.2835    1.9305    0.2217 O   0  0  0  0  0  0  0  0  0  0  0  0
    3.3798    0.0036    0.6544 O   0  0  0  0  0  0  0  0  0  0  0  0
    2.5757   -1.7567   -0.5870 H   0  0  0  0  0  0  0  0  0  0  0  0
    1.0584   -2.0832   -1.2971 H   0  0  0  0  0  0  0  0  0  0  0  0
    1.2949    0.0873   -1.6023 H   0  0  0  0  0  0  0  0  0  0  0  0
   -0.1883    1.2159    0.1075 H   0  0  0  0  0  0  0  0  0  0  0  0
   -0.0360   -0.2052    1.1471 H   0  0  0  0  0  0  0  0  0  0  0  0
   -2.4403    1.9822   -0.2708 H   0  0  0  0  0  0  0  0  0  0  0  0
   -2.5842   -1.0378    1.9702 H   0  0  0  0  0  0  0  0  0  0  0  0
    2.7483    2.3770    1.0084 H   0  0  0  0  0  0  0  0  0  0  0  0
  1  2  1  0
  2  3  1  0
  3  4  1  0
  4  5  1  0
  5  6  1  0
  5  7  1  0
  5  8  2  0
  2  9  1  0
  9 10  1  0
  9 11  2  0
  1 12  1  0
  1 13  1  0
  2 14  1  6
  3 15  1  0
  3 16  1  0
  6 17  1  0
  7 18  1  0
 10 19  1  0
M  END
$$$$
