
     RDKit          3D

 64 66  0  0  0  0  0  0  0  0999 V2000
    6.3149    3.2508   -0.9224 C   0  0  0  0  0  0  0  0  0  0  0  0
    6.4759    1.8526   -1.4426 C   0  0  0  0  0  0  0  0  0  0  0  0
    7.3545    1.1130   -0.5800 N   0  0  0  0  0  0  0  0  0  0  0  0
    7.5852   -0.2386   -1.0685 C   0  0  0  0  0  0  0  0  0  0  0  0
    8.4062   -0.1354   -2.3357 C   0  0  0  0  0  0  0  0  0  0  0  0
    7.0281    1.1469    0.8067 C   0  0  0  0  0  0  0  0  0  0  0  0
    5.7918    0.4239    1.2101 C   0  0  0  0  0  0  0  0  0  0  0  0
    4.6590    0.9220    0.5757 O   0  0  0  0  0  0  0  0  0  0  0  0
    3.3739    0.4279    0.7789 C   0  0  0  0  0  0  0  0  0  0  0  0
    3.2094   -0.6036    1.6506 C   0  0  0  0  0  0  0  0  0  0  0  0
    1.9303   -1.1254    1.8794 C   0  0  0  0  0  0  0  0  0  0  0  0
    0.8405   -0.5974    1.2248 C   0  0  0  0  0  0  0  0  0  0  0  0
   -0.5091   -1.1024    1.4335 C   0  0  0  0  0  0  0  0  0  0  0  0
   -1.6965   -0.7696    0.9325 C   0  0  0  0  0  0  0  0  0  0  0  0
   -2.8095   -1.4086    1.3039 C   0  0  0  0  0  0  0  0  0  0  0  0
   -4.1996   -1.1102    0.8100 C   0  0  0  0  0  0  0  0  0  0  0  0
   -5.1811   -1.7526    1.2369 O   0  0  0  0  0  0  0  0  0  0  0  0
   -4.4476   -0.1005   -0.1477 N   0  0  0  0  0  0  0  0  0  0  0  0
   -5.7193    0.2389   -0.6563 C   0  0  0  0  0  0  0  0  0  0  0  0
   -6.2055   -0.3981   -1.7696 C   0  0  0  0  0  0  0  0  0  0  0  0
   -7.4534   -0.0879   -2.3071 C   0  0  0  0  0  0  0  0  0  0  0  0
   -8.2360    0.8790   -1.7226 C   0  0  0  0  0  0  0  0  0  0  0  0
   -7.7568    1.5225   -0.6066 C   0  0  0  0  0  0  0  0  0  0  0  0
   -8.5982    2.5644    0.0223 C   0  0  0  0  0  0  0  0  0  0  0  0
   -8.2782    3.8054   -0.5737 O   0  0  0  0  0  0  0  0  0  0  0  0
   -6.5138    1.2045   -0.0820 C   0  0  0  0  0  0  0  0  0  0  0  0
   -2.6267   -2.4434    2.2508 C   0  0  0  0  0  0  0  0  0  0  0  0
   -3.6250   -3.2814    2.8131 N   0  0  0  0  0  0  0  0  0  0  0  0
   -3.9435   -4.5123    2.1917 C   0  0  0  0  0  0  0  0  0  0  0  0
   -4.9399   -5.3985    2.7139 N   0  0  0  0  0  0  0  0  0  0  0  0
   -3.3015   -4.8049    1.1375 O   0  0  0  0  0  0  0  0  0  0  0  0
   -0.9114   -2.4585    2.5627 S   0  0  0  0  0  0  0  0  0  0  0  0
    1.0255    0.4351    0.3556 C   0  0  0  0  0  0  0  0  0  0  0  0
    2.3047    0.9583    0.1256 C   0  0  0  0  0  0  0  0  0  0  0  0
    7.2362    3.5975   -0.4050 H   0  0  0  0  0  0  0  0  0  0  0  0
    5.4791    3.3938   -0.2182 H   0  0  0  0  0  0  0  0  0  0  0  0
    6.1720    3.9231   -1.8136 H   0  0  0  0  0  0  0  0  0  0  0  0
    5.4757    1.3524   -1.5635 H   0  0  0  0  0  0  0  0  0  0  0  0
    6.9133    1.8347   -2.4705 H   0  0  0  0  0  0  0  0  0  0  0  0
    6.5665   -0.6190   -1.3678 H   0  0  0  0  0  0  0  0  0  0  0  0
    8.0753   -0.8777   -0.3380 H   0  0  0  0  0  0  0  0  0  0  0  0
    8.9144   -1.0951   -2.5951 H   0  0  0  0  0  0  0  0  0  0  0  0
    9.1667    0.6723   -2.1449 H   0  0  0  0  0  0  0  0  0  0  0  0
    7.8113    0.1676   -3.1990 H   0  0  0  0  0  0  0  0  0  0  0  0
    7.9251    0.8134    1.3734 H   0  0  0  0  0  0  0  0  0  0  0  0
    6.8889    2.2184    1.0864 H   0  0  0  0  0  0  0  0  0  0  0  0
    5.8694   -0.6635    0.9564 H   0  0  0  0  0  0  0  0  0  0  0  0
    5.6451    0.5458    2.3149 H   0  0  0  0  0  0  0  0  0  0  0  0
    4.0533   -1.0257    2.1699 H   0  0  0  0  0  0  0  0  0  0  0  0
    1.8137   -1.9351    2.5658 H   0  0  0  0  0  0  0  0  0  0  0  0
   -1.7502    0.0740    0.1763 H   0  0  0  0  0  0  0  0  0  0  0  0
   -3.6029    0.4390   -0.5066 H   0  0  0  0  0  0  0  0  0  0  0  0
   -5.6585   -1.1706   -2.2931 H   0  0  0  0  0  0  0  0  0  0  0  0
   -7.8294   -0.5913   -3.1803 H   0  0  0  0  0  0  0  0  0  0  0  0
   -9.2237    1.1337   -2.1389 H   0  0  0  0  0  0  0  0  0  0  0  0
   -8.4627    2.6222    1.1230 H   0  0  0  0  0  0  0  0  0  0  0  0
   -9.6800    2.4007   -0.1984 H   0  0  0  0  0  0  0  0  0  0  0  0
   -8.9196    4.4811   -0.2376 H   0  0  0  0  0  0  0  0  0  0  0  0
   -6.1365    1.7047    0.7900 H   0  0  0  0  0  0  0  0  0  0  0  0
   -4.1113   -2.9802    3.6753 H   0  0  0  0  0  0  0  0  0  0  0  0
   -5.5461   -6.0054    2.1229 H   0  0  0  0  0  0  0  0  0  0  0  0
   -5.0765   -5.4494    3.7448 H   0  0  0  0  0  0  0  0  0  0  0  0
    0.1843    0.8489   -0.1562 H   0  0  0  0  0  0  0  0  0  0  0  0
    2.4600    1.7741   -0.5596 H   0  0  0  0  0  0  0  0  0  0  0  0
  1  2  1  0
  2  3  1  0
  3  4  1  0
  4  5  1  0
  3  6  1  0
  6  7  1  0
  7  8  1  0
  8  9  1  0
  9 10  2  0
 10 11  1  0
 11 12  2  0
 12 13  1  0
 13 14  2  0
 14 15  1  0
 15 16  1  0
 16 17  2  0
 16 18  1  0
 18 19  1  0
 19 20  2  0
 20 21  1  0
 21 22  2  0
 22 23  1  0
 23 24  1  0
 24 25  1  0
 23 26  2  0
 15 27  2  0
 27 28  1  0
 28 29  1  0
 29 30  1  0
 29 31  2  0
 27 32  1  0
 12 33  1  0
 33 34  2  0
 34  9  1  0
 32 13  1  0
 26 19  1  0
  1 35  1  0
  1 36  1  0
  1 37  1  0
  2 38  1  0
  2 39  1  0
  4 40  1  0
  4 41  1  0
  5 42  1  0
  5 43  1  0
  5 44  1  0
  6 45  1  0
  6 46  1  0
  7 47  1  0
  7 48  1  0
 10 49  1  0
 11 50  1  0
 14 51  1  0
 18 52  1  0
 20 53  1  0
 21 54  1  0
 22 55  1  0
 24 56  1  0
 24 57  1  0
 25 58  1  0
 26 59  1  0
 28 60  1  0
 30 61  1  0
 30 62  1  0
 33 63  1  0
 34 64  1  0
M  END
$$$$
