
     RDKit          3D

 42 44  0  0  0  0  0  0  0  0999 V2000
   -4.2231   -2.4864    0.5085 C   0  0  0  0  0  0  0  0  0  0  0  0
   -3.7766   -1.1090   -0.0021 C   0  0  0  0  0  0  0  0  0  0  0  0
   -2.2898   -1.0517    0.2289 C   0  0  0  0  0  0  0  0  0  0  0  0
   -1.6573    0.2462   -0.2207 C   0  0  2  0  0  0  0  0  0  0  0  0
   -2.2691    1.4200    0.5381 C   0  0  0  0  0  0  0  0  0  0  0  0
   -1.6886    2.7099    0.1430 C   0  0  0  0  0  0  0  0  0  0  0  0
   -2.0578    3.3352   -0.8849 O   0  0  0  0  0  0  0  0  0  0  0  0
   -0.6909    3.2843    0.9170 O   0  0  0  0  0  0  0  0  0  0  0  0
   -1.8885    0.4503   -1.5364 O   0  0  0  0  0  0  0  0  0  0  0  0
   -0.8142    0.7425   -2.3177 C   0  0  0  0  0  0  0  0  0  0  0  0
    0.1610   -0.4474   -2.1681 C   0  0  0  0  0  0  0  0  0  0  0  0
    0.7834   -0.1829   -0.7943 C   0  0  0  0  0  0  0  0  0  0  0  0
   -0.2134    0.1726    0.0996 C   0  0  0  0  0  0  0  0  0  0  0  0
    0.6537    0.4712    1.6107 S   0  0  0  0  0  0  0  0  0  0  0  0
    2.2773    0.1047    0.9612 C   0  0  0  0  0  0  0  0  0  0  0  0
    3.5119    0.1231    1.5998 C   0  0  0  0  0  0  0  0  0  0  0  0
    3.5142    0.5017    3.0224 C   0  0  0  0  0  0  0  0  0  0  0  0
    4.6464   -0.2053    0.8939 C   0  0  0  0  0  0  0  0  0  0  0  0
    4.4634   -0.5361   -0.4258 C   0  0  0  0  0  0  0  0  0  0  0  0
    5.5757   -0.8677   -1.1521 F   0  0  0  0  0  0  0  0  0  0  0  0
    3.2297   -0.5485   -1.0407 C   0  0  0  0  0  0  0  0  0  0  0  0
    3.2210   -0.9475   -2.4396 C   0  0  0  0  0  0  0  0  0  0  0  0
    3.2332   -1.2640   -3.5770 N   0  0  0  0  0  0  0  0  0  0  0  0
    2.0547   -0.2149   -0.3399 C   0  0  0  0  0  0  0  0  0  0  0  0
   -3.7586   -2.6493    1.4971 H   0  0  0  0  0  0  0  0  0  0  0  0
   -5.3080   -2.5902    0.5511 H   0  0  0  0  0  0  0  0  0  0  0  0
   -3.7894   -3.2634   -0.1773 H   0  0  0  0  0  0  0  0  0  0  0  0
   -3.9667   -1.1020   -1.0959 H   0  0  0  0  0  0  0  0  0  0  0  0
   -4.3041   -0.3113    0.5376 H   0  0  0  0  0  0  0  0  0  0  0  0
   -1.7546   -1.9070   -0.1777 H   0  0  0  0  0  0  0  0  0  0  0  0
   -2.1235   -1.0927    1.3481 H   0  0  0  0  0  0  0  0  0  0  0  0
   -3.3449    1.4473    0.2676 H   0  0  0  0  0  0  0  0  0  0  0  0
   -2.1879    1.2048    1.6045 H   0  0  0  0  0  0  0  0  0  0  0  0
   -0.4828    4.2752    0.9167 H   0  0  0  0  0  0  0  0  0  0  0  0
   -1.1637    0.8186   -3.3746 H   0  0  0  0  0  0  0  0  0  0  0  0
   -0.2302    1.6267   -2.0055 H   0  0  0  0  0  0  0  0  0  0  0  0
    0.8747   -0.4519   -2.9696 H   0  0  0  0  0  0  0  0  0  0  0  0
   -0.4715   -1.3434   -2.1031 H   0  0  0  0  0  0  0  0  0  0  0  0
    3.7059    1.5882    3.1095 H   0  0  0  0  0  0  0  0  0  0  0  0
    2.5766    0.2490    3.5452 H   0  0  0  0  0  0  0  0  0  0  0  0
    4.3972   -0.0168    3.4959 H   0  0  0  0  0  0  0  0  0  0  0  0
    5.5754   -0.1819    1.4067 H   0  0  0  0  0  0  0  0  0  0  0  0
  1  2  1  0
  2  3  1  0
  4  3  1  1
  4  5  1  0
  5  6  1  0
  6  7  2  0
  6  8  1  0
  4  9  1  0
  9 10  1  0
 10 11  1  0
 11 12  1  0
 12 13  2  0
 13 14  1  0
 14 15  1  0
 15 16  2  0
 16 17  1  0
 16 18  1  0
 18 19  2  0
 19 20  1  0
 19 21  1  0
 21 22  1  0
 22 23  3  0
 21 24  2  0
 13  4  1  0
 24 15  1  0
 24 12  1  0
  1 25  1  0
  1 26  1  0
  1 27  1  0
  2 28  1  0
  2 29  1  0
  3 30  1  0
  3 31  1  0
  5 32  1  0
  5 33  1  0
  8 34  1  0
 10 35  1  0
 10 36  1  0
 11 37  1  0
 11 38  1  0
 17 39  1  0
 17 40  1  0
 17 41  1  0
 18 42  1  0
M  END
$$$$
