
     RDKit          3D

 63 67  0  0  0  0  0  0  0  0999 V2000
   -0.2264   -2.5254    1.0738 C   0  0  0  0  0  0  0  0  0  0  0  0
    0.1329   -1.0524    0.9736 C   0  0  0  0  0  0  0  0  0  0  0  0
   -0.8913   -0.3760    0.1283 C   0  0  0  0  0  0  0  0  0  0  0  0
   -0.5747    0.2439   -0.9136 O   0  0  0  0  0  0  0  0  0  0  0  0
   -2.2726   -0.4019    0.4632 N   0  0  0  0  0  0  0  0  0  0  0  0
   -3.2772    0.2619   -0.3665 C   0  0  1  0  0  0  0  0  0  0  0  0
   -4.3195   -0.6937   -0.8563 C   0  0  0  0  0  0  0  0  0  0  0  0
   -5.2009   -1.2115    0.2604 C   0  0  0  0  0  0  0  0  0  0  0  0
   -5.8837   -0.0612    0.9547 C   0  0  0  0  0  0  0  0  0  0  0  0
   -4.7809    0.8169    1.5386 C   0  0  0  0  0  0  0  0  0  0  0  0
   -3.9658    1.3697    0.4146 C   0  0  0  0  0  0  0  0  0  0  0  0
   -4.7787    2.1753   -0.5613 C   0  0  0  0  0  0  0  0  0  0  0  0
   -5.8384    1.2568   -1.1350 C   0  0  2  0  0  0  0  0  0  0  0  0
   -6.5858    1.9737   -2.0373 O   0  0  0  0  0  0  0  0  0  0  0  0
   -6.6933    0.7832    0.0234 C   0  0  0  0  0  0  0  0  0  0  0  0
   -5.2176    0.0555   -1.8175 C   0  0  0  0  0  0  0  0  0  0  0  0
    1.4663   -0.8498    0.5151 N   0  0  0  0  0  0  0  0  0  0  0  0
    1.8696    0.5234    0.5043 C   0  0  0  0  0  0  0  0  0  0  0  0
    3.0829    0.6053   -0.4093 C   0  0  0  0  0  0  0  0  0  0  0  0
    4.0924   -0.2596    0.2085 N   0  0  0  0  0  0  0  0  0  0  0  0
    5.4493    0.0162   -0.1155 C   0  0  0  0  0  0  0  0  0  0  0  0
    6.4901   -0.7362    0.4091 C   0  0  0  0  0  0  0  0  0  0  0  0
    7.8154   -0.4946    0.1150 C   0  0  0  0  0  0  0  0  0  0  0  0
    8.1459    0.5381   -0.7381 C   0  0  0  0  0  0  0  0  0  0  0  0
    9.5711    0.8298   -1.0798 C   0  0  0  0  0  0  0  0  0  0  0  0
    9.9815    0.0448   -2.1151 F   0  0  0  0  0  0  0  0  0  0  0  0
   10.3496    0.7065    0.0527 F   0  0  0  0  0  0  0  0  0  0  0  0
    9.6226    2.1597   -1.4584 F   0  0  0  0  0  0  0  0  0  0  0  0
    7.1013    1.2767   -1.2512 C   0  0  0  0  0  0  0  0  0  0  0  0
    5.8164    1.0184   -0.9469 N   0  0  0  0  0  0  0  0  0  0  0  0
    3.8078   -1.3358    1.0941 C   0  0  0  0  0  0  0  0  0  0  0  0
    2.3689   -1.5719    1.3802 C   0  0  0  0  0  0  0  0  0  0  0  0
   -1.3226   -2.5620    1.2913 H   0  0  0  0  0  0  0  0  0  0  0  0
    0.0121   -3.0931    0.1753 H   0  0  0  0  0  0  0  0  0  0  0  0
    0.2507   -2.9770    1.9924 H   0  0  0  0  0  0  0  0  0  0  0  0
    0.0387   -0.6301    1.9913 H   0  0  0  0  0  0  0  0  0  0  0  0
   -2.5330   -0.9210    1.3350 H   0  0  0  0  0  0  0  0  0  0  0  0
   -2.7732    0.7297   -1.2116 H   0  0  0  0  0  0  0  0  0  0  0  0
   -3.8967   -1.5499   -1.4006 H   0  0  0  0  0  0  0  0  0  0  0  0
   -4.6696   -1.8153    0.9978 H   0  0  0  0  0  0  0  0  0  0  0  0
   -6.0146   -1.8052   -0.2479 H   0  0  0  0  0  0  0  0  0  0  0  0
   -6.5413   -0.4427    1.7448 H   0  0  0  0  0  0  0  0  0  0  0  0
   -5.1998    1.6413    2.1261 H   0  0  0  0  0  0  0  0  0  0  0  0
   -4.1440    0.1472    2.1404 H   0  0  0  0  0  0  0  0  0  0  0  0
   -3.1363    1.9767    0.8651 H   0  0  0  0  0  0  0  0  0  0  0  0
   -4.1057    2.5800   -1.3349 H   0  0  0  0  0  0  0  0  0  0  0  0
   -5.2906    2.9705   -0.0132 H   0  0  0  0  0  0  0  0  0  0  0  0
   -6.7435    2.8945   -1.6871 H   0  0  0  0  0  0  0  0  0  0  0  0
   -6.9728    1.7165    0.5950 H   0  0  0  0  0  0  0  0  0  0  0  0
   -7.6153    0.3139   -0.3315 H   0  0  0  0  0  0  0  0  0  0  0  0
   -6.0789   -0.6184   -2.0833 H   0  0  0  0  0  0  0  0  0  0  0  0
   -4.6820    0.3333   -2.7293 H   0  0  0  0  0  0  0  0  0  0  0  0
    1.1254    1.2636    0.2468 H   0  0  0  0  0  0  0  0  0  0  0  0
    2.2291    0.7751    1.5275 H   0  0  0  0  0  0  0  0  0  0  0  0
    3.4329    1.6516   -0.4733 H   0  0  0  0  0  0  0  0  0  0  0  0
    2.8265    0.2204   -1.4358 H   0  0  0  0  0  0  0  0  0  0  0  0
    6.2414   -1.5423    1.0742 H   0  0  0  0  0  0  0  0  0  0  0  0
    8.6226   -1.0971    0.5370 H   0  0  0  0  0  0  0  0  0  0  0  0
    7.3293    2.0829   -1.9150 H   0  0  0  0  0  0  0  0  0  0  0  0
    4.2660   -2.2666    0.6546 H   0  0  0  0  0  0  0  0  0  0  0  0
    4.3954   -1.1638    2.0413 H   0  0  0  0  0  0  0  0  0  0  0  0
    2.1603   -1.2290    2.4233 H   0  0  0  0  0  0  0  0  0  0  0  0
    2.1324   -2.6693    1.2673 H   0  0  0  0  0  0  0  0  0  0  0  0
  1  2  1  0
  2  3  1  0
  3  4  2  0
  3  5  1  0
  5  6  1  0
  6  7  1  0
  7  8  1  0
  8  9  1  0
  9 10  1  0
 10 11  1  0
 11 12  1  0
 12 13  1  0
 13 14  1  6
 13 15  1  0
 13 16  1  0
  2 17  1  0
 17 18  1  0
 18 19  1  0
 19 20  1  0
 20 21  1  0
 21 22  2  0
 22 23  1  0
 23 24  2  0
 24 25  1  0
 25 26  1  0
 25 27  1  0
 25 28  1  0
 24 29  1  0
 29 30  2  0
 20 31  1  0
 31 32  1  0
 11  6  1  0
 32 17  1  0
 16  7  1  0
 30 21  1  0
 15  9  1  0
  1 33  1  0
  1 34  1  0
  1 35  1  0
  2 36  1  0
  5 37  1  0
  6 38  1  6
  7 39  1  0
  8 40  1  0
  8 41  1  0
  9 42  1  0
 10 43  1  0
 10 44  1  0
 11 45  1  0
 12 46  1  0
 12 47  1  0
 14 48  1  0
 15 49  1  0
 15 50  1  0
 16 51  1  0
 16 52  1  0
 18 53  1  0
 18 54  1  0
 19 55  1  0
 19 56  1  0
 22 57  1  0
 23 58  1  0
 29 59  1  0
 31 60  1  0
 31 61  1  0
 32 62  1  0
 32 63  1  0
M  END
$$$$
