
     RDKit          3D

 55 58  0  0  0  0  0  0  0  0999 V2000
   -2.8139    3.7833   -1.0945 C   0  0  0  0  0  0  0  0  0  0  0  0
   -2.4624    3.3979    0.3402 C   0  0  0  0  0  0  0  0  0  0  0  0
   -2.4485    1.9122    0.3803 C   0  0  0  0  0  0  0  0  0  0  0  0
   -1.3287    1.1622    0.1287 C   0  0  0  0  0  0  0  0  0  0  0  0
   -1.3633   -0.1969    0.1768 C   0  0  0  0  0  0  0  0  0  0  0  0
   -0.1346   -0.9907   -0.1036 C   0  0  2  0  0  0  0  0  0  0  0  0
    0.9509   -0.6195    0.8580 C   0  0  0  0  0  0  0  0  0  0  0  0
    0.8036   -0.8902    2.1967 C   0  0  0  0  0  0  0  0  0  0  0  0
    1.7848   -0.5632    3.1287 C   0  0  0  0  0  0  0  0  0  0  0  0
    2.9251    0.0482    2.6662 C   0  0  0  0  0  0  0  0  0  0  0  0
    3.0666    0.3196    1.3045 C   0  0  0  0  0  0  0  0  0  0  0  0
    4.2715    0.9675    0.8131 C   0  0  0  0  0  0  0  0  0  0  0  0
    4.8149    2.0570    1.4326 C   0  0  0  0  0  0  0  0  0  0  0  0
    5.9555    2.6448    0.9389 C   0  0  0  0  0  0  0  0  0  0  0  0
    6.5299    2.1146   -0.1820 C   0  0  0  0  0  0  0  0  0  0  0  0
    6.0003    1.0375   -0.8017 N   0  0  0  0  0  0  0  0  0  0  0  0
    4.8905    0.4727   -0.3138 C   0  0  0  0  0  0  0  0  0  0  0  0
    4.3429   -0.6231   -0.9336 F   0  0  0  0  0  0  0  0  0  0  0  0
    2.0854   -0.0101    0.3920 C   0  0  0  0  0  0  0  0  0  0  0  0
    0.3507   -0.7703   -1.4330 N   0  0  0  0  0  0  0  0  0  0  0  0
    0.3858   -1.8341   -2.1358 C   0  0  0  0  0  0  0  0  0  0  0  0
    0.8210   -1.9579   -3.5130 N   0  0  0  0  0  0  0  0  0  0  0  0
   -0.0651   -2.9331   -1.3537 N   0  0  0  0  0  0  0  0  0  0  0  0
   -0.1804   -4.3354   -1.7848 C   0  0  0  0  0  0  0  0  0  0  0  0
   -0.3922   -2.4468   -0.0642 C   0  0  0  0  0  0  0  0  0  0  0  0
   -0.8115   -3.1922    0.8648 O   0  0  0  0  0  0  0  0  0  0  0  0
   -2.5509   -0.8164    0.4847 C   0  0  0  0  0  0  0  0  0  0  0  0
   -3.6869   -0.0401    0.7396 C   0  0  0  0  0  0  0  0  0  0  0  0
   -4.9610   -0.7271    1.0709 C   0  0  0  0  0  0  0  0  0  0  0  0
   -5.6945   -0.9767   -0.2524 C   0  0  0  0  0  0  0  0  0  0  0  0
   -3.6057    1.3003    0.6807 N   0  0  0  0  0  0  0  0  0  0  0  0
   -3.2983    4.7761   -1.1470 H   0  0  0  0  0  0  0  0  0  0  0  0
   -1.8782    3.7312   -1.6733 H   0  0  0  0  0  0  0  0  0  0  0  0
   -3.5051    3.0278   -1.5338 H   0  0  0  0  0  0  0  0  0  0  0  0
   -3.2810    3.7976    0.9787 H   0  0  0  0  0  0  0  0  0  0  0  0
   -1.5228    3.8430    0.6701 H   0  0  0  0  0  0  0  0  0  0  0  0
   -0.4146    1.6992   -0.1101 H   0  0  0  0  0  0  0  0  0  0  0  0
   -0.1126   -1.3739    2.5190 H   0  0  0  0  0  0  0  0  0  0  0  0
    1.6182   -0.7982    4.1662 H   0  0  0  0  0  0  0  0  0  0  0  0
    3.7132    0.3169    3.3726 H   0  0  0  0  0  0  0  0  0  0  0  0
    4.3406    2.4677    2.3294 H   0  0  0  0  0  0  0  0  0  0  0  0
    6.3840    3.5146    1.4386 H   0  0  0  0  0  0  0  0  0  0  0  0
    7.4328    2.5481   -0.6064 H   0  0  0  0  0  0  0  0  0  0  0  0
    2.2296    0.2195   -0.6770 H   0  0  0  0  0  0  0  0  0  0  0  0
    0.3713   -1.4406   -4.2812 H   0  0  0  0  0  0  0  0  0  0  0  0
    1.6222   -2.6095   -3.6643 H   0  0  0  0  0  0  0  0  0  0  0  0
    0.3503   -4.4896   -2.7251 H   0  0  0  0  0  0  0  0  0  0  0  0
   -1.2576   -4.5799   -1.8371 H   0  0  0  0  0  0  0  0  0  0  0  0
    0.2587   -5.0141   -1.0135 H   0  0  0  0  0  0  0  0  0  0  0  0
   -2.6738   -1.8781    0.5433 H   0  0  0  0  0  0  0  0  0  0  0  0
   -4.7239   -1.7281    1.4713 H   0  0  0  0  0  0  0  0  0  0  0  0
   -5.5927   -0.1312    1.7544 H   0  0  0  0  0  0  0  0  0  0  0  0
   -6.3828   -1.8461   -0.1612 H   0  0  0  0  0  0  0  0  0  0  0  0
   -6.2340   -0.0836   -0.5953 H   0  0  0  0  0  0  0  0  0  0  0  0
   -4.9231   -1.2631   -1.0166 H   0  0  0  0  0  0  0  0  0  0  0  0
  1  2  1  0
  2  3  1  0
  3  4  2  0
  4  5  1  0
  6  5  1  1
  6  7  1  0
  7  8  2  0
  8  9  1  0
  9 10  2  0
 10 11  1  0
 11 12  1  0
 12 13  2  0
 13 14  1  0
 14 15  2  0
 15 16  1  0
 16 17  2  0
 17 18  1  0
 11 19  2  0
  6 20  1  0
 20 21  2  0
 21 22  1  0
 21 23  1  0
 23 24  1  0
 23 25  1  0
 25 26  2  0
  5 27  2  0
 27 28  1  0
 28 29  1  0
 29 30  1  0
 28 31  2  0
 31  3  1  0
 25  6  1  0
 19  7  1  0
 17 12  1  0
  1 32  1  0
  1 33  1  0
  1 34  1  0
  2 35  1  0
  2 36  1  0
  4 37  1  0
  8 38  1  0
  9 39  1  0
 10 40  1  0
 13 41  1  0
 14 42  1  0
 15 43  1  0
 19 44  1  0
 22 45  1  0
 22 46  1  0
 24 47  1  0
 24 48  1  0
 24 49  1  0
 27 50  1  0
 29 51  1  0
 29 52  1  0
 30 53  1  0
 30 54  1  0
 30 55  1  0
M  END
$$$$
