
     RDKit          3D

 53 53  0  0  0  0  0  0  0  0999 V2000
    5.4942    0.7025    0.4493 C   0  0  0  0  0  0  0  0  0  0  0  0
    5.5812   -0.6546    1.0335 C   0  0  0  0  0  0  0  0  0  0  0  0
    4.8709   -1.7478    0.3602 C   0  0  0  0  0  0  0  0  0  0  0  0
    3.3939   -1.6851    0.3298 C   0  0  0  0  0  0  0  0  0  0  0  0
    2.8368   -0.5046   -0.3508 C   0  0  0  0  0  0  0  0  0  0  0  0
    1.2916   -0.5674   -0.4195 C   0  0  0  0  0  0  0  0  0  0  0  0
    0.6706   -0.6327    1.2514 P   0  0  0  0  0  0  0  0  0  0  0  0
    0.7764   -2.2255    1.8157 O   0  0  0  0  0  0  0  0  0  0  0  0
    1.6541    0.1813    2.1109 O   0  0  0  0  0  0  0  0  0  0  0  0
   -0.8594   -0.0055    1.4761 O   0  0  0  0  0  0  0  0  0  0  0  0
   -1.4941    0.4659    0.3557 C   0  0  2  0  0  0  0  0  0  0  0  0
   -1.4311    2.0069    0.5017 C   0  0  0  0  0  0  0  0  0  0  0  0
   -1.9869    2.5354   -0.8030 C   0  0  2  0  0  0  0  0  0  0  0  0
   -1.5886    3.9362   -1.1163 C   0  0  0  0  0  0  0  0  0  0  0  0
   -3.4914    2.3573   -0.6691 C   0  0  0  0  0  0  0  0  0  0  0  0
   -3.8204    0.9185   -0.5473 C   0  0  0  0  0  0  0  0  0  0  0  0
   -2.9255    0.0796    0.2927 C   0  0  1  0  0  0  0  0  0  0  0  0
   -3.0331   -1.3722   -0.1401 C   0  0  0  0  0  0  0  0  0  0  0  0
   -4.4995   -1.7940   -0.2207 C   0  0  0  0  0  0  0  0  0  0  0  0
   -2.3657   -2.3320    0.8009 C   0  0  0  0  0  0  0  0  0  0  0  0
    4.8884    1.4357    1.0128 H   0  0  0  0  0  0  0  0  0  0  0  0
    5.1725    0.6756   -0.5938 H   0  0  0  0  0  0  0  0  0  0  0  0
    6.5312    1.1871    0.4716 H   0  0  0  0  0  0  0  0  0  0  0  0
    5.3230   -0.6039    2.1359 H   0  0  0  0  0  0  0  0  0  0  0  0
    6.6805   -0.9366    1.0523 H   0  0  0  0  0  0  0  0  0  0  0  0
    5.2353   -2.7679    0.7093 H   0  0  0  0  0  0  0  0  0  0  0  0
    5.1884   -1.7191   -0.7498 H   0  0  0  0  0  0  0  0  0  0  0  0
    2.9772   -2.6189   -0.1491 H   0  0  0  0  0  0  0  0  0  0  0  0
    2.9949   -1.6836    1.4030 H   0  0  0  0  0  0  0  0  0  0  0  0
    3.0558    0.4568    0.1598 H   0  0  0  0  0  0  0  0  0  0  0  0
    3.1964   -0.4457   -1.3822 H   0  0  0  0  0  0  0  0  0  0  0  0
    1.0325    0.3535   -0.9869 H   0  0  0  0  0  0  0  0  0  0  0  0
    0.9816   -1.4496   -0.9763 H   0  0  0  0  0  0  0  0  0  0  0  0
    0.8395   -2.8127    1.0247 H   0  0  0  0  0  0  0  0  0  0  0  0
   -0.9372    0.2277   -0.5876 H   0  0  0  0  0  0  0  0  0  0  0  0
   -0.4000    2.3425    0.6880 H   0  0  0  0  0  0  0  0  0  0  0  0
   -2.1217    2.2583    1.3187 H   0  0  0  0  0  0  0  0  0  0  0  0
   -1.6616    1.8486   -1.6232 H   0  0  0  0  0  0  0  0  0  0  0  0
   -2.0651    4.6433   -0.4363 H   0  0  0  0  0  0  0  0  0  0  0  0
   -0.4963    4.0101   -1.0144 H   0  0  0  0  0  0  0  0  0  0  0  0
   -1.8197    4.1109   -2.1878 H   0  0  0  0  0  0  0  0  0  0  0  0
   -4.0163    2.7733   -1.5351 H   0  0  0  0  0  0  0  0  0  0  0  0
   -3.7767    2.9210    0.2511 H   0  0  0  0  0  0  0  0  0  0  0  0
   -4.8548    0.8710   -0.1093 H   0  0  0  0  0  0  0  0  0  0  0  0
   -3.9608    0.5189   -1.5808 H   0  0  0  0  0  0  0  0  0  0  0  0
   -3.3356    0.0839    1.3455 H   0  0  0  0  0  0  0  0  0  0  0  0
   -2.6286   -1.5478   -1.1567 H   0  0  0  0  0  0  0  0  0  0  0  0
   -5.0693   -1.4743    0.6726 H   0  0  0  0  0  0  0  0  0  0  0  0
   -4.9489   -1.4651   -1.1800 H   0  0  0  0  0  0  0  0  0  0  0  0
   -4.5010   -2.9037   -0.2330 H   0  0  0  0  0  0  0  0  0  0  0  0
   -1.4433   -2.7605    0.3089 H   0  0  0  0  0  0  0  0  0  0  0  0
   -3.0029   -3.2567    0.9494 H   0  0  0  0  0  0  0  0  0  0  0  0
   -2.1315   -1.9342    1.7928 H   0  0  0  0  0  0  0  0  0  0  0  0
  1  2  1  0
  2  3  1  0
  3  4  1  0
  4  5  1  0
  5  6  1  0
  6  7  1  0
  7  8  1  0
  7  9  2  0
  7 10  1  0
 10 11  1  0
 11 12  1  0
 12 13  1  0
 13 14  1  0
 13 15  1  0
 15 16  1  0
 16 17  1  0
 17 18  1  0
 18 19  1  0
 18 20  1  0
 17 11  1  0
  1 21  1  0
  1 22  1  0
  1 23  1  0
  2 24  1  0
  2 25  1  0
  3 26  1  0
  3 27  1  0
  4 28  1  0
  4 29  1  0
  5 30  1  0
  5 31  1  0
  6 32  1  0
  6 33  1  0
  8 34  1  0
 11 35  1  6
 12 36  1  0
 12 37  1  0
 13 38  1  6
 14 39  1  0
 14 40  1  0
 14 41  1  0
 15 42  1  0
 15 43  1  0
 16 44  1  0
 16 45  1  0
 17 46  1  1
 18 47  1  0
 19 48  1  0
 19 49  1  0
 19 50  1  0
 20 51  1  0
 20 52  1  0
 20 53  1  0
M  END
$$$$
