
     RDKit          3D

 51 56  0  0  0  0  0  0  0  0999 V2000
   -4.2076    0.8135    1.0774 C   0  0  0  0  0  0  0  0  0  0  0  0
   -3.4648   -0.3680    0.5465 C   0  0  0  0  0  0  0  0  0  0  0  0
   -3.8914   -1.5064    0.0362 N   0  0  0  0  0  0  0  0  0  0  0  0
   -2.8928   -2.2943   -0.3183 N   0  0  0  0  0  0  0  0  0  0  0  0
   -2.9457   -3.6171   -0.9118 C   0  0  0  0  0  0  0  0  0  0  0  0
   -4.3793   -4.1537   -1.0520 C   0  0  0  0  0  0  0  0  0  0  0  0
   -3.5148   -3.8436   -2.2426 C   0  0  0  0  0  0  0  0  0  0  0  0
   -1.7397   -1.6189   -0.0164 C   0  0  0  0  0  0  0  0  0  0  0  0
   -2.0746   -0.4104    0.5261 C   0  0  0  0  0  0  0  0  0  0  0  0
   -0.8317    0.3166    0.8511 C   0  0  0  0  0  0  0  0  0  0  0  0
   -0.7941    1.6635    0.2368 C   0  0  0  0  0  0  0  0  0  0  0  0
   -0.5282    1.8612   -1.0966 C   0  0  0  0  0  0  0  0  0  0  0  0
   -0.5070    3.1393   -1.6152 C   0  0  0  0  0  0  0  0  0  0  0  0
   -0.7465    4.2593   -0.8381 C   0  0  0  0  0  0  0  0  0  0  0  0
   -0.7162    5.8753   -1.5102 Cl  0  0  0  0  0  0  0  0  0  0  0  0
   -1.0151    4.0676    0.5063 C   0  0  0  0  0  0  0  0  0  0  0  0
   -1.0322    2.7819    1.0074 C   0  0  0  0  0  0  0  0  0  0  0  0
    0.2308   -0.5294    0.4704 N   0  0  0  0  0  0  0  0  0  0  0  0
    1.6521   -0.3074    0.5686 C   0  0  0  0  0  0  0  0  0  0  0  0
    2.2707   -0.7103    1.7242 C   0  0  0  0  0  0  0  0  0  0  0  0
    3.6418   -0.5098    1.8494 C   0  0  0  0  0  0  0  0  0  0  0  0
    4.3087   -0.9438    3.0944 C   0  0  0  0  0  0  0  0  0  0  0  0
    4.3772    0.0798    0.8428 C   0  0  0  0  0  0  0  0  0  0  0  0
    5.6751    0.3940    0.6842 N   0  0  0  0  0  0  0  0  0  0  0  0
    5.7892    0.9508   -0.5086 N   0  0  0  0  0  0  0  0  0  0  0  0
    4.6309    1.0092   -1.1218 N   0  0  0  0  0  0  0  0  0  0  0  0
    4.3858    1.5603   -2.4516 C   0  0  0  0  0  0  0  0  0  0  0  0
    3.7031    0.4649   -0.2961 C   0  0  0  0  0  0  0  0  0  0  0  0
    2.3550    0.2646   -0.4124 N   0  0  0  0  0  0  0  0  0  0  0  0
   -0.2898   -1.7293   -0.0674 C   0  0  0  0  0  0  0  0  0  0  0  0
    0.3182   -2.7357   -0.5196 O   0  0  0  0  0  0  0  0  0  0  0  0
   -3.8914    0.9984    2.1449 H   0  0  0  0  0  0  0  0  0  0  0  0
   -3.9261    1.6987    0.4717 H   0  0  0  0  0  0  0  0  0  0  0  0
   -5.2931    0.6839    1.0050 H   0  0  0  0  0  0  0  0  0  0  0  0
   -2.1854   -4.3720   -0.5582 H   0  0  0  0  0  0  0  0  0  0  0  0
   -5.2091   -3.4552   -0.9003 H   0  0  0  0  0  0  0  0  0  0  0  0
   -4.5345   -5.1946   -0.7289 H   0  0  0  0  0  0  0  0  0  0  0  0
   -3.7754   -2.9679   -2.8755 H   0  0  0  0  0  0  0  0  0  0  0  0
   -3.1828   -4.7124   -2.8179 H   0  0  0  0  0  0  0  0  0  0  0  0
   -0.7407    0.4614    1.9674 H   0  0  0  0  0  0  0  0  0  0  0  0
   -0.3388    0.9810   -1.7130 H   0  0  0  0  0  0  0  0  0  0  0  0
   -0.2956    3.2829   -2.6708 H   0  0  0  0  0  0  0  0  0  0  0  0
   -1.2118    4.9278    1.1640 H   0  0  0  0  0  0  0  0  0  0  0  0
   -1.2510    2.6864    2.0827 H   0  0  0  0  0  0  0  0  0  0  0  0
    1.7400   -1.1822    2.5538 H   0  0  0  0  0  0  0  0  0  0  0  0
    4.3889   -2.0406    3.0775 H   0  0  0  0  0  0  0  0  0  0  0  0
    3.7113   -0.6316    3.9899 H   0  0  0  0  0  0  0  0  0  0  0  0
    5.2798   -0.4309    3.1826 H   0  0  0  0  0  0  0  0  0  0  0  0
    3.2962    1.5762   -2.6525 H   0  0  0  0  0  0  0  0  0  0  0  0
    4.8071    2.5656   -2.5263 H   0  0  0  0  0  0  0  0  0  0  0  0
    4.8454    0.9013   -3.2390 H   0  0  0  0  0  0  0  0  0  0  0  0
  1  2  1  0
  2  3  2  0
  3  4  1  0
  4  5  1  0
  5  6  1  0
  6  7  1  0
  4  8  1  0
  8  9  2  0
  9 10  1  0
 10 11  1  0
 11 12  2  0
 12 13  1  0
 13 14  2  0
 14 15  1  0
 14 16  1  0
 16 17  2  0
 10 18  1  0
 18 19  1  0
 19 20  2  0
 20 21  1  0
 21 22  1  0
 21 23  2  0
 23 24  1  0
 24 25  2  0
 25 26  1  0
 26 27  1  0
 26 28  1  0
 28 29  2  0
 18 30  1  0
 30 31  2  0
  9  2  1  0
 17 11  1  0
 29 19  1  0
  7  5  1  0
 30  8  1  0
 28 23  1  0
  1 32  1  0
  1 33  1  0
  1 34  1  0
  5 35  1  0
  6 36  1  0
  6 37  1  0
  7 38  1  0
  7 39  1  0
 10 40  1  0
 12 41  1  0
 13 42  1  0
 16 43  1  0
 17 44  1  0
 20 45  1  0
 22 46  1  0
 22 47  1  0
 22 48  1  0
 27 49  1  0
 27 50  1  0
 27 51  1  0
M  END
$$$$
