
     RDKit          3D

 26 27  0  0  0  0  0  0  0  0999 V2000
   -0.8812   -1.8289    1.1930 C   0  0  0  0  0  0  0  0  0  0  0  0
   -0.7992   -0.6438    0.2590 C   0  0  0  0  0  0  0  0  0  0  0  0
   -2.2052   -0.3452   -0.2363 C   0  0  0  0  0  0  0  0  0  0  0  0
   -0.1168    0.5330    0.8386 C   0  0  2  0  0  0  0  0  0  0  0  0
   -0.9271    1.7517    0.6059 C   0  0  0  0  0  0  0  0  0  0  0  0
   -2.1118    1.9011    1.0139 O   0  0  0  0  0  0  0  0  0  0  0  0
   -0.3878    2.8132   -0.0977 O   0  0  0  0  0  0  0  0  0  0  0  0
    1.1673    0.7001    0.2846 N   0  0  0  0  0  0  0  0  0  0  0  0
    2.5194    1.0687    0.1827 C   0  0  0  0  0  0  0  0  0  0  0  0
    3.2098    2.0010    0.6129 O   0  0  0  0  0  0  0  0  0  0  0  0
    2.7284   -0.1332   -0.6491 C   0  0  0  0  0  0  0  0  0  0  0  0
    1.3105    0.1946   -1.0666 C   0  0  1  0  0  0  0  0  0  0  0  0
    0.1919   -1.1725   -1.1505 S   0  0  0  0  0  6  0  0  0  0  0  0
    0.8374   -2.4808   -0.9011 O   0  0  0  0  0  0  0  0  0  0  0  0
   -0.6111   -1.1130   -2.3922 O   0  0  0  0  0  0  0  0  0  0  0  0
   -1.4675   -1.5235    2.1057 H   0  0  0  0  0  0  0  0  0  0  0  0
   -1.4786   -2.6141    0.6625 H   0  0  0  0  0  0  0  0  0  0  0  0
    0.1068   -2.2123    1.4503 H   0  0  0  0  0  0  0  0  0  0  0  0
   -2.1734    0.5454   -0.8778 H   0  0  0  0  0  0  0  0  0  0  0  0
   -2.5863   -1.1745   -0.8774 H   0  0  0  0  0  0  0  0  0  0  0  0
   -2.9248   -0.2393    0.5806 H   0  0  0  0  0  0  0  0  0  0  0  0
   -0.1135    0.3849    1.9597 H   0  0  0  0  0  0  0  0  0  0  0  0
   -0.8131    3.7170   -0.1897 H   0  0  0  0  0  0  0  0  0  0  0  0
    3.4849   -0.0396   -1.4497 H   0  0  0  0  0  0  0  0  0  0  0  0
    2.8004   -1.0315   -0.0095 H   0  0  0  0  0  0  0  0  0  0  0  0
    1.2405    0.9418   -1.8517 H   0  0  0  0  0  0  0  0  0  0  0  0
  1  2  1  0
  2  3  1  0
  2  4  1  0
  4  5  1  0
  5  6  2  0
  5  7  1  0
  4  8  1  0
  8  9  1  0
  9 10  2  0
  9 11  1  0
 11 12  1  0
 12 13  1  0
 13 14  2  0
 13 15  2  0
 13  2  1  0
 12  8  1  0
  1 16  1  0
  1 17  1  0
  1 18  1  0
  3 19  1  0
  3 20  1  0
  3 21  1  0
  4 22  1  1
  7 23  1  0
 11 24  1  0
 11 25  1  0
 12 26  1  6
M  END
$$$$
