
     RDKit          3D

 32 33  0  0  0  0  0  0  0  0999 V2000
   -0.7273   -1.8435    0.4410 O   0  0  0  0  0  0  0  0  0  0  0  0
   -1.8595   -1.4053    0.5863 C   0  0  0  0  0  0  0  0  0  0  0  0
   -2.7399   -2.1627    1.3883 O   0  0  0  0  0  0  0  0  0  0  0  0
   -2.3108   -0.1666   -0.0234 C   0  0  0  0  0  0  0  0  0  0  0  0
   -3.6509    0.2106    0.1939 C   0  0  0  0  0  0  0  0  0  0  0  0
   -4.1887    1.3345   -0.3392 C   0  0  0  0  0  0  0  0  0  0  0  0
   -3.3704    2.1214   -1.1207 C   0  0  0  0  0  0  0  0  0  0  0  0
   -2.0719    1.7593   -1.3329 C   0  0  0  0  0  0  0  0  0  0  0  0
   -1.4850    0.5912   -0.7879 C   0  0  0  0  0  0  0  0  0  0  0  0
   -0.1474    0.3854   -1.1088 N   0  0  0  0  0  0  0  0  0  0  0  0
    1.0298    0.2092   -0.3807 C   0  0  0  0  0  0  0  0  0  0  0  0
    1.8005   -0.9371   -0.6839 C   0  0  0  0  0  0  0  0  0  0  0  0
    2.9630   -1.2623   -0.0484 C   0  0  0  0  0  0  0  0  0  0  0  0
    3.7551   -2.4731   -0.3851 C   0  0  0  0  0  0  0  0  0  0  0  0
    4.9802   -2.1354   -0.9489 F   0  0  0  0  0  0  0  0  0  0  0  0
    3.1017   -3.2626   -1.3104 F   0  0  0  0  0  0  0  0  0  0  0  0
    3.9664   -3.2636    0.7363 F   0  0  0  0  0  0  0  0  0  0  0  0
    3.3679   -0.3887    0.9414 C   0  0  0  0  0  0  0  0  0  0  0  0
    2.6484    0.7295    1.2607 C   0  0  0  0  0  0  0  0  0  0  0  0
    1.4523    1.0564    0.5995 C   0  0  0  0  0  0  0  0  0  0  0  0
    0.7763    2.2541    1.0092 N   0  0  0  0  0  4  0  0  0  0  0  0
    0.1577    3.0286    0.3109 O   0  0  0  0  0  0  0  0  0  0  0  0
    0.8821    2.5716    2.3545 O   0  0  0  0  0  1  0  0  0  0  0  0
   -2.4394   -3.0714    1.7154 H   0  0  0  0  0  0  0  0  0  0  0  0
   -4.2476   -0.4309    0.8069 H   0  0  0  0  0  0  0  0  0  0  0  0
   -5.2143    1.6541   -0.1927 H   0  0  0  0  0  0  0  0  0  0  0  0
   -3.7949    3.0273   -1.5538 H   0  0  0  0  0  0  0  0  0  0  0  0
   -1.4248    2.3758   -1.9474 H   0  0  0  0  0  0  0  0  0  0  0  0
    0.0506    0.3497   -2.2039 H   0  0  0  0  0  0  0  0  0  0  0  0
    1.4523   -1.6112   -1.4749 H   0  0  0  0  0  0  0  0  0  0  0  0
    4.3051   -0.6448    1.4593 H   0  0  0  0  0  0  0  0  0  0  0  0
    2.9835    1.4004    2.0393 H   0  0  0  0  0  0  0  0  0  0  0  0
  1  2  2  0
  2  3  1  0
  2  4  1  0
  4  5  2  0
  5  6  1  0
  6  7  2  0
  7  8  1  0
  8  9  2  0
  9 10  1  0
 10 11  1  0
 11 12  2  0
 12 13  1  0
 13 14  1  0
 14 15  1  0
 14 16  1  0
 14 17  1  0
 13 18  2  0
 18 19  1  0
 19 20  2  0
 20 21  1  0
 21 22  2  0
 21 23  1  0
  9  4  1  0
 20 11  1  0
  3 24  1  0
  5 25  1  0
  6 26  1  0
  7 27  1  0
  8 28  1  0
 10 29  1  0
 12 30  1  0
 18 31  1  0
 19 32  1  0
M  CHG  2  21   1  23  -1
M  END
$$$$
