
     RDKit          3D

 82 85  0  0  0  0  0  0  0  0999 V2000
   -9.2232   -1.8000   -0.8113 C   0  0  0  0  0  0  0  0  0  0  0  0
   -8.5102   -1.4705    0.4790 C   0  0  0  0  0  0  0  0  0  0  0  0
   -9.2563   -2.2771    1.5520 C   0  0  0  0  0  0  0  0  0  0  0  0
   -8.6275   -0.0202    0.8273 C   0  0  0  0  0  0  0  0  0  0  0  0
   -8.0793    0.9492   -0.1695 C   0  0  1  0  0  0  0  0  0  0  0  0
   -8.3094    2.3078    0.4023 N   0  0  0  0  0  0  0  0  0  0  0  0
   -7.9424    3.4117   -0.4039 C   0  0  0  0  0  0  0  0  0  0  0  0
   -8.2705    4.7006    0.1420 N   0  0  0  0  0  0  0  0  0  0  0  0
   -7.3649    3.3610   -1.5424 N   0  0  0  0  0  0  0  0  0  0  0  0
   -6.6367    0.8131   -0.4440 C   0  0  0  0  0  0  0  0  0  0  0  0
   -5.8899    1.7593   -0.0476 O   0  0  0  0  0  0  0  0  0  0  0  0
   -5.9246   -0.2165   -1.0917 N   0  0  0  0  0  0  0  0  0  0  0  0
   -4.5216   -0.3478   -1.3588 C   0  0  0  0  0  0  0  0  0  0  0  0
   -3.7055   -0.3216   -0.1152 C   0  0  0  0  0  0  0  0  0  0  0  0
   -3.9753   -0.1950    1.1055 O   0  0  0  0  0  0  0  0  0  0  0  0
   -2.2752   -0.4560   -0.1157 N   0  0  0  0  0  0  0  0  0  0  0  0
   -1.7516   -0.3458    1.2473 C   0  0  0  0  0  0  0  0  0  0  0  0
   -0.3764   -1.0259    1.2293 C   0  0  0  0  0  0  0  0  0  0  0  0
    0.3451   -0.6590   -0.0157 C   0  0  0  0  0  0  0  0  0  0  0  0
   -0.3016   -1.2863   -1.2518 C   0  0  0  0  0  0  0  0  0  0  0  0
   -1.6785   -0.6800   -1.4458 C   0  0  0  0  0  0  0  0  0  0  0  0
    1.7578   -1.0119    0.0636 C   0  0  0  0  0  0  0  0  0  0  0  0
    2.7431   -0.2569   -0.5725 C   0  0  0  0  0  0  0  0  0  0  0  0
    4.0023   -0.7545   -0.3574 C   0  0  0  0  0  0  0  0  0  0  0  0
    3.7579   -1.8362    0.4301 N   0  0  0  0  0  0  0  0  0  0  0  0
    2.4683   -1.9773    0.6681 N   0  0  0  0  0  0  0  0  0  0  0  0
    1.8541   -3.0219    1.4655 C   0  0  0  0  0  0  0  0  0  0  0  0
    5.3575   -0.4003   -0.7450 C   0  0  0  0  0  0  0  0  0  0  0  0
    6.3917   -1.0950   -0.1241 C   0  0  0  0  0  0  0  0  0  0  0  0
    7.7188   -0.8862   -0.4214 C   0  0  0  0  0  0  0  0  0  0  0  0
    8.0531    0.0465   -1.3730 C   0  0  0  0  0  0  0  0  0  0  0  0
    9.2574    0.4038   -1.8175 O   0  0  0  0  0  0  0  0  0  0  0  0
   10.5531    0.0570   -1.5458 C   0  0  0  0  0  0  0  0  0  0  0  0
   10.9052    0.3783   -0.1471 C   0  0  0  0  0  0  0  0  0  0  0  0
   10.9296   -0.2546    1.0727 C   0  0  0  0  0  0  0  0  0  0  0  0
   11.3712    0.5880    2.0769 C   0  0  0  0  0  0  0  0  0  0  0  0
   11.6072    1.7535    1.3880 C   0  0  0  0  0  0  0  0  0  0  0  0
   11.3323    1.6104    0.1036 O   0  0  0  0  0  0  0  0  0  0  0  0
   12.0982    2.9853    1.9984 C   0  0  0  0  0  0  0  0  0  0  0  0
   12.3855    4.2149    1.4751 O   0  0  0  0  0  0  0  0  0  0  0  0
   12.3407    3.0536    3.2281 O   0  0  0  0  0  0  0  0  0  0  0  0
    7.0328    0.7398   -1.9933 C   0  0  0  0  0  0  0  0  0  0  0  0
    7.3161    1.9616   -3.2223 Cl  0  0  0  0  0  0  0  0  0  0  0  0
    5.6764    0.5401   -1.7015 C   0  0  0  0  0  0  0  0  0  0  0  0
    4.4256    1.4300   -2.5131 Cl  0  0  0  0  0  0  0  0  0  0  0  0
   -9.1003   -1.0216   -1.5801 H   0  0  0  0  0  0  0  0  0  0  0  0
  -10.2952   -2.0345   -0.6610 H   0  0  0  0  0  0  0  0  0  0  0  0
   -8.7559   -2.7384   -1.2191 H   0  0  0  0  0  0  0  0  0  0  0  0
   -7.4706   -1.7960    0.5082 H   0  0  0  0  0  0  0  0  0  0  0  0
  -10.3340   -2.1327    1.4115 H   0  0  0  0  0  0  0  0  0  0  0  0
   -8.9673   -3.3378    1.3732 H   0  0  0  0  0  0  0  0  0  0  0  0
   -8.9511   -2.0011    2.5616 H   0  0  0  0  0  0  0  0  0  0  0  0
   -8.1871    0.1907    1.8425 H   0  0  0  0  0  0  0  0  0  0  0  0
   -9.7252    0.1781    0.9698 H   0  0  0  0  0  0  0  0  0  0  0  0
   -8.6418    0.8858   -1.1150 H   0  0  0  0  0  0  0  0  0  0  0  0
   -8.7177    2.4433    1.3440 H   0  0  0  0  0  0  0  0  0  0  0  0
   -9.2104    5.0539   -0.1485 H   0  0  0  0  0  0  0  0  0  0  0  0
   -8.9520    5.5030    0.2308 H   0  0  0  0  0  0  0  0  0  0  0  0
   -7.1225    4.1984   -2.0820 H   0  0  0  0  0  0  0  0  0  0  0  0
   -6.5341   -0.9995   -1.4451 H   0  0  0  0  0  0  0  0  0  0  0  0
   -4.2370    0.5542   -1.9839 H   0  0  0  0  0  0  0  0  0  0  0  0
   -4.3180   -1.2037   -2.0001 H   0  0  0  0  0  0  0  0  0  0  0  0
   -2.3858   -0.9488    1.9158 H   0  0  0  0  0  0  0  0  0  0  0  0
   -1.6426    0.7132    1.5596 H   0  0  0  0  0  0  0  0  0  0  0  0
   -0.5988   -2.1142    1.3059 H   0  0  0  0  0  0  0  0  0  0  0  0
    0.1650   -0.6167    2.1004 H   0  0  0  0  0  0  0  0  0  0  0  0
    0.2912    0.4506   -0.2383 H   0  0  0  0  0  0  0  0  0  0  0  0
   -0.3300   -2.3823   -1.2103 H   0  0  0  0  0  0  0  0  0  0  0  0
    0.3192   -0.9768   -2.1147 H   0  0  0  0  0  0  0  0  0  0  0  0
   -2.2937   -1.4560   -1.9500 H   0  0  0  0  0  0  0  0  0  0  0  0
   -1.6974    0.2090   -2.0710 H   0  0  0  0  0  0  0  0  0  0  0  0
    2.5830    0.6111   -1.1611 H   0  0  0  0  0  0  0  0  0  0  0  0
    1.1542   -3.6593    0.8820 H   0  0  0  0  0  0  0  0  0  0  0  0
    2.6917   -3.7232    1.7572 H   0  0  0  0  0  0  0  0  0  0  0  0
    1.4495   -2.6103    2.3924 H   0  0  0  0  0  0  0  0  0  0  0  0
    6.2581   -1.8578    0.6456 H   0  0  0  0  0  0  0  0  0  0  0  0
    8.5189   -1.4122    0.0436 H   0  0  0  0  0  0  0  0  0  0  0  0
   10.7207   -1.0756   -1.6105 H   0  0  0  0  0  0  0  0  0  0  0  0
   11.2960    0.5558   -2.2182 H   0  0  0  0  0  0  0  0  0  0  0  0
   10.6228   -1.2883    1.1292 H   0  0  0  0  0  0  0  0  0  0  0  0
   11.4796    0.3306    3.1211 H   0  0  0  0  0  0  0  0  0  0  0  0
   11.8583    5.0402    1.7364 H   0  0  0  0  0  0  0  0  0  0  0  0
  1  2  1  0
  2  3  1  0
  2  4  1  0
  4  5  1  0
  5  6  1  0
  6  7  1  0
  7  8  1  0
  7  9  2  3
  5 10  1  0
 10 11  2  0
 10 12  1  0
 12 13  1  0
 13 14  1  0
 14 15  2  0
 14 16  1  0
 16 17  1  0
 17 18  1  0
 18 19  1  0
 19 20  1  0
 20 21  1  0
 19 22  1  0
 22 23  2  0
 23 24  1  0
 24 25  2  0
 25 26  1  0
 26 27  1  0
 24 28  1  0
 28 29  2  0
 29 30  1  0
 30 31  2  0
 31 32  1  0
 32 33  1  0
 33 34  1  0
 34 35  2  0
 35 36  1  0
 36 37  2  0
 37 38  1  0
 37 39  1  0
 39 40  1  0
 39 41  2  0
 31 42  1  0
 42 43  1  0
 42 44  2  0
 44 45  1  0
 21 16  1  0
 26 22  1  0
 44 28  1  0
 38 34  1  0
  1 46  1  0
  1 47  1  0
  1 48  1  0
  2 49  1  0
  3 50  1  0
  3 51  1  0
  3 52  1  0
  4 53  1  0
  4 54  1  0
  5 55  1  6
  6 56  1  0
  8 57  1  0
  8 58  1  0
  9 59  1  0
 12 60  1  0
 13 61  1  0
 13 62  1  0
 17 63  1  0
 17 64  1  0
 18 65  1  0
 18 66  1  0
 19 67  1  0
 20 68  1  0
 20 69  1  0
 21 70  1  0
 21 71  1  0
 23 72  1  0
 27 73  1  0
 27 74  1  0
 27 75  1  0
 29 76  1  0
 30 77  1  0
 33 78  1  0
 33 79  1  0
 35 80  1  0
 36 81  1  0
 40 82  1  0
M  END
$$$$
