
     RDKit          3D

 50 54  0  0  0  0  0  0  0  0999 V2000
    2.7328   -3.9687   -1.4013 O   0  0  0  0  0  0  0  0  0  0  0  0
    1.7787   -3.4936   -0.6965 C   0  0  0  0  0  0  0  0  0  0  0  0
    0.7577   -4.2008   -0.2254 N   0  0  0  0  0  0  0  0  0  0  0  0
   -0.0229   -3.3979    0.4477 N   0  0  0  0  0  0  0  0  0  0  0  0
    0.5224   -2.1471    0.3995 C   0  0  0  0  0  0  0  0  0  0  0  0
    0.0030   -0.9434    1.0033 C   0  0  0  0  0  0  0  0  0  0  0  0
    0.8239   -0.0652    1.6347 C   0  0  0  0  0  0  0  0  0  0  0  0
    0.3213    1.0812    2.2086 C   0  0  0  0  0  0  0  0  0  0  0  0
   -1.0133    1.3215    2.1332 N   0  0  0  0  0  0  0  0  0  0  0  0
   -1.8726    0.4880    1.5210 C   0  0  0  0  0  0  0  0  0  0  0  0
   -3.2538    0.8066    1.4983 N   0  0  0  0  0  0  0  0  0  0  0  0
   -4.2537   -0.0143    0.8239 C   0  0  0  0  0  0  0  0  0  0  0  0
   -4.1037   -0.0183   -0.6709 C   0  0  0  0  0  0  0  0  0  0  0  0
   -4.9809    0.9912   -1.3665 C   0  0  0  0  0  0  0  0  0  0  0  0
   -6.2874    0.9630   -0.9349 O   0  0  0  0  0  0  0  0  0  0  0  0
   -6.2675    1.4073    0.3958 C   0  0  0  0  0  0  0  0  0  0  0  0
   -5.6482    0.3291    1.2261 C   0  0  0  0  0  0  0  0  0  0  0  0
   -1.3424   -0.6738    0.9432 C   0  0  0  0  0  0  0  0  0  0  0  0
    1.6717   -2.2063   -0.3299 N   0  0  0  0  0  0  0  0  0  0  0  0
    2.5258   -1.1069   -0.6057 C   0  0  0  0  0  0  0  0  0  0  0  0
    2.0408    0.0500   -1.1866 C   0  0  0  0  0  0  0  0  0  0  0  0
    2.8667    1.1397   -1.4642 C   0  0  0  0  0  0  0  0  0  0  0  0
    4.2100    1.0847   -1.1592 C   0  0  0  0  0  0  0  0  0  0  0  0
    5.0472    2.1565   -1.4271 C   0  0  0  0  0  0  0  0  0  0  0  0
    6.3971    2.1284   -1.1317 C   0  0  0  0  0  0  0  0  0  0  0  0
    6.9127    0.9731   -0.5450 C   0  0  0  0  0  0  0  0  0  0  0  0
    6.0575   -0.0776   -0.2897 C   0  0  0  0  0  0  0  0  0  0  0  0
    6.5660   -1.1882    0.2771 F   0  0  0  0  0  0  0  0  0  0  0  0
    4.7092   -0.0628   -0.5791 C   0  0  0  0  0  0  0  0  0  0  0  0
    3.8782   -1.1356   -0.3096 C   0  0  0  0  0  0  0  0  0  0  0  0
    0.6351   -5.2288   -0.3886 H   0  0  0  0  0  0  0  0  0  0  0  0
    1.8735   -0.2473    1.6977 H   0  0  0  0  0  0  0  0  0  0  0  0
    0.9484    1.8023    2.7197 H   0  0  0  0  0  0  0  0  0  0  0  0
   -3.5737    1.6644    1.9840 H   0  0  0  0  0  0  0  0  0  0  0  0
   -4.0961   -1.0933    1.1361 H   0  0  0  0  0  0  0  0  0  0  0  0
   -3.0554    0.2476   -0.9381 H   0  0  0  0  0  0  0  0  0  0  0  0
   -4.2664   -1.0294   -1.1008 H   0  0  0  0  0  0  0  0  0  0  0  0
   -4.5735    1.9978   -1.1224 H   0  0  0  0  0  0  0  0  0  0  0  0
   -4.9249    0.7731   -2.4527 H   0  0  0  0  0  0  0  0  0  0  0  0
   -7.3321    1.5104    0.7087 H   0  0  0  0  0  0  0  0  0  0  0  0
   -5.7297    2.3621    0.4156 H   0  0  0  0  0  0  0  0  0  0  0  0
   -6.2855   -0.5842    1.0960 H   0  0  0  0  0  0  0  0  0  0  0  0
   -5.7127    0.5691    2.3154 H   0  0  0  0  0  0  0  0  0  0  0  0
   -2.0384   -1.3282    0.4694 H   0  0  0  0  0  0  0  0  0  0  0  0
    0.9927    0.0773   -1.4182 H   0  0  0  0  0  0  0  0  0  0  0  0
    2.4647    2.0377   -1.9206 H   0  0  0  0  0  0  0  0  0  0  0  0
    4.6190    3.0396   -1.8827 H   0  0  0  0  0  0  0  0  0  0  0  0
    7.0184    2.9775   -1.3527 H   0  0  0  0  0  0  0  0  0  0  0  0
    7.9739    0.9383   -0.3076 H   0  0  0  0  0  0  0  0  0  0  0  0
    4.2867   -2.0439    0.1524 H   0  0  0  0  0  0  0  0  0  0  0  0
  1  2  2  0
  2  3  1  0
  3  4  1  0
  4  5  2  0
  5  6  1  0
  6  7  2  0
  7  8  1  0
  8  9  2  0
  9 10  1  0
 10 11  1  0
 11 12  1  0
 12 13  1  0
 13 14  1  0
 14 15  1  0
 15 16  1  0
 16 17  1  0
 10 18  2  0
  5 19  1  0
 19 20  1  0
 20 21  2  0
 21 22  1  0
 22 23  2  0
 23 24  1  0
 24 25  2  0
 25 26  1  0
 26 27  2  0
 27 28  1  0
 27 29  1  0
 29 30  2  0
 19  2  1  0
 30 20  1  0
 18  6  1  0
 29 23  1  0
 17 12  1  0
  3 31  1  0
  7 32  1  0
  8 33  1  0
 11 34  1  0
 12 35  1  0
 13 36  1  0
 13 37  1  0
 14 38  1  0
 14 39  1  0
 16 40  1  0
 16 41  1  0
 17 42  1  0
 17 43  1  0
 18 44  1  0
 21 45  1  0
 22 46  1  0
 24 47  1  0
 25 48  1  0
 26 49  1  0
 30 50  1  0
M  END
$$$$
