
     RDKit          3D

 49 51  0  0  0  0  0  0  0  0999 V2000
    6.7368   -0.5322    1.6965 C   0  0  0  0  0  0  0  0  0  0  0  0
    5.6577   -1.3108    1.8233 O   0  0  0  0  0  0  0  0  0  0  0  0
    4.4095   -0.9383    1.5541 C   0  0  0  0  0  0  0  0  0  0  0  0
    4.0775   -0.4727    0.1420 C   0  0  2  0  0  0  0  0  0  0  0  0
    4.7434    0.8444   -0.1140 C   0  0  0  0  0  0  0  0  0  0  0  0
    3.6147    1.7858   -0.5456 C   0  0  0  0  0  0  0  0  0  0  0  0
    2.4402    1.1719    0.1981 C   0  0  0  0  0  0  0  0  0  0  0  0
    2.6785   -0.2176    0.0936 N   0  0  0  0  0  0  0  0  0  0  0  0
    1.9091   -0.9565   -1.2599 S   0  0  0  0  0  6  0  0  0  0  0  0
    2.2933   -2.4082   -1.3094 O   0  0  0  0  0  0  0  0  0  0  0  0
    2.3446   -0.3323   -2.5547 O   0  0  0  0  0  0  0  0  0  0  0  0
    0.1775   -0.7980   -1.1598 C   0  0  0  0  0  0  0  0  0  0  0  0
   -0.5866   -1.7511   -0.5297 C   0  0  0  0  0  0  0  0  0  0  0  0
   -1.9651   -1.6354   -0.4440 C   0  0  0  0  0  0  0  0  0  0  0  0
   -2.6227   -0.5455   -0.9958 C   0  0  0  0  0  0  0  0  0  0  0  0
   -1.8312    0.3911   -1.6195 C   0  0  0  0  0  0  0  0  0  0  0  0
   -0.4620    0.2839   -1.7091 C   0  0  0  0  0  0  0  0  0  0  0  0
   -2.7500    1.4392   -2.1186 C   0  0  0  0  0  0  0  0  0  0  0  0
   -2.4083    2.4729   -2.7484 O   0  0  0  0  0  0  0  0  0  0  0  0
   -4.1050    1.0540   -1.7486 C   0  0  0  0  0  0  0  0  0  0  0  0
   -5.1427    1.7351   -2.0246 O   0  0  0  0  0  0  0  0  0  0  0  0
   -3.9910   -0.1694   -1.0603 N   0  0  0  0  0  0  0  0  0  0  0  0
   -5.0799   -0.9406   -0.4966 C   0  0  0  0  0  0  0  0  0  0  0  0
   -5.3432   -0.5243    0.9426 C   0  0  2  0  0  0  0  0  0  0  0  0
   -6.3892   -1.2684    1.4699 O   0  0  0  0  0  0  0  0  0  0  0  0
   -5.6933    0.9491    1.0030 C   0  0  0  0  0  0  0  0  0  0  0  0
   -5.9170    1.3431    2.3306 O   0  0  0  0  0  0  0  0  0  0  0  0
    6.9859   -0.1618    0.7035 H   0  0  0  0  0  0  0  0  0  0  0  0
    6.6571    0.3225    2.4431 H   0  0  0  0  0  0  0  0  0  0  0  0
    7.6234   -1.1217    2.0999 H   0  0  0  0  0  0  0  0  0  0  0  0
    3.7338   -1.8173    1.8220 H   0  0  0  0  0  0  0  0  0  0  0  0
    4.0900   -0.1436    2.2942 H   0  0  0  0  0  0  0  0  0  0  0  0
    4.4067   -1.2512   -0.5887 H   0  0  0  0  0  0  0  0  0  0  0  0
    5.5518    0.8377   -0.8461 H   0  0  0  0  0  0  0  0  0  0  0  0
    5.1664    1.2680    0.8447 H   0  0  0  0  0  0  0  0  0  0  0  0
    3.4167    1.7584   -1.6143 H   0  0  0  0  0  0  0  0  0  0  0  0
    3.8264    2.7881   -0.1686 H   0  0  0  0  0  0  0  0  0  0  0  0
    1.4729    1.4789   -0.2415 H   0  0  0  0  0  0  0  0  0  0  0  0
    2.4666    1.5653    1.2280 H   0  0  0  0  0  0  0  0  0  0  0  0
   -0.1366   -2.6431   -0.0683 H   0  0  0  0  0  0  0  0  0  0  0  0
   -2.5269   -2.4209    0.0679 H   0  0  0  0  0  0  0  0  0  0  0  0
    0.0768    1.0729   -2.2204 H   0  0  0  0  0  0  0  0  0  0  0  0
   -4.8571   -2.0243   -0.5465 H   0  0  0  0  0  0  0  0  0  0  0  0
   -6.0125   -0.7575   -1.0906 H   0  0  0  0  0  0  0  0  0  0  0  0
   -4.4544   -0.7187    1.5716 H   0  0  0  0  0  0  0  0  0  0  0  0
   -6.0488   -2.1003    1.9082 H   0  0  0  0  0  0  0  0  0  0  0  0
   -6.5588    1.1526    0.3721 H   0  0  0  0  0  0  0  0  0  0  0  0
   -4.7931    1.5350    0.6875 H   0  0  0  0  0  0  0  0  0  0  0  0
   -6.8819    1.2530    2.5273 H   0  0  0  0  0  0  0  0  0  0  0  0
  1  2  1  0
  2  3  1  0
  3  4  1  0
  4  5  1  0
  5  6  1  0
  6  7  1  0
  7  8  1  0
  8  9  1  0
  9 10  2  0
  9 11  2  0
  9 12  1  0
 12 13  2  0
 13 14  1  0
 14 15  2  0
 15 16  1  0
 16 17  2  0
 16 18  1  0
 18 19  2  0
 18 20  1  0
 20 21  2  0
 20 22  1  0
 22 23  1  0
 23 24  1  0
 24 25  1  0
 24 26  1  0
 26 27  1  0
  8  4  1  0
 17 12  1  0
 22 15  1  0
  1 28  1  0
  1 29  1  0
  1 30  1  0
  3 31  1  0
  3 32  1  0
  4 33  1  6
  5 34  1  0
  5 35  1  0
  6 36  1  0
  6 37  1  0
  7 38  1  0
  7 39  1  0
 13 40  1  0
 14 41  1  0
 17 42  1  0
 23 43  1  0
 23 44  1  0
 24 45  1  1
 25 46  1  0
 26 47  1  0
 26 48  1  0
 27 49  1  0
M  END
$$$$
