
     RDKit          3D

 30 32  0  0  0  0  0  0  0  0999 V2000
   -2.4652   -2.2823   -0.3442 C   0  0  0  0  0  0  0  0  0  0  0  0
   -1.8139   -1.5961    0.8343 C   0  0  0  0  0  0  0  0  0  0  0  0
   -0.7516   -0.7028    0.4651 N   0  0  0  0  0  0  0  0  0  0  0  0
    0.5422   -1.1318    0.3713 C   0  0  0  0  0  0  0  0  0  0  0  0
    0.7186   -2.3694    0.6354 O   0  0  0  0  0  0  0  0  0  0  0  0
    1.6135   -0.3358    0.0233 C   0  0  0  0  0  0  0  0  0  0  0  0
    1.3892    0.9966   -0.2559 C   0  0  0  0  0  0  0  0  0  0  0  0
    2.5934    1.5217   -0.5602 N   0  0  0  0  0  0  0  0  0  0  0  0
    3.5133    0.5532   -0.4712 N   0  0  0  0  0  0  0  0  0  0  0  0
    2.9567   -0.6067   -0.1151 C   0  0  0  0  0  0  0  0  0  0  0  0
    3.6699   -1.8934    0.0798 C   0  0  0  0  0  0  0  0  0  0  0  0
    0.0961    1.4731   -0.1733 C   0  0  0  0  0  0  0  0  0  0  0  0
   -0.9086    0.5997    0.1828 C   0  0  0  0  0  0  0  0  0  0  0  0
   -2.1746    1.1412    0.2453 C   0  0  0  0  0  0  0  0  0  0  0  0
   -2.4835    2.4634   -0.0194 C   0  0  0  0  0  0  0  0  0  0  0  0
   -1.4374    3.3092   -0.3752 C   0  0  0  0  0  0  0  0  0  0  0  0
   -0.1580    2.7989   -0.4471 C   0  0  0  0  0  0  0  0  0  0  0  0
   -2.3445   -1.7253   -1.2929 H   0  0  0  0  0  0  0  0  0  0  0  0
   -3.5586   -2.4298   -0.1110 H   0  0  0  0  0  0  0  0  0  0  0  0
   -2.0619   -3.3018   -0.5199 H   0  0  0  0  0  0  0  0  0  0  0  0
   -1.3144   -2.4253    1.4195 H   0  0  0  0  0  0  0  0  0  0  0  0
   -2.5060   -1.1372    1.5394 H   0  0  0  0  0  0  0  0  0  0  0  0
    2.7245    2.5350   -0.8179 H   0  0  0  0  0  0  0  0  0  0  0  0
    4.2993   -1.7625    0.9917 H   0  0  0  0  0  0  0  0  0  0  0  0
    2.9981   -2.7268    0.2631 H   0  0  0  0  0  0  0  0  0  0  0  0
    4.3150   -2.1385   -0.7868 H   0  0  0  0  0  0  0  0  0  0  0  0
   -3.0276    0.5359    0.5148 H   0  0  0  0  0  0  0  0  0  0  0  0
   -3.4796    2.8620    0.0363 H   0  0  0  0  0  0  0  0  0  0  0  0
   -1.6276    4.3437   -0.5899 H   0  0  0  0  0  0  0  0  0  0  0  0
    0.6833    3.4319   -0.7221 H   0  0  0  0  0  0  0  0  0  0  0  0
  1  2  1  0
  2  3  1  0
  3  4  1  0
  4  5  2  0
  4  6  1  0
  6  7  2  0
  7  8  1  0
  8  9  1  0
  9 10  2  0
 10 11  1  0
  7 12  1  0
 12 13  2  0
 13 14  1  0
 14 15  2  0
 15 16  1  0
 16 17  2  0
 13  3  1  0
 10  6  1  0
 17 12  1  0
  1 18  1  0
  1 19  1  0
  1 20  1  0
  2 21  1  0
  2 22  1  0
  8 23  1  0
 11 24  1  0
 11 25  1  0
 11 26  1  0
 14 27  1  0
 15 28  1  0
 16 29  1  0
 17 30  1  0
M  END
$$$$
