
     RDKit          3D

 42 45  0  0  0  0  0  0  0  0999 V2000
   -6.0930   -0.5322    2.0570 C   0  0  0  0  0  0  0  0  0  0  0  0
   -4.7876    0.1565    1.8369 C   0  0  0  0  0  0  0  0  0  0  0  0
   -4.0813    0.3257    0.6674 C   0  0  0  0  0  0  0  0  0  0  0  0
   -2.9346    1.0303    0.9772 C   0  0  0  0  0  0  0  0  0  0  0  0
   -1.8844    1.4703    0.1347 N   0  0  0  0  0  0  0  0  0  0  0  0
   -0.8075    0.6555   -0.3018 C   0  0  0  0  0  0  0  0  0  0  0  0
    0.1763    0.2073    0.4909 N   0  0  0  0  0  0  0  0  0  0  0  0
    1.2033   -0.5474    0.0544 C   0  0  0  0  0  0  0  0  0  0  0  0
    2.2679   -1.0572    0.9388 C   0  0  1  0  0  0  0  0  0  0  0  0
    2.5732   -2.4096    0.6464 O   0  0  0  0  0  0  0  0  0  0  0  0
    3.5085   -0.2612    0.9516 C   0  0  0  0  0  0  0  0  0  0  0  0
    3.6999    0.7413    1.8950 C   0  0  0  0  0  0  0  0  0  0  0  0
    4.8545    1.4873    1.9537 C   0  0  0  0  0  0  0  0  0  0  0  0
    5.8879    1.2508    1.0448 C   0  0  0  0  0  0  0  0  0  0  0  0
    7.0354    1.9611    1.0646 F   0  0  0  0  0  0  0  0  0  0  0  0
    5.7236    0.2587    0.0942 C   0  0  0  0  0  0  0  0  0  0  0  0
    4.5367   -0.4780    0.0663 C   0  0  0  0  0  0  0  0  0  0  0  0
    1.2075   -0.8472   -1.2768 N   0  0  0  0  0  0  0  0  0  0  0  0
    0.2544   -0.4312   -2.1053 C   0  0  0  0  0  0  0  0  0  0  0  0
    0.3426   -0.7913   -3.4441 C   0  0  0  0  0  0  0  0  0  0  0  0
   -0.6254   -0.3724   -4.3172 C   0  0  0  0  0  0  0  0  0  0  0  0
   -1.6757    0.4035   -3.8464 C   0  0  0  0  0  0  0  0  0  0  0  0
   -1.7502    0.7505   -2.5208 C   0  0  0  0  0  0  0  0  0  0  0  0
   -0.7866    0.3347   -1.6492 C   0  0  0  0  0  0  0  0  0  0  0  0
   -2.9847    1.2614    2.3208 N   0  0  0  0  0  0  0  0  0  0  0  0
   -4.0808    0.7455    2.8347 N   0  0  0  0  0  0  0  0  0  0  0  0
   -6.8793    0.2422    2.2130 H   0  0  0  0  0  0  0  0  0  0  0  0
   -6.3594   -1.1204    1.1690 H   0  0  0  0  0  0  0  0  0  0  0  0
   -6.0367   -1.1786    2.9580 H   0  0  0  0  0  0  0  0  0  0  0  0
   -4.3727   -0.0308   -0.3159 H   0  0  0  0  0  0  0  0  0  0  0  0
   -1.9057    2.4533   -0.1785 H   0  0  0  0  0  0  0  0  0  0  0  0
    1.8869   -1.1275    2.0092 H   0  0  0  0  0  0  0  0  0  0  0  0
    2.7163   -2.3937   -0.3527 H   0  0  0  0  0  0  0  0  0  0  0  0
    2.9347    0.9846    2.6332 H   0  0  0  0  0  0  0  0  0  0  0  0
    5.0352    2.2781    2.6784 H   0  0  0  0  0  0  0  0  0  0  0  0
    6.5036    0.0574   -0.6097 H   0  0  0  0  0  0  0  0  0  0  0  0
    4.4696   -1.2398   -0.7016 H   0  0  0  0  0  0  0  0  0  0  0  0
    1.1522   -1.3933   -3.8230 H   0  0  0  0  0  0  0  0  0  0  0  0
   -0.5560   -0.6565   -5.3642 H   0  0  0  0  0  0  0  0  0  0  0  0
   -2.4317    0.7216   -4.5645 H   0  0  0  0  0  0  0  0  0  0  0  0
   -2.5677    1.3586   -2.1405 H   0  0  0  0  0  0  0  0  0  0  0  0
   -4.3693    0.7751    3.8221 H   0  0  0  0  0  0  0  0  0  0  0  0
  1  2  1  0
  2  3  2  0
  3  4  1  0
  4  5  1  0
  5  6  1  0
  6  7  2  0
  7  8  1  0
  8  9  1  0
  9 10  1  0
  9 11  1  0
 11 12  2  0
 12 13  1  0
 13 14  2  0
 14 15  1  0
 14 16  1  0
 16 17  2  0
  8 18  2  0
 18 19  1  0
 19 20  2  0
 20 21  1  0
 21 22  2  0
 22 23  1  0
 23 24  2  0
  4 25  2  0
 25 26  1  0
 26  2  1  0
 24  6  1  0
 17 11  1  0
 24 19  1  0
  1 27  1  0
  1 28  1  0
  1 29  1  0
  3 30  1  0
  5 31  1  0
  9 32  1  1
 10 33  1  0
 12 34  1  0
 13 35  1  0
 16 36  1  0
 17 37  1  0
 20 38  1  0
 21 39  1  0
 22 40  1  0
 23 41  1  0
 26 42  1  0
M  END
$$$$
