
     RDKit          3D

 61 64  0  0  0  0  0  0  0  0999 V2000
   -3.8897   -5.8295   -1.5952 N   0  0  0  0  0  0  0  0  0  0  0  0
   -3.0890   -4.6665   -1.4033 C   0  0  0  0  0  0  0  0  0  0  0  0
   -2.5399   -4.1234   -2.3762 O   0  0  0  0  0  0  0  0  0  0  0  0
   -2.9135   -4.1260   -0.1162 N   0  0  0  0  0  0  0  0  0  0  0  0
   -2.1205   -2.9795    0.0795 C   0  0  0  0  0  0  0  0  0  0  0  0
   -0.3186   -3.1321    0.4230 S   0  0  0  0  0  0  0  0  0  0  0  0
   -0.1062   -1.3327    0.5437 C   0  0  0  0  0  0  0  0  0  0  0  0
    1.1864   -0.7164    0.8392 C   0  0  0  0  0  0  0  0  0  0  0  0
    1.3523    0.6283    0.8960 C   0  0  0  0  0  0  0  0  0  0  0  0
    2.5967    1.1508    1.1991 C   0  0  0  0  0  0  0  0  0  0  0  0
    3.6878    0.3281    1.4482 C   0  0  0  0  0  0  0  0  0  0  0  0
    4.9964    0.8439    1.7777 C   0  0  0  0  0  0  0  0  0  0  0  0
    5.1537    1.4645    2.8540 O   0  0  0  0  0  0  0  0  0  0  0  0
    6.0875    0.6605    0.9153 N   0  0  0  0  0  0  0  0  0  0  0  0
    7.4263    1.1531    1.2077 C   0  0  0  0  0  0  0  0  0  0  0  0
    7.7677    2.1857    0.1682 C   0  0  0  0  0  0  0  0  0  0  0  0
    7.5749    1.5971   -1.2098 C   0  0  0  0  0  0  0  0  0  0  0  0
    7.1941    0.1479   -1.1673 C   0  0  0  0  0  0  0  0  0  0  0  0
    5.9153   -0.0377   -0.3360 C   0  0  0  0  0  0  0  0  0  0  0  0
    3.5142   -1.0528    1.3890 C   0  0  0  0  0  0  0  0  0  0  0  0
    2.2685   -1.5331    1.0860 C   0  0  0  0  0  0  0  0  0  0  0  0
   -1.3241   -0.8182    0.3286 C   0  0  0  0  0  0  0  0  0  0  0  0
   -2.3699   -1.6431    0.0891 C   0  0  0  0  0  0  0  0  0  0  0  0
   -3.7468   -1.1334   -0.1545 C   0  0  0  0  0  0  0  0  0  0  0  0
   -4.6862   -1.9260   -0.4130 O   0  0  0  0  0  0  0  0  0  0  0  0
   -4.0813    0.2299   -0.1123 N   0  0  0  0  0  0  0  0  0  0  0  0
   -5.4557    0.6955   -0.3575 C   0  0  1  0  0  0  0  0  0  0  0  0
   -6.1028    1.2434    0.8923 C   0  0  0  0  0  0  0  0  0  0  0  0
   -7.3359    2.0134    0.4063 C   0  0  0  0  0  0  0  0  0  0  0  0
   -6.7896    3.2646   -0.2519 C   0  0  0  0  0  0  0  0  0  0  0  0
   -5.6719    2.9774   -1.0936 N   0  0  0  0  0  0  0  0  0  0  0  0
   -5.5511    1.6229   -1.5308 C   0  0  0  0  0  0  0  0  0  0  0  0
   -3.7270   -6.7010   -1.0480 H   0  0  0  0  0  0  0  0  0  0  0  0
   -4.6591   -5.8348   -2.2900 H   0  0  0  0  0  0  0  0  0  0  0  0
   -3.4004   -4.6143    0.6982 H   0  0  0  0  0  0  0  0  0  0  0  0
    0.4940    1.2826    0.7003 H   0  0  0  0  0  0  0  0  0  0  0  0
    2.7697    2.2126    1.2536 H   0  0  0  0  0  0  0  0  0  0  0  0
    8.1310    0.2890    1.1373 H   0  0  0  0  0  0  0  0  0  0  0  0
    7.5165    1.5567    2.2258 H   0  0  0  0  0  0  0  0  0  0  0  0
    7.0935    3.0532    0.3222 H   0  0  0  0  0  0  0  0  0  0  0  0
    8.8228    2.4961    0.3227 H   0  0  0  0  0  0  0  0  0  0  0  0
    8.5299    1.6801   -1.7883 H   0  0  0  0  0  0  0  0  0  0  0  0
    6.7881    2.1355   -1.7675 H   0  0  0  0  0  0  0  0  0  0  0  0
    6.9223   -0.1544   -2.2094 H   0  0  0  0  0  0  0  0  0  0  0  0
    8.0027   -0.5214   -0.8072 H   0  0  0  0  0  0  0  0  0  0  0  0
    5.1091    0.4116   -0.9500 H   0  0  0  0  0  0  0  0  0  0  0  0
    5.7672   -1.1300   -0.1956 H   0  0  0  0  0  0  0  0  0  0  0  0
    4.3640   -1.6876    1.5923 H   0  0  0  0  0  0  0  0  0  0  0  0
    2.1716   -2.6104    1.0459 H   0  0  0  0  0  0  0  0  0  0  0  0
   -1.4294    0.3109    0.3558 H   0  0  0  0  0  0  0  0  0  0  0  0
   -3.3431    0.9190    0.0980 H   0  0  0  0  0  0  0  0  0  0  0  0
   -6.0567   -0.2158   -0.6184 H   0  0  0  0  0  0  0  0  0  0  0  0
   -6.5177    0.4084    1.5219 H   0  0  0  0  0  0  0  0  0  0  0  0
   -5.4580    1.8410    1.5283 H   0  0  0  0  0  0  0  0  0  0  0  0
   -7.8175    1.3274   -0.3431 H   0  0  0  0  0  0  0  0  0  0  0  0
   -8.0319    2.2261    1.2161 H   0  0  0  0  0  0  0  0  0  0  0  0
   -6.3868    3.8824    0.6063 H   0  0  0  0  0  0  0  0  0  0  0  0
   -7.6117    3.8250   -0.7528 H   0  0  0  0  0  0  0  0  0  0  0  0
   -5.6771    3.5999   -1.9285 H   0  0  0  0  0  0  0  0  0  0  0  0
   -4.6183    1.5310   -2.1175 H   0  0  0  0  0  0  0  0  0  0  0  0
   -6.3771    1.3245   -2.2338 H   0  0  0  0  0  0  0  0  0  0  0  0
  1  2  1  0
  2  3  2  0
  2  4  1  0
  4  5  1  0
  5  6  1  0
  6  7  1  0
  7  8  1  0
  8  9  2  0
  9 10  1  0
 10 11  2  0
 11 12  1  0
 12 13  2  0
 12 14  1  0
 14 15  1  0
 15 16  1  0
 16 17  1  0
 17 18  1  0
 18 19  1  0
 11 20  1  0
 20 21  2  0
  7 22  2  0
 22 23  1  0
 23 24  1  0
 24 25  2  0
 24 26  1  0
 26 27  1  0
 27 28  1  0
 28 29  1  0
 29 30  1  0
 30 31  1  0
 31 32  1  0
 23  5  2  0
 32 27  1  0
 21  8  1  0
 19 14  1  0
  1 33  1  0
  1 34  1  0
  4 35  1  0
  9 36  1  0
 10 37  1  0
 15 38  1  0
 15 39  1  0
 16 40  1  0
 16 41  1  0
 17 42  1  0
 17 43  1  0
 18 44  1  0
 18 45  1  0
 19 46  1  0
 19 47  1  0
 20 48  1  0
 21 49  1  0
 22 50  1  0
 26 51  1  0
 27 52  1  6
 28 53  1  0
 28 54  1  0
 29 55  1  0
 29 56  1  0
 30 57  1  0
 30 58  1  0
 31 59  1  0
 32 60  1  0
 32 61  1  0
M  END
$$$$
