
     RDKit          3D

 33 35  0  0  0  0  0  0  0  0999 V2000
    7.0184   -2.4972   -0.1701 C   0  0  0  0  0  0  0  0  0  0  0  0
    6.0842   -1.5225   -0.9357 C   0  0  0  0  0  0  0  0  0  0  0  0
    5.3308   -0.7478   -1.5674 C   0  0  0  0  0  0  0  0  0  0  0  0
    4.6111    0.2049   -0.8218 O   0  0  0  0  0  0  0  0  0  0  0  0
    3.3018    0.1459   -0.5872 C   0  0  0  0  0  0  0  0  0  0  0  0
    2.6110    1.1084    0.1820 C   0  0  0  0  0  0  0  0  0  0  0  0
    1.3076    1.1896    0.4064 C   0  0  0  0  0  0  0  0  0  0  0  0
    0.4236    0.1923   -0.1616 C   0  0  0  0  0  0  0  0  0  0  0  0
   -1.0253    0.4004   -0.0788 C   0  0  0  0  0  0  0  0  0  0  0  0
   -1.8978   -0.6915    0.0282 N   0  0  0  0  0  0  0  0  0  0  0  0
   -3.2105   -0.3435    0.2885 C   0  0  0  0  0  0  0  0  0  0  0  0
   -4.1587   -1.3589    0.3939 C   0  0  0  0  0  0  0  0  0  0  0  0
   -5.5269   -1.0718    0.6544 C   0  0  0  0  0  0  0  0  0  0  0  0
   -5.8412    0.2771    0.8206 C   0  0  0  0  0  0  0  0  0  0  0  0
   -4.9182    1.3393    0.7246 C   0  0  0  0  0  0  0  0  0  0  0  0
   -3.6033    0.8992    0.4411 C   0  0  0  0  0  0  0  0  0  0  0  0
   -2.6616    1.9859    0.3128 C   0  0  0  0  0  0  0  0  0  0  0  0
   -3.0687    3.1700    0.4569 O   0  0  0  0  0  0  0  0  0  0  0  0
   -1.4142    1.6672    0.0538 N   0  0  0  0  0  0  0  0  0  0  0  0
    1.0622   -0.7852   -0.8998 C   0  0  0  0  0  0  0  0  0  0  0  0
    2.4795   -0.8592   -1.1340 C   0  0  0  0  0  0  0  0  0  0  0  0
    7.6669   -3.1774    0.3599 H   0  0  0  0  0  0  0  0  0  0  0  0
    4.6247   -1.1630   -2.3209 H   0  0  0  0  0  0  0  0  0  0  0  0
    6.0806   -0.1204   -2.3205 H   0  0  0  0  0  0  0  0  0  0  0  0
    3.3257    1.8783    0.5708 H   0  0  0  0  0  0  0  0  0  0  0  0
    0.8180    2.0065    0.9638 H   0  0  0  0  0  0  0  0  0  0  0  0
   -3.8341   -2.4008    0.2265 H   0  0  0  0  0  0  0  0  0  0  0  0
   -6.2229   -1.8755    0.7093 H   0  0  0  0  0  0  0  0  0  0  0  0
   -6.9200    0.5357    0.9922 H   0  0  0  0  0  0  0  0  0  0  0  0
   -5.1425    2.3596    0.9219 H   0  0  0  0  0  0  0  0  0  0  0  0
   -0.6980    2.4673   -0.0357 H   0  0  0  0  0  0  0  0  0  0  0  0
    0.4376   -1.5765   -1.3674 H   0  0  0  0  0  0  0  0  0  0  0  0
    2.9601   -1.6365   -1.6735 H   0  0  0  0  0  0  0  0  0  0  0  0
  1  2  3  0
  2  3  1  0
  3  4  1  0
  4  5  1  0
  5  6  2  0
  6  7  1  0
  7  8  2  0
  8  9  1  0
  9 10  2  0
 10 11  1  0
 11 12  2  0
 12 13  1  0
 13 14  2  0
 14 15  1  0
 15 16  2  0
 16 17  1  0
 17 18  2  0
 17 19  1  0
  8 20  1  0
 20 21  2  0
 21  5  1  0
 19  9  1  0
 16 11  1  0
  1 22  1  0
  3 23  1  0
  3 24  1  0
  6 25  1  0
  7 26  1  0
 12 27  1  0
 13 28  1  0
 14 29  1  0
 15 30  1  0
 19 31  1  0
 20 32  1  0
 21 33  1  0
M  END
$$$$
