
     RDKit          3D

 52 55  0  0  0  0  0  0  0  0999 V2000
    7.1536    0.5427   -1.5720 C   0  0  0  0  0  0  0  0  0  0  0  0
    5.7764    1.1565   -1.5733 C   0  0  0  0  0  0  0  0  0  0  0  0
    5.0613    0.9646   -0.2473 C   0  0  0  0  0  0  0  0  0  0  0  0
    4.9002   -0.5125    0.0677 C   0  0  0  0  0  0  0  0  0  0  0  0
    4.1869   -0.6199    1.3896 C   0  0  0  0  0  0  0  0  0  0  0  0
    2.9472   -0.0533    1.4504 O   0  0  0  0  0  0  0  0  0  0  0  0
    1.7605   -0.2826    0.8188 C   0  0  0  0  0  0  0  0  0  0  0  0
    1.5367   -1.2697   -0.1170 C   0  0  0  0  0  0  0  0  0  0  0  0
    0.3022   -1.4261   -0.6998 C   0  0  0  0  0  0  0  0  0  0  0  0
   -0.7485   -0.5791   -0.3462 C   0  0  0  0  0  0  0  0  0  0  0  0
   -2.0137   -0.8372   -0.9825 C   0  0  0  0  0  0  0  0  0  0  0  0
   -1.9532   -0.9650   -2.2653 O   0  0  0  0  0  0  0  0  0  0  0  0
   -3.2952   -0.9667   -0.3193 C   0  0  0  0  0  0  0  0  0  0  0  0
   -3.3874   -1.7504    0.8393 C   0  0  0  0  0  0  0  0  0  0  0  0
   -4.5681   -1.9451    1.5209 C   0  0  0  0  0  0  0  0  0  0  0  0
   -5.7277   -1.3591    1.0722 C   0  0  0  0  0  0  0  0  0  0  0  0
   -5.6609   -0.5851   -0.0629 C   0  0  0  0  0  0  0  0  0  0  0  0
   -6.8398   -0.0069   -0.4827 C   0  0  0  0  0  0  0  0  0  0  0  0
   -6.8341    0.7829   -1.6079 C   0  0  0  0  0  0  0  0  0  0  0  0
   -5.6687    0.9792   -2.2846 C   0  0  0  0  0  0  0  0  0  0  0  0
   -4.4678    0.4061   -1.8797 C   0  0  0  0  0  0  0  0  0  0  0  0
   -4.4661   -0.3870   -0.7536 C   0  0  0  0  0  0  0  0  0  0  0  0
   -0.5162    0.3950    0.5810 C   0  0  0  0  0  0  0  0  0  0  0  0
   -1.5254    1.2710    0.9599 C   0  0  0  0  0  0  0  0  0  0  0  0
   -1.3211    2.2658    1.8846 C   0  0  0  0  0  0  0  0  0  0  0  0
   -0.0915    2.4174    2.4635 C   0  0  0  0  0  0  0  0  0  0  0  0
    0.9377    1.5675    2.1128 C   0  0  0  0  0  0  0  0  0  0  0  0
    0.7109    0.5821    1.1876 C   0  0  0  0  0  0  0  0  0  0  0  0
    7.5169    0.4357   -0.5124 H   0  0  0  0  0  0  0  0  0  0  0  0
    7.8710    1.1099   -2.1838 H   0  0  0  0  0  0  0  0  0  0  0  0
    7.0420   -0.4856   -2.0173 H   0  0  0  0  0  0  0  0  0  0  0  0
    5.1458    0.7484   -2.4041 H   0  0  0  0  0  0  0  0  0  0  0  0
    5.8785    2.2346   -1.7505 H   0  0  0  0  0  0  0  0  0  0  0  0
    5.6714    1.4553    0.5224 H   0  0  0  0  0  0  0  0  0  0  0  0
    4.0589    1.4192   -0.3563 H   0  0  0  0  0  0  0  0  0  0  0  0
    5.9424   -0.9466    0.1703 H   0  0  0  0  0  0  0  0  0  0  0  0
    4.3873   -1.0360   -0.7248 H   0  0  0  0  0  0  0  0  0  0  0  0
    4.8923   -0.1611    2.1558 H   0  0  0  0  0  0  0  0  0  0  0  0
    4.1453   -1.7005    1.6863 H   0  0  0  0  0  0  0  0  0  0  0  0
    2.3214   -1.9414   -0.3947 H   0  0  0  0  0  0  0  0  0  0  0  0
    0.0901   -2.1832   -1.4333 H   0  0  0  0  0  0  0  0  0  0  0  0
   -2.4695   -2.2076    1.1851 H   0  0  0  0  0  0  0  0  0  0  0  0
   -4.6194   -2.5529    2.4125 H   0  0  0  0  0  0  0  0  0  0  0  0
   -6.6822   -1.4949    1.5915 H   0  0  0  0  0  0  0  0  0  0  0  0
   -7.7804   -0.1415    0.0297 H   0  0  0  0  0  0  0  0  0  0  0  0
   -7.7738    1.2450   -1.9447 H   0  0  0  0  0  0  0  0  0  0  0  0
   -5.6186    1.5927   -3.1738 H   0  0  0  0  0  0  0  0  0  0  0  0
   -3.5539    0.5831   -2.4295 H   0  0  0  0  0  0  0  0  0  0  0  0
   -2.4856    1.1354    0.4771 H   0  0  0  0  0  0  0  0  0  0  0  0
   -2.1400    2.9145    2.1397 H   0  0  0  0  0  0  0  0  0  0  0  0
    0.0865    3.2117    3.2079 H   0  0  0  0  0  0  0  0  0  0  0  0
    1.8852    1.7244    2.5929 H   0  0  0  0  0  0  0  0  0  0  0  0
  1  2  1  0
  2  3  1  0
  3  4  1  0
  4  5  1  0
  5  6  1  0
  6  7  1  0
  7  8  2  0
  8  9  1  0
  9 10  2  0
 10 11  1  0
 11 12  2  0
 11 13  1  0
 13 14  2  0
 14 15  1  0
 15 16  2  0
 16 17  1  0
 17 18  2  0
 18 19  1  0
 19 20  2  0
 20 21  1  0
 21 22  2  0
 10 23  1  0
 23 24  2  0
 24 25  1  0
 25 26  2  0
 26 27  1  0
 27 28  2  0
 28  7  1  0
 22 13  1  0
 28 23  1  0
 22 17  1  0
  1 29  1  0
  1 30  1  0
  1 31  1  0
  2 32  1  0
  2 33  1  0
  3 34  1  0
  3 35  1  0
  4 36  1  0
  4 37  1  0
  5 38  1  0
  5 39  1  0
  8 40  1  0
  9 41  1  0
 14 42  1  0
 15 43  1  0
 16 44  1  0
 18 45  1  0
 19 46  1  0
 20 47  1  0
 21 48  1  0
 24 49  1  0
 25 50  1  0
 26 51  1  0
 27 52  1  0
M  END
$$$$
