
     RDKit          3D

 52 56  0  0  0  0  0  0  0  0999 V2000
    1.8546    0.6898   -1.2254 O   0  0  0  0  0  0  0  0  0  0  0  0
    1.9277    0.2711   -0.0684 C   0  0  0  0  0  0  0  0  0  0  0  0
    0.7773    0.0129    0.7735 C   0  0  0  0  0  0  0  0  0  0  0  0
   -0.5269    0.2753    0.0739 C   0  0  0  0  0  0  0  0  0  0  0  0
   -0.5336    1.6951   -0.3344 C   0  0  0  0  0  0  0  0  0  0  0  0
   -0.4481    2.1255   -1.6442 C   0  0  0  0  0  0  0  0  0  0  0  0
   -0.4346    3.4772   -1.8888 C   0  0  0  0  0  0  0  0  0  0  0  0
   -0.5030    4.4020   -0.8807 C   0  0  0  0  0  0  0  0  0  0  0  0
   -0.5885    4.0010    0.4331 C   0  0  0  0  0  0  0  0  0  0  0  0
   -0.6023    2.6357    0.6898 C   0  0  0  0  0  0  0  0  0  0  0  0
   -0.6961   -0.7075   -1.0333 C   0  0  0  0  0  0  0  0  0  0  0  0
   -2.0218   -0.7369   -1.7195 C   0  0  0  0  0  0  0  0  0  0  0  0
   -3.1481   -0.8930   -0.6910 C   0  0  0  0  0  0  0  0  0  0  0  0
   -2.9701    0.2168    0.2939 C   0  0  0  0  0  0  0  0  0  0  0  0
   -1.6917    0.1028    1.0553 C   0  0  0  0  0  0  0  0  0  0  0  0
   -1.6486   -1.2717    1.6962 C   0  0  0  0  0  0  0  0  0  0  0  0
   -1.6540   -2.2991    0.6188 C   0  0  0  0  0  0  0  0  0  0  0  0
   -0.5840   -2.1085   -0.4007 C   0  0  0  0  0  0  0  0  0  0  0  0
   -3.0042   -2.2634   -0.1175 C   0  0  0  0  0  0  0  0  0  0  0  0
   -2.8808   -3.1910   -1.1557 O   0  0  0  0  0  0  0  0  0  0  0  0
    3.2593    0.0391    0.4338 N   0  0  0  0  0  0  0  0  0  0  0  0
    3.8154   -0.4374    1.7000 C   0  0  0  0  0  0  0  0  0  0  0  0
    5.0539   -0.9184    0.9740 C   0  0  0  0  0  0  0  0  0  0  0  0
    4.9303   -2.2117    0.4709 O   0  0  0  0  0  0  0  0  0  0  0  0
    4.6242    0.1550   -0.0372 C   0  0  0  0  0  0  0  0  0  0  0  0
    0.8678    0.7254    1.6605 H   0  0  0  0  0  0  0  0  0  0  0  0
    0.8029   -0.9835    1.2698 H   0  0  0  0  0  0  0  0  0  0  0  0
   -0.3962    1.3872   -2.4181 H   0  0  0  0  0  0  0  0  0  0  0  0
   -0.3687    3.8251   -2.8995 H   0  0  0  0  0  0  0  0  0  0  0  0
   -0.4933    5.4790   -1.0615 H   0  0  0  0  0  0  0  0  0  0  0  0
   -0.6442    4.7258    1.2552 H   0  0  0  0  0  0  0  0  0  0  0  0
   -0.6544    2.3928    1.7432 H   0  0  0  0  0  0  0  0  0  0  0  0
    0.1145   -0.6757   -1.7780 H   0  0  0  0  0  0  0  0  0  0  0  0
   -2.0493   -1.7319   -2.2692 H   0  0  0  0  0  0  0  0  0  0  0  0
   -2.2370    0.0334   -2.4455 H   0  0  0  0  0  0  0  0  0  0  0  0
   -4.1250   -0.7530   -1.2054 H   0  0  0  0  0  0  0  0  0  0  0  0
   -2.9286    1.1721   -0.2936 H   0  0  0  0  0  0  0  0  0  0  0  0
   -3.8492    0.3148    0.9601 H   0  0  0  0  0  0  0  0  0  0  0  0
   -1.7115    0.8243    1.8625 H   0  0  0  0  0  0  0  0  0  0  0  0
   -2.5885   -1.3555    2.2849 H   0  0  0  0  0  0  0  0  0  0  0  0
   -0.8246   -1.4162    2.3882 H   0  0  0  0  0  0  0  0  0  0  0  0
   -1.5306   -3.3047    1.0633 H   0  0  0  0  0  0  0  0  0  0  0  0
    0.4248   -2.3823   -0.1238 H   0  0  0  0  0  0  0  0  0  0  0  0
   -0.8477   -2.7983   -1.2599 H   0  0  0  0  0  0  0  0  0  0  0  0
   -3.8254   -2.5906    0.5220 H   0  0  0  0  0  0  0  0  0  0  0  0
   -3.5688   -3.0969   -1.8406 H   0  0  0  0  0  0  0  0  0  0  0  0
    4.0146    0.3760    2.4355 H   0  0  0  0  0  0  0  0  0  0  0  0
    3.2148   -1.2748    2.0655 H   0  0  0  0  0  0  0  0  0  0  0  0
    6.0085   -0.6931    1.4802 H   0  0  0  0  0  0  0  0  0  0  0  0
    4.9790   -2.1567   -0.5132 H   0  0  0  0  0  0  0  0  0  0  0  0
    4.7818   -0.2104   -1.0709 H   0  0  0  0  0  0  0  0  0  0  0  0
    5.1282    1.1070    0.1721 H   0  0  0  0  0  0  0  0  0  0  0  0
  1  2  2  0
  2  3  1  0
  3  4  1  0
  4  5  1  0
  5  6  2  0
  6  7  1  0
  7  8  2  0
  8  9  1  0
  9 10  2  0
  4 11  1  0
 11 12  1  0
 12 13  1  0
 13 14  1  0
 14 15  1  0
 15 16  1  0
 16 17  1  0
 17 18  1  0
 17 19  1  0
 19 20  1  0
  2 21  1  0
 21 22  1  0
 22 23  1  0
 23 24  1  0
 23 25  1  0
 15  4  1  0
 25 21  1  0
 10  5  1  0
 18 11  1  0
 19 13  1  0
  3 26  1  0
  3 27  1  0
  6 28  1  0
  7 29  1  0
  8 30  1  0
  9 31  1  0
 10 32  1  0
 11 33  1  0
 12 34  1  0
 12 35  1  0
 13 36  1  0
 14 37  1  0
 14 38  1  0
 15 39  1  0
 16 40  1  0
 16 41  1  0
 17 42  1  0
 18 43  1  0
 18 44  1  0
 19 45  1  0
 20 46  1  0
 22 47  1  0
 22 48  1  0
 23 49  1  0
 24 50  1  0
 25 51  1  0
 25 52  1  0
M  END
$$$$
