
     RDKit          3D

 44 45  0  0  0  0  0  0  0  0999 V2000
    4.1842    0.4934    0.2473 C   0  0  1  0  0  0  0  0  0  0  0  0
    5.2255    1.2357   -0.2501 O   0  0  0  0  0  0  0  0  0  0  0  0
    2.9249    1.3302    0.5145 C   0  0  0  0  0  0  0  0  0  0  0  0
    1.9318    0.1819    0.6956 C   0  0  1  0  0  0  0  0  0  0  0  0
    0.6087    0.6133    1.0702 C   0  0  0  0  0  0  0  0  0  0  0  0
   -0.2158    1.6915    0.9724 C   0  0  0  0  0  0  0  0  0  0  0  0
   -1.5637    1.7801    1.5001 C   0  0  0  0  0  0  0  0  0  0  0  0
   -2.7250    2.0927    0.6881 C   0  0  0  0  0  0  0  0  0  0  0  0
   -3.1720    1.3396   -0.4771 C   0  0  0  0  0  0  0  0  0  0  0  0
   -3.3693   -0.1416   -0.3292 C   0  0  2  0  0  0  0  0  0  0  0  0
   -4.1607   -0.5688    0.8585 C   0  0  0  0  0  0  0  0  0  0  0  0
   -2.1902   -0.8477   -0.5577 O   0  0  0  0  0  0  0  0  0  0  0  0
   -2.1456   -1.7856   -1.5778 C   0  0  0  0  0  0  0  0  0  0  0  0
   -2.9072   -2.2633   -2.4142 O   0  0  0  0  0  0  0  0  0  0  0  0
   -0.7986   -2.4057   -1.7384 C   0  0  0  0  0  0  0  0  0  0  0  0
    0.2664   -2.0599   -0.9997 C   0  0  0  0  0  0  0  0  0  0  0  0
    1.6790   -2.0189   -0.4541 C   0  0  1  0  0  0  0  0  0  0  0  0
    2.5034   -2.8639   -1.1588 O   0  0  0  0  0  0  0  0  0  0  0  0
    2.1628   -0.5719   -0.5500 C   0  0  2  0  0  0  0  0  0  0  0  0
    3.6628   -0.5576   -0.7207 C   0  0  0  0  0  0  0  0  0  0  0  0
    4.4041    0.0179    1.2453 H   0  0  0  0  0  0  0  0  0  0  0  0
    5.8464    1.4358    0.5174 H   0  0  0  0  0  0  0  0  0  0  0  0
    3.0199    1.9436    1.4198 H   0  0  0  0  0  0  0  0  0  0  0  0
    2.7350    1.9058   -0.3922 H   0  0  0  0  0  0  0  0  0  0  0  0
    2.3660   -0.4166    1.5457 H   0  0  0  0  0  0  0  0  0  0  0  0
    0.0586   -0.1612    1.6486 H   0  0  0  0  0  0  0  0  0  0  0  0
    0.0800    2.6191    0.4676 H   0  0  0  0  0  0  0  0  0  0  0  0
   -1.8008    0.8694    2.1723 H   0  0  0  0  0  0  0  0  0  0  0  0
   -1.5130    2.5896    2.3212 H   0  0  0  0  0  0  0  0  0  0  0  0
   -3.6130    2.1782    1.4142 H   0  0  0  0  0  0  0  0  0  0  0  0
   -2.6532    3.2096    0.3804 H   0  0  0  0  0  0  0  0  0  0  0  0
   -2.5622    1.5301   -1.4100 H   0  0  0  0  0  0  0  0  0  0  0  0
   -4.1855    1.7473   -0.7782 H   0  0  0  0  0  0  0  0  0  0  0  0
   -4.0466   -0.4931   -1.2065 H   0  0  0  0  0  0  0  0  0  0  0  0
   -4.5245   -1.6206    0.6607 H   0  0  0  0  0  0  0  0  0  0  0  0
   -3.5857   -0.6701    1.8022 H   0  0  0  0  0  0  0  0  0  0  0  0
   -5.0691    0.0262    0.9630 H   0  0  0  0  0  0  0  0  0  0  0  0
   -0.5537   -3.1992   -2.4723 H   0  0  0  0  0  0  0  0  0  0  0  0
   -0.1573   -1.2812   -0.3331 H   0  0  0  0  0  0  0  0  0  0  0  0
    1.6887   -2.2966    0.6082 H   0  0  0  0  0  0  0  0  0  0  0  0
    2.4244   -2.7620   -2.1357 H   0  0  0  0  0  0  0  0  0  0  0  0
    1.6853   -0.1324   -1.4519 H   0  0  0  0  0  0  0  0  0  0  0  0
    3.9296   -0.1588   -1.7403 H   0  0  0  0  0  0  0  0  0  0  0  0
    4.1252   -1.5544   -0.5652 H   0  0  0  0  0  0  0  0  0  0  0  0
  1  2  1  0
  1  3  1  0
  3  4  1  0
  4  5  1  0
  5  6  2  0
  6  7  1  0
  7  8  1  0
  8  9  1  0
  9 10  1  0
 10 11  1  0
 10 12  1  0
 12 13  1  0
 13 14  2  0
 13 15  1  0
 15 16  2  0
 16 17  1  0
 17 18  1  0
 17 19  1  0
 19 20  1  0
 20  1  1  0
 19  4  1  0
  1 21  1  1
  2 22  1  0
  3 23  1  0
  3 24  1  0
  4 25  1  1
  5 26  1  0
  6 27  1  0
  7 28  1  0
  7 29  1  0
  8 30  1  0
  8 31  1  0
  9 32  1  0
  9 33  1  0
 10 34  1  6
 11 35  1  0
 11 36  1  0
 11 37  1  0
 15 38  1  0
 16 39  1  0
 17 40  1  1
 18 41  1  0
 19 42  1  6
 20 43  1  0
 20 44  1  0
M  END
$$$$
