
     RDKit          3D

 41 44  0  0  0  0  0  0  0  0999 V2000
    3.9599    0.6060    0.7712 C   0  0  0  0  0  0  0  0  0  0  0  0
    3.6111   -0.7689    0.4491 N   0  0  0  0  0  0  0  0  0  0  0  0
    3.2206   -0.9555   -0.9146 C   0  0  0  0  0  0  0  0  0  0  0  0
    1.7968   -0.4342   -0.8918 C   0  0  0  0  0  0  0  0  0  0  0  0
    1.2485   -1.0921    0.3310 C   0  0  0  0  0  0  0  0  0  0  0  0
    0.2527   -0.3275    1.0964 C   0  0  0  0  0  0  0  0  0  0  0  0
   -0.9574    0.0530    0.4444 N   0  0  0  0  0  0  0  0  0  0  0  0
   -1.9487   -0.9228    0.1768 C   0  0  0  0  0  0  0  0  0  0  0  0
   -1.7999   -2.2300    0.5757 C   0  0  0  0  0  0  0  0  0  0  0  0
   -2.7259   -3.2250    0.3601 C   0  0  0  0  0  0  0  0  0  0  0  0
   -3.9025   -2.9378   -0.2986 C   0  0  0  0  0  0  0  0  0  0  0  0
   -4.0991   -1.6289   -0.7211 C   0  0  0  0  0  0  0  0  0  0  0  0
   -3.1325   -0.6917   -0.4710 C   0  0  0  0  0  0  0  0  0  0  0  0
   -3.5695    0.9186   -1.0767 S   0  0  0  0  0  0  0  0  0  0  0  0
   -2.1825    1.9252   -0.6053 C   0  0  0  0  0  0  0  0  0  0  0  0
   -2.3395    3.2320   -0.9892 C   0  0  0  0  0  0  0  0  0  0  0  0
   -1.3259    4.1465   -0.6968 C   0  0  0  0  0  0  0  0  0  0  0  0
   -0.2142    3.6900   -0.0350 C   0  0  0  0  0  0  0  0  0  0  0  0
   -0.1449    2.3610    0.3104 C   0  0  0  0  0  0  0  0  0  0  0  0
   -1.1024    1.4066    0.0558 C   0  0  0  0  0  0  0  0  0  0  0  0
    2.4906   -1.1999    1.2293 C   0  0  0  0  0  0  0  0  0  0  0  0
    3.2953    0.9898    1.5851 H   0  0  0  0  0  0  0  0  0  0  0  0
    3.9050    1.2440   -0.1313 H   0  0  0  0  0  0  0  0  0  0  0  0
    5.0114    0.6323    1.1268 H   0  0  0  0  0  0  0  0  0  0  0  0
    3.2946   -2.0225   -1.1713 H   0  0  0  0  0  0  0  0  0  0  0  0
    3.8513   -0.4004   -1.6361 H   0  0  0  0  0  0  0  0  0  0  0  0
    1.8573    0.6431   -0.9058 H   0  0  0  0  0  0  0  0  0  0  0  0
    1.3058   -0.8439   -1.8216 H   0  0  0  0  0  0  0  0  0  0  0  0
    1.0281   -2.1160    0.0259 H   0  0  0  0  0  0  0  0  0  0  0  0
   -0.0699   -1.0235    1.9486 H   0  0  0  0  0  0  0  0  0  0  0  0
    0.7675    0.4178    1.7111 H   0  0  0  0  0  0  0  0  0  0  0  0
   -0.9536   -2.5890    1.1002 H   0  0  0  0  0  0  0  0  0  0  0  0
   -2.6008   -4.2672    0.6809 H   0  0  0  0  0  0  0  0  0  0  0  0
   -4.6380   -3.7085   -0.4749 H   0  0  0  0  0  0  0  0  0  0  0  0
   -5.0325   -1.4647   -1.2277 H   0  0  0  0  0  0  0  0  0  0  0  0
   -3.1753    3.6559   -1.5058 H   0  0  0  0  0  0  0  0  0  0  0  0
   -1.4039    5.1865   -0.9788 H   0  0  0  0  0  0  0  0  0  0  0  0
    0.5619    4.4219    0.1813 H   0  0  0  0  0  0  0  0  0  0  0  0
    0.7753    2.1312    0.8174 H   0  0  0  0  0  0  0  0  0  0  0  0
    2.6544   -2.2373    1.5855 H   0  0  0  0  0  0  0  0  0  0  0  0
    2.4310   -0.5738    2.1212 H   0  0  0  0  0  0  0  0  0  0  0  0
  1  2  1  0
  2  3  1  0
  3  4  1  0
  4  5  1  0
  5  6  1  0
  6  7  1  0
  7  8  1  0
  8  9  2  0
  9 10  1  0
 10 11  2  0
 11 12  1  0
 12 13  2  0
 13 14  1  0
 14 15  1  0
 15 16  2  0
 16 17  1  0
 17 18  2  0
 18 19  1  0
 19 20  2  0
  5 21  1  0
 21  2  1  0
 20  7  1  0
 13  8  1  0
 20 15  1  0
  1 22  1  0
  1 23  1  0
  1 24  1  0
  3 25  1  0
  3 26  1  0
  4 27  1  0
  4 28  1  0
  5 29  1  0
  6 30  1  0
  6 31  1  0
  9 32  1  0
 10 33  1  0
 11 34  1  0
 12 35  1  0
 16 36  1  0
 17 37  1  0
 18 38  1  0
 19 39  1  0
 21 40  1  0
 21 41  1  0
M  END
$$$$
