
     RDKit          3D

 48 51  0  0  0  0  0  0  0  0999 V2000
   -4.8746   -1.4387   -0.5951 C   0  0  0  0  0  0  0  0  0  0  0  0
   -4.1810   -0.9519    0.6593 C   0  0  0  0  0  0  0  0  0  0  0  0
   -2.7162   -0.7973    0.4526 C   0  0  0  0  0  0  0  0  0  0  0  0
   -2.2979    0.5637    0.1055 N   0  0  0  0  0  0  0  0  0  0  0  0
   -3.2118    1.6420   -0.0677 C   0  0  0  0  0  0  0  0  0  0  0  0
   -4.6569    1.2286    0.1075 C   0  0  0  0  0  0  0  0  0  0  0  0
   -4.8145    0.2545    1.1693 N   0  0  0  0  0  0  0  0  0  0  0  0
   -0.9096    0.7818   -0.0592 C   0  0  0  0  0  0  0  0  0  0  0  0
   -0.4208    2.0372   -0.3710 C   0  0  0  0  0  0  0  0  0  0  0  0
   -1.2342    3.1067   -0.5302 F   0  0  0  0  0  0  0  0  0  0  0  0
    0.9369    2.3084   -0.5459 C   0  0  0  0  0  0  0  0  0  0  0  0
    1.4260    3.6702   -0.8807 C   0  0  0  0  0  0  0  0  0  0  0  0
    1.8382    1.2726   -0.4007 C   0  0  0  0  0  0  0  0  0  0  0  0
    3.1879    1.5093   -0.5664 C   0  0  0  0  0  0  0  0  0  0  0  0
    3.6593    2.6336   -0.8485 O   0  0  0  0  0  0  0  0  0  0  0  0
    4.0395    0.4361   -0.4078 C   0  0  0  0  0  0  0  0  0  0  0  0
    3.5139   -0.7989   -0.0974 C   0  0  0  0  0  0  0  0  0  0  0  0
    2.1875   -1.0508    0.0695 N   0  0  0  0  0  0  0  0  0  0  0  0
    1.8188   -2.4145    0.3929 C   0  0  0  0  0  0  0  0  0  0  0  0
    2.8573   -3.1629    1.2273 C   0  0  0  0  0  0  0  0  0  0  0  0
    2.7563   -3.4758   -0.1979 C   0  0  0  0  0  0  0  0  0  0  0  0
    1.3816    0.0094   -0.0900 C   0  0  0  0  0  0  0  0  0  0  0  0
    0.0354   -0.2258    0.0762 C   0  0  0  0  0  0  0  0  0  0  0  0
    5.4721    0.6548   -0.5767 C   0  0  0  0  0  0  0  0  0  0  0  0
    6.3767   -0.3955   -0.4276 O   0  0  0  0  0  0  0  0  0  0  0  0
    5.8848    1.8082   -0.8600 O   0  0  0  0  0  0  0  0  0  0  0  0
   -5.9258   -1.0519   -0.5571 H   0  0  0  0  0  0  0  0  0  0  0  0
   -5.0042   -2.5589   -0.5815 H   0  0  0  0  0  0  0  0  0  0  0  0
   -4.3739   -1.1157   -1.5133 H   0  0  0  0  0  0  0  0  0  0  0  0
   -4.3406   -1.7223    1.4534 H   0  0  0  0  0  0  0  0  0  0  0  0
   -2.4066   -1.4325   -0.4026 H   0  0  0  0  0  0  0  0  0  0  0  0
   -2.1294   -1.1010    1.3518 H   0  0  0  0  0  0  0  0  0  0  0  0
   -3.2072    2.0968   -1.0984 H   0  0  0  0  0  0  0  0  0  0  0  0
   -3.0110    2.3892    0.7312 H   0  0  0  0  0  0  0  0  0  0  0  0
   -5.2556    2.1288    0.2521 H   0  0  0  0  0  0  0  0  0  0  0  0
   -4.9757    0.7328   -0.8466 H   0  0  0  0  0  0  0  0  0  0  0  0
   -5.8465    0.0359    1.1942 H   0  0  0  0  0  0  0  0  0  0  0  0
    2.0424    4.1287   -0.0739 H   0  0  0  0  0  0  0  0  0  0  0  0
    0.5314    4.3559   -0.9553 H   0  0  0  0  0  0  0  0  0  0  0  0
    1.8866    3.7416   -1.8876 H   0  0  0  0  0  0  0  0  0  0  0  0
    4.2849   -1.5794    0.0065 H   0  0  0  0  0  0  0  0  0  0  0  0
    0.7881   -2.7591    0.4032 H   0  0  0  0  0  0  0  0  0  0  0  0
    3.6604   -2.5480    1.6854 H   0  0  0  0  0  0  0  0  0  0  0  0
    2.4644   -3.9142    1.9631 H   0  0  0  0  0  0  0  0  0  0  0  0
    3.4448   -3.1377   -0.9802 H   0  0  0  0  0  0  0  0  0  0  0  0
    2.3308   -4.4820   -0.4451 H   0  0  0  0  0  0  0  0  0  0  0  0
   -0.3776   -1.1826    0.3182 H   0  0  0  0  0  0  0  0  0  0  0  0
    7.3653   -0.2299   -0.2505 H   0  0  0  0  0  0  0  0  0  0  0  0
  1  2  1  0
  2  3  1  0
  3  4  1  0
  4  5  1  0
  5  6  1  0
  6  7  1  0
  4  8  1  0
  8  9  2  0
  9 10  1  0
  9 11  1  0
 11 12  1  0
 11 13  2  0
 13 14  1  0
 14 15  2  0
 14 16  1  0
 16 17  2  0
 17 18  1  0
 18 19  1  0
 19 20  1  0
 20 21  1  0
 18 22  1  0
 22 23  2  0
 16 24  1  0
 24 25  1  0
 24 26  2  0
  7  2  1  0
 23  8  1  0
 22 13  1  0
 21 19  1  0
  1 27  1  0
  1 28  1  0
  1 29  1  0
  2 30  1  0
  3 31  1  0
  3 32  1  0
  5 33  1  0
  5 34  1  0
  6 35  1  0
  6 36  1  0
  7 37  1  0
 12 38  1  0
 12 39  1  0
 12 40  1  0
 17 41  1  0
 19 42  1  0
 20 43  1  0
 20 44  1  0
 21 45  1  0
 21 46  1  0
 23 47  1  0
 25 48  1  0
M  END
$$$$
