
     RDKit          3D

 61 66  0  0  0  0  0  0  0  0999 V2000
   10.0333    0.6207   -1.1984 C   0  0  0  0  0  0  0  0  0  0  0  0
    9.5838   -0.7169   -0.9475 N   0  0  0  0  0  0  0  0  0  0  0  0
    8.2304   -1.0195   -0.6436 C   0  0  0  0  0  0  0  0  0  0  0  0
    7.8352   -2.2801   -0.3912 N   0  0  0  0  0  0  0  0  0  0  0  0
    6.5523   -2.5428   -0.1098 C   0  0  0  0  0  0  0  0  0  0  0  0
    5.5880   -1.5248   -0.0691 C   0  0  0  0  0  0  0  0  0  0  0  0
    5.9862   -0.2503   -0.3251 C   0  0  0  0  0  0  0  0  0  0  0  0
    5.0989    0.9021   -0.3242 C   0  0  0  0  0  0  0  0  0  0  0  0
    5.6574    2.1657   -0.5270 C   0  0  0  0  0  0  0  0  0  0  0  0
    4.8765    3.3196   -0.5717 C   0  0  0  0  0  0  0  0  0  0  0  0
    3.5216    3.2348   -0.4139 C   0  0  0  0  0  0  0  0  0  0  0  0
    3.0004    2.0206   -0.2208 N   0  0  0  0  0  0  0  0  0  0  0  0
    3.7343    0.8754   -0.1725 C   0  0  0  0  0  0  0  0  0  0  0  0
    3.0816   -0.2751    0.0289 O   0  0  0  0  0  0  0  0  0  0  0  0
    1.7820   -0.6252    0.1673 C   0  0  0  0  0  0  0  0  0  0  0  0
    0.7095    0.2036    0.0222 C   0  0  0  0  0  0  0  0  0  0  0  0
   -0.6020   -0.2819    0.1878 C   0  0  0  0  0  0  0  0  0  0  0  0
   -0.8415   -1.5974    0.4985 C   0  0  0  0  0  0  0  0  0  0  0  0
   -2.1423   -2.1440    0.6383 N   0  0  0  0  0  0  0  0  0  0  0  0
   -3.3402   -1.4778    0.2813 C   0  0  0  0  0  0  0  0  0  0  0  0
   -3.7389   -1.4803   -1.0108 N   0  0  0  0  0  0  0  0  0  0  0  0
   -4.8485   -0.8776   -1.3072 N   0  0  0  0  0  0  0  0  0  0  0  0
   -5.6667   -0.2307   -0.4286 C   0  0  0  0  0  0  0  0  0  0  0  0
   -6.8833    0.4141   -0.8843 C   0  0  0  0  0  0  0  0  0  0  0  0
   -8.1434    0.1829   -0.3539 C   0  0  0  0  0  0  0  0  0  0  0  0
   -9.2535    0.8497   -0.8232 C   0  0  0  0  0  0  0  0  0  0  0  0
   -9.1344    1.7678   -1.8375 C   0  0  0  0  0  0  0  0  0  0  0  0
  -10.2406    2.4369   -2.3119 F   0  0  0  0  0  0  0  0  0  0  0  0
   -7.9032    2.0316   -2.3978 C   0  0  0  0  0  0  0  0  0  0  0  0
   -6.7931    1.3390   -1.9005 C   0  0  0  0  0  0  0  0  0  0  0  0
   -5.2651   -0.2224    0.8897 C   0  0  0  0  0  0  0  0  0  0  0  0
   -5.9975    0.4104    1.8685 C   0  0  0  0  0  0  0  0  0  0  0  0
   -5.5558    0.4081    3.1957 C   0  0  0  0  0  0  0  0  0  0  0  0
   -4.3818   -0.2295    3.5254 C   0  0  0  0  0  0  0  0  0  0  0  0
   -3.6221   -0.8769    2.5469 C   0  0  0  0  0  0  0  0  0  0  0  0
   -4.0801   -0.8582    1.2526 C   0  0  0  0  0  0  0  0  0  0  0  0
    0.2466   -2.4407    0.6479 C   0  0  0  0  0  0  0  0  0  0  0  0
    1.5080   -1.9658    0.4864 C   0  0  0  0  0  0  0  0  0  0  0  0
    7.3158   -0.0515   -0.6059 N   0  0  0  0  0  0  0  0  0  0  0  0
   11.0592    0.7672   -0.7538 H   0  0  0  0  0  0  0  0  0  0  0  0
    9.3990    1.3724   -0.6512 H   0  0  0  0  0  0  0  0  0  0  0  0
   10.0782    0.8234   -2.2870 H   0  0  0  0  0  0  0  0  0  0  0  0
   10.2660   -1.5204   -0.9848 H   0  0  0  0  0  0  0  0  0  0  0  0
    6.1686   -3.5436    0.1044 H   0  0  0  0  0  0  0  0  0  0  0  0
    4.5646   -1.7740    0.1643 H   0  0  0  0  0  0  0  0  0  0  0  0
    6.7279    2.2219   -0.6495 H   0  0  0  0  0  0  0  0  0  0  0  0
    5.3937    4.2728   -0.7355 H   0  0  0  0  0  0  0  0  0  0  0  0
    2.9175    4.1346   -0.4517 H   0  0  0  0  0  0  0  0  0  0  0  0
    0.8652    1.2414   -0.2214 H   0  0  0  0  0  0  0  0  0  0  0  0
   -1.4180    0.4042    0.0663 H   0  0  0  0  0  0  0  0  0  0  0  0
   -2.2744   -3.1172    1.0366 H   0  0  0  0  0  0  0  0  0  0  0  0
   -8.2788   -0.5493    0.4412 H   0  0  0  0  0  0  0  0  0  0  0  0
  -10.2228    0.6632   -0.4072 H   0  0  0  0  0  0  0  0  0  0  0  0
   -7.8313    2.7508   -3.1897 H   0  0  0  0  0  0  0  0  0  0  0  0
   -5.8496    1.5992   -2.3908 H   0  0  0  0  0  0  0  0  0  0  0  0
   -6.8965    0.9132    1.5881 H   0  0  0  0  0  0  0  0  0  0  0  0
   -6.1743    0.9216    3.9187 H   0  0  0  0  0  0  0  0  0  0  0  0
   -4.0702   -0.2123    4.5643 H   0  0  0  0  0  0  0  0  0  0  0  0
   -2.7093   -1.3560    2.8748 H   0  0  0  0  0  0  0  0  0  0  0  0
    0.0394   -3.4934    0.8991 H   0  0  0  0  0  0  0  0  0  0  0  0
    2.3380   -2.6262    0.6040 H   0  0  0  0  0  0  0  0  0  0  0  0
  1  2  1  0
  2  3  1  0
  3  4  2  0
  4  5  1  0
  5  6  2  0
  6  7  1  0
  7  8  1  0
  8  9  2  0
  9 10  1  0
 10 11  2  0
 11 12  1  0
 12 13  2  0
 13 14  1  0
 14 15  1  0
 15 16  2  0
 16 17  1  0
 17 18  2  0
 18 19  1  0
 19 20  1  0
 20 21  2  0
 21 22  1  0
 22 23  2  0
 23 24  1  0
 24 25  2  0
 25 26  1  0
 26 27  2  0
 27 28  1  0
 27 29  1  0
 29 30  2  0
 23 31  1  0
 31 32  2  0
 32 33  1  0
 33 34  2  0
 34 35  1  0
 35 36  2  0
 18 37  1  0
 37 38  2  0
  7 39  2  0
 39  3  1  0
 13  8  1  0
 38 15  1  0
 36 20  1  0
 30 24  1  0
 36 31  1  0
  1 40  1  0
  1 41  1  0
  1 42  1  0
  2 43  1  0
  5 44  1  0
  6 45  1  0
  9 46  1  0
 10 47  1  0
 11 48  1  0
 16 49  1  0
 17 50  1  0
 19 51  1  0
 25 52  1  0
 26 53  1  0
 29 54  1  0
 30 55  1  0
 32 56  1  0
 33 57  1  0
 34 58  1  0
 35 59  1  0
 37 60  1  0
 38 61  1  0
M  END
$$$$
