
     RDKit          3D

 38 41  0  0  0  0  0  0  0  0999 V2000
   -3.2109   -2.1733    1.1342 O   0  0  0  0  0  0  0  0  0  0  0  0
   -2.8488   -1.0587    0.4922 C   0  0  0  0  0  0  0  0  0  0  0  0
   -3.9414   -0.2056    0.1391 C   0  0  0  0  0  0  0  0  0  0  0  0
   -3.8455    0.7869   -0.7926 C   0  0  0  0  0  0  0  0  0  0  0  0
   -4.9615    1.5855   -1.0997 C   0  0  0  0  0  0  0  0  0  0  0  0
   -6.1717    1.4034   -0.4864 C   0  0  0  0  0  0  0  0  0  0  0  0
   -6.2641    0.4016    0.4513 C   0  0  0  0  0  0  0  0  0  0  0  0
   -5.1957   -0.3829    0.7639 C   0  0  0  0  0  0  0  0  0  0  0  0
   -1.4668   -0.9876    0.3195 N   0  0  0  0  0  0  0  0  0  0  0  0
   -0.6862   -2.1179    0.8753 C   0  0  0  0  0  0  0  0  0  0  0  0
    0.4177   -2.5047   -0.0974 C   0  0  0  0  0  0  0  0  0  0  0  0
    1.3182   -1.2911   -0.1358 C   0  0  0  0  0  0  0  0  0  0  0  0
    2.5958   -1.0721   -0.0928 O   0  0  0  0  0  0  0  0  0  0  0  0
    2.8747    0.2274   -0.1598 C   0  0  0  0  0  0  0  0  0  0  0  0
    4.2370    0.7615   -0.1326 C   0  0  0  0  0  0  0  0  0  0  0  0
    5.3309   -0.0770    0.0072 C   0  0  0  0  0  0  0  0  0  0  0  0
    6.6175    0.4024    0.0239 C   0  0  0  0  0  0  0  0  0  0  0  0
    6.8152    1.7546   -0.1024 C   0  0  0  0  0  0  0  0  0  0  0  0
    8.0648    2.2584   -0.0926 F   0  0  0  0  0  0  0  0  0  0  0  0
    5.6952    2.5818   -0.2436 C   0  0  0  0  0  0  0  0  0  0  0  0
    4.4460    2.0808   -0.2569 N   0  0  0  0  0  0  0  0  0  0  0  0
    1.6957    0.8483   -0.2517 N   0  0  0  0  0  0  0  0  0  0  0  0
    0.7123   -0.0485   -0.2396 C   0  0  0  0  0  0  0  0  0  0  0  0
   -0.7844    0.0621   -0.3373 C   0  0  0  0  0  0  0  0  0  0  0  0
   -2.9358    0.9803   -1.3189 H   0  0  0  0  0  0  0  0  0  0  0  0
   -4.8201    2.3642   -1.8521 H   0  0  0  0  0  0  0  0  0  0  0  0
   -7.0293    1.9982   -0.7103 H   0  0  0  0  0  0  0  0  0  0  0  0
   -7.1924    0.2208    0.9588 H   0  0  0  0  0  0  0  0  0  0  0  0
   -5.2970   -1.1533    1.5040 H   0  0  0  0  0  0  0  0  0  0  0  0
   -0.2370   -1.8688    1.8427 H   0  0  0  0  0  0  0  0  0  0  0  0
   -1.3517   -3.0143    0.9201 H   0  0  0  0  0  0  0  0  0  0  0  0
    0.9482   -3.3875    0.3006 H   0  0  0  0  0  0  0  0  0  0  0  0
    0.0242   -2.7406   -1.0863 H   0  0  0  0  0  0  0  0  0  0  0  0
    5.1625   -1.1289    0.1061 H   0  0  0  0  0  0  0  0  0  0  0  0
    7.4277   -0.2939    0.1364 H   0  0  0  0  0  0  0  0  0  0  0  0
    5.8956    3.6418   -0.3418 H   0  0  0  0  0  0  0  0  0  0  0  0
   -1.0820    1.0860    0.0026 H   0  0  0  0  0  0  0  0  0  0  0  0
   -0.9572    0.0608   -1.4659 H   0  0  0  0  0  0  0  0  0  0  0  0
  1  2  2  0
  2  3  1  0
  3  4  2  0
  4  5  1  0
  5  6  2  0
  6  7  1  0
  7  8  2  0
  2  9  1  0
  9 10  1  0
 10 11  1  0
 11 12  1  0
 12 13  1  0
 13 14  1  0
 14 15  1  0
 15 16  2  0
 16 17  1  0
 17 18  2  0
 18 19  1  0
 18 20  1  0
 20 21  2  0
 14 22  2  0
 22 23  1  0
 23 24  1  0
  8  3  1  0
 24  9  1  0
 23 12  2  0
 21 15  1  0
  4 25  1  0
  5 26  1  0
  6 27  1  0
  7 28  1  0
  8 29  1  0
 10 30  1  0
 10 31  1  0
 11 32  1  0
 11 33  1  0
 16 34  1  0
 17 35  1  0
 20 36  1  0
 24 37  1  0
 24 38  1  0
M  END
$$$$
