
     RDKit          3D

 21 22  0  0  0  0  0  0  0  0999 V2000
   -1.1486   -2.4351   -0.0998 C   0  0  0  0  0  0  0  0  0  0  0  0
   -0.5163   -1.1367   -0.0506 N   0  0  0  0  0  0  0  0  0  0  0  0
   -1.1831    0.0233   -0.0345 C   0  0  0  0  0  0  0  0  0  0  0  0
   -0.5660    1.2647    0.0128 C   0  0  0  0  0  0  0  0  0  0  0  0
   -1.5406    2.2209    0.0165 N   0  0  0  0  0  0  0  0  0  0  0  0
   -2.7467    1.6065   -0.0273 C   0  0  0  0  0  0  0  0  0  0  0  0
   -2.5060    0.2738   -0.0577 N   0  0  0  0  0  0  0  0  0  0  0  0
    0.8110    1.2849    0.0446 C   0  0  0  0  0  0  0  0  0  0  0  0
    1.3845    2.4057    0.0877 O   0  0  0  0  0  0  0  0  0  0  0  0
    1.5109    0.1515    0.0299 N   0  0  0  0  0  0  0  0  0  0  0  0
    2.9635    0.1473    0.0626 C   0  0  0  0  0  0  0  0  0  0  0  0
    0.8399   -1.0144   -0.0166 C   0  0  0  0  0  0  0  0  0  0  0  0
    1.5216   -2.0704   -0.0296 O   0  0  0  0  0  0  0  0  0  0  0  0
   -1.9169   -2.4746    0.6801 H   0  0  0  0  0  0  0  0  0  0  0  0
   -0.3773   -3.2022    0.1875 H   0  0  0  0  0  0  0  0  0  0  0  0
   -1.4952   -2.7278   -1.1124 H   0  0  0  0  0  0  0  0  0  0  0  0
   -1.3660    3.2670    0.0486 H   0  0  0  0  0  0  0  0  0  0  0  0
   -3.7281    2.0606   -0.0373 H   0  0  0  0  0  0  0  0  0  0  0  0
    3.3299   -0.8892   -0.1309 H   0  0  0  0  0  0  0  0  0  0  0  0
    3.3160    0.4293    1.0932 H   0  0  0  0  0  0  0  0  0  0  0  0
    3.4132    0.8150   -0.6666 H   0  0  0  0  0  0  0  0  0  0  0  0
  1  2  1  0
  2  3  1  0
  3  4  2  0
  4  5  1  0
  5  6  1  0
  6  7  2  0
  4  8  1  0
  8  9  2  0
  8 10  1  0
 10 11  1  0
 10 12  1  0
 12 13  2  0
 12  2  1  0
  7  3  1  0
  1 14  1  0
  1 15  1  0
  1 16  1  0
  5 17  1  0
  6 18  1  0
 11 19  1  0
 11 20  1  0
 11 21  1  0
M  END
$$$$
