
     RDKit          3D

 40 39  0  0  0  0  0  0  0  0999 V2000
   -1.4436    4.0366    0.4229 C   0  0  0  0  0  0  0  0  0  0  0  0
   -2.2071    2.9200   -0.2705 C   0  0  0  0  0  0  0  0  0  0  0  0
   -1.3696    2.4073   -1.4094 C   0  0  0  0  0  0  0  0  0  0  0  0
   -0.0456    1.8624   -0.9836 C   0  0  0  0  0  0  0  0  0  0  0  0
   -0.1836    0.2284    0.3697 Sn  0  0  0  0  0  3  0  0  0  0  0  0
   -1.2955   -1.4038   -0.5079 C   0  0  0  0  0  0  0  0  0  0  0  0
   -1.4036   -2.4808    0.5235 C   0  0  0  0  0  0  0  0  0  0  0  0
   -2.1822   -3.6655   -0.0405 C   0  0  0  0  0  0  0  0  0  0  0  0
   -3.5713   -3.2100   -0.4360 C   0  0  0  0  0  0  0  0  0  0  0  0
    1.7896   -0.5215    0.7624 C   0  0  0  0  0  0  0  0  0  0  0  0
    2.7387    0.6164    0.5740 C   0  0  0  0  0  0  0  0  0  0  0  0
    4.1792    0.2441    0.8165 C   0  0  0  0  0  0  0  0  0  0  0  0
    4.6726   -0.8475   -0.1066 C   0  0  0  0  0  0  0  0  0  0  0  0
   -2.0817    4.9360    0.5955 H   0  0  0  0  0  0  0  0  0  0  0  0
   -0.5848    4.3934   -0.1825 H   0  0  0  0  0  0  0  0  0  0  0  0
   -1.0717    3.6450    1.3849 H   0  0  0  0  0  0  0  0  0  0  0  0
   -2.5343    2.1298    0.4189 H   0  0  0  0  0  0  0  0  0  0  0  0
   -3.1232    3.3918   -0.6823 H   0  0  0  0  0  0  0  0  0  0  0  0
   -1.1751    3.2451   -2.1097 H   0  0  0  0  0  0  0  0  0  0  0  0
   -1.9423    1.6418   -1.9717 H   0  0  0  0  0  0  0  0  0  0  0  0
    0.5007    1.5290   -1.8792 H   0  0  0  0  0  0  0  0  0  0  0  0
    0.5779    2.6380   -0.4939 H   0  0  0  0  0  0  0  0  0  0  0  0
   -2.2607   -1.0569   -0.8987 H   0  0  0  0  0  0  0  0  0  0  0  0
   -0.6426   -1.7798   -1.3482 H   0  0  0  0  0  0  0  0  0  0  0  0
   -0.3850   -2.8255    0.7731 H   0  0  0  0  0  0  0  0  0  0  0  0
   -1.8648   -2.0884    1.4352 H   0  0  0  0  0  0  0  0  0  0  0  0
   -1.6682   -4.0540   -0.9218 H   0  0  0  0  0  0  0  0  0  0  0  0
   -2.2837   -4.4638    0.7051 H   0  0  0  0  0  0  0  0  0  0  0  0
   -4.1990   -4.0905   -0.6690 H   0  0  0  0  0  0  0  0  0  0  0  0
   -3.5483   -2.5848   -1.3501 H   0  0  0  0  0  0  0  0  0  0  0  0
   -4.0542   -2.6485    0.4128 H   0  0  0  0  0  0  0  0  0  0  0  0
    2.0439   -1.2951   -0.0036 H   0  0  0  0  0  0  0  0  0  0  0  0
    1.8562   -0.9927    1.7641 H   0  0  0  0  0  0  0  0  0  0  0  0
    2.5200    1.4741    1.2352 H   0  0  0  0  0  0  0  0  0  0  0  0
    2.6299    0.9584   -0.4807 H   0  0  0  0  0  0  0  0  0  0  0  0
    4.3482   -0.0616    1.8533 H   0  0  0  0  0  0  0  0  0  0  0  0
    4.7710    1.1545    0.5844 H   0  0  0  0  0  0  0  0  0  0  0  0
    5.7708   -0.7065   -0.2173 H   0  0  0  0  0  0  0  0  0  0  0  0
    4.5348   -1.8543    0.3645 H   0  0  0  0  0  0  0  0  0  0  0  0
    4.1881   -0.8208   -1.0960 H   0  0  0  0  0  0  0  0  0  0  0  0
  1  2  1  0
  2  3  1  0
  3  4  1  0
  4  5  1  0
  5  6  1  0
  6  7  1  0
  7  8  1  0
  8  9  1  0
  5 10  1  0
 10 11  1  0
 11 12  1  0
 12 13  1  0
  1 14  1  0
  1 15  1  0
  1 16  1  0
  2 17  1  0
  2 18  1  0
  3 19  1  0
  3 20  1  0
  4 21  1  0
  4 22  1  0
  6 23  1  0
  6 24  1  0
  7 25  1  0
  7 26  1  0
  8 27  1  0
  8 28  1  0
  9 29  1  0
  9 30  1  0
  9 31  1  0
 10 32  1  0
 10 33  1  0
 11 34  1  0
 11 35  1  0
 12 36  1  0
 12 37  1  0
 13 38  1  0
 13 39  1  0
 13 40  1  0
M  RAD  1   5   2
M  END
$$$$
