
     RDKit          3D

 78 85  0  0  0  0  0  0  0  0999 V2000
   -3.3511   -2.7864    0.8410 C   0  0  2  0  0  0  0  0  0  0  0  0
   -2.6630   -4.0763    1.2378 C   0  0  0  0  0  0  0  0  0  0  0  0
   -3.7935   -5.1042    1.1817 C   0  0  0  0  0  0  0  0  0  0  0  0
   -4.7015   -4.6644    0.0726 C   0  0  0  0  0  0  0  0  0  0  0  0
   -4.4815   -3.2181   -0.0037 N   0  0  0  0  0  0  0  0  0  0  0  0
   -5.1245   -2.1426   -0.7244 C   0  0  0  0  0  0  0  0  0  0  0  0
   -5.8992   -2.4785   -1.6700 O   0  0  0  0  0  0  0  0  0  0  0  0
   -4.7091   -0.7857   -0.1614 C   0  0  2  0  0  0  0  0  0  0  0  0
   -5.5599    0.2943   -0.7088 C   0  0  0  0  0  0  0  0  0  0  0  0
   -5.2722    1.6525   -0.2098 C   0  0  0  0  0  0  0  0  0  0  0  0
   -5.8434    1.9046    1.0508 C   0  0  0  0  0  0  0  0  0  0  0  0
   -5.7521    3.0963    1.7362 C   0  0  0  0  0  0  0  0  0  0  0  0
   -5.0604    4.1371    1.1789 C   0  0  0  0  0  0  0  0  0  0  0  0
   -4.4899    3.9447   -0.0387 C   0  0  0  0  0  0  0  0  0  0  0  0
   -4.6016    2.7462   -0.6915 C   0  0  0  0  0  0  0  0  0  0  0  0
   -3.2967   -0.7284   -0.3953 N   0  0  0  0  0  0  0  0  0  0  0  0
   -2.2017    0.0669   -0.9013 C   0  0  0  0  0  0  0  0  0  0  0  0
   -2.3402    0.7481   -1.9503 O   0  0  0  0  0  0  0  0  0  0  0  0
   -1.1090   -0.1847    0.0807 C   0  0  2  0  0  0  0  0  0  0  0  0
   -1.4463    0.6904    1.2878 C   0  0  0  0  0  0  0  0  0  0  0  0
    0.1948    0.1293   -0.3744 N   0  0  0  0  0  0  0  0  0  0  0  0
    0.9214   -0.3818   -1.4834 C   0  0  0  0  0  0  0  0  0  0  0  0
    0.3167   -1.2610   -2.1886 O   0  0  0  0  0  0  0  0  0  0  0  0
    2.3201    0.0785   -1.8155 C   0  0  1  0  0  0  0  0  0  0  0  0
    2.3961    1.5215   -2.0861 C   0  0  0  0  0  0  0  0  0  0  0  0
    3.5273    2.2647   -1.7450 N   0  0  0  0  0  0  0  0  0  0  0  0
    3.3006    3.6750   -1.5284 C   0  0  0  0  0  0  0  0  0  0  0  0
    4.4887    1.7492   -0.8411 C   0  0  2  0  0  0  0  0  0  0  0  0
    5.9130    1.9368   -1.2623 C   0  0  0  0  0  0  0  0  0  0  0  0
    6.8125    1.3292   -0.2562 C   0  0  0  0  0  0  0  0  0  0  0  0
    8.1354    1.5497    0.1191 C   0  0  0  0  0  0  0  0  0  0  0  0
    8.5056    0.6944    1.1217 N   0  0  0  0  0  0  0  0  0  0  0  0
    7.4763   -0.0879    1.4274 C   0  0  0  0  0  0  0  0  0  0  0  0
    7.1177   -1.1150    2.2727 C   0  0  0  0  0  0  0  0  0  0  0  0
    5.8491   -1.7003    2.2802 C   0  0  0  0  0  0  0  0  0  0  0  0
    4.8453   -1.2624    1.4048 C   0  0  0  0  0  0  0  0  0  0  0  0
    5.1754   -0.2192    0.5309 C   0  0  0  0  0  0  0  0  0  0  0  0
    6.4657    0.3036    0.5930 C   0  0  0  0  0  0  0  0  0  0  0  0
    4.2375    0.3484   -0.4404 C   0  0  0  0  0  0  0  0  0  0  0  0
    3.2884   -0.4594   -0.8337 C   0  0  0  0  0  0  0  0  0  0  0  0
   -1.3205   -1.4886    0.5033 O   0  0  0  0  0  0  0  0  0  0  0  0
   -2.5116   -1.9187   -0.0193 C   0  0  1  0  0  0  0  0  0  0  0  0
   -2.2396   -2.6442   -1.1947 O   0  0  0  0  0  0  0  0  0  0  0  0
   -3.7967   -2.2724    1.7095 H   0  0  0  0  0  0  0  0  0  0  0  0
   -1.8201   -4.3409    0.5996 H   0  0  0  0  0  0  0  0  0  0  0  0
   -2.3912   -3.9817    2.3133 H   0  0  0  0  0  0  0  0  0  0  0  0
   -3.4143   -6.1283    0.9844 H   0  0  0  0  0  0  0  0  0  0  0  0
   -4.3513   -5.1155    2.1585 H   0  0  0  0  0  0  0  0  0  0  0  0
   -4.4224   -5.1515   -0.8824 H   0  0  0  0  0  0  0  0  0  0  0  0
   -5.7721   -4.8762    0.2662 H   0  0  0  0  0  0  0  0  0  0  0  0
   -4.9824   -0.8775    0.9392 H   0  0  0  0  0  0  0  0  0  0  0  0
   -5.5922    0.2806   -1.8355 H   0  0  0  0  0  0  0  0  0  0  0  0
   -6.6203    0.0419   -0.4302 H   0  0  0  0  0  0  0  0  0  0  0  0
   -6.4233    1.1517    1.6050 H   0  0  0  0  0  0  0  0  0  0  0  0
   -6.2011    3.2624    2.7044 H   0  0  0  0  0  0  0  0  0  0  0  0
   -4.9053    5.1189    1.5932 H   0  0  0  0  0  0  0  0  0  0  0  0
   -3.9198    4.6958   -0.5756 H   0  0  0  0  0  0  0  0  0  0  0  0
   -4.1829    2.5726   -1.6628 H   0  0  0  0  0  0  0  0  0  0  0  0
   -2.5354    0.5725    1.4556 H   0  0  0  0  0  0  0  0  0  0  0  0
   -1.2820    1.7428    1.0058 H   0  0  0  0  0  0  0  0  0  0  0  0
   -0.8899    0.3826    2.1901 H   0  0  0  0  0  0  0  0  0  0  0  0
    0.7639    0.8456    0.1491 H   0  0  0  0  0  0  0  0  0  0  0  0
    2.5698   -0.4550   -2.7729 H   0  0  0  0  0  0  0  0  0  0  0  0
    1.5148    1.9937   -1.5546 H   0  0  0  0  0  0  0  0  0  0  0  0
    2.1597    1.7570   -3.1686 H   0  0  0  0  0  0  0  0  0  0  0  0
    4.1563    4.2170   -2.0180 H   0  0  0  0  0  0  0  0  0  0  0  0
    3.3996    3.8654   -0.4406 H   0  0  0  0  0  0  0  0  0  0  0  0
    2.3315    3.9941   -1.9089 H   0  0  0  0  0  0  0  0  0  0  0  0
    4.3850    2.3639    0.1049 H   0  0  0  0  0  0  0  0  0  0  0  0
    6.1475    3.0038   -1.4407 H   0  0  0  0  0  0  0  0  0  0  0  0
    6.1383    1.4113   -2.2254 H   0  0  0  0  0  0  0  0  0  0  0  0
    8.8187    2.2983   -0.3084 H   0  0  0  0  0  0  0  0  0  0  0  0
    9.4193    0.6092    1.6132 H   0  0  0  0  0  0  0  0  0  0  0  0
    7.8979   -1.4619    2.9600 H   0  0  0  0  0  0  0  0  0  0  0  0
    5.6149   -2.5042    2.9618 H   0  0  0  0  0  0  0  0  0  0  0  0
    3.8497   -1.6753    1.3685 H   0  0  0  0  0  0  0  0  0  0  0  0
    3.1656   -1.4587   -0.5051 H   0  0  0  0  0  0  0  0  0  0  0  0
   -2.3490   -2.0353   -1.9715 H   0  0  0  0  0  0  0  0  0  0  0  0
  1  2  1  0
  2  3  1  0
  3  4  1  0
  4  5  1  0
  5  6  1  0
  6  7  2  0
  6  8  1  0
  8  9  1  0
  9 10  1  0
 10 11  2  0
 11 12  1  0
 12 13  2  0
 13 14  1  0
 14 15  2  0
  8 16  1  0
 16 17  1  0
 17 18  2  0
 17 19  1  0
 19 20  1  0
 19 21  1  6
 21 22  1  0
 22 23  2  0
 22 24  1  0
 24 25  1  0
 25 26  1  0
 26 27  1  0
 26 28  1  0
 28 29  1  0
 29 30  1  0
 30 31  2  0
 31 32  1  0
 32 33  1  0
 33 34  2  0
 34 35  1  0
 35 36  2  0
 36 37  1  0
 37 38  2  0
 37 39  1  0
 39 40  2  0
 19 41  1  0
 41 42  1  0
 42 43  1  6
  5  1  1  0
 15 10  1  0
 42 16  1  0
 42  1  1  0
 40 24  1  0
 39 28  1  0
 38 30  1  0
 38 33  1  0
  1 44  1  1
  2 45  1  0
  2 46  1  0
  3 47  1  0
  3 48  1  0
  4 49  1  0
  4 50  1  0
  8 51  1  1
  9 52  1  0
  9 53  1  0
 11 54  1  0
 12 55  1  0
 13 56  1  0
 14 57  1  0
 15 58  1  0
 20 59  1  0
 20 60  1  0
 20 61  1  0
 21 62  1  0
 24 63  1  6
 25 64  1  0
 25 65  1  0
 27 66  1  0
 27 67  1  0
 27 68  1  0
 28 69  1  1
 29 70  1  0
 29 71  1  0
 31 72  1  0
 32 73  1  0
 34 74  1  0
 35 75  1  0
 36 76  1  0
 40 77  1  0
 43 78  1  0
M  END
$$$$
