
     RDKit          3D

 37 37  0  0  0  0  0  0  0  0999 V2000
   -3.6022    1.6079    1.7002 C   0  0  0  0  0  0  0  0  0  0  0  0
   -3.9354    0.6423    0.6020 C   0  0  0  0  0  0  0  0  0  0  0  0
   -3.0492   -0.4089    0.3431 N   0  0  0  0  0  0  0  0  0  0  0  0
   -3.5368   -1.2845   -0.7286 C   0  0  0  0  0  0  0  0  0  0  0  0
   -3.5486   -0.6290   -2.0713 C   0  0  0  0  0  0  0  0  0  0  0  0
   -1.6684   -0.2021    0.2000 C   0  0  0  0  0  0  0  0  0  0  0  0
   -0.8479    0.1636    1.3708 C   0  0  0  0  0  0  0  0  0  0  0  0
    0.5152    0.3125    0.9326 O   0  0  0  0  0  0  0  0  0  0  0  0
    1.2631   -0.6839    0.3749 C   0  0  0  0  0  0  0  0  0  0  0  0
    0.9013   -1.8647    0.1583 O   0  0  0  0  0  0  0  0  0  0  0  0
    2.6459   -0.3717   -0.0268 C   0  0  0  0  0  0  0  0  0  0  0  0
    3.4260   -1.3519   -0.6419 C   0  0  0  0  0  0  0  0  0  0  0  0
    2.8026   -2.9602   -0.9613 Cl  0  0  0  0  0  0  0  0  0  0  0  0
    4.7327   -1.0416   -1.0131 C   0  0  0  0  0  0  0  0  0  0  0  0
    5.2150    0.2156   -0.7643 C   0  0  0  0  0  0  0  0  0  0  0  0
    6.5441    0.5486   -1.1367 N   0  0  0  0  0  0  0  0  0  0  0  0
    4.4938    1.2148   -0.1641 C   0  0  0  0  0  0  0  0  0  0  0  0
    3.1912    0.8969    0.2031 C   0  0  0  0  0  0  0  0  0  0  0  0
   -4.5406    2.1740    2.0228 H   0  0  0  0  0  0  0  0  0  0  0  0
   -3.2720    1.1220    2.6265 H   0  0  0  0  0  0  0  0  0  0  0  0
   -2.9521    2.4190    1.3227 H   0  0  0  0  0  0  0  0  0  0  0  0
   -4.2672    1.1956   -0.3282 H   0  0  0  0  0  0  0  0  0  0  0  0
   -4.9142    0.1607    0.9292 H   0  0  0  0  0  0  0  0  0  0  0  0
   -4.5407   -1.6222   -0.4482 H   0  0  0  0  0  0  0  0  0  0  0  0
   -2.8618   -2.1660   -0.7428 H   0  0  0  0  0  0  0  0  0  0  0  0
   -2.6368   -0.0283   -2.2468 H   0  0  0  0  0  0  0  0  0  0  0  0
   -3.4914   -1.4674   -2.8243 H   0  0  0  0  0  0  0  0  0  0  0  0
   -4.4862   -0.1029   -2.3317 H   0  0  0  0  0  0  0  0  0  0  0  0
   -1.2325   -1.1626   -0.2164 H   0  0  0  0  0  0  0  0  0  0  0  0
   -1.4539    0.5423   -0.6074 H   0  0  0  0  0  0  0  0  0  0  0  0
   -1.0639    1.1383    1.8334 H   0  0  0  0  0  0  0  0  0  0  0  0
   -0.8923   -0.5734    2.2054 H   0  0  0  0  0  0  0  0  0  0  0  0
    5.3496   -1.7919   -1.4913 H   0  0  0  0  0  0  0  0  0  0  0  0
    7.3511    0.0245   -1.5187 H   0  0  0  0  0  0  0  0  0  0  0  0
    6.9640    1.4890   -1.0765 H   0  0  0  0  0  0  0  0  0  0  0  0
    4.8625    2.2158    0.0406 H   0  0  0  0  0  0  0  0  0  0  0  0
    2.5359    1.6295    0.6905 H   0  0  0  0  0  0  0  0  0  0  0  0
  1  2  1  0
  2  3  1  0
  3  4  1  0
  4  5  1  0
  3  6  1  0
  6  7  1  0
  7  8  1  0
  8  9  1  0
  9 10  2  0
  9 11  1  0
 11 12  2  0
 12 13  1  0
 12 14  1  0
 14 15  2  0
 15 16  1  0
 15 17  1  0
 17 18  2  0
 18 11  1  0
  1 19  1  0
  1 20  1  0
  1 21  1  0
  2 22  1  0
  2 23  1  0
  4 24  1  0
  4 25  1  0
  5 26  1  0
  5 27  1  0
  5 28  1  0
  6 29  1  0
  6 30  1  0
  7 31  1  0
  7 32  1  0
 14 33  1  0
 16 34  1  0
 16 35  1  0
 17 36  1  0
 18 37  1  0
M  END
$$$$
