
     RDKit          3D

 53 57  0  0  0  0  0  0  0  0999 V2000
   -8.9966   -0.4312   -0.0725 C   0  0  0  0  0  0  0  0  0  0  0  0
   -8.0085   -0.2578   -1.1081 N   0  0  0  0  0  0  0  0  0  0  0  0
   -6.6541   -0.6177   -0.9086 C   0  0  0  0  0  0  0  0  0  0  0  0
   -6.2167   -1.8593   -1.2042 N   0  0  0  0  0  0  0  0  0  0  0  0
   -4.9397   -2.2286   -1.0257 C   0  0  0  0  0  0  0  0  0  0  0  0
   -3.9886   -1.3308   -0.5175 C   0  0  0  0  0  0  0  0  0  0  0  0
   -4.4327   -0.0755   -0.2190 C   0  0  0  0  0  0  0  0  0  0  0  0
   -3.5656    0.9747    0.3182 C   0  0  0  0  0  0  0  0  0  0  0  0
   -4.1476    2.2172    0.5780 C   0  0  0  0  0  0  0  0  0  0  0  0
   -3.4238    3.2641    1.0809 C   0  0  0  0  0  0  0  0  0  0  0  0
   -2.0775    3.0741    1.3351 C   0  0  0  0  0  0  0  0  0  0  0  0
   -1.5378    1.8774    1.0799 N   0  0  0  0  0  0  0  0  0  0  0  0
   -2.2435    0.8394    0.5842 C   0  0  0  0  0  0  0  0  0  0  0  0
   -1.5787   -0.3228    0.3705 O   0  0  0  0  0  0  0  0  0  0  0  0
   -0.2663   -0.6122    0.5706 C   0  0  0  0  0  0  0  0  0  0  0  0
    0.1080   -1.5886    1.4620 C   0  0  0  0  0  0  0  0  0  0  0  0
    1.4139   -1.9268    1.7072 C   0  0  0  0  0  0  0  0  0  0  0  0
    2.4142   -1.2448    1.0164 C   0  0  0  0  0  0  0  0  0  0  0  0
    3.7396   -1.6246    1.2998 N   0  0  0  0  0  0  0  0  0  0  0  0
    4.8779   -1.0389    0.6907 C   0  0  0  0  0  0  0  0  0  0  0  0
    4.9793   -0.0696   -0.2209 N   0  0  0  0  0  0  0  0  0  0  0  0
    6.2565    0.1917   -0.5340 C   0  0  0  0  0  0  0  0  0  0  0  0
    6.8736    1.0749   -1.3931 C   0  0  0  0  0  0  0  0  0  0  0  0
    8.2445    1.1135   -1.5031 C   0  0  0  0  0  0  0  0  0  0  0  0
    9.0516    0.2608   -0.7495 C   0  0  0  0  0  0  0  0  0  0  0  0
    8.4057   -0.6104    0.0998 C   0  0  0  0  0  0  0  0  0  0  0  0
    7.0305   -0.6625    0.2227 C   0  0  0  0  0  0  0  0  0  0  0  0
    6.1762   -1.3903    0.9492 N   0  0  0  0  0  0  0  0  0  0  0  0
    2.0545   -0.2763    0.1313 C   0  0  0  0  0  0  0  0  0  0  0  0
    0.7163    0.0565   -0.1074 C   0  0  0  0  0  0  0  0  0  0  0  0
    0.3982    1.1343   -1.1139 C   0  0  0  0  0  0  0  0  0  0  0  0
   -5.7435    0.2346   -0.4244 N   0  0  0  0  0  0  0  0  0  0  0  0
   -9.9495   -0.8577   -0.4408 H   0  0  0  0  0  0  0  0  0  0  0  0
   -9.2376    0.5276    0.4292 H   0  0  0  0  0  0  0  0  0  0  0  0
   -8.5981   -1.0967    0.7429 H   0  0  0  0  0  0  0  0  0  0  0  0
   -8.2988    0.1396   -2.0187 H   0  0  0  0  0  0  0  0  0  0  0  0
   -4.5817   -3.2301   -1.2630 H   0  0  0  0  0  0  0  0  0  0  0  0
   -2.9792   -1.6693   -0.3915 H   0  0  0  0  0  0  0  0  0  0  0  0
   -5.2076    2.3925    0.3861 H   0  0  0  0  0  0  0  0  0  0  0  0
   -3.8981    4.2255    1.2763 H   0  0  0  0  0  0  0  0  0  0  0  0
   -1.5127    3.9178    1.7360 H   0  0  0  0  0  0  0  0  0  0  0  0
   -0.6416   -2.1591    2.0352 H   0  0  0  0  0  0  0  0  0  0  0  0
    1.6863   -2.7100    2.4237 H   0  0  0  0  0  0  0  0  0  0  0  0
    3.9264   -2.3952    2.0099 H   0  0  0  0  0  0  0  0  0  0  0  0
    6.2622    1.7395   -1.9813 H   0  0  0  0  0  0  0  0  0  0  0  0
    8.7263    1.8094   -2.1797 H   0  0  0  0  0  0  0  0  0  0  0  0
   10.1325    0.2984   -0.8430 H   0  0  0  0  0  0  0  0  0  0  0  0
    8.9953   -1.2890    0.7024 H   0  0  0  0  0  0  0  0  0  0  0  0
    6.4663   -2.1367    1.6313 H   0  0  0  0  0  0  0  0  0  0  0  0
    2.7833    0.2851   -0.4322 H   0  0  0  0  0  0  0  0  0  0  0  0
    1.0460    0.9012   -1.9862 H   0  0  0  0  0  0  0  0  0  0  0  0
    0.6208    2.0996   -0.6573 H   0  0  0  0  0  0  0  0  0  0  0  0
   -0.6597    1.0635   -1.4304 H   0  0  0  0  0  0  0  0  0  0  0  0
  1  2  1  0
  2  3  1  0
  3  4  2  0
  4  5  1  0
  5  6  2  0
  6  7  1  0
  7  8  1  0
  8  9  2  0
  9 10  1  0
 10 11  2  0
 11 12  1  0
 12 13  2  0
 13 14  1  0
 14 15  1  0
 15 16  2  0
 16 17  1  0
 17 18  2  0
 18 19  1  0
 19 20  1  0
 20 21  2  0
 21 22  1  0
 22 23  2  0
 23 24  1  0
 24 25  2  0
 25 26  1  0
 26 27  2  0
 27 28  1  0
 18 29  1  0
 29 30  2  0
 30 31  1  0
  7 32  2  0
 32  3  1  0
 13  8  1  0
 30 15  1  0
 28 20  1  0
 27 22  1  0
  1 33  1  0
  1 34  1  0
  1 35  1  0
  2 36  1  0
  5 37  1  0
  6 38  1  0
  9 39  1  0
 10 40  1  0
 11 41  1  0
 16 42  1  0
 17 43  1  0
 19 44  1  0
 23 45  1  0
 24 46  1  0
 25 47  1  0
 26 48  1  0
 28 49  1  0
 29 50  1  0
 31 51  1  0
 31 52  1  0
 31 53  1  0
M  END
$$$$
