
     RDKit          3D

 66 69  0  0  0  0  0  0  0  0999 V2000
    2.4340   -1.6837    0.6289 C   0  0  0  0  0  0  0  0  0  0  0  0
    2.9031   -0.3001    0.7774 C   0  0  0  0  0  0  0  0  0  0  0  0
    4.2481   -0.0066    0.4772 C   0  0  0  0  0  0  0  0  0  0  0  0
    4.7693    1.2554    0.5341 C   0  0  0  0  0  0  0  0  0  0  0  0
    6.0686    1.5220    0.2405 O   0  0  0  0  0  0  0  0  0  0  0  0
    7.1134    0.7325   -0.1611 C   0  0  0  0  0  0  0  0  0  0  0  0
    6.9803    0.0230   -1.4719 C   0  0  0  0  0  0  0  0  0  0  0  0
    6.7799    0.9303   -2.6785 C   0  0  0  0  0  0  0  0  0  0  0  0
    8.2741    1.1574   -2.6888 C   0  0  0  0  0  0  0  0  0  0  0  0
    8.3937   -0.2319   -2.0519 C   0  0  0  0  0  0  0  0  0  0  0  0
    3.8724    2.2600    0.9162 C   0  0  0  0  0  0  0  0  0  0  0  0
    2.6012    1.9986    1.2041 N   0  0  0  0  0  0  0  0  0  0  0  0
    2.0800    0.7147    1.1449 C   0  0  0  0  0  0  0  0  0  0  0  0
    0.7138    0.5748    1.5532 C   0  0  0  0  0  0  0  0  0  0  0  0
   -0.0391    1.6279    1.4612 O   0  0  0  0  0  0  0  0  0  0  0  0
    0.0811   -0.5579    2.0489 N   0  0  0  0  0  0  0  0  0  0  0  0
   -1.3089   -0.5785    2.4244 C   0  0  0  0  0  0  0  0  0  0  0  0
   -1.7536   -0.2796    3.6838 C   0  0  0  0  0  0  0  0  0  0  0  0
   -3.0875   -0.3157    4.0119 C   0  0  0  0  0  0  0  0  0  0  0  0
   -4.0120   -0.6597    3.0592 C   0  0  0  0  0  0  0  0  0  0  0  0
   -5.3357   -0.6665    3.4008 F   0  0  0  0  0  0  0  0  0  0  0  0
   -3.6002   -0.9735    1.7590 C   0  0  0  0  0  0  0  0  0  0  0  0
   -4.5875   -1.3658    0.7413 C   0  0  2  0  0  0  0  0  0  0  0  0
   -5.3658   -2.5921    1.2798 C   0  0  0  0  0  0  0  0  0  0  0  0
   -6.2975   -2.9690    0.3147 F   0  0  0  0  0  0  0  0  0  0  0  0
   -3.9351   -1.8600   -0.5141 C   0  0  0  0  0  0  0  0  0  0  0  0
   -3.7563   -0.6529   -1.7747 S   0  0  0  0  0  6  0  0  0  0  0  0
   -4.1044   -1.3027   -3.1086 O   0  0  0  0  0  0  0  0  0  0  0  0
   -2.3585   -0.1438   -1.9369 O   0  0  0  0  0  0  0  0  0  0  0  0
   -4.8842    0.6929   -1.5110 C   0  0  0  0  0  0  0  0  0  0  0  0
   -4.0866    1.9613   -1.2789 C   0  0  0  0  0  0  0  0  0  0  0  0
   -5.7381    0.9187   -2.7427 C   0  0  0  0  0  0  0  0  0  0  0  0
   -5.7672    0.4878   -0.3549 C   0  0  0  0  0  0  0  0  0  0  0  0
   -6.9132    1.3387   -0.2445 N   0  0  0  0  0  0  0  0  0  0  0  0
   -5.5768   -0.3684    0.5127 N   0  0  0  0  0  0  0  0  0  0  0  0
   -2.2617   -0.9259    1.4689 C   0  0  0  0  0  0  0  0  0  0  0  0
    2.5925   -2.3367    1.4984 H   0  0  0  0  0  0  0  0  0  0  0  0
    3.1404   -2.1512   -0.1555 H   0  0  0  0  0  0  0  0  0  0  0  0
    1.4522   -1.7954    0.1211 H   0  0  0  0  0  0  0  0  0  0  0  0
    4.8594   -0.8493    0.2040 H   0  0  0  0  0  0  0  0  0  0  0  0
    8.0574    1.3646   -0.1389 H   0  0  0  0  0  0  0  0  0  0  0  0
    7.3672   -0.0862    0.5890 H   0  0  0  0  0  0  0  0  0  0  0  0
    6.4029   -0.9021   -1.5161 H   0  0  0  0  0  0  0  0  0  0  0  0
    6.4622    0.3307   -3.5621 H   0  0  0  0  0  0  0  0  0  0  0  0
    6.1638    1.8131   -2.5112 H   0  0  0  0  0  0  0  0  0  0  0  0
    8.6015    1.9646   -2.0061 H   0  0  0  0  0  0  0  0  0  0  0  0
    8.7487    1.2447   -3.6836 H   0  0  0  0  0  0  0  0  0  0  0  0
    8.3701   -0.9909   -2.8453 H   0  0  0  0  0  0  0  0  0  0  0  0
    9.1614   -0.3062   -1.2833 H   0  0  0  0  0  0  0  0  0  0  0  0
    4.2609    3.2732    0.9695 H   0  0  0  0  0  0  0  0  0  0  0  0
    0.6090   -1.4403    2.1939 H   0  0  0  0  0  0  0  0  0  0  0  0
   -1.0512   -0.0064    4.4488 H   0  0  0  0  0  0  0  0  0  0  0  0
   -3.4556   -0.0787    5.0166 H   0  0  0  0  0  0  0  0  0  0  0  0
   -4.6884   -3.4278    1.5064 H   0  0  0  0  0  0  0  0  0  0  0  0
   -5.9556   -2.3505    2.1717 H   0  0  0  0  0  0  0  0  0  0  0  0
   -2.9798   -2.3627   -0.3328 H   0  0  0  0  0  0  0  0  0  0  0  0
   -4.5850   -2.7272   -0.9253 H   0  0  0  0  0  0  0  0  0  0  0  0
   -4.7629    2.6805   -0.7641 H   0  0  0  0  0  0  0  0  0  0  0  0
   -3.1440    1.7910   -0.7339 H   0  0  0  0  0  0  0  0  0  0  0  0
   -3.8638    2.3677   -2.3030 H   0  0  0  0  0  0  0  0  0  0  0  0
   -6.6808    1.3969   -2.3930 H   0  0  0  0  0  0  0  0  0  0  0  0
   -5.2175    1.6400   -3.3891 H   0  0  0  0  0  0  0  0  0  0  0  0
   -5.9365   -0.0306   -3.2889 H   0  0  0  0  0  0  0  0  0  0  0  0
   -6.7593    2.2843    0.1574 H   0  0  0  0  0  0  0  0  0  0  0  0
   -7.8715    1.0744   -0.5383 H   0  0  0  0  0  0  0  0  0  0  0  0
   -1.8407   -1.1452    0.4816 H   0  0  0  0  0  0  0  0  0  0  0  0
  1  2  1  0
  2  3  2  0
  3  4  1  0
  4  5  1  0
  5  6  1  0
  6  7  1  0
  7  8  1  0
  8  9  1  0
  9 10  1  0
  4 11  2  0
 11 12  1  0
 12 13  2  0
 13 14  1  0
 14 15  2  0
 14 16  1  0
 16 17  1  0
 17 18  2  0
 18 19  1  0
 19 20  2  0
 20 21  1  0
 20 22  1  0
 22 23  1  0
 23 24  1  1
 24 25  1  0
 23 26  1  0
 26 27  1  0
 27 28  2  0
 27 29  2  0
 27 30  1  0
 30 31  1  0
 30 32  1  0
 30 33  1  0
 33 34  1  0
 33 35  2  0
 22 36  2  0
 13  2  1  0
 36 17  1  0
 10  7  1  0
 35 23  1  0
  1 37  1  0
  1 38  1  0
  1 39  1  0
  3 40  1  0
  6 41  1  0
  6 42  1  0
  7 43  1  0
  8 44  1  0
  8 45  1  0
  9 46  1  0
  9 47  1  0
 10 48  1  0
 10 49  1  0
 11 50  1  0
 16 51  1  0
 18 52  1  0
 19 53  1  0
 24 54  1  0
 24 55  1  0
 26 56  1  0
 26 57  1  0
 31 58  1  0
 31 59  1  0
 31 60  1  0
 32 61  1  0
 32 62  1  0
 32 63  1  0
 34 64  1  0
 34 65  1  0
 36 66  1  0
M  END
$$$$
