
     RDKit          3D

 78 82  0  0  0  0  0  0  0  0999 V2000
  -10.8119    0.1519   -0.1242 C   0  0  0  0  0  0  0  0  0  0  0  0
   -9.3145   -0.0474   -0.1225 C   0  0  0  0  0  0  0  0  0  0  0  0
   -8.7422    0.8740   -1.1735 C   0  0  0  0  0  0  0  0  0  0  0  0
   -7.2607    0.7328   -1.2344 C   0  0  0  0  0  0  0  0  0  0  0  0
   -6.4841    1.5482   -0.4104 C   0  0  0  0  0  0  0  0  0  0  0  0
   -5.1091    1.4634   -0.4302 C   0  0  0  0  0  0  0  0  0  0  0  0
   -4.4468    0.5766   -1.2578 C   0  0  0  0  0  0  0  0  0  0  0  0
   -2.7089    0.4711   -1.2836 S   0  0  0  0  0  6  0  0  0  0  0  0
   -2.1684    0.1573   -2.6608 O   0  0  0  0  0  0  0  0  0  0  0  0
   -2.1145    1.8135   -0.9011 O   0  0  0  0  0  0  0  0  0  0  0  0
   -2.1079   -0.7778   -0.2262 N   0  0  0  0  0  0  0  0  0  0  0  0
   -2.4853   -0.5049    1.1450 C   0  0  0  0  0  0  0  0  0  0  0  0
   -1.9704   -1.5408    2.0416 C   0  0  1  0  0  0  0  0  0  0  0  0
   -2.3924   -2.9511    1.8103 C   0  0  0  0  0  0  0  0  0  0  0  0
   -1.2562   -3.7573    2.4695 C   0  0  0  0  0  0  0  0  0  0  0  0
   -0.3749   -2.6843    3.1458 C   0  0  0  0  0  0  0  0  0  0  0  0
   -0.5385   -1.6460    2.1429 N   0  0  0  0  0  0  0  0  0  0  0  0
    0.5395   -0.9675    1.5172 C   0  0  0  0  0  0  0  0  0  0  0  0
    0.5606   -0.7195    0.1981 N   0  0  0  0  0  0  0  0  0  0  0  0
    1.5873   -0.0575   -0.3387 C   0  0  0  0  0  0  0  0  0  0  0  0
    1.6577    0.2144   -1.7451 N   0  0  0  0  0  0  0  0  0  0  0  0
    2.7420    0.9211   -2.3761 C   0  0  0  0  0  0  0  0  0  0  0  0
    2.8660    2.3482   -1.8682 C   0  0  0  0  0  0  0  0  0  0  0  0
    1.6226    3.0200   -2.1673 C   0  0  0  0  0  0  0  0  0  0  0  0
    0.5887    3.5812   -2.3982 N   0  0  0  0  0  0  0  0  0  0  0  0
    2.6295    0.3896    0.3813 N   0  0  0  0  0  0  0  0  0  0  0  0
    2.6292    0.1536    1.7035 C   0  0  0  0  0  0  0  0  0  0  0  0
    3.6849    0.6111    2.5272 N   0  0  0  0  0  0  0  0  0  0  0  0
    4.8620   -0.1395    2.8323 C   0  0  0  0  0  0  0  0  0  0  0  0
    5.6379   -0.5320    1.5901 C   0  0  0  0  0  0  0  0  0  0  0  0
    5.4210   -1.7454    0.9706 C   0  0  0  0  0  0  0  0  0  0  0  0
    6.5691   -1.6563   -0.3980 S   0  0  0  0  0  0  0  0  0  0  0  0
    7.1879    0.0606    0.0878 C   0  0  0  0  0  0  0  0  0  0  0  0
    8.2347    0.6733   -0.7466 C   0  0  0  0  0  0  0  0  0  0  0  0
    8.7610    0.0088   -1.8194 C   0  0  0  0  0  0  0  0  0  0  0  0
    9.7661    0.6304   -2.5776 C   0  0  0  0  0  0  0  0  0  0  0  0
   10.2066    1.8846   -2.2415 C   0  0  0  0  0  0  0  0  0  0  0  0
    9.6593    2.5550   -1.1408 C   0  0  0  0  0  0  0  0  0  0  0  0
    8.6771    1.9169   -0.4200 C   0  0  0  0  0  0  0  0  0  0  0  0
    6.5307    0.2393    1.0393 N   0  0  0  0  0  0  0  0  0  0  0  0
    1.5955   -0.5104    2.2212 N   0  0  0  0  0  0  0  0  0  0  0  0
   -5.2321   -0.2335   -2.0760 C   0  0  0  0  0  0  0  0  0  0  0  0
   -6.6131   -0.1436   -2.0521 C   0  0  0  0  0  0  0  0  0  0  0  0
  -11.1111    1.0962    0.4083 H   0  0  0  0  0  0  0  0  0  0  0  0
  -11.1248    0.2823   -1.1813 H   0  0  0  0  0  0  0  0  0  0  0  0
  -11.3628   -0.7267    0.2670 H   0  0  0  0  0  0  0  0  0  0  0  0
   -8.8853    0.1787    0.8751 H   0  0  0  0  0  0  0  0  0  0  0  0
   -9.1146   -1.0888   -0.4377 H   0  0  0  0  0  0  0  0  0  0  0  0
   -9.0546    1.9328   -1.0397 H   0  0  0  0  0  0  0  0  0  0  0  0
   -9.1460    0.5270   -2.1544 H   0  0  0  0  0  0  0  0  0  0  0  0
   -7.0000    2.2453    0.2381 H   0  0  0  0  0  0  0  0  0  0  0  0
   -4.4857    2.1022    0.2167 H   0  0  0  0  0  0  0  0  0  0  0  0
   -2.6238   -1.6560   -0.5506 H   0  0  0  0  0  0  0  0  0  0  0  0
   -3.6151   -0.5877    1.1554 H   0  0  0  0  0  0  0  0  0  0  0  0
   -2.2916    0.5322    1.4323 H   0  0  0  0  0  0  0  0  0  0  0  0
   -2.3000   -1.3209    3.1233 H   0  0  0  0  0  0  0  0  0  0  0  0
   -3.3526   -3.1975    2.3487 H   0  0  0  0  0  0  0  0  0  0  0  0
   -2.4610   -3.1894    0.7391 H   0  0  0  0  0  0  0  0  0  0  0  0
   -0.6291   -4.1315    1.6362 H   0  0  0  0  0  0  0  0  0  0  0  0
   -1.6126   -4.5116    3.1619 H   0  0  0  0  0  0  0  0  0  0  0  0
    0.6627   -3.0385    3.2297 H   0  0  0  0  0  0  0  0  0  0  0  0
   -0.8215   -2.3919    4.0989 H   0  0  0  0  0  0  0  0  0  0  0  0
    0.8724   -0.1255   -2.3344 H   0  0  0  0  0  0  0  0  0  0  0  0
    2.6006    0.9325   -3.4741 H   0  0  0  0  0  0  0  0  0  0  0  0
    3.7288    0.4328   -2.1916 H   0  0  0  0  0  0  0  0  0  0  0  0
    3.6722    2.8689   -2.4613 H   0  0  0  0  0  0  0  0  0  0  0  0
    3.1137    2.3951   -0.8001 H   0  0  0  0  0  0  0  0  0  0  0  0
    3.5886    1.5756    2.9412 H   0  0  0  0  0  0  0  0  0  0  0  0
    4.5602   -1.0518    3.3986 H   0  0  0  0  0  0  0  0  0  0  0  0
    5.5281    0.4158    3.5201 H   0  0  0  0  0  0  0  0  0  0  0  0
    4.7572   -2.5491    1.2107 H   0  0  0  0  0  0  0  0  0  0  0  0
    8.4407   -0.9749   -2.1155 H   0  0  0  0  0  0  0  0  0  0  0  0
   10.1589    0.0610   -3.4270 H   0  0  0  0  0  0  0  0  0  0  0  0
   10.9920    2.3518   -2.8464 H   0  0  0  0  0  0  0  0  0  0  0  0
   10.0186    3.5292   -0.9011 H   0  0  0  0  0  0  0  0  0  0  0  0
    8.2434    2.4273    0.4347 H   0  0  0  0  0  0  0  0  0  0  0  0
   -4.7959   -0.9532   -2.7511 H   0  0  0  0  0  0  0  0  0  0  0  0
   -7.2352   -0.7738   -2.6899 H   0  0  0  0  0  0  0  0  0  0  0  0
  1  2  1  0
  2  3  1  0
  3  4  1  0
  4  5  2  0
  5  6  1  0
  6  7  2  0
  7  8  1  0
  8  9  2  0
  8 10  2  0
  8 11  1  0
 11 12  1  0
 12 13  1  0
 13 14  1  0
 14 15  1  0
 15 16  1  0
 16 17  1  0
 17 18  1  0
 18 19  2  0
 19 20  1  0
 20 21  1  0
 21 22  1  0
 22 23  1  0
 23 24  1  0
 24 25  3  0
 20 26  2  0
 26 27  1  0
 27 28  1  0
 28 29  1  0
 29 30  1  0
 30 31  2  0
 31 32  1  0
 32 33  1  0
 33 34  1  0
 34 35  2  0
 35 36  1  0
 36 37  2  0
 37 38  1  0
 38 39  2  0
 33 40  2  0
 27 41  2  0
  7 42  1  0
 42 43  2  0
 43  4  1  0
 17 13  1  0
 41 18  1  0
 40 30  1  0
 39 34  1  0
  1 44  1  0
  1 45  1  0
  1 46  1  0
  2 47  1  0
  2 48  1  0
  3 49  1  0
  3 50  1  0
  5 51  1  0
  6 52  1  0
 11 53  1  0
 12 54  1  0
 12 55  1  0
 13 56  1  1
 14 57  1  0
 14 58  1  0
 15 59  1  0
 15 60  1  0
 16 61  1  0
 16 62  1  0
 21 63  1  0
 22 64  1  0
 22 65  1  0
 23 66  1  0
 23 67  1  0
 28 68  1  0
 29 69  1  0
 29 70  1  0
 31 71  1  0
 35 72  1  0
 36 73  1  0
 37 74  1  0
 38 75  1  0
 39 76  1  0
 42 77  1  0
 43 78  1  0
M  END
$$$$
