
     RDKit          3D

 65 69  0  0  0  0  0  0  0  0999 V2000
    5.9063   -2.5882   -0.3730 O   0  0  0  0  0  0  0  0  0  0  0  0
    5.3732   -1.6749    0.2581 C   0  0  0  0  0  0  0  0  0  0  0  0
    6.1285   -0.4985    0.4961 N   0  0  0  0  0  0  0  0  0  0  0  0
    7.4926   -0.2924    0.0504 C   0  0  0  0  0  0  0  0  0  0  0  0
    8.4541   -0.0744    1.1737 C   0  0  0  0  0  0  0  0  0  0  0  0
    8.4132    1.3118    1.7567 C   0  0  0  0  0  0  0  0  0  0  0  0
    9.0199    2.3540    0.8796 C   0  0  0  0  0  0  0  0  0  0  0  0
    9.0527    1.7498   -0.7848 S   0  0  0  0  0  6  0  0  0  0  0  0
    9.1331    2.8229   -1.8011 O   0  0  0  0  0  0  0  0  0  0  0  0
   10.2388    0.8267   -0.9900 O   0  0  0  0  0  0  0  0  0  0  0  0
    7.5947    0.7562   -1.0332 C   0  0  0  0  0  0  0  0  0  0  0  0
    4.0074   -1.8307    0.7299 C   0  0  0  0  0  0  0  0  0  0  0  0
    3.3314   -0.9185    1.5044 C   0  0  0  0  0  0  0  0  0  0  0  0
    2.0320   -1.0733    1.9442 C   0  0  0  0  0  0  0  0  0  0  0  0
    1.3745   -2.2339    1.5714 C   0  0  0  0  0  0  0  0  0  0  0  0
    0.0791   -2.3690    2.0196 O   0  0  0  0  0  0  0  0  0  0  0  0
   -1.0118   -1.9215    1.3147 C   0  0  0  0  0  0  0  0  0  0  0  0
   -0.9399   -1.3400    0.0709 C   0  0  0  0  0  0  0  0  0  0  0  0
   -2.0693   -0.9073   -0.5901 C   0  0  0  0  0  0  0  0  0  0  0  0
   -3.3374   -1.0388   -0.0296 C   0  0  0  0  0  0  0  0  0  0  0  0
   -4.5246   -0.5908   -0.7008 C   0  0  0  0  0  0  0  0  0  0  0  0
   -5.5313   -0.1955   -1.2555 C   0  0  0  0  0  0  0  0  0  0  0  0
   -6.7567    0.2693   -1.9087 C   0  0  2  0  0  0  0  0  0  0  0  0
   -7.0509   -0.4694   -3.0569 O   0  0  0  0  0  0  0  0  0  0  0  0
   -6.6794    1.7543   -2.2296 C   0  0  0  0  0  0  0  0  0  0  0  0
   -7.4903    2.5582   -1.3536 N   0  0  0  0  0  0  0  0  0  0  0  0
   -7.1697    2.3002    0.0247 C   0  0  0  0  0  0  0  0  0  0  0  0
   -7.4530    0.8562    0.3691 C   0  0  0  0  0  0  0  0  0  0  0  0
   -7.8702    0.1134   -0.8868 C   0  0  0  0  0  0  0  0  0  0  0  0
   -9.1077    0.7648   -1.4726 C   0  0  0  0  0  0  0  0  0  0  0  0
   -8.8802    2.2450   -1.6584 C   0  0  0  0  0  0  0  0  0  0  0  0
   -3.4066   -1.6221    1.2167 C   0  0  0  0  0  0  0  0  0  0  0  0
   -2.2712   -2.0581    1.8840 C   0  0  0  0  0  0  0  0  0  0  0  0
    1.9834   -3.1790    0.8063 C   0  0  0  0  0  0  0  0  0  0  0  0
    3.2996   -2.9883    0.3799 C   0  0  0  0  0  0  0  0  0  0  0  0
    5.6556    0.2585    1.0276 H   0  0  0  0  0  0  0  0  0  0  0  0
    7.8027   -1.2501   -0.4308 H   0  0  0  0  0  0  0  0  0  0  0  0
    8.1457   -0.7725    2.0024 H   0  0  0  0  0  0  0  0  0  0  0  0
    9.4700   -0.3533    0.9003 H   0  0  0  0  0  0  0  0  0  0  0  0
    9.0067    1.2736    2.6954 H   0  0  0  0  0  0  0  0  0  0  0  0
    7.3713    1.5598    2.0770 H   0  0  0  0  0  0  0  0  0  0  0  0
    8.4209    3.3058    0.8870 H   0  0  0  0  0  0  0  0  0  0  0  0
   10.0532    2.6428    1.1544 H   0  0  0  0  0  0  0  0  0  0  0  0
    7.7119    0.3119   -2.0506 H   0  0  0  0  0  0  0  0  0  0  0  0
    6.6705    1.3791   -1.1023 H   0  0  0  0  0  0  0  0  0  0  0  0
    3.8343   -0.0058    1.8043 H   0  0  0  0  0  0  0  0  0  0  0  0
    1.5339   -0.3216    2.5580 H   0  0  0  0  0  0  0  0  0  0  0  0
    0.0106   -1.2068   -0.4228 H   0  0  0  0  0  0  0  0  0  0  0  0
   -2.0212   -0.4508   -1.5650 H   0  0  0  0  0  0  0  0  0  0  0  0
   -6.3239   -1.1246   -3.1826 H   0  0  0  0  0  0  0  0  0  0  0  0
   -5.6142    2.0665   -2.0320 H   0  0  0  0  0  0  0  0  0  0  0  0
   -6.8913    1.9690   -3.2895 H   0  0  0  0  0  0  0  0  0  0  0  0
   -7.7077    3.0081    0.6585 H   0  0  0  0  0  0  0  0  0  0  0  0
   -6.0798    2.4934    0.1443 H   0  0  0  0  0  0  0  0  0  0  0  0
   -6.5912    0.3550    0.8227 H   0  0  0  0  0  0  0  0  0  0  0  0
   -8.2984    0.8444    1.0737 H   0  0  0  0  0  0  0  0  0  0  0  0
   -8.0771   -0.9417   -0.6604 H   0  0  0  0  0  0  0  0  0  0  0  0
   -9.2560    0.3292   -2.4926 H   0  0  0  0  0  0  0  0  0  0  0  0
  -10.0119    0.5469   -0.8706 H   0  0  0  0  0  0  0  0  0  0  0  0
   -9.0554    2.5738   -2.7016 H   0  0  0  0  0  0  0  0  0  0  0  0
   -9.5611    2.8090   -0.9913 H   0  0  0  0  0  0  0  0  0  0  0  0
   -4.4083   -1.7278    1.6620 H   0  0  0  0  0  0  0  0  0  0  0  0
   -2.3603   -2.5136    2.8628 H   0  0  0  0  0  0  0  0  0  0  0  0
    1.4690   -4.1052    0.5032 H   0  0  0  0  0  0  0  0  0  0  0  0
    3.7374   -3.7711   -0.2268 H   0  0  0  0  0  0  0  0  0  0  0  0
  1  2  2  0
  2  3  1  0
  3  4  1  0
  4  5  1  0
  5  6  1  0
  6  7  1  0
  7  8  1  0
  8  9  2  0
  8 10  2  0
  8 11  1  0
  2 12  1  0
 12 13  2  0
 13 14  1  0
 14 15  2  0
 15 16  1  0
 16 17  1  0
 17 18  2  0
 18 19  1  0
 19 20  2  0
 20 21  1  0
 21 22  3  0
 23 22  1  1
 23 24  1  0
 23 25  1  0
 25 26  1  0
 26 27  1  0
 27 28  1  0
 28 29  1  0
 29 30  1  0
 30 31  1  0
 20 32  1  0
 32 33  2  0
 15 34  1  0
 34 35  2  0
 11  4  1  0
 35 12  1  0
 33 17  1  0
 29 23  1  0
 31 26  1  0
  3 36  1  0
  4 37  1  0
  5 38  1  0
  5 39  1  0
  6 40  1  0
  6 41  1  0
  7 42  1  0
  7 43  1  0
 11 44  1  0
 11 45  1  0
 13 46  1  0
 14 47  1  0
 18 48  1  0
 19 49  1  0
 24 50  1  0
 25 51  1  0
 25 52  1  0
 27 53  1  0
 27 54  1  0
 28 55  1  0
 28 56  1  0
 29 57  1  0
 30 58  1  0
 30 59  1  0
 31 60  1  0
 31 61  1  0
 32 62  1  0
 33 63  1  0
 34 64  1  0
 35 65  1  0
M  END
$$$$
