
     RDKit          3D

 69 72  0  0  0  0  0  0  0  0999 V2000
   -0.6219   -6.4666   -1.5651 C   0  0  0  0  0  0  0  0  0  0  0  0
   -0.1952   -5.3055   -0.6934 C   0  0  0  0  0  0  0  0  0  0  0  0
   -0.2846   -5.8484    0.7518 C   0  0  0  0  0  0  0  0  0  0  0  0
   -1.1026   -4.2289   -0.8441 N   0  0  0  0  0  0  0  0  0  0  0  0
   -1.0076   -2.8646   -0.8178 C   0  0  0  0  0  0  0  0  0  0  0  0
    0.6010   -3.0091   -0.5583 O   0  0  0  0  0  0  0  0  0  0  0  0
   -0.9079   -1.5587   -0.7911 N   0  0  0  0  0  0  0  0  0  0  0  0
    0.1739   -0.7217   -0.3784 C   0  0  0  0  0  0  0  0  0  0  0  0
    1.1638   -0.2593   -1.2838 C   0  0  0  0  0  0  0  0  0  0  0  0
    1.0349    0.0924   -2.5499 C   0  0  0  0  0  0  0  0  0  0  0  0
    1.9677    0.7055   -3.2713 C   0  0  0  0  0  0  0  0  0  0  0  0
    3.2349    1.0281   -2.7159 C   0  0  0  0  0  0  0  0  0  0  0  0
    3.4394    0.6553   -1.3100 C   0  0  0  0  0  0  0  0  0  0  0  0
    4.6062    1.1187   -0.7950 C   0  0  0  0  0  0  0  0  0  0  0  0
    5.6580    1.5161   -0.3284 C   0  0  0  0  0  0  0  0  0  0  0  0
    7.0131    2.0043    0.2787 C   0  0  0  0  0  0  0  0  0  0  0  0
    7.3905    1.4826    1.4009 C   0  0  0  0  0  0  0  0  0  0  0  0
    8.6657    1.9673    2.0078 C   0  0  0  0  0  0  0  0  0  0  0  0
    9.2601    2.9160    1.2340 C   0  0  0  0  0  0  0  0  0  0  0  0
   10.6957    3.3074    1.7727 C   0  0  0  0  0  0  0  0  0  0  0  0
   11.2385    2.2618    2.4719 F   0  0  0  0  0  0  0  0  0  0  0  0
   10.5293    4.4177    2.5243 F   0  0  0  0  0  0  0  0  0  0  0  0
   11.4904    3.6099    0.6874 F   0  0  0  0  0  0  0  0  0  0  0  0
    8.9131    3.4546    0.1205 C   0  0  0  0  0  0  0  0  0  0  0  0
    7.6352    2.9757   -0.4893 C   0  0  0  0  0  0  0  0  0  0  0  0
    2.4194    0.0471   -0.6897 C   0  0  0  0  0  0  0  0  0  0  0  0
   -2.1467   -0.7751   -1.2519 C   0  0  0  0  0  0  0  0  0  0  0  0
   -2.8221   -0.3146    0.0068 C   0  0  0  0  0  0  0  0  0  0  0  0
   -2.4882   -0.8022    1.1353 C   0  0  0  0  0  0  0  0  0  0  0  0
   -3.0725   -0.4167    2.3847 C   0  0  0  0  0  0  0  0  0  0  0  0
   -4.0646    0.5534    2.1811 C   0  0  0  0  0  0  0  0  0  0  0  0
   -4.3963    1.0189    0.9629 C   0  0  0  0  0  0  0  0  0  0  0  0
   -5.9079    1.6390    0.8810 C   0  0  0  0  0  0  0  0  0  0  0  0
   -6.9028    2.0648    0.8172 C   0  0  0  0  0  0  0  0  0  0  0  0
   -8.2818    2.6607    0.7544 C   0  0  0  0  0  0  0  0  0  0  0  0
   -9.4177    1.9008    0.7621 C   0  0  0  0  0  0  0  0  0  0  0  0
  -10.6640    2.6965    0.8501 C   0  0  0  0  0  0  0  0  0  0  0  0
  -10.5897    3.8845    0.8949 C   0  0  0  0  0  0  0  0  0  0  0  0
   -9.4942    4.7850    0.8958 N   0  0  0  0  0  0  0  0  0  0  0  0
   -8.3042    4.0592    0.8187 C   0  0  0  0  0  0  0  0  0  0  0  0
   -3.8506    0.6802   -0.2229 C   0  0  0  0  0  0  0  0  0  0  0  0
   -0.7848   -7.3664   -0.9818 H   0  0  0  0  0  0  0  0  0  0  0  0
    0.1753   -6.7025   -2.3242 H   0  0  0  0  0  0  0  0  0  0  0  0
   -1.5759   -6.2012   -2.0848 H   0  0  0  0  0  0  0  0  0  0  0  0
    0.8442   -5.0631   -0.8857 H   0  0  0  0  0  0  0  0  0  0  0  0
    0.1528   -6.8425    0.7622 H   0  0  0  0  0  0  0  0  0  0  0  0
    0.3163   -5.2324    1.4372 H   0  0  0  0  0  0  0  0  0  0  0  0
   -1.3657   -5.9391    1.0236 H   0  0  0  0  0  0  0  0  0  0  0  0
   -2.1563   -4.4662   -1.0072 H   0  0  0  0  0  0  0  0  0  0  0  0
    0.7461   -1.4316    0.3818 H   0  0  0  0  0  0  0  0  0  0  0  0
   -0.2772    0.0589    0.3304 H   0  0  0  0  0  0  0  0  0  0  0  0
    0.0876   -0.1715   -3.1157 H   0  0  0  0  0  0  0  0  0  0  0  0
    1.8220    1.0220   -4.3402 H   0  0  0  0  0  0  0  0  0  0  0  0
    3.9812    1.5388   -3.2551 H   0  0  0  0  0  0  0  0  0  0  0  0
    6.8933    0.7156    2.0042 H   0  0  0  0  0  0  0  0  0  0  0  0
    8.9733    1.5574    2.8914 H   0  0  0  0  0  0  0  0  0  0  0  0
    9.3188    4.1873   -0.4890 H   0  0  0  0  0  0  0  0  0  0  0  0
    7.2884    3.3427   -1.3470 H   0  0  0  0  0  0  0  0  0  0  0  0
    2.5930   -0.1956    0.3589 H   0  0  0  0  0  0  0  0  0  0  0  0
   -2.7899   -1.4345   -1.8216 H   0  0  0  0  0  0  0  0  0  0  0  0
   -1.7876    0.1002   -1.7769 H   0  0  0  0  0  0  0  0  0  0  0  0
   -1.7164   -1.6131    1.2656 H   0  0  0  0  0  0  0  0  0  0  0  0
   -2.7926   -0.8252    3.2637 H   0  0  0  0  0  0  0  0  0  0  0  0
   -4.5613    0.9507    3.0834 H   0  0  0  0  0  0  0  0  0  0  0  0
   -9.4345    0.8701    0.7205 H   0  0  0  0  0  0  0  0  0  0  0  0
  -11.5195    1.9953    0.8581 H   0  0  0  0  0  0  0  0  0  0  0  0
  -11.5523    4.5693    0.9793 H   0  0  0  0  0  0  0  0  0  0  0  0
   -7.3896    4.5884    0.7739 H   0  0  0  0  0  0  0  0  0  0  0  0
   -4.0968    1.0561   -1.1604 H   0  0  0  0  0  0  0  0  0  0  0  0
  1  2  1  0
  2  3  1  0
  2  4  1  0
  4  5  1  0
  5  6  2  0
  5  7  1  0
  7  8  1  0
  8  9  1  0
  9 10  2  0
 10 11  1  0
 11 12  2  0
 12 13  1  0
 13 14  1  0
 14 15  3  0
 15 16  1  0
 16 17  2  0
 17 18  1  0
 18 19  2  0
 19 20  1  0
 20 21  1  0
 20 22  1  0
 20 23  1  0
 19 24  1  0
 24 25  2  0
 13 26  2  0
  7 27  1  0
 27 28  1  0
 28 29  2  0
 29 30  1  0
 30 31  2  0
 31 32  1  0
 32 33  1  0
 33 34  3  0
 34 35  1  0
 35 36  2  0
 36 37  1  0
 37 38  2  0
 38 39  1  0
 39 40  2  0
 32 41  2  0
 26  9  1  0
 41 28  1  0
 25 16  1  0
 40 35  1  0
  1 42  1  0
  1 43  1  0
  1 44  1  0
  2 45  1  0
  3 46  1  0
  3 47  1  0
  3 48  1  0
  4 49  1  0
  8 50  1  0
  8 51  1  0
 10 52  1  0
 11 53  1  0
 12 54  1  0
 17 55  1  0
 18 56  1  0
 24 57  1  0
 25 58  1  0
 26 59  1  0
 27 60  1  0
 27 61  1  0
 29 62  1  0
 30 63  1  0
 31 64  1  0
 36 65  1  0
 37 66  1  0
 38 67  1  0
 40 68  1  0
 41 69  1  0
M  END
$$$$
