
     RDKit          3D

 44 46  0  0  0  0  0  0  0  0999 V2000
   -4.0957    3.1836    0.3938 C   0  0  0  0  0  0  0  0  0  0  0  0
   -2.9940    2.4151   -0.0514 O   0  0  0  0  0  0  0  0  0  0  0  0
   -3.1188    1.0445    0.0875 C   0  0  0  0  0  0  0  0  0  0  0  0
   -2.1072    0.2404   -0.3169 C   0  0  0  0  0  0  0  0  0  0  0  0
   -1.9778   -1.1120   -0.2910 C   0  0  0  0  0  0  0  0  0  0  0  0
   -0.9502   -2.0773   -0.5638 C   0  0  0  0  0  0  0  0  0  0  0  0
    0.3485   -1.9564   -0.5577 C   0  0  0  0  0  0  0  0  0  0  0  0
    1.0983   -0.7734   -0.2382 C   0  0  0  0  0  0  0  0  0  0  0  0
    2.2998   -0.5146   -0.8502 C   0  0  0  0  0  0  0  0  0  0  0  0
    2.8061   -1.3202   -1.9912 C   0  0  0  0  0  0  0  0  0  0  0  0
    3.0855    0.5364   -0.4512 C   0  0  0  0  0  0  0  0  0  0  0  0
    4.2904    0.8200   -1.0408 C   0  0  0  0  0  0  0  0  0  0  0  0
    4.8254    0.0698   -2.0845 N   0  0  0  0  0  0  0  0  0  0  0  0
    5.0981    1.8364   -0.6888 N   0  0  0  0  0  0  0  0  0  0  0  0
    4.7350    2.6755    0.3253 C   0  0  0  0  0  0  0  0  0  0  0  0
    5.4697    3.7874    0.8139 N   0  0  0  0  0  0  0  0  0  0  0  0
    3.5589    2.4200    0.9209 N   0  0  0  0  0  0  0  0  0  0  0  0
    2.7585    1.4058    0.5658 C   0  0  0  0  0  0  0  0  0  0  0  0
    1.5739    1.1733    1.1899 N   0  0  0  0  0  0  0  0  0  0  0  0
    0.8375    0.1332    0.7680 C   0  0  0  0  0  0  0  0  0  0  0  0
   -3.1098   -1.7487    0.2526 C   0  0  0  0  0  0  0  0  0  0  0  0
   -3.2312   -3.1245    0.3885 O   0  0  0  0  0  0  0  0  0  0  0  0
   -4.3929   -3.6698    0.9399 C   0  0  0  0  0  0  0  0  0  0  0  0
   -4.1793   -0.9596    0.6836 C   0  0  0  0  0  0  0  0  0  0  0  0
   -4.2182    0.4131    0.6184 C   0  0  0  0  0  0  0  0  0  0  0  0
   -5.0483    2.8124   -0.0585 H   0  0  0  0  0  0  0  0  0  0  0  0
   -4.0113    4.2354    0.1078 H   0  0  0  0  0  0  0  0  0  0  0  0
   -4.1868    3.1267    1.4921 H   0  0  0  0  0  0  0  0  0  0  0  0
   -1.2398    0.7249   -0.7916 H   0  0  0  0  0  0  0  0  0  0  0  0
   -1.2179   -3.1111   -0.8460 H   0  0  0  0  0  0  0  0  0  0  0  0
    0.9848   -2.8300   -0.7945 H   0  0  0  0  0  0  0  0  0  0  0  0
    1.9777   -2.0478   -2.2517 H   0  0  0  0  0  0  0  0  0  0  0  0
    3.6537   -1.9597   -1.7757 H   0  0  0  0  0  0  0  0  0  0  0  0
    2.8656   -0.7328   -2.9478 H   0  0  0  0  0  0  0  0  0  0  0  0
    5.6429   -0.5997   -1.9620 H   0  0  0  0  0  0  0  0  0  0  0  0
    5.4242   -0.5944   -2.6172 H   0  0  0  0  0  0  0  0  0  0  0  0
    5.9726    3.5367    1.7060 H   0  0  0  0  0  0  0  0  0  0  0  0
    5.1903    4.4489    0.0305 H   0  0  0  0  0  0  0  0  0  0  0  0
   -0.0466    0.0537    1.3865 H   0  0  0  0  0  0  0  0  0  0  0  0
   -4.5043   -3.3800    2.0103 H   0  0  0  0  0  0  0  0  0  0  0  0
   -5.3414   -3.3502    0.4421 H   0  0  0  0  0  0  0  0  0  0  0  0
   -4.4092   -4.7804    0.8821 H   0  0  0  0  0  0  0  0  0  0  0  0
   -5.0633   -1.4496    1.1132 H   0  0  0  0  0  0  0  0  0  0  0  0
   -5.0535    0.9991    0.9580 H   0  0  0  0  0  0  0  0  0  0  0  0
  1  2  1  0
  2  3  1  0
  3  4  2  0
  4  5  1  0
  5  6  1  0
  6  7  2  0
  7  8  1  0
  8  9  2  0
  9 10  1  0
  9 11  1  0
 11 12  2  0
 12 13  1  0
 12 14  1  0
 14 15  2  0
 15 16  1  0
 15 17  1  0
 17 18  2  0
 18 19  1  0
 19 20  2  0
  5 21  2  0
 21 22  1  0
 22 23  1  0
 21 24  1  0
 24 25  2  0
 25  3  1  0
 20  8  1  0
 18 11  1  0
  1 26  1  0
  1 27  1  0
  1 28  1  0
  4 29  1  0
  6 30  1  0
  7 31  1  0
 10 32  1  0
 10 33  1  0
 10 34  1  0
 13 35  1  0
 13 36  1  0
 16 37  1  0
 16 38  1  0
 20 39  1  0
 23 40  1  0
 23 41  1  0
 23 42  1  0
 24 43  1  0
 25 44  1  0
M  END
$$$$
