
     RDKit          3D

 49 52  0  0  0  0  0  0  0  0999 V2000
    7.9505    0.7821    1.1734 C   0  0  0  0  0  0  0  0  0  0  0  0
    6.8118    0.7565    0.3662 O   0  0  0  0  0  0  0  0  0  0  0  0
    5.5620    0.4166    0.8714 C   0  0  0  0  0  0  0  0  0  0  0  0
    5.4594    0.1002    2.2001 C   0  0  0  0  0  0  0  0  0  0  0  0
    4.2377   -0.2388    2.7239 C   0  0  0  0  0  0  0  0  0  0  0  0
    3.1199   -0.2603    1.9152 C   0  0  0  0  0  0  0  0  0  0  0  0
    3.2020    0.0583    0.5598 C   0  0  0  0  0  0  0  0  0  0  0  0
    4.4372    0.3930    0.0659 C   0  0  0  0  0  0  0  0  0  0  0  0
    4.3211    0.6941   -1.3718 C   0  0  0  0  0  0  0  0  0  0  0  0
    2.8196    0.7758   -1.5986 C   0  0  0  0  0  0  0  0  0  0  0  0
    2.2182    0.1087   -0.4611 N   0  0  0  0  0  0  0  0  0  0  0  0
    0.9090   -0.4084   -0.3453 C   0  0  0  0  0  0  0  0  0  0  0  0
    0.5515   -0.9604    0.7228 O   0  0  0  0  0  0  0  0  0  0  0  0
   -0.0501   -0.3031   -1.4822 C   0  0  0  0  0  0  0  0  0  0  0  0
   -1.3620   -0.9099   -1.1429 C   0  0  0  0  0  0  0  0  0  0  0  0
   -2.3585   -0.1705   -0.5724 N   0  0  0  0  0  0  0  0  0  0  0  0
   -3.5440   -0.7205   -0.2662 C   0  0  0  0  0  0  0  0  0  0  0  0
   -4.5910    0.0393    0.3291 N   0  0  0  0  0  0  0  0  0  0  0  0
   -5.8287   -0.6040    0.6300 C   0  0  0  0  0  0  0  0  0  0  0  0
   -6.9430    0.3152    0.9879 C   0  0  0  0  0  0  0  0  0  0  0  0
   -6.5632    1.5476    1.4490 O   0  0  0  0  0  0  0  0  0  0  0  0
   -5.7220    2.1315    0.4743 C   0  0  0  0  0  0  0  0  0  0  0  0
   -4.3846    1.4356    0.6156 C   0  0  0  0  0  0  0  0  0  0  0  0
   -3.7025   -2.0599   -0.5551 C   0  0  0  0  0  0  0  0  0  0  0  0
   -2.6904   -2.8082   -1.1339 C   0  0  0  0  0  0  0  0  0  0  0  0
   -2.8259   -4.0385   -1.4032 O   0  0  0  0  0  0  0  0  0  0  0  0
   -1.5178   -2.2164   -1.4243 N   0  0  0  0  0  0  0  0  0  0  0  0
    8.1046   -0.1786    1.7218 H   0  0  0  0  0  0  0  0  0  0  0  0
    8.8534    0.9495    0.5723 H   0  0  0  0  0  0  0  0  0  0  0  0
    7.9256    1.5831    1.9507 H   0  0  0  0  0  0  0  0  0  0  0  0
    6.3505    0.1209    2.8290 H   0  0  0  0  0  0  0  0  0  0  0  0
    4.1748   -0.4898    3.7931 H   0  0  0  0  0  0  0  0  0  0  0  0
    2.1641   -0.5333    2.3597 H   0  0  0  0  0  0  0  0  0  0  0  0
    4.8110    1.6190   -1.6857 H   0  0  0  0  0  0  0  0  0  0  0  0
    4.7613   -0.1883   -1.9178 H   0  0  0  0  0  0  0  0  0  0  0  0
    2.4776    1.8370   -1.6624 H   0  0  0  0  0  0  0  0  0  0  0  0
    2.6039    0.3009   -2.5532 H   0  0  0  0  0  0  0  0  0  0  0  0
   -0.2499    0.7881   -1.6549 H   0  0  0  0  0  0  0  0  0  0  0  0
    0.3890   -0.7049   -2.3995 H   0  0  0  0  0  0  0  0  0  0  0  0
   -6.1479   -1.1637   -0.2978 H   0  0  0  0  0  0  0  0  0  0  0  0
   -5.6983   -1.4084    1.4006 H   0  0  0  0  0  0  0  0  0  0  0  0
   -7.6696    0.4418    0.1496 H   0  0  0  0  0  0  0  0  0  0  0  0
   -7.5438   -0.1764    1.8083 H   0  0  0  0  0  0  0  0  0  0  0  0
   -6.1686    2.0280   -0.5166 H   0  0  0  0  0  0  0  0  0  0  0  0
   -5.6131    3.1880    0.7707 H   0  0  0  0  0  0  0  0  0  0  0  0
   -4.0597    1.5496    1.6611 H   0  0  0  0  0  0  0  0  0  0  0  0
   -3.6088    1.8912   -0.0336 H   0  0  0  0  0  0  0  0  0  0  0  0
   -4.6492   -2.5470   -0.3230 H   0  0  0  0  0  0  0  0  0  0  0  0
   -0.7234   -2.7622   -1.8678 H   0  0  0  0  0  0  0  0  0  0  0  0
  1  2  1  0
  2  3  1  0
  3  4  2  0
  4  5  1  0
  5  6  2  0
  6  7  1  0
  7  8  2  0
  8  9  1  0
  9 10  1  0
 10 11  1  0
 11 12  1  0
 12 13  2  0
 12 14  1  0
 14 15  1  0
 15 16  2  0
 16 17  1  0
 17 18  1  0
 18 19  1  0
 19 20  1  0
 20 21  1  0
 21 22  1  0
 22 23  1  0
 17 24  2  0
 24 25  1  0
 25 26  2  0
 25 27  1  0
  8  3  1  0
 27 15  1  0
 11  7  1  0
 23 18  1  0
  1 28  1  0
  1 29  1  0
  1 30  1  0
  4 31  1  0
  5 32  1  0
  6 33  1  0
  9 34  1  0
  9 35  1  0
 10 36  1  0
 10 37  1  0
 14 38  1  0
 14 39  1  0
 19 40  1  0
 19 41  1  0
 20 42  1  0
 20 43  1  0
 22 44  1  0
 22 45  1  0
 23 46  1  0
 23 47  1  0
 24 48  1  0
 27 49  1  0
M  END
$$$$
