
     RDKit          3D

 46 48  0  0  0  0  0  0  0  0999 V2000
   -1.0337    1.9083   -0.6680 O   0  0  0  0  0  0  0  0  0  0  0  0
   -0.3147    0.9929   -0.1393 C   0  0  0  0  0  0  0  0  0  0  0  0
   -0.7456   -0.3389   -0.1996 N   0  0  0  0  0  0  0  0  0  0  0  0
   -1.9291   -0.8301   -0.7768 C   0  0  0  0  0  0  0  0  0  0  0  0
   -3.2122   -0.4769   -0.1497 C   0  0  0  0  0  0  0  0  0  0  0  0
   -4.3382   -1.1774   -0.9793 C   0  0  0  0  0  0  0  0  0  0  0  0
   -5.4709   -1.4412   -0.0028 C   0  0  0  0  0  0  0  0  0  0  0  0
   -5.4272   -0.3682    1.0021 N   0  0  0  0  0  0  0  0  0  0  0  0
   -5.1301    0.8922    0.3923 C   0  0  0  0  0  0  0  0  0  0  0  0
   -3.6327    0.9273   -0.0202 C   0  0  0  0  0  0  0  0  0  0  0  0
    0.9407    1.3464    0.5202 C   0  0  2  0  0  0  0  0  0  0  0  0
    1.8555    1.9862   -0.6200 C   0  0  0  0  0  0  0  0  0  0  0  0
    3.2760    1.5278   -0.4453 C   0  0  0  0  0  0  0  0  0  0  0  0
    3.5899    0.0761   -0.3723 C   0  0  2  0  0  0  0  0  0  0  0  0
    2.1565   -0.5899   -0.3435 C   0  0  0  0  0  0  0  0  0  0  0  0
    1.8401    0.3041    0.8158 N   0  0  0  0  0  0  0  0  0  0  0  0
    2.7597   -0.1770    1.7467 C   0  0  0  0  0  0  0  0  0  0  0  0
    2.6202   -0.3797    2.9622 O   0  0  0  0  0  0  0  0  0  0  0  0
    3.9986   -0.4067    0.9719 N   0  0  0  0  0  0  0  0  0  0  0  0
    5.1540   -0.9160    1.4026 O   0  0  0  0  0  0  0  0  0  0  0  0
    6.3152   -1.0172    0.2302 S   0  0  0  0  0  6  0  0  0  0  0  0
    6.6334    0.3619   -0.2814 O   0  0  0  0  0  0  0  0  0  0  0  0
    5.8590   -1.9321   -0.8694 O   0  0  0  0  0  0  0  0  0  0  0  0
    7.7197   -1.6329    0.9419 O   0  0  0  0  0  0  0  0  0  0  0  0
   -0.0937   -1.0830    0.2691 H   0  0  0  0  0  0  0  0  0  0  0  0
   -1.8448   -1.9680   -0.8461 H   0  0  0  0  0  0  0  0  0  0  0  0
   -1.9921   -0.4959   -1.8647 H   0  0  0  0  0  0  0  0  0  0  0  0
   -3.2839   -0.9306    0.8910 H   0  0  0  0  0  0  0  0  0  0  0  0
   -3.9486   -2.1357   -1.3507 H   0  0  0  0  0  0  0  0  0  0  0  0
   -4.6370   -0.5228   -1.7926 H   0  0  0  0  0  0  0  0  0  0  0  0
   -5.2322   -2.3765    0.5354 H   0  0  0  0  0  0  0  0  0  0  0  0
   -6.4513   -1.4717   -0.4909 H   0  0  0  0  0  0  0  0  0  0  0  0
   -6.2731   -0.3540    1.5788 H   0  0  0  0  0  0  0  0  0  0  0  0
   -5.7484    1.0775   -0.5124 H   0  0  0  0  0  0  0  0  0  0  0  0
   -5.2895    1.7154    1.0969 H   0  0  0  0  0  0  0  0  0  0  0  0
   -3.5798    1.5438   -0.9426 H   0  0  0  0  0  0  0  0  0  0  0  0
   -3.1244    1.4553    0.7950 H   0  0  0  0  0  0  0  0  0  0  0  0
    0.8292    2.1085    1.3154 H   0  0  0  0  0  0  0  0  0  0  0  0
    1.7774    3.0568   -0.4724 H   0  0  0  0  0  0  0  0  0  0  0  0
    1.4347    1.6593   -1.5450 H   0  0  0  0  0  0  0  0  0  0  0  0
    3.8378    1.9475   -1.3030 H   0  0  0  0  0  0  0  0  0  0  0  0
    3.6746    2.0233    0.4654 H   0  0  0  0  0  0  0  0  0  0  0  0
    4.1781   -0.2666   -1.1794 H   0  0  0  0  0  0  0  0  0  0  0  0
    1.6064   -0.3385   -1.2342 H   0  0  0  0  0  0  0  0  0  0  0  0
    2.2341   -1.6352   -0.0714 H   0  0  0  0  0  0  0  0  0  0  0  0
    8.4422   -1.6475    0.2642 H   0  0  0  0  0  0  0  0  0  0  0  0
  1  2  2  0
  2  3  1  0
  3  4  1  0
  4  5  1  0
  5  6  1  0
  6  7  1  0
  7  8  1  0
  8  9  1  0
  9 10  1  0
  2 11  1  0
 11 12  1  0
 12 13  1  0
 13 14  1  0
 14 15  1  0
 15 16  1  0
 16 17  1  0
 17 18  2  0
 17 19  1  0
 19 20  1  0
 20 21  1  0
 21 22  2  0
 21 23  2  0
 21 24  1  0
 10  5  1  0
 16 11  1  0
 19 14  1  0
  3 25  1  0
  4 26  1  0
  4 27  1  0
  5 28  1  0
  6 29  1  0
  6 30  1  0
  7 31  1  0
  7 32  1  0
  8 33  1  0
  9 34  1  0
  9 35  1  0
 10 36  1  0
 10 37  1  0
 11 38  1  1
 12 39  1  0
 12 40  1  0
 13 41  1  0
 13 42  1  0
 14 43  1  6
 15 44  1  0
 15 45  1  0
 24 46  1  0
M  END
$$$$
