
     RDKit          3D

 34 35  0  0  0  0  0  0  0  0999 V2000
    5.6603    1.8149    1.5314 N   0  0  0  0  0  0  0  0  0  0  0  0
    5.5552    0.3305    0.6832 S   0  0  0  0  0  0  0  0  0  0  0  0
    6.2156   -0.7345    1.5103 O   0  0  0  0  0  0  0  0  0  0  0  0
    6.3121    0.4555   -0.6024 O   0  0  0  0  0  0  0  0  0  0  0  0
    3.8868   -0.0786    0.3735 C   0  0  0  0  0  0  0  0  0  0  0  0
    3.2282    0.3177   -0.7734 C   0  0  0  0  0  0  0  0  0  0  0  0
    1.9084   -0.0106   -1.0051 C   0  0  0  0  0  0  0  0  0  0  0  0
    1.1736   -0.7538   -0.1022 C   0  0  0  0  0  0  0  0  0  0  0  0
    1.8289   -1.1616    1.0638 C   0  0  0  0  0  0  0  0  0  0  0  0
    3.1506   -0.8209    1.2740 C   0  0  0  0  0  0  0  0  0  0  0  0
   -0.2212   -1.1647   -0.2291 C   0  0  0  0  0  0  0  0  0  0  0  0
   -0.8125   -1.8554    0.6724 O   0  0  0  0  0  0  0  0  0  0  0  0
   -1.0545   -0.8528   -1.3354 N   0  0  0  0  0  0  0  0  0  0  0  0
   -2.4179   -1.1951   -1.5683 C   0  0  0  0  0  0  0  0  0  0  0  0
   -3.3903   -0.3804   -0.7890 C   0  0  0  0  0  0  0  0  0  0  0  0
   -3.8502    0.7961   -1.3417 C   0  0  0  0  0  0  0  0  0  0  0  0
   -4.7577    1.6114   -0.6896 C   0  0  0  0  0  0  0  0  0  0  0  0
   -5.2483    2.7805   -1.1793 F   0  0  0  0  0  0  0  0  0  0  0  0
   -5.1954    1.2078    0.5458 C   0  0  0  0  0  0  0  0  0  0  0  0
   -6.0868    1.9532    1.2472 F   0  0  0  0  0  0  0  0  0  0  0  0
   -4.7779    0.0389    1.1632 C   0  0  0  0  0  0  0  0  0  0  0  0
   -5.2014   -0.3743    2.3832 F   0  0  0  0  0  0  0  0  0  0  0  0
   -3.8599   -0.7354    0.4459 C   0  0  0  0  0  0  0  0  0  0  0  0
    6.0896    2.5478    0.9387 H   0  0  0  0  0  0  0  0  0  0  0  0
    4.6790    2.1502    1.7694 H   0  0  0  0  0  0  0  0  0  0  0  0
    3.7676    0.9032   -1.5108 H   0  0  0  0  0  0  0  0  0  0  0  0
    1.3849    0.2911   -1.8921 H   0  0  0  0  0  0  0  0  0  0  0  0
    1.3025   -1.7540    1.8203 H   0  0  0  0  0  0  0  0  0  0  0  0
    3.5980   -1.1689    2.1975 H   0  0  0  0  0  0  0  0  0  0  0  0
   -0.5555   -0.2780   -2.0808 H   0  0  0  0  0  0  0  0  0  0  0  0
   -2.6685   -1.0921   -2.6383 H   0  0  0  0  0  0  0  0  0  0  0  0
   -2.5910   -2.2839   -1.3423 H   0  0  0  0  0  0  0  0  0  0  0  0
   -3.5215    1.1371   -2.3140 H   0  0  0  0  0  0  0  0  0  0  0  0
   -3.5306   -1.6409    0.9112 H   0  0  0  0  0  0  0  0  0  0  0  0
  1  2  1  0
  2  3  2  0
  2  4  2  0
  2  5  1  0
  5  6  2  0
  6  7  1  0
  7  8  2  0
  8  9  1  0
  9 10  2  0
  8 11  1  0
 11 12  2  0
 11 13  1  0
 13 14  1  0
 14 15  1  0
 15 16  2  0
 16 17  1  0
 17 18  1  0
 17 19  2  0
 19 20  1  0
 19 21  1  0
 21 22  1  0
 21 23  2  0
 10  5  1  0
 23 15  1  0
  1 24  1  0
  1 25  1  0
  6 26  1  0
  7 27  1  0
  9 28  1  0
 10 29  1  0
 13 30  1  0
 14 31  1  0
 14 32  1  0
 16 33  1  0
 23 34  1  0
M  END
$$$$
