
     RDKit          3D

 41 44  0  0  0  0  0  0  0  0999 V2000
   -5.2549   -1.1323    3.4814 O   0  0  0  0  0  0  0  0  0  0  0  0
   -4.5761   -0.5190    2.4445 C   0  0  0  0  0  0  0  0  0  0  0  0
   -5.1353    0.4449    1.8558 O   0  0  0  0  0  0  0  0  0  0  0  0
   -3.2277   -1.0310    2.0841 C   0  0  0  0  0  0  0  0  0  0  0  0
   -2.6320   -0.2792    0.9667 C   0  0  0  0  0  0  0  0  0  0  0  0
   -1.6751    0.6162    1.1637 N   0  0  0  0  0  0  0  0  0  0  0  0
   -1.0901    1.3345    0.1951 N   0  0  0  0  0  0  0  0  0  0  0  0
   -0.0743    2.2493    0.6427 C   0  0  0  0  0  0  0  0  0  0  0  0
    1.2822    1.5793    0.6545 C   0  0  0  0  0  0  0  0  0  0  0  0
    2.1653    1.4702   -0.1742 N   0  0  0  0  0  0  0  0  0  0  0  0
    3.3067    0.8260    0.0474 C   0  0  0  0  0  0  0  0  0  0  0  0
    3.4876    0.2406    1.3242 C   0  0  0  0  0  0  0  0  0  0  0  0
    1.8903    0.7031    2.1421 S   0  0  0  0  0  0  0  0  0  0  0  0
    4.6254   -0.4734    1.7322 C   0  0  0  0  0  0  0  0  0  0  0  0
    5.6467   -0.6171    0.8219 C   0  0  0  0  0  0  0  0  0  0  0  0
    5.4757   -0.0467   -0.4284 C   0  0  0  0  0  0  0  0  0  0  0  0
    4.3708    0.6413   -0.8112 C   0  0  0  0  0  0  0  0  0  0  0  0
    6.6368   -0.2541   -1.3469 C   0  0  0  0  0  0  0  0  0  0  0  0
    7.0511   -1.5674   -1.3069 F   0  0  0  0  0  0  0  0  0  0  0  0
    6.3197    0.0765   -2.6425 F   0  0  0  0  0  0  0  0  0  0  0  0
    7.7157    0.5452   -0.9433 F   0  0  0  0  0  0  0  0  0  0  0  0
   -1.4855    1.1542   -1.0955 C   0  0  0  0  0  0  0  0  0  0  0  0
   -0.9160    1.8416   -1.9627 O   0  0  0  0  0  0  0  0  0  0  0  0
   -2.4903    0.2241   -1.3665 C   0  0  0  0  0  0  0  0  0  0  0  0
   -3.0563   -0.4866   -0.3287 C   0  0  0  0  0  0  0  0  0  0  0  0
   -4.0466   -1.3950   -0.6436 C   0  0  0  0  0  0  0  0  0  0  0  0
   -4.5002   -1.6310   -1.9322 C   0  0  0  0  0  0  0  0  0  0  0  0
   -3.8885   -0.8829   -2.9252 C   0  0  0  0  0  0  0  0  0  0  0  0
   -2.8844    0.0524   -2.6974 C   0  0  0  0  0  0  0  0  0  0  0  0
   -5.9166   -0.6460    4.0747 H   0  0  0  0  0  0  0  0  0  0  0  0
   -2.5945   -0.8851    2.9820 H   0  0  0  0  0  0  0  0  0  0  0  0
   -3.2422   -2.1265    1.9132 H   0  0  0  0  0  0  0  0  0  0  0  0
   -0.3225    2.6416    1.6435 H   0  0  0  0  0  0  0  0  0  0  0  0
    0.0450    3.0415   -0.1181 H   0  0  0  0  0  0  0  0  0  0  0  0
    4.5595   -0.8336    2.7384 H   0  0  0  0  0  0  0  0  0  0  0  0
    6.4690   -1.1779    1.2324 H   0  0  0  0  0  0  0  0  0  0  0  0
    4.3856    1.0275   -1.8214 H   0  0  0  0  0  0  0  0  0  0  0  0
   -4.4915   -1.9506    0.1517 H   0  0  0  0  0  0  0  0  0  0  0  0
   -5.2776   -2.3462   -2.1664 H   0  0  0  0  0  0  0  0  0  0  0  0
   -4.2244   -1.0445   -3.9593 H   0  0  0  0  0  0  0  0  0  0  0  0
   -2.4303    0.6163   -3.4909 H   0  0  0  0  0  0  0  0  0  0  0  0
  1  2  1  0
  2  3  2  0
  2  4  1  0
  4  5  1  0
  5  6  2  0
  6  7  1  0
  7  8  1  0
  8  9  1  0
  9 10  2  0
 10 11  1  0
 11 12  2  0
 12 13  1  0
 12 14  1  0
 14 15  2  0
 15 16  1  0
 16 17  2  0
 16 18  1  0
 18 19  1  0
 18 20  1  0
 18 21  1  0
  7 22  1  0
 22 23  2  0
 22 24  1  0
 24 25  2  0
 25 26  1  0
 26 27  2  0
 27 28  1  0
 28 29  2  0
 25  5  1  0
 13  9  1  0
 29 24  1  0
 17 11  1  0
  1 30  1  0
  4 31  1  0
  4 32  1  0
  8 33  1  0
  8 34  1  0
 14 35  1  0
 15 36  1  0
 17 37  1  0
 26 38  1  0
 27 39  1  0
 28 40  1  0
 29 41  1  0
M  END
$$$$
