
     RDKit          3D

 70 74  0  0  0  0  0  0  0  0999 V2000
   -0.1622   -2.1041    2.3381 C   0  0  0  0  0  0  0  0  0  0  0  0
   -0.0791   -0.6252    2.1345 C   0  0  1  0  0  0  0  0  0  0  0  0
    1.1935   -0.2323    1.4591 C   0  0  0  0  0  0  0  0  0  0  0  0
    1.3308    1.0162    0.8896 C   0  0  0  0  0  0  0  0  0  0  0  0
    2.5011    1.4023    0.2587 C   0  0  0  0  0  0  0  0  0  0  0  0
    3.5819    0.5480    0.1746 C   0  0  0  0  0  0  0  0  0  0  0  0
    4.8351    0.9115   -0.4803 C   0  0  0  0  0  0  0  0  0  0  0  0
    4.8226    1.7718   -1.5574 C   0  0  0  0  0  0  0  0  0  0  0  0
    6.0188    2.1013   -2.1607 C   0  0  0  0  0  0  0  0  0  0  0  0
    7.2333    1.6054   -1.7316 C   0  0  0  0  0  0  0  0  0  0  0  0
    8.3317    1.8955   -2.2700 O   0  0  0  0  0  0  0  0  0  0  0  0
    7.2231    0.7588   -0.6681 N   0  0  0  0  0  0  0  0  0  0  0  0
    8.5043    0.2279   -0.2059 C   0  0  0  0  0  0  0  0  0  0  0  0
    8.6816   -1.2732   -0.3097 C   0  0  0  0  0  0  0  0  0  0  0  0
    9.3547   -0.3323   -1.3026 C   0  0  0  0  0  0  0  0  0  0  0  0
    6.0623    0.4317   -0.0735 C   0  0  0  0  0  0  0  0  0  0  0  0
    3.4372   -0.6995    0.7467 C   0  0  0  0  0  0  0  0  0  0  0  0
    2.2725   -1.0896    1.3770 C   0  0  0  0  0  0  0  0  0  0  0  0
   -1.1656   -0.2122    1.2788 N   0  0  0  0  0  0  0  0  0  0  0  0
   -1.2249   -0.7327   -0.0466 C   0  0  0  0  0  0  0  0  0  0  0  0
   -2.2491   -0.1299   -0.9460 C   0  0  0  0  0  0  0  0  0  0  0  0
   -3.5446    0.2195   -0.1448 C   0  0  2  0  0  0  0  0  0  0  0  0
   -3.9925   -1.0936    0.3443 C   0  0  0  0  0  0  0  0  0  0  0  0
   -5.1990   -1.2615    1.1543 C   0  0  0  0  0  0  0  0  0  0  0  0
   -6.4883   -0.8608    0.5038 C   0  0  0  0  0  0  0  0  0  0  0  0
   -5.3045   -2.7720    1.4617 C   0  0  0  0  0  0  0  0  0  0  0  0
   -5.1088   -0.6768    2.4285 O   0  0  0  0  0  0  0  0  0  0  0  0
   -4.4098    1.0082   -1.0017 C   0  0  0  0  0  0  0  0  0  0  0  0
   -5.4049    1.8172   -0.5111 C   0  0  0  0  0  0  0  0  0  0  0  0
   -6.2222    2.5575   -1.3468 C   0  0  0  0  0  0  0  0  0  0  0  0
   -6.0657    2.5103   -2.7270 C   0  0  0  0  0  0  0  0  0  0  0  0
   -5.0767    1.7078   -3.2345 C   0  0  0  0  0  0  0  0  0  0  0  0
   -4.2619    0.9692   -2.3931 C   0  0  0  0  0  0  0  0  0  0  0  0
   -3.1839    1.0122    0.9982 O   0  0  0  0  0  0  0  0  0  0  0  0
   -2.1280    0.7010    1.8098 C   0  0  0  0  0  0  0  0  0  0  0  0
   -2.0198    1.1940    2.9523 O   0  0  0  0  0  0  0  0  0  0  0  0
   -1.2500   -2.3706    2.3997 H   0  0  0  0  0  0  0  0  0  0  0  0
    0.2907   -2.3511    3.3090 H   0  0  0  0  0  0  0  0  0  0  0  0
    0.2471   -2.6923    1.4932 H   0  0  0  0  0  0  0  0  0  0  0  0
   -0.1481   -0.1448    3.1498 H   0  0  0  0  0  0  0  0  0  0  0  0
    0.4885    1.7188    0.9400 H   0  0  0  0  0  0  0  0  0  0  0  0
    2.5865    2.3918   -0.1834 H   0  0  0  0  0  0  0  0  0  0  0  0
    3.8731    2.1738   -1.9108 H   0  0  0  0  0  0  0  0  0  0  0  0
    6.0314    2.7740   -3.0064 H   0  0  0  0  0  0  0  0  0  0  0  0
    8.9861    0.7487    0.6442 H   0  0  0  0  0  0  0  0  0  0  0  0
    9.3333   -1.7221    0.4693 H   0  0  0  0  0  0  0  0  0  0  0  0
    7.7826   -1.8353   -0.6563 H   0  0  0  0  0  0  0  0  0  0  0  0
   10.4400   -0.1968   -1.2610 H   0  0  0  0  0  0  0  0  0  0  0  0
    8.9488   -0.3805   -2.3363 H   0  0  0  0  0  0  0  0  0  0  0  0
    6.0835   -0.2433    0.7698 H   0  0  0  0  0  0  0  0  0  0  0  0
    4.2902   -1.3703    0.6789 H   0  0  0  0  0  0  0  0  0  0  0  0
    2.1619   -2.0613    1.8217 H   0  0  0  0  0  0  0  0  0  0  0  0
   -0.2281   -0.6210   -0.5723 H   0  0  0  0  0  0  0  0  0  0  0  0
   -1.3588   -1.8527    0.0347 H   0  0  0  0  0  0  0  0  0  0  0  0
   -2.6004   -0.9580   -1.6314 H   0  0  0  0  0  0  0  0  0  0  0  0
   -1.9147    0.7271   -1.5285 H   0  0  0  0  0  0  0  0  0  0  0  0
   -4.0273   -1.8527   -0.4981 H   0  0  0  0  0  0  0  0  0  0  0  0
   -3.1261   -1.5069    0.9654 H   0  0  0  0  0  0  0  0  0  0  0  0
   -6.4634   -0.7964   -0.5897 H   0  0  0  0  0  0  0  0  0  0  0  0
   -7.2384   -1.6953    0.7264 H   0  0  0  0  0  0  0  0  0  0  0  0
   -6.9389    0.0101    1.0239 H   0  0  0  0  0  0  0  0  0  0  0  0
   -6.2025   -2.9629    2.0854 H   0  0  0  0  0  0  0  0  0  0  0  0
   -4.3870   -3.1187    1.9440 H   0  0  0  0  0  0  0  0  0  0  0  0
   -5.4781   -3.2772    0.4858 H   0  0  0  0  0  0  0  0  0  0  0  0
   -4.5112   -1.2335    2.9872 H   0  0  0  0  0  0  0  0  0  0  0  0
   -5.5918    1.9150    0.5505 H   0  0  0  0  0  0  0  0  0  0  0  0
   -6.9992    3.1863   -0.9197 H   0  0  0  0  0  0  0  0  0  0  0  0
   -6.7014    3.0870   -3.3937 H   0  0  0  0  0  0  0  0  0  0  0  0
   -4.9595    1.6752   -4.3105 H   0  0  0  0  0  0  0  0  0  0  0  0
   -3.5116    0.3669   -2.8799 H   0  0  0  0  0  0  0  0  0  0  0  0
  1  2  1  0
  2  3  1  0
  3  4  2  0
  4  5  1  0
  5  6  2  0
  6  7  1  0
  7  8  1  0
  8  9  2  0
  9 10  1  0
 10 11  2  0
 10 12  1  0
 12 13  1  0
 13 14  1  0
 14 15  1  0
 12 16  1  0
  6 17  1  0
 17 18  2  0
  2 19  1  0
 19 20  1  0
 20 21  1  0
 21 22  1  0
 22 23  1  1
 23 24  1  0
 24 25  1  0
 24 26  1  0
 24 27  1  0
 22 28  1  0
 28 29  2  0
 29 30  1  0
 30 31  2  0
 31 32  1  0
 32 33  2  0
 22 34  1  0
 34 35  1  0
 35 36  2  0
 18  3  1  0
 35 19  1  0
 16  7  2  0
 33 28  1  0
 15 13  1  0
  1 37  1  0
  1 38  1  0
  1 39  1  0
  2 40  1  1
  4 41  1  0
  5 42  1  0
  8 43  1  0
  9 44  1  0
 13 45  1  0
 14 46  1  0
 14 47  1  0
 15 48  1  0
 15 49  1  0
 16 50  1  0
 17 51  1  0
 18 52  1  0
 20 53  1  0
 20 54  1  0
 21 55  1  0
 21 56  1  0
 23 57  1  0
 23 58  1  0
 25 59  1  0
 25 60  1  0
 25 61  1  0
 26 62  1  0
 26 63  1  0
 26 64  1  0
 27 65  1  0
 29 66  1  0
 30 67  1  0
 31 68  1  0
 32 69  1  0
 33 70  1  0
M  END
$$$$
