
     RDKit          3D

 61 64  0  0  0  0  0  0  0  0999 V2000
    3.5525   -0.6158   -2.1491 C   0  0  0  0  0  0  0  0  0  0  0  0
    3.9373   -0.3572   -0.7319 C   0  0  0  0  0  0  0  0  0  0  0  0
    5.1957    0.2473   -0.5273 C   0  0  0  0  0  0  0  0  0  0  0  0
    5.6623    0.4821    0.7379 C   0  0  0  0  0  0  0  0  0  0  0  0
    6.8749    1.0658    1.0475 O   0  0  0  0  0  0  0  0  0  0  0  0
    7.8084    1.5047    0.1199 C   0  0  0  0  0  0  0  0  0  0  0  0
    9.2397    1.0820    0.3721 C   0  0  0  0  0  0  0  0  0  0  0  0
    9.6136    2.4101    0.1571 O   0  0  0  0  0  0  0  0  0  0  0  0
    8.3366    2.8886    0.4972 C   0  0  0  0  0  0  0  0  0  0  0  0
    4.8232    0.0893    1.7696 C   0  0  0  0  0  0  0  0  0  0  0  0
    3.6438   -0.4767    1.5484 N   0  0  0  0  0  0  0  0  0  0  0  0
    3.1285   -0.7334    0.2974 C   0  0  0  0  0  0  0  0  0  0  0  0
    1.8019   -1.2981    0.1946 C   0  0  0  0  0  0  0  0  0  0  0  0
    1.3939   -1.9557    1.2321 O   0  0  0  0  0  0  0  0  0  0  0  0
    0.8814   -1.2469   -0.8418 N   0  0  0  0  0  0  0  0  0  0  0  0
   -0.4123   -1.8773   -0.7934 C   0  0  0  0  0  0  0  0  0  0  0  0
   -0.5815   -3.1744   -1.2312 C   0  0  0  0  0  0  0  0  0  0  0  0
   -1.8063   -3.8090   -1.1991 C   0  0  0  0  0  0  0  0  0  0  0  0
   -2.9322   -3.1539   -0.7168 C   0  0  0  0  0  0  0  0  0  0  0  0
   -4.1441   -3.7803   -0.6788 F   0  0  0  0  0  0  0  0  0  0  0  0
   -2.7730   -1.8599   -0.2783 C   0  0  0  0  0  0  0  0  0  0  0  0
   -3.9751   -1.1410    0.2371 C   0  0  2  0  0  0  0  0  0  0  0  0
   -4.3199   -1.8661    1.5575 C   0  0  0  0  0  0  0  0  0  0  0  0
   -3.2461   -1.7687    2.4206 F   0  0  0  0  0  0  0  0  0  0  0  0
   -5.1133   -1.1476   -0.7014 C   0  0  0  0  0  0  0  0  0  0  0  0
   -5.4177    0.3991   -1.5161 S   0  0  0  0  0  6  0  0  0  0  0  0
   -6.7606    0.3741   -2.1475 O   0  0  0  0  0  0  0  0  0  0  0  0
   -4.3292    0.6567   -2.5100 O   0  0  0  0  0  0  0  0  0  0  0  0
   -5.3322    1.6160   -0.1908 C   0  0  0  0  0  0  0  0  0  0  0  0
   -6.4693    1.3665    0.7475 C   0  0  0  0  0  0  0  0  0  0  0  0
   -5.3120    2.9843   -0.7816 C   0  0  0  0  0  0  0  0  0  0  0  0
   -4.0258    1.2967    0.4908 C   0  0  0  0  0  0  0  0  0  0  0  0
   -3.3265    2.4179    1.0051 N   0  0  0  0  0  0  0  0  0  0  0  0
   -3.5371    0.1601    0.6280 N   0  0  0  0  0  0  0  0  0  0  0  0
   -1.5322   -1.2331   -0.3165 C   0  0  0  0  0  0  0  0  0  0  0  0
    2.9642    0.1725   -2.6122 H   0  0  0  0  0  0  0  0  0  0  0  0
    3.0808   -1.6002   -2.2840 H   0  0  0  0  0  0  0  0  0  0  0  0
    4.5262   -0.7266   -2.7542 H   0  0  0  0  0  0  0  0  0  0  0  0
    5.8042    0.5312   -1.3717 H   0  0  0  0  0  0  0  0  0  0  0  0
    7.5739    1.3827   -0.9380 H   0  0  0  0  0  0  0  0  0  0  0  0
    9.6715    0.4373   -0.4246 H   0  0  0  0  0  0  0  0  0  0  0  0
    9.4411    0.7042    1.3919 H   0  0  0  0  0  0  0  0  0  0  0  0
    7.9632    3.6860   -0.1447 H   0  0  0  0  0  0  0  0  0  0  0  0
    8.3059    3.0482    1.5890 H   0  0  0  0  0  0  0  0  0  0  0  0
    5.1926    0.2756    2.7918 H   0  0  0  0  0  0  0  0  0  0  0  0
    1.0911   -0.7162   -1.6956 H   0  0  0  0  0  0  0  0  0  0  0  0
    0.3137   -3.6687   -1.6049 H   0  0  0  0  0  0  0  0  0  0  0  0
   -1.8964   -4.8185   -1.5487 H   0  0  0  0  0  0  0  0  0  0  0  0
   -4.5504   -2.9149    1.3914 H   0  0  0  0  0  0  0  0  0  0  0  0
   -5.1722   -1.3654    2.0636 H   0  0  0  0  0  0  0  0  0  0  0  0
   -6.0336   -1.4302   -0.1060 H   0  0  0  0  0  0  0  0  0  0  0  0
   -5.0799   -1.9027   -1.5093 H   0  0  0  0  0  0  0  0  0  0  0  0
   -6.0879    0.8081    1.6231 H   0  0  0  0  0  0  0  0  0  0  0  0
   -6.8235    2.3571    1.1132 H   0  0  0  0  0  0  0  0  0  0  0  0
   -7.2568    0.8069    0.2153 H   0  0  0  0  0  0  0  0  0  0  0  0
   -4.2951    3.2957   -1.0482 H   0  0  0  0  0  0  0  0  0  0  0  0
   -5.7940    3.7016   -0.0891 H   0  0  0  0  0  0  0  0  0  0  0  0
   -5.9061    2.9616   -1.7261 H   0  0  0  0  0  0  0  0  0  0  0  0
   -3.8300    3.1216    1.5512 H   0  0  0  0  0  0  0  0  0  0  0  0
   -2.3206    2.5070    0.8210 H   0  0  0  0  0  0  0  0  0  0  0  0
   -1.4288   -0.1996    0.0390 H   0  0  0  0  0  0  0  0  0  0  0  0
  1  2  1  0
  2  3  2  0
  3  4  1  0
  4  5  1  0
  5  6  1  0
  6  7  1  0
  7  8  1  0
  8  9  1  0
  4 10  2  0
 10 11  1  0
 11 12  2  0
 12 13  1  0
 13 14  2  0
 13 15  1  0
 15 16  1  0
 16 17  2  0
 17 18  1  0
 18 19  2  0
 19 20  1  0
 19 21  1  0
 21 22  1  0
 22 23  1  1
 23 24  1  0
 22 25  1  0
 25 26  1  0
 26 27  2  0
 26 28  2  0
 26 29  1  0
 29 30  1  0
 29 31  1  0
 29 32  1  0
 32 33  1  0
 32 34  2  0
 21 35  2  0
 12  2  1  0
 35 16  1  0
  9  6  1  0
 34 22  1  0
  1 36  1  0
  1 37  1  0
  1 38  1  0
  3 39  1  0
  6 40  1  0
  7 41  1  0
  7 42  1  0
  9 43  1  0
  9 44  1  0
 10 45  1  0
 15 46  1  0
 17 47  1  0
 18 48  1  0
 23 49  1  0
 23 50  1  0
 25 51  1  0
 25 52  1  0
 30 53  1  0
 30 54  1  0
 30 55  1  0
 31 56  1  0
 31 57  1  0
 31 58  1  0
 33 59  1  0
 33 60  1  0
 35 61  1  0
M  END
$$$$
