
     RDKit          3D

111119  0  0  0  0  0  0  0  0999 V2000
   -3.2062    1.3234    0.5130 C   0  0  2  0  0  0  0  0  0  0  0  0
   -2.5800    2.4802   -0.0874 N   0  0  0  0  0  0  0  0  0  0  0  0
   -3.1701    3.8040   -0.2254 C   0  0  0  0  0  0  0  0  0  0  0  0
   -1.2992    2.0775   -0.5075 C   0  0  0  0  0  0  0  0  0  0  0  0
   -0.3862    2.7201   -1.3156 C   0  0  0  0  0  0  0  0  0  0  0  0
    0.8231    2.1467   -1.6076 C   0  0  0  0  0  0  0  0  0  0  0  0
    1.6898    2.8505   -2.4264 O   0  0  0  0  0  0  0  0  0  0  0  0
    1.3757    4.1047   -2.9542 C   0  0  0  0  0  0  0  0  0  0  0  0
    1.2115    0.8950   -1.1180 C   0  0  0  0  0  0  0  0  0  0  0  0
    0.2565    0.3130   -0.3219 C   0  0  0  0  0  0  0  0  0  0  0  0
   -0.9641    0.8407    0.0007 C   0  0  0  0  0  0  0  0  0  0  0  0
   -2.1221    0.3652    0.8406 C   0  0  1  0  0  0  0  0  0  0  0  0
   -1.6788    0.5378    2.2679 C   0  0  0  0  0  0  0  0  0  0  0  0
   -1.2666   -0.8576    2.6524 C   0  0  0  0  0  0  0  0  0  0  0  0
   -1.5494   -1.7356    1.5699 N   0  0  0  0  0  0  0  0  0  0  0  0
   -1.9709   -3.0322    1.9802 C   0  0  0  0  0  0  0  0  0  0  0  0
   -3.3804   -3.0454    2.4853 C   0  0  0  0  0  0  0  0  0  0  0  0
   -4.1994   -2.3042    1.7469 C   0  0  0  0  0  0  0  0  0  0  0  0
   -3.7850   -1.5208    0.5236 C   0  0  2  0  0  0  0  0  0  0  0  0
   -3.9249   -2.5415   -0.6161 C   0  0  0  0  0  0  0  0  0  0  0  0
   -5.3708   -3.0256   -0.7009 C   0  0  0  0  0  0  0  0  0  0  0  0
   -2.3667   -1.0745    0.5914 C   0  0  1  0  0  0  0  0  0  0  0  0
   -4.8080   -0.4757    0.2816 C   0  0  1  0  0  0  0  0  0  0  0  0
   -5.5266   -0.1317    1.4783 O   0  0  0  0  0  0  0  0  0  0  0  0
   -6.8972   -0.3106    1.5298 C   0  0  0  0  0  0  0  0  0  0  0  0
   -7.5750    0.0728    2.8185 C   0  0  0  0  0  0  0  0  0  0  0  0
   -7.6173   -0.7696    0.5813 O   0  0  0  0  0  0  0  0  0  0  0  0
   -4.3314    0.8076   -0.3006 C   0  0  1  0  0  0  0  0  0  0  0  0
   -5.4033    1.7226   -0.1298 O   0  0  0  0  0  0  0  0  0  0  0  0
   -4.0448    0.8029   -1.7346 C   0  0  0  0  0  0  0  0  0  0  0  0
   -4.9726    1.6248   -1.9852 O   0  0  0  0  0  0  0  0  0  0  0  0
   -3.2416    0.2933   -2.7396 O   0  0  0  0  0  0  0  0  0  0  0  0
   -3.4978    0.7294   -4.0796 C   0  0  0  0  0  0  0  0  0  0  0  0
    2.5181    0.2661   -1.4269 C   0  0  1  0  0  0  0  0  0  0  0  0
    3.6741    1.1698   -1.1176 C   0  0  0  0  0  0  0  0  0  0  0  0
    3.5354    1.9178    0.1713 C   0  0  1  0  0  0  0  0  0  0  0  0
    3.4426    1.0153    1.3752 C   0  0  0  0  0  0  0  0  0  0  0  0
    4.6058    0.2354    1.5922 N   0  0  0  0  0  0  0  0  0  0  0  0
    5.8442    0.9250    1.6616 C   0  0  0  0  0  0  0  0  0  0  0  0
    5.8092    2.2802    1.0493 C   0  0  0  0  0  0  0  0  0  0  0  0
    7.0361    3.0769    1.3353 C   0  0  0  0  0  0  0  0  0  0  0  0
    7.2363    3.2800    2.8184 C   0  0  0  0  0  0  0  0  0  0  0  0
    4.7821    2.7221    0.3242 C   0  0  0  0  0  0  0  0  0  0  0  0
    4.6254   -1.0979    1.1215 C   0  0  0  0  0  0  0  0  0  0  0  0
    3.5374   -1.5069    0.2291 C   0  0  0  0  0  0  0  0  0  0  0  0
    2.6665   -1.0693   -0.7767 C   0  0  0  0  0  0  0  0  0  0  0  0
    1.8497   -2.0373   -1.2022 N   0  0  0  0  0  0  0  0  0  0  0  0
    2.1290   -3.1568   -0.5120 C   0  0  0  0  0  0  0  0  0  0  0  0
    1.5517   -4.4035   -0.6022 C   0  0  0  0  0  0  0  0  0  0  0  0
    2.0028   -5.4121    0.2119 C   0  0  0  0  0  0  0  0  0  0  0  0
    3.0242   -5.1607    1.1043 C   0  0  0  0  0  0  0  0  0  0  0  0
    3.5598   -3.8910    1.1456 C   0  0  0  0  0  0  0  0  0  0  0  0
    3.1390   -2.8450    0.3467 C   0  0  0  0  0  0  0  0  0  0  0  0
    2.5448    0.0041   -2.8926 C   0  0  0  0  0  0  0  0  0  0  0  0
    2.0866    0.0076   -4.0681 O   0  0  0  0  0  0  0  0  0  0  0  0
    3.7411   -0.5985   -3.2981 O   0  0  0  0  0  0  0  0  0  0  0  0
    3.9803   -0.9398   -4.6724 C   0  0  0  0  0  0  0  0  0  0  0  0
   -3.6447    1.6993    1.4819 H   0  0  0  0  0  0  0  0  0  0  0  0
   -3.0138    4.4344    0.6873 H   0  0  0  0  0  0  0  0  0  0  0  0
   -2.6816    4.3182   -1.0787 H   0  0  0  0  0  0  0  0  0  0  0  0
   -4.2554    3.7646   -0.4046 H   0  0  0  0  0  0  0  0  0  0  0  0
   -0.6327    3.6937   -1.7240 H   0  0  0  0  0  0  0  0  0  0  0  0
    2.2216    4.5099   -3.5250 H   0  0  0  0  0  0  0  0  0  0  0  0
    1.1580    4.7701   -2.0698 H   0  0  0  0  0  0  0  0  0  0  0  0
    0.4353    4.1249   -3.5601 H   0  0  0  0  0  0  0  0  0  0  0  0
    0.4428   -0.6614    0.1184 H   0  0  0  0  0  0  0  0  0  0  0  0
   -2.4877    0.9460    2.9232 H   0  0  0  0  0  0  0  0  0  0  0  0
   -0.8424    1.2825    2.3613 H   0  0  0  0  0  0  0  0  0  0  0  0
   -1.7366   -1.1664    3.6149 H   0  0  0  0  0  0  0  0  0  0  0  0
   -0.1661   -0.8007    2.8920 H   0  0  0  0  0  0  0  0  0  0  0  0
   -1.3557   -3.2712    2.9010 H   0  0  0  0  0  0  0  0  0  0  0  0
   -1.7320   -3.8197    1.2731 H   0  0  0  0  0  0  0  0  0  0  0  0
   -3.7599   -3.5784    3.3509 H   0  0  0  0  0  0  0  0  0  0  0  0
   -5.2463   -2.2780    2.0721 H   0  0  0  0  0  0  0  0  0  0  0  0
   -3.3274   -3.4564   -0.4380 H   0  0  0  0  0  0  0  0  0  0  0  0
   -3.5992   -2.1527   -1.5837 H   0  0  0  0  0  0  0  0  0  0  0  0
   -5.9177   -2.9405    0.2425 H   0  0  0  0  0  0  0  0  0  0  0  0
   -5.4146   -4.1185   -0.9845 H   0  0  0  0  0  0  0  0  0  0  0  0
   -5.8535   -2.5126   -1.5634 H   0  0  0  0  0  0  0  0  0  0  0  0
   -1.8651   -1.3281   -0.4045 H   0  0  0  0  0  0  0  0  0  0  0  0
   -5.6215   -0.8516   -0.4055 H   0  0  0  0  0  0  0  0  0  0  0  0
   -8.6491   -0.1657    2.7463 H   0  0  0  0  0  0  0  0  0  0  0  0
   -7.3609    1.1368    3.0516 H   0  0  0  0  0  0  0  0  0  0  0  0
   -7.1639   -0.6315    3.5894 H   0  0  0  0  0  0  0  0  0  0  0  0
   -5.4727    2.0218    0.8079 H   0  0  0  0  0  0  0  0  0  0  0  0
   -2.7741    1.5231   -4.3286 H   0  0  0  0  0  0  0  0  0  0  0  0
   -3.4699   -0.1128   -4.7823 H   0  0  0  0  0  0  0  0  0  0  0  0
   -4.5271    1.1631   -4.1719 H   0  0  0  0  0  0  0  0  0  0  0  0
    4.5969    0.5611   -1.1674 H   0  0  0  0  0  0  0  0  0  0  0  0
    3.7499    1.9157   -1.9308 H   0  0  0  0  0  0  0  0  0  0  0  0
    2.6882    2.5957    0.1296 H   0  0  0  0  0  0  0  0  0  0  0  0
    3.3582    1.7211    2.2457 H   0  0  0  0  0  0  0  0  0  0  0  0
    2.5535    0.3940    1.4317 H   0  0  0  0  0  0  0  0  0  0  0  0
    6.6617    0.3212    1.2243 H   0  0  0  0  0  0  0  0  0  0  0  0
    6.1000    1.0784    2.7361 H   0  0  0  0  0  0  0  0  0  0  0  0
    6.9833    4.0652    0.8340 H   0  0  0  0  0  0  0  0  0  0  0  0
    7.9038    2.5565    0.8841 H   0  0  0  0  0  0  0  0  0  0  0  0
    8.0539    4.0284    2.9155 H   0  0  0  0  0  0  0  0  0  0  0  0
    7.5854    2.3649    3.3260 H   0  0  0  0  0  0  0  0  0  0  0  0
    6.2935    3.6739    3.2405 H   0  0  0  0  0  0  0  0  0  0  0  0
    4.9621    3.6951   -0.1185 H   0  0  0  0  0  0  0  0  0  0  0  0
    5.6353   -1.3942    0.6994 H   0  0  0  0  0  0  0  0  0  0  0  0
    4.5677   -1.7549    2.0430 H   0  0  0  0  0  0  0  0  0  0  0  0
    1.1286   -1.9106   -1.9463 H   0  0  0  0  0  0  0  0  0  0  0  0
    0.7443   -4.5753   -1.3180 H   0  0  0  0  0  0  0  0  0  0  0  0
    1.5229   -6.3958    0.1176 H   0  0  0  0  0  0  0  0  0  0  0  0
    3.3889   -5.9589    1.7557 H   0  0  0  0  0  0  0  0  0  0  0  0
    4.3550   -3.7678    1.8670 H   0  0  0  0  0  0  0  0  0  0  0  0
    4.1575   -0.0566   -5.2887 H   0  0  0  0  0  0  0  0  0  0  0  0
    3.2343   -1.6448   -5.0462 H   0  0  0  0  0  0  0  0  0  0  0  0
    4.9472   -1.5236   -4.6519 H   0  0  0  0  0  0  0  0  0  0  0  0
  1  2  1  0
  2  3  1  0
  2  4  1  0
  4  5  2  0
  5  6  1  0
  6  7  1  0
  7  8  1  0
  6  9  2  0
  9 10  1  0
 10 11  2  0
 11 12  1  0
 12 13  1  1
 13 14  1  0
 14 15  1  0
 15 16  1  0
 16 17  1  0
 17 18  2  0
 18 19  1  0
 19 20  1  6
 20 21  1  0
 19 22  1  0
 19 23  1  0
 23 24  1  0
 24 25  1  0
 25 26  1  0
 25 27  2  0
 23 28  1  0
 28 29  1  6
 28 30  1  0
 30 31  2  0
 30 32  1  0
 32 33  1  0
  9 34  1  0
 34 35  1  0
 35 36  1  0
 36 37  1  0
 37 38  1  0
 38 39  1  0
 39 40  1  0
 40 41  1  0
 41 42  1  0
 40 43  2  0
 38 44  1  0
 44 45  1  0
 45 46  2  0
 46 47  1  0
 47 48  1  0
 48 49  2  0
 49 50  1  0
 50 51  2  0
 51 52  1  0
 52 53  2  0
 34 54  1  6
 54 55  2  0
 54 56  1  0
 56 57  1  0
 12  1  1  0
 22 12  1  0
 46 34  1  0
 53 48  1  0
 28  1  1  0
 43 36  1  0
 53 45  1  0
 11  4  1  0
 22 15  1  0
  1 58  1  1
  3 59  1  0
  3 60  1  0
  3 61  1  0
  5 62  1  0
  8 63  1  0
  8 64  1  0
  8 65  1  0
 10 66  1  0
 13 67  1  0
 13 68  1  0
 14 69  1  0
 14 70  1  0
 16 71  1  0
 16 72  1  0
 17 73  1  0
 18 74  1  0
 20 75  1  0
 20 76  1  0
 21 77  1  0
 21 78  1  0
 21 79  1  0
 22 80  1  6
 23 81  1  6
 26 82  1  0
 26 83  1  0
 26 84  1  0
 29 85  1  0
 33 86  1  0
 33 87  1  0
 33 88  1  0
 35 89  1  0
 35 90  1  0
 36 91  1  6
 37 92  1  0
 37 93  1  0
 39 94  1  0
 39 95  1  0
 41 96  1  0
 41 97  1  0
 42 98  1  0
 42 99  1  0
 42100  1  0
 43101  1  0
 44102  1  0
 44103  1  0
 47104  1  0
 49105  1  0
 50106  1  0
 51107  1  0
 52108  1  0
 57109  1  0
 57110  1  0
 57111  1  0
M  END
$$$$
