
     RDKit          3D

 51 54  0  0  0  0  0  0  0  0999 V2000
    9.5035    1.2914   -0.9019 C   0  0  0  0  0  0  0  0  0  0  0  0
    8.4762    0.6676   -1.6079 O   0  0  0  0  0  0  0  0  0  0  0  0
    7.2061    0.4429   -1.0754 C   0  0  0  0  0  0  0  0  0  0  0  0
    6.2099   -0.1767   -1.7979 C   0  0  0  0  0  0  0  0  0  0  0  0
    4.9727   -0.3880   -1.2600 N   0  0  0  0  0  0  0  0  0  0  0  0
    4.6931    0.0048   -0.0058 C   0  0  0  0  0  0  0  0  0  0  0  0
    3.3652   -0.2236    0.5678 C   0  0  0  0  0  0  0  0  0  0  0  0
    3.0541    0.1188    1.7200 O   0  0  0  0  0  0  0  0  0  0  0  0
    2.3724   -0.8680   -0.2204 N   0  0  0  0  0  0  0  0  0  0  0  0
    1.0570   -1.1380    0.2363 C   0  0  0  0  0  0  0  0  0  0  0  0
    0.7920   -2.3336    0.8683 C   0  0  0  0  0  0  0  0  0  0  0  0
   -0.4992   -2.6209    1.3276 C   0  0  0  0  0  0  0  0  0  0  0  0
   -1.4966   -1.6656    1.1253 C   0  0  0  0  0  0  0  0  0  0  0  0
   -2.7420   -1.9796    1.5860 F   0  0  0  0  0  0  0  0  0  0  0  0
   -1.2483   -0.4642    0.4948 C   0  0  0  0  0  0  0  0  0  0  0  0
   -2.3250    0.5381    0.2902 C   0  0  0  0  0  0  0  0  0  0  0  0
   -1.7111    1.8093   -0.2955 C   0  0  0  0  0  0  0  0  0  0  0  0
   -2.8139    0.8983    1.5990 N   0  0  0  0  0  0  0  0  0  0  0  0
   -4.0332    1.0157    1.9279 C   0  0  0  0  0  0  0  0  0  0  0  0
   -4.4591    1.3733    3.2329 N   0  0  0  0  0  0  0  0  0  0  0  0
   -4.9917    0.7817    0.9605 O   0  0  0  0  0  0  0  0  0  0  0  0
   -4.7497    0.0621   -0.2215 C   0  0  0  0  0  0  0  0  0  0  0  0
   -5.4974   -1.2763   -0.1425 C   0  0  0  0  0  0  0  0  0  0  0  0
   -6.7315   -0.5010   -0.6177 C   0  0  0  0  0  0  0  0  0  0  0  0
   -5.7481    0.4666   -1.2874 C   0  0  0  0  0  0  0  0  0  0  0  0
   -3.3352   -0.0324   -0.6268 C   0  0  0  0  0  0  0  0  0  0  0  0
   -3.2055    0.6065   -1.8689 F   0  0  0  0  0  0  0  0  0  0  0  0
   -3.0651   -1.3808   -0.9062 F   0  0  0  0  0  0  0  0  0  0  0  0
    0.0436   -0.2451    0.0675 C   0  0  0  0  0  0  0  0  0  0  0  0
    5.6958    0.6235    0.7089 C   0  0  0  0  0  0  0  0  0  0  0  0
    6.9352    0.8385    0.1784 N   0  0  0  0  0  0  0  0  0  0  0  0
    9.8977    0.5421   -0.1583 H   0  0  0  0  0  0  0  0  0  0  0  0
   10.3304    1.5218   -1.5905 H   0  0  0  0  0  0  0  0  0  0  0  0
    9.1718    2.1695   -0.3150 H   0  0  0  0  0  0  0  0  0  0  0  0
    6.4527   -0.4863   -2.8062 H   0  0  0  0  0  0  0  0  0  0  0  0
    2.6256   -1.1579   -1.1875 H   0  0  0  0  0  0  0  0  0  0  0  0
    1.5464   -3.0994    1.0417 H   0  0  0  0  0  0  0  0  0  0  0  0
   -0.6942   -3.5622    1.8215 H   0  0  0  0  0  0  0  0  0  0  0  0
   -0.9064    2.1404    0.3797 H   0  0  0  0  0  0  0  0  0  0  0  0
   -2.5374    2.5588   -0.3148 H   0  0  0  0  0  0  0  0  0  0  0  0
   -1.3446    1.5655   -1.3083 H   0  0  0  0  0  0  0  0  0  0  0  0
   -3.7321    1.6798    3.9129 H   0  0  0  0  0  0  0  0  0  0  0  0
   -5.4504    1.3421    3.5319 H   0  0  0  0  0  0  0  0  0  0  0  0
   -5.1563   -1.9594   -0.9351 H   0  0  0  0  0  0  0  0  0  0  0  0
   -5.5840   -1.6901    0.8661 H   0  0  0  0  0  0  0  0  0  0  0  0
   -7.3788   -1.0492   -1.3073 H   0  0  0  0  0  0  0  0  0  0  0  0
   -7.2182    0.0031    0.2405 H   0  0  0  0  0  0  0  0  0  0  0  0
   -6.0349    1.5173   -1.2375 H   0  0  0  0  0  0  0  0  0  0  0  0
   -5.4234    0.1058   -2.2913 H   0  0  0  0  0  0  0  0  0  0  0  0
    0.2636    0.6806   -0.4256 H   0  0  0  0  0  0  0  0  0  0  0  0
    5.4485    0.9326    1.7195 H   0  0  0  0  0  0  0  0  0  0  0  0
  1  2  1  0
  2  3  1  0
  3  4  2  0
  4  5  1  0
  5  6  2  0
  6  7  1  0
  7  8  2  0
  7  9  1  0
  9 10  1  0
 10 11  2  0
 11 12  1  0
 12 13  2  0
 13 14  1  0
 13 15  1  0
 15 16  1  0
 16 17  1  0
 16 18  1  0
 18 19  2  0
 19 20  1  0
 19 21  1  0
 21 22  1  0
 22 23  1  0
 23 24  1  0
 24 25  1  0
 22 26  1  0
 26 27  1  0
 26 28  1  0
 15 29  2  0
  6 30  1  0
 30 31  2  0
 31  3  1  0
 29 10  1  0
 26 16  1  0
 25 22  1  0
  1 32  1  0
  1 33  1  0
  1 34  1  0
  4 35  1  0
  9 36  1  0
 11 37  1  0
 12 38  1  0
 17 39  1  0
 17 40  1  0
 17 41  1  0
 20 42  1  0
 20 43  1  0
 23 44  1  0
 23 45  1  0
 24 46  1  0
 24 47  1  0
 25 48  1  0
 25 49  1  0
 29 50  1  0
 30 51  1  0
M  END
$$$$
