
     RDKit          3D

 57 61  0  0  0  0  0  0  0  0999 V2000
   -2.6800   -2.9593    3.0814 O   0  0  0  0  0  0  0  0  0  0  0  0
   -3.2742   -1.9850    2.5570 C   0  0  0  0  0  0  0  0  0  0  0  0
   -4.6932   -1.7545    2.3848 C   0  0  0  0  0  0  0  0  0  0  0  0
   -5.6206   -2.5456    2.7573 O   0  0  0  0  0  0  0  0  0  0  0  0
   -4.8135   -0.4974    1.7326 N   0  0  0  0  0  0  0  0  0  0  0  0
   -6.0489    0.1564    1.3496 C   0  0  0  0  0  0  0  0  0  0  0  0
   -6.4990   -0.2054   -0.0063 C   0  0  0  0  0  0  0  0  0  0  0  0
   -7.3339   -1.2998   -0.1435 C   0  0  0  0  0  0  0  0  0  0  0  0
   -7.7525   -1.6343   -1.4141 C   0  0  0  0  0  0  0  0  0  0  0  0
   -7.3924   -0.9552   -2.5162 N   0  0  0  0  0  0  0  0  0  0  0  0
   -6.5842    0.1100   -2.4150 C   0  0  0  0  0  0  0  0  0  0  0  0
   -6.1889    0.8328   -3.4978 F   0  0  0  0  0  0  0  0  0  0  0  0
   -6.1457    0.4725   -1.1525 C   0  0  0  0  0  0  0  0  0  0  0  0
   -3.5007    0.0378    1.5065 C   0  0  0  0  0  0  0  0  0  0  0  0
   -3.0656    1.1981    0.9254 C   0  0  0  0  0  0  0  0  0  0  0  0
   -1.7095    1.4787    0.8322 C   0  0  0  0  0  0  0  0  0  0  0  0
   -0.7478    0.6163    1.3125 C   0  0  0  0  0  0  0  0  0  0  0  0
    0.9718    0.9743    1.1904 S   0  0  0  0  0  6  0  0  0  0  0  0
    1.1923    2.4236    1.4111 O   0  0  0  0  0  0  0  0  0  0  0  0
    1.6131    0.2485    2.3691 O   0  0  0  0  0  0  0  0  0  0  0  0
    1.6587    0.3533   -0.2261 N   0  0  0  0  0  0  0  0  0  0  0  0
    1.0550    0.9261   -1.3831 C   0  0  0  0  0  0  0  0  0  0  0  0
    2.1340    1.6377   -2.1697 C   0  0  0  0  0  0  0  0  0  0  0  0
    3.1974    1.8255   -1.0786 C   0  0  0  0  0  0  0  0  0  0  0  0
    3.0651    0.4803   -0.3708 C   0  0  1  0  0  0  0  0  0  0  0  0
    3.8502    0.4314    0.8872 C   0  0  0  0  0  0  0  0  0  0  0  0
    5.2009    0.5462    0.6748 O   0  0  0  0  0  0  0  0  0  0  0  0
    6.1540   -0.1690    0.0584 C   0  0  0  0  0  0  0  0  0  0  0  0
    7.4650    0.3309    0.0405 C   0  0  0  0  0  0  0  0  0  0  0  0
    8.4696   -0.3688   -0.5756 C   0  0  0  0  0  0  0  0  0  0  0  0
    8.2183   -1.5851   -1.1956 C   0  0  0  0  0  0  0  0  0  0  0  0
    6.9352   -2.0714   -1.1759 C   0  0  0  0  0  0  0  0  0  0  0  0
    5.9277   -1.3636   -0.5541 C   0  0  0  0  0  0  0  0  0  0  0  0
   -1.2070   -0.5505    1.8961 C   0  0  0  0  0  0  0  0  0  0  0  0
   -2.5567   -0.8390    1.9938 C   0  0  0  0  0  0  0  0  0  0  0  0
   -5.9517    1.2755    1.4652 H   0  0  0  0  0  0  0  0  0  0  0  0
   -6.8071   -0.1410    2.1121 H   0  0  0  0  0  0  0  0  0  0  0  0
   -7.6599   -1.8897    0.7145 H   0  0  0  0  0  0  0  0  0  0  0  0
   -8.4071   -2.4985   -1.4874 H   0  0  0  0  0  0  0  0  0  0  0  0
   -5.4931    1.3324   -1.0690 H   0  0  0  0  0  0  0  0  0  0  0  0
   -3.8031    1.9074    0.5326 H   0  0  0  0  0  0  0  0  0  0  0  0
   -1.4252    2.4052    0.3674 H   0  0  0  0  0  0  0  0  0  0  0  0
    0.5560    0.1581   -2.0363 H   0  0  0  0  0  0  0  0  0  0  0  0
    0.2763    1.6741   -1.1433 H   0  0  0  0  0  0  0  0  0  0  0  0
    2.5375    0.9134   -2.9045 H   0  0  0  0  0  0  0  0  0  0  0  0
    1.8166    2.5874   -2.5984 H   0  0  0  0  0  0  0  0  0  0  0  0
    2.9342    2.6632   -0.4257 H   0  0  0  0  0  0  0  0  0  0  0  0
    4.1621    1.9278   -1.6015 H   0  0  0  0  0  0  0  0  0  0  0  0
    3.4054   -0.2661   -1.0942 H   0  0  0  0  0  0  0  0  0  0  0  0
    3.5654    1.2376    1.6122 H   0  0  0  0  0  0  0  0  0  0  0  0
    3.6570   -0.5807    1.3603 H   0  0  0  0  0  0  0  0  0  0  0  0
    7.6738    1.2666    0.5139 H   0  0  0  0  0  0  0  0  0  0  0  0
    9.4970   -0.0232   -0.6153 H   0  0  0  0  0  0  0  0  0  0  0  0
    8.9936   -2.1521   -1.6866 H   0  0  0  0  0  0  0  0  0  0  0  0
    6.6871   -3.0323   -1.6545 H   0  0  0  0  0  0  0  0  0  0  0  0
    4.9336   -1.8339   -0.5658 H   0  0  0  0  0  0  0  0  0  0  0  0
   -0.4427   -1.2274    2.2737 H   0  0  0  0  0  0  0  0  0  0  0  0
  1  2  2  0
  2  3  1  0
  3  4  2  0
  3  5  1  0
  5  6  1  0
  6  7  1  0
  7  8  2  0
  8  9  1  0
  9 10  2  0
 10 11  1  0
 11 12  1  0
 11 13  2  0
  5 14  1  0
 14 15  2  0
 15 16  1  0
 16 17  2  0
 17 18  1  0
 18 19  2  0
 18 20  2  0
 18 21  1  0
 21 22  1  0
 22 23  1  0
 23 24  1  0
 24 25  1  0
 25 26  1  0
 26 27  1  0
 27 28  1  0
 28 29  2  0
 29 30  1  0
 30 31  2  0
 31 32  1  0
 32 33  2  0
 17 34  1  0
 34 35  2  0
 35  2  1  0
 13  7  1  0
 35 14  1  0
 25 21  1  0
 33 28  1  0
  6 36  1  0
  6 37  1  0
  8 38  1  0
  9 39  1  0
 13 40  1  0
 15 41  1  0
 16 42  1  0
 22 43  1  0
 22 44  1  0
 23 45  1  0
 23 46  1  0
 24 47  1  0
 24 48  1  0
 25 49  1  6
 26 50  1  0
 26 51  1  0
 29 52  1  0
 30 53  1  0
 31 54  1  0
 32 55  1  0
 33 56  1  0
 34 57  1  0
M  END
$$$$
