
     RDKit          3D

 56 58  0  0  0  0  0  0  0  0999 V2000
    5.9979   -1.0496    0.9036 C   0  0  1  0  0  0  0  0  0  0  0  0
    7.2218   -1.5406    1.4020 O   0  0  0  0  0  0  0  0  0  0  0  0
    5.0737   -0.8564    2.0541 C   0  0  0  0  0  0  0  0  0  0  0  0
    3.8084   -0.3841    1.7737 O   0  0  0  0  0  0  0  0  0  0  0  0
    2.8511   -0.9898    1.0107 C   0  0  0  0  0  0  0  0  0  0  0  0
    2.6914   -2.1394    0.2868 C   0  0  0  0  0  0  0  0  0  0  0  0
    1.5213   -2.3781   -0.3570 C   0  0  0  0  0  0  0  0  0  0  0  0
    0.4286   -1.5451   -0.3578 C   0  0  0  0  0  0  0  0  0  0  0  0
   -0.7197   -1.9336   -1.0380 N   0  0  0  0  0  0  0  0  0  0  0  0
   -1.9336   -1.2889   -1.3425 C   0  0  0  0  0  0  0  0  0  0  0  0
   -2.1878   -0.8602   -2.5842 N   0  0  0  0  0  0  0  0  0  0  0  0
   -3.3495   -0.2459   -2.8502 C   0  0  0  0  0  0  0  0  0  0  0  0
   -4.2559   -0.0585   -1.8816 N   0  0  0  0  0  0  0  0  0  0  0  0
   -4.1273   -0.4360   -0.6011 C   0  0  0  0  0  0  0  0  0  0  0  0
   -5.0102   -0.2864    0.4912 N   0  0  0  0  0  0  0  0  0  0  0  0
   -6.3014    0.2969    0.4728 C   0  0  0  0  0  0  0  0  0  0  0  0
   -7.0031    0.3751    1.6844 C   0  0  0  0  0  0  0  0  0  0  0  0
   -6.5060   -0.0858    2.8575 F   0  0  0  0  0  0  0  0  0  0  0  0
   -8.2454    0.9507    1.6496 C   0  0  0  0  0  0  0  0  0  0  0  0
   -8.9005    1.4672    0.5638 C   0  0  0  0  0  0  0  0  0  0  0  0
   -8.1784    1.3766   -0.6338 C   0  0  0  0  0  0  0  0  0  0  0  0
   -6.9176    0.8031   -0.6460 C   0  0  0  0  0  0  0  0  0  0  0  0
   -8.7636    1.8996   -1.9176 C   0  0  0  0  0  0  0  0  0  0  0  0
   -7.8038    2.7443   -2.4844 F   0  0  0  0  0  0  0  0  0  0  0  0
   -8.8984    0.8299   -2.7844 F   0  0  0  0  0  0  0  0  0  0  0  0
   -9.9428    2.5627   -1.6858 F   0  0  0  0  0  0  0  0  0  0  0  0
   -2.9150   -1.0540   -0.4195 C   0  0  0  0  0  0  0  0  0  0  0  0
    0.5804   -0.3599    0.3812 C   0  0  0  0  0  0  0  0  0  0  0  0
    1.7791   -0.0858    1.0581 C   0  0  0  0  0  0  0  0  0  0  0  0
    6.2669    0.3110    0.2827 C   0  0  0  0  0  0  0  0  0  0  0  0
    6.7936    1.2498    1.2504 N   0  0  0  0  0  0  0  0  0  0  0  0
    6.9692    2.5080    0.5188 C   0  0  0  0  0  0  0  0  0  0  0  0
    8.1064    0.8125    1.6940 C   0  0  0  0  0  0  0  0  0  0  0  0
    5.6590   -1.7791    0.1637 H   0  0  0  0  0  0  0  0  0  0  0  0
    7.0677   -2.2388    2.0840 H   0  0  0  0  0  0  0  0  0  0  0  0
    4.9994   -1.8551    2.5820 H   0  0  0  0  0  0  0  0  0  0  0  0
    5.6079   -0.2046    2.7986 H   0  0  0  0  0  0  0  0  0  0  0  0
    3.5589   -2.7532    0.3219 H   0  0  0  0  0  0  0  0  0  0  0  0
    1.5062   -3.3245   -0.9026 H   0  0  0  0  0  0  0  0  0  0  0  0
   -0.8202   -2.8697   -1.4511 H   0  0  0  0  0  0  0  0  0  0  0  0
   -3.5735    0.1054   -3.8493 H   0  0  0  0  0  0  0  0  0  0  0  0
   -4.6681   -0.6468    1.4115 H   0  0  0  0  0  0  0  0  0  0  0  0
   -8.8120    1.0228    2.5921 H   0  0  0  0  0  0  0  0  0  0  0  0
   -9.8680    1.9267    0.4812 H   0  0  0  0  0  0  0  0  0  0  0  0
   -6.4218    0.7678   -1.6047 H   0  0  0  0  0  0  0  0  0  0  0  0
   -2.6451   -1.4294    0.5858 H   0  0  0  0  0  0  0  0  0  0  0  0
   -0.3418    0.2292    0.3140 H   0  0  0  0  0  0  0  0  0  0  0  0
    1.6122    0.8865    1.5274 H   0  0  0  0  0  0  0  0  0  0  0  0
    7.0677    0.2131   -0.5039 H   0  0  0  0  0  0  0  0  0  0  0  0
    5.3947    0.7079   -0.2635 H   0  0  0  0  0  0  0  0  0  0  0  0
    7.9750    2.4805    0.0511 H   0  0  0  0  0  0  0  0  0  0  0  0
    6.2161    2.5882   -0.2812 H   0  0  0  0  0  0  0  0  0  0  0  0
    6.9395    3.3652    1.2174 H   0  0  0  0  0  0  0  0  0  0  0  0
    8.7635    1.7147    1.8856 H   0  0  0  0  0  0  0  0  0  0  0  0
    8.0841    0.2356    2.6258 H   0  0  0  0  0  0  0  0  0  0  0  0
    8.5685    0.2484    0.8646 H   0  0  0  0  0  0  0  0  0  0  0  0
  1  2  1  0
  1  3  1  0
  3  4  1  0
  4  5  1  0
  5  6  2  0
  6  7  1  0
  7  8  2  0
  8  9  1  0
  9 10  1  0
 10 11  2  0
 11 12  1  0
 12 13  2  0
 13 14  1  0
 14 15  1  0
 15 16  1  0
 16 17  2  0
 17 18  1  0
 17 19  1  0
 19 20  2  0
 20 21  1  0
 21 22  2  0
 21 23  1  0
 23 24  1  0
 23 25  1  0
 23 26  1  0
 14 27  2  0
  8 28  1  0
 28 29  2  0
  1 30  1  0
 30 31  1  0
 31 32  1  0
 31 33  1  0
 29  5  1  0
 27 10  1  0
 22 16  1  0
  1 34  1  6
  2 35  1  0
  3 36  1  0
  3 37  1  0
  6 38  1  0
  7 39  1  0
  9 40  1  0
 12 41  1  0
 15 42  1  0
 19 43  1  0
 20 44  1  0
 22 45  1  0
 27 46  1  0
 28 47  1  0
 29 48  1  0
 30 49  1  0
 30 50  1  0
 32 51  1  0
 32 52  1  0
 32 53  1  0
 33 54  1  0
 33 55  1  0
 33 56  1  0
M  END
$$$$
