
     RDKit          3D

 70 74  0  0  0  0  0  0  0  0999 V2000
    8.9957   -2.2868    2.0207 C   0  0  0  0  0  0  0  0  0  0  0  0
    8.5341   -1.2521    1.4274 O   0  0  0  0  0  0  0  0  0  0  0  0
    8.1217   -0.1497    0.8693 C   0  0  0  0  0  0  0  0  0  0  0  0
    8.5953    1.1231    1.1107 N   0  0  0  0  0  0  0  0  0  0  0  0
    7.9713    2.0118    0.3902 N   0  0  0  0  0  0  0  0  0  0  0  0
    8.2022    3.4427    0.3759 C   0  0  0  0  0  0  0  0  0  0  0  0
    7.0615    1.3571   -0.3536 C   0  0  0  0  0  0  0  0  0  0  0  0
    7.1195    0.0116   -0.0886 C   0  0  0  0  0  0  0  0  0  0  0  0
    6.3328   -1.0373   -0.6819 N   0  0  0  0  0  0  0  0  0  0  0  0
    5.3585   -0.6428   -1.6483 C   0  0  0  0  0  0  0  0  0  0  0  0
    5.7192   -0.2734   -2.8980 N   0  0  0  0  0  0  0  0  0  0  0  0
    4.7741    0.0869   -3.7823 C   0  0  0  0  0  0  0  0  0  0  0  0
    3.4283    0.0733   -3.3958 C   0  0  0  0  0  0  0  0  0  0  0  0
    2.5275    0.4402   -4.3124 F   0  0  0  0  0  0  0  0  0  0  0  0
    3.0611   -0.3006   -2.1292 C   0  0  0  0  0  0  0  0  0  0  0  0
    1.6723   -0.3334   -1.6807 C   0  0  0  0  0  0  0  0  0  0  0  0
    0.5419    0.0063   -2.3866 C   0  0  0  0  0  0  0  0  0  0  0  0
   -0.5479   -0.1581   -1.6069 N   0  0  0  0  0  0  0  0  0  0  0  0
   -0.1880   -0.6025   -0.3810 C   0  0  0  0  0  0  0  0  0  0  0  0
   -0.9167   -0.9134    0.7523 C   0  0  0  0  0  0  0  0  0  0  0  0
   -2.3347   -0.7874    0.7318 N   0  0  0  0  0  0  0  0  0  0  0  0
   -3.1935   -1.8644    0.4293 C   0  0  0  0  0  0  0  0  0  0  0  0
   -2.7644   -2.9912    0.1730 O   0  0  0  0  0  0  0  0  0  0  0  0
   -4.6777   -1.6030    0.4276 C   0  0  1  0  0  0  0  0  0  0  0  0
   -5.1960   -2.2488    1.6906 C   0  0  0  0  0  0  0  0  0  0  0  0
   -5.0035   -0.2385    0.3736 N   0  0  0  0  0  0  0  0  0  0  0  0
   -4.6764    0.4950   -0.7911 C   0  0  0  0  0  0  0  0  0  0  0  0
   -5.9593    0.8706   -1.5096 C   0  0  0  0  0  0  0  0  0  0  0  0
   -6.9206    1.4654   -0.6345 N   0  0  0  0  0  0  0  0  0  0  0  0
   -6.5461    2.7910   -0.2535 C   0  0  0  0  0  0  0  0  0  0  0  0
   -7.2432    0.5828    0.4439 C   0  0  2  0  0  0  0  0  0  0  0  0
   -8.3143    1.1413    1.3545 C   0  0  0  0  0  0  0  0  0  0  0  0
   -5.9533    0.3213    1.2381 C   0  0  0  0  0  0  0  0  0  0  0  0
   -0.2515   -1.3439    1.8632 C   0  0  0  0  0  0  0  0  0  0  0  0
    1.1426   -1.4612    1.8346 C   0  0  0  0  0  0  0  0  0  0  0  0
    1.8533   -1.1463    0.6954 C   0  0  0  0  0  0  0  0  0  0  0  0
    1.1986   -0.7115   -0.4306 C   0  0  0  0  0  0  0  0  0  0  0  0
    4.0656   -0.6495   -1.2948 N   0  0  0  0  0  0  0  0  0  0  0  0
    8.5982   -3.3141    1.7317 H   0  0  0  0  0  0  0  0  0  0  0  0
    8.9952   -2.2883    3.1727 H   0  0  0  0  0  0  0  0  0  0  0  0
   10.1182   -2.4313    1.8283 H   0  0  0  0  0  0  0  0  0  0  0  0
    7.7814    3.8615   -0.5811 H   0  0  0  0  0  0  0  0  0  0  0  0
    9.2750    3.6908    0.4763 H   0  0  0  0  0  0  0  0  0  0  0  0
    7.6482    3.9386    1.1975 H   0  0  0  0  0  0  0  0  0  0  0  0
    6.3598    1.7944   -1.0741 H   0  0  0  0  0  0  0  0  0  0  0  0
    6.4489   -2.0246   -0.4345 H   0  0  0  0  0  0  0  0  0  0  0  0
    5.0906    0.3726   -4.7537 H   0  0  0  0  0  0  0  0  0  0  0  0
    0.4902    0.3565   -3.4159 H   0  0  0  0  0  0  0  0  0  0  0  0
   -1.5282    0.0172   -1.8623 H   0  0  0  0  0  0  0  0  0  0  0  0
   -2.8036    0.1397    0.9526 H   0  0  0  0  0  0  0  0  0  0  0  0
   -5.1450   -2.1076   -0.4667 H   0  0  0  0  0  0  0  0  0  0  0  0
   -4.8629   -1.6957    2.5927 H   0  0  0  0  0  0  0  0  0  0  0  0
   -6.2963   -2.2868    1.7080 H   0  0  0  0  0  0  0  0  0  0  0  0
   -4.8566   -3.3208    1.7317 H   0  0  0  0  0  0  0  0  0  0  0  0
   -4.0217    1.3781   -0.6450 H   0  0  0  0  0  0  0  0  0  0  0  0
   -4.1204   -0.1851   -1.4935 H   0  0  0  0  0  0  0  0  0  0  0  0
   -5.6939    1.5937   -2.3208 H   0  0  0  0  0  0  0  0  0  0  0  0
   -6.3697   -0.0088   -2.0094 H   0  0  0  0  0  0  0  0  0  0  0  0
   -5.6279    3.1640   -0.7377 H   0  0  0  0  0  0  0  0  0  0  0  0
   -7.3678    3.4734   -0.6102 H   0  0  0  0  0  0  0  0  0  0  0  0
   -6.5095    2.9497    0.8417 H   0  0  0  0  0  0  0  0  0  0  0  0
   -7.5481   -0.3875    0.0016 H   0  0  0  0  0  0  0  0  0  0  0  0
   -7.8684    1.2447    2.3641 H   0  0  0  0  0  0  0  0  0  0  0  0
   -9.1062    0.3740    1.4395 H   0  0  0  0  0  0  0  0  0  0  0  0
   -8.6867    2.1241    1.0044 H   0  0  0  0  0  0  0  0  0  0  0  0
   -5.5832    1.3221    1.5776 H   0  0  0  0  0  0  0  0  0  0  0  0
   -6.2425   -0.3203    2.0710 H   0  0  0  0  0  0  0  0  0  0  0  0
   -0.7546   -1.6080    2.7948 H   0  0  0  0  0  0  0  0  0  0  0  0
    1.6555   -1.8056    2.7212 H   0  0  0  0  0  0  0  0  0  0  0  0
    2.9419   -1.2352    0.6597 H   0  0  0  0  0  0  0  0  0  0  0  0
  1  2  1  0
  2  3  1  0
  3  4  2  0
  4  5  1  0
  5  6  1  0
  5  7  1  0
  7  8  2  0
  8  9  1  0
  9 10  1  0
 10 11  2  0
 11 12  1  0
 12 13  2  0
 13 14  1  0
 13 15  1  0
 15 16  1  0
 16 17  2  0
 17 18  1  0
 18 19  1  0
 19 20  2  0
 20 21  1  0
 21 22  1  0
 22 23  2  0
 22 24  1  0
 24 25  1  0
 24 26  1  0
 26 27  1  0
 27 28  1  0
 28 29  1  0
 29 30  1  0
 29 31  1  0
 31 32  1  0
 31 33  1  0
 20 34  1  0
 34 35  2  0
 35 36  1  0
 36 37  2  0
 15 38  2  0
  8  3  1  0
 38 10  1  0
 37 16  1  0
 37 19  1  0
 33 26  1  0
  1 39  1  0
  1 40  1  0
  1 41  1  0
  6 42  1  0
  6 43  1  0
  6 44  1  0
  7 45  1  0
  9 46  1  0
 12 47  1  0
 17 48  1  0
 18 49  1  0
 21 50  1  0
 24 51  1  6
 25 52  1  0
 25 53  1  0
 25 54  1  0
 27 55  1  0
 27 56  1  0
 28 57  1  0
 28 58  1  0
 30 59  1  0
 30 60  1  0
 30 61  1  0
 31 62  1  6
 32 63  1  0
 32 64  1  0
 32 65  1  0
 33 66  1  0
 33 67  1  0
 34 68  1  0
 35 69  1  0
 36 70  1  0
M  END
$$$$
