
     RDKit          3D

 45 48  0  0  0  0  0  0  0  0999 V2000
   -5.5236    1.1749    1.4673 N   0  0  0  0  0  0  0  0  0  0  0  0
   -4.1709    0.8425    1.2349 C   0  0  0  0  0  0  0  0  0  0  0  0
   -3.3122    1.1658    2.0773 O   0  0  0  0  0  0  0  0  0  0  0  0
   -3.7582    0.1340    0.0371 C   0  0  0  0  0  0  0  0  0  0  0  0
   -4.5810   -0.3003   -0.9826 C   0  0  0  0  0  0  0  0  0  0  0  0
   -3.8235   -0.8933   -1.8842 N   0  0  0  0  0  0  0  0  0  0  0  0
   -2.5549   -0.8397   -1.4549 C   0  0  0  0  0  0  0  0  0  0  0  0
   -1.4209   -1.3117   -2.0419 C   0  0  0  0  0  0  0  0  0  0  0  0
   -0.2152   -1.1170   -1.3734 C   0  0  0  0  0  0  0  0  0  0  0  0
   -0.1367   -0.4761   -0.1631 C   0  0  0  0  0  0  0  0  0  0  0  0
    1.1110   -0.2636    0.5471 C   0  0  0  0  0  0  0  0  0  0  0  0
    1.6705    0.9975    0.7156 C   0  0  0  0  0  0  0  0  0  0  0  0
    1.1102    2.2376    0.1921 C   0  0  0  0  0  0  0  0  0  0  0  0
    0.7400    3.2902    0.9917 C   0  0  0  0  0  0  0  0  0  0  0  0
    0.2044    4.4623    0.4539 C   0  0  0  0  0  0  0  0  0  0  0  0
    0.0341    4.5886   -0.9092 C   0  0  0  0  0  0  0  0  0  0  0  0
   -0.4777    5.6952   -1.4962 F   0  0  0  0  0  0  0  0  0  0  0  0
    0.4079    3.5286   -1.7042 C   0  0  0  0  0  0  0  0  0  0  0  0
    0.2015    3.6646   -3.4372 Cl  0  0  0  0  0  0  0  0  0  0  0  0
    0.9392    2.3625   -1.1848 C   0  0  0  0  0  0  0  0  0  0  0  0
    2.7953    0.8369    1.4320 N   0  0  0  0  0  0  0  0  0  0  0  0
    2.9285   -0.4749    1.6976 C   0  0  0  0  0  0  0  0  0  0  0  0
    1.8786   -1.1425    1.1428 N   0  0  0  0  0  0  0  0  0  0  0  0
    1.7430   -2.5670    1.2360 C   0  0  0  0  0  0  0  0  0  0  0  0
    2.4675   -3.3295    0.1704 C   0  0  0  0  0  0  0  0  0  0  0  0
    3.9503   -3.0806    0.1802 C   0  0  0  0  0  0  0  0  0  0  0  0
    4.5131   -3.8454   -0.8617 O   0  0  0  0  0  0  0  0  0  0  0  0
   -1.3219   -0.0319    0.3593 N   0  0  0  0  0  0  0  0  0  0  0  0
   -2.4718   -0.2122   -0.2695 N   0  0  0  0  0  0  0  0  0  0  0  0
   -6.0223    1.1082    2.3800 H   0  0  0  0  0  0  0  0  0  0  0  0
   -6.1152    1.5286    0.6588 H   0  0  0  0  0  0  0  0  0  0  0  0
   -5.6454   -0.1560   -0.9925 H   0  0  0  0  0  0  0  0  0  0  0  0
   -1.4327   -1.8292   -3.0036 H   0  0  0  0  0  0  0  0  0  0  0  0
    0.6634   -1.4898   -1.8591 H   0  0  0  0  0  0  0  0  0  0  0  0
    0.8724    3.1919    2.0560 H   0  0  0  0  0  0  0  0  0  0  0  0
   -0.0883    5.2946    1.0755 H   0  0  0  0  0  0  0  0  0  0  0  0
    1.2331    1.5305   -1.7946 H   0  0  0  0  0  0  0  0  0  0  0  0
    3.7467   -0.9112    2.2633 H   0  0  0  0  0  0  0  0  0  0  0  0
    0.6612   -2.8780    1.3038 H   0  0  0  0  0  0  0  0  0  0  0  0
    2.1640   -2.9320    2.2171 H   0  0  0  0  0  0  0  0  0  0  0  0
    2.2308   -4.4253    0.2248 H   0  0  0  0  0  0  0  0  0  0  0  0
    2.0957   -3.0118   -0.8166 H   0  0  0  0  0  0  0  0  0  0  0  0
    4.4523   -3.3402    1.1182 H   0  0  0  0  0  0  0  0  0  0  0  0
    4.0999   -2.0224   -0.1159 H   0  0  0  0  0  0  0  0  0  0  0  0
    4.1577   -4.7534   -0.8875 H   0  0  0  0  0  0  0  0  0  0  0  0
  1  2  1  0
  2  3  2  0
  2  4  1  0
  4  5  2  0
  5  6  1  0
  6  7  2  0
  7  8  1  0
  8  9  2  0
  9 10  1  0
 10 11  1  0
 11 12  2  0
 12 13  1  0
 13 14  2  0
 14 15  1  0
 15 16  2  0
 16 17  1  0
 16 18  1  0
 18 19  1  0
 18 20  2  0
 12 21  1  0
 21 22  2  0
 22 23  1  0
 23 24  1  0
 24 25  1  0
 25 26  1  0
 26 27  1  0
 10 28  2  0
 28 29  1  0
 29  4  1  0
 29  7  1  0
 23 11  1  0
 20 13  1  0
  1 30  1  0
  1 31  1  0
  5 32  1  0
  8 33  1  0
  9 34  1  0
 14 35  1  0
 15 36  1  0
 20 37  1  0
 22 38  1  0
 24 39  1  0
 24 40  1  0
 25 41  1  0
 25 42  1  0
 26 43  1  0
 26 44  1  0
 27 45  1  0
M  END
$$$$
