
     RDKit          3D

 44 47  0  0  0  0  0  0  0  0999 V2000
   -0.9298    2.9421    2.7335 N   0  0  0  0  0  0  0  0  0  0  0  0
   -1.1258    2.4701    1.3907 C   0  0  0  0  0  0  0  0  0  0  0  0
   -1.8157    3.1761    0.4694 N   0  0  0  0  0  0  0  0  0  0  0  0
   -1.9293    2.6177   -0.7535 C   0  0  0  0  0  0  0  0  0  0  0  0
   -1.3609    1.3903   -1.0188 C   0  0  0  0  0  0  0  0  0  0  0  0
   -0.6484    0.6703   -0.0521 C   0  0  0  0  0  0  0  0  0  0  0  0
   -0.5628    1.2734    1.1588 N   0  0  0  0  0  0  0  0  0  0  0  0
   -0.1792   -0.5895   -0.6003 C   0  0  0  0  0  0  0  0  0  0  0  0
   -1.0038   -1.6671   -0.8653 C   0  0  0  0  0  0  0  0  0  0  0  0
   -0.1772   -2.6049   -1.3602 N   0  0  0  0  0  0  0  0  0  0  0  0
    1.0756   -2.1214   -1.3916 C   0  0  0  0  0  0  0  0  0  0  0  0
    1.0933   -0.8598   -0.9197 N   0  0  0  0  0  0  0  0  0  0  0  0
    2.3360   -0.1270   -0.8657 C   0  0  0  0  0  0  0  0  0  0  0  0
    3.4632   -1.0790   -0.5031 C   0  0  0  0  0  0  0  0  0  0  0  0
    4.1542   -0.7152    0.7859 C   0  0  0  0  0  0  0  0  0  0  0  0
    4.7499    0.5758    0.6482 N   0  0  0  0  0  0  0  0  0  0  0  0
    3.8022    1.5212    0.1561 C   0  0  0  0  0  0  0  0  0  0  0  0
    2.3801    0.9942    0.1083 C   0  0  0  0  0  0  0  0  0  0  0  0
   -2.4636   -1.6608   -0.6162 C   0  0  0  0  0  0  0  0  0  0  0  0
   -2.8005   -1.4850    0.7267 C   0  0  0  0  0  0  0  0  0  0  0  0
   -4.1112   -1.4530    1.1037 C   0  0  0  0  0  0  0  0  0  0  0  0
   -5.0805   -1.5961    0.1438 C   0  0  0  0  0  0  0  0  0  0  0  0
   -6.3676   -1.5556    0.5725 F   0  0  0  0  0  0  0  0  0  0  0  0
   -4.7395   -1.7721   -1.1968 C   0  0  0  0  0  0  0  0  0  0  0  0
   -3.4191   -1.8073   -1.6002 C   0  0  0  0  0  0  0  0  0  0  0  0
   -0.1409    3.2249    3.3593 H   0  0  0  0  0  0  0  0  0  0  0  0
   -1.8902    3.0043    3.1697 H   0  0  0  0  0  0  0  0  0  0  0  0
   -2.4850    3.2035   -1.4718 H   0  0  0  0  0  0  0  0  0  0  0  0
   -1.5420    1.0758   -2.0580 H   0  0  0  0  0  0  0  0  0  0  0  0
    1.8024   -2.8378   -1.7852 H   0  0  0  0  0  0  0  0  0  0  0  0
    2.5575    0.2882   -1.9003 H   0  0  0  0  0  0  0  0  0  0  0  0
    3.0183   -2.0808   -0.3304 H   0  0  0  0  0  0  0  0  0  0  0  0
    4.1639   -1.1997   -1.3383 H   0  0  0  0  0  0  0  0  0  0  0  0
    3.4789   -0.8225    1.6584 H   0  0  0  0  0  0  0  0  0  0  0  0
    4.9417   -1.5068    0.9285 H   0  0  0  0  0  0  0  0  0  0  0  0
    5.0065    0.8780    1.6369 H   0  0  0  0  0  0  0  0  0  0  0  0
    3.7644    2.4666    0.7391 H   0  0  0  0  0  0  0  0  0  0  0  0
    4.1085    1.7835   -0.8976 H   0  0  0  0  0  0  0  0  0  0  0  0
    2.1424    0.6196    1.1033 H   0  0  0  0  0  0  0  0  0  0  0  0
    1.7766    1.8696   -0.1890 H   0  0  0  0  0  0  0  0  0  0  0  0
   -2.0530   -1.3702    1.5010 H   0  0  0  0  0  0  0  0  0  0  0  0
   -4.3767   -1.3138    2.1529 H   0  0  0  0  0  0  0  0  0  0  0  0
   -5.5195   -1.8809   -1.9295 H   0  0  0  0  0  0  0  0  0  0  0  0
   -3.0931   -1.9385   -2.6031 H   0  0  0  0  0  0  0  0  0  0  0  0
  1  2  1  0
  2  3  2  0
  3  4  1  0
  4  5  2  0
  5  6  1  0
  6  7  2  0
  6  8  1  0
  8  9  2  0
  9 10  1  0
 10 11  2  0
 11 12  1  0
 12 13  1  0
 13 14  1  0
 14 15  1  0
 15 16  1  0
 16 17  1  0
 17 18  1  0
  9 19  1  0
 19 20  2  0
 20 21  1  0
 21 22  2  0
 22 23  1  0
 22 24  1  0
 24 25  2  0
  7  2  1  0
 12  8  1  0
 18 13  1  0
 25 19  1  0
  1 26  1  0
  1 27  1  0
  4 28  1  0
  5 29  1  0
 11 30  1  0
 13 31  1  0
 14 32  1  0
 14 33  1  0
 15 34  1  0
 15 35  1  0
 16 36  1  0
 17 37  1  0
 17 38  1  0
 18 39  1  0
 18 40  1  0
 20 41  1  0
 21 42  1  0
 24 43  1  0
 25 44  1  0
M  END
$$$$
