
     RDKit          3D

 44 45  0  0  0  0  0  0  0  0999 V2000
   -1.4584   -0.3333   -1.6930 C   0  0  0  0  0  0  0  0  0  0  0  0
   -0.7644    0.2114   -0.4478 C   0  0  0  0  0  0  0  0  0  0  0  0
   -1.3834   -0.4119    0.7814 C   0  0  0  0  0  0  0  0  0  0  0  0
   -2.8358   -0.0406    0.7755 C   0  0  0  0  0  0  0  0  0  0  0  0
   -3.2298    1.1160    1.4009 C   0  0  0  0  0  0  0  0  0  0  0  0
   -4.5528    1.4569    1.3973 C   0  0  0  0  0  0  0  0  0  0  0  0
   -5.4870    0.6489    0.7722 C   0  0  0  0  0  0  0  0  0  0  0  0
   -6.8350    1.0141    0.7792 O   0  0  0  0  0  0  0  0  0  0  0  0
   -5.1283   -0.5109    0.1394 C   0  0  0  0  0  0  0  0  0  0  0  0
   -6.0599   -1.3332   -0.4938 O   0  0  0  0  0  0  0  0  0  0  0  0
   -3.7683   -0.8424    0.1543 C   0  0  0  0  0  0  0  0  0  0  0  0
    0.6964   -0.0359   -0.5940 C   0  0  0  0  0  0  0  0  0  0  0  0
    0.9188   -1.5381   -0.7228 C   0  0  0  0  0  0  0  0  0  0  0  0
    1.5163    0.5525    0.5183 C   0  0  0  0  0  0  0  0  0  0  0  0
    2.9623    0.2951    0.3515 C   0  0  0  0  0  0  0  0  0  0  0  0
    3.5530   -0.8389    0.8852 C   0  0  0  0  0  0  0  0  0  0  0  0
    4.9056   -1.0814    0.7303 C   0  0  0  0  0  0  0  0  0  0  0  0
    5.7013   -0.1899    0.0341 C   0  0  0  0  0  0  0  0  0  0  0  0
    7.0723   -0.4064   -0.1401 O   0  0  0  0  0  0  0  0  0  0  0  0
    5.1160    0.9489   -0.5037 C   0  0  0  0  0  0  0  0  0  0  0  0
    5.9493    1.8194   -1.1958 O   0  0  0  0  0  0  0  0  0  0  0  0
    3.7634    1.1912   -0.3485 C   0  0  0  0  0  0  0  0  0  0  0  0
   -1.5184   -1.4324   -1.6740 H   0  0  0  0  0  0  0  0  0  0  0  0
   -2.4681    0.1453   -1.7508 H   0  0  0  0  0  0  0  0  0  0  0  0
   -0.9296   -0.0497   -2.6118 H   0  0  0  0  0  0  0  0  0  0  0  0
   -0.9609    1.2998   -0.3906 H   0  0  0  0  0  0  0  0  0  0  0  0
   -0.8792   -0.0320    1.6746 H   0  0  0  0  0  0  0  0  0  0  0  0
   -1.3545   -1.5125    0.7790 H   0  0  0  0  0  0  0  0  0  0  0  0
   -2.4614    1.7173    1.8775 H   0  0  0  0  0  0  0  0  0  0  0  0
   -4.8734    2.3727    1.8911 H   0  0  0  0  0  0  0  0  0  0  0  0
   -7.1352    1.9216    0.4759 H   0  0  0  0  0  0  0  0  0  0  0  0
   -6.4615   -2.1351    0.0156 H   0  0  0  0  0  0  0  0  0  0  0  0
   -3.4905   -1.7619   -0.3482 H   0  0  0  0  0  0  0  0  0  0  0  0
    0.9934    0.4017   -1.5843 H   0  0  0  0  0  0  0  0  0  0  0  0
    0.4702   -2.1087    0.0963 H   0  0  0  0  0  0  0  0  0  0  0  0
    2.0121   -1.7149   -0.8277 H   0  0  0  0  0  0  0  0  0  0  0  0
    0.4665   -1.9000   -1.6689 H   0  0  0  0  0  0  0  0  0  0  0  0
    1.1253    0.2455    1.4876 H   0  0  0  0  0  0  0  0  0  0  0  0
    1.3852    1.6622    0.4563 H   0  0  0  0  0  0  0  0  0  0  0  0
    2.9306   -1.5402    1.4321 H   0  0  0  0  0  0  0  0  0  0  0  0
    5.3272   -1.9803    1.1635 H   0  0  0  0  0  0  0  0  0  0  0  0
    7.5237   -0.0480   -0.9932 H   0  0  0  0  0  0  0  0  0  0  0  0
    6.3202    2.6733   -0.7517 H   0  0  0  0  0  0  0  0  0  0  0  0
    3.3268    2.0847   -0.7754 H   0  0  0  0  0  0  0  0  0  0  0  0
  1  2  1  0
  2  3  1  0
  3  4  1  0
  4  5  2  0
  5  6  1  0
  6  7  2  0
  7  8  1  0
  7  9  1  0
  9 10  1  0
  9 11  2  0
  2 12  1  0
 12 13  1  0
 12 14  1  0
 14 15  1  0
 15 16  2  0
 16 17  1  0
 17 18  2  0
 18 19  1  0
 18 20  1  0
 20 21  1  0
 20 22  2  0
 11  4  1  0
 22 15  1  0
  1 23  1  0
  1 24  1  0
  1 25  1  0
  2 26  1  0
  3 27  1  0
  3 28  1  0
  5 29  1  0
  6 30  1  0
  8 31  1  0
 10 32  1  0
 11 33  1  0
 12 34  1  0
 13 35  1  0
 13 36  1  0
 13 37  1  0
 14 38  1  0
 14 39  1  0
 16 40  1  0
 17 41  1  0
 19 42  1  0
 21 43  1  0
 22 44  1  0
M  END
$$$$
