
     RDKit          3D

 48 50  0  0  0  0  0  0  0  0999 V2000
   -7.3258   -2.0680    0.5688 C   0  0  0  0  0  0  0  0  0  0  0  0
   -6.4287   -1.3057    1.3418 O   0  0  0  0  0  0  0  0  0  0  0  0
   -6.0229   -0.0420    0.9881 N   0  0  0  0  0  0  0  0  0  0  0  0
   -4.8092    0.3056    1.2024 C   0  0  0  0  0  0  0  0  0  0  0  0
   -4.3882    1.6701    0.8157 C   0  0  0  0  0  0  0  0  0  0  0  0
   -3.1223    1.5701    0.0392 C   0  0  0  0  0  0  0  0  0  0  0  0
   -2.6492    0.1889   -0.2687 C   0  0  0  0  0  0  0  0  0  0  0  0
   -1.2593    0.2736   -0.8598 C   0  0  0  0  0  0  0  0  0  0  0  0
   -0.3266    0.8955    0.0697 N   0  0  0  0  0  0  0  0  0  0  0  0
    1.0336    1.0603   -0.3310 C   0  0  0  0  0  0  0  0  0  0  0  0
    1.4834    0.6465   -1.5714 C   0  0  0  0  0  0  0  0  0  0  0  0
    2.8023    0.8135   -1.9426 C   0  0  0  0  0  0  0  0  0  0  0  0
    3.2180    0.3991   -3.1648 F   0  0  0  0  0  0  0  0  0  0  0  0
    3.7296    1.3949   -1.1061 C   0  0  0  0  0  0  0  0  0  0  0  0
    5.4102    1.6042   -1.5870 S   0  0  0  0  0  6  0  0  0  0  0  0
    5.5145    2.4760   -2.8039 O   0  0  0  0  0  0  0  0  0  0  0  0
    6.1649    2.3305   -0.4874 O   0  0  0  0  0  0  0  0  0  0  0  0
    6.1578    0.1132   -1.9381 N   0  0  0  0  0  0  0  0  0  0  0  0
    6.3241   -0.9572   -0.9709 C   0  0  0  0  0  0  0  0  0  0  0  0
    6.7218   -2.0050   -0.7975 N   0  0  0  0  0  0  0  0  0  0  0  0
    6.7160   -2.7581    0.2876 C   0  0  0  0  0  0  0  0  0  0  0  0
    6.1506   -2.2182    1.3855 C   0  0  0  0  0  0  0  0  0  0  0  0
    5.6355   -0.5709    0.7500 S   0  0  0  0  0  0  0  0  0  0  0  0
    3.2822    1.8081    0.1315 C   0  0  0  0  0  0  0  0  0  0  0  0
    1.9640    1.6420    0.5046 C   0  0  0  0  0  0  0  0  0  0  0  0
    1.4066    2.1706    2.0793 Cl  0  0  0  0  0  0  0  0  0  0  0  0
   -2.5668   -0.7069    0.9424 C   0  0  0  0  0  0  0  0  0  0  0  0
   -3.7955   -0.5818    1.8175 C   0  0  0  0  0  0  0  0  0  0  0  0
   -6.7494   -2.9353    0.1557 H   0  0  0  0  0  0  0  0  0  0  0  0
   -8.2156   -2.3957    1.1073 H   0  0  0  0  0  0  0  0  0  0  0  0
   -7.6287   -1.4372   -0.2920 H   0  0  0  0  0  0  0  0  0  0  0  0
   -4.1997    2.3144    1.7067 H   0  0  0  0  0  0  0  0  0  0  0  0
   -5.1721    2.1682    0.1835 H   0  0  0  0  0  0  0  0  0  0  0  0
   -3.2867    2.0789   -0.9562 H   0  0  0  0  0  0  0  0  0  0  0  0
   -2.3175    2.1814    0.5083 H   0  0  0  0  0  0  0  0  0  0  0  0
   -3.2891   -0.2953   -1.0367 H   0  0  0  0  0  0  0  0  0  0  0  0
   -1.2222    0.8310   -1.8084 H   0  0  0  0  0  0  0  0  0  0  0  0
   -0.9074   -0.7690   -1.0015 H   0  0  0  0  0  0  0  0  0  0  0  0
   -0.5940    1.2232    1.0030 H   0  0  0  0  0  0  0  0  0  0  0  0
    0.7494    0.1820   -2.2439 H   0  0  0  0  0  0  0  0  0  0  0  0
    6.5329   -0.1008   -2.8705 H   0  0  0  0  0  0  0  0  0  0  0  0
    7.1505   -3.7833    0.3079 H   0  0  0  0  0  0  0  0  0  0  0  0
    5.9780   -2.5465    2.4190 H   0  0  0  0  0  0  0  0  0  0  0  0
    4.0155    2.2718    0.8024 H   0  0  0  0  0  0  0  0  0  0  0  0
   -1.6277   -0.5407    1.5070 H   0  0  0  0  0  0  0  0  0  0  0  0
   -2.5370   -1.7528    0.5731 H   0  0  0  0  0  0  0  0  0  0  0  0
   -3.4594   -0.1847    2.7993 H   0  0  0  0  0  0  0  0  0  0  0  0
   -4.2406   -1.5897    2.0408 H   0  0  0  0  0  0  0  0  0  0  0  0
  1  2  1  0
  2  3  1  0
  3  4  2  3
  4  5  1  0
  5  6  1  0
  6  7  1  0
  7  8  1  0
  8  9  1  0
  9 10  1  0
 10 11  2  0
 11 12  1  0
 12 13  1  0
 12 14  2  0
 14 15  1  0
 15 16  2  0
 15 17  2  0
 15 18  1  0
 18 19  1  0
 19 20  2  0
 20 21  1  0
 21 22  2  0
 22 23  1  0
 14 24  1  0
 24 25  2  0
 25 26  1  0
  7 27  1  0
 27 28  1  0
 28  4  1  0
 25 10  1  0
 23 19  1  0
  1 29  1  0
  1 30  1  0
  1 31  1  0
  5 32  1  0
  5 33  1  0
  6 34  1  0
  6 35  1  0
  7 36  1  0
  8 37  1  0
  8 38  1  0
  9 39  1  0
 11 40  1  0
 18 41  1  0
 21 42  1  0
 22 43  1  0
 24 44  1  0
 27 45  1  0
 27 46  1  0
 28 47  1  0
 28 48  1  0
M  END
$$$$
