
     RDKit          3D

 54 56  0  0  0  0  0  0  0  0999 V2000
   -3.2954   -0.9016    0.1974 C   0  0  2  0  0  0  0  0  0  0  0  0
   -3.8040   -0.4605   -1.1112 N   0  0  0  0  0  0  0  0  0  0  0  0
   -3.7095    0.0786    1.2714 C   0  0  0  0  0  0  0  0  0  0  0  0
   -5.1872    0.1830    1.3299 C   0  0  0  0  0  0  0  0  0  0  0  0
   -6.1413   -0.4878    2.0584 C   0  0  0  0  0  0  0  0  0  0  0  0
   -7.4749   -0.1814    1.8968 C   0  0  0  0  0  0  0  0  0  0  0  0
   -7.9222    0.8002    1.0082 C   0  0  0  0  0  0  0  0  0  0  0  0
   -6.9644    1.4575    0.2916 C   0  0  0  0  0  0  0  0  0  0  0  0
   -5.6296    1.1671    0.4391 C   0  0  0  0  0  0  0  0  0  0  0  0
   -1.8128   -0.9895    0.0819 C   0  0  0  0  0  0  0  0  0  0  0  0
   -1.3940   -1.6747    1.0481 O   0  0  0  0  0  0  0  0  0  0  0  0
   -1.0789   -0.3650   -0.9880 N   0  0  0  0  0  0  0  0  0  0  0  0
   -1.3565    0.4917   -2.1544 C   0  0  0  0  0  0  0  0  0  0  0  0
   -0.2383    1.5383   -1.9874 C   0  0  0  0  0  0  0  0  0  0  0  0
    0.9399    0.6033   -1.8325 C   0  0  0  0  0  0  0  0  0  0  0  0
    0.3479   -0.5713   -1.0933 C   0  0  1  0  0  0  0  0  0  0  0  0
    1.0398   -0.8222    0.1853 C   0  0  0  0  0  0  0  0  0  0  0  0
    1.0677   -1.0122    1.4361 O   0  0  0  0  0  0  0  0  0  0  0  0
    2.4460   -0.8978   -0.1002 N   0  0  0  0  0  0  0  0  0  0  0  0
    3.3978   -1.1488    0.9870 C   0  0  0  0  0  0  0  0  0  0  0  0
    4.7924   -0.9258    0.5260 C   0  0  0  0  0  0  0  0  0  0  0  0
    5.3773    0.3284    0.7335 C   0  0  0  0  0  0  0  0  0  0  0  0
    6.6502    0.6523    0.3392 C   0  0  0  0  0  0  0  0  0  0  0  0
    7.1764    2.0157    0.6181 C   0  0  0  0  0  0  0  0  0  0  0  0
    7.4056   -0.2839   -0.2920 C   0  0  0  0  0  0  0  0  0  0  0  0
    6.8599   -1.5419   -0.5170 C   0  0  0  0  0  0  0  0  0  0  0  0
    5.5785   -1.8574   -0.1160 C   0  0  0  0  0  0  0  0  0  0  0  0
   -3.6895   -1.9121    0.3675 H   0  0  0  0  0  0  0  0  0  0  0  0
   -3.4177   -1.1133   -1.8651 H   0  0  0  0  0  0  0  0  0  0  0  0
   -4.8681   -0.5500   -1.1150 H   0  0  0  0  0  0  0  0  0  0  0  0
   -3.3902   -0.3681    2.2490 H   0  0  0  0  0  0  0  0  0  0  0  0
   -3.2131    1.0441    1.1857 H   0  0  0  0  0  0  0  0  0  0  0  0
   -5.6865   -1.2163    2.7116 H   0  0  0  0  0  0  0  0  0  0  0  0
   -8.1649   -0.7431    2.4988 H   0  0  0  0  0  0  0  0  0  0  0  0
   -8.9985    0.9790    0.9403 H   0  0  0  0  0  0  0  0  0  0  0  0
   -7.3567    2.2132   -0.3878 H   0  0  0  0  0  0  0  0  0  0  0  0
   -5.0126    1.7902   -0.2086 H   0  0  0  0  0  0  0  0  0  0  0  0
   -2.3322    0.9735   -2.1306 H   0  0  0  0  0  0  0  0  0  0  0  0
   -1.1546   -0.0089   -3.1069 H   0  0  0  0  0  0  0  0  0  0  0  0
   -0.3349    2.0700   -1.0152 H   0  0  0  0  0  0  0  0  0  0  0  0
   -0.1674    2.2090   -2.8533 H   0  0  0  0  0  0  0  0  0  0  0  0
    1.2646    0.2926   -2.8589 H   0  0  0  0  0  0  0  0  0  0  0  0
    1.7669    1.0324   -1.2308 H   0  0  0  0  0  0  0  0  0  0  0  0
    0.5214   -1.4930   -1.7222 H   0  0  0  0  0  0  0  0  0  0  0  0
    2.9298   -0.7914   -1.0535 H   0  0  0  0  0  0  0  0  0  0  0  0
    3.3500   -2.2246    1.3042 H   0  0  0  0  0  0  0  0  0  0  0  0
    3.2151   -0.4575    1.8330 H   0  0  0  0  0  0  0  0  0  0  0  0
    4.7844    1.0659    1.2314 H   0  0  0  0  0  0  0  0  0  0  0  0
    6.2942    2.6986    0.5461 H   0  0  0  0  0  0  0  0  0  0  0  0
    7.9004    2.3102   -0.1655 H   0  0  0  0  0  0  0  0  0  0  0  0
    7.6412    2.0500    1.6270 H   0  0  0  0  0  0  0  0  0  0  0  0
    8.4081    0.0286   -0.5833 H   0  0  0  0  0  0  0  0  0  0  0  0
    7.4889   -2.2498   -1.0182 H   0  0  0  0  0  0  0  0  0  0  0  0
    5.1517   -2.8236   -0.2858 H   0  0  0  0  0  0  0  0  0  0  0  0
  1  2  1  0
  1  3  1  0
  3  4  1  0
  4  5  2  0
  5  6  1  0
  6  7  2  0
  7  8  1  0
  8  9  2  0
  1 10  1  0
 10 11  2  0
 10 12  1  0
 12 13  1  0
 13 14  1  0
 14 15  1  0
 15 16  1  0
 16 17  1  0
 17 18  2  0
 17 19  1  0
 19 20  1  0
 20 21  1  0
 21 22  2  0
 22 23  1  0
 23 24  1  0
 23 25  2  0
 25 26  1  0
 26 27  2  0
  9  4  1  0
 16 12  1  0
 27 21  1  0
  1 28  1  1
  2 29  1  0
  2 30  1  0
  3 31  1  0
  3 32  1  0
  5 33  1  0
  6 34  1  0
  7 35  1  0
  8 36  1  0
  9 37  1  0
 13 38  1  0
 13 39  1  0
 14 40  1  0
 14 41  1  0
 15 42  1  0
 15 43  1  0
 16 44  1  6
 19 45  1  0
 20 46  1  0
 20 47  1  0
 22 48  1  0
 24 49  1  0
 24 50  1  0
 24 51  1  0
 25 52  1  0
 26 53  1  0
 27 54  1  0
M  END
$$$$
