
     RDKit          3D

 66 66  0  0  0  0  0  0  0  0999 V2000
   -6.3163    2.0459    2.8246 C   0  0  0  0  0  0  0  0  0  0  0  0
   -5.6714    1.0167    2.0026 C   0  0  0  0  0  0  0  0  0  0  0  0
   -6.2461   -0.0908    1.8312 O   0  0  0  0  0  0  0  0  0  0  0  0
   -4.4008    1.2662    1.3993 N   0  0  0  0  0  0  0  0  0  0  0  0
   -3.7218    0.2975    0.5857 C   0  0  1  0  0  0  0  0  0  0  0  0
   -3.6356    0.8415   -0.8192 C   0  0  0  0  0  0  0  0  0  0  0  0
   -5.0037    1.0685   -1.3151 C   0  0  0  0  0  0  0  0  0  0  0  0
   -5.6215    2.2739   -1.1210 C   0  0  0  0  0  0  0  0  0  0  0  0
   -6.9178    2.4981   -1.5886 C   0  0  0  0  0  0  0  0  0  0  0  0
   -7.5797    1.4849   -2.2553 C   0  0  0  0  0  0  0  0  0  0  0  0
   -6.9681    0.2760   -2.4534 C   0  0  0  0  0  0  0  0  0  0  0  0
   -5.6949    0.0814   -1.9844 C   0  0  0  0  0  0  0  0  0  0  0  0
   -2.3883   -0.0193    1.1564 C   0  0  0  0  0  0  0  0  0  0  0  0
   -2.0113    0.5603    2.2285 O   0  0  0  0  0  0  0  0  0  0  0  0
   -1.4899   -0.9335    0.5867 N   0  0  0  0  0  0  0  0  0  0  0  0
   -0.1677   -1.2309    1.1747 C   0  0  2  0  0  0  0  0  0  0  0  0
    0.8920   -0.8905    0.2485 C   0  0  0  0  0  0  0  0  0  0  0  0
    0.5471   -0.4418   -0.8996 O   0  0  0  0  0  0  0  0  0  0  0  0
    2.2709   -0.9926    0.4577 N   0  0  0  0  0  0  0  0  0  0  0  0
    3.2866   -0.6155   -0.5680 C   0  0  2  0  0  0  0  0  0  0  0  0
    4.0415   -1.8501   -0.8659 C   0  0  0  0  0  0  0  0  0  0  0  0
    3.8440   -2.8938   -0.2139 O   0  0  0  0  0  0  0  0  0  0  0  0
    4.0440    0.4860    0.0968 C   0  0  0  0  0  0  0  0  0  0  0  0
    5.1265    1.1937   -0.5771 C   0  0  0  0  0  0  0  0  0  0  0  0
    6.3399    0.4676   -1.0279 C   0  0  0  0  0  0  0  0  0  0  0  0
    7.2301    1.5060   -1.6002 N   0  0  0  0  0  0  0  0  0  0  0  0
    8.4784    1.4270   -1.3341 C   0  0  0  0  0  0  0  0  0  0  0  0
    8.9503    0.3682   -0.5171 N   0  0  0  0  0  0  0  0  0  0  0  0
    9.4097    2.3854   -1.8438 N   0  0  0  0  0  0  0  0  0  0  0  0
   -0.2501   -2.6572    1.6257 C   0  0  0  0  0  0  0  0  0  0  0  0
    1.0041   -3.1840    2.2730 C   0  0  0  0  0  0  0  0  0  0  0  0
   -0.7937   -3.5793    0.5766 C   0  0  0  0  0  0  0  0  0  0  0  0
   -7.3578    1.7710    3.0342 H   0  0  0  0  0  0  0  0  0  0  0  0
   -6.3008    3.0328    2.2779 H   0  0  0  0  0  0  0  0  0  0  0  0
   -5.7133    2.2339    3.7518 H   0  0  0  0  0  0  0  0  0  0  0  0
   -3.9614    2.1858    1.5622 H   0  0  0  0  0  0  0  0  0  0  0  0
   -4.3707   -0.6178    0.5460 H   0  0  0  0  0  0  0  0  0  0  0  0
   -3.1167    0.1221   -1.4987 H   0  0  0  0  0  0  0  0  0  0  0  0
   -3.0265    1.7686   -0.8444 H   0  0  0  0  0  0  0  0  0  0  0  0
   -5.1240    3.0792   -0.6030 H   0  0  0  0  0  0  0  0  0  0  0  0
   -7.3931    3.4525   -1.4286 H   0  0  0  0  0  0  0  0  0  0  0  0
   -8.5839    1.6896   -2.6057 H   0  0  0  0  0  0  0  0  0  0  0  0
   -7.4806   -0.5036   -2.9678 H   0  0  0  0  0  0  0  0  0  0  0  0
   -5.1750   -0.8574   -2.1191 H   0  0  0  0  0  0  0  0  0  0  0  0
   -1.7876   -1.4204   -0.2996 H   0  0  0  0  0  0  0  0  0  0  0  0
   -0.0952   -0.5968    2.0757 H   0  0  0  0  0  0  0  0  0  0  0  0
    2.6227   -1.3342    1.3444 H   0  0  0  0  0  0  0  0  0  0  0  0
    2.8145   -0.2576   -1.4789 H   0  0  0  0  0  0  0  0  0  0  0  0
    4.7785   -1.9479   -1.6266 H   0  0  0  0  0  0  0  0  0  0  0  0
    4.4348    0.0626    1.0872 H   0  0  0  0  0  0  0  0  0  0  0  0
    3.2455    1.2283    0.4356 H   0  0  0  0  0  0  0  0  0  0  0  0
    5.5136    1.9749    0.1694 H   0  0  0  0  0  0  0  0  0  0  0  0
    4.7224    1.8688   -1.3931 H   0  0  0  0  0  0  0  0  0  0  0  0
    6.1687   -0.2940   -1.8284 H   0  0  0  0  0  0  0  0  0  0  0  0
    6.8883   -0.0398   -0.2165 H   0  0  0  0  0  0  0  0  0  0  0  0
    9.3244   -0.5283   -0.9050 H   0  0  0  0  0  0  0  0  0  0  0  0
    8.9114    0.5166    0.5303 H   0  0  0  0  0  0  0  0  0  0  0  0
    9.9010    2.1603   -2.7172 H   0  0  0  0  0  0  0  0  0  0  0  0
    9.5977    3.2894   -1.3589 H   0  0  0  0  0  0  0  0  0  0  0  0
   -1.0319   -2.6564    2.4468 H   0  0  0  0  0  0  0  0  0  0  0  0
    1.7578   -3.5453    1.5407 H   0  0  0  0  0  0  0  0  0  0  0  0
    1.4091   -2.4850    3.0331 H   0  0  0  0  0  0  0  0  0  0  0  0
    0.7816   -4.1139    2.8831 H   0  0  0  0  0  0  0  0  0  0  0  0
   -1.8731   -3.3398    0.4493 H   0  0  0  0  0  0  0  0  0  0  0  0
   -0.3256   -3.4515   -0.4142 H   0  0  0  0  0  0  0  0  0  0  0  0
   -0.7412   -4.6123    0.9524 H   0  0  0  0  0  0  0  0  0  0  0  0
  1  2  1  0
  2  3  2  0
  2  4  1  0
  4  5  1  0
  5  6  1  0
  6  7  1  0
  7  8  2  0
  8  9  1  0
  9 10  2  0
 10 11  1  0
 11 12  2  0
  5 13  1  0
 13 14  2  0
 13 15  1  0
 15 16  1  0
 16 17  1  0
 17 18  2  0
 17 19  1  0
 19 20  1  0
 20 21  1  0
 21 22  2  0
 20 23  1  0
 23 24  1  0
 24 25  1  0
 25 26  1  0
 26 27  2  3
 27 28  1  0
 27 29  1  0
 16 30  1  0
 30 31  1  0
 30 32  1  0
 12  7  1  0
  1 33  1  0
  1 34  1  0
  1 35  1  0
  4 36  1  0
  5 37  1  6
  6 38  1  0
  6 39  1  0
  8 40  1  0
  9 41  1  0
 10 42  1  0
 11 43  1  0
 12 44  1  0
 15 45  1  0
 16 46  1  1
 19 47  1  0
 20 48  1  6
 21 49  1  0
 23 50  1  0
 23 51  1  0
 24 52  1  0
 24 53  1  0
 25 54  1  0
 25 55  1  0
 28 56  1  0
 28 57  1  0
 29 58  1  0
 29 59  1  0
 30 60  1  0
 31 61  1  0
 31 62  1  0
 31 63  1  0
 32 64  1  0
 32 65  1  0
 32 66  1  0
M  END
$$$$
