
     RDKit          3D

 56 58  0  0  0  0  0  0  0  0999 V2000
    2.9877    1.6469    1.4557 C   0  0  2  0  0  0  0  0  0  0  0  0
    3.4690    2.9287    1.1709 O   0  0  0  0  0  0  0  0  0  0  0  0
    4.0262    0.6713    1.0865 C   0  0  0  0  0  0  0  0  0  0  0  0
    4.5034    0.6884   -0.1946 O   0  0  0  0  0  0  0  0  0  0  0  0
    5.6849   -0.4596   -0.5230 P   0  0  0  0  0  0  0  0  0  0  0  0
    6.7681    0.2070   -1.6372 O   0  0  0  0  0  0  0  0  0  0  0  0
    4.9769   -1.8547   -1.1580 O   0  0  0  0  0  0  0  0  0  0  0  0
    6.4444   -0.7549    0.7471 O   0  0  0  0  0  0  0  0  0  0  0  0
    1.5961    1.4893    0.9210 C   0  0  1  0  0  0  0  0  0  0  0  0
    0.8689    2.5114    1.5782 O   0  0  0  0  0  0  0  0  0  0  0  0
    1.4365    1.4570   -0.5352 C   0  0  1  0  0  0  0  0  0  0  0  0
    2.1927    0.3727   -1.0993 O   0  0  0  0  0  0  0  0  0  0  0  0
    0.0836    1.4931   -1.1437 C   0  0  0  0  0  0  0  0  0  0  0  0
   -0.8317    0.4512   -0.8484 N   0  0  0  0  0  0  0  0  0  0  0  0
   -1.8274    0.2401    0.0284 C   0  0  0  0  0  0  0  0  0  0  0  0
   -2.5731   -0.9045    0.1964 C   0  0  0  0  0  0  0  0  0  0  0  0
   -3.5348   -0.8034    1.1779 C   0  0  0  0  0  0  0  0  0  0  0  0
   -3.8063    0.2892    1.9659 C   0  0  0  0  0  0  0  0  0  0  0  0
   -4.8686    0.3082    3.0057 C   0  0  0  0  0  0  0  0  0  0  0  0
   -3.0273    1.4194    1.7526 C   0  0  0  0  0  0  0  0  0  0  0  0
   -3.2947    2.6252    2.5880 C   0  0  0  0  0  0  0  0  0  0  0  0
   -2.0519    1.3706    0.7853 C   0  0  0  0  0  0  0  0  0  0  0  0
   -2.3855   -2.0399   -0.5536 N   0  0  0  0  0  4  0  0  0  0  0  0
   -1.4002   -1.8608   -1.4424 C   0  0  0  0  0  0  0  0  0  0  0  0
   -1.1646   -2.9385   -2.2543 C   0  0  0  0  0  0  0  0  0  0  0  0
   -1.7810   -4.1588   -2.2702 O   0  0  0  0  0  0  0  0  0  0  0  0
   -0.2138   -2.8713   -3.1970 N   0  0  0  0  0  0  0  0  0  0  0  0
    0.5402   -1.7741   -3.3942 C   0  0  0  0  0  0  0  0  0  0  0  0
    1.4372   -1.6814   -4.2674 O   0  0  0  0  0  0  0  0  0  0  0  0
    0.3089   -0.7323   -2.6081 N   0  0  0  0  0  0  0  0  0  0  0  0
   -0.6061   -0.6572   -1.6276 C   0  0  0  0  0  0  0  0  0  0  0  0
   -3.4238   -3.2993   -0.1815 S   0  0  0  0  0  0  0  0  0  0  0  0
   -3.0894   -3.6328    1.4965 O   0  0  0  0  0  1  0  0  0  0  0  0
   -4.8940   -2.9534   -0.1361 O   0  0  0  0  0  0  0  0  0  0  0  0
   -3.1966   -4.6511   -0.7212 O   0  0  0  0  0  0  0  0  0  0  0  0
    2.8670    1.6325    2.5963 H   0  0  0  0  0  0  0  0  0  0  0  0
    2.8798    3.5654    1.6241 H   0  0  0  0  0  0  0  0  0  0  0  0
    4.9227    0.8758    1.7506 H   0  0  0  0  0  0  0  0  0  0  0  0
    3.7688   -0.3858    1.3415 H   0  0  0  0  0  0  0  0  0  0  0  0
    7.6910    0.1346   -1.3267 H   0  0  0  0  0  0  0  0  0  0  0  0
    5.6662   -2.5542   -1.1655 H   0  0  0  0  0  0  0  0  0  0  0  0
    1.2004    0.5359    1.3801 H   0  0  0  0  0  0  0  0  0  0  0  0
    1.0502    2.3335    2.5538 H   0  0  0  0  0  0  0  0  0  0  0  0
    1.9933    2.3405   -0.9510 H   0  0  0  0  0  0  0  0  0  0  0  0
    2.0668   -0.4292   -0.5120 H   0  0  0  0  0  0  0  0  0  0  0  0
    0.2372    1.5718   -2.2593 H   0  0  0  0  0  0  0  0  0  0  0  0
   -0.3701    2.4693   -0.8642 H   0  0  0  0  0  0  0  0  0  0  0  0
   -4.1752   -1.6355    1.4161 H   0  0  0  0  0  0  0  0  0  0  0  0
   -5.7534    0.8762    2.6151 H   0  0  0  0  0  0  0  0  0  0  0  0
   -4.5217    0.7117    3.9661 H   0  0  0  0  0  0  0  0  0  0  0  0
   -5.2363   -0.7343    3.1369 H   0  0  0  0  0  0  0  0  0  0  0  0
   -4.3554    2.7179    2.8614 H   0  0  0  0  0  0  0  0  0  0  0  0
   -2.9977    3.5338    2.0030 H   0  0  0  0  0  0  0  0  0  0  0  0
   -2.7057    2.6415    3.5167 H   0  0  0  0  0  0  0  0  0  0  0  0
   -1.5313    2.3025    0.6881 H   0  0  0  0  0  0  0  0  0  0  0  0
   -2.0507   -4.6451   -3.1324 H   0  0  0  0  0  0  0  0  0  0  0  0
  1  2  1  0
  1  3  1  0
  3  4  1  0
  4  5  1  0
  5  6  1  0
  5  7  1  0
  5  8  2  0
  1  9  1  0
  9 10  1  0
  9 11  1  0
 11 12  1  0
 11 13  1  0
 13 14  1  0
 14 15  1  0
 15 16  2  0
 16 17  1  0
 17 18  2  0
 18 19  1  0
 18 20  1  0
 20 21  1  0
 20 22  2  0
 16 23  1  0
 23 24  2  0
 24 25  1  0
 25 26  1  0
 25 27  2  0
 27 28  1  0
 28 29  2  0
 28 30  1  0
 30 31  2  0
 23 32  1  0
 32 33  1  0
 32 34  2  0
 32 35  2  0
 31 14  1  0
 22 15  1  0
 31 24  1  0
  1 36  1  1
  2 37  1  0
  3 38  1  0
  3 39  1  0
  6 40  1  0
  7 41  1  0
  9 42  1  1
 10 43  1  0
 11 44  1  6
 12 45  1  0
 13 46  1  0
 13 47  1  0
 17 48  1  0
 19 49  1  0
 19 50  1  0
 19 51  1  0
 21 52  1  0
 21 53  1  0
 21 54  1  0
 22 55  1  0
 26 56  1  0
M  CHG  2  23   1  33  -1
M  END
$$$$
