
     RDKit          3D

 53 57  0  0  0  0  0  0  0  0999 V2000
    8.3632   -1.6394    0.4522 C   0  0  0  0  0  0  0  0  0  0  0  0
    7.6182   -0.4657    0.7977 O   0  0  0  0  0  0  0  0  0  0  0  0
    6.2274   -0.4368    0.6147 C   0  0  0  0  0  0  0  0  0  0  0  0
    5.5672   -1.5372    0.1098 C   0  0  0  0  0  0  0  0  0  0  0  0
    4.2032   -1.5331   -0.0815 C   0  0  0  0  0  0  0  0  0  0  0  0
    3.5412   -2.5814   -0.5881 N   0  0  0  0  0  0  0  0  0  0  0  0
    2.2176   -2.5958   -0.8002 C   0  0  0  0  0  0  0  0  0  0  0  0
    1.5155   -1.4621   -0.4757 C   0  0  0  0  0  0  0  0  0  0  0  0
    2.1668   -0.3547    0.0509 C   0  0  0  0  0  0  0  0  0  0  0  0
    1.4236    0.7965    0.3664 O   0  0  0  0  0  0  0  0  0  0  0  0
    0.0353    0.7940    0.0874 C   0  0  0  0  0  0  0  0  0  0  0  0
   -0.9328    0.6535    1.0357 C   0  0  0  0  0  0  0  0  0  0  0  0
   -2.2841    0.6597    0.6680 C   0  0  0  0  0  0  0  0  0  0  0  0
   -2.6567    0.8061   -0.6513 C   0  0  0  0  0  0  0  0  0  0  0  0
   -3.9595    0.8084   -1.0259 C   0  0  0  0  0  0  0  0  0  0  0  0
   -5.0498    0.6893   -0.0574 C   0  0  0  0  0  0  0  0  0  0  0  0
   -5.0591    1.5111    0.8941 O   0  0  0  0  0  0  0  0  0  0  0  0
   -6.0865   -0.2710   -0.1221 N   0  0  0  0  0  0  0  0  0  0  0  0
   -7.1674   -0.3798    0.8172 C   0  0  0  0  0  0  0  0  0  0  0  0
   -7.8054   -1.7573    0.8949 C   0  0  0  0  0  0  0  0  0  0  0  0
   -8.5606   -0.5985    0.3484 C   0  0  0  0  0  0  0  0  0  0  0  0
   -4.3234    0.9488   -2.3767 C   0  0  0  0  0  0  0  0  0  0  0  0
   -3.3732    1.0917   -3.3637 C   0  0  0  0  0  0  0  0  0  0  0  0
   -2.0592    1.0889   -2.9621 C   0  0  0  0  0  0  0  0  0  0  0  0
   -1.6887    0.9492   -1.6298 C   0  0  0  0  0  0  0  0  0  0  0  0
   -0.3788    0.9404   -1.2399 C   0  0  0  0  0  0  0  0  0  0  0  0
    3.5026   -0.3665    0.2567 C   0  0  0  0  0  0  0  0  0  0  0  0
    4.1699    0.7256    0.7611 C   0  0  0  0  0  0  0  0  0  0  0  0
    5.5534    0.7133    0.9515 C   0  0  0  0  0  0  0  0  0  0  0  0
    6.2279    1.7922    1.4526 O   0  0  0  0  0  0  0  0  0  0  0  0
    5.6354    3.0092    1.8336 C   0  0  0  0  0  0  0  0  0  0  0  0
    8.0271   -2.4803    1.0846 H   0  0  0  0  0  0  0  0  0  0  0  0
    9.4187   -1.4155    0.5944 H   0  0  0  0  0  0  0  0  0  0  0  0
    8.0984   -1.8630   -0.5998 H   0  0  0  0  0  0  0  0  0  0  0  0
    6.0957   -2.4466   -0.1569 H   0  0  0  0  0  0  0  0  0  0  0  0
    1.7192   -3.4861   -1.2226 H   0  0  0  0  0  0  0  0  0  0  0  0
    0.4725   -1.4389   -0.6316 H   0  0  0  0  0  0  0  0  0  0  0  0
   -0.6814    0.5359    2.0753 H   0  0  0  0  0  0  0  0  0  0  0  0
   -3.0588    0.5487    1.4106 H   0  0  0  0  0  0  0  0  0  0  0  0
   -6.0645   -0.9537   -0.9217 H   0  0  0  0  0  0  0  0  0  0  0  0
   -7.0873    0.2620    1.6991 H   0  0  0  0  0  0  0  0  0  0  0  0
   -7.5312   -2.5347    0.1779 H   0  0  0  0  0  0  0  0  0  0  0  0
   -7.9787   -2.1147    1.9378 H   0  0  0  0  0  0  0  0  0  0  0  0
   -9.3923   -0.2072    0.9434 H   0  0  0  0  0  0  0  0  0  0  0  0
   -8.7685   -0.5904   -0.7517 H   0  0  0  0  0  0  0  0  0  0  0  0
   -5.3944    0.9418   -2.6385 H   0  0  0  0  0  0  0  0  0  0  0  0
   -3.6394    1.2008   -4.4198 H   0  0  0  0  0  0  0  0  0  0  0  0
   -1.2457    1.1980   -3.6740 H   0  0  0  0  0  0  0  0  0  0  0  0
    0.4050    1.0483   -1.9661 H   0  0  0  0  0  0  0  0  0  0  0  0
    3.6137    1.6164    1.0191 H   0  0  0  0  0  0  0  0  0  0  0  0
    6.3272    3.6262    2.4576 H   0  0  0  0  0  0  0  0  0  0  0  0
    5.4088    3.6635    0.9522 H   0  0  0  0  0  0  0  0  0  0  0  0
    4.6729    2.8914    2.3686 H   0  0  0  0  0  0  0  0  0  0  0  0
  1  2  1  0
  2  3  1  0
  3  4  2  0
  4  5  1  0
  5  6  2  0
  6  7  1  0
  7  8  2  0
  8  9  1  0
  9 10  1  0
 10 11  1  0
 11 12  2  0
 12 13  1  0
 13 14  2  0
 14 15  1  0
 15 16  1  0
 16 17  2  0
 16 18  1  0
 18 19  1  0
 19 20  1  0
 20 21  1  0
 15 22  2  0
 22 23  1  0
 23 24  2  0
 24 25  1  0
 25 26  2  0
  9 27  2  0
 27 28  1  0
 28 29  2  0
 29 30  1  0
 30 31  1  0
 29  3  1  0
 27  5  1  0
 26 11  1  0
 25 14  1  0
 21 19  1  0
  1 32  1  0
  1 33  1  0
  1 34  1  0
  4 35  1  0
  7 36  1  0
  8 37  1  0
 12 38  1  0
 13 39  1  0
 18 40  1  0
 19 41  1  0
 20 42  1  0
 20 43  1  0
 21 44  1  0
 21 45  1  0
 22 46  1  0
 23 47  1  0
 24 48  1  0
 26 49  1  0
 28 50  1  0
 31 51  1  0
 31 52  1  0
 31 53  1  0
M  END
$$$$
