
     RDKit          3D

 43 47  0  0  0  0  0  0  0  0999 V2000
   -1.8285   -1.3912   -4.4613 N   0  0  0  0  0  0  0  0  0  0  0  0
   -1.8936   -1.8359   -3.3953 C   0  0  0  0  0  0  0  0  0  0  0  0
   -1.9544   -2.4088   -2.0588 C   0  0  0  0  0  0  0  0  0  0  0  0
   -2.6062   -3.5632   -1.6602 C   0  0  0  0  0  0  0  0  0  0  0  0
   -2.4180   -3.7488   -0.3350 N   0  0  0  0  0  0  0  0  0  0  0  0
   -1.6594   -2.7326    0.1097 C   0  0  0  0  0  0  0  0  0  0  0  0
   -1.1897   -2.4677    1.3951 C   0  0  0  0  0  0  0  0  0  0  0  0
   -0.4155   -1.3490    1.6206 C   0  0  0  0  0  0  0  0  0  0  0  0
   -0.1329   -0.5271    0.5551 C   0  0  0  0  0  0  0  0  0  0  0  0
    0.6807    0.6771    0.7047 C   0  0  0  0  0  0  0  0  0  0  0  0
    0.1939    1.9466    0.4512 C   0  0  0  0  0  0  0  0  0  0  0  0
   -1.1435    2.3494    0.0112 C   0  0  0  0  0  0  0  0  0  0  0  0
   -2.2607    2.1045    0.8083 C   0  0  0  0  0  0  0  0  0  0  0  0
   -3.5230    2.4807    0.4009 C   0  0  0  0  0  0  0  0  0  0  0  0
   -3.7332    3.1124   -0.8072 C   0  0  0  0  0  0  0  0  0  0  0  0
   -4.9854    3.4856   -1.2135 F   0  0  0  0  0  0  0  0  0  0  0  0
   -2.6340    3.3603   -1.6051 C   0  0  0  0  0  0  0  0  0  0  0  0
   -2.9309    4.1640   -3.1348 Cl  0  0  0  0  0  0  0  0  0  0  0  0
   -1.3745    2.9817   -1.1922 C   0  0  0  0  0  0  0  0  0  0  0  0
    1.2309    2.7681    0.6995 N   0  0  0  0  0  0  0  0  0  0  0  0
    2.3059    2.0612    1.0859 C   0  0  0  0  0  0  0  0  0  0  0  0
    1.9616    0.7631    1.0883 N   0  0  0  0  0  0  0  0  0  0  0  0
    2.8268   -0.3220    1.4415 C   0  0  0  0  0  0  0  0  0  0  0  0
    2.8680   -1.4251    0.3891 C   0  0  0  0  0  0  0  0  0  0  0  0
    4.3707   -1.4558    0.5530 C   0  0  0  0  0  0  0  0  0  0  0  0
    4.7316   -2.3841    1.4909 F   0  0  0  0  0  0  0  0  0  0  0  0
    5.0317   -1.5508   -0.6576 F   0  0  0  0  0  0  0  0  0  0  0  0
    4.2923   -0.0467    1.1152 C   0  0  0  0  0  0  0  0  0  0  0  0
   -0.6292   -0.8397   -0.7112 C   0  0  0  0  0  0  0  0  0  0  0  0
   -1.3822   -1.9273   -0.9318 N   0  0  0  0  0  0  0  0  0  0  0  0
   -3.1701   -4.2015   -2.3175 H   0  0  0  0  0  0  0  0  0  0  0  0
   -1.4138   -3.1165    2.2298 H   0  0  0  0  0  0  0  0  0  0  0  0
   -0.0257   -1.1001    2.6064 H   0  0  0  0  0  0  0  0  0  0  0  0
   -2.1031    1.6072    1.7615 H   0  0  0  0  0  0  0  0  0  0  0  0
   -4.3498    2.2606    1.0679 H   0  0  0  0  0  0  0  0  0  0  0  0
   -0.5169    3.1875   -1.8396 H   0  0  0  0  0  0  0  0  0  0  0  0
    3.2673    2.4840    1.3443 H   0  0  0  0  0  0  0  0  0  0  0  0
    2.7507   -0.6951    2.4884 H   0  0  0  0  0  0  0  0  0  0  0  0
    2.5089   -1.0158   -0.5770 H   0  0  0  0  0  0  0  0  0  0  0  0
    2.3346   -2.3045    0.7730 H   0  0  0  0  0  0  0  0  0  0  0  0
    4.9326    0.1175    1.9906 H   0  0  0  0  0  0  0  0  0  0  0  0
    4.4056    0.7029    0.2864 H   0  0  0  0  0  0  0  0  0  0  0  0
   -0.4193   -0.2051   -1.5702 H   0  0  0  0  0  0  0  0  0  0  0  0
  1  2  3  0
  2  3  1  0
  3  4  2  0
  4  5  1  0
  5  6  2  0
  6  7  1  0
  7  8  2  0
  8  9  1  0
  9 10  1  0
 10 11  2  0
 11 12  1  0
 12 13  2  0
 13 14  1  0
 14 15  2  0
 15 16  1  0
 15 17  1  0
 17 18  1  0
 17 19  2  0
 11 20  1  0
 20 21  2  0
 21 22  1  0
 22 23  1  0
 23 24  1  0
 24 25  1  0
 25 26  1  0
 25 27  1  0
 25 28  1  0
  9 29  2  0
 29 30  1  0
 30  3  1  0
 30  6  1  0
 22 10  1  0
 28 23  1  0
 19 12  1  0
  4 31  1  0
  7 32  1  0
  8 33  1  0
 13 34  1  0
 14 35  1  0
 19 36  1  0
 21 37  1  0
 23 38  1  0
 24 39  1  0
 24 40  1  0
 28 41  1  0
 28 42  1  0
 29 43  1  0
M  END
$$$$
