
     RDKit          3D

 59 61  0  0  0  0  0  0  0  0999 V2000
    0.0785   -1.3210   -0.7724 C   0  0  2  0  0  0  0  0  0  0  0  0
    0.7271   -1.7679   -2.0902 C   0  0  0  0  0  0  0  0  0  0  0  0
    0.2686   -0.7083   -3.0971 C   0  0  0  0  0  0  0  0  0  0  0  0
   -1.1937   -0.5681   -2.6550 C   0  0  0  0  0  0  0  0  0  0  0  0
   -1.0431   -0.5196   -1.2113 N   0  0  0  0  0  0  0  0  0  0  0  0
   -1.9852    0.2561   -0.4878 C   0  0  0  0  0  0  0  0  0  0  0  0
   -2.6294    0.6029   -1.4968 O   0  0  0  0  0  0  0  0  0  0  0  0
   -2.1966    0.5824    0.9242 C   0  0  0  0  0  0  0  0  0  0  0  0
   -3.3669    1.4341    1.1210 N   0  0  0  0  0  0  0  0  0  0  0  0
   -4.5879    0.6954    0.8482 C   0  0  0  0  0  0  0  0  0  0  0  0
   -5.7865    1.5736    1.0123 C   0  0  0  0  0  0  0  0  0  0  0  0
   -6.9812    0.9714    1.6435 C   0  0  0  0  0  0  0  0  0  0  0  0
   -7.0661   -0.4876    1.1726 C   0  0  0  0  0  0  0  0  0  0  0  0
   -5.9360   -1.1493    1.9402 C   0  0  0  0  0  0  0  0  0  0  0  0
   -4.6098   -0.5590    1.6618 C   0  0  0  0  0  0  0  0  0  0  0  0
    1.0399   -0.6289    0.0859 C   0  0  0  0  0  0  0  0  0  0  0  0
    1.1793    0.5530    0.4899 O   0  0  0  0  0  0  0  0  0  0  0  0
    2.0803   -1.4885    0.6020 N   0  0  0  0  0  0  0  0  0  0  0  0
    3.1445   -1.0408    1.4740 C   0  0  0  0  0  0  0  0  0  0  0  0
    4.2255   -0.3136    0.8084 C   0  0  0  0  0  0  0  0  0  0  0  0
    5.2345   -1.1615    0.3302 C   0  0  0  0  0  0  0  0  0  0  0  0
    6.3643   -0.6902   -0.3295 C   0  0  0  0  0  0  0  0  0  0  0  0
    6.5202    0.6618   -0.5333 C   0  0  0  0  0  0  0  0  0  0  0  0
    5.5332    1.5033   -0.0669 C   0  0  0  0  0  0  0  0  0  0  0  0
    4.4157    1.0327    0.5862 C   0  0  0  0  0  0  0  0  0  0  0  0
    7.7045    1.1562   -1.2241 C   0  0  0  0  0  0  0  0  0  0  0  0
    8.2711    2.4453   -0.9343 N   0  0  0  0  0  0  0  0  0  0  0  0
    8.1969    0.3407   -2.1113 N   0  0  0  0  0  0  0  0  0  0  0  0
   -0.3415   -2.2451   -0.2885 H   0  0  0  0  0  0  0  0  0  0  0  0
    0.2972   -2.7271   -2.4322 H   0  0  0  0  0  0  0  0  0  0  0  0
    1.8369   -1.8057   -2.0138 H   0  0  0  0  0  0  0  0  0  0  0  0
    0.3485   -1.0336   -4.1315 H   0  0  0  0  0  0  0  0  0  0  0  0
    0.7399    0.2702   -2.8766 H   0  0  0  0  0  0  0  0  0  0  0  0
   -1.7448   -1.5210   -2.8910 H   0  0  0  0  0  0  0  0  0  0  0  0
   -1.6598    0.3085   -3.1020 H   0  0  0  0  0  0  0  0  0  0  0  0
   -1.3365    1.2068    1.2731 H   0  0  0  0  0  0  0  0  0  0  0  0
   -2.2237   -0.2934    1.5997 H   0  0  0  0  0  0  0  0  0  0  0  0
   -3.2797    2.2838    0.5319 H   0  0  0  0  0  0  0  0  0  0  0  0
   -4.5392    0.4041   -0.2190 H   0  0  0  0  0  0  0  0  0  0  0  0
   -5.4822    2.4697    1.6015 H   0  0  0  0  0  0  0  0  0  0  0  0
   -6.0938    2.0079    0.0157 H   0  0  0  0  0  0  0  0  0  0  0  0
   -6.9809    0.9541    2.7565 H   0  0  0  0  0  0  0  0  0  0  0  0
   -7.8975    1.4458    1.2360 H   0  0  0  0  0  0  0  0  0  0  0  0
   -7.9964   -0.9273    1.5443 H   0  0  0  0  0  0  0  0  0  0  0  0
   -6.8999   -0.5392    0.0929 H   0  0  0  0  0  0  0  0  0  0  0  0
   -5.9641   -2.2287    1.7310 H   0  0  0  0  0  0  0  0  0  0  0  0
   -6.2202   -1.0309    3.0211 H   0  0  0  0  0  0  0  0  0  0  0  0
   -4.1218   -0.3146    2.6447 H   0  0  0  0  0  0  0  0  0  0  0  0
   -3.9552   -1.3406    1.2171 H   0  0  0  0  0  0  0  0  0  0  0  0
    2.0982   -2.5185    0.3464 H   0  0  0  0  0  0  0  0  0  0  0  0
    3.5234   -1.9160    2.0392 H   0  0  0  0  0  0  0  0  0  0  0  0
    2.6535   -0.3575    2.2083 H   0  0  0  0  0  0  0  0  0  0  0  0
    5.2313   -2.2457    0.4273 H   0  0  0  0  0  0  0  0  0  0  0  0
    7.1431   -1.3369   -0.6992 H   0  0  0  0  0  0  0  0  0  0  0  0
    5.6232    2.5797   -0.2121 H   0  0  0  0  0  0  0  0  0  0  0  0
    3.6274    1.6429    0.9673 H   0  0  0  0  0  0  0  0  0  0  0  0
    8.6074    2.2907    0.0586 H   0  0  0  0  0  0  0  0  0  0  0  0
    8.3480    3.3155   -1.5155 H   0  0  0  0  0  0  0  0  0  0  0  0
    9.0569    0.6845   -2.6220 H   0  0  0  0  0  0  0  0  0  0  0  0
  1  2  1  0
  2  3  1  0
  3  4  1  0
  4  5  1  0
  5  6  1  0
  6  7  2  0
  6  8  1  0
  8  9  1  0
  9 10  1  0
 10 11  1  0
 11 12  1  0
 12 13  1  0
 13 14  1  0
 14 15  1  0
  1 16  1  0
 16 17  2  0
 16 18  1  0
 18 19  1  0
 19 20  1  0
 20 21  2  0
 21 22  1  0
 22 23  2  0
 23 24  1  0
 24 25  2  0
 23 26  1  0
 26 27  1  0
 26 28  2  3
  5  1  1  0
 15 10  1  0
 25 20  1  0
  1 29  1  1
  2 30  1  0
  2 31  1  0
  3 32  1  0
  3 33  1  0
  4 34  1  0
  4 35  1  0
  8 36  1  0
  8 37  1  0
  9 38  1  0
 10 39  1  0
 11 40  1  0
 11 41  1  0
 12 42  1  0
 12 43  1  0
 13 44  1  0
 13 45  1  0
 14 46  1  0
 14 47  1  0
 15 48  1  0
 15 49  1  0
 18 50  1  0
 19 51  1  0
 19 52  1  0
 21 53  1  0
 22 54  1  0
 24 55  1  0
 25 56  1  0
 27 57  1  0
 27 58  1  0
 28 59  1  0
M  END
$$$$
