
     RDKit          3D

 52 55  0  0  0  0  0  0  0  0999 V2000
   -1.3639    0.4903   -1.7753 C   0  0  0  0  0  0  0  0  0  0  0  0
   -1.5572   -0.1493   -0.4602 C   0  0  0  0  0  0  0  0  0  0  0  0
   -2.6724   -0.8319   -0.0457 C   0  0  0  0  0  0  0  0  0  0  0  0
   -3.8190   -1.0382   -0.8015 O   0  0  0  0  0  0  0  0  0  0  0  0
   -4.8752   -0.1070   -0.7516 C   0  0  0  0  0  0  0  0  0  0  0  0
   -4.7957    1.0202    0.0414 C   0  0  0  0  0  0  0  0  0  0  0  0
   -5.8190    1.9404    0.1017 C   0  0  0  0  0  0  0  0  0  0  0  0
   -6.9736    1.7552   -0.6444 C   0  0  0  0  0  0  0  0  0  0  0  0
   -8.2836    2.9256   -0.5724 Cl  0  0  0  0  0  0  0  0  0  0  0  0
   -7.0461    0.6352   -1.4288 C   0  0  0  0  0  0  0  0  0  0  0  0
   -6.0110   -0.2879   -1.4847 C   0  0  0  0  0  0  0  0  0  0  0  0
   -2.4089   -1.2542    1.2482 C   0  0  0  0  0  0  0  0  0  0  0  0
   -3.1789   -1.9743    2.1277 C   0  0  0  0  0  0  0  0  0  0  0  0
   -2.6830   -2.2723    3.3781 C   0  0  0  0  0  0  0  0  0  0  0  0
   -1.4094   -1.8113    3.6645 C   0  0  0  0  0  0  0  0  0  0  0  0
   -0.6709   -1.1064    2.7870 N   0  0  0  0  0  0  0  0  0  0  0  0
   -1.1422   -0.8092    1.5653 C   0  0  0  0  0  0  0  0  0  0  0  0
   -0.6139   -0.1259    0.5103 N   0  0  0  0  0  0  0  0  0  0  0  0
    0.6865    0.4924    0.4546 C   0  0  0  0  0  0  0  0  0  0  0  0
    1.7499   -0.3630   -0.0369 C   0  0  0  0  0  0  0  0  0  0  0  0
    3.0410    0.1433   -0.1297 C   0  0  0  0  0  0  0  0  0  0  0  0
    4.0916   -0.6072   -0.5846 C   0  0  0  0  0  0  0  0  0  0  0  0
    5.3859   -0.1722   -0.7013 O   0  0  0  0  0  0  0  0  0  0  0  0
    5.8099    1.1014   -0.3705 C   0  0  1  0  0  0  0  0  0  0  0  0
    6.8617    0.9317    0.7415 C   0  0  0  0  0  0  0  0  0  0  0  0
    6.4619    1.7979   -1.5288 C   0  0  0  0  0  0  0  0  0  0  0  0
    6.5778    1.2433   -2.6306 O   0  0  0  0  0  0  0  0  0  0  0  0
    6.9288    3.0735   -1.3325 O   0  0  0  0  0  0  0  0  0  0  0  0
    3.8319   -1.9200   -0.9610 C   0  0  0  0  0  0  0  0  0  0  0  0
    2.5657   -2.4479   -0.8802 C   0  0  0  0  0  0  0  0  0  0  0  0
    1.5130   -1.6563   -0.4116 C   0  0  0  0  0  0  0  0  0  0  0  0
    0.2635   -2.1589   -0.3258 F   0  0  0  0  0  0  0  0  0  0  0  0
   -0.9190   -0.2828   -2.4551 H   0  0  0  0  0  0  0  0  0  0  0  0
   -0.6515    1.3386   -1.7498 H   0  0  0  0  0  0  0  0  0  0  0  0
   -2.3356    0.7717   -2.2246 H   0  0  0  0  0  0  0  0  0  0  0  0
   -3.9140    1.2199    0.6499 H   0  0  0  0  0  0  0  0  0  0  0  0
   -5.7709    2.8262    0.7171 H   0  0  0  0  0  0  0  0  0  0  0  0
   -7.9367    0.4778   -2.0141 H   0  0  0  0  0  0  0  0  0  0  0  0
   -6.0926   -1.1563   -2.1066 H   0  0  0  0  0  0  0  0  0  0  0  0
   -4.1619   -2.2979    1.8297 H   0  0  0  0  0  0  0  0  0  0  0  0
   -3.2475   -2.8348    4.1054 H   0  0  0  0  0  0  0  0  0  0  0  0
   -1.0129   -2.0471    4.6584 H   0  0  0  0  0  0  0  0  0  0  0  0
    0.9896    0.8463    1.4844 H   0  0  0  0  0  0  0  0  0  0  0  0
    0.6848    1.4273   -0.1574 H   0  0  0  0  0  0  0  0  0  0  0  0
    3.2254    1.1673    0.1675 H   0  0  0  0  0  0  0  0  0  0  0  0
    5.0588    1.8033    0.0085 H   0  0  0  0  0  0  0  0  0  0  0  0
    7.0892    1.9145    1.1763 H   0  0  0  0  0  0  0  0  0  0  0  0
    6.4250    0.2130    1.4604 H   0  0  0  0  0  0  0  0  0  0  0  0
    7.7567    0.4659    0.2566 H   0  0  0  0  0  0  0  0  0  0  0  0
    7.2901    3.6695   -2.0658 H   0  0  0  0  0  0  0  0  0  0  0  0
    4.6711   -2.5033   -1.3190 H   0  0  0  0  0  0  0  0  0  0  0  0
    2.4065   -3.4757   -1.1838 H   0  0  0  0  0  0  0  0  0  0  0  0
  1  2  1  0
  2  3  2  0
  3  4  1  0
  4  5  1  0
  5  6  2  0
  6  7  1  0
  7  8  2  0
  8  9  1  0
  8 10  1  0
 10 11  2  0
  3 12  1  0
 12 13  2  0
 13 14  1  0
 14 15  2  0
 15 16  1  0
 16 17  2  0
 17 18  1  0
 18 19  1  0
 19 20  1  0
 20 21  2  0
 21 22  1  0
 22 23  1  0
 23 24  1  0
 24 25  1  0
 24 26  1  0
 26 27  2  0
 26 28  1  0
 22 29  2  0
 29 30  1  0
 30 31  2  0
 31 32  1  0
 18  2  1  0
 31 20  1  0
 11  5  1  0
 17 12  1  0
  1 33  1  0
  1 34  1  0
  1 35  1  0
  6 36  1  0
  7 37  1  0
 10 38  1  0
 11 39  1  0
 13 40  1  0
 14 41  1  0
 15 42  1  0
 19 43  1  0
 19 44  1  0
 21 45  1  0
 24 46  1  1
 25 47  1  0
 25 48  1  0
 25 49  1  0
 28 50  1  0
 29 51  1  0
 30 52  1  0
M  END
$$$$
