
     RDKit          3D

 53 52  0  0  0  0  0  0  0  0999 V2000
   -2.9929   -0.5559    0.5303 C   0  0  1  0  0  0  0  0  0  0  0  0
   -2.1544    0.4719    0.2001 O   0  0  0  0  0  0  0  0  0  0  0  0
   -4.0001   -0.6540   -0.5873 C   0  0  0  0  0  0  0  0  0  0  0  0
   -4.7427    0.6462   -0.7041 C   0  0  0  0  0  0  0  0  0  0  0  0
   -5.4592    0.9384    0.5750 C   0  0  0  0  0  0  0  0  0  0  0  0
   -6.2146    2.2668    0.3849 C   0  0  0  0  0  0  0  0  0  0  0  0
   -7.1830    2.1107   -0.7443 C   0  0  0  0  0  0  0  0  0  0  0  0
   -2.3312   -1.8837    0.5720 C   0  0  0  0  0  0  0  0  0  0  0  0
   -1.0549   -2.0560    0.7533 C   0  0  0  0  0  0  0  0  0  0  0  0
   -0.5261   -3.4019    0.7745 C   0  0  0  0  0  0  0  0  0  0  0  0
    0.7451   -3.7163    0.9494 C   0  0  0  0  0  0  0  0  0  0  0  0
    1.7862   -2.6764    1.1480 C   0  0  0  0  0  0  0  0  0  0  0  0
    2.7932   -2.8005    0.0458 C   0  0  0  0  0  0  0  0  0  0  0  0
    3.9114   -1.8021    0.1319 C   0  0  0  0  0  0  0  0  0  0  0  0
    3.4130   -0.3769    0.0692 C   0  0  0  0  0  0  0  0  0  0  0  0
    4.6459    0.5065    0.1625 C   0  0  0  0  0  0  0  0  0  0  0  0
    4.2782    1.9639    0.1111 C   0  0  0  0  0  0  0  0  0  0  0  0
    5.5076    2.8067    0.2062 C   0  0  0  0  0  0  0  0  0  0  0  0
    6.4662    2.5665   -0.8906 C   0  0  0  0  0  0  0  0  0  0  0  0
    7.6015    3.3653   -0.7607 O   0  0  0  0  0  0  0  0  0  0  0  0
    6.5074    1.8195   -1.9097 O   0  0  0  0  0  0  0  0  0  0  0  0
   -3.4876   -0.4400    1.5098 H   0  0  0  0  0  0  0  0  0  0  0  0
   -2.3025    1.3238    0.6486 H   0  0  0  0  0  0  0  0  0  0  0  0
   -3.3933   -0.8472   -1.5228 H   0  0  0  0  0  0  0  0  0  0  0  0
   -4.6840   -1.5099   -0.3942 H   0  0  0  0  0  0  0  0  0  0  0  0
   -5.4610    0.5689   -1.5556 H   0  0  0  0  0  0  0  0  0  0  0  0
   -4.0593    1.4808   -0.9691 H   0  0  0  0  0  0  0  0  0  0  0  0
   -6.1726    0.1732    0.8772 H   0  0  0  0  0  0  0  0  0  0  0  0
   -4.7227    1.0968    1.3900 H   0  0  0  0  0  0  0  0  0  0  0  0
   -6.7368    2.4782    1.3252 H   0  0  0  0  0  0  0  0  0  0  0  0
   -5.4619    3.0532    0.0969 H   0  0  0  0  0  0  0  0  0  0  0  0
   -7.4079    1.0480   -0.9621 H   0  0  0  0  0  0  0  0  0  0  0  0
   -8.1505    2.5943   -0.4267 H   0  0  0  0  0  0  0  0  0  0  0  0
   -6.7887    2.5927   -1.6697 H   0  0  0  0  0  0  0  0  0  0  0  0
   -2.9737   -2.7720    0.4404 H   0  0  0  0  0  0  0  0  0  0  0  0
   -0.5226   -1.1443    0.8703 H   0  0  0  0  0  0  0  0  0  0  0  0
   -1.1413   -4.2561    0.6469 H   0  0  0  0  0  0  0  0  0  0  0  0
    1.1357   -4.7214    0.9644 H   0  0  0  0  0  0  0  0  0  0  0  0
    2.2940   -2.8287    2.1389 H   0  0  0  0  0  0  0  0  0  0  0  0
    1.4047   -1.6538    1.1724 H   0  0  0  0  0  0  0  0  0  0  0  0
    3.2255   -3.8231    0.0193 H   0  0  0  0  0  0  0  0  0  0  0  0
    2.3133   -2.6688   -0.9501 H   0  0  0  0  0  0  0  0  0  0  0  0
    4.6118   -1.9488   -0.7345 H   0  0  0  0  0  0  0  0  0  0  0  0
    4.5047   -1.9955    1.0429 H   0  0  0  0  0  0  0  0  0  0  0  0
    2.7511   -0.1622    0.9385 H   0  0  0  0  0  0  0  0  0  0  0  0
    2.8934   -0.1614   -0.8845 H   0  0  0  0  0  0  0  0  0  0  0  0
    5.1423    0.3197    1.1394 H   0  0  0  0  0  0  0  0  0  0  0  0
    5.2955    0.2676   -0.6792 H   0  0  0  0  0  0  0  0  0  0  0  0
    3.8014    2.1791   -0.8780 H   0  0  0  0  0  0  0  0  0  0  0  0
    3.5208    2.2240    0.8664 H   0  0  0  0  0  0  0  0  0  0  0  0
    5.2629    3.8940    0.2010 H   0  0  0  0  0  0  0  0  0  0  0  0
    6.0495    2.6108    1.1691 H   0  0  0  0  0  0  0  0  0  0  0  0
    8.2634    3.4898   -1.5238 H   0  0  0  0  0  0  0  0  0  0  0  0
  1  2  1  0
  1  3  1  0
  3  4  1  0
  4  5  1  0
  5  6  1  0
  6  7  1  0
  1  8  1  0
  8  9  2  0
  9 10  1  0
 10 11  2  0
 11 12  1  0
 12 13  1  0
 13 14  1  0
 14 15  1  0
 15 16  1  0
 16 17  1  0
 17 18  1  0
 18 19  1  0
 19 20  1  0
 19 21  2  0
  1 22  1  1
  2 23  1  0
  3 24  1  0
  3 25  1  0
  4 26  1  0
  4 27  1  0
  5 28  1  0
  5 29  1  0
  6 30  1  0
  6 31  1  0
  7 32  1  0
  7 33  1  0
  7 34  1  0
  8 35  1  0
  9 36  1  0
 10 37  1  0
 11 38  1  0
 12 39  1  0
 12 40  1  0
 13 41  1  0
 13 42  1  0
 14 43  1  0
 14 44  1  0
 15 45  1  0
 15 46  1  0
 16 47  1  0
 16 48  1  0
 17 49  1  0
 17 50  1  0
 18 51  1  0
 18 52  1  0
 20 53  1  0
M  END
$$$$
