
     RDKit          3D

 58 61  0  0  0  0  0  0  0  0999 V2000
    2.9156   -4.0772    1.2150 C   0  0  0  0  0  0  0  0  0  0  0  0
    3.5204   -2.7417    0.8078 C   0  0  0  0  0  0  0  0  0  0  0  0
    3.8656   -2.8277   -0.6429 C   0  0  0  0  0  0  0  0  0  0  0  0
    4.4794   -1.5613   -1.1834 C   0  0  0  0  0  0  0  0  0  0  0  0
    3.5412   -0.3961   -1.0325 C   0  0  0  0  0  0  0  0  0  0  0  0
    3.4499    0.4431    0.0125 N   0  0  0  0  0  0  0  0  0  0  0  0
    2.4705    1.3573   -0.2588 C   0  0  0  0  0  0  0  0  0  0  0  0
    2.1155    2.4497    0.6694 C   0  0  0  0  0  0  0  0  0  0  0  0
    1.0752    2.1016    1.6777 C   0  0  0  0  0  0  0  0  0  0  0  0
    0.8529    3.3634    2.5237 C   0  0  0  0  0  0  0  0  0  0  0  0
    2.2064    3.6790    3.1586 C   0  0  0  0  0  0  0  0  0  0  0  0
    1.9614    1.0936   -1.4497 N   0  0  0  0  0  0  0  0  0  0  0  0
    0.9224    1.7357   -2.2228 C   0  0  0  0  0  0  0  0  0  0  0  0
   -0.4066    1.1749   -1.9935 C   0  0  0  0  0  0  0  0  0  0  0  0
   -0.8150    0.0408   -2.6647 C   0  0  0  0  0  0  0  0  0  0  0  0
   -2.0622   -0.4779   -2.4640 C   0  0  0  0  0  0  0  0  0  0  0  0
   -2.9848    0.0959   -1.5838 C   0  0  0  0  0  0  0  0  0  0  0  0
   -4.2584   -0.4604   -1.3992 N   0  0  0  0  0  0  0  0  0  0  0  0
   -5.2055   -0.5983   -2.3522 C   0  0  0  0  0  0  0  0  0  0  0  0
   -6.3411   -1.1835   -1.8356 C   0  0  0  0  0  0  0  0  0  0  0  0
   -6.0791   -1.4145   -0.5083 C   0  0  0  0  0  0  0  0  0  0  0  0
   -4.7980   -0.9607   -0.2754 C   0  0  0  0  0  0  0  0  0  0  0  0
   -4.1402   -1.0206    1.0015 C   0  0  0  0  0  0  0  0  0  0  0  0
   -2.9107   -0.6040    1.3000 N   0  0  0  0  0  0  0  0  0  0  0  0
   -2.6618   -0.8254    2.5684 N   0  0  0  0  0  0  0  0  0  0  0  0
   -3.7113   -1.3842    3.1158 N   0  0  0  0  0  0  0  0  0  0  0  0
   -4.6233   -1.5102    2.1714 N   0  0  0  0  0  0  0  0  0  0  0  0
   -2.5325    1.2236   -0.9387 C   0  0  0  0  0  0  0  0  0  0  0  0
   -1.2796    1.7565   -1.1312 C   0  0  0  0  0  0  0  0  0  0  0  0
    2.6209    0.0190   -1.9179 N   0  0  0  0  0  0  0  0  0  0  0  0
    3.3133   -4.8806    0.5307 H   0  0  0  0  0  0  0  0  0  0  0  0
    3.2338   -4.3866    2.2304 H   0  0  0  0  0  0  0  0  0  0  0  0
    1.8134   -4.0917    1.0841 H   0  0  0  0  0  0  0  0  0  0  0  0
    2.7381   -1.9787    1.0214 H   0  0  0  0  0  0  0  0  0  0  0  0
    4.4171   -2.5580    1.4304 H   0  0  0  0  0  0  0  0  0  0  0  0
    4.6210   -3.6311   -0.7633 H   0  0  0  0  0  0  0  0  0  0  0  0
    2.9895   -3.1232   -1.2314 H   0  0  0  0  0  0  0  0  0  0  0  0
    5.4589   -1.3609   -0.7073 H   0  0  0  0  0  0  0  0  0  0  0  0
    4.6739   -1.7071   -2.2660 H   0  0  0  0  0  0  0  0  0  0  0  0
    3.0233    2.7842    1.2356 H   0  0  0  0  0  0  0  0  0  0  0  0
    1.8405    3.3382    0.0510 H   0  0  0  0  0  0  0  0  0  0  0  0
    1.4878    1.3587    2.4282 H   0  0  0  0  0  0  0  0  0  0  0  0
    0.1589    1.6538    1.3170 H   0  0  0  0  0  0  0  0  0  0  0  0
    0.0669    3.2091    3.2808 H   0  0  0  0  0  0  0  0  0  0  0  0
    0.6232    4.1947    1.8290 H   0  0  0  0  0  0  0  0  0  0  0  0
    2.0978    4.1002    4.1746 H   0  0  0  0  0  0  0  0  0  0  0  0
    2.8056    4.3600    2.5204 H   0  0  0  0  0  0  0  0  0  0  0  0
    2.7996    2.7458    3.2725 H   0  0  0  0  0  0  0  0  0  0  0  0
    0.9297    2.8347   -2.0625 H   0  0  0  0  0  0  0  0  0  0  0  0
    1.1430    1.6083   -3.3159 H   0  0  0  0  0  0  0  0  0  0  0  0
   -0.1090   -0.4165   -3.3522 H   0  0  0  0  0  0  0  0  0  0  0  0
   -2.3363   -1.3715   -3.0158 H   0  0  0  0  0  0  0  0  0  0  0  0
   -5.1412   -0.3061   -3.4053 H   0  0  0  0  0  0  0  0  0  0  0  0
   -7.2730   -1.4342   -2.3186 H   0  0  0  0  0  0  0  0  0  0  0  0
   -6.7748   -1.8732    0.2041 H   0  0  0  0  0  0  0  0  0  0  0  0
   -5.5914   -1.9267    2.2858 H   0  0  0  0  0  0  0  0  0  0  0  0
   -3.1894    1.7079   -0.2541 H   0  0  0  0  0  0  0  0  0  0  0  0
   -1.0071    2.6601   -0.5710 H   0  0  0  0  0  0  0  0  0  0  0  0
  1  2  1  0
  2  3  1  0
  3  4  1  0
  4  5  1  0
  5  6  1  0
  6  7  2  0
  7  8  1  0
  8  9  1  0
  9 10  1  0
 10 11  1  0
  7 12  1  0
 12 13  1  0
 13 14  1  0
 14 15  2  0
 15 16  1  0
 16 17  2  0
 17 18  1  0
 18 19  1  0
 19 20  2  0
 20 21  1  0
 21 22  2  0
 22 23  1  0
 23 24  2  0
 24 25  1  0
 25 26  2  0
 26 27  1  0
 17 28  1  0
 28 29  2  0
 12 30  1  0
 30  5  2  0
 29 14  1  0
 22 18  1  0
 27 23  1  0
  1 31  1  0
  1 32  1  0
  1 33  1  0
  2 34  1  0
  2 35  1  0
  3 36  1  0
  3 37  1  0
  4 38  1  0
  4 39  1  0
  8 40  1  0
  8 41  1  0
  9 42  1  0
  9 43  1  0
 10 44  1  0
 10 45  1  0
 11 46  1  0
 11 47  1  0
 11 48  1  0
 13 49  1  0
 13 50  1  0
 15 51  1  0
 16 52  1  0
 19 53  1  0
 20 54  1  0
 21 55  1  0
 27 56  1  0
 28 57  1  0
 29 58  1  0
M  END
$$$$
