
     RDKit          3D

 42 45  0  0  0  0  0  0  0  0999 V2000
    4.9944   -0.7365   -1.0726 C   0  0  0  0  0  0  0  0  0  0  0  0
    3.6461   -0.4713   -0.6781 N   0  0  0  0  0  0  0  0  0  0  0  0
    3.2491   -1.0606    0.5573 C   0  0  0  0  0  0  0  0  0  0  0  0
    2.0172   -0.3888    1.0780 C   0  0  0  0  0  0  0  0  0  0  0  0
    1.2019    0.2788    0.1030 N   0  0  0  0  0  0  0  0  0  0  0  0
   -0.2327    0.2488    0.1020 C   0  0  0  0  0  0  0  0  0  0  0  0
   -0.8216    1.2721    0.6772 N   0  0  0  0  0  0  0  0  0  0  0  0
   -2.1878    1.5951    0.8721 C   0  0  0  0  0  0  0  0  0  0  0  0
   -2.3953    2.8900    1.3371 C   0  0  0  0  0  0  0  0  0  0  0  0
   -3.6504    3.4012    1.5942 C   0  0  0  0  0  0  0  0  0  0  0  0
   -3.8756    5.0467    2.1827 Cl  0  0  0  0  0  0  0  0  0  0  0  0
   -4.7332    2.5777    1.3747 C   0  0  0  0  0  0  0  0  0  0  0  0
   -4.5366    1.2820    0.9100 C   0  0  0  0  0  0  0  0  0  0  0  0
   -3.2795    0.7850    0.6577 C   0  0  0  0  0  0  0  0  0  0  0  0
   -3.2674   -0.5579    0.1857 N   0  0  0  0  0  0  0  0  0  0  0  0
   -2.2093   -1.2415   -0.4725 C   0  0  0  0  0  0  0  0  0  0  0  0
   -2.6174   -2.3734   -1.1302 C   0  0  0  0  0  0  0  0  0  0  0  0
   -1.7421   -3.1652   -1.8282 C   0  0  0  0  0  0  0  0  0  0  0  0
   -0.3976   -2.8267   -1.8823 C   0  0  0  0  0  0  0  0  0  0  0  0
    0.0450   -1.6850   -1.2253 C   0  0  0  0  0  0  0  0  0  0  0  0
   -0.8518   -0.9050   -0.5304 C   0  0  0  0  0  0  0  0  0  0  0  0
    1.8526    1.0475   -0.9272 C   0  0  0  0  0  0  0  0  0  0  0  0
    3.3513    0.9263   -0.6758 C   0  0  0  0  0  0  0  0  0  0  0  0
    5.6888   -0.4595   -0.2677 H   0  0  0  0  0  0  0  0  0  0  0  0
    5.1264   -1.7926   -1.4053 H   0  0  0  0  0  0  0  0  0  0  0  0
    5.2254   -0.0357   -1.9278 H   0  0  0  0  0  0  0  0  0  0  0  0
    2.9419   -2.1232    0.3163 H   0  0  0  0  0  0  0  0  0  0  0  0
    4.0687   -1.0957    1.3120 H   0  0  0  0  0  0  0  0  0  0  0  0
    2.3874    0.4353    1.7661 H   0  0  0  0  0  0  0  0  0  0  0  0
    1.4212   -1.0489    1.7502 H   0  0  0  0  0  0  0  0  0  0  0  0
   -1.5563    3.5424    1.5123 H   0  0  0  0  0  0  0  0  0  0  0  0
   -5.7172    2.9439    1.5642 H   0  0  0  0  0  0  0  0  0  0  0  0
   -5.3721    0.6102    0.7279 H   0  0  0  0  0  0  0  0  0  0  0  0
   -4.1405   -1.0998    0.3425 H   0  0  0  0  0  0  0  0  0  0  0  0
   -3.6751   -2.6476   -1.0927 H   0  0  0  0  0  0  0  0  0  0  0  0
   -2.0415   -4.0567   -2.3506 H   0  0  0  0  0  0  0  0  0  0  0  0
    0.3001   -3.4394   -2.4268 H   0  0  0  0  0  0  0  0  0  0  0  0
    1.0894   -1.4224   -1.2698 H   0  0  0  0  0  0  0  0  0  0  0  0
    1.5739    0.8011   -1.9492 H   0  0  0  0  0  0  0  0  0  0  0  0
    1.6164    2.1250   -0.6787 H   0  0  0  0  0  0  0  0  0  0  0  0
    3.5753    1.3332    0.3306 H   0  0  0  0  0  0  0  0  0  0  0  0
    3.9284    1.4912   -1.4531 H   0  0  0  0  0  0  0  0  0  0  0  0
  1  2  1  0
  2  3  1  0
  3  4  1  0
  4  5  1  0
  5  6  1  0
  6  7  2  0
  7  8  1  0
  8  9  2  0
  9 10  1  0
 10 11  1  0
 10 12  2  0
 12 13  1  0
 13 14  2  0
 14 15  1  0
 15 16  1  0
 16 17  2  0
 17 18  1  0
 18 19  2  0
 19 20  1  0
 20 21  2  0
  5 22  1  0
 22 23  1  0
 23  2  1  0
 21  6  1  0
 14  8  1  0
 21 16  1  0
  1 24  1  0
  1 25  1  0
  1 26  1  0
  3 27  1  0
  3 28  1  0
  4 29  1  0
  4 30  1  0
  9 31  1  0
 12 32  1  0
 13 33  1  0
 15 34  1  0
 17 35  1  0
 18 36  1  0
 19 37  1  0
 20 38  1  0
 22 39  1  0
 22 40  1  0
 23 41  1  0
 23 42  1  0
M  END
$$$$
