
     RDKit          3D

 49 53  0  0  0  0  0  0  0  0999 V2000
   -2.9595   -4.1267    0.0275 C   0  0  0  0  0  0  0  0  0  0  0  0
   -2.6596   -2.7711    0.3687 N   0  0  0  0  0  0  0  0  0  0  0  0
   -3.6099   -1.8501   -0.2736 C   0  0  0  0  0  0  0  0  0  0  0  0
   -3.2446   -2.1156   -1.7428 C   0  0  0  0  0  0  0  0  0  0  0  0
   -1.7278   -1.9005   -1.6474 C   0  0  0  0  0  0  0  0  0  0  0  0
   -1.4216   -2.3273   -0.2542 C   0  0  0  0  0  0  0  0  0  0  0  0
   -0.9205   -1.1734    0.6227 C   0  0  1  0  0  0  0  0  0  0  0  0
    0.2297   -0.4972    0.0244 C   0  0  0  0  0  0  0  0  0  0  0  0
    0.6008    0.1275   -0.9556 N   0  0  0  0  0  0  0  0  0  0  0  0
    1.7697    0.6022   -1.1470 N   0  0  0  0  0  0  0  0  0  0  0  0
    2.7060    0.4904   -0.3457 C   0  0  0  0  0  0  0  0  0  0  0  0
    4.0933    0.8307   -0.1400 C   0  0  0  0  0  0  0  0  0  0  0  0
    4.7187    1.5434   -1.1320 C   0  0  0  0  0  0  0  0  0  0  0  0
    6.0428    1.9273   -1.0503 C   0  0  0  0  0  0  0  0  0  0  0  0
    6.7748    1.5874    0.0658 C   0  0  0  0  0  0  0  0  0  0  0  0
    6.1766    0.8771    1.0701 C   0  0  0  0  0  0  0  0  0  0  0  0
    4.8346    0.4957    0.9723 C   0  0  0  0  0  0  0  0  0  0  0  0
    1.7936   -0.4919    0.9901 S   0  0  0  0  0  0  0  0  0  0  0  0
   -2.0572   -0.2079    0.8549 C   0  0  0  0  0  0  0  0  0  0  0  0
   -1.6449    1.1977    0.8053 C   0  0  0  0  0  0  0  0  0  0  0  0
   -1.3480    1.8439    1.9830 C   0  0  0  0  0  0  0  0  0  0  0  0
   -0.9636    3.1532    2.0619 C   0  0  0  0  0  0  0  0  0  0  0  0
   -0.8576    3.8963    0.9151 C   0  0  0  0  0  0  0  0  0  0  0  0
   -0.3642    5.5909    0.9713 Cl  0  0  0  0  0  0  0  0  0  0  0  0
   -1.1488    3.2786   -0.2864 C   0  0  0  0  0  0  0  0  0  0  0  0
   -1.5352    1.9558   -0.3438 C   0  0  0  0  0  0  0  0  0  0  0  0
   -3.2597   -0.4309    0.0033 C   0  0  0  0  0  0  0  0  0  0  0  0
   -2.7708   -4.7454    0.9511 H   0  0  0  0  0  0  0  0  0  0  0  0
   -4.0097   -4.2985   -0.2832 H   0  0  0  0  0  0  0  0  0  0  0  0
   -2.2573   -4.5465   -0.7358 H   0  0  0  0  0  0  0  0  0  0  0  0
   -4.6512   -2.1196   -0.0651 H   0  0  0  0  0  0  0  0  0  0  0  0
   -3.7161   -1.3532   -2.3806 H   0  0  0  0  0  0  0  0  0  0  0  0
   -3.4822   -3.1488   -2.0287 H   0  0  0  0  0  0  0  0  0  0  0  0
   -1.1978   -2.4682   -2.4333 H   0  0  0  0  0  0  0  0  0  0  0  0
   -1.5300   -0.8185   -1.7499 H   0  0  0  0  0  0  0  0  0  0  0  0
   -0.6908   -3.1581   -0.2584 H   0  0  0  0  0  0  0  0  0  0  0  0
   -0.6169   -1.6666    1.5664 H   0  0  0  0  0  0  0  0  0  0  0  0
    4.1686    1.8206   -2.0129 H   0  0  0  0  0  0  0  0  0  0  0  0
    6.5310    2.4861   -1.8296 H   0  0  0  0  0  0  0  0  0  0  0  0
    7.8292    1.8858    0.1450 H   0  0  0  0  0  0  0  0  0  0  0  0
    6.7573    0.6097    1.9511 H   0  0  0  0  0  0  0  0  0  0  0  0
    4.3557   -0.0608    1.7529 H   0  0  0  0  0  0  0  0  0  0  0  0
   -2.3897   -0.4170    1.9202 H   0  0  0  0  0  0  0  0  0  0  0  0
   -1.4211    1.2810    2.9281 H   0  0  0  0  0  0  0  0  0  0  0  0
   -0.7425    3.6110    3.0106 H   0  0  0  0  0  0  0  0  0  0  0  0
   -1.0543    3.8964   -1.1723 H   0  0  0  0  0  0  0  0  0  0  0  0
   -1.7582    1.5228   -1.3058 H   0  0  0  0  0  0  0  0  0  0  0  0
   -4.1361    0.0151    0.5625 H   0  0  0  0  0  0  0  0  0  0  0  0
   -3.2354    0.1669   -0.9500 H   0  0  0  0  0  0  0  0  0  0  0  0
  1  2  1  0
  2  3  1  0
  3  4  1  0
  4  5  1  0
  5  6  1  0
  6  7  1  0
  7  8  1  0
  8  9  2  0
  9 10  1  0
 10 11  2  0
 11 12  1  0
 12 13  2  0
 13 14  1  0
 14 15  2  0
 15 16  1  0
 16 17  2  0
 11 18  1  0
  7 19  1  0
 19 20  1  0
 20 21  2  0
 21 22  1  0
 22 23  2  0
 23 24  1  0
 23 25  1  0
 25 26  2  0
 19 27  1  0
  6  2  1  0
 18  8  1  0
 26 20  1  0
 27  3  1  0
 17 12  1  0
  1 28  1  0
  1 29  1  0
  1 30  1  0
  3 31  1  0
  4 32  1  0
  4 33  1  0
  5 34  1  0
  5 35  1  0
  6 36  1  0
  7 37  1  1
 13 38  1  0
 14 39  1  0
 15 40  1  0
 16 41  1  0
 17 42  1  0
 19 43  1  0
 21 44  1  0
 22 45  1  0
 25 46  1  0
 26 47  1  0
 27 48  1  0
 27 49  1  0
M  END
$$$$
