
     RDKit          3D

 59 64  0  0  0  0  0  0  0  0999 V2000
   -4.8992    1.0621   -0.9893 C   0  0  0  0  0  0  0  0  0  0  0  0
   -4.2985   -0.2014   -1.2579 N   0  0  0  0  0  0  0  0  0  0  0  0
   -5.1848   -1.3109   -1.3726 C   0  0  0  0  0  0  0  0  0  0  0  0
   -5.0286   -2.1285   -0.1190 C   0  0  0  0  0  0  0  0  0  0  0  0
   -3.8700   -1.5545    0.6324 C   0  0  0  0  0  0  0  0  0  0  0  0
   -3.2442   -0.5552   -0.3164 C   0  0  0  0  0  0  0  0  0  0  0  0
   -2.1916   -1.2525   -1.1322 C   0  0  0  0  0  0  0  0  0  0  0  0
   -0.9724   -1.6808   -0.3991 C   0  0  0  0  0  0  0  0  0  0  0  0
   -0.3048   -0.5229    0.1581 N   0  0  0  0  0  0  0  0  0  0  0  0
    0.5539    0.2531   -0.5674 C   0  0  0  0  0  0  0  0  0  0  0  0
    1.0075    1.3081    0.2082 C   0  0  0  0  0  0  0  0  0  0  0  0
    1.9511    2.3535   -0.2046 C   0  0  0  0  0  0  0  0  0  0  0  0
    3.0925    2.1822   -0.8471 C   0  0  0  0  0  0  0  0  0  0  0  0
    3.6280    0.8983   -1.2633 C   0  0  0  0  0  0  0  0  0  0  0  0
    4.0727    0.6018   -2.5388 C   0  0  0  0  0  0  0  0  0  0  0  0
    4.5263   -0.6514   -2.5849 N   0  0  0  0  0  0  0  0  0  0  0  0
    4.3919   -1.2015   -1.3524 C   0  0  0  0  0  0  0  0  0  0  0  0
    4.7161   -2.4593   -0.8695 C   0  0  0  0  0  0  0  0  0  0  0  0
    4.4987   -2.7917    0.4300 C   0  0  0  0  0  0  0  0  0  0  0  0
    3.9447   -1.8413    1.2608 C   0  0  0  0  0  0  0  0  0  0  0  0
    3.6113   -0.5769    0.8035 C   0  0  0  0  0  0  0  0  0  0  0  0
    3.8280   -0.2354   -0.5117 C   0  0  0  0  0  0  0  0  0  0  0  0
    3.7255    3.5023   -1.0817 C   0  0  0  0  0  0  0  0  0  0  0  0
    4.8279    3.6238   -1.6763 O   0  0  0  0  0  0  0  0  0  0  0  0
    2.8844    4.5056   -0.5341 N   0  0  0  0  0  0  0  0  0  0  0  0
    1.7627    3.7819    0.0199 C   0  0  0  0  0  0  0  0  0  0  0  0
    0.8086    4.3754    0.5918 O   0  0  0  0  0  0  0  0  0  0  0  0
    0.3992    1.1496    1.4310 C   0  0  0  0  0  0  0  0  0  0  0  0
    0.4545    1.8496    2.6086 C   0  0  0  0  0  0  0  0  0  0  0  0
   -0.2444    1.4894    3.7407 C   0  0  0  0  0  0  0  0  0  0  0  0
   -1.0272    0.3690    3.6585 C   0  0  0  0  0  0  0  0  0  0  0  0
   -1.1218   -0.3750    2.5022 C   0  0  0  0  0  0  0  0  0  0  0  0
   -0.4119    0.0061    1.3786 C   0  0  0  0  0  0  0  0  0  0  0  0
   -5.3804    1.1463    0.0007 H   0  0  0  0  0  0  0  0  0  0  0  0
   -5.6266    1.2895   -1.8058 H   0  0  0  0  0  0  0  0  0  0  0  0
   -4.0928    1.8396   -1.1189 H   0  0  0  0  0  0  0  0  0  0  0  0
   -4.7916   -1.9597   -2.2096 H   0  0  0  0  0  0  0  0  0  0  0  0
   -6.2219   -1.0406   -1.6091 H   0  0  0  0  0  0  0  0  0  0  0  0
   -4.8201   -3.2037   -0.3204 H   0  0  0  0  0  0  0  0  0  0  0  0
   -5.9494   -2.1203    0.5051 H   0  0  0  0  0  0  0  0  0  0  0  0
   -3.1552   -2.3515    0.9384 H   0  0  0  0  0  0  0  0  0  0  0  0
   -4.2128   -1.0428    1.5791 H   0  0  0  0  0  0  0  0  0  0  0  0
   -2.8564    0.2947    0.2460 H   0  0  0  0  0  0  0  0  0  0  0  0
   -2.6907   -2.1269   -1.6520 H   0  0  0  0  0  0  0  0  0  0  0  0
   -1.9124   -0.5295   -1.9503 H   0  0  0  0  0  0  0  0  0  0  0  0
   -0.3048   -2.1936   -1.1425 H   0  0  0  0  0  0  0  0  0  0  0  0
   -1.2373   -2.3879    0.3986 H   0  0  0  0  0  0  0  0  0  0  0  0
    0.8564    0.0997   -1.5861 H   0  0  0  0  0  0  0  0  0  0  0  0
    4.0731    1.2591   -3.4077 H   0  0  0  0  0  0  0  0  0  0  0  0
    4.9245   -1.1681   -3.3941 H   0  0  0  0  0  0  0  0  0  0  0  0
    5.1558   -3.2214   -1.5193 H   0  0  0  0  0  0  0  0  0  0  0  0
    4.7429   -3.7599    0.8192 H   0  0  0  0  0  0  0  0  0  0  0  0
    3.7750   -2.1129    2.2911 H   0  0  0  0  0  0  0  0  0  0  0  0
    3.1968    0.1361    1.4862 H   0  0  0  0  0  0  0  0  0  0  0  0
    3.0422    5.5201   -0.5332 H   0  0  0  0  0  0  0  0  0  0  0  0
    1.0895    2.7481    2.6976 H   0  0  0  0  0  0  0  0  0  0  0  0
   -0.1514    2.0937    4.6368 H   0  0  0  0  0  0  0  0  0  0  0  0
   -1.5840    0.0855    4.5652 H   0  0  0  0  0  0  0  0  0  0  0  0
   -1.7546   -1.2665    2.5032 H   0  0  0  0  0  0  0  0  0  0  0  0
  1  2  1  0
  2  3  1  0
  3  4  1  0
  4  5  1  0
  5  6  1  0
  6  7  1  0
  7  8  1  0
  8  9  1  0
  9 10  1  0
 10 11  2  0
 11 12  1  0
 12 13  2  0
 13 14  1  0
 14 15  2  0
 15 16  1  0
 16 17  1  0
 17 18  2  0
 18 19  1  0
 19 20  2  0
 20 21  1  0
 21 22  2  0
 13 23  1  0
 23 24  2  0
 23 25  1  0
 25 26  1  0
 26 27  2  0
 11 28  1  0
 28 29  2  0
 29 30  1  0
 30 31  2  0
 31 32  1  0
 32 33  2  0
  6  2  1  0
 33  9  1  0
 26 12  1  0
 33 28  1  0
 22 14  1  0
 22 17  1  0
  1 34  1  0
  1 35  1  0
  1 36  1  0
  3 37  1  0
  3 38  1  0
  4 39  1  0
  4 40  1  0
  5 41  1  0
  5 42  1  0
  6 43  1  0
  7 44  1  0
  7 45  1  0
  8 46  1  0
  8 47  1  0
 10 48  1  0
 15 49  1  0
 16 50  1  0
 18 51  1  0
 19 52  1  0
 20 53  1  0
 21 54  1  0
 25 55  1  0
 29 56  1  0
 30 57  1  0
 31 58  1  0
 32 59  1  0
M  END
$$$$
