
     RDKit          3D

 63 66  0  0  0  0  0  0  0  0999 V2000
    6.2590   -2.6631    2.1166 C   0  0  0  0  0  0  0  0  0  0  0  0
    6.5412   -1.2339    1.8750 C   0  0  0  0  0  0  0  0  0  0  0  0
    5.7514   -0.2547    1.3628 C   0  0  0  0  0  0  0  0  0  0  0  0
    4.3738   -0.3897    0.8937 C   0  0  0  0  0  0  0  0  0  0  0  0
    3.8315   -1.5119    0.9813 O   0  0  0  0  0  0  0  0  0  0  0  0
    3.7001    0.7385    0.3608 N   0  0  0  0  0  0  0  0  0  0  0  0
    2.3863    0.7138   -0.1069 C   0  0  0  0  0  0  0  0  0  0  0  0
    1.8763    1.9333   -0.5674 C   0  0  0  0  0  0  0  0  0  0  0  0
    0.5634    2.0028   -1.0481 C   0  0  0  0  0  0  0  0  0  0  0  0
   -0.2417    0.8940   -1.0778 C   0  0  0  0  0  0  0  0  0  0  0  0
   -1.5992    0.9964   -1.5712 C   0  0  0  0  0  0  0  0  0  0  0  0
   -2.3569    2.1490   -1.4139 C   0  0  0  0  0  0  0  0  0  0  0  0
   -3.6490    2.2792   -1.8754 C   0  0  0  0  0  0  0  0  0  0  0  0
   -4.2533    1.2333   -2.5316 C   0  0  0  0  0  0  0  0  0  0  0  0
   -5.8692    1.3925   -3.1159 S   0  0  0  0  0  6  0  0  0  0  0  0
   -6.0936    2.8372   -3.5069 O   0  0  0  0  0  0  0  0  0  0  0  0
   -6.0011    0.5909   -4.3840 O   0  0  0  0  0  0  0  0  0  0  0  0
   -6.9726    0.9031   -1.9179 N   0  0  0  0  0  0  0  0  0  0  0  0
   -6.8755   -0.4529   -1.4892 C   0  0  2  0  0  0  0  0  0  0  0  0
   -8.0682   -1.2347   -2.0085 C   0  0  0  0  0  0  0  0  0  0  0  0
   -8.1128   -2.4510   -1.7712 O   0  0  0  0  0  0  0  0  0  0  0  0
   -9.0893   -0.6441   -2.7288 O   0  0  0  0  0  0  0  0  0  0  0  0
   -6.7720   -0.5431   -0.0165 C   0  0  0  0  0  0  0  0  0  0  0  0
   -6.6537   -1.9610    0.5248 C   0  0  0  0  0  0  0  0  0  0  0  0
   -5.6506    0.3166    0.5070 C   0  0  0  0  0  0  0  0  0  0  0  0
   -3.5308    0.0744   -2.7056 C   0  0  0  0  0  0  0  0  0  0  0  0
   -2.2296   -0.0355   -2.2321 C   0  0  0  0  0  0  0  0  0  0  0  0
    0.2732   -0.2871   -0.6240 C   0  0  0  0  0  0  0  0  0  0  0  0
    1.5963   -0.3773   -0.1357 C   0  0  0  0  0  0  0  0  0  0  0  0
    6.4310    0.8496    1.3554 O   0  0  0  0  0  0  0  0  0  0  0  0
    7.6277    0.6955    1.8261 C   0  0  0  0  0  0  0  0  0  0  0  0
    8.6330    1.6313    1.9778 C   0  0  0  0  0  0  0  0  0  0  0  0
    9.8284    1.1665    2.5195 C   0  0  0  0  0  0  0  0  0  0  0  0
   10.0137   -0.1447    2.8864 C   0  0  0  0  0  0  0  0  0  0  0  0
    8.9585   -1.0401    2.7065 C   0  0  0  0  0  0  0  0  0  0  0  0
    9.1545   -2.4161    3.0670 C   0  0  0  0  0  0  0  0  0  0  0  0
    9.3152   -3.5199    3.3499 N   0  0  0  0  0  0  0  0  0  0  0  0
    7.7690   -0.6214    2.1796 C   0  0  0  0  0  0  0  0  0  0  0  0
    6.6203   -2.9462    3.1397 H   0  0  0  0  0  0  0  0  0  0  0  0
    6.7277   -3.2825    1.3196 H   0  0  0  0  0  0  0  0  0  0  0  0
    5.1801   -2.8986    2.1025 H   0  0  0  0  0  0  0  0  0  0  0  0
    4.2803    1.6418    0.3305 H   0  0  0  0  0  0  0  0  0  0  0  0
    2.4904    2.8204   -0.5606 H   0  0  0  0  0  0  0  0  0  0  0  0
    0.1636    2.9414   -1.4094 H   0  0  0  0  0  0  0  0  0  0  0  0
   -1.8596    2.9727   -0.8902 H   0  0  0  0  0  0  0  0  0  0  0  0
   -4.2060    3.2182   -1.7203 H   0  0  0  0  0  0  0  0  0  0  0  0
   -7.0087    1.6250   -1.1822 H   0  0  0  0  0  0  0  0  0  0  0  0
   -6.0054   -0.9273   -1.9760 H   0  0  0  0  0  0  0  0  0  0  0  0
   -9.5701   -1.1205   -3.4923 H   0  0  0  0  0  0  0  0  0  0  0  0
   -7.7309   -0.1510    0.4596 H   0  0  0  0  0  0  0  0  0  0  0  0
   -7.5837   -2.5496    0.4273 H   0  0  0  0  0  0  0  0  0  0  0  0
   -5.8074   -2.5199    0.0974 H   0  0  0  0  0  0  0  0  0  0  0  0
   -6.5175   -1.8284    1.6464 H   0  0  0  0  0  0  0  0  0  0  0  0
   -5.5102    0.0443    1.5956 H   0  0  0  0  0  0  0  0  0  0  0  0
   -4.6618    0.1029    0.0556 H   0  0  0  0  0  0  0  0  0  0  0  0
   -5.8491    1.3945    0.4023 H   0  0  0  0  0  0  0  0  0  0  0  0
   -4.0027   -0.7672   -3.2350 H   0  0  0  0  0  0  0  0  0  0  0  0
   -1.6645   -0.9429   -2.3654 H   0  0  0  0  0  0  0  0  0  0  0  0
   -0.3523   -1.1626   -0.6434 H   0  0  0  0  0  0  0  0  0  0  0  0
    1.9160   -1.3477    0.1970 H   0  0  0  0  0  0  0  0  0  0  0  0
    8.5282    2.6714    1.7043 H   0  0  0  0  0  0  0  0  0  0  0  0
   10.6238    1.8998    2.6427 H   0  0  0  0  0  0  0  0  0  0  0  0
   10.9351   -0.5038    3.3048 H   0  0  0  0  0  0  0  0  0  0  0  0
  1  2  1  0
  2  3  2  0
  3  4  1  0
  4  5  2  0
  4  6  1  0
  6  7  1  0
  7  8  2  0
  8  9  1  0
  9 10  2  0
 10 11  1  0
 11 12  2  0
 12 13  1  0
 13 14  2  0
 14 15  1  0
 15 16  2  0
 15 17  2  0
 15 18  1  0
 18 19  1  0
 19 20  1  0
 20 21  2  0
 20 22  1  0
 19 23  1  0
 23 24  1  0
 23 25  1  0
 14 26  1  0
 26 27  2  0
 10 28  1  0
 28 29  2  0
  3 30  1  0
 30 31  1  0
 31 32  2  0
 32 33  1  0
 33 34  2  0
 34 35  1  0
 35 36  1  0
 36 37  3  0
 35 38  2  0
 38  2  1  0
 29  7  1  0
 38 31  1  0
 27 11  1  0
  1 39  1  0
  1 40  1  0
  1 41  1  0
  6 42  1  0
  8 43  1  0
  9 44  1  0
 12 45  1  0
 13 46  1  0
 18 47  1  0
 19 48  1  6
 22 49  1  0
 23 50  1  0
 24 51  1  0
 24 52  1  0
 24 53  1  0
 25 54  1  0
 25 55  1  0
 25 56  1  0
 26 57  1  0
 27 58  1  0
 28 59  1  0
 29 60  1  0
 32 61  1  0
 33 62  1  0
 34 63  1  0
M  END
$$$$
