
     RDKit          3D

 32 33  0  0  0  0  0  0  0  0999 V2000
   -4.5050   -0.7793    2.0955 C   0  0  0  0  0  0  0  0  0  0  0  0
   -3.1142   -0.6045    1.8188 O   0  0  0  0  0  0  0  0  0  0  0  0
   -2.7390   -0.0149    0.6201 C   0  0  0  0  0  0  0  0  0  0  0  0
   -3.6490    0.4094   -0.3173 C   0  0  0  0  0  0  0  0  0  0  0  0
   -3.2554    0.9990   -1.5128 C   0  0  0  0  0  0  0  0  0  0  0  0
   -1.9074    1.1612   -1.7620 C   0  0  0  0  0  0  0  0  0  0  0  0
   -1.2262    1.6733   -2.7776 O   0  0  0  0  0  0  0  0  0  0  0  0
    0.0639    1.6010   -2.5444 C   0  0  0  0  0  0  0  0  0  0  0  0
    0.2859    1.0131   -1.3135 C   0  0  0  0  0  0  0  0  0  0  0  0
    1.5985    0.7417   -0.6748 C   0  0  0  0  0  0  0  0  0  0  0  0
    1.9740   -0.7200   -0.7776 C   0  0  0  0  0  0  0  0  0  0  0  0
    3.2513   -0.9811   -0.1568 N   0  0  0  0  0  0  0  0  0  0  0  0
    3.5496   -0.7562    1.2120 C   0  0  0  0  0  0  0  0  0  0  0  0
    2.6555   -0.3013    1.9517 O   0  0  0  0  0  0  0  0  0  0  0  0
    4.9150   -1.0625    1.7445 C   0  0  0  0  0  0  0  0  0  0  0  0
    6.0783    0.4550    1.6244 Br  0  0  0  0  0  0  0  0  0  0  0  0
   -0.9733    0.7368   -0.8235 C   0  0  0  0  0  0  0  0  0  0  0  0
   -1.4029    0.1573    0.3488 C   0  0  0  0  0  0  0  0  0  0  0  0
   -4.9573   -1.5266    1.4191 H   0  0  0  0  0  0  0  0  0  0  0  0
   -5.0173    0.1973    1.9256 H   0  0  0  0  0  0  0  0  0  0  0  0
   -4.6676   -1.1178    3.1364 H   0  0  0  0  0  0  0  0  0  0  0  0
   -4.7030    0.2627   -0.0810 H   0  0  0  0  0  0  0  0  0  0  0  0
   -4.0008    1.3235   -2.2326 H   0  0  0  0  0  0  0  0  0  0  0  0
    0.8459    1.9495   -3.2151 H   0  0  0  0  0  0  0  0  0  0  0  0
    2.4038    1.3198   -1.1818 H   0  0  0  0  0  0  0  0  0  0  0  0
    1.6175    1.0597    0.3868 H   0  0  0  0  0  0  0  0  0  0  0  0
    1.2136   -1.2826   -0.1857 H   0  0  0  0  0  0  0  0  0  0  0  0
    2.0071   -1.0488   -1.8204 H   0  0  0  0  0  0  0  0  0  0  0  0
    4.0520   -1.3716   -0.7386 H   0  0  0  0  0  0  0  0  0  0  0  0
    4.8994   -1.4778    2.7667 H   0  0  0  0  0  0  0  0  0  0  0  0
    5.3428   -1.8640    1.0840 H   0  0  0  0  0  0  0  0  0  0  0  0
   -0.6358   -0.1515    1.0394 H   0  0  0  0  0  0  0  0  0  0  0  0
  1  2  1  0
  2  3  1  0
  3  4  2  0
  4  5  1  0
  5  6  2  0
  6  7  1  0
  7  8  1  0
  8  9  2  0
  9 10  1  0
 10 11  1  0
 11 12  1  0
 12 13  1  0
 13 14  2  0
 13 15  1  0
 15 16  1  0
  9 17  1  0
 17 18  2  0
 18  3  1  0
 17  6  1  0
  1 19  1  0
  1 20  1  0
  1 21  1  0
  4 22  1  0
  5 23  1  0
  8 24  1  0
 10 25  1  0
 10 26  1  0
 11 27  1  0
 11 28  1  0
 12 29  1  0
 15 30  1  0
 15 31  1  0
 18 32  1  0
M  END
$$$$
