
     RDKit          3D

 69 73  0  0  0  0  0  0  0  0999 V2000
    5.1226   -2.7413    1.5170 C   0  0  0  0  0  0  0  0  0  0  0  0
    3.7299   -3.1603    1.7081 C   0  0  0  0  0  0  0  0  0  0  0  0
    2.5974   -2.4479    1.3426 C   0  0  0  0  0  0  0  0  0  0  0  0
    2.3895   -1.2051    0.7261 C   0  0  0  0  0  0  0  0  0  0  0  0
    3.3856   -0.4745    0.3755 O   0  0  0  0  0  0  0  0  0  0  0  0
    4.3940    0.2646    0.0207 C   0  0  2  0  0  0  0  0  0  0  0  0
    4.5369    1.6030    0.7878 C   0  0  0  0  0  0  0  0  0  0  0  0
    4.5108    0.5692   -1.4798 C   0  0  1  0  0  0  0  0  0  0  0  0
    3.3186    1.2960   -2.0131 C   0  0  0  0  0  0  0  0  0  0  0  0
    3.6447    2.7200   -1.9338 N   0  0  0  0  0  0  0  0  0  0  0  0
    5.0424    2.8632   -1.6975 C   0  0  0  0  0  0  0  0  0  0  0  0
    5.6092    3.9458   -1.4758 O   0  0  0  0  0  0  0  0  0  0  0  0
    5.6485    1.4981   -1.7702 C   0  0  0  0  0  0  0  0  0  0  0  0
    1.0382   -0.8526    0.5379 C   0  0  0  0  0  0  0  0  0  0  0  0
   -0.0289   -1.6158    0.9038 C   0  0  0  0  0  0  0  0  0  0  0  0
   -1.4137   -1.1874    0.6796 C   0  0  0  0  0  0  0  0  0  0  0  0
   -2.4670   -1.5287    1.4908 C   0  0  0  0  0  0  0  0  0  0  0  0
   -3.5837   -0.9423    0.9594 N   0  0  0  0  0  0  0  0  0  0  0  0
   -3.2823   -0.2677   -0.1194 N   0  0  0  0  0  0  0  0  0  0  0  0
   -4.1577    0.5079   -0.9948 C   0  0  0  0  0  0  0  0  0  0  0  0
   -5.5982    0.1535   -0.7976 C   0  0  0  0  0  0  0  0  0  0  0  0
   -6.2255    1.3853   -0.2468 C   0  0  0  0  0  0  0  0  0  0  0  0
   -6.6775    1.1409    1.1876 C   0  0  0  0  0  0  0  0  0  0  0  0
   -7.4817    1.7820   -1.0356 C   0  0  0  0  0  0  0  0  0  0  0  0
   -5.3464    2.4228   -0.3522 O   0  0  0  0  0  0  0  0  0  0  0  0
   -4.0979    1.9770   -0.6696 C   0  0  0  0  0  0  0  0  0  0  0  0
   -3.1302    2.2686    0.4563 C   0  0  0  0  0  0  0  0  0  0  0  0
   -3.6139    2.7122   -1.9019 C   0  0  0  0  0  0  0  0  0  0  0  0
   -1.9356   -0.4035   -0.3170 C   0  0  0  0  0  0  0  0  0  0  0  0
    0.2557   -2.8242    1.5039 C   0  0  0  0  0  0  0  0  0  0  0  0
    1.5482   -3.2428    1.7244 C   0  0  0  0  0  0  0  0  0  0  0  0
    2.0509   -4.3848    2.2955 N   0  0  0  0  0  0  0  0  0  0  0  0
    3.3642   -4.3195    2.2780 N   0  0  0  0  0  0  0  0  0  0  0  0
    4.2922   -5.3338    2.7911 C   0  0  0  0  0  0  0  0  0  0  0  0
    5.8365   -3.4187    2.0481 H   0  0  0  0  0  0  0  0  0  0  0  0
    5.2374   -1.7614    2.0574 H   0  0  0  0  0  0  0  0  0  0  0  0
    5.3713   -2.6042    0.4664 H   0  0  0  0  0  0  0  0  0  0  0  0
    5.4013   -0.2209    0.2404 H   0  0  0  0  0  0  0  0  0  0  0  0
    4.3031    1.4373    1.8588 H   0  0  0  0  0  0  0  0  0  0  0  0
    3.8478    2.3551    0.4092 H   0  0  0  0  0  0  0  0  0  0  0  0
    5.5826    1.9691    0.7405 H   0  0  0  0  0  0  0  0  0  0  0  0
    4.6498   -0.3654   -2.0534 H   0  0  0  0  0  0  0  0  0  0  0  0
    3.2052    1.0868   -3.1096 H   0  0  0  0  0  0  0  0  0  0  0  0
    2.3679    1.0580   -1.5373 H   0  0  0  0  0  0  0  0  0  0  0  0
    2.9396    3.4652   -2.0386 H   0  0  0  0  0  0  0  0  0  0  0  0
    6.5119    1.3841   -1.0900 H   0  0  0  0  0  0  0  0  0  0  0  0
    6.0027    1.3733   -2.8142 H   0  0  0  0  0  0  0  0  0  0  0  0
    0.8432    0.1187    0.0561 H   0  0  0  0  0  0  0  0  0  0  0  0
   -2.4557   -2.1403    2.3844 H   0  0  0  0  0  0  0  0  0  0  0  0
   -3.8907    0.3136   -2.0356 H   0  0  0  0  0  0  0  0  0  0  0  0
   -5.7576   -0.7315   -0.1531 H   0  0  0  0  0  0  0  0  0  0  0  0
   -6.1023   -0.0640   -1.7808 H   0  0  0  0  0  0  0  0  0  0  0  0
   -5.8796    0.6754    1.7727 H   0  0  0  0  0  0  0  0  0  0  0  0
   -6.9812    2.1129    1.6684 H   0  0  0  0  0  0  0  0  0  0  0  0
   -7.5956    0.5189    1.2145 H   0  0  0  0  0  0  0  0  0  0  0  0
   -7.1969    2.1774   -2.0358 H   0  0  0  0  0  0  0  0  0  0  0  0
   -7.9849    2.6234   -0.5169 H   0  0  0  0  0  0  0  0  0  0  0  0
   -8.1425    0.9245   -1.2121 H   0  0  0  0  0  0  0  0  0  0  0  0
   -3.4815    1.7007    1.3508 H   0  0  0  0  0  0  0  0  0  0  0  0
   -2.0915    2.0208    0.1675 H   0  0  0  0  0  0  0  0  0  0  0  0
   -3.2270    3.3425    0.7048 H   0  0  0  0  0  0  0  0  0  0  0  0
   -3.4023    3.7710   -1.6941 H   0  0  0  0  0  0  0  0  0  0  0  0
   -2.6618    2.2495   -2.2770 H   0  0  0  0  0  0  0  0  0  0  0  0
   -4.3258    2.6323   -2.7478 H   0  0  0  0  0  0  0  0  0  0  0  0
   -1.3505    0.0229   -1.1159 H   0  0  0  0  0  0  0  0  0  0  0  0
   -0.5706   -3.4445    1.8014 H   0  0  0  0  0  0  0  0  0  0  0  0
    4.9918   -4.8426    3.5001 H   0  0  0  0  0  0  0  0  0  0  0  0
    3.7306   -6.0957    3.3286 H   0  0  0  0  0  0  0  0  0  0  0  0
    4.8360   -5.8220    1.9377 H   0  0  0  0  0  0  0  0  0  0  0  0
  1  2  1  0
  2  3  2  0
  3  4  1  0
  4  5  1  0
  5  6  1  0
  6  7  1  0
  6  8  1  0
  8  9  1  0
  9 10  1  0
 10 11  1  0
 11 12  2  0
 11 13  1  0
  4 14  2  0
 14 15  1  0
 15 16  1  0
 16 17  1  0
 17 18  2  0
 18 19  1  0
 19 20  1  0
 20 21  1  0
 21 22  1  0
 22 23  1  0
 22 24  1  0
 22 25  1  0
 25 26  1  0
 26 27  1  0
 26 28  1  0
 19 29  1  0
 15 30  2  0
 30 31  1  0
 31 32  2  0
 32 33  1  0
 33 34  1  0
 33  2  1  0
 31  3  1  0
 13  8  1  0
 29 16  2  0
 26 20  1  0
  1 35  1  0
  1 36  1  0
  1 37  1  0
  6 38  1  1
  7 39  1  0
  7 40  1  0
  7 41  1  0
  8 42  1  6
  9 43  1  0
  9 44  1  0
 10 45  1  0
 13 46  1  0
 13 47  1  0
 14 48  1  0
 17 49  1  0
 20 50  1  0
 21 51  1  0
 21 52  1  0
 23 53  1  0
 23 54  1  0
 23 55  1  0
 24 56  1  0
 24 57  1  0
 24 58  1  0
 27 59  1  0
 27 60  1  0
 27 61  1  0
 28 62  1  0
 28 63  1  0
 28 64  1  0
 29 65  1  0
 30 66  1  0
 34 67  1  0
 34 68  1  0
 34 69  1  0
M  END
$$$$
