
     RDKit          3D

 61 63  0  0  0  0  0  0  0  0999 V2000
   -9.1662   -2.5910    0.7549 C   0  0  0  0  0  0  0  0  0  0  0  0
   -7.9603   -2.7161    0.0676 O   0  0  0  0  0  0  0  0  0  0  0  0
   -7.0826   -1.6838   -0.1806 C   0  0  0  0  0  0  0  0  0  0  0  0
   -7.3577   -0.4054    0.2562 C   0  0  0  0  0  0  0  0  0  0  0  0
   -6.4959    0.6396    0.0193 C   0  0  0  0  0  0  0  0  0  0  0  0
   -5.2962    0.4553   -0.6783 C   0  0  0  0  0  0  0  0  0  0  0  0
   -4.4467    1.6117   -0.8880 C   0  0  0  0  0  0  0  0  0  0  0  0
   -4.7976    2.7471   -0.4774 O   0  0  0  0  0  0  0  0  0  0  0  0
   -3.2074    1.5107   -1.5530 N   0  0  0  0  0  0  0  0  0  0  0  0
   -2.2864    2.5729   -1.8176 C   0  0  0  0  0  0  0  0  0  0  0  0
   -1.4887    2.9786   -0.6309 C   0  0  0  0  0  0  0  0  0  0  0  0
   -1.9411    4.0122    0.1514 C   0  0  0  0  0  0  0  0  0  0  0  0
   -1.1657    4.3532    1.2606 C   0  0  0  0  0  0  0  0  0  0  0  0
   -0.0042    3.6675    1.5336 C   0  0  0  0  0  0  0  0  0  0  0  0
    0.4575    2.6279    0.7518 C   0  0  0  0  0  0  0  0  0  0  0  0
    1.7160    1.9386    1.1114 C   0  0  0  0  0  0  0  0  0  0  0  0
    2.2700    2.2993    2.1644 O   0  0  0  0  0  0  0  0  0  0  0  0
    2.3041    0.9252    0.3470 N   0  0  0  0  0  0  0  0  0  0  0  0
    3.4902    0.2067    0.5974 C   0  0  0  0  0  0  0  0  0  0  0  0
    4.2546    0.3602    1.7162 C   0  0  0  0  0  0  0  0  0  0  0  0
    5.4331   -0.3922    1.8697 C   0  0  0  0  0  0  0  0  0  0  0  0
    5.8355   -1.2873    0.9087 C   0  0  0  0  0  0  0  0  0  0  0  0
    7.0745   -2.0754    1.0895 C   0  0  0  0  0  0  0  0  0  0  0  0
    8.1822   -1.3089    0.5747 N   0  0  0  0  0  0  0  0  0  0  0  0
    9.4462   -1.9707    0.6763 C   0  0  0  0  0  0  0  0  0  0  0  0
    7.8644   -0.8202   -0.7301 C   0  0  0  0  0  0  0  0  0  0  0  0
    5.0506   -1.4296   -0.2146 C   0  0  0  0  0  0  0  0  0  0  0  0
    3.8931   -0.7103   -0.3971 C   0  0  0  0  0  0  0  0  0  0  0  0
   -0.3009    2.2890   -0.3387 C   0  0  0  0  0  0  0  0  0  0  0  0
   -5.0322   -0.8187   -1.1082 C   0  0  0  0  0  0  0  0  0  0  0  0
   -5.9079   -1.8826   -0.8676 C   0  0  0  0  0  0  0  0  0  0  0  0
   -5.5337   -3.2303   -1.3763 C   0  0  0  0  0  0  0  0  0  0  0  0
   -9.1270   -1.8339    1.5695 H   0  0  0  0  0  0  0  0  0  0  0  0
  -10.0414   -2.3798    0.1389 H   0  0  0  0  0  0  0  0  0  0  0  0
   -9.3640   -3.5675    1.2817 H   0  0  0  0  0  0  0  0  0  0  0  0
   -8.2672   -0.1481    0.8098 H   0  0  0  0  0  0  0  0  0  0  0  0
   -6.7376    1.6486    0.3784 H   0  0  0  0  0  0  0  0  0  0  0  0
   -2.9029    0.5526   -1.9043 H   0  0  0  0  0  0  0  0  0  0  0  0
   -1.5427    2.2955   -2.5985 H   0  0  0  0  0  0  0  0  0  0  0  0
   -2.8160    3.4574   -2.2454 H   0  0  0  0  0  0  0  0  0  0  0  0
   -2.8500    4.5629   -0.0600 H   0  0  0  0  0  0  0  0  0  0  0  0
   -1.4978    5.1534    1.8830 H   0  0  0  0  0  0  0  0  0  0  0  0
    0.5789    3.9588    2.4093 H   0  0  0  0  0  0  0  0  0  0  0  0
    1.7516    0.6865   -0.5465 H   0  0  0  0  0  0  0  0  0  0  0  0
    3.9629    1.0471    2.4818 H   0  0  0  0  0  0  0  0  0  0  0  0
    5.9969   -0.2207    2.7881 H   0  0  0  0  0  0  0  0  0  0  0  0
    6.9628   -3.0452    0.5519 H   0  0  0  0  0  0  0  0  0  0  0  0
    7.1973   -2.3239    2.1791 H   0  0  0  0  0  0  0  0  0  0  0  0
    9.5109   -2.7972   -0.0816 H   0  0  0  0  0  0  0  0  0  0  0  0
    9.5186   -2.4482    1.6748 H   0  0  0  0  0  0  0  0  0  0  0  0
   10.2441   -1.2087    0.5249 H   0  0  0  0  0  0  0  0  0  0  0  0
    8.7734   -0.2926   -1.1199 H   0  0  0  0  0  0  0  0  0  0  0  0
    7.0307   -0.0873   -0.7037 H   0  0  0  0  0  0  0  0  0  0  0  0
    7.6406   -1.6308   -1.4490 H   0  0  0  0  0  0  0  0  0  0  0  0
    5.3431   -2.1407   -1.0097 H   0  0  0  0  0  0  0  0  0  0  0  0
    3.2962   -0.8467   -1.2953 H   0  0  0  0  0  0  0  0  0  0  0  0
    0.0021    1.4873   -0.9866 H   0  0  0  0  0  0  0  0  0  0  0  0
   -4.1204   -1.0163   -1.6515 H   0  0  0  0  0  0  0  0  0  0  0  0
   -6.3635   -3.9386   -1.1221 H   0  0  0  0  0  0  0  0  0  0  0  0
   -4.6219   -3.5685   -0.8277 H   0  0  0  0  0  0  0  0  0  0  0  0
   -5.3586   -3.2286   -2.4848 H   0  0  0  0  0  0  0  0  0  0  0  0
  1  2  1  0
  2  3  1  0
  3  4  2  0
  4  5  1  0
  5  6  2  0
  6  7  1  0
  7  8  2  0
  7  9  1  0
  9 10  1  0
 10 11  1  0
 11 12  2  0
 12 13  1  0
 13 14  2  0
 14 15  1  0
 15 16  1  0
 16 17  2  0
 16 18  1  0
 18 19  1  0
 19 20  2  0
 20 21  1  0
 21 22  2  0
 22 23  1  0
 23 24  1  0
 24 25  1  0
 24 26  1  0
 22 27  1  0
 27 28  2  0
 15 29  2  0
  6 30  1  0
 30 31  2  0
 31 32  1  0
 31  3  1  0
 29 11  1  0
 28 19  1  0
  1 33  1  0
  1 34  1  0
  1 35  1  0
  4 36  1  0
  5 37  1  0
  9 38  1  0
 10 39  1  0
 10 40  1  0
 12 41  1  0
 13 42  1  0
 14 43  1  0
 18 44  1  0
 20 45  1  0
 21 46  1  0
 23 47  1  0
 23 48  1  0
 25 49  1  0
 25 50  1  0
 25 51  1  0
 26 52  1  0
 26 53  1  0
 26 54  1  0
 27 55  1  0
 28 56  1  0
 29 57  1  0
 30 58  1  0
 32 59  1  0
 32 60  1  0
 32 61  1  0
M  END
$$$$
