
     RDKit          3D

 99103  0  0  0  0  0  0  0  0999 V2000
   -3.5867    1.9336    2.3910 C   0  0  2  0  0  0  0  0  0  0  0  0
   -2.7183    3.1424    2.6417 C   0  0  0  0  0  0  0  0  0  0  0  0
   -2.5508    3.3793    4.1230 C   0  0  0  0  0  0  0  0  0  0  0  0
   -1.9187    2.1818    4.7674 C   0  0  0  0  0  0  0  0  0  0  0  0
   -1.6870    1.0477    3.7676 C   0  0  0  0  0  0  0  0  0  0  0  0
   -3.0546    0.7647    3.1297 C   0  0  2  0  0  0  0  0  0  0  0  0
   -3.1051   -0.5625    2.4966 C   0  0  0  0  0  0  0  0  0  0  0  0
   -3.1386   -0.5916    1.0362 N   0  0  0  0  0  0  0  0  0  0  0  0
   -1.8362   -0.5209    0.5109 C   0  0  0  0  0  0  0  0  0  0  0  0
   -1.6506   -0.6197   -0.9730 C   0  0  1  0  0  0  0  0  0  0  0  0
   -2.2728    0.4003   -1.6774 O   0  0  0  0  0  0  0  0  0  0  0  0
   -0.1936   -0.6176   -1.3559 C   0  0  2  0  0  0  0  0  0  0  0  0
    0.0140   -0.8518   -2.8464 C   0  0  0  0  0  0  0  0  0  0  0  0
   -0.6135    0.1436   -3.7213 C   0  0  0  0  0  0  0  0  0  0  0  0
    0.1517    1.2896   -3.9855 C   0  0  0  0  0  0  0  0  0  0  0  0
   -0.2839    2.3076   -4.8000 C   0  0  0  0  0  0  0  0  0  0  0  0
   -1.5150    2.2111   -5.3840 C   0  0  0  0  0  0  0  0  0  0  0  0
   -2.3046    1.1136   -5.1615 C   0  0  0  0  0  0  0  0  0  0  0  0
   -1.8489    0.0884   -4.3323 C   0  0  0  0  0  0  0  0  0  0  0  0
    0.5785   -1.6194   -0.6128 N   0  0  0  0  0  0  0  0  0  0  0  0
    1.8766   -1.2748   -0.1738 C   0  0  0  0  0  0  0  0  0  0  0  0
    2.5755   -0.2045   -0.2992 O   0  0  0  0  0  0  0  0  0  0  0  0
    2.8752   -2.0617    0.5939 C   0  0  2  0  0  0  0  0  0  0  0  0
    2.2497   -2.2890    1.9791 C   0  0  0  0  0  0  0  0  0  0  0  0
    3.1794   -3.0945    2.8417 C   0  0  0  0  0  0  0  0  0  0  0  0
    4.3233   -3.8439    3.1858 N   0  0  0  0  0  0  0  0  0  0  0  0
    2.5713   -3.1397    3.9668 O   0  0  0  0  0  0  0  0  0  0  0  0
    4.1238   -1.3825    0.7128 N   0  0  0  0  0  0  0  0  0  0  0  0
    5.4437   -1.8107    0.4924 C   0  0  0  0  0  0  0  0  0  0  0  0
    5.4086   -3.0469    0.1252 O   0  0  0  0  0  0  0  0  0  0  0  0
    6.7420   -1.1878    0.5882 C   0  0  0  0  0  0  0  0  0  0  0  0
    6.6915    0.1270    0.9780 N   0  0  0  0  0  0  0  0  0  0  0  0
    7.8610    0.8118    1.1072 C   0  0  0  0  0  0  0  0  0  0  0  0
    9.0506    0.1757    0.8465 C   0  0  0  0  0  0  0  0  0  0  0  0
   10.2441    0.8761    0.9824 C   0  0  0  0  0  0  0  0  0  0  0  0
   10.1998    2.2048    1.3799 C   0  0  0  0  0  0  0  0  0  0  0  0
    9.0276    2.8570    1.6445 C   0  0  0  0  0  0  0  0  0  0  0  0
    7.8471    2.1493    1.5053 C   0  0  0  0  0  0  0  0  0  0  0  0
    9.0512   -1.1328    0.4616 C   0  0  0  0  0  0  0  0  0  0  0  0
    7.8851   -1.8976    0.3089 C   0  0  0  0  0  0  0  0  0  0  0  0
   -4.1335    0.3236    0.6380 C   0  0  1  0  0  0  0  0  0  0  0  0
   -3.6717    1.7326    0.8937 C   0  0  0  0  0  0  0  0  0  0  0  0
   -4.8528    0.1111   -0.6079 C   0  0  0  0  0  0  0  0  0  0  0  0
   -5.5030    1.1703   -0.9221 O   0  0  0  0  0  0  0  0  0  0  0  0
   -4.9784   -0.9623   -1.4886 N   0  0  0  0  0  0  0  0  0  0  0  0
   -5.7301   -1.0435   -2.6944 C   0  0  0  0  0  0  0  0  0  0  0  0
   -5.3668   -0.0815   -3.7667 C   0  0  0  0  0  0  0  0  0  0  0  0
   -5.6553   -2.4467   -3.3043 C   0  0  0  0  0  0  0  0  0  0  0  0
   -7.2087   -0.8549   -2.3501 C   0  0  0  0  0  0  0  0  0  0  0  0
   -4.6251    2.2263    2.7221 H   0  0  0  0  0  0  0  0  0  0  0  0
   -3.2832    4.0227    2.2068 H   0  0  0  0  0  0  0  0  0  0  0  0
   -1.7628    3.1018    2.1039 H   0  0  0  0  0  0  0  0  0  0  0  0
   -1.9313    4.2769    4.2754 H   0  0  0  0  0  0  0  0  0  0  0  0
   -3.5665    3.5860    4.5240 H   0  0  0  0  0  0  0  0  0  0  0  0
   -2.6509    1.7759    5.5162 H   0  0  0  0  0  0  0  0  0  0  0  0
   -0.9874    2.4678    5.2719 H   0  0  0  0  0  0  0  0  0  0  0  0
   -0.9389    1.3975    3.0556 H   0  0  0  0  0  0  0  0  0  0  0  0
   -1.4386    0.1519    4.3456 H   0  0  0  0  0  0  0  0  0  0  0  0
   -3.7078    0.6708    4.0570 H   0  0  0  0  0  0  0  0  0  0  0  0
   -4.0065   -1.1722    2.7992 H   0  0  0  0  0  0  0  0  0  0  0  0
   -2.2434   -1.1780    2.8081 H   0  0  0  0  0  0  0  0  0  0  0  0
   -1.2370    0.3542    0.8437 H   0  0  0  0  0  0  0  0  0  0  0  0
   -1.2761   -1.4119    0.9335 H   0  0  0  0  0  0  0  0  0  0  0  0
   -2.0494   -1.6126   -1.3490 H   0  0  0  0  0  0  0  0  0  0  0  0
   -1.7287    1.2274   -1.6124 H   0  0  0  0  0  0  0  0  0  0  0  0
    0.2653    0.3566   -1.1513 H   0  0  0  0  0  0  0  0  0  0  0  0
    1.1003   -0.8917   -3.0883 H   0  0  0  0  0  0  0  0  0  0  0  0
   -0.3945   -1.8521   -3.1048 H   0  0  0  0  0  0  0  0  0  0  0  0
    1.1381    1.4126   -3.5432 H   0  0  0  0  0  0  0  0  0  0  0  0
    0.3290    3.1751   -4.9833 H   0  0  0  0  0  0  0  0  0  0  0  0
   -1.8697    3.0237   -6.0376 H   0  0  0  0  0  0  0  0  0  0  0  0
   -3.2809    0.9914   -5.5987 H   0  0  0  0  0  0  0  0  0  0  0  0
   -2.4292   -0.8083   -4.1208 H   0  0  0  0  0  0  0  0  0  0  0  0
    0.3136   -2.5906   -0.3422 H   0  0  0  0  0  0  0  0  0  0  0  0
    2.9707   -3.0591    0.1398 H   0  0  0  0  0  0  0  0  0  0  0  0
    2.1613   -1.2628    2.4025 H   0  0  0  0  0  0  0  0  0  0  0  0
    1.3039   -2.8170    1.8531 H   0  0  0  0  0  0  0  0  0  0  0  0
    5.1236   -3.3152    3.6028 H   0  0  0  0  0  0  0  0  0  0  0  0
    4.1760   -4.8720    2.9551 H   0  0  0  0  0  0  0  0  0  0  0  0
    4.1167   -0.3579    1.0208 H   0  0  0  0  0  0  0  0  0  0  0  0
   11.1453    0.3124    0.7595 H   0  0  0  0  0  0  0  0  0  0  0  0
   11.1446    2.7319    1.4797 H   0  0  0  0  0  0  0  0  0  0  0  0
    9.0864    3.8775    1.9445 H   0  0  0  0  0  0  0  0  0  0  0  0
    6.9300    2.6591    1.7125 H   0  0  0  0  0  0  0  0  0  0  0  0
    9.9735   -1.6842    0.2424 H   0  0  0  0  0  0  0  0  0  0  0  0
    7.8557   -2.9235    0.0105 H   0  0  0  0  0  0  0  0  0  0  0  0
   -4.9514    0.2020    1.4727 H   0  0  0  0  0  0  0  0  0  0  0  0
   -4.4668    2.3863    0.4814 H   0  0  0  0  0  0  0  0  0  0  0  0
   -2.7296    2.0208    0.4167 H   0  0  0  0  0  0  0  0  0  0  0  0
   -4.4155   -1.7998   -1.1566 H   0  0  0  0  0  0  0  0  0  0  0  0
   -4.9121    0.8591   -3.3978 H   0  0  0  0  0  0  0  0  0  0  0  0
   -4.7708   -0.5499   -4.5871 H   0  0  0  0  0  0  0  0  0  0  0  0
   -6.3149    0.2372   -4.2893 H   0  0  0  0  0  0  0  0  0  0  0  0
   -6.4779   -2.5470   -4.0379 H   0  0  0  0  0  0  0  0  0  0  0  0
   -4.6987   -2.5335   -3.8766 H   0  0  0  0  0  0  0  0  0  0  0  0
   -5.7653   -3.2403   -2.5478 H   0  0  0  0  0  0  0  0  0  0  0  0
   -7.5236   -1.5390   -1.5101 H   0  0  0  0  0  0  0  0  0  0  0  0
   -7.8470   -1.0576   -3.2502 H   0  0  0  0  0  0  0  0  0  0  0  0
   -7.4449    0.1676   -2.0107 H   0  0  0  0  0  0  0  0  0  0  0  0
  1  2  1  0
  2  3  1  0
  3  4  1  0
  4  5  1  0
  5  6  1  0
  6  7  1  0
  7  8  1  0
  8  9  1  0
  9 10  1  0
 10 11  1  0
 10 12  1  0
 12 13  1  0
 13 14  1  0
 14 15  2  0
 15 16  1  0
 16 17  2  0
 17 18  1  0
 18 19  2  0
 12 20  1  0
 20 21  1  0
 21 22  2  0
 21 23  1  0
 23 24  1  0
 24 25  1  0
 25 26  1  0
 25 27  2  0
 23 28  1  0
 28 29  1  0
 29 30  2  0
 29 31  1  0
 31 32  2  0
 32 33  1  0
 33 34  2  0
 34 35  1  0
 35 36  2  0
 36 37  1  0
 37 38  2  0
 34 39  1  0
 39 40  2  0
  8 41  1  0
 41 42  1  0
 41 43  1  0
 43 44  2  0
 43 45  1  0
 45 46  1  0
 46 47  1  0
 46 48  1  0
 46 49  1  0
  6  1  1  0
 19 14  1  0
 40 31  1  0
 42  1  1  0
 38 33  1  0
  1 50  1  1
  2 51  1  0
  2 52  1  0
  3 53  1  0
  3 54  1  0
  4 55  1  0
  4 56  1  0
  5 57  1  0
  5 58  1  0
  6 59  1  1
  7 60  1  0
  7 61  1  0
  9 62  1  0
  9 63  1  0
 10 64  1  6
 11 65  1  0
 12 66  1  1
 13 67  1  0
 13 68  1  0
 15 69  1  0
 16 70  1  0
 17 71  1  0
 18 72  1  0
 19 73  1  0
 20 74  1  0
 23 75  1  6
 24 76  1  0
 24 77  1  0
 26 78  1  0
 26 79  1  0
 28 80  1  0
 35 81  1  0
 36 82  1  0
 37 83  1  0
 38 84  1  0
 39 85  1  0
 40 86  1  0
 41 87  1  1
 42 88  1  0
 42 89  1  0
 45 90  1  0
 47 91  1  0
 47 92  1  0
 47 93  1  0
 48 94  1  0
 48 95  1  0
 48 96  1  0
 49 97  1  0
 49 98  1  0
 49 99  1  0
M  END
$$$$
