
     RDKit          3D

 70 72  0  0  0  0  0  0  0  0999 V2000
    8.0694   -1.4900   -1.8536 C   0  0  0  0  0  0  0  0  0  0  0  0
    7.2028   -2.4255   -1.4728 C   0  0  0  0  0  0  0  0  0  0  0  0
    6.5544   -2.2944   -0.1772 C   0  0  0  0  0  0  0  0  0  0  0  0
    6.8127   -1.3036    0.5794 O   0  0  0  0  0  0  0  0  0  0  0  0
    5.6338   -3.2843    0.2307 N   0  0  0  0  0  0  0  0  0  0  0  0
    4.9772   -3.1960    1.5035 C   0  0  0  0  0  0  0  0  0  0  0  0
    4.1954   -1.9229    1.5799 C   0  0  0  0  0  0  0  0  0  0  0  0
    3.1726   -1.9429    0.4211 C   0  0  0  0  0  0  0  0  0  0  0  0
    2.4174   -0.6723    0.5500 C   0  0  0  0  0  0  0  0  0  0  0  0
    1.3616   -0.3874   -0.4720 C   0  0  2  0  0  0  0  0  0  0  0  0
    0.8006    0.8954   -0.1057 N   0  0  0  0  0  0  0  0  0  0  0  0
    0.7775    1.9524   -1.0625 C   0  0  0  0  0  0  0  0  0  0  0  0
    1.2369    1.7405   -2.1915 O   0  0  0  0  0  0  0  0  0  0  0  0
    0.2617    3.2255   -0.7926 O   0  0  0  0  0  0  0  0  0  0  0  0
    0.3133    4.1835   -1.8599 C   0  0  0  0  0  0  0  0  0  0  0  0
   -0.2558    5.4734   -1.4117 C   0  0  0  0  0  0  0  0  0  0  0  0
    0.6192    6.3817   -0.8615 C   0  0  0  0  0  0  0  0  0  0  0  0
    0.1455    7.6190   -0.4163 C   0  0  0  0  0  0  0  0  0  0  0  0
   -1.2081    7.8259   -0.5745 C   0  0  0  0  0  0  0  0  0  0  0  0
   -2.0855    6.9346   -1.1174 C   0  0  0  0  0  0  0  0  0  0  0  0
   -1.6059    5.7120   -1.5556 C   0  0  0  0  0  0  0  0  0  0  0  0
    0.3403   -1.4362   -0.4745 C   0  0  0  0  0  0  0  0  0  0  0  0
    0.7077   -2.6396   -0.8440 O   0  0  0  0  0  0  0  0  0  0  0  0
   -1.0135   -1.3355   -0.1313 N   0  0  0  0  0  0  0  0  0  0  0  0
   -1.7424   -0.1990    0.3398 C   0  0  0  0  0  0  0  0  0  0  0  0
   -3.2440   -0.5789    0.2881 C   0  0  0  0  0  0  0  0  0  0  0  0
   -3.4834   -1.7023    1.2714 C   0  0  0  0  0  0  0  0  0  0  0  0
   -4.9177   -1.9758    1.3002 C   0  0  0  0  0  0  0  0  0  0  0  0
   -5.5486   -2.0647    2.5203 C   0  0  0  0  0  0  0  0  0  0  0  0
   -6.8899   -2.3094    2.6612 C   0  0  0  0  0  0  0  0  0  0  0  0
   -7.6694   -2.4792    1.5275 C   0  0  0  0  0  0  0  0  0  0  0  0
   -7.0543   -2.3927    0.3093 C   0  0  0  0  0  0  0  0  0  0  0  0
   -5.7073   -2.1467    0.1855 C   0  0  0  0  0  0  0  0  0  0  0  0
   -2.6090   -2.8685    0.9739 C   0  0  0  0  0  0  0  0  0  0  0  0
   -1.8336   -2.5568   -0.2843 C   0  0  0  0  0  0  0  0  0  0  0  0
    8.5264   -1.6443   -2.8403 H   0  0  0  0  0  0  0  0  0  0  0  0
    8.2958   -0.6445   -1.2276 H   0  0  0  0  0  0  0  0  0  0  0  0
    6.9647   -3.2759   -2.0920 H   0  0  0  0  0  0  0  0  0  0  0  0
    5.4424   -4.0806   -0.4106 H   0  0  0  0  0  0  0  0  0  0  0  0
    5.6887   -3.2870    2.3597 H   0  0  0  0  0  0  0  0  0  0  0  0
    4.2051   -4.0258    1.5731 H   0  0  0  0  0  0  0  0  0  0  0  0
    4.7672   -1.0020    1.6141 H   0  0  0  0  0  0  0  0  0  0  0  0
    3.6226   -1.9645    2.5518 H   0  0  0  0  0  0  0  0  0  0  0  0
    3.7390   -1.9253   -0.5279 H   0  0  0  0  0  0  0  0  0  0  0  0
    2.5159   -2.8222    0.5295 H   0  0  0  0  0  0  0  0  0  0  0  0
    1.8843   -0.6367    1.5472 H   0  0  0  0  0  0  0  0  0  0  0  0
    3.0877    0.2310    0.5900 H   0  0  0  0  0  0  0  0  0  0  0  0
    1.8232   -0.2819   -1.5059 H   0  0  0  0  0  0  0  0  0  0  0  0
    0.4350    1.0795    0.8462 H   0  0  0  0  0  0  0  0  0  0  0  0
   -0.2493    3.7598   -2.7171 H   0  0  0  0  0  0  0  0  0  0  0  0
    1.3690    4.2674   -2.2136 H   0  0  0  0  0  0  0  0  0  0  0  0
    1.6737    6.1741   -0.7598 H   0  0  0  0  0  0  0  0  0  0  0  0
    0.8320    8.3285    0.0129 H   0  0  0  0  0  0  0  0  0  0  0  0
   -1.5819    8.7833   -0.2333 H   0  0  0  0  0  0  0  0  0  0  0  0
   -3.1457    7.1190   -1.2255 H   0  0  0  0  0  0  0  0  0  0  0  0
   -2.2949    4.9948   -1.9909 H   0  0  0  0  0  0  0  0  0  0  0  0
   -1.6183    0.7317   -0.2080 H   0  0  0  0  0  0  0  0  0  0  0  0
   -1.5046   -0.0562    1.4190 H   0  0  0  0  0  0  0  0  0  0  0  0
   -3.7416    0.3286    0.7301 H   0  0  0  0  0  0  0  0  0  0  0  0
   -3.5471   -0.7862   -0.7342 H   0  0  0  0  0  0  0  0  0  0  0  0
   -3.1762   -1.3259    2.2668 H   0  0  0  0  0  0  0  0  0  0  0  0
   -4.9880   -1.9398    3.4559 H   0  0  0  0  0  0  0  0  0  0  0  0
   -7.4052   -2.3818    3.6084 H   0  0  0  0  0  0  0  0  0  0  0  0
   -8.7317   -2.6735    1.6115 H   0  0  0  0  0  0  0  0  0  0  0  0
   -7.6467   -2.5199   -0.6072 H   0  0  0  0  0  0  0  0  0  0  0  0
   -5.2746   -2.0856   -0.7698 H   0  0  0  0  0  0  0  0  0  0  0  0
   -3.1408   -3.8079    0.7771 H   0  0  0  0  0  0  0  0  0  0  0  0
   -1.8702   -3.0695    1.7751 H   0  0  0  0  0  0  0  0  0  0  0  0
   -1.1885   -3.4324   -0.4878 H   0  0  0  0  0  0  0  0  0  0  0  0
   -2.4992   -2.4675   -1.1806 H   0  0  0  0  0  0  0  0  0  0  0  0
  1  2  2  3
  2  3  1  0
  3  4  2  0
  3  5  1  0
  5  6  1  0
  6  7  1  0
  7  8  1  0
  8  9  1  0
  9 10  1  0
 10 11  1  0
 11 12  1  0
 12 13  2  0
 12 14  1  0
 14 15  1  0
 15 16  1  0
 16 17  2  0
 17 18  1  0
 18 19  2  0
 19 20  1  0
 20 21  2  0
 10 22  1  0
 22 23  2  0
 22 24  1  0
 24 25  1  0
 25 26  1  0
 26 27  1  0
 27 28  1  0
 28 29  2  0
 29 30  1  0
 30 31  2  0
 31 32  1  0
 32 33  2  0
 27 34  1  0
 34 35  1  0
 21 16  1  0
 35 24  1  0
 33 28  1  0
  1 36  1  0
  1 37  1  0
  2 38  1  0
  5 39  1  0
  6 40  1  0
  6 41  1  0
  7 42  1  0
  7 43  1  0
  8 44  1  0
  8 45  1  0
  9 46  1  0
  9 47  1  0
 10 48  1  6
 11 49  1  0
 15 50  1  0
 15 51  1  0
 17 52  1  0
 18 53  1  0
 19 54  1  0
 20 55  1  0
 21 56  1  0
 25 57  1  0
 25 58  1  0
 26 59  1  0
 26 60  1  0
 27 61  1  0
 29 62  1  0
 30 63  1  0
 31 64  1  0
 32 65  1  0
 33 66  1  0
 34 67  1  0
 34 68  1  0
 35 69  1  0
 35 70  1  0
M  END
$$$$
