
     RDKit          3D

 52 57  0  0  0  0  0  0  0  0999 V2000
    2.8084   -3.1359    0.2375 C   0  0  0  0  0  0  0  0  0  0  0  0
    3.7404   -2.0214   -0.1660 C   0  0  2  0  0  0  0  0  0  0  0  0
    3.2846   -0.7275    0.4498 C   0  0  0  0  0  0  0  0  0  0  0  0
    3.6186   -0.4254    1.7480 C   0  0  0  0  0  0  0  0  0  0  0  0
    3.1921    0.7770    2.3129 C   0  0  0  0  0  0  0  0  0  0  0  0
    2.4276    1.6661    1.5533 C   0  0  0  0  0  0  0  0  0  0  0  0
    2.0856    1.3848    0.2631 C   0  0  0  0  0  0  0  0  0  0  0  0
    1.2703    2.2831   -0.6132 C   0  0  0  0  0  0  0  0  0  0  0  0
   -0.1233    1.9911   -0.5147 N   0  0  0  0  0  0  0  0  0  0  0  0
   -0.7944    1.1211   -1.2619 C   0  0  0  0  0  0  0  0  0  0  0  0
   -0.3207    0.4089   -2.1774 O   0  0  0  0  0  0  0  0  0  0  0  0
   -2.0970    1.0823   -0.9174 N   0  0  0  0  0  0  0  0  0  0  0  0
   -3.1427    0.2980   -1.4605 C   0  0  0  0  0  0  0  0  0  0  0  0
   -3.7110    0.4630   -2.6635 N   0  0  0  0  0  0  0  0  0  0  0  0
   -4.6425   -0.4335   -2.8433 O   0  0  0  0  0  0  0  0  0  0  0  0
   -4.7544   -1.2290   -1.8085 C   0  0  0  0  0  0  0  0  0  0  0  0
   -5.5658   -2.3037   -1.5140 C   0  0  0  0  0  0  0  0  0  0  0  0
   -5.4538   -2.9665   -0.3088 C   0  0  0  0  0  0  0  0  0  0  0  0
   -6.4806   -4.3393    0.0839 Cl  0  0  0  0  0  0  0  0  0  0  0  0
   -4.5102   -2.5229    0.5868 C   0  0  0  0  0  0  0  0  0  0  0  0
   -3.6897   -1.4400    0.2948 C   0  0  0  0  0  0  0  0  0  0  0  0
   -3.7931   -0.7773   -0.8958 C   0  0  0  0  0  0  0  0  0  0  0  0
   -2.2672    1.9706    0.0995 C   0  0  0  0  0  0  0  0  0  0  0  0
   -3.3204    2.3815    0.8582 C   0  0  0  0  0  0  0  0  0  0  0  0
   -3.1173    3.3386    1.8378 C   0  0  0  0  0  0  0  0  0  0  0  0
   -1.8803    3.8896    2.0697 C   0  0  0  0  0  0  0  0  0  0  0  0
   -0.8131    3.4782    1.3065 C   0  0  0  0  0  0  0  0  0  0  0  0
   -1.0110    2.5270    0.3318 C   0  0  0  0  0  0  0  0  0  0  0  0
    2.5332    0.1711   -0.2621 C   0  0  0  0  0  0  0  0  0  0  0  0
    3.7479   -1.8036   -1.5629 O   0  0  0  0  0  0  0  0  0  0  0  0
    5.0509   -1.5877   -1.9777 C   0  0  0  0  0  0  0  0  0  0  0  0
    5.4825   -1.1299   -3.2377 O   0  0  0  0  0  0  0  0  0  0  0  0
    5.8709   -1.8720   -1.0179 N   0  0  0  0  0  0  0  0  0  0  0  0
    5.1424   -2.3043    0.1199 C   0  0  0  0  0  0  0  0  0  0  0  0
    5.6565   -2.8179    1.1352 O   0  0  0  0  0  0  0  0  0  0  0  0
    2.3001   -3.5795   -0.6414 H   0  0  0  0  0  0  0  0  0  0  0  0
    2.0063   -2.7194    0.8805 H   0  0  0  0  0  0  0  0  0  0  0  0
    3.3309   -3.8954    0.8521 H   0  0  0  0  0  0  0  0  0  0  0  0
    4.1998   -1.0870    2.3456 H   0  0  0  0  0  0  0  0  0  0  0  0
    3.4655    0.9863    3.3227 H   0  0  0  0  0  0  0  0  0  0  0  0
    2.1037    2.5847    1.9880 H   0  0  0  0  0  0  0  0  0  0  0  0
    1.5143    3.3446   -0.3684 H   0  0  0  0  0  0  0  0  0  0  0  0
    1.6585    2.1301   -1.6500 H   0  0  0  0  0  0  0  0  0  0  0  0
   -6.3162   -2.6641   -2.2146 H   0  0  0  0  0  0  0  0  0  0  0  0
   -4.4099   -3.0396    1.5482 H   0  0  0  0  0  0  0  0  0  0  0  0
   -2.9416   -1.0834    0.9972 H   0  0  0  0  0  0  0  0  0  0  0  0
   -4.3016    1.9563    0.6870 H   0  0  0  0  0  0  0  0  0  0  0  0
   -3.9663    3.6464    2.4239 H   0  0  0  0  0  0  0  0  0  0  0  0
   -1.7489    4.6376    2.8433 H   0  0  0  0  0  0  0  0  0  0  0  0
    0.1756    3.8990    1.4686 H   0  0  0  0  0  0  0  0  0  0  0  0
    2.2816   -0.0800   -1.2731 H   0  0  0  0  0  0  0  0  0  0  0  0
    6.2247   -0.4311   -3.2948 H   0  0  0  0  0  0  0  0  0  0  0  0
  2  1  1  6
  2  3  1  0
  3  4  2  0
  4  5  1  0
  5  6  2  0
  6  7  1  0
  7  8  1  0
  8  9  1  0
  9 10  1  0
 10 11  2  0
 10 12  1  0
 12 13  1  0
 13 14  2  0
 14 15  1  0
 15 16  1  0
 16 17  2  0
 17 18  1  0
 18 19  1  0
 18 20  2  0
 20 21  1  0
 21 22  2  0
 12 23  1  0
 23 24  2  0
 24 25  1  0
 25 26  2  0
 26 27  1  0
 27 28  2  0
  7 29  2  0
  2 30  1  0
 30 31  1  0
 31 32  1  0
 31 33  2  0
 33 34  1  0
 34 35  2  0
 34  2  1  0
 29  3  1  0
 28  9  1  0
 22 13  1  0
 28 23  1  0
 22 16  1  0
  1 36  1  0
  1 37  1  0
  1 38  1  0
  4 39  1  0
  5 40  1  0
  6 41  1  0
  8 42  1  0
  8 43  1  0
 17 44  1  0
 20 45  1  0
 21 46  1  0
 24 47  1  0
 25 48  1  0
 26 49  1  0
 27 50  1  0
 29 51  1  0
 32 52  1  0
M  END
$$$$
