
     RDKit          3D

 70 72  0  0  0  0  0  0  0  0999 V2000
   -6.0097    1.4582   -1.3322 C   0  0  0  0  0  0  0  0  0  0  0  0
   -5.7971    0.2748   -0.4736 C   0  0  1  0  0  0  0  0  0  0  0  0
   -4.4064   -0.1646   -0.1993 C   0  0  0  0  0  0  0  0  0  0  0  0
   -3.5519   -0.5617   -1.3338 C   0  0  1  0  0  0  0  0  0  0  0  0
   -3.3347    0.6037   -2.3237 C   0  0  0  0  0  0  0  0  0  0  0  0
   -2.2001   -1.0175   -0.8821 C   0  0  0  0  0  0  0  0  0  0  0  0
   -1.2278    0.1338   -0.0056 S   0  0  0  0  0  6  0  0  0  0  0  0
   -1.0238    1.4245   -0.6892 O   0  0  0  0  0  0  0  0  0  0  0  0
   -1.9073    0.4250    1.3282 O   0  0  0  0  0  0  0  0  0  0  0  0
    0.3195   -0.5053    0.4226 N   0  0  0  0  0  0  0  0  0  0  0  0
    1.1331   -0.8732   -0.6833 C   0  0  0  0  0  0  0  0  0  0  0  0
    2.0571    0.2619   -1.0184 C   0  0  0  0  0  0  0  0  0  0  0  0
    2.9663    0.5771    0.1411 C   0  0  0  0  0  0  0  0  0  0  0  0
    4.3491    0.0347   -0.2175 C   0  0  0  0  0  0  0  0  0  0  0  0
    5.3358    0.2939    0.8736 C   0  0  0  0  0  0  0  0  0  0  0  0
    6.6989   -0.1691    0.6508 C   0  0  0  0  0  0  0  0  0  0  0  0
    7.0611   -1.4311    1.1737 C   0  0  0  0  0  0  0  0  0  0  0  0
    8.2950   -1.9552    1.0023 C   0  0  0  0  0  0  0  0  0  0  0  0
    9.2231   -1.2302    0.2944 C   0  0  0  0  0  0  0  0  0  0  0  0
   10.4544   -1.7741    0.1336 F   0  0  0  0  0  0  0  0  0  0  0  0
    8.8774   -0.0111   -0.2117 C   0  0  0  0  0  0  0  0  0  0  0  0
    7.6108    0.5676   -0.0564 C   0  0  0  0  0  0  0  0  0  0  0  0
    7.3056    1.8760   -0.6049 C   0  0  0  0  0  0  0  0  0  0  0  0
    6.8813    2.7939    0.3409 F   0  0  0  0  0  0  0  0  0  0  0  0
    6.5848    1.9006   -1.7710 F   0  0  0  0  0  0  0  0  0  0  0  0
    8.5657    2.4233   -0.9972 F   0  0  0  0  0  0  0  0  0  0  0  0
    2.4669   -0.0705    1.3957 C   0  0  0  0  0  0  0  0  0  0  0  0
    0.9611    0.1885    1.4843 C   0  0  0  0  0  0  0  0  0  0  0  0
   -4.1193   -1.6760   -2.0947 N   0  0  0  0  0  0  0  0  0  0  0  0
   -4.3567   -1.5166   -3.4057 O   0  0  0  0  0  0  0  0  0  0  0  0
   -4.4087   -2.8931   -1.4537 C   0  0  0  0  0  0  0  0  0  0  0  0
   -4.2315   -3.1271   -0.2449 O   0  0  0  0  0  0  0  0  0  0  0  0
   -6.4236    0.5727    0.8609 C   0  0  0  0  0  0  0  0  0  0  0  0
   -7.4985   -0.0668    1.3297 N   0  0  0  0  0  0  0  0  0  0  0  0
   -8.0085    0.2589    2.5503 C   0  0  0  0  0  0  0  0  0  0  0  0
   -7.4367    1.2450    3.3259 C   0  0  0  0  0  0  0  0  0  0  0  0
   -7.9534    1.5678    4.5518 F   0  0  0  0  0  0  0  0  0  0  0  0
   -6.3255    1.8928    2.8197 C   0  0  0  0  0  0  0  0  0  0  0  0
   -5.8653    1.5303    1.6095 N   0  0  0  0  0  0  0  0  0  0  0  0
   -5.8641    1.3469   -2.4034 H   0  0  0  0  0  0  0  0  0  0  0  0
   -5.5466    2.3931   -0.8951 H   0  0  0  0  0  0  0  0  0  0  0  0
   -7.1200    1.7024   -1.2382 H   0  0  0  0  0  0  0  0  0  0  0  0
   -6.4299   -0.5569   -0.9069 H   0  0  0  0  0  0  0  0  0  0  0  0
   -3.8770    0.6806    0.3196 H   0  0  0  0  0  0  0  0  0  0  0  0
   -4.4383   -0.9687    0.5587 H   0  0  0  0  0  0  0  0  0  0  0  0
   -3.5479    1.5643   -1.8583 H   0  0  0  0  0  0  0  0  0  0  0  0
   -3.8783    0.3877   -3.2619 H   0  0  0  0  0  0  0  0  0  0  0  0
   -2.2600    0.6432   -2.6228 H   0  0  0  0  0  0  0  0  0  0  0  0
   -1.6299   -1.2649   -1.8345 H   0  0  0  0  0  0  0  0  0  0  0  0
   -2.2555   -2.0073   -0.3476 H   0  0  0  0  0  0  0  0  0  0  0  0
    0.4479   -0.9916   -1.5731 H   0  0  0  0  0  0  0  0  0  0  0  0
    1.6605   -1.8407   -0.5621 H   0  0  0  0  0  0  0  0  0  0  0  0
    2.6183    0.0390   -1.9487 H   0  0  0  0  0  0  0  0  0  0  0  0
    1.4130    1.1603   -1.1887 H   0  0  0  0  0  0  0  0  0  0  0  0
    3.0970    1.6551    0.3096 H   0  0  0  0  0  0  0  0  0  0  0  0
    4.1593   -1.0802   -0.3411 H   0  0  0  0  0  0  0  0  0  0  0  0
    4.5997    0.3773   -1.2181 H   0  0  0  0  0  0  0  0  0  0  0  0
    5.2905    1.3610    1.2306 H   0  0  0  0  0  0  0  0  0  0  0  0
    4.9296   -0.2597    1.7757 H   0  0  0  0  0  0  0  0  0  0  0  0
    6.2974   -1.9787    1.7307 H   0  0  0  0  0  0  0  0  0  0  0  0
    8.4998   -2.9314    1.4337 H   0  0  0  0  0  0  0  0  0  0  0  0
    9.6169    0.5471   -0.7657 H   0  0  0  0  0  0  0  0  0  0  0  0
    2.6560   -1.1520    1.4019 H   0  0  0  0  0  0  0  0  0  0  0  0
    2.9155    0.3682    2.2888 H   0  0  0  0  0  0  0  0  0  0  0  0
    0.8325    1.2835    1.3398 H   0  0  0  0  0  0  0  0  0  0  0  0
    0.5799   -0.0779    2.4888 H   0  0  0  0  0  0  0  0  0  0  0  0
   -4.2531   -2.3400   -3.9389 H   0  0  0  0  0  0  0  0  0  0  0  0
   -4.8305   -3.7514   -2.0168 H   0  0  0  0  0  0  0  0  0  0  0  0
   -8.8790   -0.2448    2.9528 H   0  0  0  0  0  0  0  0  0  0  0  0
   -5.8639    2.6743    3.4225 H   0  0  0  0  0  0  0  0  0  0  0  0
  1  2  1  0
  2  3  1  0
  3  4  1  0
  4  5  1  0
  4  6  1  0
  6  7  1  0
  7  8  2  0
  7  9  2  0
  7 10  1  0
 10 11  1  0
 11 12  1  0
 12 13  1  0
 13 14  1  0
 14 15  1  0
 15 16  1  0
 16 17  2  0
 17 18  1  0
 18 19  2  0
 19 20  1  0
 19 21  1  0
 21 22  2  0
 22 23  1  0
 23 24  1  0
 23 25  1  0
 23 26  1  0
 13 27  1  0
 27 28  1  0
  4 29  1  6
 29 30  1  0
 29 31  1  0
 31 32  2  0
  2 33  1  0
 33 34  2  0
 34 35  1  0
 35 36  2  0
 36 37  1  0
 36 38  1  0
 38 39  2  0
 28 10  1  0
 39 33  1  0
 22 16  1  0
  1 40  1  0
  1 41  1  0
  1 42  1  0
  2 43  1  6
  3 44  1  0
  3 45  1  0
  5 46  1  0
  5 47  1  0
  5 48  1  0
  6 49  1  0
  6 50  1  0
 11 51  1  0
 11 52  1  0
 12 53  1  0
 12 54  1  0
 13 55  1  0
 14 56  1  0
 14 57  1  0
 15 58  1  0
 15 59  1  0
 17 60  1  0
 18 61  1  0
 21 62  1  0
 27 63  1  0
 27 64  1  0
 28 65  1  0
 28 66  1  0
 30 67  1  0
 31 68  1  0
 35 69  1  0
 38 70  1  0
M  END
$$$$
