
     RDKit          3D

 49 50  0  0  0  0  0  0  0  0999 V2000
    5.5726   -0.9022    1.0423 C   0  0  0  0  0  0  0  0  0  0  0  0
    4.9214    0.1661    0.2305 C   0  0  0  0  0  0  0  0  0  0  0  0
    5.2420   -0.0528   -1.2235 C   0  0  0  0  0  0  0  0  0  0  0  0
    5.4638    1.5031    0.7095 C   0  0  0  0  0  0  0  0  0  0  0  0
    3.4799    0.2268    0.4382 N   0  0  0  0  0  0  0  0  0  0  0  0
    2.8214   -0.9839    0.0938 C   0  0  0  0  0  0  0  0  0  0  0  0
    1.3453   -0.8808    0.3675 C   0  0  0  0  0  0  0  0  0  0  0  0
    1.1516   -0.6063    1.7342 O   0  0  0  0  0  0  0  0  0  0  0  0
    0.7060    0.1863   -0.4517 C   0  0  0  0  0  0  0  0  0  0  0  0
   -0.6607    0.2363   -0.2297 O   0  0  0  0  0  0  0  0  0  0  0  0
   -1.6419   -0.6549   -0.4452 C   0  0  0  0  0  0  0  0  0  0  0  0
   -1.7634   -1.9205   -0.9532 C   0  0  0  0  0  0  0  0  0  0  0  0
   -2.9095   -2.6401   -1.0725 C   0  0  0  0  0  0  0  0  0  0  0  0
   -4.0889   -2.0693   -0.6499 C   0  0  0  0  0  0  0  0  0  0  0  0
   -4.0735   -0.7967   -0.1230 C   0  0  0  0  0  0  0  0  0  0  0  0
   -2.8576   -0.1084   -0.0273 C   0  0  0  0  0  0  0  0  0  0  0  0
   -3.0894    1.2521    0.5760 C   0  0  0  0  0  0  0  0  0  0  0  0
   -4.2094    1.9946   -0.0758 C   0  0  2  0  0  0  0  0  0  0  0  0
   -4.6305    3.0034    0.8096 O   0  0  0  0  0  0  0  0  0  0  0  0
   -5.4091    1.1717   -0.4129 C   0  0  2  0  0  0  0  0  0  0  0  0
   -6.5985    1.7893   -0.1077 O   0  0  0  0  0  0  0  0  0  0  0  0
   -5.3580   -0.1562    0.3414 C   0  0  0  0  0  0  0  0  0  0  0  0
    5.5667   -0.7431    2.1274 H   0  0  0  0  0  0  0  0  0  0  0  0
    5.2198   -1.9184    0.7577 H   0  0  0  0  0  0  0  0  0  0  0  0
    6.6620   -0.8933    0.7549 H   0  0  0  0  0  0  0  0  0  0  0  0
    4.3648    0.3343   -1.8003 H   0  0  0  0  0  0  0  0  0  0  0  0
    6.1679    0.4848   -1.5499 H   0  0  0  0  0  0  0  0  0  0  0  0
    5.3979   -1.1243   -1.4474 H   0  0  0  0  0  0  0  0  0  0  0  0
    6.3948    1.7249    0.1419 H   0  0  0  0  0  0  0  0  0  0  0  0
    4.6924    2.3120    0.5629 H   0  0  0  0  0  0  0  0  0  0  0  0
    5.7377    1.4155    1.7836 H   0  0  0  0  0  0  0  0  0  0  0  0
    3.0616    1.0501   -0.0007 H   0  0  0  0  0  0  0  0  0  0  0  0
    2.9833   -1.1970   -1.0022 H   0  0  0  0  0  0  0  0  0  0  0  0
    3.1858   -1.8614    0.6686 H   0  0  0  0  0  0  0  0  0  0  0  0
    0.8456   -1.8672    0.1929 H   0  0  0  0  0  0  0  0  0  0  0  0
    1.5772    0.2802    1.9107 H   0  0  0  0  0  0  0  0  0  0  0  0
    0.9392    0.0334   -1.5465 H   0  0  0  0  0  0  0  0  0  0  0  0
    1.1196    1.1949   -0.1423 H   0  0  0  0  0  0  0  0  0  0  0  0
   -0.8422   -2.3360   -1.2875 H   0  0  0  0  0  0  0  0  0  0  0  0
   -2.8469   -3.6306   -1.4938 H   0  0  0  0  0  0  0  0  0  0  0  0
   -4.9932   -2.6464   -0.7479 H   0  0  0  0  0  0  0  0  0  0  0  0
   -2.1355    1.7881    0.4729 H   0  0  0  0  0  0  0  0  0  0  0  0
   -3.3054    1.1016    1.6540 H   0  0  0  0  0  0  0  0  0  0  0  0
   -3.8715    2.5084   -1.0172 H   0  0  0  0  0  0  0  0  0  0  0  0
   -5.1396    2.5931    1.5575 H   0  0  0  0  0  0  0  0  0  0  0  0
   -5.3725    0.9031   -1.5094 H   0  0  0  0  0  0  0  0  0  0  0  0
   -7.3481    1.4864   -0.6832 H   0  0  0  0  0  0  0  0  0  0  0  0
   -6.2115   -0.7955    0.1256 H   0  0  0  0  0  0  0  0  0  0  0  0
   -5.2639    0.0444    1.4269 H   0  0  0  0  0  0  0  0  0  0  0  0
  1  2  1  0
  2  3  1  0
  2  4  1  0
  2  5  1  0
  5  6  1  0
  6  7  1  0
  7  8  1  0
  7  9  1  0
  9 10  1  0
 10 11  1  0
 11 12  2  0
 12 13  1  0
 13 14  2  0
 14 15  1  0
 15 16  2  0
 16 17  1  0
 17 18  1  0
 18 19  1  0
 18 20  1  0
 20 21  1  0
 20 22  1  0
 16 11  1  0
 22 15  1  0
  1 23  1  0
  1 24  1  0
  1 25  1  0
  3 26  1  0
  3 27  1  0
  3 28  1  0
  4 29  1  0
  4 30  1  0
  4 31  1  0
  5 32  1  0
  6 33  1  0
  6 34  1  0
  7 35  1  0
  8 36  1  0
  9 37  1  0
  9 38  1  0
 12 39  1  0
 13 40  1  0
 14 41  1  0
 17 42  1  0
 17 43  1  0
 18 44  1  6
 19 45  1  0
 20 46  1  6
 21 47  1  0
 22 48  1  0
 22 49  1  0
M  END
$$$$
