
     RDKit          3D

 40 43  0  0  0  0  0  0  0  0999 V2000
   -7.3585    1.5492   -0.4352 N   0  0  0  0  0  0  0  0  0  0  0  0
   -6.8779    1.0928    0.8236 C   0  0  0  0  0  0  0  0  0  0  0  0
   -7.6869    1.2371    2.0003 N   0  0  0  0  0  0  0  0  0  0  0  0
   -5.8571    0.7655    0.1062 N   0  0  0  0  0  0  0  0  0  0  0  0
   -4.7544    0.1351    0.7931 C   0  0  0  0  0  0  0  0  0  0  0  0
   -3.7270   -0.2513    0.3684 N   0  0  0  0  0  0  0  0  0  0  0  0
   -2.7554   -0.8271    1.0834 C   0  0  0  0  0  0  0  0  0  0  0  0
   -2.9932   -0.9795    2.4655 C   0  0  0  0  0  0  0  0  0  0  0  0
   -4.7040   -0.2371    2.6477 S   0  0  0  0  0  0  0  0  0  0  0  0
   -1.4975   -1.2820    0.4670 C   0  0  0  0  0  0  0  0  0  0  0  0
   -0.4398   -1.8652    1.0197 C   0  0  0  0  0  0  0  0  0  0  0  0
    0.6498   -2.2226    0.2903 C   0  0  0  0  0  0  0  0  0  0  0  0
    0.5753   -1.9328   -1.0740 C   0  0  0  0  0  0  0  0  0  0  0  0
    1.3855   -2.0541   -2.3387 C   0  0  0  0  0  0  0  0  0  0  0  0
    2.1169   -0.8404   -2.5284 N   0  0  0  0  0  0  0  0  0  0  0  0
    3.1332   -0.1763   -1.8284 C   0  0  0  0  0  0  0  0  0  0  0  0
    3.7594    0.9988   -2.0354 N   0  0  0  0  0  0  0  0  0  0  0  0
    4.6646    1.1431   -1.0601 C   0  0  0  0  0  0  0  0  0  0  0  0
    4.6237    0.0588   -0.2205 C   0  0  0  0  0  0  0  0  0  0  0  0
    3.6754   -0.7429   -0.7089 N   0  0  0  0  0  0  0  0  0  0  0  0
    5.5353    0.1103    0.8385 C   0  0  0  0  0  0  0  0  0  0  0  0
    6.3922    1.1673    1.0070 C   0  0  0  0  0  0  0  0  0  0  0  0
    6.3954    2.2321    0.1378 C   0  0  0  0  0  0  0  0  0  0  0  0
    5.5128    2.2171   -0.9161 C   0  0  0  0  0  0  0  0  0  0  0  0
   -1.0389   -1.1704   -1.2385 S   0  0  0  0  0  0  0  0  0  0  0  0
   -7.7741    1.7407   -1.3680 H   0  0  0  0  0  0  0  0  0  0  0  0
   -7.8597    1.5245   -1.3633 H   0  0  0  0  0  0  0  0  0  0  0  0
   -7.6710    0.1995    1.8776 H   0  0  0  0  0  0  0  0  0  0  0  0
   -7.7009    2.2643    2.1193 H   0  0  0  0  0  0  0  0  0  0  0  0
   -2.2595   -1.4448    3.1670 H   0  0  0  0  0  0  0  0  0  0  0  0
   -0.4074   -2.0787    2.0809 H   0  0  0  0  0  0  0  0  0  0  0  0
    1.5724   -2.6995    0.5729 H   0  0  0  0  0  0  0  0  0  0  0  0
    0.7445   -2.2972   -3.1905 H   0  0  0  0  0  0  0  0  0  0  0  0
    2.0614   -2.9158   -2.1170 H   0  0  0  0  0  0  0  0  0  0  0  0
    1.8424   -0.3019   -3.3932 H   0  0  0  0  0  0  0  0  0  0  0  0
    3.5405   -1.6226   -0.1562 H   0  0  0  0  0  0  0  0  0  0  0  0
    5.5182   -0.7410    1.5157 H   0  0  0  0  0  0  0  0  0  0  0  0
    7.0404    1.0892    1.8538 H   0  0  0  0  0  0  0  0  0  0  0  0
    7.0907    3.0284    0.3248 H   0  0  0  0  0  0  0  0  0  0  0  0
    5.5330    3.0663   -1.5881 H   0  0  0  0  0  0  0  0  0  0  0  0
  1  2  1  0
  2  3  1  0
  2  4  2  3
  4  5  1  0
  5  6  2  0
  6  7  1  0
  7  8  2  0
  8  9  1  0
  7 10  1  0
 10 11  2  0
 11 12  1  0
 12 13  2  0
 13 14  1  0
 14 15  1  0
 15 16  1  0
 16 17  2  0
 17 18  1  0
 18 19  2  0
 19 20  1  0
 19 21  1  0
 21 22  2  0
 22 23  1  0
 23 24  2  0
 13 25  1  0
  9  5  1  0
 25 10  1  0
 20 16  1  0
 24 18  1  0
  1 26  1  0
  1 27  1  0
  3 28  1  0
  3 29  1  0
  8 30  1  0
 11 31  1  0
 12 32  1  0
 14 33  1  0
 14 34  1  0
 15 35  1  0
 20 36  1  0
 21 37  1  0
 22 38  1  0
 23 39  1  0
 24 40  1  0
M  END
$$$$
