
     RDKit          3D

 37 40  0  0  0  0  0  0  0  0999 V2000
   -3.7834    3.0718    0.1033 O   0  0  0  0  0  0  0  0  0  0  0  0
   -2.6479    2.6691   -0.2473 C   0  0  0  0  0  0  0  0  0  0  0  0
   -1.7017    3.5600   -0.5284 N   0  0  0  0  0  0  0  0  0  0  0  0
   -0.4844    3.1418   -0.9042 C   0  0  0  0  0  0  0  0  0  0  0  0
   -0.1599    1.8412   -1.0152 N   0  0  0  0  0  0  0  0  0  0  0  0
    1.0695    1.4784   -1.3942 N   0  0  0  0  0  0  0  0  0  0  0  0
    1.4110    0.1718   -1.5105 C   0  0  0  0  0  0  0  0  0  0  0  0
    3.0199   -0.3622   -2.0069 S   0  0  0  0  0  0  0  0  0  0  0  0
    4.0946   -0.5701   -0.5733 C   0  0  0  0  0  0  0  0  0  0  0  0
    5.4008   -0.9822   -0.7212 C   0  0  0  0  0  0  0  0  0  0  0  0
    6.2617   -1.1545    0.3590 C   0  0  0  0  0  0  0  0  0  0  0  0
    5.7975   -0.9053    1.6300 C   0  0  0  0  0  0  0  0  0  0  0  0
    6.6298   -1.0713    2.6808 F   0  0  0  0  0  0  0  0  0  0  0  0
    4.5001   -0.4943    1.7975 C   0  0  0  0  0  0  0  0  0  0  0  0
    3.6528   -0.3268    0.7099 C   0  0  0  0  0  0  0  0  0  0  0  0
    2.3709    0.0786    0.8655 F   0  0  0  0  0  0  0  0  0  0  0  0
    0.4473   -0.7861   -1.2246 C   0  0  0  0  0  0  0  0  0  0  0  0
   -0.8224   -0.4097   -0.8332 C   0  0  0  0  0  0  0  0  0  0  0  0
   -1.1105    0.9370   -0.7329 C   0  0  0  0  0  0  0  0  0  0  0  0
   -2.3893    1.3392   -0.3385 C   0  0  0  0  0  0  0  0  0  0  0  0
   -3.3408    0.2935   -0.0571 C   0  0  0  0  0  0  0  0  0  0  0  0
   -4.1428   -0.1945   -1.0634 C   0  0  0  0  0  0  0  0  0  0  0  0
   -4.0003    0.4579   -2.6721 Cl  0  0  0  0  0  0  0  0  0  0  0  0
   -5.0692   -1.2003   -0.8284 C   0  0  0  0  0  0  0  0  0  0  0  0
   -5.1692   -1.7048    0.4482 C   0  0  0  0  0  0  0  0  0  0  0  0
   -4.3774   -1.2396    1.4937 C   0  0  0  0  0  0  0  0  0  0  0  0
   -3.4615   -0.2288    1.2096 C   0  0  0  0  0  0  0  0  0  0  0  0
   -2.4647    0.3586    2.5207 Cl  0  0  0  0  0  0  0  0  0  0  0  0
    0.2518    3.9227   -1.1221 H   0  0  0  0  0  0  0  0  0  0  0  0
    5.7563   -1.1750   -1.7178 H   0  0  0  0  0  0  0  0  0  0  0  0
    7.2893   -1.4804    0.2222 H   0  0  0  0  0  0  0  0  0  0  0  0
    4.0991   -0.2879    2.7908 H   0  0  0  0  0  0  0  0  0  0  0  0
    0.7126   -1.8289   -1.3152 H   0  0  0  0  0  0  0  0  0  0  0  0
   -1.5552   -1.1739   -0.6162 H   0  0  0  0  0  0  0  0  0  0  0  0
   -5.6982   -1.5863   -1.6072 H   0  0  0  0  0  0  0  0  0  0  0  0
   -5.8852   -2.4885    0.6496 H   0  0  0  0  0  0  0  0  0  0  0  0
   -4.5009   -1.6703    2.4624 H   0  0  0  0  0  0  0  0  0  0  0  0
  1  2  2  0
  2  3  1  0
  3  4  2  0
  4  5  1  0
  5  6  1  0
  6  7  2  0
  7  8  1  0
  8  9  1  0
  9 10  2  0
 10 11  1  0
 11 12  2  0
 12 13  1  0
 12 14  1  0
 14 15  2  0
 15 16  1  0
  7 17  1  0
 17 18  2  0
 18 19  1  0
 19 20  2  0
 20 21  1  0
 21 22  2  0
 22 23  1  0
 22 24  1  0
 24 25  2  0
 25 26  1  0
 26 27  2  0
 27 28  1  0
 20  2  1  0
 27 21  1  0
 19  5  1  0
 15  9  1  0
  4 29  1  0
 10 30  1  0
 11 31  1  0
 14 32  1  0
 17 33  1  0
 18 34  1  0
 24 35  1  0
 25 36  1  0
 26 37  1  0
M  END
$$$$
