
     RDKit          3D

 58 62  0  0  0  0  0  0  0  0999 V2000
    4.0693   -3.1750   -1.6396 C   0  0  0  0  0  0  0  0  0  0  0  0
    4.4233   -1.9685   -1.0012 O   0  0  0  0  0  0  0  0  0  0  0  0
    3.5621   -0.8974   -0.9157 C   0  0  0  0  0  0  0  0  0  0  0  0
    2.2879   -0.9573   -1.4619 C   0  0  0  0  0  0  0  0  0  0  0  0
    1.4087    0.0893   -1.3936 C   0  0  0  0  0  0  0  0  0  0  0  0
    1.7479    1.2684   -0.7724 C   0  0  0  0  0  0  0  0  0  0  0  0
    0.8463    2.4348   -0.6893 C   0  0  0  0  0  0  0  0  0  0  0  0
   -0.0798    2.4701    0.4559 C   0  0  2  0  0  0  0  0  0  0  0  0
    0.7275    2.4359    1.7624 C   0  0  0  0  0  0  0  0  0  0  0  0
   -0.1219    2.1278    2.8258 O   0  0  0  0  0  0  0  0  0  0  0  0
   -0.6069    0.8587    2.8522 C   0  0  0  0  0  0  0  0  0  0  0  0
   -0.7245    0.3060    1.4348 C   0  0  0  0  0  0  0  0  0  0  0  0
   -1.0419    1.4202    0.5900 N   0  0  0  0  0  0  0  0  0  0  0  0
   -2.2902    1.4970   -0.0446 C   0  0  0  0  0  0  0  0  0  0  0  0
   -2.6403    2.4391   -0.8040 O   0  0  0  0  0  0  0  0  0  0  0  0
   -3.2847    0.4453    0.1628 C   0  0  0  0  0  0  0  0  0  0  0  0
   -4.0832    0.4745    1.3000 C   0  0  0  0  0  0  0  0  0  0  0  0
   -4.9763   -0.5517    1.4794 C   0  0  0  0  0  0  0  0  0  0  0  0
   -5.0911   -1.5836    0.5740 C   0  0  0  0  0  0  0  0  0  0  0  0
   -6.0921   -2.6435    0.8698 C   0  0  0  0  0  0  0  0  0  0  0  0
   -4.3047   -1.6102   -0.5451 C   0  0  0  0  0  0  0  0  0  0  0  0
   -3.3888   -0.5686   -0.7418 C   0  0  0  0  0  0  0  0  0  0  0  0
   -2.6095   -0.5981   -1.9396 N   0  0  0  0  0  0  0  0  0  0  0  0
   -2.3824    0.4026   -2.7671 N   0  0  0  0  0  0  0  0  0  0  0  0
   -1.6282    0.0116   -3.8120 C   0  0  0  0  0  0  0  0  0  0  0  0
   -1.3807   -1.3258   -3.5994 C   0  0  0  0  0  0  0  0  0  0  0  0
   -1.9944   -1.6534   -2.4524 N   0  0  0  0  0  0  0  0  0  0  0  0
    3.0324    1.3318   -0.2210 C   0  0  0  0  0  0  0  0  0  0  0  0
    3.9141    0.2776   -0.2910 C   0  0  0  0  0  0  0  0  0  0  0  0
    5.2631    0.3700    0.2992 C   0  0  0  0  0  0  0  0  0  0  0  0
    5.7769    1.4230    0.9402 N   0  0  0  0  0  0  0  0  0  0  0  0
    7.0307    1.1236    1.3312 C   0  0  0  0  0  0  0  0  0  0  0  0
    7.2562   -0.1057    0.9208 O   0  0  0  0  0  0  0  0  0  0  0  0
    6.2127   -0.5791    0.2999 N   0  0  0  0  0  0  0  0  0  0  0  0
    5.0109   -3.7390   -1.8823 H   0  0  0  0  0  0  0  0  0  0  0  0
    3.4117   -3.8078   -0.9993 H   0  0  0  0  0  0  0  0  0  0  0  0
    3.5553   -3.0160   -2.6126 H   0  0  0  0  0  0  0  0  0  0  0  0
    1.9810   -1.8744   -1.9627 H   0  0  0  0  0  0  0  0  0  0  0  0
    0.4331    0.0021   -1.8244 H   0  0  0  0  0  0  0  0  0  0  0  0
    0.3142    2.5885   -1.6756 H   0  0  0  0  0  0  0  0  0  0  0  0
    1.5200    3.3427   -0.6008 H   0  0  0  0  0  0  0  0  0  0  0  0
   -0.5998    3.4865    0.5169 H   0  0  0  0  0  0  0  0  0  0  0  0
    1.5610    1.7316    1.6976 H   0  0  0  0  0  0  0  0  0  0  0  0
    1.1249    3.4500    1.9107 H   0  0  0  0  0  0  0  0  0  0  0  0
   -1.6608    0.9050    3.2548 H   0  0  0  0  0  0  0  0  0  0  0  0
   -0.0471    0.1612    3.5041 H   0  0  0  0  0  0  0  0  0  0  0  0
    0.2228   -0.2157    1.1628 H   0  0  0  0  0  0  0  0  0  0  0  0
   -1.5729   -0.4486    1.4522 H   0  0  0  0  0  0  0  0  0  0  0  0
   -3.9619    1.3002    1.9836 H   0  0  0  0  0  0  0  0  0  0  0  0
   -5.6121   -0.5347    2.3784 H   0  0  0  0  0  0  0  0  0  0  0  0
   -6.4201   -3.1934   -0.0212 H   0  0  0  0  0  0  0  0  0  0  0  0
   -5.7414   -3.3013    1.6970 H   0  0  0  0  0  0  0  0  0  0  0  0
   -6.9940   -2.1190    1.2814 H   0  0  0  0  0  0  0  0  0  0  0  0
   -4.3785   -2.4093   -1.2673 H   0  0  0  0  0  0  0  0  0  0  0  0
   -1.2798    0.6131   -4.6541 H   0  0  0  0  0  0  0  0  0  0  0  0
   -0.7969   -1.9385   -4.2659 H   0  0  0  0  0  0  0  0  0  0  0  0
    3.3768    2.2435    0.2837 H   0  0  0  0  0  0  0  0  0  0  0  0
    7.7167    1.7838    1.8821 H   0  0  0  0  0  0  0  0  0  0  0  0
  1  2  1  0
  2  3  1  0
  3  4  2  0
  4  5  1  0
  5  6  2  0
  6  7  1  0
  7  8  1  0
  8  9  1  0
  9 10  1  0
 10 11  1  0
 11 12  1  0
 12 13  1  0
 13 14  1  0
 14 15  2  0
 14 16  1  0
 16 17  2  0
 17 18  1  0
 18 19  2  0
 19 20  1  0
 19 21  1  0
 21 22  2  0
 22 23  1  0
 23 24  1  0
 24 25  2  0
 25 26  1  0
 26 27  2  0
  6 28  1  0
 28 29  2  0
 29 30  1  0
 30 31  1  0
 31 32  2  0
 32 33  1  0
 33 34  1  0
 29  3  1  0
 34 30  2  0
 13  8  1  0
 22 16  1  0
 27 23  1  0
  1 35  1  0
  1 36  1  0
  1 37  1  0
  4 38  1  0
  5 39  1  0
  7 40  1  0
  7 41  1  0
  8 42  1  1
  9 43  1  0
  9 44  1  0
 11 45  1  0
 11 46  1  0
 12 47  1  0
 12 48  1  0
 17 49  1  0
 18 50  1  0
 20 51  1  0
 20 52  1  0
 20 53  1  0
 21 54  1  0
 25 55  1  0
 26 56  1  0
 28 57  1  0
 32 58  1  0
M  END
$$$$
