
     RDKit          3D

 62 66  0  0  0  0  0  0  0  0999 V2000
    2.3346   -0.2996   -0.4649 O   0  0  0  0  0  0  0  0  0  0  0  0
    2.5336   -1.4588   -0.0001 C   0  0  0  0  0  0  0  0  0  0  0  0
    3.8850   -2.0432    0.1755 C   0  0  0  0  0  0  0  0  0  0  0  0
    4.8868   -1.0848   -0.2636 N   0  0  0  0  0  0  0  0  0  0  0  0
    5.0077    0.1913    0.3370 C   0  0  0  0  0  0  0  0  0  0  0  0
    4.1673    0.4922    1.3278 N   0  0  0  0  0  0  0  0  0  0  0  0
    4.2450    1.6882    1.9259 C   0  0  0  0  0  0  0  0  0  0  0  0
    5.1592    2.5983    1.5452 N   0  0  0  0  0  0  0  0  0  0  0  0
    6.0393    2.3603    0.5510 C   0  0  0  0  0  0  0  0  0  0  0  0
    6.9693    3.3073    0.1756 C   0  0  0  0  0  0  0  0  0  0  0  0
    7.8268    2.9775   -0.8483 C   0  0  0  0  0  0  0  0  0  0  0  0
    7.7969    1.7730   -1.4976 C   0  0  0  0  0  0  0  0  0  0  0  0
    8.7481    1.4657   -2.6005 C   0  0  0  0  0  0  0  0  0  0  0  0
    9.8473    2.2921   -2.4746 F   0  0  0  0  0  0  0  0  0  0  0  0
    8.1588    1.6744   -3.8339 F   0  0  0  0  0  0  0  0  0  0  0  0
    9.1797    0.1675   -2.4401 F   0  0  0  0  0  0  0  0  0  0  0  0
    6.8432    0.8406   -1.0910 C   0  0  0  0  0  0  0  0  0  0  0  0
    5.9432    1.1056   -0.0621 C   0  0  0  0  0  0  0  0  0  0  0  0
    1.3911   -2.2097    0.3608 N   0  0  0  0  0  0  0  0  0  0  0  0
    0.0528   -1.6769    0.2056 C   0  0  0  0  0  0  0  0  0  0  0  0
   -0.8555   -1.9052    1.3881 C   0  0  0  0  0  0  0  0  0  0  0  0
   -1.9316   -2.1444    0.4719 N   0  0  0  0  0  0  0  0  0  0  0  0
   -2.6530   -1.0009   -0.0001 C   0  0  1  0  0  0  0  0  0  0  0  0
   -3.7355   -1.4902   -0.9490 C   0  0  0  0  0  0  0  0  0  0  0  0
   -5.1150   -1.2808   -0.3564 C   0  0  0  0  0  0  0  0  0  0  0  0
   -5.3511    0.2122   -0.3077 C   0  0  1  0  0  0  0  0  0  0  0  0
   -6.6423    0.5568    0.3054 C   0  0  0  0  0  0  0  0  0  0  0  0
   -7.6014    1.2305   -0.4209 C   0  0  0  0  0  0  0  0  0  0  0  0
   -8.8331    1.5726    0.1261 C   0  0  0  0  0  0  0  0  0  0  0  0
   -9.0927    1.2235    1.4332 C   0  0  0  0  0  0  0  0  0  0  0  0
   -8.1585    0.5721    2.1271 N   0  0  0  0  0  0  0  0  0  0  0  0
   -6.9619    0.2355    1.6078 C   0  0  0  0  0  0  0  0  0  0  0  0
   -4.1951    0.8452    0.4130 C   0  0  0  0  0  0  0  0  0  0  0  0
   -3.2906   -0.1852    1.0740 C   0  0  0  0  0  0  0  0  0  0  0  0
   -0.9203   -2.6067   -0.4934 C   0  0  0  0  0  0  0  0  0  0  0  0
    3.9513   -2.9298   -0.4785 H   0  0  0  0  0  0  0  0  0  0  0  0
    4.0972   -2.3369    1.2132 H   0  0  0  0  0  0  0  0  0  0  0  0
    5.5273   -1.3427   -1.0343 H   0  0  0  0  0  0  0  0  0  0  0  0
    3.5395    1.9199    2.7460 H   0  0  0  0  0  0  0  0  0  0  0  0
    7.0238    4.2694    0.6645 H   0  0  0  0  0  0  0  0  0  0  0  0
    8.5756    3.6995   -1.1733 H   0  0  0  0  0  0  0  0  0  0  0  0
    6.8310   -0.0916   -1.6043 H   0  0  0  0  0  0  0  0  0  0  0  0
    1.4831   -3.1743    0.7511 H   0  0  0  0  0  0  0  0  0  0  0  0
   -0.0056   -0.6653   -0.2059 H   0  0  0  0  0  0  0  0  0  0  0  0
   -0.9683   -1.0799    2.0904 H   0  0  0  0  0  0  0  0  0  0  0  0
   -0.5875   -2.8326    1.9407 H   0  0  0  0  0  0  0  0  0  0  0  0
   -1.9826   -0.3380   -0.5868 H   0  0  0  0  0  0  0  0  0  0  0  0
   -3.7162   -0.9267   -1.9043 H   0  0  0  0  0  0  0  0  0  0  0  0
   -3.6388   -2.5752   -1.1588 H   0  0  0  0  0  0  0  0  0  0  0  0
   -5.1720   -1.7633    0.6280 H   0  0  0  0  0  0  0  0  0  0  0  0
   -5.8427   -1.7453   -1.0309 H   0  0  0  0  0  0  0  0  0  0  0  0
   -5.3263    0.5722   -1.3562 H   0  0  0  0  0  0  0  0  0  0  0  0
   -7.3797    1.5022   -1.4621 H   0  0  0  0  0  0  0  0  0  0  0  0
   -9.5693    2.1010   -0.4630 H   0  0  0  0  0  0  0  0  0  0  0  0
  -10.0330    1.4595    1.9219 H   0  0  0  0  0  0  0  0  0  0  0  0
   -6.2226   -0.2892    2.1829 H   0  0  0  0  0  0  0  0  0  0  0  0
   -3.5481    1.4467   -0.2678 H   0  0  0  0  0  0  0  0  0  0  0  0
   -4.5774    1.5011    1.2196 H   0  0  0  0  0  0  0  0  0  0  0  0
   -3.8089   -0.7903    1.8225 H   0  0  0  0  0  0  0  0  0  0  0  0
   -2.5246    0.4222    1.6394 H   0  0  0  0  0  0  0  0  0  0  0  0
   -0.6483   -3.6561   -0.2830 H   0  0  0  0  0  0  0  0  0  0  0  0
   -1.1548   -2.3525   -1.5347 H   0  0  0  0  0  0  0  0  0  0  0  0
  1  2  2  0
  2  3  1  0
  3  4  1  0
  4  5  1  0
  5  6  2  0
  6  7  1  0
  7  8  2  0
  8  9  1  0
  9 10  2  0
 10 11  1  0
 11 12  2  0
 12 13  1  0
 13 14  1  0
 13 15  1  0
 13 16  1  0
 12 17  1  0
 17 18  2  0
  2 19  1  0
 19 20  1  0
 20 21  1  0
 21 22  1  0
 22 23  1  0
 23 24  1  0
 24 25  1  0
 25 26  1  0
 26 27  1  0
 27 28  2  0
 28 29  1  0
 29 30  2  0
 30 31  1  0
 31 32  2  0
 26 33  1  0
 33 34  1  0
 22 35  1  0
 18  5  1  0
 35 20  1  0
 18  9  1  0
 34 23  1  0
 32 27  1  0
  3 36  1  0
  3 37  1  0
  4 38  1  0
  7 39  1  0
 10 40  1  0
 11 41  1  0
 17 42  1  0
 19 43  1  0
 20 44  1  0
 21 45  1  0
 21 46  1  0
 23 47  1  6
 24 48  1  0
 24 49  1  0
 25 50  1  0
 25 51  1  0
 26 52  1  6
 28 53  1  0
 29 54  1  0
 30 55  1  0
 32 56  1  0
 33 57  1  0
 33 58  1  0
 34 59  1  0
 34 60  1  0
 35 61  1  0
 35 62  1  0
M  END
$$$$
