
     RDKit          3D

 65 67  0  0  0  0  0  0  0  0999 V2000
    1.5192   -0.3688    2.2891 C   0  0  2  0  0  0  0  0  0  0  0  0
    1.0968   -1.1178    3.5689 C   0  0  0  0  0  0  0  0  0  0  0  0
   -0.1678   -0.3062    3.8986 C   0  0  0  0  0  0  0  0  0  0  0  0
   -0.3530    0.5779    2.6616 C   0  0  0  0  0  0  0  0  0  0  0  0
    0.2667   -0.2443    1.6017 N   0  0  0  0  0  0  0  0  0  0  0  0
   -0.4442   -0.5992    0.4323 C   0  0  0  0  0  0  0  0  0  0  0  0
   -0.6548   -1.1222   -0.6800 O   0  0  0  0  0  0  0  0  0  0  0  0
   -1.8436   -0.1484    0.2367 C   0  0  0  0  0  0  0  0  0  0  0  0
   -2.3128   -0.6413   -1.0271 N   0  0  0  0  0  0  0  0  0  0  0  0
   -3.7174   -0.2462   -1.2563 C   0  0  0  0  0  0  0  0  0  0  0  0
   -3.8811    1.2086   -1.3018 C   0  0  0  0  0  0  0  0  0  0  0  0
   -4.6948    1.8527   -0.2427 C   0  0  0  0  0  0  0  0  0  0  0  0
   -6.1532    2.0011   -0.6015 C   0  0  0  0  0  0  0  0  0  0  0  0
   -6.7128    0.8954   -1.4289 C   0  0  0  0  0  0  0  0  0  0  0  0
   -6.9566   -0.2864   -0.5220 C   0  0  0  0  0  0  0  0  0  0  0  0
   -5.9199   -1.3512   -0.7919 C   0  0  0  0  0  0  0  0  0  0  0  0
   -4.5469   -0.9960   -0.2600 C   0  0  0  0  0  0  0  0  0  0  0  0
    2.5703   -1.1055    1.5780 C   0  0  0  0  0  0  0  0  0  0  0  0
    3.5194   -1.1687    2.4404 O   0  0  0  0  0  0  0  0  0  0  0  0
    2.7868   -1.7010    0.3212 N   0  0  0  0  0  0  0  0  0  0  0  0
    3.9653   -2.3923   -0.1408 C   0  0  0  0  0  0  0  0  0  0  0  0
    4.9945   -1.3830   -0.4802 C   0  0  0  0  0  0  0  0  0  0  0  0
    5.9765   -0.8797    0.3433 C   0  0  0  0  0  0  0  0  0  0  0  0
    6.9061    0.0666   -0.0269 C   0  0  0  0  0  0  0  0  0  0  0  0
    6.8554    0.5503   -1.3176 C   0  0  0  0  0  0  0  0  0  0  0  0
    5.8955    0.0861   -2.1915 C   0  0  0  0  0  0  0  0  0  0  0  0
    4.9737   -0.8693   -1.7823 C   0  0  0  0  0  0  0  0  0  0  0  0
    7.8661    1.5645   -1.6834 C   0  0  0  0  0  0  0  0  0  0  0  0
    7.8289    2.6336   -2.5991 N   0  0  0  0  0  0  0  0  0  0  0  0
    9.0348    1.5405   -1.1002 N   0  0  0  0  0  0  0  0  0  0  0  0
    1.8889    0.6355    2.6385 H   0  0  0  0  0  0  0  0  0  0  0  0
    0.7839   -2.1374    3.3193 H   0  0  0  0  0  0  0  0  0  0  0  0
    1.8649   -1.0320    4.3516 H   0  0  0  0  0  0  0  0  0  0  0  0
   -1.0354   -0.9379    4.1030 H   0  0  0  0  0  0  0  0  0  0  0  0
    0.1095    0.3557    4.7428 H   0  0  0  0  0  0  0  0  0  0  0  0
   -1.3998    0.8025    2.4695 H   0  0  0  0  0  0  0  0  0  0  0  0
    0.2622    1.4929    2.7324 H   0  0  0  0  0  0  0  0  0  0  0  0
   -1.9286    0.9542    0.2883 H   0  0  0  0  0  0  0  0  0  0  0  0
   -2.5247   -0.6119    1.0108 H   0  0  0  0  0  0  0  0  0  0  0  0
   -1.7866   -0.1309   -1.8038 H   0  0  0  0  0  0  0  0  0  0  0  0
   -3.9586   -0.6818   -2.2584 H   0  0  0  0  0  0  0  0  0  0  0  0
   -2.8796    1.6996   -1.3370 H   0  0  0  0  0  0  0  0  0  0  0  0
   -4.3449    1.5397   -2.2819 H   0  0  0  0  0  0  0  0  0  0  0  0
   -4.3474    2.9285   -0.1598 H   0  0  0  0  0  0  0  0  0  0  0  0
   -4.5302    1.4727    0.7807 H   0  0  0  0  0  0  0  0  0  0  0  0
   -6.7303    2.0478    0.3425 H   0  0  0  0  0  0  0  0  0  0  0  0
   -6.3734    2.9606   -1.1436 H   0  0  0  0  0  0  0  0  0  0  0  0
   -6.1690    0.6401   -2.3370 H   0  0  0  0  0  0  0  0  0  0  0  0
   -7.7219    1.2415   -1.7691 H   0  0  0  0  0  0  0  0  0  0  0  0
   -7.9358   -0.7765   -0.7384 H   0  0  0  0  0  0  0  0  0  0  0  0
   -6.9492   -0.0028    0.5286 H   0  0  0  0  0  0  0  0  0  0  0  0
   -6.2898   -2.2556   -0.2265 H   0  0  0  0  0  0  0  0  0  0  0  0
   -5.8005   -1.5601   -1.8614 H   0  0  0  0  0  0  0  0  0  0  0  0
   -4.5747   -0.5650    0.7494 H   0  0  0  0  0  0  0  0  0  0  0  0
   -4.0561   -1.9932   -0.1160 H   0  0  0  0  0  0  0  0  0  0  0  0
    1.9352   -1.5598   -0.2496 H   0  0  0  0  0  0  0  0  0  0  0  0
    4.3634   -3.0730    0.6558 H   0  0  0  0  0  0  0  0  0  0  0  0
    3.7034   -2.9757   -1.0471 H   0  0  0  0  0  0  0  0  0  0  0  0
    6.0081   -1.2642    1.3377 H   0  0  0  0  0  0  0  0  0  0  0  0
    7.6429    0.3916    0.7203 H   0  0  0  0  0  0  0  0  0  0  0  0
    5.9004    0.5009   -3.1973 H   0  0  0  0  0  0  0  0  0  0  0  0
    4.2494   -1.1753   -2.5504 H   0  0  0  0  0  0  0  0  0  0  0  0
    7.8389    2.6024   -3.6613 H   0  0  0  0  0  0  0  0  0  0  0  0
    7.7853    3.5800   -2.1221 H   0  0  0  0  0  0  0  0  0  0  0  0
    9.3030    0.8369   -0.3795 H   0  0  0  0  0  0  0  0  0  0  0  0
  1  2  1  0
  2  3  1  0
  3  4  1  0
  4  5  1  0
  5  6  1  0
  6  7  2  0
  6  8  1  0
  8  9  1  0
  9 10  1  0
 10 11  1  0
 11 12  1  0
 12 13  1  0
 13 14  1  0
 14 15  1  0
 15 16  1  0
 16 17  1  0
  1 18  1  0
 18 19  2  0
 18 20  1  0
 20 21  1  0
 21 22  1  0
 22 23  2  0
 23 24  1  0
 24 25  2  0
 25 26  1  0
 26 27  2  0
 25 28  1  0
 28 29  1  0
 28 30  2  3
  5  1  1  0
 17 10  1  0
 27 22  1  0
  1 31  1  1
  2 32  1  0
  2 33  1  0
  3 34  1  0
  3 35  1  0
  4 36  1  0
  4 37  1  0
  8 38  1  0
  8 39  1  0
  9 40  1  0
 10 41  1  0
 11 42  1  0
 11 43  1  0
 12 44  1  0
 12 45  1  0
 13 46  1  0
 13 47  1  0
 14 48  1  0
 14 49  1  0
 15 50  1  0
 15 51  1  0
 16 52  1  0
 16 53  1  0
 17 54  1  0
 17 55  1  0
 20 56  1  0
 21 57  1  0
 21 58  1  0
 23 59  1  0
 24 60  1  0
 26 61  1  0
 27 62  1  0
 29 63  1  0
 29 64  1  0
 30 65  1  0
M  END
$$$$
