
     RDKit          3D

 36 38  0  0  0  0  0  0  0  0999 V2000
   -3.2153   -2.4646    1.7976 C   0  0  0  0  0  0  0  0  0  0  0  0
   -2.5601   -2.0151    0.6291 O   0  0  0  0  0  0  0  0  0  0  0  0
   -2.7071   -0.7040    0.2240 C   0  0  0  0  0  0  0  0  0  0  0  0
   -3.4909    0.1539    0.9626 C   0  0  0  0  0  0  0  0  0  0  0  0
   -3.6026    1.4587    0.5091 C   0  0  0  0  0  0  0  0  0  0  0  0
   -2.9665    1.9095   -0.6323 C   0  0  0  0  0  0  0  0  0  0  0  0
   -3.1736    3.7355   -1.1928 Br  0  0  0  0  0  0  0  0  0  0  0  0
   -2.1793    1.0348   -1.3679 C   0  0  0  0  0  0  0  0  0  0  0  0
   -2.0665   -0.2672   -0.9173 C   0  0  0  0  0  0  0  0  0  0  0  0
   -1.0791   -1.4372   -1.8053 S   0  0  0  0  0  6  0  0  0  0  0  0
   -1.9490   -2.6003   -2.2286 O   0  0  0  0  0  0  0  0  0  0  0  0
   -0.4687   -0.7614   -2.9880 O   0  0  0  0  0  0  0  0  0  0  0  0
    0.1790   -2.0348   -0.7922 N   0  0  0  0  0  0  0  0  0  0  0  0
    1.1682   -1.1765   -0.2485 C   0  0  0  0  0  0  0  0  0  0  0  0
    1.4735   -1.3027    1.1117 C   0  0  0  0  0  0  0  0  0  0  0  0
    2.4108   -0.4731    1.5971 N   0  0  0  0  0  0  0  0  0  0  0  0
    3.0459    0.4411    0.8581 C   0  0  0  0  0  0  0  0  0  0  0  0
    4.0114    1.2845    1.3925 C   0  0  0  0  0  0  0  0  0  0  0  0
    4.6643    2.2235    0.6353 C   0  0  0  0  0  0  0  0  0  0  0  0
    4.3423    2.3233   -0.6985 C   0  0  0  0  0  0  0  0  0  0  0  0
    3.3760    1.4866   -1.2558 C   0  0  0  0  0  0  0  0  0  0  0  0
    2.7466    0.5637   -0.4719 C   0  0  0  0  0  0  0  0  0  0  0  0
    1.7796   -0.2627   -1.0625 C   0  0  0  0  0  0  0  0  0  0  0  0
   -3.1649   -3.5665    1.9102 H   0  0  0  0  0  0  0  0  0  0  0  0
   -4.3144   -2.2257    1.7757 H   0  0  0  0  0  0  0  0  0  0  0  0
   -2.7402   -2.0523    2.7265 H   0  0  0  0  0  0  0  0  0  0  0  0
   -3.9799   -0.2151    1.8506 H   0  0  0  0  0  0  0  0  0  0  0  0
   -4.2156    2.1584    1.0731 H   0  0  0  0  0  0  0  0  0  0  0  0
   -1.6697    1.3602   -2.2653 H   0  0  0  0  0  0  0  0  0  0  0  0
    0.2110   -3.0592   -0.5741 H   0  0  0  0  0  0  0  0  0  0  0  0
    0.9658   -2.0416    1.7267 H   0  0  0  0  0  0  0  0  0  0  0  0
    4.2343    1.1783    2.4283 H   0  0  0  0  0  0  0  0  0  0  0  0
    5.4254    2.8957    1.0341 H   0  0  0  0  0  0  0  0  0  0  0  0
    4.8373    3.0520   -1.3237 H   0  0  0  0  0  0  0  0  0  0  0  0
    3.1111    1.5501   -2.2963 H   0  0  0  0  0  0  0  0  0  0  0  0
    1.5609   -0.1496   -2.1213 H   0  0  0  0  0  0  0  0  0  0  0  0
  1  2  1  0
  2  3  1  0
  3  4  2  0
  4  5  1  0
  5  6  2  0
  6  7  1  0
  6  8  1  0
  8  9  2  0
  9 10  1  0
 10 11  2  0
 10 12  2  0
 10 13  1  0
 13 14  1  0
 14 15  2  0
 15 16  1  0
 16 17  2  0
 17 18  1  0
 18 19  2  0
 19 20  1  0
 20 21  2  0
 21 22  1  0
 22 23  2  0
  9  3  1  0
 23 14  1  0
 22 17  1  0
  1 24  1  0
  1 25  1  0
  1 26  1  0
  4 27  1  0
  5 28  1  0
  8 29  1  0
 13 30  1  0
 15 31  1  0
 18 32  1  0
 19 33  1  0
 20 34  1  0
 21 35  1  0
 23 36  1  0
M  END
$$$$
