
     RDKit          3D

 66 69  0  0  0  0  0  0  0  0999 V2000
   -7.5260   -0.8234   -3.3917 C   0  0  0  0  0  0  0  0  0  0  0  0
   -7.6175    0.5118   -2.6849 C   0  0  0  0  0  0  0  0  0  0  0  0
   -7.1698    0.3008   -1.2503 C   0  0  2  0  0  0  0  0  0  0  0  0
   -8.1097   -0.7089   -0.6663 C   0  0  0  0  0  0  0  0  0  0  0  0
   -7.7288   -1.8273   -0.2366 O   0  0  0  0  0  0  0  0  0  0  0  0
   -9.4629   -0.4167   -0.5873 O   0  0  0  0  0  0  0  0  0  0  0  0
   -7.3645    1.5821   -0.4467 C   0  0  0  0  0  0  0  0  0  0  0  0
   -6.9073    1.2936    0.9730 C   0  0  0  0  0  0  0  0  0  0  0  0
   -5.5006    0.7956    0.9119 C   0  0  0  0  0  0  0  0  0  0  0  0
   -4.6427    1.0192    1.9725 C   0  0  0  0  0  0  0  0  0  0  0  0
   -3.3248    0.5512    1.9147 C   0  0  0  0  0  0  0  0  0  0  0  0
   -2.8346   -0.1309    0.8346 C   0  0  0  0  0  0  0  0  0  0  0  0
   -1.5517   -0.5932    0.7548 O   0  0  0  0  0  0  0  0  0  0  0  0
   -0.4773   -0.5074    1.6062 C   0  0  0  0  0  0  0  0  0  0  0  0
    0.0632    0.8825    1.8717 C   0  0  0  0  0  0  0  0  0  0  0  0
    0.5268    1.5313    0.5748 C   0  0  0  0  0  0  0  0  0  0  0  0
    1.5057    0.9119   -0.1199 O   0  0  0  0  0  0  0  0  0  0  0  0
    2.8107    0.6441    0.1572 C   0  0  0  0  0  0  0  0  0  0  0  0
    3.4770    1.0076    1.3078 C   0  0  0  0  0  0  0  0  0  0  0  0
    4.8262    0.6732    1.4717 C   0  0  0  0  0  0  0  0  0  0  0  0
    5.5286   -0.0153    0.5137 C   0  0  0  0  0  0  0  0  0  0  0  0
    6.9733   -0.3669    0.7004 C   0  0  0  0  0  0  0  0  0  0  0  0
    7.7384    0.3356   -0.3704 C   0  0  0  0  0  0  0  0  0  0  0  0
    9.2069   -0.0276   -0.4033 C   0  0  0  0  0  0  0  0  0  0  0  0
    9.3818   -1.5285   -0.4840 C   0  0  0  0  0  0  0  0  0  0  0  0
    8.0094   -2.1975   -0.6082 C   0  0  0  0  0  0  0  0  0  0  0  0
    7.2119   -1.8465    0.6043 C   0  0  0  0  0  0  0  0  0  0  0  0
    4.8358   -0.3617   -0.6209 C   0  0  0  0  0  0  0  0  0  0  0  0
    3.5207   -0.0654   -0.8394 C   0  0  0  0  0  0  0  0  0  0  0  0
    2.6897   -0.5419   -2.3244 Cl  0  0  0  0  0  0  0  0  0  0  0  0
   -3.7117   -0.3528   -0.2348 C   0  0  0  0  0  0  0  0  0  0  0  0
   -5.0170    0.1106   -0.1767 C   0  0  0  0  0  0  0  0  0  0  0  0
   -5.8578   -0.1309   -1.2619 O   0  0  0  0  0  0  0  0  0  0  0  0
   -7.0412   -1.5994   -2.7555 H   0  0  0  0  0  0  0  0  0  0  0  0
   -6.8763   -0.7438   -4.3103 H   0  0  0  0  0  0  0  0  0  0  0  0
   -8.5334   -1.2355   -3.6459 H   0  0  0  0  0  0  0  0  0  0  0  0
   -8.6586    0.9105   -2.7318 H   0  0  0  0  0  0  0  0  0  0  0  0
   -6.8790    1.2022   -3.1522 H   0  0  0  0  0  0  0  0  0  0  0  0
  -10.0991   -0.9570    0.0153 H   0  0  0  0  0  0  0  0  0  0  0  0
   -8.4333    1.7974   -0.4199 H   0  0  0  0  0  0  0  0  0  0  0  0
   -6.7302    2.3568   -0.8795 H   0  0  0  0  0  0  0  0  0  0  0  0
   -7.5738    0.5793    1.4832 H   0  0  0  0  0  0  0  0  0  0  0  0
   -6.9692    2.2513    1.5303 H   0  0  0  0  0  0  0  0  0  0  0  0
   -5.0111    1.5595    2.8409 H   0  0  0  0  0  0  0  0  0  0  0  0
   -2.6938    0.7307    2.7756 H   0  0  0  0  0  0  0  0  0  0  0  0
   -0.8318   -0.8728    2.6195 H   0  0  0  0  0  0  0  0  0  0  0  0
    0.3490   -1.2079    1.3590 H   0  0  0  0  0  0  0  0  0  0  0  0
    0.9233    0.8403    2.5580 H   0  0  0  0  0  0  0  0  0  0  0  0
   -0.6536    1.5793    2.3204 H   0  0  0  0  0  0  0  0  0  0  0  0
   -0.3609    1.7649   -0.0753 H   0  0  0  0  0  0  0  0  0  0  0  0
    0.8959    2.5699    0.8554 H   0  0  0  0  0  0  0  0  0  0  0  0
    2.9853    1.5685    2.0900 H   0  0  0  0  0  0  0  0  0  0  0  0
    5.3185    0.9705    2.3821 H   0  0  0  0  0  0  0  0  0  0  0  0
    7.3124    0.0252    1.7036 H   0  0  0  0  0  0  0  0  0  0  0  0
    7.7045    1.4431   -0.2307 H   0  0  0  0  0  0  0  0  0  0  0  0
    7.3297    0.1594   -1.3823 H   0  0  0  0  0  0  0  0  0  0  0  0
    9.7667    0.4245    0.4380 H   0  0  0  0  0  0  0  0  0  0  0  0
    9.6153    0.4034   -1.3388 H   0  0  0  0  0  0  0  0  0  0  0  0
    9.8419   -1.9556    0.4385 H   0  0  0  0  0  0  0  0  0  0  0  0
    9.9957   -1.8015   -1.3716 H   0  0  0  0  0  0  0  0  0  0  0  0
    8.1538   -3.3024   -0.7098 H   0  0  0  0  0  0  0  0  0  0  0  0
    7.5694   -1.8488   -1.5607 H   0  0  0  0  0  0  0  0  0  0  0  0
    6.2664   -2.4335    0.6620 H   0  0  0  0  0  0  0  0  0  0  0  0
    7.7867   -2.1552    1.5129 H   0  0  0  0  0  0  0  0  0  0  0  0
    5.3741   -0.9076   -1.3933 H   0  0  0  0  0  0  0  0  0  0  0  0
   -3.3445   -0.8863   -1.0890 H   0  0  0  0  0  0  0  0  0  0  0  0
  1  2  1  0
  3  2  1  6
  3  4  1  0
  4  5  2  0
  4  6  1  0
  3  7  1  0
  7  8  1  0
  8  9  1  0
  9 10  2  0
 10 11  1  0
 11 12  2  0
 12 13  1  0
 13 14  1  0
 14 15  1  0
 15 16  1  0
 16 17  1  0
 17 18  1  0
 18 19  2  0
 19 20  1  0
 20 21  2  0
 21 22  1  0
 22 23  1  0
 23 24  1  0
 24 25  1  0
 25 26  1  0
 26 27  1  0
 21 28  1  0
 28 29  2  0
 29 30  1  0
 12 31  1  0
 31 32  2  0
 32 33  1  0
 33  3  1  0
 32  9  1  0
 29 18  1  0
 27 22  1  0
  1 34  1  0
  1 35  1  0
  1 36  1  0
  2 37  1  0
  2 38  1  0
  6 39  1  0
  7 40  1  0
  7 41  1  0
  8 42  1  0
  8 43  1  0
 10 44  1  0
 11 45  1  0
 14 46  1  0
 14 47  1  0
 15 48  1  0
 15 49  1  0
 16 50  1  0
 16 51  1  0
 19 52  1  0
 20 53  1  0
 22 54  1  0
 23 55  1  0
 23 56  1  0
 24 57  1  0
 24 58  1  0
 25 59  1  0
 25 60  1  0
 26 61  1  0
 26 62  1  0
 27 63  1  0
 27 64  1  0
 28 65  1  0
 31 66  1  0
M  END
$$$$
