
     RDKit          3D

 59 61  0  0  0  0  0  0  0  0999 V2000
   -1.6206   -4.4441   -0.9643 C   0  0  0  0  0  0  0  0  0  0  0  0
   -1.9539   -3.1349   -1.0523 O   0  0  0  0  0  0  0  0  0  0  0  0
   -1.0307   -2.1976   -0.6353 C   0  0  0  0  0  0  0  0  0  0  0  0
   -0.7622   -2.5277    0.8801 C   0  0  0  0  0  0  0  0  0  0  0  0
    0.2559   -2.3943   -1.2935 C   0  0  0  0  0  0  0  0  0  0  0  0
   -1.6887   -0.8928   -0.5923 C   0  0  0  0  0  0  0  0  0  0  0  0
   -3.0833   -0.9130   -0.7927 C   0  0  0  0  0  0  0  0  0  0  0  0
   -3.8318    0.1616   -0.6569 N   0  0  0  0  0  0  0  0  0  0  0  0
   -3.3537    1.3779   -0.3172 C   0  0  0  0  0  0  0  0  0  0  0  0
   -4.2823    2.4712   -0.1977 C   0  0  0  0  0  0  0  0  0  0  0  0
   -5.6336    2.2236   -0.4323 C   0  0  0  0  0  0  0  0  0  0  0  0
   -6.6058    3.1945   -0.3454 C   0  0  0  0  0  0  0  0  0  0  0  0
   -8.2772    2.7548   -0.6653 Cl  0  0  0  0  0  0  0  0  0  0  0  0
   -6.2571    4.4763   -0.0137 C   0  0  0  0  0  0  0  0  0  0  0  0
   -4.9516    4.7496    0.2205 C   0  0  0  0  0  0  0  0  0  0  0  0
   -3.9599    3.7520    0.1301 C   0  0  0  0  0  0  0  0  0  0  0  0
   -2.6795    4.1009    0.3776 F   0  0  0  0  0  0  0  0  0  0  0  0
   -1.9967    1.4352   -0.1168 C   0  0  0  0  0  0  0  0  0  0  0  0
   -1.1710    0.3052   -0.2568 C   0  0  0  0  0  0  0  0  0  0  0  0
    0.2293    0.4574    0.0145 N   0  0  0  0  0  0  0  0  0  0  0  0
    1.1121    0.5673   -1.0582 C   0  0  0  0  0  0  0  0  0  0  0  0
    0.5754    0.6790   -2.3582 C   0  0  0  0  0  0  0  0  0  0  0  0
    1.3697    0.7954   -3.4766 C   0  0  0  0  0  0  0  0  0  0  0  0
    2.6994    0.8034   -3.3322 N   0  0  0  0  0  0  0  0  0  0  0  0
    3.2644    0.7013   -2.1352 C   0  0  0  0  0  0  0  0  0  0  0  0
    2.4700    0.5803   -0.9689 C   0  0  0  0  0  0  0  0  0  0  0  0
    3.1283    0.4532    0.3157 C   0  0  0  0  0  0  0  0  0  0  0  0
    2.4613    0.2908    1.3530 O   0  0  0  0  0  0  0  0  0  0  0  0
    4.5364    0.4973    0.5280 N   0  0  0  0  0  0  0  0  0  0  0  0
    5.2142    0.3712    1.7694 C   0  0  0  0  0  0  0  0  0  0  0  0
    5.0677   -0.8806    2.5327 C   0  0  0  0  0  0  0  0  0  0  0  0
    5.8658   -0.6852    3.8360 C   0  0  0  0  0  0  0  0  0  0  0  0
    3.8003   -1.2240    2.9264 O   0  0  0  0  0  0  0  0  0  0  0  0
   -2.5738   -5.0017   -1.2880 H   0  0  0  0  0  0  0  0  0  0  0  0
   -0.9246   -4.7460   -1.7972 H   0  0  0  0  0  0  0  0  0  0  0  0
   -1.3520   -4.8434    0.0111 H   0  0  0  0  0  0  0  0  0  0  0  0
    0.1267   -3.1413    0.9899 H   0  0  0  0  0  0  0  0  0  0  0  0
   -0.6239   -1.5648    1.3870 H   0  0  0  0  0  0  0  0  0  0  0  0
   -1.6949   -2.9755    1.2950 H   0  0  0  0  0  0  0  0  0  0  0  0
    0.4155   -3.5312   -1.3530 H   0  0  0  0  0  0  0  0  0  0  0  0
    1.1628   -2.1046   -0.7054 H   0  0  0  0  0  0  0  0  0  0  0  0
    0.2482   -2.0971   -2.3369 H   0  0  0  0  0  0  0  0  0  0  0  0
   -3.5922   -1.8571   -1.0765 H   0  0  0  0  0  0  0  0  0  0  0  0
   -5.9594    1.2211   -0.6984 H   0  0  0  0  0  0  0  0  0  0  0  0
   -7.0115    5.2496    0.0583 H   0  0  0  0  0  0  0  0  0  0  0  0
   -4.6633    5.7688    0.4858 H   0  0  0  0  0  0  0  0  0  0  0  0
   -1.5249    2.3456    0.1533 H   0  0  0  0  0  0  0  0  0  0  0  0
    0.4518    0.4887    1.0167 H   0  0  0  0  0  0  0  0  0  0  0  0
   -0.4855    0.6742   -2.4889 H   0  0  0  0  0  0  0  0  0  0  0  0
    0.9807    0.8814   -4.4723 H   0  0  0  0  0  0  0  0  0  0  0  0
    4.3421    0.7099   -2.0510 H   0  0  0  0  0  0  0  0  0  0  0  0
    5.1323    0.6373   -0.3126 H   0  0  0  0  0  0  0  0  0  0  0  0
    4.9146    1.2186    2.4635 H   0  0  0  0  0  0  0  0  0  0  0  0
    6.3137    0.5485    1.6325 H   0  0  0  0  0  0  0  0  0  0  0  0
    5.6091   -1.7473    2.0438 H   0  0  0  0  0  0  0  0  0  0  0  0
    6.1918   -1.6514    4.2551 H   0  0  0  0  0  0  0  0  0  0  0  0
    5.1855   -0.1574    4.5341 H   0  0  0  0  0  0  0  0  0  0  0  0
    6.7594   -0.0405    3.6058 H   0  0  0  0  0  0  0  0  0  0  0  0
    3.6611   -2.1892    2.9510 H   0  0  0  0  0  0  0  0  0  0  0  0
  1  2  1  0
  2  3  1  0
  3  4  1  0
  3  5  1  0
  3  6  1  0
  6  7  2  0
  7  8  1  0
  8  9  2  0
  9 10  1  0
 10 11  2  0
 11 12  1  0
 12 13  1  0
 12 14  2  0
 14 15  1  0
 15 16  2  0
 16 17  1  0
  9 18  1  0
 18 19  2  0
 19 20  1  0
 20 21  1  0
 21 22  2  0
 22 23  1  0
 23 24  2  0
 24 25  1  0
 25 26  2  0
 26 27  1  0
 27 28  2  0
 27 29  1  0
 29 30  1  0
 30 31  1  0
 31 32  1  0
 31 33  1  0
 19  6  1  0
 26 21  1  0
 16 10  1  0
  1 34  1  0
  1 35  1  0
  1 36  1  0
  4 37  1  0
  4 38  1  0
  4 39  1  0
  5 40  1  0
  5 41  1  0
  5 42  1  0
  7 43  1  0
 11 44  1  0
 14 45  1  0
 15 46  1  0
 18 47  1  0
 20 48  1  0
 22 49  1  0
 23 50  1  0
 25 51  1  0
 29 52  1  0
 30 53  1  0
 30 54  1  0
 31 55  1  0
 32 56  1  0
 32 57  1  0
 32 58  1  0
 33 59  1  0
M  END
$$$$
