
     RDKit          3D

247247  0  0  0  0  0  0  0  0999 V2000
   -0.1714   -7.8899   -5.2359 C   0  0  0  0  0  0  0  0  0  0  0  0
   -0.5771   -6.9093   -6.3628 C   0  0  0  0  0  0  0  0  0  0  0  0
    0.3643   -7.1929   -7.4808 C   0  0  0  0  0  0  0  0  0  0  0  0
   -0.2474   -5.5434   -5.7945 C   0  0  0  0  0  0  0  0  0  0  0  0
   -2.0106   -7.1408   -6.5938 C   0  0  0  0  0  0  0  0  0  0  0  0
   -2.7433   -6.3653   -7.6080 C   0  0  0  0  0  0  0  0  0  0  0  0
   -2.1861   -6.5396   -9.0201 C   0  0  0  0  0  0  0  0  0  0  0  0
   -4.1371   -7.0278   -7.7065 C   0  0  0  0  0  0  0  0  0  0  0  0
   -2.9975   -4.9440   -7.3056 C   0  0  0  0  0  0  0  0  0  0  0  0
   -4.0748   -4.6836   -6.4478 C   0  0  0  0  0  0  0  0  0  0  0  0
   -4.4617   -3.4014   -6.0885 C   0  0  0  0  0  0  0  0  0  0  0  0
   -3.7952   -2.2920   -6.5655 C   0  0  0  0  0  0  0  0  0  0  0  0
   -4.1381   -0.9899   -6.2440 O   0  0  0  0  0  0  0  0  0  0  0  0
   -3.4050    0.1119   -6.7905 C   0  0  0  0  0  0  0  0  0  0  0  0
   -3.9005    1.4400   -6.4023 C   0  0  0  0  0  0  0  0  0  0  0  0
   -3.9118    1.7726   -5.0566 O   0  0  0  0  0  0  0  0  0  0  0  0
   -4.4442    3.0447   -4.8989 C   0  0  0  0  0  0  0  0  0  0  0  0
   -4.4998    3.5715   -3.5387 C   0  0  0  0  0  0  0  0  0  0  0  0
   -3.2764    3.7060   -2.8680 O   0  0  0  0  0  0  0  0  0  0  0  0
   -3.5763    4.2884   -1.6498 C   0  0  0  0  0  0  0  0  0  0  0  0
   -2.3595    4.5610   -0.7738 C   0  0  0  0  0  0  0  0  0  0  0  0
   -2.7232    5.1460    0.3967 O   0  0  0  0  0  0  0  0  0  0  0  0
   -1.7978    5.4799    1.3246 C   0  0  0  0  0  0  0  0  0  0  0  0
   -0.9754    4.3543    1.9111 C   0  0  0  0  0  0  0  0  0  0  0  0
   -0.1096    4.8659    2.8396 O   0  0  0  0  0  0  0  0  0  0  0  0
    0.6795    4.0290    3.5366 C   0  0  0  0  0  0  0  0  0  0  0  0
    1.6711    3.2401    2.7056 C   0  0  0  0  0  0  0  0  0  0  0  0
    2.4291    2.3986    3.4573 O   0  0  0  0  0  0  0  0  0  0  0  0
    3.3722    1.7206    2.8083 C   0  0  0  0  0  0  0  0  0  0  0  0
    3.1200    0.7089    1.7680 C   0  0  0  0  0  0  0  0  0  0  0  0
    2.3895   -0.4006    2.0786 O   0  0  0  0  0  0  0  0  0  0  0  0
    2.3135   -1.3979    1.1710 C   0  0  0  0  0  0  0  0  0  0  0  0
    1.5175   -2.6134    1.4454 C   0  0  0  0  0  0  0  0  0  0  0  0
    0.1730   -2.5244    1.6639 O   0  0  0  0  0  0  0  0  0  0  0  0
   -0.4111   -3.7928    1.7933 C   0  0  0  0  0  0  0  0  0  0  0  0
    0.0364   -4.5869    2.9627 C   0  0  0  0  0  0  0  0  0  0  0  0
   -0.2493   -4.0277    4.2050 O   0  0  0  0  0  0  0  0  0  0  0  0
    0.3632   -4.8147    5.1508 C   0  0  0  0  0  0  0  0  0  0  0  0
    0.0968   -4.4650    6.5782 C   0  0  0  0  0  0  0  0  0  0  0  0
   -1.2277   -4.5630    6.9826 O   0  0  0  0  0  0  0  0  0  0  0  0
   -1.2960   -4.0920    8.3073 C   0  0  0  0  0  0  0  0  0  0  0  0
   -1.1984   -2.5835    8.3971 C   0  0  0  0  0  0  0  0  0  0  0  0
   -2.2460   -1.9205    7.7763 O   0  0  0  0  0  0  0  0  0  0  0  0
   -2.5625   -2.2649    6.5141 C   0  0  0  0  0  0  0  0  0  0  0  0
   -3.6878   -1.4454    5.8725 C   0  0  0  0  0  0  0  0  0  0  0  0
   -3.5134   -0.1511    5.7299 O   0  0  0  0  0  0  0  0  0  0  0  0
   -3.3526    0.6798    6.7958 C   0  0  0  0  0  0  0  0  0  0  0  0
   -3.1368    2.1141    6.1820 C   0  0  0  0  0  0  0  0  0  0  0  0
   -4.2571    2.4225    5.4293 O   0  0  0  0  0  0  0  0  0  0  0  0
   -4.0776    3.5915    4.7218 C   0  0  0  0  0  0  0  0  0  0  0  0
   -5.3441    3.8915    3.9109 C   0  0  0  0  0  0  0  0  0  0  0  0
   -5.6765    2.9103    3.0484 O   0  0  0  0  0  0  0  0  0  0  0  0
   -4.8064    2.6033    2.0308 C   0  0  0  0  0  0  0  0  0  0  0  0
   -5.2913    1.4017    1.2776 C   0  0  0  0  0  0  0  0  0  0  0  0
   -4.4899    0.9981    0.1994 O   0  0  0  0  0  0  0  0  0  0  0  0
   -5.0423   -0.1738   -0.2887 C   0  0  0  0  0  0  0  0  0  0  0  0
   -4.4262   -0.7842   -1.4480 C   0  0  0  0  0  0  0  0  0  0  0  0
   -3.0774   -1.1725   -1.3798 O   0  0  0  0  0  0  0  0  0  0  0  0
   -2.9864   -2.1272   -2.4136 C   0  0  0  0  0  0  0  0  0  0  0  0
   -1.7102   -2.7511   -2.6858 C   0  0  0  0  0  0  0  0  0  0  0  0
   -0.6120   -2.0759   -3.1324 O   0  0  0  0  0  0  0  0  0  0  0  0
   -0.8095   -1.6026   -4.4338 C   0  0  0  0  0  0  0  0  0  0  0  0
    0.3349   -1.0414   -5.1555 C   0  0  0  0  0  0  0  0  0  0  0  0
    0.9778    0.0634   -4.6367 O   0  0  0  0  0  0  0  0  0  0  0  0
    2.0281    0.3132   -5.5528 C   0  0  0  0  0  0  0  0  0  0  0  0
    2.8529    1.5083   -5.1587 C   0  0  0  0  0  0  0  0  0  0  0  0
    3.4357    1.3878   -3.9414 O   0  0  0  0  0  0  0  0  0  0  0  0
    4.3739    0.3686   -3.8041 C   0  0  0  0  0  0  0  0  0  0  0  0
    4.8058    0.2338   -2.3824 C   0  0  0  0  0  0  0  0  0  0  0  0
    5.7668   -0.7856   -2.1567 O   0  0  0  0  0  0  0  0  0  0  0  0
    5.7676   -0.8255   -0.7299 C   0  0  0  0  0  0  0  0  0  0  0  0
    6.6372   -1.8487   -0.1138 C   0  0  0  0  0  0  0  0  0  0  0  0
    6.5693   -1.8726    1.2708 O   0  0  0  0  0  0  0  0  0  0  0  0
    6.9259   -0.7447    1.9281 C   0  0  0  0  0  0  0  0  0  0  0  0
    6.7090   -0.8631    3.4321 C   0  0  0  0  0  0  0  0  0  0  0  0
    5.3521   -1.1068    3.6751 O   0  0  0  0  0  0  0  0  0  0  0  0
    5.0541   -1.1596    5.0096 C   0  0  0  0  0  0  0  0  0  0  0  0
    3.6561   -1.4454    5.4186 C   0  0  0  0  0  0  0  0  0  0  0  0
    2.6870   -0.5574    4.9859 O   0  0  0  0  0  0  0  0  0  0  0  0
    1.4786   -0.9081    5.5015 C   0  0  0  0  0  0  0  0  0  0  0  0
    0.2852   -0.0916    5.0689 C   0  0  0  0  0  0  0  0  0  0  0  0
    0.0571   -0.1647    3.7212 O   0  0  0  0  0  0  0  0  0  0  0  0
   -1.0222    0.4828    3.2102 C   0  0  0  0  0  0  0  0  0  0  0  0
   -1.2235    0.3853    1.7071 C   0  0  0  0  0  0  0  0  0  0  0  0
   -0.1965    0.8799    0.9750 O   0  0  0  0  0  0  0  0  0  0  0  0
   -0.3874    0.8161   -0.3623 C   0  0  0  0  0  0  0  0  0  0  0  0
    0.6848    1.4489   -1.2201 C   0  0  0  0  0  0  0  0  0  0  0  0
    0.8578    2.7839   -0.9778 O   0  0  0  0  0  0  0  0  0  0  0  0
    1.8125    3.2884   -1.8492 C   0  0  0  0  0  0  0  0  0  0  0  0
    2.0640    4.7382   -1.8014 C   0  0  0  0  0  0  0  0  0  0  0  0
    2.5231    5.3679   -0.7048 O   0  0  0  0  0  0  0  0  0  0  0  0
    3.7862    5.0928   -0.2636 C   0  0  0  0  0  0  0  0  0  0  0  0
    4.0845    6.0224    0.9239 C   0  0  0  0  0  0  0  0  0  0  0  0
    5.3426    5.8297    1.4158 O   0  0  0  0  0  0  0  0  0  0  0  0
    5.6238    6.5921    2.5221 C   0  0  0  0  0  0  0  0  0  0  0  0
    4.8568    6.2580    3.7575 C   0  0  0  0  0  0  0  0  0  0  0  0
    5.1607    7.0612    4.8644 O   0  0  0  0  0  0  0  0  0  0  0  0
    4.5216    6.5421    5.9596 C   0  0  0  0  0  0  0  0  0  0  0  0
    5.1356    5.4660    6.7556 C   0  0  0  0  0  0  0  0  0  0  0  0
    5.5345    4.2883    6.2502 O   0  0  0  0  0  0  0  0  0  0  0  0
    6.7952    4.3832    5.6638 C   0  0  0  0  0  0  0  0  0  0  0  0
    7.2212    3.0930    4.9930 C   0  0  0  0  0  0  0  0  0  0  0  0
    6.3123    2.7644    3.9815 O   0  0  0  0  0  0  0  0  0  0  0  0
   -2.7240   -2.5658   -7.4184 C   0  0  0  0  0  0  0  0  0  0  0  0
   -2.3286   -3.8277   -7.7822 C   0  0  0  0  0  0  0  0  0  0  0  0
    0.8334   -7.6053   -4.8668 H   0  0  0  0  0  0  0  0  0  0  0  0
   -0.0819   -8.9174   -5.6292 H   0  0  0  0  0  0  0  0  0  0  0  0
   -0.9133   -7.8611   -4.4076 H   0  0  0  0  0  0  0  0  0  0  0  0
    1.3637   -7.4658   -7.0130 H   0  0  0  0  0  0  0  0  0  0  0  0
    0.6282   -6.3102   -8.1053 H   0  0  0  0  0  0  0  0  0  0  0  0
    0.1106   -8.1032   -8.0633 H   0  0  0  0  0  0  0  0  0  0  0  0
    0.1148   -4.9139   -6.6242 H   0  0  0  0  0  0  0  0  0  0  0  0
   -1.1143   -5.0928   -5.2764 H   0  0  0  0  0  0  0  0  0  0  0  0
    0.6287   -5.6310   -5.0867 H   0  0  0  0  0  0  0  0  0  0  0  0
   -2.5424   -6.9890   -5.6049 H   0  0  0  0  0  0  0  0  0  0  0  0
   -2.1872   -8.2198   -6.8077 H   0  0  0  0  0  0  0  0  0  0  0  0
   -2.9918   -6.3447   -9.7953 H   0  0  0  0  0  0  0  0  0  0  0  0
   -1.3862   -5.8523   -9.2741 H   0  0  0  0  0  0  0  0  0  0  0  0
   -1.9661   -7.6178   -9.1472 H   0  0  0  0  0  0  0  0  0  0  0  0
   -4.0063   -7.9406   -8.3152 H   0  0  0  0  0  0  0  0  0  0  0  0
   -4.5260   -7.3080   -6.7288 H   0  0  0  0  0  0  0  0  0  0  0  0
   -4.8147   -6.3535   -8.3017 H   0  0  0  0  0  0  0  0  0  0  0  0
   -4.7261   -5.4281   -5.9783 H   0  0  0  0  0  0  0  0  0  0  0  0
   -5.2839   -3.1719   -5.4291 H   0  0  0  0  0  0  0  0  0  0  0  0
   -3.5765    0.0047   -7.8997 H   0  0  0  0  0  0  0  0  0  0  0  0
   -2.3085   -0.0283   -6.6672 H   0  0  0  0  0  0  0  0  0  0  0  0
   -3.2815    2.2121   -6.9118 H   0  0  0  0  0  0  0  0  0  0  0  0
   -4.9298    1.5616   -6.8231 H   0  0  0  0  0  0  0  0  0  0  0  0
   -3.9460    3.7854   -5.5680 H   0  0  0  0  0  0  0  0  0  0  0  0
   -5.4943    2.9723   -5.3304 H   0  0  0  0  0  0  0  0  0  0  0  0
   -4.8959    4.6274   -3.5938 H   0  0  0  0  0  0  0  0  0  0  0  0
   -5.2583    3.0654   -2.8722 H   0  0  0  0  0  0  0  0  0  0  0  0
   -4.0473    5.2704   -1.8593 H   0  0  0  0  0  0  0  0  0  0  0  0
   -4.3488    3.7224   -1.0825 H   0  0  0  0  0  0  0  0  0  0  0  0
   -1.6562    5.2559   -1.2996 H   0  0  0  0  0  0  0  0  0  0  0  0
   -1.8135    3.5974   -0.6939 H   0  0  0  0  0  0  0  0  0  0  0  0
   -2.3699    5.9038    2.2108 H   0  0  0  0  0  0  0  0  0  0  0  0
   -1.1418    6.3365    1.0258 H   0  0  0  0  0  0  0  0  0  0  0  0
   -1.5820    3.5616    2.3770 H   0  0  0  0  0  0  0  0  0  0  0  0
   -0.4686    3.8808    1.0515 H   0  0  0  0  0  0  0  0  0  0  0  0
    1.3231    4.6667    4.2153 H   0  0  0  0  0  0  0  0  0  0  0  0
    0.0840    3.3959    4.2232 H   0  0  0  0  0  0  0  0  0  0  0  0
    1.1593    2.7401    1.9127 H   0  0  0  0  0  0  0  0  0  0  0  0
    2.3864    3.9582    2.2231 H   0  0  0  0  0  0  0  0  0  0  0  0
    4.1264    2.4613    2.3113 H   0  0  0  0  0  0  0  0  0  0  0  0
    4.0797    1.2654    3.5872 H   0  0  0  0  0  0  0  0  0  0  0  0
    4.1495    0.3436    1.4428 H   0  0  0  0  0  0  0  0  0  0  0  0
    2.7094    1.1234    0.8200 H   0  0  0  0  0  0  0  0  0  0  0  0
    3.3659   -1.8211    0.9555 H   0  0  0  0  0  0  0  0  0  0  0  0
    2.0125   -1.0383    0.1482 H   0  0  0  0  0  0  0  0  0  0  0  0
    1.6277   -3.2793    0.5259 H   0  0  0  0  0  0  0  0  0  0  0  0
    1.9589   -3.2503    2.2594 H   0  0  0  0  0  0  0  0  0  0  0  0
   -0.2692   -4.4082    0.8736 H   0  0  0  0  0  0  0  0  0  0  0  0
   -1.5015   -3.6300    1.8859 H   0  0  0  0  0  0  0  0  0  0  0  0
    1.0874   -4.9350    2.9393 H   0  0  0  0  0  0  0  0  0  0  0  0
   -0.5691   -5.5426    2.9410 H   0  0  0  0  0  0  0  0  0  0  0  0
    1.4698   -4.6675    5.0035 H   0  0  0  0  0  0  0  0  0  0  0  0
    0.2190   -5.9052    4.9909 H   0  0  0  0  0  0  0  0  0  0  0  0
    0.5799   -3.5437    6.8852 H   0  0  0  0  0  0  0  0  0  0  0  0
    0.6248   -5.2738    7.1849 H   0  0  0  0  0  0  0  0  0  0  0  0
   -0.5037   -4.5371    8.9281 H   0  0  0  0  0  0  0  0  0  0  0  0
   -2.2538   -4.3772    8.7892 H   0  0  0  0  0  0  0  0  0  0  0  0
   -0.2421   -2.2265    8.0310 H   0  0  0  0  0  0  0  0  0  0  0  0
   -1.2537   -2.2616    9.4769 H   0  0  0  0  0  0  0  0  0  0  0  0
   -3.0226   -3.3205    6.5811 H   0  0  0  0  0  0  0  0  0  0  0  0
   -1.6889   -2.3541    5.8488 H   0  0  0  0  0  0  0  0  0  0  0  0
   -4.5998   -1.6889    6.5139 H   0  0  0  0  0  0  0  0  0  0  0  0
   -3.9058   -1.9239    4.8736 H   0  0  0  0  0  0  0  0  0  0  0  0
   -2.5025    0.4093    7.4302 H   0  0  0  0  0  0  0  0  0  0  0  0
   -4.2390    0.7474    7.4601 H   0  0  0  0  0  0  0  0  0  0  0  0
   -3.0462    2.8123    7.0221 H   0  0  0  0  0  0  0  0  0  0  0  0
   -2.1987    2.1111    5.6136 H   0  0  0  0  0  0  0  0  0  0  0  0
   -3.2318    3.4900    4.0477 H   0  0  0  0  0  0  0  0  0  0  0  0
   -3.9209    4.4582    5.4153 H   0  0  0  0  0  0  0  0  0  0  0  0
   -6.1338    4.0490    4.6915 H   0  0  0  0  0  0  0  0  0  0  0  0
   -5.2195    4.8842    3.3875 H   0  0  0  0  0  0  0  0  0  0  0  0
   -4.7140    3.5047    1.3740 H   0  0  0  0  0  0  0  0  0  0  0  0
   -3.8185    2.4182    2.4598 H   0  0  0  0  0  0  0  0  0  0  0  0
   -6.3426    1.6124    0.9463 H   0  0  0  0  0  0  0  0  0  0  0  0
   -5.3243    0.5222    1.9753 H   0  0  0  0  0  0  0  0  0  0  0  0
   -5.2276   -0.9003    0.5580 H   0  0  0  0  0  0  0  0  0  0  0  0
   -6.1013    0.1458   -0.6039 H   0  0  0  0  0  0  0  0  0  0  0  0
   -5.0455   -1.6496   -1.8656 H   0  0  0  0  0  0  0  0  0  0  0  0
   -4.4202   -0.0796   -2.3492 H   0  0  0  0  0  0  0  0  0  0  0  0
   -3.5133   -1.6874   -3.2908 H   0  0  0  0  0  0  0  0  0  0  0  0
   -3.7274   -2.9242   -2.0667 H   0  0  0  0  0  0  0  0  0  0  0  0
   -1.8400   -3.6182   -3.3963 H   0  0  0  0  0  0  0  0  0  0  0  0
   -1.3951   -3.2919   -1.7258 H   0  0  0  0  0  0  0  0  0  0  0  0
   -1.2022   -2.4693   -5.0083 H   0  0  0  0  0  0  0  0  0  0  0  0
   -1.6478   -0.8483   -4.4781 H   0  0  0  0  0  0  0  0  0  0  0  0
   -0.0446   -0.7266   -6.1789 H   0  0  0  0  0  0  0  0  0  0  0  0
    1.1094   -1.8301   -5.4305 H   0  0  0  0  0  0  0  0  0  0  0  0
    1.5283    0.5365   -6.5364 H   0  0  0  0  0  0  0  0  0  0  0  0
    2.6107   -0.5963   -5.6980 H   0  0  0  0  0  0  0  0  0  0  0  0
    3.6808    1.5555   -5.9262 H   0  0  0  0  0  0  0  0  0  0  0  0
    2.2941    2.4513   -5.3027 H   0  0  0  0  0  0  0  0  0  0  0  0
    5.2808    0.6992   -4.3893 H   0  0  0  0  0  0  0  0  0  0  0  0
    3.9870   -0.5684   -4.2348 H   0  0  0  0  0  0  0  0  0  0  0  0
    5.2453    1.1677   -1.9779 H   0  0  0  0  0  0  0  0  0  0  0  0
    3.8825    0.0574   -1.7675 H   0  0  0  0  0  0  0  0  0  0  0  0
    6.1153    0.1935   -0.4359 H   0  0  0  0  0  0  0  0  0  0  0  0
    4.7069   -0.8561   -0.4850 H   0  0  0  0  0  0  0  0  0  0  0  0
    7.6945   -1.6127   -0.4339 H   0  0  0  0  0  0  0  0  0  0  0  0
    6.4528   -2.8774   -0.4825 H   0  0  0  0  0  0  0  0  0  0  0  0
    6.4700    0.1801    1.5498 H   0  0  0  0  0  0  0  0  0  0  0  0
    8.0520   -0.6147    1.7833 H   0  0  0  0  0  0  0  0  0  0  0  0
    7.3507   -1.6611    3.8321 H   0  0  0  0  0  0  0  0  0  0  0  0
    6.9502    0.1159    3.8812 H   0  0  0  0  0  0  0  0  0  0  0  0
    5.2855   -0.1194    5.4097 H   0  0  0  0  0  0  0  0  0  0  0  0
    5.7963   -1.8004    5.5467 H   0  0  0  0  0  0  0  0  0  0  0  0
    3.3510   -2.4692    5.0896 H   0  0  0  0  0  0  0  0  0  0  0  0
    3.6232   -1.4008    6.5512 H   0  0  0  0  0  0  0  0  0  0  0  0
    1.4671   -0.9016    6.6331 H   0  0  0  0  0  0  0  0  0  0  0  0
    1.1992   -1.9726    5.2576 H   0  0  0  0  0  0  0  0  0  0  0  0
   -0.6076   -0.3130    5.6468 H   0  0  0  0  0  0  0  0  0  0  0  0
    0.5569    0.9685    5.3790 H   0  0  0  0  0  0  0  0  0  0  0  0
   -1.9309   -0.0641    3.6201 H   0  0  0  0  0  0  0  0  0  0  0  0
   -1.1779    1.5209    3.5661 H   0  0  0  0  0  0  0  0  0  0  0  0
   -1.6200   -0.5955    1.4348 H   0  0  0  0  0  0  0  0  0  0  0  0
   -2.0926    1.1108    1.5197 H   0  0  0  0  0  0  0  0  0  0  0  0
   -0.3407   -0.2847   -0.6368 H   0  0  0  0  0  0  0  0  0  0  0  0
   -1.3535    1.2576   -0.6069 H   0  0  0  0  0  0  0  0  0  0  0  0
    0.2784    1.3790   -2.2740 H   0  0  0  0  0  0  0  0  0  0  0  0
    1.6343    0.9361   -1.2485 H   0  0  0  0  0  0  0  0  0  0  0  0
    2.7893    2.7522   -1.7033 H   0  0  0  0  0  0  0  0  0  0  0  0
    1.4668    3.0057   -2.8822 H   0  0  0  0  0  0  0  0  0  0  0  0
    2.8452    4.9380   -2.6175 H   0  0  0  0  0  0  0  0  0  0  0  0
    1.1591    5.2993   -2.1919 H   0  0  0  0  0  0  0  0  0  0  0  0
    3.8689    4.0620    0.1883 H   0  0  0  0  0  0  0  0  0  0  0  0
    4.5983    5.1469   -0.9813 H   0  0  0  0  0  0  0  0  0  0  0  0
    3.9556    7.0537    0.4772 H   0  0  0  0  0  0  0  0  0  0  0  0
    3.3256    5.9674    1.7013 H   0  0  0  0  0  0  0  0  0  0  0  0
    5.4379    7.6862    2.3041 H   0  0  0  0  0  0  0  0  0  0  0  0
    6.7289    6.5781    2.7620 H   0  0  0  0  0  0  0  0  0  0  0  0
    3.7469    6.5163    3.5802 H   0  0  0  0  0  0  0  0  0  0  0  0
    4.8368    5.1830    3.9352 H   0  0  0  0  0  0  0  0  0  0  0  0
    4.1937    7.3674    6.6695 H   0  0  0  0  0  0  0  0  0  0  0  0
    3.4941    6.1362    5.6294 H   0  0  0  0  0  0  0  0  0  0  0  0
    5.9780    5.8780    7.4174 H   0  0  0  0  0  0  0  0  0  0  0  0
    4.3671    5.1978    7.5765 H   0  0  0  0  0  0  0  0  0  0  0  0
    6.9855    5.2140    5.0029 H   0  0  0  0  0  0  0  0  0  0  0  0
    7.5499    4.5280    6.5106 H   0  0  0  0  0  0  0  0  0  0  0  0
    7.2731    2.2527    5.7181 H   0  0  0  0  0  0  0  0  0  0  0  0
    8.1910    3.3127    4.4983 H   0  0  0  0  0  0  0  0  0  0  0  0
    6.5934    3.1284    3.0978 H   0  0  0  0  0  0  0  0  0  0  0  0
   -2.1542   -1.7133   -7.8287 H   0  0  0  0  0  0  0  0  0  0  0  0
   -1.5008   -4.0388   -8.4394 H   0  0  0  0  0  0  0  0  0  0  0  0
  1  2  1  0
  2  3  1  0
  2  4  1  0
  2  5  1  0
  5  6  1  0
  6  7  1  0
  6  8  1  0
  6  9  1  0
  9 10  2  0
 10 11  1  0
 11 12  2  0
 12 13  1  0
 13 14  1  0
 14 15  1  0
 15 16  1  0
 16 17  1  0
 17 18  1  0
 18 19  1  0
 19 20  1  0
 20 21  1  0
 21 22  1  0
 22 23  1  0
 23 24  1  0
 24 25  1  0
 25 26  1  0
 26 27  1  0
 27 28  1  0
 28 29  1  0
 29 30  1  0
 30 31  1  0
 31 32  1  0
 32 33  1  0
 33 34  1  0
 34 35  1  0
 35 36  1  0
 36 37  1  0
 37 38  1  0
 38 39  1  0
 39 40  1  0
 40 41  1  0
 41 42  1  0
 42 43  1  0
 43 44  1  0
 44 45  1  0
 45 46  1  0
 46 47  1  0
 47 48  1  0
 48 49  1  0
 49 50  1  0
 50 51  1  0
 51 52  1  0
 52 53  1  0
 53 54  1  0
 54 55  1  0
 55 56  1  0
 56 57  1  0
 57 58  1  0
 58 59  1  0
 59 60  1  0
 60 61  1  0
 61 62  1  0
 62 63  1  0
 63 64  1  0
 64 65  1  0
 65 66  1  0
 66 67  1  0
 67 68  1  0
 68 69  1  0
 69 70  1  0
 70 71  1  0
 71 72  1  0
 72 73  1  0
 73 74  1  0
 74 75  1  0
 75 76  1  0
 76 77  1  0
 77 78  1  0
 78 79  1  0
 79 80  1  0
 80 81  1  0
 81 82  1  0
 82 83  1  0
 83 84  1  0
 84 85  1  0
 85 86  1  0
 86 87  1  0
 87 88  1  0
 88 89  1  0
 89 90  1  0
 90 91  1  0
 91 92  1  0
 92 93  1  0
 93 94  1  0
 94 95  1  0
 95 96  1  0
 96 97  1  0
 97 98  1  0
 98 99  1  0
 99100  1  0
100101  1  0
101102  1  0
102103  1  0
 12104  1  0
104105  2  0
105  9  1  0
  1106  1  0
  1107  1  0
  1108  1  0
  3109  1  0
  3110  1  0
  3111  1  0
  4112  1  0
  4113  1  0
  4114  1  0
  5115  1  0
  5116  1  0
  7117  1  0
  7118  1  0
  7119  1  0
  8120  1  0
  8121  1  0
  8122  1  0
 10123  1  0
 11124  1  0
 14125  1  0
 14126  1  0
 15127  1  0
 15128  1  0
 17129  1  0
 17130  1  0
 18131  1  0
 18132  1  0
 20133  1  0
 20134  1  0
 21135  1  0
 21136  1  0
 23137  1  0
 23138  1  0
 24139  1  0
 24140  1  0
 26141  1  0
 26142  1  0
 27143  1  0
 27144  1  0
 29145  1  0
 29146  1  0
 30147  1  0
 30148  1  0
 32149  1  0
 32150  1  0
 33151  1  0
 33152  1  0
 35153  1  0
 35154  1  0
 36155  1  0
 36156  1  0
 38157  1  0
 38158  1  0
 39159  1  0
 39160  1  0
 41161  1  0
 41162  1  0
 42163  1  0
 42164  1  0
 44165  1  0
 44166  1  0
 45167  1  0
 45168  1  0
 47169  1  0
 47170  1  0
 48171  1  0
 48172  1  0
 50173  1  0
 50174  1  0
 51175  1  0
 51176  1  0
 53177  1  0
 53178  1  0
 54179  1  0
 54180  1  0
 56181  1  0
 56182  1  0
 57183  1  0
 57184  1  0
 59185  1  0
 59186  1  0
 60187  1  0
 60188  1  0
 62189  1  0
 62190  1  0
 63191  1  0
 63192  1  0
 65193  1  0
 65194  1  0
 66195  1  0
 66196  1  0
 68197  1  0
 68198  1  0
 69199  1  0
 69200  1  0
 71201  1  0
 71202  1  0
 72203  1  0
 72204  1  0
 74205  1  0
 74206  1  0
 75207  1  0
 75208  1  0
 77209  1  0
 77210  1  0
 78211  1  0
 78212  1  0
 80213  1  0
 80214  1  0
 81215  1  0
 81216  1  0
 83217  1  0
 83218  1  0
 84219  1  0
 84220  1  0
 86221  1  0
 86222  1  0
 87223  1  0
 87224  1  0
 89225  1  0
 89226  1  0
 90227  1  0
 90228  1  0
 92229  1  0
 92230  1  0
 93231  1  0
 93232  1  0
 95233  1  0
 95234  1  0
 96235  1  0
 96236  1  0
 98237  1  0
 98238  1  0
 99239  1  0
 99240  1  0
101241  1  0
101242  1  0
102243  1  0
102244  1  0
103245  1  0
104246  1  0
105247  1  0
M  END
$$$$
