
     RDKit          3D

 45 49  0  0  0  0  0  0  0  0999 V2000
   -5.1476    0.5835   -0.0552 O   0  0  0  0  0  0  0  0  0  0  0  0
   -3.8600    0.4758   -0.5643 C   0  0  0  0  0  0  0  0  0  0  0  0
   -3.5734    0.5461   -1.9091 C   0  0  0  0  0  0  0  0  0  0  0  0
   -2.3068    0.4430   -2.4622 C   0  0  0  0  0  0  0  0  0  0  0  0
   -1.3178    0.2554   -1.4991 C   0  0  0  0  0  0  0  0  0  0  0  0
    0.0699    0.1240   -1.9275 C   0  0  0  0  0  0  0  0  0  0  0  0
    1.0091   -0.3862   -0.8744 C   0  0  1  0  0  0  0  0  0  0  0  0
    1.8861    0.6841   -0.5158 N   0  0  0  0  0  0  0  0  0  0  0  0
    3.2570    0.1533   -0.5757 C   0  0  0  0  0  0  0  0  0  0  0  0
    4.1911    1.2988   -0.5716 C   0  0  0  0  0  0  0  0  0  0  0  0
    3.9932    2.6087   -0.5198 C   0  0  0  0  0  0  0  0  0  0  0  0
    1.6143    1.2542    0.7742 C   0  0  0  0  0  0  0  0  0  0  0  0
    0.1685    1.2470    1.1913 C   0  0  0  0  0  0  0  0  0  0  0  0
   -0.5635   -0.0265    0.9162 C   0  0  1  0  0  0  0  0  0  0  0  0
   -1.4523   -0.5188    2.0117 C   0  0  1  0  0  0  0  0  0  0  0  0
   -2.6988    0.1658    1.7493 O   0  0  0  0  0  0  0  0  0  0  0  0
   -2.8386    0.2869    0.3697 C   0  0  0  0  0  0  0  0  0  0  0  0
   -1.5821    0.1842   -0.1770 C   0  0  0  0  0  0  0  0  0  0  0  0
   -1.6241   -1.9708    2.0984 C   0  0  0  0  0  0  0  0  0  0  0  0
   -2.5231   -2.3447    2.8267 O   0  0  0  0  0  0  0  0  0  0  0  0
   -0.7335   -2.9000    1.3282 C   0  0  0  0  0  0  0  0  0  0  0  0
   -0.3424   -2.2857    0.0028 C   0  0  0  0  0  0  0  0  0  0  0  0
    0.3965   -0.9925    0.3255 C   0  0  1  0  0  0  0  0  0  0  0  0
    1.3778   -1.2885    1.2614 O   0  0  0  0  0  0  0  0  0  0  0  0
   -5.3163    1.2041    0.7373 H   0  0  0  0  0  0  0  0  0  0  0  0
   -4.3794    0.6921   -2.6263 H   0  0  0  0  0  0  0  0  0  0  0  0
   -2.0873    0.4993   -3.5128 H   0  0  0  0  0  0  0  0  0  0  0  0
    0.4035    1.1487   -2.2799 H   0  0  0  0  0  0  0  0  0  0  0  0
    0.0808   -0.4822   -2.8550 H   0  0  0  0  0  0  0  0  0  0  0  0
    1.5936   -1.2161   -1.3771 H   0  0  0  0  0  0  0  0  0  0  0  0
    3.4118   -0.4968   -1.4679 H   0  0  0  0  0  0  0  0  0  0  0  0
    3.4300   -0.5166    0.3149 H   0  0  0  0  0  0  0  0  0  0  0  0
    5.2484    1.0914   -0.6185 H   0  0  0  0  0  0  0  0  0  0  0  0
    3.5170    3.5816   -0.4693 H   0  0  0  0  0  0  0  0  0  0  0  0
    4.6976    3.4117   -0.5336 H   0  0  0  0  0  0  0  0  0  0  0  0
    2.2412    0.8150    1.6017 H   0  0  0  0  0  0  0  0  0  0  0  0
    1.9069    2.3247    0.7324 H   0  0  0  0  0  0  0  0  0  0  0  0
   -0.3212    2.0894    0.6156 H   0  0  0  0  0  0  0  0  0  0  0  0
    0.1345    1.5416    2.2608 H   0  0  0  0  0  0  0  0  0  0  0  0
   -1.0940   -0.0714    2.9864 H   0  0  0  0  0  0  0  0  0  0  0  0
   -1.2150   -3.8926    1.1972 H   0  0  0  0  0  0  0  0  0  0  0  0
    0.1827   -3.0272    1.9301 H   0  0  0  0  0  0  0  0  0  0  0  0
   -1.2512   -2.1136   -0.6180 H   0  0  0  0  0  0  0  0  0  0  0  0
    0.3832   -2.9852   -0.4870 H   0  0  0  0  0  0  0  0  0  0  0  0
    1.0339   -1.1949    2.2065 H   0  0  0  0  0  0  0  0  0  0  0  0
  1  2  1  0
  2  3  2  0
  3  4  1  0
  4  5  2  0
  5  6  1  0
  6  7  1  0
  7  8  1  0
  8  9  1  0
  9 10  1  0
 10 11  2  0
  8 12  1  0
 12 13  1  0
 14 13  1  1
 14 15  1  0
 15 16  1  0
 16 17  1  0
 17 18  2  0
 15 19  1  0
 19 20  2  0
 19 21  1  0
 21 22  1  0
 22 23  1  0
 23 24  1  1
 17  2  1  0
 18  5  1  0
 23  7  1  0
 18 14  1  0
 23 14  1  0
  1 25  1  0
  3 26  1  0
  4 27  1  0
  6 28  1  0
  6 29  1  0
  7 30  1  6
  9 31  1  0
  9 32  1  0
 10 33  1  0
 11 34  1  0
 11 35  1  0
 12 36  1  0
 12 37  1  0
 13 38  1  0
 13 39  1  0
 15 40  1  1
 21 41  1  0
 21 42  1  0
 22 43  1  0
 22 44  1  0
 24 45  1  0
M  END
$$$$
