
     RDKit          3D

 68 72  0  0  0  0  0  0  0  0999 V2000
   -5.1164   -3.4924   -2.6121 C   0  0  0  0  0  0  0  0  0  0  0  0
   -3.8184   -3.0363   -2.0617 C   0  0  0  0  0  0  0  0  0  0  0  0
   -2.6778   -3.7097   -2.4118 C   0  0  0  0  0  0  0  0  0  0  0  0
   -1.4169   -3.3349   -1.9305 C   0  0  0  0  0  0  0  0  0  0  0  0
   -1.2921   -2.2727   -1.0873 C   0  0  0  0  0  0  0  0  0  0  0  0
   -0.0663   -1.7916   -0.5291 N   0  0  0  0  0  0  0  0  0  0  0  0
    1.2117   -2.3003   -0.7349 C   0  0  0  0  0  0  0  0  0  0  0  0
    1.3541   -3.2829   -1.4803 O   0  0  0  0  0  0  0  0  0  0  0  0
    2.4290   -1.7310   -0.1088 C   0  0  0  0  0  0  0  0  0  0  0  0
    2.4253   -0.6614    0.7323 C   0  0  0  0  0  0  0  0  0  0  0  0
    3.6229   -0.2181    1.2560 C   0  0  0  0  0  0  0  0  0  0  0  0
    4.8244   -0.8169    0.9604 C   0  0  0  0  0  0  0  0  0  0  0  0
    6.0820   -0.2921    1.5556 C   0  0  0  0  0  0  0  0  0  0  0  0
    6.7237    0.7101    0.7567 N   0  0  0  0  0  0  0  0  0  0  0  0
    5.9254    1.8787    0.5124 C   0  0  0  0  0  0  0  0  0  0  0  0
    6.5373    2.7094   -0.5981 C   0  0  0  0  0  0  0  0  0  0  0  0
    7.9677    2.6018   -0.6188 N   0  0  0  0  0  0  0  0  0  0  0  0
    8.5378    3.2496    0.5371 C   0  0  0  0  0  0  0  0  0  0  0  0
    8.4372    1.2529   -0.8073 C   0  0  0  0  0  0  0  0  0  0  0  0
    7.4069    0.2136   -0.3958 C   0  0  0  0  0  0  0  0  0  0  0  0
    4.8173   -1.8986    0.1082 C   0  0  0  0  0  0  0  0  0  0  0  0
    3.6354   -2.3572   -0.4253 C   0  0  0  0  0  0  0  0  0  0  0  0
   -2.4816   -1.6043   -0.7482 C   0  0  0  0  0  0  0  0  0  0  0  0
   -3.7225   -1.9483   -1.2027 C   0  0  0  0  0  0  0  0  0  0  0  0
   -4.9168   -1.2803   -0.8650 N   0  0  0  0  0  0  0  0  0  0  0  0
   -5.0670   -0.1562   -0.0189 C   0  0  0  0  0  0  0  0  0  0  0  0
   -4.1013    0.4768    0.6118 N   0  0  0  0  0  0  0  0  0  0  0  0
   -4.3376    1.5297    1.3912 C   0  0  0  0  0  0  0  0  0  0  0  0
   -5.6490    2.0017    1.5642 C   0  0  0  0  0  0  0  0  0  0  0  0
   -6.6674    1.3538    0.9143 C   0  0  0  0  0  0  0  0  0  0  0  0
   -8.0627    1.7489    1.0137 C   0  0  0  0  0  0  0  0  0  0  0  0
   -9.0495    1.0408    0.3191 C   0  0  0  0  0  0  0  0  0  0  0  0
  -10.3782    1.3850    0.3894 C   0  0  0  0  0  0  0  0  0  0  0  0
  -10.7875    2.4528    1.1564 C   0  0  0  0  0  0  0  0  0  0  0  0
   -9.8408    3.1304    1.8213 N   0  0  0  0  0  0  0  0  0  0  0  0
   -8.5191    2.8063    1.7655 C   0  0  0  0  0  0  0  0  0  0  0  0
   -6.3408    0.3073    0.1530 N   0  0  0  0  0  0  0  0  0  0  0  0
   -5.8660   -3.6798   -1.8152 H   0  0  0  0  0  0  0  0  0  0  0  0
   -4.9723   -4.4634   -3.1236 H   0  0  0  0  0  0  0  0  0  0  0  0
   -5.4555   -2.7670   -3.3609 H   0  0  0  0  0  0  0  0  0  0  0  0
   -2.7288   -4.5619   -3.0810 H   0  0  0  0  0  0  0  0  0  0  0  0
   -0.5547   -3.8939   -2.2338 H   0  0  0  0  0  0  0  0  0  0  0  0
   -0.1136   -0.9475    0.1221 H   0  0  0  0  0  0  0  0  0  0  0  0
    1.4832   -0.1857    0.9691 H   0  0  0  0  0  0  0  0  0  0  0  0
    3.5919    0.6492    1.9350 H   0  0  0  0  0  0  0  0  0  0  0  0
    5.8176    0.1507    2.5336 H   0  0  0  0  0  0  0  0  0  0  0  0
    6.7851   -1.1444    1.6467 H   0  0  0  0  0  0  0  0  0  0  0  0
    4.8873    1.6546    0.1893 H   0  0  0  0  0  0  0  0  0  0  0  0
    5.8540    2.5073    1.4175 H   0  0  0  0  0  0  0  0  0  0  0  0
    6.1116    2.4005   -1.5766 H   0  0  0  0  0  0  0  0  0  0  0  0
    6.2646    3.7600   -0.4391 H   0  0  0  0  0  0  0  0  0  0  0  0
    9.4050    2.6399    0.8870 H   0  0  0  0  0  0  0  0  0  0  0  0
    8.9040    4.2795    0.2661 H   0  0  0  0  0  0  0  0  0  0  0  0
    7.8364    3.3165    1.3908 H   0  0  0  0  0  0  0  0  0  0  0  0
    8.6777    1.0981   -1.8807 H   0  0  0  0  0  0  0  0  0  0  0  0
    9.3864    1.1280   -0.2472 H   0  0  0  0  0  0  0  0  0  0  0  0
    6.7236    0.0728   -1.2549 H   0  0  0  0  0  0  0  0  0  0  0  0
    7.9610   -0.6900   -0.1115 H   0  0  0  0  0  0  0  0  0  0  0  0
    5.7769   -2.3821   -0.1322 H   0  0  0  0  0  0  0  0  0  0  0  0
    3.6988   -3.2121   -1.0884 H   0  0  0  0  0  0  0  0  0  0  0  0
   -2.3673   -0.7574   -0.0737 H   0  0  0  0  0  0  0  0  0  0  0  0
   -5.8219   -1.6628   -1.2956 H   0  0  0  0  0  0  0  0  0  0  0  0
   -3.5617    2.0649    1.9184 H   0  0  0  0  0  0  0  0  0  0  0  0
   -5.8660    2.8413    2.1816 H   0  0  0  0  0  0  0  0  0  0  0  0
   -8.7104    0.1953   -0.2863 H   0  0  0  0  0  0  0  0  0  0  0  0
  -11.1434    0.8177   -0.1641 H   0  0  0  0  0  0  0  0  0  0  0  0
  -11.8439    2.7122    1.2018 H   0  0  0  0  0  0  0  0  0  0  0  0
   -7.7877    3.3952    2.3293 H   0  0  0  0  0  0  0  0  0  0  0  0
  1  2  1  0
  2  3  2  0
  3  4  1  0
  4  5  2  0
  5  6  1  0
  6  7  1  0
  7  8  2  0
  7  9  1  0
  9 10  2  0
 10 11  1  0
 11 12  2  0
 12 13  1  0
 13 14  1  0
 14 15  1  0
 15 16  1  0
 16 17  1  0
 17 18  1  0
 17 19  1  0
 19 20  1  0
 12 21  1  0
 21 22  2  0
  5 23  1  0
 23 24  2  0
 24 25  1  0
 25 26  1  0
 26 27  2  0
 27 28  1  0
 28 29  2  0
 29 30  1  0
 30 31  1  0
 31 32  2  0
 32 33  1  0
 33 34  2  0
 34 35  1  0
 35 36  2  0
 30 37  2  0
 24  2  1  0
 37 26  1  0
 22  9  1  0
 36 31  1  0
 20 14  1  0
  1 38  1  0
  1 39  1  0
  1 40  1  0
  3 41  1  0
  4 42  1  0
  6 43  1  0
 10 44  1  0
 11 45  1  0
 13 46  1  0
 13 47  1  0
 15 48  1  0
 15 49  1  0
 16 50  1  0
 16 51  1  0
 18 52  1  0
 18 53  1  0
 18 54  1  0
 19 55  1  0
 19 56  1  0
 20 57  1  0
 20 58  1  0
 21 59  1  0
 22 60  1  0
 23 61  1  0
 25 62  1  0
 28 63  1  0
 29 64  1  0
 32 65  1  0
 33 66  1  0
 34 67  1  0
 36 68  1  0
M  END
$$$$
