
     RDKit          3D

 25 27  0  0  0  0  0  0  0  0999 V2000
    5.2994   -0.1338   -0.2842 Cl  0  0  0  0  0  0  0  0  0  0  0  0
    3.5322   -0.0759   -0.1810 C   0  0  0  0  0  0  0  0  0  0  0  0
    2.7866    0.3238   -1.2628 C   0  0  0  0  0  0  0  0  0  0  0  0
    1.4255    0.3608   -1.1607 C   0  0  0  0  0  0  0  0  0  0  0  0
    0.7441    0.0099   -0.0013 C   0  0  0  0  0  0  0  0  0  0  0  0
   -0.7151    0.0946   -0.0267 C   0  0  0  0  0  0  0  0  0  0  0  0
   -1.3984    1.3655    0.3695 C   0  0  0  0  0  0  0  0  0  0  0  0
   -2.7999    1.0438    0.4248 N   0  0  0  0  0  0  0  0  0  0  0  0
   -2.9030   -0.3481    0.8032 C   0  0  0  0  0  0  0  0  0  0  0  0
   -1.6238   -0.9945    0.3104 C   0  0  0  0  0  0  0  0  0  0  0  0
   -1.3522   -0.7335   -1.1632 C   0  0  0  0  0  0  0  0  0  0  0  0
    1.5011   -0.3838    1.0609 C   0  0  0  0  0  0  0  0  0  0  0  0
    2.8743   -0.4257    0.9713 C   0  0  0  0  0  0  0  0  0  0  0  0
    3.8099   -0.9444    2.3806 Cl  0  0  0  0  0  0  0  0  0  0  0  0
    3.2748    0.6105   -2.1991 H   0  0  0  0  0  0  0  0  0  0  0  0
    0.8784    0.6873   -2.0540 H   0  0  0  0  0  0  0  0  0  0  0  0
   -1.0052    1.6663    1.3601 H   0  0  0  0  0  0  0  0  0  0  0  0
   -1.1992    2.1952   -0.3639 H   0  0  0  0  0  0  0  0  0  0  0  0
   -3.2447    1.2294   -0.5063 H   0  0  0  0  0  0  0  0  0  0  0  0
   -3.7597   -0.8619    0.2996 H   0  0  0  0  0  0  0  0  0  0  0  0
   -2.9587   -0.4415    1.9067 H   0  0  0  0  0  0  0  0  0  0  0  0
   -1.3238   -1.9499    0.7528 H   0  0  0  0  0  0  0  0  0  0  0  0
   -2.0811   -0.1531   -1.7507 H   0  0  0  0  0  0  0  0  0  0  0  0
   -0.7322   -1.4809   -1.6580 H   0  0  0  0  0  0  0  0  0  0  0  0
    0.9706   -0.6599    1.9721 H   0  0  0  0  0  0  0  0  0  0  0  0
  1  2  1  0
  2  3  2  0
  3  4  1  0
  4  5  2  0
  5  6  1  0
  6  7  1  0
  7  8  1  0
  8  9  1  0
  9 10  1  0
 10 11  1  0
  5 12  1  0
 12 13  2  0
 13 14  1  0
 13  2  1  0
 10  6  1  0
 11  6  1  0
  3 15  1  0
  4 16  1  0
  7 17  1  0
  7 18  1  0
  8 19  1  0
  9 20  1  0
  9 21  1  0
 10 22  1  0
 11 23  1  0
 11 24  1  0
 12 25  1  0
M  END
$$$$
