
     RDKit          3D

 52 55  0  0  0  0  0  0  0  0999 V2000
    5.0994   -2.3447   -0.9122 C   0  0  0  0  0  0  0  0  0  0  0  0
    3.9540   -1.6107   -0.2913 C   0  0  0  0  0  0  0  0  0  0  0  0
    4.1403   -0.2332   -0.2114 O   0  0  0  0  0  0  0  0  0  0  0  0
    3.1541    0.5628    0.3462 C   0  0  0  0  0  0  0  0  0  0  0  0
    1.9882   -0.0214    0.8745 C   0  0  0  0  0  0  0  0  0  0  0  0
    1.0039    0.7651    1.4329 C   0  0  0  0  0  0  0  0  0  0  0  0
   -0.2269    0.1063    2.0180 C   0  0  2  0  0  0  0  0  0  0  0  0
    0.2704   -1.0775    2.7359 N   0  0  0  0  0  0  0  0  0  0  0  0
   -0.1535   -2.3942    2.4465 C   0  0  0  0  0  0  0  0  0  0  0  0
    0.3382   -3.3771    3.0880 O   0  0  0  0  0  0  0  0  0  0  0  0
   -1.1256   -2.5671    1.4364 N   0  0  0  0  0  0  0  0  0  0  0  0
   -1.6518   -1.4156    0.7307 C   0  0  0  0  0  0  0  0  0  0  0  0
   -2.6814   -1.7432   -0.2405 C   0  0  0  0  0  0  0  0  0  0  0  0
   -2.5374   -2.7522   -1.1666 C   0  0  0  0  0  0  0  0  0  0  0  0
   -3.5517   -3.0666   -2.0732 C   0  0  0  0  0  0  0  0  0  0  0  0
   -4.7158   -2.3535   -2.0377 C   0  0  0  0  0  0  0  0  0  0  0  0
   -4.8599   -1.3704   -1.1374 N   0  0  0  0  0  0  0  0  0  0  0  0
   -3.8863   -1.0590   -0.2583 C   0  0  0  0  0  0  0  0  0  0  0  0
   -1.2343   -0.1943    1.0070 C   0  0  0  0  0  0  0  0  0  0  0  0
   -1.7920    0.9266    0.2607 C   0  0  0  0  0  0  0  0  0  0  0  0
   -1.9983    0.9664   -1.0864 C   0  0  0  0  0  0  0  0  0  0  0  0
   -2.5583    2.0779   -1.6989 C   0  0  0  0  0  0  0  0  0  0  0  0
   -2.9258    3.1913   -0.9490 C   0  0  0  0  0  0  0  0  0  0  0  0
   -2.7216    3.1622    0.4028 C   0  0  0  0  0  0  0  0  0  0  0  0
   -2.1676    2.0507    0.9812 C   0  0  0  0  0  0  0  0  0  0  0  0
    1.2081    2.1147    1.4481 C   0  0  0  0  0  0  0  0  0  0  0  0
    2.3380    2.7223    0.9382 C   0  0  0  0  0  0  0  0  0  0  0  0
    2.4921    4.1492    0.9672 N   0  0  0  0  0  4  0  0  0  0  0  0
    3.1227    4.7400    0.0889 O   0  0  0  0  0  0  0  0  0  0  0  0
    1.9242    4.8372    1.9910 O   0  0  0  0  0  1  0  0  0  0  0  0
    3.3108    1.9243    0.3862 C   0  0  0  0  0  0  0  0  0  0  0  0
    4.4610    2.5471   -0.1323 O   0  0  0  0  0  0  0  0  0  0  0  0
    4.9420   -2.4318   -2.0214 H   0  0  0  0  0  0  0  0  0  0  0  0
    6.0886   -1.8929   -0.6877 H   0  0  0  0  0  0  0  0  0  0  0  0
    5.1723   -3.4034   -0.5570 H   0  0  0  0  0  0  0  0  0  0  0  0
    3.7224   -2.0856    0.6981 H   0  0  0  0  0  0  0  0  0  0  0  0
    3.0525   -1.8343   -0.9264 H   0  0  0  0  0  0  0  0  0  0  0  0
    1.8988   -1.0807    0.8278 H   0  0  0  0  0  0  0  0  0  0  0  0
   -0.5600    0.8080    2.8200 H   0  0  0  0  0  0  0  0  0  0  0  0
    0.9724   -0.9580    3.5010 H   0  0  0  0  0  0  0  0  0  0  0  0
   -1.4367   -3.5377    1.2296 H   0  0  0  0  0  0  0  0  0  0  0  0
   -1.6086   -3.3259   -1.2004 H   0  0  0  0  0  0  0  0  0  0  0  0
   -3.4495   -3.8575   -2.8032 H   0  0  0  0  0  0  0  0  0  0  0  0
   -5.5522   -2.5572   -2.7277 H   0  0  0  0  0  0  0  0  0  0  0  0
   -4.1180   -0.2442    0.4312 H   0  0  0  0  0  0  0  0  0  0  0  0
   -1.7229    0.1315   -1.6979 H   0  0  0  0  0  0  0  0  0  0  0  0
   -2.7293    2.1217   -2.7678 H   0  0  0  0  0  0  0  0  0  0  0  0
   -3.3612    4.0725   -1.3859 H   0  0  0  0  0  0  0  0  0  0  0  0
   -2.9908    3.9986    1.0189 H   0  0  0  0  0  0  0  0  0  0  0  0
   -2.0132    2.0443    2.0506 H   0  0  0  0  0  0  0  0  0  0  0  0
    0.4472    2.7741    1.8919 H   0  0  0  0  0  0  0  0  0  0  0  0
    5.2290    1.9951   -0.5093 H   0  0  0  0  0  0  0  0  0  0  0  0
  1  2  1  0
  2  3  1  0
  3  4  1  0
  4  5  2  0
  5  6  1  0
  6  7  1  0
  7  8  1  0
  8  9  1  0
  9 10  2  0
  9 11  1  0
 11 12  1  0
 12 13  1  0
 13 14  2  0
 14 15  1  0
 15 16  2  0
 16 17  1  0
 17 18  2  0
 12 19  2  0
 19 20  1  0
 20 21  2  0
 21 22  1  0
 22 23  2  0
 23 24  1  0
 24 25  2  0
  6 26  2  0
 26 27  1  0
 27 28  1  0
 28 29  2  0
 28 30  1  0
 27 31  2  0
 31 32  1  0
 31  4  1  0
 19  7  1  0
 25 20  1  0
 18 13  1  0
  1 33  1  0
  1 34  1  0
  1 35  1  0
  2 36  1  0
  2 37  1  0
  5 38  1  0
  7 39  1  1
  8 40  1  0
 11 41  1  0
 14 42  1  0
 15 43  1  0
 16 44  1  0
 18 45  1  0
 21 46  1  0
 22 47  1  0
 23 48  1  0
 24 49  1  0
 25 50  1  0
 26 51  1  0
 32 52  1  0
M  CHG  2  28   1  30  -1
M  END
$$$$
