
     RDKit          3D

 47 47  0  0  0  0  0  0  0  0999 V2000
    7.4973    0.3835    1.7765 C   0  0  0  0  0  0  0  0  0  0  0  0
    6.5266    0.4900    2.9299 C   0  0  0  0  0  0  0  0  0  0  0  0
    5.2483    0.9359    2.5215 O   0  0  0  0  0  0  0  0  0  0  0  0
    4.4698    0.2496    1.6022 C   0  0  0  0  0  0  0  0  0  0  0  0
    4.9830   -0.8219    1.1415 O   0  0  0  0  0  0  0  0  0  0  0  0
    3.1650    0.6855    1.1719 C   0  0  0  0  0  0  0  0  0  0  0  0
    2.4927   -0.0292    0.2926 C   0  0  0  0  0  0  0  0  0  0  0  0
    1.1746    0.4281   -0.1303 C   0  0  0  0  0  0  0  0  0  0  0  0
    0.6876    1.4905    0.3437 O   0  0  0  0  0  0  0  0  0  0  0  0
    0.4306   -0.3262   -1.0819 N   0  0  0  0  0  0  0  0  0  0  0  0
    0.9411   -1.5312   -1.6644 C   0  0  0  0  0  0  0  0  0  0  0  0
    0.6461   -2.7359   -0.8933 C   0  0  0  0  0  0  0  0  0  0  0  0
    1.0911   -4.0133   -1.3946 N   0  0  0  0  0  0  0  0  0  0  0  0
    0.0211   -2.6882    0.1844 O   0  0  0  0  0  0  0  0  0  0  0  0
   -0.7873    0.2140   -1.4818 N   0  0  0  0  0  0  0  0  0  0  0  0
   -1.9588    0.0496   -0.7258 C   0  0  0  0  0  0  0  0  0  0  0  0
   -2.0388   -0.5671    0.3492 O   0  0  0  0  0  0  0  0  0  0  0  0
   -3.2337    0.6683   -1.2515 C   0  0  2  0  0  0  0  0  0  0  0  0
   -3.0535    2.1809   -1.2420 C   0  0  0  0  0  0  0  0  0  0  0  0
   -4.0719    2.6873   -0.2616 C   0  0  0  0  0  0  0  0  0  0  0  0
   -4.3237    1.4780    0.6125 C   0  0  0  0  0  0  0  0  0  0  0  0
   -4.3116    0.3910   -0.3428 N   0  0  0  0  0  0  0  0  0  0  0  0
   -5.1976   -0.7075   -0.3508 C   0  0  0  0  0  0  0  0  0  0  0  0
   -6.2463   -0.8233    0.6668 C   0  0  0  0  0  0  0  0  0  0  0  0
   -5.0865   -1.5876   -1.2322 O   0  0  0  0  0  0  0  0  0  0  0  0
    7.4339   -0.5923    1.2615 H   0  0  0  0  0  0  0  0  0  0  0  0
    8.5259    0.4435    2.2060 H   0  0  0  0  0  0  0  0  0  0  0  0
    7.3954    1.2016    1.0560 H   0  0  0  0  0  0  0  0  0  0  0  0
    6.4870   -0.4677    3.4743 H   0  0  0  0  0  0  0  0  0  0  0  0
    6.9317    1.2499    3.6290 H   0  0  0  0  0  0  0  0  0  0  0  0
    2.7384    1.5832    1.5598 H   0  0  0  0  0  0  0  0  0  0  0  0
    2.9124   -0.9597   -0.1168 H   0  0  0  0  0  0  0  0  0  0  0  0
    2.0416   -1.4542   -1.8233 H   0  0  0  0  0  0  0  0  0  0  0  0
    0.4885   -1.6030   -2.7102 H   0  0  0  0  0  0  0  0  0  0  0  0
    2.0788   -4.1018   -1.6600 H   0  0  0  0  0  0  0  0  0  0  0  0
    0.4303   -4.7977   -1.4773 H   0  0  0  0  0  0  0  0  0  0  0  0
   -0.8285    0.7599   -2.3751 H   0  0  0  0  0  0  0  0  0  0  0  0
   -3.4062    0.3206   -2.2749 H   0  0  0  0  0  0  0  0  0  0  0  0
   -2.0460    2.4786   -0.8897 H   0  0  0  0  0  0  0  0  0  0  0  0
   -3.2288    2.6026   -2.2666 H   0  0  0  0  0  0  0  0  0  0  0  0
   -4.9990    2.9374   -0.8140 H   0  0  0  0  0  0  0  0  0  0  0  0
   -3.7079    3.5548    0.3261 H   0  0  0  0  0  0  0  0  0  0  0  0
   -3.4482    1.3740    1.2969 H   0  0  0  0  0  0  0  0  0  0  0  0
   -5.2727    1.5710    1.1605 H   0  0  0  0  0  0  0  0  0  0  0  0
   -7.0362   -1.5389    0.3152 H   0  0  0  0  0  0  0  0  0  0  0  0
   -6.7105    0.1500    0.8871 H   0  0  0  0  0  0  0  0  0  0  0  0
   -5.8450   -1.2131    1.6372 H   0  0  0  0  0  0  0  0  0  0  0  0
  1  2  1  0
  2  3  1  0
  3  4  1  0
  4  5  2  0
  4  6  1  0
  6  7  2  0
  7  8  1  0
  8  9  2  0
  8 10  1  0
 10 11  1  0
 11 12  1  0
 12 13  1  0
 12 14  2  0
 10 15  1  0
 15 16  1  0
 16 17  2  0
 16 18  1  0
 18 19  1  0
 19 20  1  0
 20 21  1  0
 21 22  1  0
 22 23  1  0
 23 24  1  0
 23 25  2  0
 22 18  1  0
  1 26  1  0
  1 27  1  0
  1 28  1  0
  2 29  1  0
  2 30  1  0
  6 31  1  0
  7 32  1  0
 11 33  1  0
 11 34  1  0
 13 35  1  0
 13 36  1  0
 15 37  1  0
 18 38  1  6
 19 39  1  0
 19 40  1  0
 20 41  1  0
 20 42  1  0
 21 43  1  0
 21 44  1  0
 24 45  1  0
 24 46  1  0
 24 47  1  0
M  END
$$$$
