
     RDKit          3D

 55 57  0  0  0  0  0  0  0  0999 V2000
    9.3058   -1.2102    0.7294 C   0  0  0  0  0  0  0  0  0  0  0  0
    8.5126   -0.2336   -0.0710 C   0  0  0  0  0  0  0  0  0  0  0  0
    9.1636    0.5690   -0.7936 O   0  0  0  0  0  0  0  0  0  0  0  0
    7.0933   -0.2016   -0.0280 N   0  0  0  0  0  0  0  0  0  0  0  0
    6.3425    0.7513   -0.8107 C   0  0  0  0  0  0  0  0  0  0  0  0
    5.0866    1.1384   -0.0165 C   0  0  0  0  0  0  0  0  0  0  0  0
    4.2681   -0.0217    0.1850 N   0  0  0  0  0  0  0  0  0  0  0  0
    2.8374   -0.0022    0.1574 C   0  0  0  0  0  0  0  0  0  0  0  0
    2.1233   -1.1829    0.2540 C   0  0  0  0  0  0  0  0  0  0  0  0
    0.7375   -1.1092    0.2263 C   0  0  0  0  0  0  0  0  0  0  0  0
    0.0440    0.0628    0.1091 C   0  0  0  0  0  0  0  0  0  0  0  0
   -1.4312    0.0104    0.0912 C   0  0  0  0  0  0  0  0  0  0  0  0
   -2.0252    1.4047   -0.0450 C   0  0  0  0  0  0  0  0  0  0  0  0
   -3.5255    1.2721   -0.0562 C   0  0  0  0  0  0  0  0  0  0  0  0
   -4.2174    1.1034   -1.2277 C   0  0  0  0  0  0  0  0  0  0  0  0
   -5.6083    0.9745   -1.2953 C   0  0  0  0  0  0  0  0  0  0  0  0
   -6.2869    1.0244   -0.1013 C   0  0  0  0  0  0  0  0  0  0  0  0
   -7.7579    0.8939   -0.1031 C   0  0  0  0  0  0  0  0  0  0  0  0
   -8.1711   -0.5108    0.0189 C   0  0  0  0  0  0  0  0  0  0  0  0
   -7.2801   -1.3944    0.1063 O   0  0  0  0  0  0  0  0  0  0  0  0
   -9.5166   -0.9443    0.0453 N   0  0  0  0  0  0  0  0  0  0  0  0
   -9.8539   -2.2856    0.1623 N   0  0  0  0  0  0  0  0  0  0  0  0
   -5.6254    1.1924    1.0910 C   0  0  0  0  0  0  0  0  0  0  0  0
   -4.2289    1.3191    1.1287 C   0  0  0  0  0  0  0  0  0  0  0  0
    0.7498    1.1933    0.0169 N   0  0  0  0  0  0  0  0  0  0  0  0
    2.1083    1.1603    0.0406 C   0  0  0  0  0  0  0  0  0  0  0  0
    4.9300   -1.2868    0.4363 C   0  0  0  0  0  0  0  0  0  0  0  0
    6.3752   -1.1332    0.8097 C   0  0  0  0  0  0  0  0  0  0  0  0
   10.3593   -1.2237    0.4431 H   0  0  0  0  0  0  0  0  0  0  0  0
    9.2316   -0.9938    1.7956 H   0  0  0  0  0  0  0  0  0  0  0  0
    8.8964   -2.2218    0.5280 H   0  0  0  0  0  0  0  0  0  0  0  0
    6.0675    0.3518   -1.8059 H   0  0  0  0  0  0  0  0  0  0  0  0
    6.9218    1.6821   -0.9379 H   0  0  0  0  0  0  0  0  0  0  0  0
    4.6163    1.9577   -0.5593 H   0  0  0  0  0  0  0  0  0  0  0  0
    5.4791    1.5578    0.9529 H   0  0  0  0  0  0  0  0  0  0  0  0
    2.6445   -2.1263    0.3466 H   0  0  0  0  0  0  0  0  0  0  0  0
    0.2144   -2.0523    0.3042 H   0  0  0  0  0  0  0  0  0  0  0  0
   -1.8409   -0.6169   -0.7154 H   0  0  0  0  0  0  0  0  0  0  0  0
   -1.7685   -0.3793    1.0735 H   0  0  0  0  0  0  0  0  0  0  0  0
   -1.7370    1.9966    0.8474 H   0  0  0  0  0  0  0  0  0  0  0  0
   -1.6695    1.9396   -0.9257 H   0  0  0  0  0  0  0  0  0  0  0  0
   -3.6601    1.0678   -2.1502 H   0  0  0  0  0  0  0  0  0  0  0  0
   -6.1124    0.8415   -2.2581 H   0  0  0  0  0  0  0  0  0  0  0  0
   -8.1467    1.4472    0.7956 H   0  0  0  0  0  0  0  0  0  0  0  0
   -8.1279    1.3818   -1.0275 H   0  0  0  0  0  0  0  0  0  0  0  0
  -10.2866   -0.2443   -0.0246 H   0  0  0  0  0  0  0  0  0  0  0  0
  -10.7664   -2.4420    0.6015 H   0  0  0  0  0  0  0  0  0  0  0  0
   -9.8066   -2.8093   -0.7339 H   0  0  0  0  0  0  0  0  0  0  0  0
   -6.1433    1.2346    2.0470 H   0  0  0  0  0  0  0  0  0  0  0  0
   -3.7080    1.4516    2.0693 H   0  0  0  0  0  0  0  0  0  0  0  0
    2.6800    2.0989   -0.0343 H   0  0  0  0  0  0  0  0  0  0  0  0
    4.8629   -1.9120   -0.4722 H   0  0  0  0  0  0  0  0  0  0  0  0
    4.3848   -1.7429    1.3125 H   0  0  0  0  0  0  0  0  0  0  0  0
    6.8817   -2.1187    0.8191 H   0  0  0  0  0  0  0  0  0  0  0  0
    6.3841   -0.6793    1.8439 H   0  0  0  0  0  0  0  0  0  0  0  0
  1  2  1  0
  2  3  2  0
  2  4  1  0
  4  5  1  0
  5  6  1  0
  6  7  1  0
  7  8  1  0
  8  9  2  0
  9 10  1  0
 10 11  2  0
 11 12  1  0
 12 13  1  0
 13 14  1  0
 14 15  2  0
 15 16  1  0
 16 17  2  0
 17 18  1  0
 18 19  1  0
 19 20  2  0
 19 21  1  0
 21 22  1  0
 17 23  1  0
 23 24  2  0
 11 25  1  0
 25 26  2  0
  7 27  1  0
 27 28  1  0
 28  4  1  0
 26  8  1  0
 24 14  1  0
  1 29  1  0
  1 30  1  0
  1 31  1  0
  5 32  1  0
  5 33  1  0
  6 34  1  0
  6 35  1  0
  9 36  1  0
 10 37  1  0
 12 38  1  0
 12 39  1  0
 13 40  1  0
 13 41  1  0
 15 42  1  0
 16 43  1  0
 18 44  1  0
 18 45  1  0
 21 46  1  0
 22 47  1  0
 22 48  1  0
 23 49  1  0
 24 50  1  0
 26 51  1  0
 27 52  1  0
 27 53  1  0
 28 54  1  0
 28 55  1  0
M  END
$$$$
