
     RDKit          3D

 56 58  0  0  0  0  0  0  0  0999 V2000
    7.8719    0.0674    0.4220 C   0  0  0  0  0  0  0  0  0  0  0  0
    6.8523    1.0000    0.6086 O   0  0  0  0  0  0  0  0  0  0  0  0
    5.5201    0.7952    0.2714 C   0  0  0  0  0  0  0  0  0  0  0  0
    5.0668   -0.3772   -0.2950 C   0  0  0  0  0  0  0  0  0  0  0  0
    3.7298   -0.5101   -0.6043 C   0  0  0  0  0  0  0  0  0  0  0  0
    2.8400    0.4996   -0.3604 C   0  0  0  0  0  0  0  0  0  0  0  0
    1.4286    0.3444   -0.6995 C   0  0  0  0  0  0  0  0  0  0  0  0
    0.6563    1.4191   -1.0657 C   0  0  0  0  0  0  0  0  0  0  0  0
   -0.6968    1.2619   -1.3903 C   0  0  0  0  0  0  0  0  0  0  0  0
   -1.3021    0.0404   -1.3554 C   0  0  0  0  0  0  0  0  0  0  0  0
   -2.5929   -0.2028   -1.6534 O   0  0  0  0  0  0  0  0  0  0  0  0
   -3.5813    0.6649   -2.0120 C   0  0  0  0  0  0  0  0  0  0  0  0
   -3.9588    1.6050   -0.8958 C   0  0  0  0  0  0  0  0  0  0  0  0
   -4.4405    0.8628    0.2210 N   0  0  0  0  0  0  0  0  0  0  0  0
   -3.5285    0.0663    0.9492 C   0  0  0  0  0  0  0  0  0  0  0  0
   -5.4842    1.4664    0.9795 C   0  0  0  0  0  0  0  0  0  0  0  0
   -6.7257    1.5070    0.1767 C   0  0  0  0  0  0  0  0  0  0  0  0
   -7.8021    2.0329    0.6122 O   0  0  0  0  0  0  0  0  0  0  0  0
   -6.8326    0.9785   -1.1173 O   0  0  0  0  0  0  0  0  0  0  0  0
   -0.5040   -1.0551   -0.9801 C   0  0  0  0  0  0  0  0  0  0  0  0
   -1.1653   -2.3574   -0.9544 C   0  0  0  0  0  0  0  0  0  0  0  0
   -1.9119   -2.6937   -1.9095 O   0  0  0  0  0  0  0  0  0  0  0  0
   -0.9414   -3.2358    0.1844 C   0  0  0  0  0  0  0  0  0  0  0  0
   -1.4187   -4.4666    0.5265 C   0  0  0  0  0  0  0  0  0  0  0  0
   -1.0182   -5.0470    1.6684 C   0  0  0  0  0  0  0  0  0  0  0  0
   -0.1458   -4.4179    2.4786 C   0  0  0  0  0  0  0  0  0  0  0  0
    0.1845   -2.8187    1.5802 S   0  0  0  0  0  0  0  0  0  0  0  0
    0.8255   -0.8884   -0.6636 C   0  0  0  0  0  0  0  0  0  0  0  0
    3.2655    1.6816    0.2050 C   0  0  0  0  0  0  0  0  0  0  0  0
    4.6214    1.8159    0.5181 C   0  0  0  0  0  0  0  0  0  0  0  0
    5.1092    3.0783    1.1258 C   0  0  0  0  0  0  0  0  0  0  0  0
    7.9346   -0.7164    1.1773 H   0  0  0  0  0  0  0  0  0  0  0  0
    8.8397    0.6361    0.4498 H   0  0  0  0  0  0  0  0  0  0  0  0
    7.8495   -0.4102   -0.5790 H   0  0  0  0  0  0  0  0  0  0  0  0
    5.7717   -1.1602   -0.4808 H   0  0  0  0  0  0  0  0  0  0  0  0
    3.3384   -1.4149   -1.0500 H   0  0  0  0  0  0  0  0  0  0  0  0
    1.0838    2.4012   -1.1087 H   0  0  0  0  0  0  0  0  0  0  0  0
   -1.2600    2.1307   -1.6986 H   0  0  0  0  0  0  0  0  0  0  0  0
   -4.4882    0.0322   -2.2963 H   0  0  0  0  0  0  0  0  0  0  0  0
   -3.3439    1.2668   -2.9366 H   0  0  0  0  0  0  0  0  0  0  0  0
   -3.1999    2.3439   -0.6455 H   0  0  0  0  0  0  0  0  0  0  0  0
   -4.8586    2.1722   -1.2954 H   0  0  0  0  0  0  0  0  0  0  0  0
   -2.5418    0.5211    1.1550 H   0  0  0  0  0  0  0  0  0  0  0  0
   -3.3552   -0.8893    0.4169 H   0  0  0  0  0  0  0  0  0  0  0  0
   -4.0302   -0.2313    1.9091 H   0  0  0  0  0  0  0  0  0  0  0  0
   -5.6420    0.8900    1.9141 H   0  0  0  0  0  0  0  0  0  0  0  0
   -5.2026    2.5029    1.3304 H   0  0  0  0  0  0  0  0  0  0  0  0
   -7.2975    1.4953   -1.8727 H   0  0  0  0  0  0  0  0  0  0  0  0
   -2.1565   -4.9851   -0.1696 H   0  0  0  0  0  0  0  0  0  0  0  0
   -1.3948   -6.0691    1.9827 H   0  0  0  0  0  0  0  0  0  0  0  0
    0.3195   -4.6270    3.3939 H   0  0  0  0  0  0  0  0  0  0  0  0
    1.4004   -1.7619   -0.3823 H   0  0  0  0  0  0  0  0  0  0  0  0
    2.5458    2.4759    0.3939 H   0  0  0  0  0  0  0  0  0  0  0  0
    4.4540    3.9387    0.8518 H   0  0  0  0  0  0  0  0  0  0  0  0
    5.1948    3.0180    2.2313 H   0  0  0  0  0  0  0  0  0  0  0  0
    6.1178    3.3238    0.7385 H   0  0  0  0  0  0  0  0  0  0  0  0
  1  2  1  0
  2  3  1  0
  3  4  2  0
  4  5  1  0
  5  6  2  0
  6  7  1  0
  7  8  2  0
  8  9  1  0
  9 10  2  0
 10 11  1  0
 11 12  1  0
 12 13  1  0
 13 14  1  0
 14 15  1  0
 14 16  1  0
 16 17  1  0
 17 18  2  0
 17 19  1  0
 10 20  1  0
 20 21  1  0
 21 22  2  0
 21 23  1  0
 23 24  2  0
 24 25  1  0
 25 26  2  0
 26 27  1  0
 20 28  2  0
  6 29  1  0
 29 30  2  0
 30 31  1  0
 30  3  1  0
 28  7  1  0
 27 23  1  0
  1 32  1  0
  1 33  1  0
  1 34  1  0
  4 35  1  0
  5 36  1  0
  8 37  1  0
  9 38  1  0
 12 39  1  0
 12 40  1  0
 13 41  1  0
 13 42  1  0
 15 43  1  0
 15 44  1  0
 15 45  1  0
 16 46  1  0
 16 47  1  0
 19 48  1  0
 24 49  1  0
 25 50  1  0
 26 51  1  0
 28 52  1  0
 29 53  1  0
 31 54  1  0
 31 55  1  0
 31 56  1  0
M  END
$$$$
