
     RDKit          3D

 32 33  0  0  0  0  0  0  0  0999 V2000
   -4.7036   -0.5576   -0.9084 C   0  0  0  0  0  0  0  0  0  0  0  0
   -3.5169    0.1875   -0.4720 C   0  0  0  0  0  0  0  0  0  0  0  0
   -2.2481   -0.3122   -0.6830 C   0  0  0  0  0  0  0  0  0  0  0  0
   -1.0612    0.2654   -0.3342 N   0  0  0  0  0  0  0  0  0  0  0  0
    0.1836   -0.3675   -0.6158 C   0  0  1  0  0  0  0  0  0  0  0  0
    1.2619    0.5065   -1.1583 C   0  0  0  0  0  0  0  0  0  0  0  0
    2.3795    0.2360   -0.1426 C   0  0  2  0  0  0  0  0  0  0  0  0
    3.6897    0.4461   -0.6968 N   0  0  0  0  0  0  0  0  0  0  0  0
    4.3833    1.3812   -0.2425 N   0  0  0  0  0  4  0  0  0  0  0  0
    4.8885    2.5075   -0.0596 N   0  0  0  0  0  2  0  0  0  0  0  0
    2.0669   -1.2245    0.1377 C   0  0  1  0  0  0  0  0  0  0  0  0
    2.8603   -1.7687    1.2805 C   0  0  0  0  0  0  0  0  0  0  0  0
    4.1993   -1.8619    0.8544 O   0  0  0  0  0  0  0  0  0  0  0  0
    0.6963   -1.0890    0.4597 O   0  0  0  0  0  0  0  0  0  0  0  0
   -1.2216    1.4524    0.2799 C   0  0  0  0  0  0  0  0  0  0  0  0
   -0.1852    2.0666    0.6420 O   0  0  0  0  0  0  0  0  0  0  0  0
   -2.4289    2.0181    0.5278 N   0  0  0  0  0  0  0  0  0  0  0  0
   -3.5707    1.4101    0.1649 C   0  0  0  0  0  0  0  0  0  0  0  0
   -4.6979    1.9153    0.3844 O   0  0  0  0  0  0  0  0  0  0  0  0
   -5.3643   -0.8746   -0.0806 H   0  0  0  0  0  0  0  0  0  0  0  0
   -4.3919   -1.4399   -1.4801 H   0  0  0  0  0  0  0  0  0  0  0  0
   -5.2805    0.0948   -1.5898 H   0  0  0  0  0  0  0  0  0  0  0  0
   -2.1769   -1.2861   -1.1892 H   0  0  0  0  0  0  0  0  0  0  0  0
   -0.0119   -1.1528   -1.4047 H   0  0  0  0  0  0  0  0  0  0  0  0
    1.0356    1.5594   -1.2856 H   0  0  0  0  0  0  0  0  0  0  0  0
    1.6811    0.1497   -2.1257 H   0  0  0  0  0  0  0  0  0  0  0  0
    2.2448    0.7879    0.7888 H   0  0  0  0  0  0  0  0  0  0  0  0
    2.2157   -1.8376   -0.7520 H   0  0  0  0  0  0  0  0  0  0  0  0
    2.7948   -1.1666    2.1925 H   0  0  0  0  0  0  0  0  0  0  0  0
    2.5294   -2.8162    1.4355 H   0  0  0  0  0  0  0  0  0  0  0  0
    4.2747   -2.1684   -0.0679 H   0  0  0  0  0  0  0  0  0  0  0  0
   -2.5256    2.9392    1.0054 H   0  0  0  0  0  0  0  0  0  0  0  0
  1  2  1  0
  2  3  2  0
  3  4  1  0
  4  5  1  0
  5  6  1  0
  6  7  1  0
  7  8  1  0
  8  9  2  0
  9 10  2  0
  7 11  1  0
 11 12  1  0
 12 13  1  0
 11 14  1  0
  4 15  1  0
 15 16  2  0
 15 17  1  0
 17 18  1  0
 18 19  2  0
 18  2  1  0
 14  5  1  0
  1 20  1  0
  1 21  1  0
  1 22  1  0
  3 23  1  0
  5 24  1  6
  6 25  1  0
  6 26  1  0
  7 27  1  1
 11 28  1  6
 12 29  1  0
 12 30  1  0
 13 31  1  0
 17 32  1  0
M  CHG  2   9   1  10  -1
M  END
$$$$
