
     RDKit          3D

 60 62  0  0  0  0  0  0  0  0999 V2000
    8.7097    0.2338   -0.4906 C   0  0  0  0  0  0  0  0  0  0  0  0
    8.4373   -1.2532   -0.4495 C   0  0  0  0  0  0  0  0  0  0  0  0
    7.3305   -1.6724    0.8768 S   0  0  0  0  0  6  0  0  0  0  0  0
    7.9261   -1.2820    2.1957 O   0  0  0  0  0  0  0  0  0  0  0  0
    7.1371   -3.1594    0.8488 O   0  0  0  0  0  0  0  0  0  0  0  0
    5.7899   -0.8425    0.6789 C   0  0  0  0  0  0  0  0  0  0  0  0
    4.6451   -1.5997    0.5532 C   0  0  0  0  0  0  0  0  0  0  0  0
    3.3989   -0.9936    0.3942 C   0  0  0  0  0  0  0  0  0  0  0  0
    2.1387   -1.4752    0.2498 C   0  0  0  0  0  0  0  0  0  0  0  0
    1.2660   -0.3765    0.1271 C   0  0  0  0  0  0  0  0  0  0  0  0
   -0.1605   -0.5585   -0.0883 C   0  0  0  0  0  0  0  0  0  0  0  0
   -0.9141    0.7706   -0.3848 C   0  0  2  0  0  0  0  0  0  0  0  0
   -0.6434    1.6163    0.6311 O   0  0  0  0  0  0  0  0  0  0  0  0
   -2.3696    0.2818   -0.2466 C   0  0  0  0  0  0  0  0  0  0  0  0
   -3.4773    1.1894   -0.4204 C   0  0  0  0  0  0  0  0  0  0  0  0
   -3.7564    1.9060   -1.6769 C   0  0  0  0  0  0  0  0  0  0  0  0
   -3.2264    2.3731    0.5869 C   0  0  0  0  0  0  0  0  0  0  0  0
   -4.7003    0.4996    0.1645 C   0  0  0  0  0  0  0  0  0  0  0  0
   -5.2797    1.0379    1.3151 C   0  0  0  0  0  0  0  0  0  0  0  0
   -6.3414    0.4067    1.9787 C   0  0  0  0  0  0  0  0  0  0  0  0
   -6.8185   -0.7657    1.4833 C   0  0  0  0  0  0  0  0  0  0  0  0
   -7.8524   -1.4434    2.0767 F   0  0  0  0  0  0  0  0  0  0  0  0
   -6.2485   -1.2835    0.3584 C   0  0  0  0  0  0  0  0  0  0  0  0
   -5.1759   -0.6605   -0.3288 C   0  0  0  0  0  0  0  0  0  0  0  0
   -4.7593   -1.2618   -1.5503 C   0  0  0  0  0  0  0  0  0  0  0  0
   -5.0087   -2.6812   -1.7376 N   0  0  0  0  0  0  0  0  0  0  0  0
   -4.2022   -0.7121   -2.4822 O   0  0  0  0  0  0  0  0  0  0  0  0
   -0.5754    1.1241   -1.7760 C   0  0  0  0  0  0  0  0  0  0  0  0
    0.7963    1.2529   -2.0452 F   0  0  0  0  0  0  0  0  0  0  0  0
   -1.0398    0.2443   -2.7164 F   0  0  0  0  0  0  0  0  0  0  0  0
   -1.0175    2.4504   -2.0283 F   0  0  0  0  0  0  0  0  0  0  0  0
    2.0441    0.6884    0.2058 N   0  0  0  0  0  0  0  0  0  0  0  0
    3.3551    0.3624    0.3679 C   0  0  0  0  0  0  0  0  0  0  0  0
    4.5049    1.0929    0.4946 C   0  0  0  0  0  0  0  0  0  0  0  0
    5.7012    0.4875    0.6476 N   0  0  0  0  0  0  0  0  0  0  0  0
    8.5310    0.6424    0.5399 H   0  0  0  0  0  0  0  0  0  0  0  0
    9.7723    0.4004   -0.7734 H   0  0  0  0  0  0  0  0  0  0  0  0
    8.0383    0.6889   -1.2238 H   0  0  0  0  0  0  0  0  0  0  0  0
    9.3886   -1.7817   -0.2630 H   0  0  0  0  0  0  0  0  0  0  0  0
    8.0147   -1.5875   -1.4066 H   0  0  0  0  0  0  0  0  0  0  0  0
    4.7281   -2.6833    0.5800 H   0  0  0  0  0  0  0  0  0  0  0  0
    1.8757   -2.5183    0.2345 H   0  0  0  0  0  0  0  0  0  0  0  0
   -0.3098   -1.1581   -1.0162 H   0  0  0  0  0  0  0  0  0  0  0  0
   -0.6740   -1.1211    0.7204 H   0  0  0  0  0  0  0  0  0  0  0  0
   -0.3543    1.1510    1.4531 H   0  0  0  0  0  0  0  0  0  0  0  0
   -2.4364   -0.0847    0.8525 H   0  0  0  0  0  0  0  0  0  0  0  0
   -2.3998   -0.6646   -0.7943 H   0  0  0  0  0  0  0  0  0  0  0  0
   -3.3079    1.6124   -2.6053 H   0  0  0  0  0  0  0  0  0  0  0  0
   -3.6395    3.0425   -1.6088 H   0  0  0  0  0  0  0  0  0  0  0  0
   -4.8950    1.8541   -1.8074 H   0  0  0  0  0  0  0  0  0  0  0  0
   -3.0193    2.0202    1.5769 H   0  0  0  0  0  0  0  0  0  0  0  0
   -4.1020    3.0371    0.4807 H   0  0  0  0  0  0  0  0  0  0  0  0
   -2.3865    2.9860    0.1443 H   0  0  0  0  0  0  0  0  0  0  0  0
   -4.9601    1.9587    1.7692 H   0  0  0  0  0  0  0  0  0  0  0  0
   -6.7773    0.8387    2.8685 H   0  0  0  0  0  0  0  0  0  0  0  0
   -6.6133   -2.2148   -0.0530 H   0  0  0  0  0  0  0  0  0  0  0  0
   -4.2404   -3.3539   -1.6803 H   0  0  0  0  0  0  0  0  0  0  0  0
   -5.9983   -2.9227   -1.9255 H   0  0  0  0  0  0  0  0  0  0  0  0
    1.7316    1.6856    0.1871 H   0  0  0  0  0  0  0  0  0  0  0  0
    4.4200    2.1757    0.4676 H   0  0  0  0  0  0  0  0  0  0  0  0
  1  2  1  0
  2  3  1  0
  3  4  2  0
  3  5  2  0
  3  6  1  0
  6  7  2  0
  7  8  1  0
  8  9  1  0
  9 10  2  0
 10 11  1  0
 11 12  1  0
 12 13  1  1
 12 14  1  0
 14 15  1  0
 15 16  1  0
 15 17  1  0
 15 18  1  0
 18 19  2  0
 19 20  1  0
 20 21  2  0
 21 22  1  0
 21 23  1  0
 23 24  2  0
 24 25  1  0
 25 26  1  0
 25 27  2  0
 12 28  1  0
 28 29  1  0
 28 30  1  0
 28 31  1  0
 10 32  1  0
 32 33  1  0
 33 34  1  0
 34 35  2  0
 35  6  1  0
 33  8  2  0
 24 18  1  0
  1 36  1  0
  1 37  1  0
  1 38  1  0
  2 39  1  0
  2 40  1  0
  7 41  1  0
  9 42  1  0
 11 43  1  0
 11 44  1  0
 13 45  1  0
 14 46  1  0
 14 47  1  0
 16 48  1  0
 16 49  1  0
 16 50  1  0
 17 51  1  0
 17 52  1  0
 17 53  1  0
 19 54  1  0
 20 55  1  0
 23 56  1  0
 26 57  1  0
 26 58  1  0
 32 59  1  0
 34 60  1  0
M  END
$$$$
