
     RDKit          3D

 48 51  0  0  0  0  0  0  0  0999 V2000
   -5.4972    0.9736    1.1671 C   0  0  0  0  0  0  0  0  0  0  0  0
   -4.6002   -0.0883    0.8252 N   0  0  0  0  0  0  0  0  0  0  0  0
   -3.6545   -0.4083    1.8770 C   0  0  0  0  0  0  0  0  0  0  0  0
   -2.4381    0.4304    1.6579 C   0  0  0  0  0  0  0  0  0  0  0  0
   -2.5305    0.8635    0.2051 C   0  0  1  0  0  0  0  0  0  0  0  0
   -2.5826    2.3712    0.0898 C   0  0  0  0  0  0  0  0  0  0  0  0
   -1.4428    0.3154   -0.6201 C   0  0  0  0  0  0  0  0  0  0  0  0
   -0.1367    0.7295   -0.9063 C   0  0  0  0  0  0  0  0  0  0  0  0
    0.6848   -0.0027   -1.7329 C   0  0  0  0  0  0  0  0  0  0  0  0
    1.9647    0.5185   -1.9383 O   0  0  0  0  0  0  0  0  0  0  0  0
    2.9923    0.1541   -1.0895 C   0  0  0  0  0  0  0  0  0  0  0  0
    2.7449   -0.6326   -0.1618 O   0  0  0  0  0  0  0  0  0  0  0  0
    4.3265    0.6352   -1.2230 N   0  0  0  0  0  0  0  0  0  0  0  0
    5.3756    0.2469   -0.3354 C   0  0  0  0  0  0  0  0  0  0  0  0
    5.6144    0.9863    0.8023 C   0  0  0  0  0  0  0  0  0  0  0  0
    6.6118    0.6691    1.7048 C   0  0  0  0  0  0  0  0  0  0  0  0
    7.3942   -0.4372    1.4434 C   0  0  0  0  0  0  0  0  0  0  0  0
    7.1730   -1.1988    0.3028 C   0  0  0  0  0  0  0  0  0  0  0  0
    6.1606   -0.8480   -0.5808 C   0  0  0  0  0  0  0  0  0  0  0  0
    0.2614   -1.1686   -2.3121 C   0  0  0  0  0  0  0  0  0  0  0  0
   -1.0224   -1.5916   -2.0412 C   0  0  0  0  0  0  0  0  0  0  0  0
   -1.8580   -0.8525   -1.2043 C   0  0  0  0  0  0  0  0  0  0  0  0
   -3.2178   -1.0825   -0.7810 N   0  0  0  0  0  0  0  0  0  0  0  0
   -3.8450   -2.3824   -0.8646 C   0  0  0  0  0  0  0  0  0  0  0  0
   -3.7558    0.1840   -0.2965 C   0  0  0  0  0  0  0  0  0  0  0  0
   -5.4176    1.8115    0.4429 H   0  0  0  0  0  0  0  0  0  0  0  0
   -5.3266    1.2873    2.2124 H   0  0  0  0  0  0  0  0  0  0  0  0
   -6.5520    0.5851    1.0793 H   0  0  0  0  0  0  0  0  0  0  0  0
   -4.1159   -0.1392    2.8618 H   0  0  0  0  0  0  0  0  0  0  0  0
   -3.4111   -1.4826    1.8644 H   0  0  0  0  0  0  0  0  0  0  0  0
   -1.5026   -0.1829    1.7594 H   0  0  0  0  0  0  0  0  0  0  0  0
   -2.3498    1.3037    2.3063 H   0  0  0  0  0  0  0  0  0  0  0  0
   -3.1151    2.7253   -0.7920 H   0  0  0  0  0  0  0  0  0  0  0  0
   -1.5402    2.7593    0.0852 H   0  0  0  0  0  0  0  0  0  0  0  0
   -3.0462    2.7873    1.0205 H   0  0  0  0  0  0  0  0  0  0  0  0
    0.1713    1.6489   -0.4386 H   0  0  0  0  0  0  0  0  0  0  0  0
    4.5085    1.2967   -2.0126 H   0  0  0  0  0  0  0  0  0  0  0  0
    4.9887    1.8447    0.9817 H   0  0  0  0  0  0  0  0  0  0  0  0
    6.7869    1.2666    2.6017 H   0  0  0  0  0  0  0  0  0  0  0  0
    8.1799   -0.6962    2.1439 H   0  0  0  0  0  0  0  0  0  0  0  0
    7.7760   -2.0621    0.0891 H   0  0  0  0  0  0  0  0  0  0  0  0
    5.9581   -1.4163   -1.4793 H   0  0  0  0  0  0  0  0  0  0  0  0
    0.9375   -1.7042   -2.9487 H   0  0  0  0  0  0  0  0  0  0  0  0
   -1.3901   -2.5158   -2.4867 H   0  0  0  0  0  0  0  0  0  0  0  0
   -4.8501   -2.3943   -0.4428 H   0  0  0  0  0  0  0  0  0  0  0  0
   -3.2367   -3.1746   -0.3762 H   0  0  0  0  0  0  0  0  0  0  0  0
   -3.9141   -2.6624   -1.9358 H   0  0  0  0  0  0  0  0  0  0  0  0
   -4.2611    0.7300   -1.1156 H   0  0  0  0  0  0  0  0  0  0  0  0
  1  2  1  0
  2  3  1  0
  3  4  1  0
  4  5  1  0
  5  6  1  1
  5  7  1  0
  7  8  2  0
  8  9  1  0
  9 10  1  0
 10 11  1  0
 11 12  2  0
 11 13  1  0
 13 14  1  0
 14 15  2  0
 15 16  1  0
 16 17  2  0
 17 18  1  0
 18 19  2  0
  9 20  2  0
 20 21  1  0
 21 22  2  0
 22 23  1  0
 23 24  1  0
 23 25  1  0
 25  2  1  0
 25  5  1  0
 22  7  1  0
 19 14  1  0
  1 26  1  0
  1 27  1  0
  1 28  1  0
  3 29  1  0
  3 30  1  0
  4 31  1  0
  4 32  1  0
  6 33  1  0
  6 34  1  0
  6 35  1  0
  8 36  1  0
 13 37  1  0
 15 38  1  0
 16 39  1  0
 17 40  1  0
 18 41  1  0
 19 42  1  0
 20 43  1  0
 21 44  1  0
 24 45  1  0
 24 46  1  0
 24 47  1  0
 25 48  1  0
M  END
$$$$
