
     RDKit          3D

 58 62  0  0  0  0  0  0  0  0999 V2000
   -6.7256    0.8251   -1.8864 C   0  0  0  0  0  0  0  0  0  0  0  0
   -5.3147    0.7903   -1.4392 C   0  0  0  0  0  0  0  0  0  0  0  0
   -4.3480    1.5316   -2.0708 C   0  0  0  0  0  0  0  0  0  0  0  0
   -3.0368    1.4973   -1.6532 C   0  0  0  0  0  0  0  0  0  0  0  0
   -2.6612    0.7046   -0.5739 C   0  0  0  0  0  0  0  0  0  0  0  0
   -1.2711    0.6464   -0.1046 C   0  0  0  0  0  0  0  0  0  0  0  0
   -0.9199    1.4605    0.7648 O   0  0  0  0  0  0  0  0  0  0  0  0
   -0.3810   -0.3098   -0.6367 N   0  0  0  0  0  0  0  0  0  0  0  0
   -0.8458   -1.2436   -1.6563 C   0  0  0  0  0  0  0  0  0  0  0  0
    0.3431   -2.1773   -1.9189 C   0  0  0  0  0  0  0  0  0  0  0  0
    1.4551   -1.4822   -2.3175 O   0  0  0  0  0  0  0  0  0  0  0  0
    1.8137   -0.4264   -1.5126 C   0  0  0  0  0  0  0  0  0  0  0  0
    0.9916   -0.4429   -0.2421 C   0  0  1  0  0  0  0  0  0  0  0  0
    1.4441    0.5501    0.7625 C   0  0  0  0  0  0  0  0  0  0  0  0
    2.8763    0.3142    1.0929 C   0  0  0  0  0  0  0  0  0  0  0  0
    3.2312   -0.5380    2.1096 C   0  0  0  0  0  0  0  0  0  0  0  0
    4.5715   -0.7160    2.3736 C   0  0  0  0  0  0  0  0  0  0  0  0
    5.5490   -0.0636    1.6465 C   0  0  0  0  0  0  0  0  0  0  0  0
    5.2180    0.7973    0.6204 C   0  0  0  0  0  0  0  0  0  0  0  0
    6.2174    1.4815   -0.1445 N   0  0  0  0  0  0  0  0  0  0  0  0
    7.4287    1.8152    0.2687 N   0  0  0  0  0  0  0  0  0  0  0  0
    8.1185    2.4469   -0.6912 C   0  0  0  0  0  0  0  0  0  0  0  0
    7.2704    2.5082   -1.7785 C   0  0  0  0  0  0  0  0  0  0  0  0
    6.1293    1.9080   -1.3941 N   0  0  0  0  0  0  0  0  0  0  0  0
    3.8674    0.9518    0.3837 C   0  0  0  0  0  0  0  0  0  0  0  0
   -3.6355   -0.0367    0.0555 C   0  0  0  0  0  0  0  0  0  0  0  0
   -3.2427   -0.8453    1.1604 N   0  0  0  0  0  0  0  0  0  0  0  0
   -3.9266   -1.8467    1.6936 N   0  0  0  0  0  0  0  0  0  0  0  0
   -3.2540   -2.3814    2.7200 C   0  0  0  0  0  0  0  0  0  0  0  0
   -2.0796   -1.6666    2.8298 C   0  0  0  0  0  0  0  0  0  0  0  0
   -2.1256   -0.7484    1.8598 N   0  0  0  0  0  0  0  0  0  0  0  0
   -4.9662   -0.0008   -0.3697 C   0  0  0  0  0  0  0  0  0  0  0  0
   -5.9669   -0.8383    0.3700 C   0  0  0  0  0  0  0  0  0  0  0  0
   -6.8867    1.4637   -2.7559 H   0  0  0  0  0  0  0  0  0  0  0  0
   -7.3255    1.2293   -1.0365 H   0  0  0  0  0  0  0  0  0  0  0  0
   -7.0956   -0.2009   -2.1694 H   0  0  0  0  0  0  0  0  0  0  0  0
   -4.6266    2.1448   -2.9020 H   0  0  0  0  0  0  0  0  0  0  0  0
   -2.2452    2.0779   -2.1379 H   0  0  0  0  0  0  0  0  0  0  0  0
   -1.6504   -1.8962   -1.2710 H   0  0  0  0  0  0  0  0  0  0  0  0
   -1.1733   -0.7562   -2.5741 H   0  0  0  0  0  0  0  0  0  0  0  0
    0.0142   -2.7986   -2.8025 H   0  0  0  0  0  0  0  0  0  0  0  0
    0.4900   -2.8813   -1.0982 H   0  0  0  0  0  0  0  0  0  0  0  0
    2.9019   -0.5205   -1.3279 H   0  0  0  0  0  0  0  0  0  0  0  0
    1.6572    0.5492   -2.0166 H   0  0  0  0  0  0  0  0  0  0  0  0
    1.0690   -1.4531    0.2367 H   0  0  0  0  0  0  0  0  0  0  0  0
    1.3595    1.6078    0.4553 H   0  0  0  0  0  0  0  0  0  0  0  0
    0.8942    0.3886    1.7082 H   0  0  0  0  0  0  0  0  0  0  0  0
    2.4706   -1.0564    2.6878 H   0  0  0  0  0  0  0  0  0  0  0  0
    4.8691   -1.3890    3.1767 H   0  0  0  0  0  0  0  0  0  0  0  0
    6.6146   -0.2111    1.8639 H   0  0  0  0  0  0  0  0  0  0  0  0
    9.1347    2.8423   -0.6573 H   0  0  0  0  0  0  0  0  0  0  0  0
    7.5475    2.9636   -2.7096 H   0  0  0  0  0  0  0  0  0  0  0  0
    3.6201    1.6434   -0.4395 H   0  0  0  0  0  0  0  0  0  0  0  0
   -3.5070   -3.2020    3.3770 H   0  0  0  0  0  0  0  0  0  0  0  0
   -1.2841   -1.8244    3.5593 H   0  0  0  0  0  0  0  0  0  0  0  0
   -5.9518   -0.6207    1.4529 H   0  0  0  0  0  0  0  0  0  0  0  0
   -5.7460   -1.9120    0.1622 H   0  0  0  0  0  0  0  0  0  0  0  0
   -6.9742   -0.6531   -0.0470 H   0  0  0  0  0  0  0  0  0  0  0  0
  1  2  1  0
  2  3  2  0
  3  4  1  0
  4  5  2  0
  5  6  1  0
  6  7  2  0
  6  8  1  0
  8  9  1  0
  9 10  1  0
 10 11  1  0
 11 12  1  0
 12 13  1  0
 13 14  1  0
 14 15  1  0
 15 16  2  0
 16 17  1  0
 17 18  2  0
 18 19  1  0
 19 20  1  0
 20 21  1  0
 21 22  2  0
 22 23  1  0
 23 24  2  0
 19 25  2  0
  5 26  1  0
 26 27  1  0
 27 28  1  0
 28 29  2  0
 29 30  1  0
 30 31  2  0
 26 32  2  0
 32 33  1  0
 32  2  1  0
 13  8  1  0
 25 15  1  0
 31 27  1  0
 24 20  1  0
  1 34  1  0
  1 35  1  0
  1 36  1  0
  3 37  1  0
  4 38  1  0
  9 39  1  0
  9 40  1  0
 10 41  1  0
 10 42  1  0
 12 43  1  0
 12 44  1  0
 13 45  1  1
 14 46  1  0
 14 47  1  0
 16 48  1  0
 17 49  1  0
 18 50  1  0
 22 51  1  0
 23 52  1  0
 25 53  1  0
 29 54  1  0
 30 55  1  0
 33 56  1  0
 33 57  1  0
 33 58  1  0
M  END
$$$$
