
     RDKit          3D

 57 61  0  0  0  0  0  0  0  0999 V2000
    3.1931    0.4416   -0.5274 O   0  0  0  0  0  0  0  0  0  0  0  0
    3.6009    0.5159    0.6552 C   0  0  0  0  0  0  0  0  0  0  0  0
    2.7350    1.0019    1.6590 N   0  0  0  0  0  0  0  0  0  0  0  0
    1.3964    1.4220    1.4035 C   0  0  0  0  0  0  0  0  0  0  0  0
    1.0826    2.7225    1.0730 C   0  0  0  0  0  0  0  0  0  0  0  0
   -0.2293    3.0870    0.8333 C   0  0  0  0  0  0  0  0  0  0  0  0
   -1.2297    2.1432    0.9256 C   0  0  0  0  0  0  0  0  0  0  0  0
   -0.9701    0.8217    1.2539 C   0  0  0  0  0  0  0  0  0  0  0  0
   -2.0329   -0.1718    1.3359 C   0  0  0  0  0  0  0  0  0  0  0  0
   -1.7828   -1.4705    1.7037 C   0  0  0  0  0  0  0  0  0  0  0  0
   -2.7684   -2.3939    1.8103 N   0  0  0  0  0  0  0  0  0  0  0  0
   -2.7284   -3.7121    2.1556 C   0  0  0  0  0  0  0  0  0  0  0  0
   -4.0124   -4.1866    2.1068 C   0  0  0  0  0  0  0  0  0  0  0  0
   -4.7729   -3.1654    1.7420 N   0  0  0  0  0  0  0  0  0  0  0  0
   -4.0254   -2.0395    1.5513 C   0  0  0  0  0  0  0  0  0  0  0  0
   -4.3311   -0.7374    1.1744 C   0  0  0  0  0  0  0  0  0  0  0  0
   -5.6837   -0.4141    0.9425 N   0  0  0  0  0  0  0  0  0  0  0  0
   -6.2127    0.8533    0.5224 C   0  0  0  0  0  0  0  0  0  0  0  0
   -5.9179    1.0981   -0.8947 C   0  0  0  0  0  0  0  0  0  0  0  0
   -4.8213    1.8043   -1.2900 C   0  0  0  0  0  0  0  0  0  0  0  0
   -4.5231    2.0367   -2.6397 C   0  0  0  0  0  0  0  0  0  0  0  0
   -5.3474    1.5467   -3.5816 N   0  0  0  0  0  0  0  0  0  0  0  0
   -6.4235    0.8553   -3.2295 C   0  0  0  0  0  0  0  0  0  0  0  0
   -6.7359    0.6147   -1.9135 C   0  0  0  0  0  0  0  0  0  0  0  0
   -3.3109    0.1512    1.0814 N   0  0  0  0  0  0  0  0  0  0  0  0
    0.3517    0.5104    1.4830 C   0  0  0  0  0  0  0  0  0  0  0  0
    4.9451    0.0967    0.9260 N   0  0  0  0  0  0  0  0  0  0  0  0
    5.8197   -0.3900   -0.0654 C   0  0  0  0  0  0  0  0  0  0  0  0
    5.8717   -1.7313   -0.3575 C   0  0  0  0  0  0  0  0  0  0  0  0
    6.7424   -2.2185   -1.3449 C   0  0  0  0  0  0  0  0  0  0  0  0
    7.5459   -1.2907   -2.0114 C   0  0  0  0  0  0  0  0  0  0  0  0
    7.5055    0.0519   -1.7311 C   0  0  0  0  0  0  0  0  0  0  0  0
    8.3555    1.0136   -2.4398 C   0  0  0  0  0  0  0  0  0  0  0  0
    9.5003    1.3402   -1.7399 F   0  0  0  0  0  0  0  0  0  0  0  0
    7.6481    2.2013   -2.6374 F   0  0  0  0  0  0  0  0  0  0  0  0
    8.6922    0.4593   -3.6711 F   0  0  0  0  0  0  0  0  0  0  0  0
    6.6248    0.4906   -0.7420 C   0  0  0  0  0  0  0  0  0  0  0  0
    3.1176    1.0499    2.6496 H   0  0  0  0  0  0  0  0  0  0  0  0
    1.8904    3.4596    1.0040 H   0  0  0  0  0  0  0  0  0  0  0  0
   -0.4405    4.1108    0.5774 H   0  0  0  0  0  0  0  0  0  0  0  0
   -2.2662    2.3904    0.7556 H   0  0  0  0  0  0  0  0  0  0  0  0
   -0.7942   -1.8285    1.9280 H   0  0  0  0  0  0  0  0  0  0  0  0
   -1.8339   -4.2764    2.4204 H   0  0  0  0  0  0  0  0  0  0  0  0
   -4.2707   -5.2165    2.3380 H   0  0  0  0  0  0  0  0  0  0  0  0
   -6.3881   -1.2132    1.1004 H   0  0  0  0  0  0  0  0  0  0  0  0
   -7.3143    0.8510    0.6816 H   0  0  0  0  0  0  0  0  0  0  0  0
   -5.7633    1.6304    1.1864 H   0  0  0  0  0  0  0  0  0  0  0  0
   -4.1306    2.2283   -0.5899 H   0  0  0  0  0  0  0  0  0  0  0  0
   -3.6354    2.6061   -2.9028 H   0  0  0  0  0  0  0  0  0  0  0  0
   -7.0768    0.4677   -3.9969 H   0  0  0  0  0  0  0  0  0  0  0  0
   -7.6087    0.0531   -1.6004 H   0  0  0  0  0  0  0  0  0  0  0  0
    0.6459   -0.5073    1.7469 H   0  0  0  0  0  0  0  0  0  0  0  0
    5.2276    0.1853    1.9476 H   0  0  0  0  0  0  0  0  0  0  0  0
    5.2627   -2.4727    0.1410 H   0  0  0  0  0  0  0  0  0  0  0  0
    6.7952   -3.2714   -1.5866 H   0  0  0  0  0  0  0  0  0  0  0  0
    8.2112   -1.7028   -2.7731 H   0  0  0  0  0  0  0  0  0  0  0  0
    6.6208    1.5542   -0.5489 H   0  0  0  0  0  0  0  0  0  0  0  0
  1  2  2  0
  2  3  1  0
  3  4  1  0
  4  5  2  0
  5  6  1  0
  6  7  2  0
  7  8  1  0
  8  9  1  0
  9 10  2  0
 10 11  1  0
 11 12  1  0
 12 13  2  0
 13 14  1  0
 14 15  2  0
 15 16  1  0
 16 17  1  0
 17 18  1  0
 18 19  1  0
 19 20  2  0
 20 21  1  0
 21 22  2  0
 22 23  1  0
 23 24  2  0
 16 25  2  0
  8 26  2  0
  2 27  1  0
 27 28  1  0
 28 29  2  0
 29 30  1  0
 30 31  2  0
 31 32  1  0
 32 33  1  0
 33 34  1  0
 33 35  1  0
 33 36  1  0
 32 37  2  0
 26  4  1  0
 37 28  1  0
 25  9  1  0
 15 11  1  0
 24 19  1  0
  3 38  1  0
  5 39  1  0
  6 40  1  0
  7 41  1  0
 10 42  1  0
 12 43  1  0
 13 44  1  0
 17 45  1  0
 18 46  1  0
 18 47  1  0
 20 48  1  0
 21 49  1  0
 23 50  1  0
 24 51  1  0
 26 52  1  0
 27 53  1  0
 29 54  1  0
 30 55  1  0
 31 56  1  0
 37 57  1  0
M  END
$$$$
