
     RDKit          3D

 40 44  0  0  0  0  0  0  0  0999 V2000
    0.7165   -1.8531   -0.9566 C   0  0  2  0  0  0  0  0  0  0  0  0
    2.0634   -1.4628   -1.2761 O   0  0  0  0  0  0  0  0  0  0  0  0
    2.3671   -0.2906   -0.6032 C   0  0  0  0  0  0  0  0  0  0  0  0
    3.4949    0.4340   -0.2034 C   0  0  0  0  0  0  0  0  0  0  0  0
    4.7270   -0.1276   -0.5495 O   0  0  0  0  0  0  0  0  0  0  0  0
    3.3437    1.6230    0.4871 C   0  0  0  0  0  0  0  0  0  0  0  0
    2.0778    2.1098    0.7905 C   0  0  0  0  0  0  0  0  0  0  0  0
    0.9579    1.4325    0.4179 C   0  0  0  0  0  0  0  0  0  0  0  0
    1.1643    0.2752   -0.2552 C   0  0  0  0  0  0  0  0  0  0  0  0
    0.0078   -0.5513   -0.7136 C   0  0  1  0  0  0  0  0  0  0  0  0
   -0.5587    0.0718   -1.9422 C   0  0  0  0  0  0  0  0  0  0  0  0
   -2.0221    0.3871   -1.7604 C   0  0  0  0  0  0  0  0  0  0  0  0
   -2.3073    1.1744   -0.6064 N   0  0  0  0  0  0  0  0  0  0  0  0
   -3.6894    0.9276   -0.2313 C   0  0  0  0  0  0  0  0  0  0  0  0
   -1.4615    0.8948    0.5403 C   0  0  2  0  0  0  0  0  0  0  0  0
   -0.3961    1.9156    0.7208 C   0  0  0  0  0  0  0  0  0  0  0  0
   -0.9611   -0.5371    0.4121 C   0  0  2  0  0  0  0  0  0  0  0  0
   -0.3443   -1.0460    1.6728 C   0  0  0  0  0  0  0  0  0  0  0  0
   -0.0139   -2.4984    1.4957 C   0  0  0  0  0  0  0  0  0  0  0  0
    0.6760   -2.7620    0.1977 C   0  0  0  0  0  0  0  0  0  0  0  0
    1.2714   -3.8170    0.0427 O   0  0  0  0  0  0  0  0  0  0  0  0
    0.3125   -2.3236   -1.8761 H   0  0  0  0  0  0  0  0  0  0  0  0
    5.5331   -0.0846    0.0526 H   0  0  0  0  0  0  0  0  0  0  0  0
    4.2636    2.1543    0.7786 H   0  0  0  0  0  0  0  0  0  0  0  0
    2.0036    3.0523    1.3371 H   0  0  0  0  0  0  0  0  0  0  0  0
   -0.0188    0.9767   -2.2838 H   0  0  0  0  0  0  0  0  0  0  0  0
   -0.5096   -0.6784   -2.7630 H   0  0  0  0  0  0  0  0  0  0  0  0
   -2.5980   -0.5529   -1.8077 H   0  0  0  0  0  0  0  0  0  0  0  0
   -2.3177    0.9948   -2.6564 H   0  0  0  0  0  0  0  0  0  0  0  0
   -3.7328   -0.1223    0.1307 H   0  0  0  0  0  0  0  0  0  0  0  0
   -4.3819    1.1101   -1.0616 H   0  0  0  0  0  0  0  0  0  0  0  0
   -3.8870    1.5874    0.6481 H   0  0  0  0  0  0  0  0  0  0  0  0
   -2.0790    0.8915    1.4637 H   0  0  0  0  0  0  0  0  0  0  0  0
   -0.6371    2.7849    0.0578 H   0  0  0  0  0  0  0  0  0  0  0  0
   -0.3914    2.3579    1.7545 H   0  0  0  0  0  0  0  0  0  0  0  0
   -1.8487   -1.1480    0.1778 H   0  0  0  0  0  0  0  0  0  0  0  0
   -1.1123   -0.9495    2.4660 H   0  0  0  0  0  0  0  0  0  0  0  0
    0.5274   -0.4822    2.0071 H   0  0  0  0  0  0  0  0  0  0  0  0
   -0.9529   -3.0837    1.5851 H   0  0  0  0  0  0  0  0  0  0  0  0
    0.7134   -2.7847    2.3100 H   0  0  0  0  0  0  0  0  0  0  0  0
  1  2  1  0
  2  3  1  0
  3  4  2  0
  4  5  1  0
  4  6  1  0
  6  7  2  0
  7  8  1  0
  8  9  2  0
  9 10  1  0
 10 11  1  6
 11 12  1  0
 12 13  1  0
 13 14  1  0
 13 15  1  0
 15 16  1  0
 15 17  1  0
 17 18  1  0
 18 19  1  0
 19 20  1  0
 20 21  2  0
 10  1  1  0
 17 10  1  0
 20  1  1  0
  9  3  1  0
 16  8  1  0
  1 22  1  6
  5 23  1  0
  6 24  1  0
  7 25  1  0
 11 26  1  0
 11 27  1  0
 12 28  1  0
 12 29  1  0
 14 30  1  0
 14 31  1  0
 14 32  1  0
 15 33  1  1
 16 34  1  0
 16 35  1  0
 17 36  1  6
 18 37  1  0
 18 38  1  0
 19 39  1  0
 19 40  1  0
M  END
$$$$
