
     RDKit          3D

 49 51  0  0  0  0  0  0  0  0999 V2000
   -0.8823    1.2030    3.0608 C   0  0  0  0  0  0  0  0  0  0  0  0
   -2.1786    0.7501    2.7334 O   0  0  0  0  0  0  0  0  0  0  0  0
   -2.4148    0.2611    1.4656 C   0  0  0  0  0  0  0  0  0  0  0  0
   -1.4343    0.2030    0.5125 C   0  0  0  0  0  0  0  0  0  0  0  0
   -1.6744   -0.2937   -0.7730 C   0  0  0  0  0  0  0  0  0  0  0  0
   -0.5693   -0.3199   -1.7270 C   0  0  0  0  0  0  0  0  0  0  0  0
   -0.6917   -0.7866   -3.0147 C   0  0  0  0  0  0  0  0  0  0  0  0
    0.3298   -0.8154   -3.9078 N   0  0  0  0  0  0  0  0  0  0  0  0
    1.5270   -0.3615   -3.5079 C   0  0  0  0  0  0  0  0  0  0  0  0
    2.7288   -0.2499   -4.1268 N   0  0  0  0  0  0  0  0  0  0  0  0
    3.6081    0.2769   -3.2594 C   0  0  0  0  0  0  0  0  0  0  0  0
    3.0072    0.5274   -2.0422 C   0  0  0  0  0  0  0  0  0  0  0  0
    3.5929    1.0926   -0.8366 C   0  0  0  0  0  0  0  0  0  0  0  0
    4.1287    2.2389   -0.9002 O   0  0  0  0  0  0  0  0  0  0  0  0
    3.6223    0.4688    0.4318 N   0  0  0  0  0  0  0  0  0  0  0  0
    4.2279    1.0922    1.6026 C   0  0  0  0  0  0  0  0  0  0  0  0
    3.1938    1.3805    2.6696 C   0  0  0  0  0  0  0  0  0  0  0  0
    5.3640    0.3025    2.1494 C   0  0  0  0  0  0  0  0  0  0  0  0
    1.6884    0.1178   -2.2145 C   0  0  0  0  0  0  0  0  0  0  0  0
    0.6635    0.1349   -1.3530 N   0  0  0  0  0  0  0  0  0  0  0  0
   -2.9336   -0.7320   -1.0748 C   0  0  0  0  0  0  0  0  0  0  0  0
   -3.9633   -0.6886   -0.1274 C   0  0  0  0  0  0  0  0  0  0  0  0
   -5.2184   -1.1438   -0.4832 O   0  0  0  0  0  0  0  0  0  0  0  0
   -5.4553   -1.6401   -1.7753 C   0  0  0  0  0  0  0  0  0  0  0  0
   -3.6675   -0.1906    1.1182 C   0  0  0  0  0  0  0  0  0  0  0  0
   -4.6523   -0.1299    2.0811 O   0  0  0  0  0  0  0  0  0  0  0  0
   -4.8857   -1.2083    2.9793 C   0  0  0  0  0  0  0  0  0  0  0  0
   -0.1159    0.4572    2.7313 H   0  0  0  0  0  0  0  0  0  0  0  0
   -0.6147    2.1590    2.5556 H   0  0  0  0  0  0  0  0  0  0  0  0
   -0.7384    1.2744    4.1648 H   0  0  0  0  0  0  0  0  0  0  0  0
   -0.4414    0.5420    0.7280 H   0  0  0  0  0  0  0  0  0  0  0  0
   -1.6764   -1.1570   -3.3348 H   0  0  0  0  0  0  0  0  0  0  0  0
    2.8907   -0.5442   -5.1272 H   0  0  0  0  0  0  0  0  0  0  0  0
    4.6591    0.4893   -3.4603 H   0  0  0  0  0  0  0  0  0  0  0  0
    3.1856   -0.4785    0.5098 H   0  0  0  0  0  0  0  0  0  0  0  0
    4.6056    2.0784    1.2651 H   0  0  0  0  0  0  0  0  0  0  0  0
    2.1917    1.0038    2.3810 H   0  0  0  0  0  0  0  0  0  0  0  0
    3.5536    0.9486    3.6197 H   0  0  0  0  0  0  0  0  0  0  0  0
    3.0627    2.4762    2.8575 H   0  0  0  0  0  0  0  0  0  0  0  0
    5.5073   -0.6043    1.4929 H   0  0  0  0  0  0  0  0  0  0  0  0
    6.2978    0.8766    2.0521 H   0  0  0  0  0  0  0  0  0  0  0  0
    5.2203   -0.0047    3.2088 H   0  0  0  0  0  0  0  0  0  0  0  0
   -3.1605   -1.1225   -2.0540 H   0  0  0  0  0  0  0  0  0  0  0  0
   -5.4515   -0.8452   -2.5485 H   0  0  0  0  0  0  0  0  0  0  0  0
   -6.4749   -2.1044   -1.7969 H   0  0  0  0  0  0  0  0  0  0  0  0
   -4.7297   -2.4615   -2.0403 H   0  0  0  0  0  0  0  0  0  0  0  0
   -5.0454   -0.8590    4.0177 H   0  0  0  0  0  0  0  0  0  0  0  0
   -3.9806   -1.8723    2.9814 H   0  0  0  0  0  0  0  0  0  0  0  0
   -5.8059   -1.7410    2.6772 H   0  0  0  0  0  0  0  0  0  0  0  0
  1  2  1  0
  2  3  1  0
  3  4  2  0
  4  5  1  0
  5  6  1  0
  6  7  2  0
  7  8  1  0
  8  9  2  0
  9 10  1  0
 10 11  1  0
 11 12  2  0
 12 13  1  0
 13 14  2  0
 13 15  1  0
 15 16  1  0
 16 17  1  0
 16 18  1  0
 12 19  1  0
 19 20  2  0
  5 21  2  0
 21 22  1  0
 22 23  1  0
 23 24  1  0
 22 25  2  0
 25 26  1  0
 26 27  1  0
 25  3  1  0
 20  6  1  0
 19  9  1  0
  1 28  1  0
  1 29  1  0
  1 30  1  0
  4 31  1  0
  7 32  1  0
 10 33  1  0
 11 34  1  0
 15 35  1  0
 16 36  1  0
 17 37  1  0
 17 38  1  0
 17 39  1  0
 18 40  1  0
 18 41  1  0
 18 42  1  0
 21 43  1  0
 24 44  1  0
 24 45  1  0
 24 46  1  0
 27 47  1  0
 27 48  1  0
 27 49  1  0
M  END
$$$$
