
     RDKit          3D

 32 34  0  0  0  0  0  0  0  0999 V2000
    3.8176    1.9485   -0.8619 C   0  0  0  0  0  0  0  0  0  0  0  0
    4.1350    0.7034   -0.3071 O   0  0  0  0  0  0  0  0  0  0  0  0
    3.2014   -0.2230    0.1365 C   0  0  0  0  0  0  0  0  0  0  0  0
    1.8423   -0.0107    0.0762 C   0  0  0  0  0  0  0  0  0  0  0  0
    0.9193   -0.9545    0.5274 C   0  0  0  0  0  0  0  0  0  0  0  0
   -0.4968   -0.6744    0.4379 C   0  0  0  0  0  0  0  0  0  0  0  0
   -0.9221    0.5128   -0.0879 N   0  0  0  0  0  0  0  0  0  0  0  0
   -2.2273    0.8196   -0.1924 C   0  0  0  0  0  0  0  0  0  0  0  0
   -2.6472    2.0357   -0.7314 C   0  0  0  0  0  0  0  0  0  0  0  0
   -3.9822    2.3588   -0.8425 C   0  0  0  0  0  0  0  0  0  0  0  0
   -4.9291    1.4377   -0.4011 C   0  0  0  0  0  0  0  0  0  0  0  0
   -4.5024    0.2388    0.1300 C   0  0  0  0  0  0  0  0  0  0  0  0
   -3.1684   -0.0880    0.2428 C   0  0  0  0  0  0  0  0  0  0  0  0
   -2.7607   -1.2922    0.7768 C   0  0  0  0  0  0  0  0  0  0  0  0
   -3.5953   -2.1480    1.1858 O   0  0  0  0  0  0  0  0  0  0  0  0
   -1.4293   -1.5409    0.8543 N   0  0  0  0  0  0  0  0  0  0  0  0
    1.4313   -2.1100    1.0366 C   0  0  0  0  0  0  0  0  0  0  0  0
    2.8009   -2.3723    1.1193 C   0  0  0  0  0  0  0  0  0  0  0  0
    3.6741   -1.4083    0.6603 C   0  0  0  0  0  0  0  0  0  0  0  0
    5.0620   -1.6246    0.7216 O   0  0  0  0  0  0  0  0  0  0  0  0
    2.8920    2.4004   -0.4679 H   0  0  0  0  0  0  0  0  0  0  0  0
    3.8582    1.9583   -1.9802 H   0  0  0  0  0  0  0  0  0  0  0  0
    4.6439    2.6532   -0.5509 H   0  0  0  0  0  0  0  0  0  0  0  0
    1.4820    0.9317   -0.3406 H   0  0  0  0  0  0  0  0  0  0  0  0
   -1.9204    2.7564   -1.0765 H   0  0  0  0  0  0  0  0  0  0  0  0
   -4.3281    3.3095   -1.2634 H   0  0  0  0  0  0  0  0  0  0  0  0
   -5.9887    1.6481   -0.4684 H   0  0  0  0  0  0  0  0  0  0  0  0
   -5.2242   -0.4868    0.4771 H   0  0  0  0  0  0  0  0  0  0  0  0
   -1.1666   -2.4579    1.2621 H   0  0  0  0  0  0  0  0  0  0  0  0
    0.7926   -2.8978    1.4098 H   0  0  0  0  0  0  0  0  0  0  0  0
    3.1799   -3.3069    1.5321 H   0  0  0  0  0  0  0  0  0  0  0  0
    5.5564   -2.1168   -0.0176 H   0  0  0  0  0  0  0  0  0  0  0  0
  1  2  1  0
  2  3  1  0
  3  4  2  0
  4  5  1  0
  5  6  1  0
  6  7  2  0
  7  8  1  0
  8  9  2  0
  9 10  1  0
 10 11  2  0
 11 12  1  0
 12 13  2  0
 13 14  1  0
 14 15  2  0
 14 16  1  0
  5 17  2  0
 17 18  1  0
 18 19  2  0
 19 20  1  0
 19  3  1  0
 16  6  1  0
 13  8  1  0
  1 21  1  0
  1 22  1  0
  1 23  1  0
  4 24  1  0
  9 25  1  0
 10 26  1  0
 11 27  1  0
 12 28  1  0
 16 29  1  0
 17 30  1  0
 18 31  1  0
 20 32  1  0
M  END
$$$$
