
     RDKit          3D

 45 48  0  0  0  0  0  0  0  0999 V2000
   -4.7342   -2.9021    2.1437 O   0  0  0  0  0  0  0  0  0  0  0  0
   -4.9226   -1.9408    1.3218 C   0  0  0  0  0  0  0  0  0  0  0  0
   -6.2285   -1.5526    0.9719 N   0  0  0  0  0  0  0  0  0  0  0  0
   -6.4186   -0.4907    0.0642 C   0  0  0  0  0  0  0  0  0  0  0  0
   -7.5934   -0.1125   -0.2752 O   0  0  0  0  0  0  0  0  0  0  0  0
   -5.2892    0.2024   -0.5101 C   0  0  0  0  0  0  0  0  0  0  0  0
   -5.5389    1.2354   -1.3941 C   0  0  0  0  0  0  0  0  0  0  0  0
   -4.4883    1.9156   -1.9586 C   0  0  0  0  0  0  0  0  0  0  0  0
   -3.2026    1.5633   -1.6397 C   0  0  0  0  0  0  0  0  0  0  0  0
   -1.5537    2.5704   -2.4741 I   0  0  0  0  0  0  0  0  0  0  0  0
   -2.9468    0.5165   -0.7439 C   0  0  0  0  0  0  0  0  0  0  0  0
   -3.9785   -0.1862   -0.1600 C   0  0  0  0  0  0  0  0  0  0  0  0
   -3.7141   -1.2679    0.7658 C   0  0  0  0  0  0  0  0  0  0  0  0
   -2.5302   -1.6541    1.1121 C   0  0  0  0  0  0  0  0  0  0  0  0
   -1.2306   -1.2832    0.8148 N   0  0  0  0  0  0  0  0  0  0  0  0
   -0.4380   -0.4312    1.7201 C   0  0  0  0  0  0  0  0  0  0  0  0
    0.9148   -0.1944    1.1513 C   0  0  0  0  0  0  0  0  0  0  0  0
    1.1474    0.8856    0.3257 C   0  0  0  0  0  0  0  0  0  0  0  0
    2.3949    1.1278   -0.2154 C   0  0  0  0  0  0  0  0  0  0  0  0
    3.4686    0.3001    0.0446 C   0  0  0  0  0  0  0  0  0  0  0  0
    4.7931    0.5420   -0.5193 C   0  0  0  0  0  0  0  0  0  0  0  0
    5.9352    0.4477    0.2553 C   0  0  0  0  0  0  0  0  0  0  0  0
    7.1923    0.6697   -0.2480 C   0  0  0  0  0  0  0  0  0  0  0  0
    7.3174    0.9991   -1.5770 C   0  0  0  0  0  0  0  0  0  0  0  0
    6.2121    1.1021   -2.3754 N   0  0  0  0  0  0  0  0  0  0  0  0
    4.9932    0.8779   -1.8504 C   0  0  0  0  0  0  0  0  0  0  0  0
    3.2284   -0.7800    0.8726 C   0  0  0  0  0  0  0  0  0  0  0  0
    4.3116   -1.6326    1.1473 O   0  0  0  0  0  0  0  0  0  0  0  0
    1.9835   -1.0260    1.4156 C   0  0  0  0  0  0  0  0  0  0  0  0
   -7.0478   -2.0480    1.3823 H   0  0  0  0  0  0  0  0  0  0  0  0
   -6.5529    1.4967   -1.6316 H   0  0  0  0  0  0  0  0  0  0  0  0
   -4.6236    2.7409   -2.6639 H   0  0  0  0  0  0  0  0  0  0  0  0
   -1.9371    0.2761   -0.5243 H   0  0  0  0  0  0  0  0  0  0  0  0
   -2.5360   -2.5212    1.8510 H   0  0  0  0  0  0  0  0  0  0  0  0
   -0.7685   -1.6195   -0.0566 H   0  0  0  0  0  0  0  0  0  0  0  0
   -1.0133    0.5102    1.8290 H   0  0  0  0  0  0  0  0  0  0  0  0
   -0.4000   -0.9288    2.7029 H   0  0  0  0  0  0  0  0  0  0  0  0
    0.3195    1.5496    0.1071 H   0  0  0  0  0  0  0  0  0  0  0  0
    2.5594    1.9959   -0.8725 H   0  0  0  0  0  0  0  0  0  0  0  0
    5.8239    0.1894    1.2929 H   0  0  0  0  0  0  0  0  0  0  0  0
    8.0456    0.5840    0.3938 H   0  0  0  0  0  0  0  0  0  0  0  0
    8.3047    1.1721   -1.9669 H   0  0  0  0  0  0  0  0  0  0  0  0
    4.0939    0.9510   -2.4552 H   0  0  0  0  0  0  0  0  0  0  0  0
    4.8495   -1.9744    0.3612 H   0  0  0  0  0  0  0  0  0  0  0  0
    1.7985   -1.8752    2.0655 H   0  0  0  0  0  0  0  0  0  0  0  0
  1  2  2  0
  2  3  1  0
  3  4  1  0
  4  5  2  0
  4  6  1  0
  6  7  2  0
  7  8  1  0
  8  9  2  0
  9 10  1  0
  9 11  1  0
 11 12  2  0
 12 13  1  0
 13 14  2  3
 14 15  1  0
 15 16  1  0
 16 17  1  0
 17 18  2  0
 18 19  1  0
 19 20  2  0
 20 21  1  0
 21 22  2  0
 22 23  1  0
 23 24  2  0
 24 25  1  0
 25 26  2  0
 20 27  1  0
 27 28  1  0
 27 29  2  0
 13  2  1  0
 29 17  1  0
 12  6  1  0
 26 21  1  0
  3 30  1  0
  7 31  1  0
  8 32  1  0
 11 33  1  0
 14 34  1  0
 15 35  1  0
 16 36  1  0
 16 37  1  0
 18 38  1  0
 19 39  1  0
 22 40  1  0
 23 41  1  0
 24 42  1  0
 26 43  1  0
 28 44  1  0
 29 45  1  0
M  END
$$$$
