
     RDKit          3D

 47 51  0  0  0  0  0  0  0  0999 V2000
    7.5036    0.9205   -2.2015 O   0  0  0  0  0  0  0  0  0  0  0  0
    7.6757    1.6756   -1.2338 C   0  0  0  0  0  0  0  0  0  0  0  0
    7.9685    3.0012   -1.4331 O   0  0  0  0  0  0  0  0  0  0  0  0
    7.5685    1.1535    0.1413 C   0  0  0  0  0  0  0  0  0  0  0  0
    6.2062    1.0946    0.6230 N   0  0  0  0  0  0  0  0  0  0  0  0
    5.5896    2.0650    1.2625 N   0  0  0  0  0  0  0  0  0  0  0  0
    4.3376    1.6802    1.5664 N   0  0  0  0  0  0  0  0  0  0  0  0
    4.1809    0.4292    1.0969 C   0  0  0  0  0  0  0  0  0  0  0  0
    2.9576   -0.3530    1.2277 C   0  0  0  0  0  0  0  0  0  0  0  0
    1.9335   -0.5058    0.3169 C   0  0  0  0  0  0  0  0  0  0  0  0
    0.9817   -1.3370    0.8683 C   0  0  0  0  0  0  0  0  0  0  0  0
   -0.2437   -1.7819    0.3227 N   0  0  0  0  0  0  0  0  0  0  0  0
   -1.1110   -2.7506    0.9428 C   0  0  0  0  0  0  0  0  0  0  0  0
   -2.4105   -2.7035    0.1634 C   0  0  0  0  0  0  0  0  0  0  0  0
   -3.3828   -1.7190    0.7697 C   0  0  0  0  0  0  0  0  0  0  0  0
   -3.6431   -0.7265   -0.2713 N   0  0  0  0  0  0  0  0  0  0  0  0
   -4.1793    0.5836   -0.0770 C   0  0  0  0  0  0  0  0  0  0  0  0
   -3.5099    1.7259   -0.4526 C   0  0  0  0  0  0  0  0  0  0  0  0
   -4.0200    2.9929   -0.2689 C   0  0  0  0  0  0  0  0  0  0  0  0
   -3.3476    4.1064   -0.6474 F   0  0  0  0  0  0  0  0  0  0  0  0
   -5.2672    3.0845    0.3240 C   0  0  0  0  0  0  0  0  0  0  0  0
   -5.9405    1.9547    0.7008 C   0  0  0  0  0  0  0  0  0  0  0  0
   -5.4191    0.6868    0.5115 C   0  0  0  0  0  0  0  0  0  0  0  0
   -6.3528   -0.6787    1.0210 Cl  0  0  0  0  0  0  0  0  0  0  0  0
   -3.2607   -1.3181   -1.5160 C   0  0  0  0  0  0  0  0  0  0  0  0
   -2.0456   -2.1324   -1.1833 C   0  0  0  0  0  0  0  0  0  0  0  0
   -0.8174   -1.3402   -0.9152 C   0  0  0  0  0  0  0  0  0  0  0  0
    1.4789   -1.6543    2.1044 N   0  0  0  0  0  0  0  0  0  0  0  0
    2.6212   -1.0718    2.2856 O   0  0  0  0  0  0  0  0  0  0  0  0
    5.3429    0.0859    0.5192 N   0  0  0  0  0  0  0  0  0  0  0  0
    8.0356    3.4449   -2.3423 H   0  0  0  0  0  0  0  0  0  0  0  0
    8.0724    0.1677    0.2436 H   0  0  0  0  0  0  0  0  0  0  0  0
    8.1265    1.8680    0.8171 H   0  0  0  0  0  0  0  0  0  0  0  0
    1.8817   -0.0586   -0.6581 H   0  0  0  0  0  0  0  0  0  0  0  0
   -0.6703   -3.7769    0.9269 H   0  0  0  0  0  0  0  0  0  0  0  0
   -1.3459   -2.4355    1.9786 H   0  0  0  0  0  0  0  0  0  0  0  0
   -2.8577   -3.7286    0.0658 H   0  0  0  0  0  0  0  0  0  0  0  0
   -2.9386   -1.1849    1.6427 H   0  0  0  0  0  0  0  0  0  0  0  0
   -4.3254   -2.2036    1.0689 H   0  0  0  0  0  0  0  0  0  0  0  0
   -2.5274    1.6614   -0.9213 H   0  0  0  0  0  0  0  0  0  0  0  0
   -5.7039    4.0704    0.4855 H   0  0  0  0  0  0  0  0  0  0  0  0
   -6.9215    2.0553    1.1670 H   0  0  0  0  0  0  0  0  0  0  0  0
   -4.0371   -1.9878   -1.9020 H   0  0  0  0  0  0  0  0  0  0  0  0
   -3.0445   -0.5084   -2.2476 H   0  0  0  0  0  0  0  0  0  0  0  0
   -1.8996   -2.9335   -1.9470 H   0  0  0  0  0  0  0  0  0  0  0  0
   -1.1466   -0.2727   -0.7376 H   0  0  0  0  0  0  0  0  0  0  0  0
   -0.0931   -1.3449   -1.7562 H   0  0  0  0  0  0  0  0  0  0  0  0
  1  2  2  0
  2  3  1  0
  2  4  1  0
  4  5  1  0
  5  6  1  0
  6  7  2  0
  7  8  1  0
  8  9  1  0
  9 10  2  0
 10 11  1  0
 11 12  1  0
 12 13  1  0
 13 14  1  0
 14 15  1  0
 15 16  1  0
 16 17  1  0
 17 18  2  0
 18 19  1  0
 19 20  1  0
 19 21  2  0
 21 22  1  0
 22 23  2  0
 23 24  1  0
 16 25  1  0
 25 26  1  0
 26 27  1  0
 11 28  2  0
 28 29  1  0
  8 30  2  0
 30  5  1  0
 29  9  1  0
 27 12  1  0
 26 14  1  0
 23 17  1  0
  3 31  1  0
  4 32  1  0
  4 33  1  0
 10 34  1  0
 13 35  1  0
 13 36  1  0
 14 37  1  0
 15 38  1  0
 15 39  1  0
 18 40  1  0
 21 41  1  0
 22 42  1  0
 25 43  1  0
 25 44  1  0
 26 45  1  0
 27 46  1  0
 27 47  1  0
M  END
$$$$
