
     RDKit          3D

103107  0  0  0  0  0  0  0  0999 V2000
   -4.3983    2.6496   -0.1441 C   0  0  0  0  0  0  0  0  0  0  0  0
   -4.2282    1.5920    0.7745 O   0  0  0  0  0  0  0  0  0  0  0  0
   -4.5174    2.0274    2.0451 C   0  0  0  0  0  0  0  0  0  0  0  0
   -4.3393    1.0056    3.1068 C   0  0  0  0  0  0  0  0  0  0  0  0
   -5.1638   -0.2259    3.0166 C   0  0  0  0  0  0  0  0  0  0  0  0
   -4.9057   -0.9435    1.7459 C   0  0  0  0  0  0  0  0  0  0  0  0
   -3.8231   -1.8038    1.6652 C   0  0  0  0  0  0  0  0  0  0  0  0
   -3.5225   -2.5323    0.5416 C   0  0  0  0  0  0  0  0  0  0  0  0
   -2.3684   -3.4667    0.4499 C   0  0  0  0  0  0  0  0  0  0  0  0
   -1.1989   -2.6413   -0.0001 N   0  0  0  0  0  0  0  0  0  0  0  0
   -0.3565   -2.2132    1.0055 C   0  0  0  0  0  0  0  0  0  0  0  0
   -0.7373   -2.5410    2.2191 O   0  0  0  0  0  0  0  0  0  0  0  0
    0.9004   -1.4504    0.9475 C   0  0  1  0  0  0  0  0  0  0  0  0
    1.2022   -0.8482    2.3388 C   0  0  0  0  0  0  0  0  0  0  0  0
    0.9679   -1.8854    3.3035 N   0  0  0  0  0  0  0  0  0  0  0  0
    1.7981   -3.0338    3.1604 C   0  0  0  0  0  0  0  0  0  0  0  0
    2.1573   -3.4289    1.7778 C   0  0  0  0  0  0  0  0  0  0  0  0
    2.1256   -2.3699    0.7353 C   0  0  2  0  0  0  0  0  0  0  0  0
    3.3067   -1.4957    0.7089 C   0  0  0  0  0  0  0  0  0  0  0  0
    4.3552   -1.5885    1.5889 C   0  0  0  0  0  0  0  0  0  0  0  0
    5.4556   -0.7503    1.5660 C   0  0  0  0  0  0  0  0  0  0  0  0
    5.5268    0.2398    0.6166 C   0  0  0  0  0  0  0  0  0  0  0  0
    6.5445    1.1183    0.4857 O   0  0  0  0  0  0  0  0  0  0  0  0
    7.7163    1.2897    1.1513 C   0  0  0  0  0  0  0  0  0  0  0  0
    8.7461    0.2248    1.1236 C   0  0  0  0  0  0  0  0  0  0  0  0
    9.2921   -0.1503   -0.0975 O   0  0  0  0  0  0  0  0  0  0  0  0
    9.9932    0.7138   -0.8877 C   0  0  0  0  0  0  0  0  0  0  0  0
    9.4781    1.4254   -1.9311 C   0  0  0  0  0  0  0  0  0  0  0  0
    7.8197    1.2627   -2.4324 Cl  0  0  0  0  0  0  0  0  0  0  0  0
   10.2524    2.3056   -2.7025 C   0  0  0  0  0  0  0  0  0  0  0  0
   11.5708    2.4731   -2.4211 C   0  0  0  0  0  0  0  0  0  0  0  0
   12.4667    3.3911   -3.1917 C   0  0  0  0  0  0  0  0  0  0  0  0
   12.1194    1.7580   -1.3637 C   0  0  0  0  0  0  0  0  0  0  0  0
   11.3558    0.9000   -0.6138 C   0  0  0  0  0  0  0  0  0  0  0  0
   12.0960    0.0178    0.7133 Cl  0  0  0  0  0  0  0  0  0  0  0  0
    4.4604    0.3471   -0.2911 C   0  0  0  0  0  0  0  0  0  0  0  0
    3.3870   -0.5000   -0.2384 C   0  0  0  0  0  0  0  0  0  0  0  0
   -1.1784   -2.3698   -1.3950 C   0  0  0  0  0  0  0  0  0  0  0  0
   -0.0246   -1.9807   -2.2443 C   0  0  0  0  0  0  0  0  0  0  0  0
   -1.1159   -0.9612   -1.8965 C   0  0  0  0  0  0  0  0  0  0  0  0
   -4.3569   -2.3804   -0.5403 C   0  0  0  0  0  0  0  0  0  0  0  0
   -5.4779   -1.5183   -0.5207 C   0  0  0  0  0  0  0  0  0  0  0  0
   -6.2376   -1.4539   -1.6568 O   0  0  0  0  0  0  0  0  0  0  0  0
   -7.3481   -0.6963   -1.9075 C   0  0  0  0  0  0  0  0  0  0  0  0
   -7.1821    0.7847   -1.9159 C   0  0  0  0  0  0  0  0  0  0  0  0
   -8.4872    1.5060   -2.2045 C   0  0  0  0  0  0  0  0  0  0  0  0
   -9.4894    1.1811   -1.1876 N   0  0  0  0  0  0  0  0  0  0  0  0
  -10.9454    2.0216   -1.5614 S   0  0  0  0  0  6  0  0  0  0  0  0
  -10.7295    3.7710   -1.5438 C   0  0  0  0  0  0  0  0  0  0  0  0
  -11.4085    1.5902   -2.9204 O   0  0  0  0  0  0  0  0  0  0  0  0
  -12.0095    1.6531   -0.5628 O   0  0  0  0  0  0  0  0  0  0  0  0
   -5.7125   -0.8237    0.6365 C   0  0  0  0  0  0  0  0  0  0  0  0
   -4.1731    2.3181   -1.1587 H   0  0  0  0  0  0  0  0  0  0  0  0
   -3.7030    3.4573    0.2087 H   0  0  0  0  0  0  0  0  0  0  0  0
   -5.4378    3.0344   -0.1321 H   0  0  0  0  0  0  0  0  0  0  0  0
   -5.5002    2.5287    2.0800 H   0  0  0  0  0  0  0  0  0  0  0  0
   -3.7763    2.8545    2.2591 H   0  0  0  0  0  0  0  0  0  0  0  0
   -4.5362    1.4567    4.1193 H   0  0  0  0  0  0  0  0  0  0  0  0
   -3.2606    0.6754    3.1856 H   0  0  0  0  0  0  0  0  0  0  0  0
   -6.2553   -0.0436    3.1358 H   0  0  0  0  0  0  0  0  0  0  0  0
   -4.8463   -0.8957    3.8459 H   0  0  0  0  0  0  0  0  0  0  0  0
   -3.2219   -1.8937    2.5331 H   0  0  0  0  0  0  0  0  0  0  0  0
   -2.1971   -3.8943    1.4337 H   0  0  0  0  0  0  0  0  0  0  0  0
   -2.5617   -4.2301   -0.3253 H   0  0  0  0  0  0  0  0  0  0  0  0
    0.8612   -0.6855    0.1924 H   0  0  0  0  0  0  0  0  0  0  0  0
    2.2490   -0.5527    2.3228 H   0  0  0  0  0  0  0  0  0  0  0  0
    0.5025   -0.0101    2.5423 H   0  0  0  0  0  0  0  0  0  0  0  0
    1.1484   -1.4680    4.2588 H   0  0  0  0  0  0  0  0  0  0  0  0
    2.6700   -2.9753    3.8754 H   0  0  0  0  0  0  0  0  0  0  0  0
    1.1983   -3.8933    3.6107 H   0  0  0  0  0  0  0  0  0  0  0  0
    3.1408   -3.9449    1.7911 H   0  0  0  0  0  0  0  0  0  0  0  0
    1.4336   -4.2289    1.4385 H   0  0  0  0  0  0  0  0  0  0  0  0
    1.9344   -2.8410   -0.2440 H   0  0  0  0  0  0  0  0  0  0  0  0
    4.3256   -2.3602    2.3359 H   0  0  0  0  0  0  0  0  0  0  0  0
    6.2211   -0.8906    2.3052 H   0  0  0  0  0  0  0  0  0  0  0  0
    8.2309    2.2398    0.8157 H   0  0  0  0  0  0  0  0  0  0  0  0
    7.5245    1.5016    2.2615 H   0  0  0  0  0  0  0  0  0  0  0  0
    8.3897   -0.7112    1.6509 H   0  0  0  0  0  0  0  0  0  0  0  0
    9.6082    0.6213    1.7681 H   0  0  0  0  0  0  0  0  0  0  0  0
    9.8295    2.8637   -3.5261 H   0  0  0  0  0  0  0  0  0  0  0  0
   12.6950    4.2804   -2.5368 H   0  0  0  0  0  0  0  0  0  0  0  0
   11.8908    3.8080   -4.0563 H   0  0  0  0  0  0  0  0  0  0  0  0
   13.4014    2.8900   -3.5031 H   0  0  0  0  0  0  0  0  0  0  0  0
   13.1795    1.8973   -1.1441 H   0  0  0  0  0  0  0  0  0  0  0  0
    4.5108    1.1127   -1.0281 H   0  0  0  0  0  0  0  0  0  0  0  0
    2.6130   -0.3453   -0.9682 H   0  0  0  0  0  0  0  0  0  0  0  0
   -1.9774   -2.9402   -2.0178 H   0  0  0  0  0  0  0  0  0  0  0  0
   -0.0205   -2.3187   -3.3311 H   0  0  0  0  0  0  0  0  0  0  0  0
    0.9691   -1.7100   -1.9021 H   0  0  0  0  0  0  0  0  0  0  0  0
   -1.7576   -0.6732   -2.7595 H   0  0  0  0  0  0  0  0  0  0  0  0
   -0.8283   -0.1104   -1.2920 H   0  0  0  0  0  0  0  0  0  0  0  0
   -4.1777   -2.9483   -1.4551 H   0  0  0  0  0  0  0  0  0  0  0  0
   -7.7678   -1.0432   -2.9130 H   0  0  0  0  0  0  0  0  0  0  0  0
   -8.1477   -1.0225   -1.1838 H   0  0  0  0  0  0  0  0  0  0  0  0
   -6.6878    1.2014   -1.0442 H   0  0  0  0  0  0  0  0  0  0  0  0
   -6.5242    1.0303   -2.7896 H   0  0  0  0  0  0  0  0  0  0  0  0
   -8.2798    2.5928   -2.2449 H   0  0  0  0  0  0  0  0  0  0  0  0
   -8.8669    1.2208   -3.2117 H   0  0  0  0  0  0  0  0  0  0  0  0
   -9.1427    1.5293   -0.2705 H   0  0  0  0  0  0  0  0  0  0  0  0
  -11.6556    4.2347   -1.1616 H   0  0  0  0  0  0  0  0  0  0  0  0
  -10.5954    4.1743   -2.5755 H   0  0  0  0  0  0  0  0  0  0  0  0
   -9.9060    4.0745   -0.8702 H   0  0  0  0  0  0  0  0  0  0  0  0
   -6.5537   -0.1630    0.7429 H   0  0  0  0  0  0  0  0  0  0  0  0
  1  2  1  0
  2  3  1  0
  3  4  1  0
  4  5  1  0
  5  6  1  0
  6  7  2  0
  7  8  1  0
  8  9  1  0
  9 10  1  0
 10 11  1  0
 11 12  2  0
 11 13  1  0
 13 14  1  0
 14 15  1  0
 15 16  1  0
 16 17  1  0
 17 18  1  0
 18 19  1  0
 19 20  2  0
 20 21  1  0
 21 22  2  0
 22 23  1  0
 23 24  1  0
 24 25  1  0
 25 26  1  0
 26 27  1  0
 27 28  2  0
 28 29  1  0
 28 30  1  0
 30 31  2  0
 31 32  1  0
 31 33  1  0
 33 34  2  0
 34 35  1  0
 22 36  1  0
 36 37  2  0
 10 38  1  0
 38 39  1  0
 39 40  1  0
  8 41  2  0
 41 42  1  0
 42 43  1  0
 43 44  1  0
 44 45  1  0
 45 46  1  0
 46 47  1  0
 47 48  1  0
 48 49  1  0
 48 50  2  0
 48 51  2  0
 42 52  2  0
 52  6  1  0
 18 13  1  0
 37 19  1  0
 40 38  1  0
 34 27  1  0
  1 53  1  0
  1 54  1  0
  1 55  1  0
  3 56  1  0
  3 57  1  0
  4 58  1  0
  4 59  1  0
  5 60  1  0
  5 61  1  0
  7 62  1  0
  9 63  1  0
  9 64  1  0
 13 65  1  6
 14 66  1  0
 14 67  1  0
 15 68  1  0
 16 69  1  0
 16 70  1  0
 17 71  1  0
 17 72  1  0
 18 73  1  6
 20 74  1  0
 21 75  1  0
 24 76  1  0
 24 77  1  0
 25 78  1  0
 25 79  1  0
 30 80  1  0
 32 81  1  0
 32 82  1  0
 32 83  1  0
 33 84  1  0
 36 85  1  0
 37 86  1  0
 38 87  1  0
 39 88  1  0
 39 89  1  0
 40 90  1  0
 40 91  1  0
 41 92  1  0
 44 93  1  0
 44 94  1  0
 45 95  1  0
 45 96  1  0
 46 97  1  0
 46 98  1  0
 47 99  1  0
 49100  1  0
 49101  1  0
 49102  1  0
 52103  1  0
M  END
$$$$
