
     RDKit          3D

 50 55  0  0  0  0  0  0  0  0999 V2000
   -5.2805    3.3233   -2.2160 O   0  0  0  0  0  0  0  0  0  0  0  0
   -4.6217    3.3439   -1.1589 C   0  0  0  0  0  0  0  0  0  0  0  0
   -4.9871    4.1476   -0.1172 N   0  0  0  0  0  0  0  0  0  0  0  0
   -4.3061    4.1991    1.0356 N   0  0  0  0  0  0  0  0  0  0  0  0
   -3.2072    3.4476    1.2293 C   0  0  0  0  0  0  0  0  0  0  0  0
   -2.5834    3.5127    2.3213 O   0  0  0  0  0  0  0  0  0  0  0  0
   -2.7769    2.6178    0.2361 C   0  0  0  0  0  0  0  0  0  0  0  0
   -1.6594    1.8212    0.3687 C   0  0  0  0  0  0  0  0  0  0  0  0
   -1.1917    0.9624   -0.6250 C   0  0  0  0  0  0  0  0  0  0  0  0
   -1.9219    0.9320   -1.8116 C   0  0  0  0  0  0  0  0  0  0  0  0
   -3.0464    1.7279   -1.9567 C   0  0  0  0  0  0  0  0  0  0  0  0
   -3.4828    2.5647   -0.9586 C   0  0  0  0  0  0  0  0  0  0  0  0
   -0.0228    0.1932   -0.3589 N   0  0  0  0  0  4  0  0  0  0  0  0
    1.2697    0.5536   -0.4237 N   0  0  0  0  0  0  0  0  0  0  0  0
    2.0554   -0.4848   -0.0904 C   0  0  0  0  0  0  0  0  0  0  0  0
    3.5111   -0.5131   -0.0339 C   0  0  0  0  0  0  0  0  0  0  0  0
    4.2333    0.5559   -0.3249 C   0  0  0  0  0  0  0  0  0  0  0  0
    5.6892    0.6271   -0.2976 C   0  0  0  0  0  0  0  0  0  0  0  0
    6.3638    1.7901   -0.6172 C   0  0  0  0  0  0  0  0  0  0  0  0
    7.7339    1.8670   -0.5941 C   0  0  0  0  0  0  0  0  0  0  0  0
    8.5093    0.8048   -0.2558 C   0  0  0  0  0  0  0  0  0  0  0  0
    7.8806   -0.3892    0.0745 C   0  0  0  0  0  0  0  0  0  0  0  0
    6.5127   -0.4258    0.0396 C   0  0  0  0  0  0  0  0  0  0  0  0
    1.2383   -1.5159    0.1888 N   0  0  0  0  0  0  0  0  0  0  0  0
    0.0285   -1.0638    0.0155 N   0  0  0  0  0  0  0  0  0  0  0  0
   -1.0886   -1.9634    0.2465 C   0  0  0  0  0  0  0  0  0  0  0  0
   -1.2785   -2.9671    0.8800 N   0  0  0  0  0  0  0  0  0  0  0  0
   -2.4239   -3.6294    0.9354 C   0  0  0  0  0  0  0  0  0  0  0  0
   -3.4729   -3.1276    0.2120 C   0  0  0  0  0  0  0  0  0  0  0  0
   -2.7317   -1.6480   -0.5582 S   0  0  0  0  0  0  0  0  0  0  0  0
   -4.7649   -3.6874    0.1439 C   0  0  0  0  0  0  0  0  0  0  0  0
   -5.0102   -4.8385    0.8611 C   0  0  0  0  0  0  0  0  0  0  0  0
   -3.9535   -5.3337    1.5826 C   0  0  0  0  0  0  0  0  0  0  0  0
   -2.6948   -4.7816    1.6442 C   0  0  0  0  0  0  0  0  0  0  0  0
   -5.8495    4.7588   -0.2260 H   0  0  0  0  0  0  0  0  0  0  0  0
   -4.6841    4.8552    1.7617 H   0  0  0  0  0  0  0  0  0  0  0  0
   -1.1282    1.8904    1.3272 H   0  0  0  0  0  0  0  0  0  0  0  0
   -1.5473    0.2538   -2.5888 H   0  0  0  0  0  0  0  0  0  0  0  0
   -3.5995    1.6893   -2.8873 H   0  0  0  0  0  0  0  0  0  0  0  0
    4.0331   -1.4149    0.2490 H   0  0  0  0  0  0  0  0  0  0  0  0
    3.6911    1.4258   -0.5992 H   0  0  0  0  0  0  0  0  0  0  0  0
    5.7925    2.6664   -0.8941 H   0  0  0  0  0  0  0  0  0  0  0  0
    8.1889    2.8255   -0.8608 H   0  0  0  0  0  0  0  0  0  0  0  0
    9.5843    0.9440   -0.2610 H   0  0  0  0  0  0  0  0  0  0  0  0
    8.5014   -1.2196    0.3395 H   0  0  0  0  0  0  0  0  0  0  0  0
    6.0659   -1.3746    0.3038 H   0  0  0  0  0  0  0  0  0  0  0  0
   -5.4538   -3.1400   -0.4834 H   0  0  0  0  0  0  0  0  0  0  0  0
   -6.0058   -5.2285    0.7794 H   0  0  0  0  0  0  0  0  0  0  0  0
   -4.1559   -6.2541    2.1535 H   0  0  0  0  0  0  0  0  0  0  0  0
   -1.9523   -5.3002    2.2701 H   0  0  0  0  0  0  0  0  0  0  0  0
  1  2  2  0
  2  3  1  0
  3  4  1  0
  4  5  1  0
  5  6  2  0
  5  7  1  0
  7  8  2  0
  8  9  1  0
  9 10  2  0
 10 11  1  0
 11 12  2  0
  9 13  1  0
 13 14  2  0
 14 15  1  0
 15 16  1  0
 16 17  2  0
 17 18  1  0
 18 19  2  0
 19 20  1  0
 20 21  2  0
 21 22  1  0
 22 23  2  0
 15 24  2  0
 24 25  1  0
 25 26  1  0
 26 27  2  0
 27 28  1  0
 28 29  2  0
 29 30  1  0
 29 31  1  0
 31 32  2  0
 32 33  1  0
 33 34  2  0
 12  2  1  0
 25 13  1  0
 30 26  1  0
 12  7  1  0
 23 18  1  0
 34 28  1  0
  3 35  1  0
  4 36  1  0
  8 37  1  0
 10 38  1  0
 11 39  1  0
 16 40  1  0
 17 41  1  0
 19 42  1  0
 20 43  1  0
 21 44  1  0
 22 45  1  0
 23 46  1  0
 31 47  1  0
 32 48  1  0
 33 49  1  0
 34 50  1  0
M  CHG  1  13   1
M  END
$$$$
