
     RDKit          3D

 20 19  0  0  0  0  0  0  0  0999 V2000
   -2.1189    0.4122   -0.0727 C   0  0  0  0  0  0  0  0  0  0  0  0
   -2.4286   -1.0108   -0.1205 C   0  0  0  0  0  0  0  0  0  0  0  0
   -0.8809    0.7401    0.2258 C   0  0  0  0  0  0  0  0  0  0  0  0
   -0.5830    2.1293    0.2714 N   0  0  0  0  0  0  0  0  0  0  0  0
    0.2333   -0.1510    0.5183 C   0  0  0  0  0  0  0  0  0  0  0  0
    1.3089    0.1427   -0.5368 C   0  0  0  0  0  0  0  0  0  0  0  0
    2.4815   -0.7380   -0.2951 C   0  0  0  0  0  0  0  0  0  0  0  0
    3.5800   -1.5530   -0.0805 O   0  0  0  0  0  0  0  0  0  0  0  0
    2.1523   -1.4174    0.7109 O   0  0  0  0  0  0  0  0  0  0  0  0
   -2.8703    1.1765   -0.2733 H   0  0  0  0  0  0  0  0  0  0  0  0
   -2.6069   -1.3622    0.9311 H   0  0  0  0  0  0  0  0  0  0  0  0
   -1.6785   -1.6741   -0.5554 H   0  0  0  0  0  0  0  0  0  0  0  0
   -3.4032   -1.1343   -0.6619 H   0  0  0  0  0  0  0  0  0  0  0  0
   -0.7923    2.8530   -0.4698 H   0  0  0  0  0  0  0  0  0  0  0  0
   -0.1169    2.7539    0.9885 H   0  0  0  0  0  0  0  0  0  0  0  0
    0.0417   -1.2288    0.4473 H   0  0  0  0  0  0  0  0  0  0  0  0
    0.6559    0.1479    1.4980 H   0  0  0  0  0  0  0  0  0  0  0  0
    1.6246    1.2034   -0.5233 H   0  0  0  0  0  0  0  0  0  0  0  0
    0.9435   -0.0822   -1.5530 H   0  0  0  0  0  0  0  0  0  0  0  0
    4.4579   -1.2070   -0.4490 H   0  0  0  0  0  0  0  0  0  0  0  0
  1  2  1  0
  1  3  2  0
  3  4  1  0
  3  5  1  0
  5  6  1  0
  6  7  1  0
  7  8  1  0
  7  9  2  0
  1 10  1  0
  2 11  1  0
  2 12  1  0
  2 13  1  0
  4 14  1  0
  4 15  1  0
  5 16  1  0
  5 17  1  0
  6 18  1  0
  6 19  1  0
  8 20  1  0
M  END
$$$$
