
     RDKit          3D

 25 28  0  0  0  0  0  0  0  0999 V2000
    0.4460   -2.7288    0.9138 O   0  0  0  0  0  0  0  0  0  0  0  0
    0.2931   -1.5637    0.5273 C   0  0  0  0  0  0  0  0  0  0  0  0
    1.4352   -0.6724    0.3545 C   0  0  0  0  0  0  0  0  0  0  0  0
    2.7282   -1.0806    0.6109 C   0  0  0  0  0  0  0  0  0  0  0  0
    3.8048   -0.2093    0.4380 C   0  0  0  0  0  0  0  0  0  0  0  0
    3.5989    1.0889    0.0039 C   0  0  0  0  0  0  0  0  0  0  0  0
    2.3011    1.4785   -0.2470 C   0  0  0  0  0  0  0  0  0  0  0  0
    1.2313    0.6356   -0.0826 C   0  0  0  0  0  0  0  0  0  0  0  0
   -0.1269    1.1190   -0.3693 C   0  0  0  0  0  0  0  0  0  0  0  0
   -0.6961    2.2603   -0.7888 N   0  0  0  0  0  0  0  0  0  0  0  0
   -2.0335    2.1221   -0.8752 N   0  0  0  0  0  0  0  0  0  0  0  0
   -2.3560    0.8684   -0.5069 C   0  0  0  0  0  0  0  0  0  0  0  0
   -3.5155    0.1150   -0.3797 C   0  0  0  0  0  0  0  0  0  0  0  0
   -3.4052   -1.1998    0.0504 C   0  0  0  0  0  0  0  0  0  0  0  0
   -2.2093   -1.8074    0.3609 C   0  0  0  0  0  0  0  0  0  0  0  0
   -1.0462   -1.0579    0.2353 C   0  0  0  0  0  0  0  0  0  0  0  0
   -1.1745    0.2449   -0.1927 C   0  0  0  0  0  0  0  0  0  0  0  0
    2.9318   -2.0832    0.9505 H   0  0  0  0  0  0  0  0  0  0  0  0
    4.7969   -0.5541    0.6448 H   0  0  0  0  0  0  0  0  0  0  0  0
    4.4663    1.7164   -0.1116 H   0  0  0  0  0  0  0  0  0  0  0  0
    2.1082    2.4697   -0.5819 H   0  0  0  0  0  0  0  0  0  0  0  0
   -2.7191    2.8476   -1.1735 H   0  0  0  0  0  0  0  0  0  0  0  0
   -4.4404    0.5875   -0.6207 H   0  0  0  0  0  0  0  0  0  0  0  0
   -4.3142   -1.7703    0.1436 H   0  0  0  0  0  0  0  0  0  0  0  0
   -2.1047   -2.8261    0.6959 H   0  0  0  0  0  0  0  0  0  0  0  0
  1  2  2  0
  2  3  1  0
  3  4  2  0
  4  5  1  0
  5  6  2  0
  6  7  1  0
  7  8  2  0
  8  9  1  0
  9 10  2  0
 10 11  1  0
 11 12  1  0
 12 13  1  0
 13 14  2  0
 14 15  1  0
 15 16  2  0
 16 17  1  0
 16  2  1  0
  8  3  1  0
 17  9  1  0
 17 12  2  0
  4 18  1  0
  5 19  1  0
  6 20  1  0
  7 21  1  0
 11 22  1  0
 13 23  1  0
 14 24  1  0
 15 25  1  0
M  END
$$$$
