
     RDKit          3D

 54 58  0  0  0  0  0  0  0  0999 V2000
    9.3454   -1.9686   -1.2438 C   0  0  0  0  0  0  0  0  0  0  0  0
    8.8172   -2.0173    0.0687 O   0  0  0  0  0  0  0  0  0  0  0  0
    7.5260   -1.6178    0.3718 C   0  0  0  0  0  0  0  0  0  0  0  0
    7.1097   -1.7058    1.6834 C   0  0  0  0  0  0  0  0  0  0  0  0
    5.8133   -1.3105    2.0208 C   0  0  0  0  0  0  0  0  0  0  0  0
    4.9277   -0.8322    1.0848 C   0  0  0  0  0  0  0  0  0  0  0  0
    5.3523   -0.7462   -0.2325 C   0  0  0  0  0  0  0  0  0  0  0  0
    6.6301   -1.1374   -0.5554 C   0  0  0  0  0  0  0  0  0  0  0  0
    4.2205   -0.2151   -0.9788 C   0  0  0  0  0  0  0  0  0  0  0  0
    4.2441   -0.0022   -2.2168 O   0  0  0  0  0  0  0  0  0  0  0  0
    3.1443    0.0087   -0.1141 N   0  0  0  0  0  0  0  0  0  0  0  0
    1.8222    0.5278   -0.4160 C   0  0  0  0  0  0  0  0  0  0  0  0
    0.8153    0.7899    0.0963 N   0  0  0  0  0  0  0  0  0  0  0  0
   -0.2878    1.2719   -0.4277 C   0  0  0  0  0  0  0  0  0  0  0  0
   -1.5276    1.5668    0.3583 C   0  0  0  0  0  0  0  0  0  0  0  0
   -1.5877    1.3651    1.5996 O   0  0  0  0  0  0  0  0  0  0  0  0
   -2.6764    2.0803   -0.2525 N   0  0  0  0  0  0  0  0  0  0  0  0
   -3.8708    2.3722    0.4613 C   0  0  0  0  0  0  0  0  0  0  0  0
   -4.1310    3.6062    1.0310 C   0  0  0  0  0  0  0  0  0  0  0  0
   -5.2961    3.7820    1.6889 N   0  0  0  0  0  0  0  0  0  0  0  0
   -6.2205    2.8100    1.8176 C   0  0  0  0  0  0  0  0  0  0  0  0
   -5.9979    1.5680    1.2644 C   0  0  0  0  0  0  0  0  0  0  0  0
   -4.8104    1.3757    0.5892 C   0  0  0  0  0  0  0  0  0  0  0  0
   -4.5523    0.1064    0.0101 N   0  0  0  0  0  0  0  0  0  0  0  0
   -4.3378   -0.0421   -1.3971 C   0  0  0  0  0  0  0  0  0  0  0  0
   -4.8305   -1.4117   -1.8479 C   0  0  0  0  0  0  0  0  0  0  0  0
   -5.8937   -1.8017   -0.9414 N   0  0  0  0  0  0  0  0  0  0  0  0
   -5.2546   -2.2225    0.3026 C   0  0  0  0  0  0  0  0  0  0  0  0
   -4.5159   -1.0477    0.9130 C   0  0  0  0  0  0  0  0  0  0  0  0
   -0.2423    1.4965   -1.7685 C   0  0  0  0  0  0  0  0  0  0  0  0
    1.4712    0.9749   -2.2197 S   0  0  0  0  0  0  0  0  0  0  0  0
    3.5450   -0.3705    1.2182 C   0  0  0  0  0  0  0  0  0  0  0  0
    9.4961   -0.9046   -1.4983 H   0  0  0  0  0  0  0  0  0  0  0  0
    8.6348   -2.4707   -1.9338 H   0  0  0  0  0  0  0  0  0  0  0  0
   10.3297   -2.4706   -1.2515 H   0  0  0  0  0  0  0  0  0  0  0  0
    7.7924   -2.0807    2.4398 H   0  0  0  0  0  0  0  0  0  0  0  0
    5.4818   -1.3798    3.0605 H   0  0  0  0  0  0  0  0  0  0  0  0
    6.9781   -1.0767   -1.5802 H   0  0  0  0  0  0  0  0  0  0  0  0
   -2.6519    2.2605   -1.2970 H   0  0  0  0  0  0  0  0  0  0  0  0
   -3.4058    4.3985    0.9405 H   0  0  0  0  0  0  0  0  0  0  0  0
   -7.1192    3.0630    2.3666 H   0  0  0  0  0  0  0  0  0  0  0  0
   -6.7336    0.7894    1.3650 H   0  0  0  0  0  0  0  0  0  0  0  0
   -3.2476   -0.0319   -1.6440 H   0  0  0  0  0  0  0  0  0  0  0  0
   -4.9149    0.7177   -1.9332 H   0  0  0  0  0  0  0  0  0  0  0  0
   -5.2407   -1.3890   -2.8659 H   0  0  0  0  0  0  0  0  0  0  0  0
   -3.9932   -2.1478   -1.8579 H   0  0  0  0  0  0  0  0  0  0  0  0
   -6.4580   -2.5860   -1.3034 H   0  0  0  0  0  0  0  0  0  0  0  0
   -4.5341   -3.0456    0.1443 H   0  0  0  0  0  0  0  0  0  0  0  0
   -6.0535   -2.6001    0.9692 H   0  0  0  0  0  0  0  0  0  0  0  0
   -4.9916   -0.8250    1.8787 H   0  0  0  0  0  0  0  0  0  0  0  0
   -3.4477   -1.2849    1.0990 H   0  0  0  0  0  0  0  0  0  0  0  0
   -0.9516    1.8818   -2.5254 H   0  0  0  0  0  0  0  0  0  0  0  0
    3.4329    0.5236    1.8598 H   0  0  0  0  0  0  0  0  0  0  0  0
    2.8466   -1.1341    1.5996 H   0  0  0  0  0  0  0  0  0  0  0  0
  1  2  1  0
  2  3  1  0
  3  4  2  0
  4  5  1  0
  5  6  2  0
  6  7  1  0
  7  8  2  0
  7  9  1  0
  9 10  2  0
  9 11  1  0
 11 12  1  0
 12 13  2  0
 13 14  1  0
 14 15  1  0
 15 16  2  0
 15 17  1  0
 17 18  1  0
 18 19  2  0
 19 20  1  0
 20 21  2  0
 21 22  1  0
 22 23  2  0
 23 24  1  0
 24 25  1  0
 25 26  1  0
 26 27  1  0
 27 28  1  0
 28 29  1  0
 14 30  2  0
 30 31  1  0
 11 32  1  0
  8  3  1  0
 31 12  1  0
 32  6  1  0
 23 18  1  0
 29 24  1  0
  1 33  1  0
  1 34  1  0
  1 35  1  0
  4 36  1  0
  5 37  1  0
  8 38  1  0
 17 39  1  0
 19 40  1  0
 21 41  1  0
 22 42  1  0
 25 43  1  0
 25 44  1  0
 26 45  1  0
 26 46  1  0
 27 47  1  0
 28 48  1  0
 28 49  1  0
 29 50  1  0
 29 51  1  0
 30 52  1  0
 32 53  1  0
 32 54  1  0
M  END
$$$$
