
     RDKit          3D

 74 79  0  0  0  0  0  0  0  0999 V2000
   -5.6038    2.9117    1.3939 C   0  0  0  0  0  0  0  0  0  0  0  0
   -6.7955    2.5475    0.6639 N   0  0  0  0  0  0  0  0  0  0  0  0
   -8.0498    3.1617    1.0365 C   0  0  0  0  0  0  0  0  0  0  0  0
   -6.6845    1.6009   -0.3940 C   0  0  0  0  0  0  0  0  0  0  0  0
   -7.7210    1.2953   -1.0079 O   0  0  0  0  0  0  0  0  0  0  0  0
   -5.3520    1.0517   -0.6854 C   0  0  0  0  0  0  0  0  0  0  0  0
   -4.2426    1.8128   -1.0797 C   0  0  0  0  0  0  0  0  0  0  0  0
   -3.2129    0.9559   -1.2350 C   0  0  0  0  0  0  0  0  0  0  0  0
   -1.8868    1.1781   -1.6056 C   0  0  0  0  0  0  0  0  0  0  0  0
   -1.0963    0.0971   -1.6619 N   0  0  0  0  0  0  0  0  0  0  0  0
   -1.5165   -1.1472   -1.3846 C   0  0  0  0  0  0  0  0  0  0  0  0
   -0.6573   -2.2666   -1.4338 N   0  0  0  0  0  0  0  0  0  0  0  0
    0.6512   -2.1709   -0.8927 C   0  0  0  0  0  0  0  0  0  0  0  0
    1.1352   -1.0611   -0.2388 C   0  0  0  0  0  0  0  0  0  0  0  0
    2.4376   -0.9964    0.2648 C   0  0  0  0  0  0  0  0  0  0  0  0
    3.2690   -2.0701    0.1067 C   0  0  0  0  0  0  0  0  0  0  0  0
    4.6596   -2.0571    0.6069 C   0  0  0  0  0  0  0  0  0  0  0  0
    4.9679   -2.9678    1.4122 O   0  0  0  0  0  0  0  0  0  0  0  0
    5.5746   -1.0587    0.1829 N   0  0  0  0  0  0  0  0  0  0  0  0
    5.2327    0.0060   -0.7465 C   0  0  0  0  0  0  0  0  0  0  0  0
    5.5273    1.3681   -0.1452 C   0  0  0  0  0  0  0  0  0  0  0  0
    5.9307    1.1202    1.3161 C   0  0  0  0  0  0  0  0  0  0  0  0
    7.2490    0.3605    1.1018 C   0  0  0  0  0  0  0  0  0  0  0  0
    6.9342   -1.0718    0.6834 C   0  0  0  0  0  0  0  0  0  0  0  0
    7.8350    1.0290   -0.0131 N   0  0  0  0  0  0  0  0  0  0  0  0
    9.1198    1.5304    0.2482 C   0  0  0  0  0  0  0  0  0  0  0  0
   10.1501    0.4225    0.4100 C   0  0  0  0  0  0  0  0  0  0  0  0
   10.1697   -0.2914   -0.7797 F   0  0  0  0  0  0  0  0  0  0  0  0
   11.4031    0.9954    0.5399 F   0  0  0  0  0  0  0  0  0  0  0  0
    9.8532   -0.4498    1.4152 F   0  0  0  0  0  0  0  0  0  0  0  0
    6.8880    1.8725   -0.6535 C   0  0  0  0  0  0  0  0  0  0  0  0
    2.7736   -3.1806   -0.5497 C   0  0  0  0  0  0  0  0  0  0  0  0
    1.5178   -3.2186   -1.0249 N   0  0  0  0  0  0  0  0  0  0  0  0
   -2.8078   -1.3266   -1.0294 N   0  0  0  0  0  0  0  0  0  0  0  0
   -3.6821   -0.2891   -0.9453 C   0  0  0  0  0  0  0  0  0  0  0  0
   -5.0052   -0.2418   -0.6036 N   0  0  0  0  0  0  0  0  0  0  0  0
   -5.7848   -1.3891   -0.2413 C   0  0  0  0  0  0  0  0  0  0  0  0
   -6.6243   -1.2383    0.9817 C   0  0  0  0  0  0  0  0  0  0  0  0
   -7.8480   -2.1075    0.7896 C   0  0  0  0  0  0  0  0  0  0  0  0
   -7.9454   -2.3807   -0.6920 C   0  0  0  0  0  0  0  0  0  0  0  0
   -6.6865   -1.8987   -1.3424 C   0  0  0  0  0  0  0  0  0  0  0  0
   -5.0907    3.7752    0.9410 H   0  0  0  0  0  0  0  0  0  0  0  0
   -4.8485    2.0843    1.3966 H   0  0  0  0  0  0  0  0  0  0  0  0
   -5.7850    3.1359    2.4565 H   0  0  0  0  0  0  0  0  0  0  0  0
   -8.0203    4.2150    0.6342 H   0  0  0  0  0  0  0  0  0  0  0  0
   -8.0800    3.2824    2.1455 H   0  0  0  0  0  0  0  0  0  0  0  0
   -8.9184    2.6657    0.6068 H   0  0  0  0  0  0  0  0  0  0  0  0
   -4.2731    2.8980   -1.2154 H   0  0  0  0  0  0  0  0  0  0  0  0
   -1.5809    2.1785   -1.8203 H   0  0  0  0  0  0  0  0  0  0  0  0
   -0.9654   -3.1702   -1.8616 H   0  0  0  0  0  0  0  0  0  0  0  0
    0.5150   -0.1922   -0.0820 H   0  0  0  0  0  0  0  0  0  0  0  0
    2.7965   -0.1138    0.7767 H   0  0  0  0  0  0  0  0  0  0  0  0
    4.2084   -0.0709   -1.1475 H   0  0  0  0  0  0  0  0  0  0  0  0
    5.9284   -0.0795   -1.6408 H   0  0  0  0  0  0  0  0  0  0  0  0
    4.7475    2.1052   -0.2634 H   0  0  0  0  0  0  0  0  0  0  0  0
    6.1798    2.0701    1.8204 H   0  0  0  0  0  0  0  0  0  0  0  0
    5.1791    0.5081    1.8228 H   0  0  0  0  0  0  0  0  0  0  0  0
    7.8554    0.3983    2.0346 H   0  0  0  0  0  0  0  0  0  0  0  0
    7.0516   -1.7781    1.5155 H   0  0  0  0  0  0  0  0  0  0  0  0
    7.6479   -1.4227   -0.1208 H   0  0  0  0  0  0  0  0  0  0  0  0
    9.4859    2.1622   -0.5892 H   0  0  0  0  0  0  0  0  0  0  0  0
    9.1812    2.1242    1.2069 H   0  0  0  0  0  0  0  0  0  0  0  0
    6.9435    1.7955   -1.7531 H   0  0  0  0  0  0  0  0  0  0  0  0
    6.9693    2.9376   -0.3577 H   0  0  0  0  0  0  0  0  0  0  0  0
    3.4503   -4.0345   -0.6636 H   0  0  0  0  0  0  0  0  0  0  0  0
   -5.0854   -2.2525   -0.0138 H   0  0  0  0  0  0  0  0  0  0  0  0
   -6.8910   -0.1957    1.2440 H   0  0  0  0  0  0  0  0  0  0  0  0
   -6.1191   -1.6251    1.9186 H   0  0  0  0  0  0  0  0  0  0  0  0
   -8.7446   -1.5351    1.0860 H   0  0  0  0  0  0  0  0  0  0  0  0
   -7.8163   -3.0502    1.3469 H   0  0  0  0  0  0  0  0  0  0  0  0
   -8.7872   -1.8387   -1.1665 H   0  0  0  0  0  0  0  0  0  0  0  0
   -8.1463   -3.4677   -0.8624 H   0  0  0  0  0  0  0  0  0  0  0  0
   -6.2422   -2.7962   -1.8666 H   0  0  0  0  0  0  0  0  0  0  0  0
   -6.8214   -1.1507   -2.1300 H   0  0  0  0  0  0  0  0  0  0  0  0
  1  2  1  0
  2  3  1  0
  2  4  1  0
  4  5  2  0
  4  6  1  0
  6  7  2  0
  7  8  1  0
  8  9  2  0
  9 10  1  0
 10 11  2  0
 11 12  1  0
 12 13  1  0
 13 14  2  0
 14 15  1  0
 15 16  2  0
 16 17  1  0
 17 18  2  0
 17 19  1  0
 19 20  1  0
 20 21  1  0
 21 22  1  0
 22 23  1  0
 23 24  1  0
 23 25  1  0
 25 26  1  0
 26 27  1  0
 27 28  1  0
 27 29  1  0
 27 30  1  0
 25 31  1  0
 16 32  1  0
 32 33  2  0
 11 34  1  0
 34 35  2  0
 35 36  1  0
 36 37  1  0
 37 38  1  0
 38 39  1  0
 39 40  1  0
 40 41  1  0
 36  6  1  0
 41 37  1  0
 35  8  1  0
 33 13  1  0
 24 19  1  0
 31 21  1  0
  1 42  1  0
  1 43  1  0
  1 44  1  0
  3 45  1  0
  3 46  1  0
  3 47  1  0
  7 48  1  0
  9 49  1  0
 12 50  1  0
 14 51  1  0
 15 52  1  0
 20 53  1  0
 20 54  1  0
 21 55  1  0
 22 56  1  0
 22 57  1  0
 23 58  1  0
 24 59  1  0
 24 60  1  0
 26 61  1  0
 26 62  1  0
 31 63  1  0
 31 64  1  0
 32 65  1  0
 37 66  1  0
 38 67  1  0
 38 68  1  0
 39 69  1  0
 39 70  1  0
 40 71  1  0
 40 72  1  0
 41 73  1  0
 41 74  1  0
M  END
$$$$
