
     RDKit          3D

 76 80  0  0  0  0  0  0  0  0999 V2000
   -9.4693   -0.9213    2.7632 C   0  0  0  0  0  0  0  0  0  0  0  0
   -8.6025   -0.3532    1.6969 C   0  0  0  0  0  0  0  0  0  0  0  0
   -8.7663   -0.6767    0.3665 C   0  0  0  0  0  0  0  0  0  0  0  0
   -7.9567   -0.1442   -0.6143 C   0  0  0  0  0  0  0  0  0  0  0  0
   -6.9352    0.7456   -0.3094 C   0  0  0  0  0  0  0  0  0  0  0  0
   -5.9340    1.4002   -1.5780 S   0  0  0  0  0  6  0  0  0  0  0  0
   -6.7503    1.4965   -2.8195 O   0  0  0  0  0  0  0  0  0  0  0  0
   -5.4144    2.7580   -1.2014 O   0  0  0  0  0  0  0  0  0  0  0  0
   -4.5694    0.3993   -1.9190 N   0  0  0  0  0  0  0  0  0  0  0  0
   -5.0685   -0.8766   -2.3655 C   0  0  0  0  0  0  0  0  0  0  0  0
   -3.9993   -1.9363   -2.5053 C   0  0  0  0  0  0  0  0  0  0  0  0
   -3.5430   -2.2194   -1.1389 N   0  0  0  0  0  0  0  0  0  0  0  0
   -3.6523   -1.0934   -0.2417 C   0  0  0  0  0  0  0  0  0  0  0  0
   -3.7021   -1.2964    0.9788 O   0  0  0  0  0  0  0  0  0  0  0  0
   -3.7057    0.2915   -0.7607 C   0  0  1  0  0  0  0  0  0  0  0  0
   -2.3622    0.8346   -1.1768 C   0  0  0  0  0  0  0  0  0  0  0  0
   -1.3662    0.7982   -0.0983 C   0  0  0  0  0  0  0  0  0  0  0  0
   -1.6848    0.3481    1.0255 O   0  0  0  0  0  0  0  0  0  0  0  0
   -0.0591    1.2633   -0.3134 N   0  0  0  0  0  0  0  0  0  0  0  0
    0.9555    1.2494    0.7118 C   0  0  2  0  0  0  0  0  0  0  0  0
    1.2931    2.6693    1.1071 C   0  0  0  0  0  0  0  0  0  0  0  0
    2.2867    3.3294    0.2167 C   0  0  0  0  0  0  0  0  0  0  0  0
    2.8875    2.4577   -0.8330 C   0  0  0  0  0  0  0  0  0  0  0  0
    3.1153    1.0616   -0.3989 C   0  0  0  0  0  0  0  0  0  0  0  0
    4.2485    0.3486   -0.7352 C   0  0  0  0  0  0  0  0  0  0  0  0
    4.4374   -0.9501   -0.3178 C   0  0  0  0  0  0  0  0  0  0  0  0
    5.6490   -1.7378   -0.6608 C   0  0  0  0  0  0  0  0  0  0  0  0
    6.6269   -1.5634    0.3899 N   0  0  0  0  0  0  0  0  0  0  0  0
    7.8233   -2.3181    0.1750 C   0  0  0  0  0  0  0  0  0  0  0  0
    8.9305   -1.3965   -0.2539 C   0  0  0  0  0  0  0  0  0  0  0  0
    9.3142   -0.5069    0.9035 C   0  0  0  0  0  0  0  0  0  0  0  0
    8.0630    0.0141    1.5443 C   0  0  0  0  0  0  0  0  0  0  0  0
    6.8815   -0.1689    0.5905 C   0  0  0  0  0  0  0  0  0  0  0  0
    3.4667   -1.5773    0.4669 C   0  0  0  0  0  0  0  0  0  0  0  0
    2.3507   -0.8422    0.7848 C   0  0  0  0  0  0  0  0  0  0  0  0
    2.1430    0.4597    0.3765 C   0  0  0  0  0  0  0  0  0  0  0  0
   -6.7678    1.0721    1.0197 C   0  0  0  0  0  0  0  0  0  0  0  0
   -7.5881    0.5305    2.0001 C   0  0  0  0  0  0  0  0  0  0  0  0
   -9.8718   -1.8962    2.3834 H   0  0  0  0  0  0  0  0  0  0  0  0
  -10.3311   -0.2670    2.9999 H   0  0  0  0  0  0  0  0  0  0  0  0
   -8.8303   -1.1481    3.6274 H   0  0  0  0  0  0  0  0  0  0  0  0
   -9.5751   -1.3799    0.1326 H   0  0  0  0  0  0  0  0  0  0  0  0
   -8.1103   -0.4175   -1.6509 H   0  0  0  0  0  0  0  0  0  0  0  0
   -5.8438   -1.2928   -1.7029 H   0  0  0  0  0  0  0  0  0  0  0  0
   -5.5275   -0.7283   -3.3634 H   0  0  0  0  0  0  0  0  0  0  0  0
   -3.1245   -1.6222   -3.0736 H   0  0  0  0  0  0  0  0  0  0  0  0
   -4.5112   -2.8420   -2.8983 H   0  0  0  0  0  0  0  0  0  0  0  0
   -3.1846   -3.1364   -0.8655 H   0  0  0  0  0  0  0  0  0  0  0  0
   -4.1002    0.9406    0.0423 H   0  0  0  0  0  0  0  0  0  0  0  0
   -2.5400    1.9214   -1.4177 H   0  0  0  0  0  0  0  0  0  0  0  0
   -1.9776    0.3271   -2.0868 H   0  0  0  0  0  0  0  0  0  0  0  0
    0.1673    1.6314   -1.2654 H   0  0  0  0  0  0  0  0  0  0  0  0
    0.4839    0.7886    1.6272 H   0  0  0  0  0  0  0  0  0  0  0  0
    0.3301    3.2437    1.0787 H   0  0  0  0  0  0  0  0  0  0  0  0
    1.6211    2.6625    2.1704 H   0  0  0  0  0  0  0  0  0  0  0  0
    3.1057    3.7533    0.8375 H   0  0  0  0  0  0  0  0  0  0  0  0
    1.8404    4.2197   -0.3108 H   0  0  0  0  0  0  0  0  0  0  0  0
    2.3298    2.5243   -1.7923 H   0  0  0  0  0  0  0  0  0  0  0  0
    3.9112    2.8711   -1.0739 H   0  0  0  0  0  0  0  0  0  0  0  0
    4.9851    0.8508   -1.3464 H   0  0  0  0  0  0  0  0  0  0  0  0
    5.3580   -2.8067   -0.6755 H   0  0  0  0  0  0  0  0  0  0  0  0
    6.0614   -1.4254   -1.6533 H   0  0  0  0  0  0  0  0  0  0  0  0
    8.1028   -2.8140    1.1380 H   0  0  0  0  0  0  0  0  0  0  0  0
    7.6439   -3.1158   -0.5927 H   0  0  0  0  0  0  0  0  0  0  0  0
    8.5757   -0.7696   -1.1117 H   0  0  0  0  0  0  0  0  0  0  0  0
    9.8186   -2.0024   -0.5852 H   0  0  0  0  0  0  0  0  0  0  0  0
    9.9811    0.3363    0.5627 H   0  0  0  0  0  0  0  0  0  0  0  0
    9.8690   -1.1619    1.6357 H   0  0  0  0  0  0  0  0  0  0  0  0
    7.8100   -0.5754    2.4480 H   0  0  0  0  0  0  0  0  0  0  0  0
    8.1209    1.0826    1.7804 H   0  0  0  0  0  0  0  0  0  0  0  0
    7.0917    0.3777   -0.3609 H   0  0  0  0  0  0  0  0  0  0  0  0
    5.9953    0.2733    1.1011 H   0  0  0  0  0  0  0  0  0  0  0  0
    3.5943   -2.6107    0.8112 H   0  0  0  0  0  0  0  0  0  0  0  0
    1.5695   -1.3085    1.3996 H   0  0  0  0  0  0  0  0  0  0  0  0
   -5.9717    1.7707    1.2785 H   0  0  0  0  0  0  0  0  0  0  0  0
   -7.4427    0.7968    3.0312 H   0  0  0  0  0  0  0  0  0  0  0  0
  1  2  1  0
  2  3  2  0
  3  4  1  0
  4  5  2  0
  5  6  1  0
  6  7  2  0
  6  8  2  0
  6  9  1  0
  9 10  1  0
 10 11  1  0
 11 12  1  0
 12 13  1  0
 13 14  2  0
 13 15  1  0
 15 16  1  0
 16 17  1  0
 17 18  2  0
 17 19  1  0
 19 20  1  0
 20 21  1  0
 21 22  1  0
 22 23  1  0
 23 24  1  0
 24 25  2  0
 25 26  1  0
 26 27  1  0
 27 28  1  0
 28 29  1  0
 29 30  1  0
 30 31  1  0
 31 32  1  0
 32 33  1  0
 26 34  2  0
 34 35  1  0
 35 36  2  0
  5 37  1  0
 37 38  2  0
 38  2  1  0
 15  9  1  0
 36 20  1  0
 36 24  1  0
 33 28  1  0
  1 39  1  0
  1 40  1  0
  1 41  1  0
  3 42  1  0
  4 43  1  0
 10 44  1  0
 10 45  1  0
 11 46  1  0
 11 47  1  0
 12 48  1  0
 15 49  1  1
 16 50  1  0
 16 51  1  0
 19 52  1  0
 20 53  1  1
 21 54  1  0
 21 55  1  0
 22 56  1  0
 22 57  1  0
 23 58  1  0
 23 59  1  0
 25 60  1  0
 27 61  1  0
 27 62  1  0
 29 63  1  0
 29 64  1  0
 30 65  1  0
 30 66  1  0
 31 67  1  0
 31 68  1  0
 32 69  1  0
 32 70  1  0
 33 71  1  0
 33 72  1  0
 34 73  1  0
 35 74  1  0
 37 75  1  0
 38 76  1  0
M  END
$$$$
