
     RDKit          3D

 48 51  0  0  0  0  0  0  0  0999 V2000
    7.6876   -1.1647   -0.7329 C   0  0  0  0  0  0  0  0  0  0  0  0
    6.7886   -1.5000    0.2848 O   0  0  0  0  0  0  0  0  0  0  0  0
    5.4429   -1.1646    0.1943 C   0  0  0  0  0  0  0  0  0  0  0  0
    4.5888   -1.5129    1.2264 C   0  0  0  0  0  0  0  0  0  0  0  0
    3.2629   -1.1904    1.1559 C   0  0  0  0  0  0  0  0  0  0  0  0
    2.7049   -0.5175    0.0850 C   0  0  0  0  0  0  0  0  0  0  0  0
    1.2951   -0.1617    0.0387 C   0  0  0  0  0  0  0  0  0  0  0  0
    0.4927   -1.2180   -0.5535 N   0  0  0  0  0  0  0  0  0  0  0  0
   -0.7585   -1.0040   -0.7802 N   0  0  0  0  0  0  0  0  0  0  0  0
   -1.3056    0.2903   -0.4307 C   0  0  0  0  0  0  0  0  0  0  0  0
   -1.2280    1.3001   -1.3507 N   0  0  0  0  0  0  0  0  0  0  0  0
   -1.6988    2.5256   -1.0208 C   0  0  0  0  0  0  0  0  0  0  0  0
   -1.6304    3.5704   -1.9332 C   0  0  0  0  0  0  0  0  0  0  0  0
   -2.0983    4.8281   -1.6237 C   0  0  0  0  0  0  0  0  0  0  0  0
   -2.6373    4.9980   -0.3658 C   0  0  0  0  0  0  0  0  0  0  0  0
   -2.7096    3.9674    0.5457 C   0  0  0  0  0  0  0  0  0  0  0  0
   -2.2360    2.6955    0.2328 C   0  0  0  0  0  0  0  0  0  0  0  0
   -2.3147    1.6926    1.1476 N   0  0  0  0  0  0  0  0  0  0  0  0
   -1.8380    0.4508    0.8139 C   0  0  0  0  0  0  0  0  0  0  0  0
   -1.9350   -0.6696    1.7850 C   0  0  0  0  0  0  0  0  0  0  0  0
   -3.0698   -1.5743    1.5480 C   0  0  0  0  0  0  0  0  0  0  0  0
   -3.0019   -2.7472    0.8541 C   0  0  0  0  0  0  0  0  0  0  0  0
   -4.1230   -3.5551    0.6585 C   0  0  0  0  0  0  0  0  0  0  0  0
   -5.3263   -3.1800    1.1670 C   0  0  0  0  0  0  0  0  0  0  0  0
   -5.4357   -1.9933    1.8796 C   0  0  0  0  0  0  0  0  0  0  0  0
   -4.3142   -1.2060    2.0628 C   0  0  0  0  0  0  0  0  0  0  0  0
    3.5428   -0.1646   -0.9509 C   0  0  0  0  0  0  0  0  0  0  0  0
    4.9012   -0.4933   -0.8818 C   0  0  0  0  0  0  0  0  0  0  0  0
    7.7027   -1.8759   -1.5842 H   0  0  0  0  0  0  0  0  0  0  0  0
    7.5572   -0.1023   -1.0940 H   0  0  0  0  0  0  0  0  0  0  0  0
    8.7322   -1.1950   -0.3011 H   0  0  0  0  0  0  0  0  0  0  0  0
    4.9850   -2.0412    2.0862 H   0  0  0  0  0  0  0  0  0  0  0  0
    2.5532   -1.4489    1.9532 H   0  0  0  0  0  0  0  0  0  0  0  0
    0.9271    0.1101    1.0587 H   0  0  0  0  0  0  0  0  0  0  0  0
    1.0922    0.7432   -0.6003 H   0  0  0  0  0  0  0  0  0  0  0  0
   -1.2044    3.4092   -2.9150 H   0  0  0  0  0  0  0  0  0  0  0  0
   -2.0527    5.6579   -2.3205 H   0  0  0  0  0  0  0  0  0  0  0  0
   -3.0245    5.9846   -0.0673 H   0  0  0  0  0  0  0  0  0  0  0  0
   -3.1297    4.0845    1.5373 H   0  0  0  0  0  0  0  0  0  0  0  0
   -0.9901   -1.2633    1.8105 H   0  0  0  0  0  0  0  0  0  0  0  0
   -2.0005   -0.2046    2.7948 H   0  0  0  0  0  0  0  0  0  0  0  0
   -2.0498   -3.0621    0.4540 H   0  0  0  0  0  0  0  0  0  0  0  0
   -3.9666   -4.4630    0.0939 H   0  0  0  0  0  0  0  0  0  0  0  0
   -6.1786   -3.8184    1.0036 H   0  0  0  0  0  0  0  0  0  0  0  0
   -6.3805   -1.6885    2.2854 H   0  0  0  0  0  0  0  0  0  0  0  0
   -4.4032   -0.2823    2.6200 H   0  0  0  0  0  0  0  0  0  0  0  0
    3.2271    0.3609   -1.8421 H   0  0  0  0  0  0  0  0  0  0  0  0
    5.5575   -0.2064   -1.7073 H   0  0  0  0  0  0  0  0  0  0  0  0
  1  2  1  0
  2  3  1  0
  3  4  2  0
  4  5  1  0
  5  6  2  0
  6  7  1  0
  7  8  1  0
  8  9  2  3
  9 10  1  0
 10 11  2  0
 11 12  1  0
 12 13  2  0
 13 14  1  0
 14 15  2  0
 15 16  1  0
 16 17  2  0
 17 18  1  0
 18 19  2  0
 19 20  1  0
 20 21  1  0
 21 22  2  0
 22 23  1  0
 23 24  2  0
 24 25  1  0
 25 26  2  0
  6 27  1  0
 27 28  2  0
 28  3  1  0
 19 10  1  0
 26 21  1  0
 17 12  1  0
  1 29  1  0
  1 30  1  0
  1 31  1  0
  4 32  1  0
  5 33  1  0
  7 34  1  0
  7 35  1  0
 13 36  1  0
 14 37  1  0
 15 38  1  0
 16 39  1  0
 20 40  1  0
 20 41  1  0
 22 42  1  0
 23 43  1  0
 24 44  1  0
 25 45  1  0
 26 46  1  0
 27 47  1  0
 28 48  1  0
M  END
$$$$
