
     RDKit          3D

 48 52  0  0  0  0  0  0  0  0999 V2000
    2.9001    1.4719    0.6938 C   0  0  0  0  0  0  0  0  0  0  0  0
    1.8307    0.9335    0.5668 C   0  0  0  0  0  0  0  0  0  0  0  0
    0.5271    0.2899    0.4283 C   0  0  0  0  0  0  0  0  0  0  0  0
   -0.5232    0.6518    1.2369 C   0  0  0  0  0  0  0  0  0  0  0  0
   -1.7002    0.0374    1.0789 N   0  0  0  0  0  0  0  0  0  0  0  0
   -1.9323   -0.9228    0.1723 C   0  0  0  0  0  0  0  0  0  0  0  0
   -3.0386   -1.6892   -0.1726 C   0  0  0  0  0  0  0  0  0  0  0  0
   -4.3627   -1.6239    0.4390 C   0  0  0  0  0  0  0  0  0  0  0  0
   -4.7109   -2.4011    1.5267 C   0  0  0  0  0  0  0  0  0  0  0  0
   -5.9561   -2.3545    2.1195 C   0  0  0  0  0  0  0  0  0  0  0  0
   -6.8551   -1.4942    1.5832 N   0  0  0  0  0  0  0  0  0  0  0  0
   -6.5693   -0.7139    0.5243 C   0  0  0  0  0  0  0  0  0  0  0  0
   -7.5352    0.1379    0.0326 C   0  0  0  0  0  0  0  0  0  0  0  0
   -7.2454    0.9426   -1.0569 C   0  0  0  0  0  0  0  0  0  0  0  0
   -6.0052    0.9058   -1.6586 C   0  0  0  0  0  0  0  0  0  0  0  0
   -5.0353    0.0448   -1.1582 C   0  0  0  0  0  0  0  0  0  0  0  0
   -5.3180   -0.7590   -0.0734 C   0  0  0  0  0  0  0  0  0  0  0  0
   -2.5995   -2.5034   -1.2019 C   0  0  0  0  0  0  0  0  0  0  0  0
   -1.3199   -2.2265   -1.4386 N   0  0  0  0  0  0  0  0  0  0  0  0
   -0.8890   -1.2644   -0.6123 N   0  0  0  0  0  0  0  0  0  0  0  0
    0.3211   -0.6916   -0.5112 C   0  0  0  0  0  0  0  0  0  0  0  0
    4.2086    2.1448    0.8274 C   0  0  0  0  0  0  0  0  0  0  0  0
    4.9342    1.9392   -0.4032 N   0  0  0  0  0  0  0  0  0  0  0  0
    6.2270    2.5437   -0.4106 C   0  0  0  0  0  0  0  0  0  0  0  0
    7.2710    1.4822   -0.6614 C   0  0  0  0  0  0  0  0  0  0  0  0
    7.1241    0.4678    0.3668 N   0  0  0  0  0  0  0  0  0  0  0  0
    5.9050   -0.2548    0.1027 C   0  0  0  0  0  0  0  0  0  0  0  0
    4.9207    0.5441   -0.7198 C   0  0  0  0  0  0  0  0  0  0  0  0
   -0.3779    1.4145    1.9731 H   0  0  0  0  0  0  0  0  0  0  0  0
   -3.9565   -3.0725    1.9177 H   0  0  0  0  0  0  0  0  0  0  0  0
   -6.1818   -2.9821    2.9693 H   0  0  0  0  0  0  0  0  0  0  0  0
   -8.4929    0.1573    0.5080 H   0  0  0  0  0  0  0  0  0  0  0  0
   -8.0150    1.6008   -1.4247 H   0  0  0  0  0  0  0  0  0  0  0  0
   -5.7454    1.5274   -2.5190 H   0  0  0  0  0  0  0  0  0  0  0  0
   -4.0465   -0.0312   -1.5835 H   0  0  0  0  0  0  0  0  0  0  0  0
   -3.2647   -3.2208   -1.6769 H   0  0  0  0  0  0  0  0  0  0  0  0
    1.1301   -0.9819   -1.1460 H   0  0  0  0  0  0  0  0  0  0  0  0
    4.7530    1.6244    1.6402 H   0  0  0  0  0  0  0  0  0  0  0  0
    4.0298    3.2141    1.0521 H   0  0  0  0  0  0  0  0  0  0  0  0
    6.3197    3.3183   -1.2141 H   0  0  0  0  0  0  0  0  0  0  0  0
    6.4006    3.0606    0.5729 H   0  0  0  0  0  0  0  0  0  0  0  0
    7.0790    1.0511   -1.6451 H   0  0  0  0  0  0  0  0  0  0  0  0
    8.2988    1.8989   -0.6671 H   0  0  0  0  0  0  0  0  0  0  0  0
    7.0329    0.9560    1.2797 H   0  0  0  0  0  0  0  0  0  0  0  0
    5.4173   -0.5464    1.0786 H   0  0  0  0  0  0  0  0  0  0  0  0
    6.0770   -1.2158   -0.4245 H   0  0  0  0  0  0  0  0  0  0  0  0
    5.0583    0.3539   -1.8222 H   0  0  0  0  0  0  0  0  0  0  0  0
    3.9108    0.1452   -0.4891 H   0  0  0  0  0  0  0  0  0  0  0  0
  1  2  3  0
  2  3  1  0
  3  4  1  0
  4  5  2  0
  5  6  1  0
  6  7  2  0
  7  8  1  0
  8  9  2  0
  9 10  1  0
 10 11  2  0
 11 12  1  0
 12 13  2  0
 13 14  1  0
 14 15  2  0
 15 16  1  0
 16 17  2  0
  7 18  1  0
 18 19  2  0
 19 20  1  0
 20 21  1  0
  1 22  1  0
 22 23  1  0
 23 24  1  0
 24 25  1  0
 25 26  1  0
 26 27  1  0
 27 28  1  0
 21  3  2  0
 28 23  1  0
 20  6  1  0
 17  8  1  0
 17 12  1  0
  4 29  1  0
  9 30  1  0
 10 31  1  0
 13 32  1  0
 14 33  1  0
 15 34  1  0
 16 35  1  0
 18 36  1  0
 21 37  1  0
 22 38  1  0
 22 39  1  0
 24 40  1  0
 24 41  1  0
 25 42  1  0
 25 43  1  0
 26 44  1  0
 27 45  1  0
 27 46  1  0
 28 47  1  0
 28 48  1  0
M  END
$$$$
