
     RDKit          3D

 43 46  0  0  0  0  0  0  0  0999 V2000
    6.8870   -1.0423   -0.1357 N   0  0  0  0  0  0  0  0  0  0  0  0
    6.3574    0.0035    0.6887 C   0  0  0  0  0  0  0  0  0  0  0  0
    7.3387    0.6809    1.1832 N   0  0  0  0  0  4  0  0  0  0  0  0
    4.9183    0.1550    0.8488 C   0  0  0  0  0  0  0  0  0  0  0  0
    4.0799   -0.2229   -0.1769 C   0  0  0  0  0  0  0  0  0  0  0  0
    2.7199   -0.0678    0.0028 C   0  0  0  0  0  0  0  0  0  0  0  0
    2.1335    0.4337    1.1234 C   0  0  0  0  0  0  0  0  0  0  0  0
    0.8097    0.4254    0.9162 N   0  0  0  0  0  0  0  0  0  0  0  0
    0.4771   -0.0583   -0.2920 C   0  0  0  0  0  0  0  0  0  0  0  0
    1.6920   -0.3686   -0.8645 C   0  0  0  0  0  0  0  0  0  0  0  0
   -0.7975   -0.2562   -0.9473 C   0  0  0  0  0  0  0  0  0  0  0  0
   -0.8895   -0.7833   -2.2255 C   0  0  0  0  0  0  0  0  0  0  0  0
   -2.0891   -0.9822   -2.8727 C   0  0  0  0  0  0  0  0  0  0  0  0
   -3.2790   -0.6556   -2.2575 C   0  0  0  0  0  0  0  0  0  0  0  0
   -3.2436   -0.1270   -0.9839 C   0  0  0  0  0  0  0  0  0  0  0  0
   -2.0153    0.0516   -0.3812 C   0  0  0  0  0  0  0  0  0  0  0  0
   -2.0669    0.5835    0.8880 O   0  0  0  0  0  0  0  0  0  0  0  0
   -4.4995    0.2209   -0.3267 C   0  0  0  0  0  0  0  0  0  0  0  0
   -4.8924   -0.0450    0.9692 C   0  0  0  0  0  0  0  0  0  0  0  0
   -6.1359    0.3741    1.4029 C   0  0  0  0  0  0  0  0  0  0  0  0
   -7.0226    1.0569    0.5951 C   0  0  0  0  0  0  0  0  0  0  0  0
   -6.6512    1.3313   -0.6968 C   0  0  0  0  0  0  0  0  0  0  0  0
   -5.4091    0.9138   -1.1335 C   0  0  0  0  0  0  0  0  0  0  0  0
    2.9652    0.8141    2.1542 C   0  0  0  0  0  0  0  0  0  0  0  0
    4.3472    0.6666    1.9958 C   0  0  0  0  0  0  0  0  0  0  0  0
    5.3977    1.1554    3.3176 Cl  0  0  0  0  0  0  0  0  0  0  0  0
    7.2763   -2.0060   -0.0804 H   0  0  0  0  0  0  0  0  0  0  0  0
    6.8320   -0.6210   -1.1097 H   0  0  0  0  0  0  0  0  0  0  0  0
    7.5591    1.5024    1.8118 H   0  0  0  0  0  0  0  0  0  0  0  0
    7.7136    1.4592    1.7738 H   0  0  0  0  0  0  0  0  0  0  0  0
    4.5038   -0.6288   -1.0910 H   0  0  0  0  0  0  0  0  0  0  0  0
    0.1256    0.7608    1.6243 H   0  0  0  0  0  0  0  0  0  0  0  0
    1.8204   -0.7956   -1.8713 H   0  0  0  0  0  0  0  0  0  0  0  0
   -0.0021   -1.0595   -2.7627 H   0  0  0  0  0  0  0  0  0  0  0  0
   -2.1074   -1.3972   -3.8712 H   0  0  0  0  0  0  0  0  0  0  0  0
   -4.2253   -0.8063   -2.7532 H   0  0  0  0  0  0  0  0  0  0  0  0
   -2.1014    1.5908    1.0762 H   0  0  0  0  0  0  0  0  0  0  0  0
   -4.1634   -0.5762    1.5458 H   0  0  0  0  0  0  0  0  0  0  0  0
   -6.3882    0.1363    2.4303 H   0  0  0  0  0  0  0  0  0  0  0  0
   -7.9938    1.3792    0.9483 H   0  0  0  0  0  0  0  0  0  0  0  0
   -7.3271    1.8658   -1.3535 H   0  0  0  0  0  0  0  0  0  0  0  0
   -5.1788    1.1637   -2.1668 H   0  0  0  0  0  0  0  0  0  0  0  0
    2.5247    1.2165    3.0576 H   0  0  0  0  0  0  0  0  0  0  0  0
  1  2  1  0
  2  3  2  0
  2  4  1  0
  4  5  2  0
  5  6  1  0
  6  7  2  0
  7  8  1  0
  8  9  1  0
  9 10  2  0
  9 11  1  0
 11 12  2  0
 12 13  1  0
 13 14  2  0
 14 15  1  0
 15 16  2  0
 16 17  1  0
 15 18  1  0
 18 19  2  0
 19 20  1  0
 20 21  2  0
 21 22  1  0
 22 23  2  0
  7 24  1  0
 24 25  2  0
 25 26  1  0
 25  4  1  0
 10  6  1  0
 16 11  1  0
 23 18  1  0
  1 27  1  0
  1 28  1  0
  3 29  1  0
  3 30  1  0
  5 31  1  0
  8 32  1  0
 10 33  1  0
 12 34  1  0
 13 35  1  0
 14 36  1  0
 17 37  1  0
 19 38  1  0
 20 39  1  0
 21 40  1  0
 22 41  1  0
 23 42  1  0
 24 43  1  0
M  CHG  1   3   1
M  END
$$$$
