
     RDKit          3D

 58 61  0  0  0  0  0  0  0  0999 V2000
   -4.9945   -3.0090    0.5584 C   0  0  0  0  0  0  0  0  0  0  0  0
   -3.8321   -2.2989   -0.0349 C   0  0  0  0  0  0  0  0  0  0  0  0
   -3.3699   -0.6073    0.2552 S   0  0  0  0  0  0  0  0  0  0  0  0
   -1.8728   -0.7291   -0.8958 C   0  0  0  0  0  0  0  0  0  0  0  0
   -1.0456    0.4794   -1.0616 N   0  0  0  0  0  0  0  0  0  0  0  0
    0.0581    0.7266   -0.1957 C   0  0  2  0  0  0  0  0  0  0  0  0
    0.8347    1.9130   -0.7035 C   0  0  0  0  0  0  0  0  0  0  0  0
    0.1018    3.1697   -0.7759 C   0  0  0  0  0  0  0  0  0  0  0  0
    0.0676    3.9792    0.3652 C   0  0  0  0  0  0  0  0  0  0  0  0
   -0.6010    5.1856    0.3479 C   0  0  0  0  0  0  0  0  0  0  0  0
   -1.2495    5.6284   -0.7812 C   0  0  0  0  0  0  0  0  0  0  0  0
   -1.2239    4.8425   -1.9129 C   0  0  0  0  0  0  0  0  0  0  0  0
   -0.5466    3.6174   -1.9004 C   0  0  0  0  0  0  0  0  0  0  0  0
    0.9649   -0.4257   -0.0409 C   0  0  0  0  0  0  0  0  0  0  0  0
    0.5474   -1.5460    0.6416 C   0  0  0  0  0  0  0  0  0  0  0  0
    1.3614   -2.6528    0.8079 C   0  0  0  0  0  0  0  0  0  0  0  0
    0.9417   -3.7559    1.4833 F   0  0  0  0  0  0  0  0  0  0  0  0
    2.6337   -2.6593    0.2841 C   0  0  0  0  0  0  0  0  0  0  0  0
    3.0747   -1.5643   -0.3964 C   0  0  0  0  0  0  0  0  0  0  0  0
    4.3677   -1.5193   -0.9518 O   0  0  0  0  0  0  0  0  0  0  0  0
    5.2426   -2.6125   -0.8117 C   0  0  0  0  0  0  0  0  0  0  0  0
    5.4753   -2.8498    0.5299 F   0  0  0  0  0  0  0  0  0  0  0  0
    4.7249   -3.7530   -1.4318 F   0  0  0  0  0  0  0  0  0  0  0  0
    6.5376   -2.3007   -1.5132 C   0  0  0  0  0  0  0  0  0  0  0  0
    7.0890   -1.1797   -0.9406 F   0  0  0  0  0  0  0  0  0  0  0  0
    6.2428   -2.0399   -2.8347 F   0  0  0  0  0  0  0  0  0  0  0  0
    2.2410   -0.4679   -0.5498 C   0  0  0  0  0  0  0  0  0  0  0  0
   -0.4527    1.1681    1.1629 C   0  0  0  0  0  0  0  0  0  0  0  0
   -1.6341    1.8471    1.3171 C   0  0  0  0  0  0  0  0  0  0  0  0
   -2.0824    2.2269    2.5762 C   0  0  0  0  0  0  0  0  0  0  0  0
   -1.3306    1.9167    3.6713 C   0  0  0  0  0  0  0  0  0  0  0  0
   -1.8088    2.3513    5.3038 Cl  0  0  0  0  0  0  0  0  0  0  0  0
   -0.1476    1.2353    3.4974 C   0  0  0  0  0  0  0  0  0  0  0  0
    0.2630    0.8786    2.2599 N   0  0  0  0  0  0  0  0  0  0  0  0
   -1.9677   -1.8172   -1.2319 N   0  0  0  0  0  0  0  0  0  0  0  0
   -2.8477   -2.7395   -0.9263 C   0  0  0  0  0  0  0  0  0  0  0  0
   -2.8501   -4.1675   -1.4582 C   0  0  0  0  0  0  0  0  0  0  0  0
   -4.0203   -4.4213   -2.1441 F   0  0  0  0  0  0  0  0  0  0  0  0
   -2.8103   -5.0266   -0.3865 F   0  0  0  0  0  0  0  0  0  0  0  0
   -1.7827   -4.4212   -2.2542 F   0  0  0  0  0  0  0  0  0  0  0  0
   -5.9339   -2.8100    0.0031 H   0  0  0  0  0  0  0  0  0  0  0  0
   -4.7250   -4.0830    0.5860 H   0  0  0  0  0  0  0  0  0  0  0  0
   -5.0565   -2.6785    1.6184 H   0  0  0  0  0  0  0  0  0  0  0  0
   -1.3091    1.1319   -1.8335 H   0  0  0  0  0  0  0  0  0  0  0  0
    1.1654    1.6141   -1.7471 H   0  0  0  0  0  0  0  0  0  0  0  0
    1.7871    1.9875   -0.1276 H   0  0  0  0  0  0  0  0  0  0  0  0
    0.5876    3.6396    1.2645 H   0  0  0  0  0  0  0  0  0  0  0  0
   -0.6358    5.8217    1.2235 H   0  0  0  0  0  0  0  0  0  0  0  0
   -1.7846    6.5900   -0.8003 H   0  0  0  0  0  0  0  0  0  0  0  0
   -1.7221    5.1682   -2.8030 H   0  0  0  0  0  0  0  0  0  0  0  0
   -0.5625    3.0712   -2.8320 H   0  0  0  0  0  0  0  0  0  0  0  0
   -0.4393   -1.5788    1.0709 H   0  0  0  0  0  0  0  0  0  0  0  0
    3.2974   -3.5272    0.4025 H   0  0  0  0  0  0  0  0  0  0  0  0
    7.2052   -3.1896   -1.3987 H   0  0  0  0  0  0  0  0  0  0  0  0
    2.6314    0.3780   -1.0950 H   0  0  0  0  0  0  0  0  0  0  0  0
   -2.2222    2.1015    0.4624 H   0  0  0  0  0  0  0  0  0  0  0  0
   -3.0158    2.7634    2.7025 H   0  0  0  0  0  0  0  0  0  0  0  0
    0.4337    0.9988    4.3757 H   0  0  0  0  0  0  0  0  0  0  0  0
  1  2  1  0
  2  3  1  0
  3  4  1  0
  4  5  1  0
  6  5  1  6
  6  7  1  0
  7  8  1  0
  8  9  2  0
  9 10  1  0
 10 11  2  0
 11 12  1  0
 12 13  2  0
  6 14  1  0
 14 15  2  0
 15 16  1  0
 16 17  1  0
 16 18  2  0
 18 19  1  0
 19 20  1  0
 20 21  1  0
 21 22  1  0
 21 23  1  0
 21 24  1  0
 24 25  1  0
 24 26  1  0
 19 27  2  0
  6 28  1  0
 28 29  2  0
 29 30  1  0
 30 31  2  0
 31 32  1  0
 31 33  1  0
 33 34  2  0
  4 35  2  0
 35 36  1  0
 36 37  1  0
 37 38  1  0
 37 39  1  0
 37 40  1  0
 36  2  2  0
 13  8  1  0
 27 14  1  0
 34 28  1  0
  1 41  1  0
  1 42  1  0
  1 43  1  0
  5 44  1  0
  7 45  1  0
  7 46  1  0
  9 47  1  0
 10 48  1  0
 11 49  1  0
 12 50  1  0
 13 51  1  0
 15 52  1  0
 18 53  1  0
 24 54  1  0
 27 55  1  0
 29 56  1  0
 30 57  1  0
 33 58  1  0
M  END
$$$$
