
     RDKit          3D

 55 58  0  0  0  0  0  0  0  0999 V2000
   -8.1288    2.1816   -0.5070 O   0  0  0  0  0  0  0  0  0  0  0  0
   -8.8990    1.5526    0.2595 C   0  0  0  0  0  0  0  0  0  0  0  0
  -10.1281    2.1318    0.5446 O   0  0  0  0  0  0  0  0  0  0  0  0
   -8.4899    0.2462    0.8246 C   0  0  0  0  0  0  0  0  0  0  0  0
   -7.1299   -0.0779    0.3205 C   0  0  0  0  0  0  0  0  0  0  0  0
   -5.9899    0.2977    0.9861 C   0  0  0  0  0  0  0  0  0  0  0  0
   -4.7045    0.0148    0.5495 C   0  0  0  0  0  0  0  0  0  0  0  0
   -4.5311   -0.6849   -0.6216 C   0  0  0  0  0  0  0  0  0  0  0  0
   -3.2846   -0.9945   -1.1042 O   0  0  0  0  0  0  0  0  0  0  0  0
   -2.0399   -0.7145   -0.5952 C   0  0  0  0  0  0  0  0  0  0  0  0
   -1.2532   -1.9955   -0.2914 C   0  0  0  0  0  0  0  0  0  0  0  0
   -0.1134   -1.5520    0.5975 C   0  0  0  0  0  0  0  0  0  0  0  0
    0.7444   -0.6570   -0.1282 N   0  0  0  0  0  0  0  0  0  0  0  0
    2.1488   -0.7884    0.0101 C   0  0  0  0  0  0  0  0  0  0  0  0
    2.6490   -1.6976    0.7639 O   0  0  0  0  0  0  0  0  0  0  0  0
    3.0913    0.0421   -0.6470 N   0  0  0  0  0  0  0  0  0  0  0  0
    4.5075   -0.1687   -0.4445 C   0  0  1  0  0  0  0  0  0  0  0  0
    5.3088   -0.0222   -1.7395 C   0  0  0  0  0  0  0  0  0  0  0  0
    5.4622    0.9615   -0.6378 C   0  0  2  0  0  0  0  0  0  0  0  0
    6.7279    0.8512    0.1254 C   0  0  0  0  0  0  0  0  0  0  0  0
    7.3323    1.9977    0.5764 C   0  0  0  0  0  0  0  0  0  0  0  0
    8.5191    1.8911    1.2924 C   0  0  0  0  0  0  0  0  0  0  0  0
    9.0658    0.6460    1.5363 C   0  0  0  0  0  0  0  0  0  0  0  0
    8.4457   -0.4902    1.0763 C   0  0  0  0  0  0  0  0  0  0  0  0
    7.2743   -0.3790    0.3701 C   0  0  0  0  0  0  0  0  0  0  0  0
    0.2075    0.3559   -0.9783 C   0  0  0  0  0  0  0  0  0  0  0  0
   -1.1564    0.0708   -1.5430 C   0  0  0  0  0  0  0  0  0  0  0  0
   -5.6832   -1.0797   -1.3199 C   0  0  0  0  0  0  0  0  0  0  0  0
   -5.4542   -1.9709   -2.8112 Cl  0  0  0  0  0  0  0  0  0  0  0  0
   -6.9413   -0.7820   -0.8572 C   0  0  0  0  0  0  0  0  0  0  0  0
  -10.6535    2.6630   -0.1567 H   0  0  0  0  0  0  0  0  0  0  0  0
   -8.4224    0.3257    1.9300 H   0  0  0  0  0  0  0  0  0  0  0  0
   -9.1714   -0.5688    0.5107 H   0  0  0  0  0  0  0  0  0  0  0  0
   -6.0833    0.8498    1.9116 H   0  0  0  0  0  0  0  0  0  0  0  0
   -3.8357    0.3294    1.1044 H   0  0  0  0  0  0  0  0  0  0  0  0
   -2.0757   -0.1558    0.3513 H   0  0  0  0  0  0  0  0  0  0  0  0
   -1.8966   -2.7178    0.2752 H   0  0  0  0  0  0  0  0  0  0  0  0
   -0.9036   -2.4891   -1.1999 H   0  0  0  0  0  0  0  0  0  0  0  0
    0.4057   -2.4777    0.9235 H   0  0  0  0  0  0  0  0  0  0  0  0
   -0.5500   -1.0787    1.5018 H   0  0  0  0  0  0  0  0  0  0  0  0
    2.8061    0.8107   -1.2770 H   0  0  0  0  0  0  0  0  0  0  0  0
    4.7851   -0.9861    0.2303 H   0  0  0  0  0  0  0  0  0  0  0  0
    6.0545   -0.8252   -1.9022 H   0  0  0  0  0  0  0  0  0  0  0  0
    4.8118    0.3276   -2.6485 H   0  0  0  0  0  0  0  0  0  0  0  0
    5.0572    1.9938   -0.8099 H   0  0  0  0  0  0  0  0  0  0  0  0
    6.9127    2.9924    0.3919 H   0  0  0  0  0  0  0  0  0  0  0  0
    9.0062    2.7786    1.6533 H   0  0  0  0  0  0  0  0  0  0  0  0
    9.9799    0.5202    2.0847 H   0  0  0  0  0  0  0  0  0  0  0  0
    8.8379   -1.4881    1.2433 H   0  0  0  0  0  0  0  0  0  0  0  0
    6.7941   -1.2996    0.0109 H   0  0  0  0  0  0  0  0  0  0  0  0
    0.9041    0.6192   -1.8254 H   0  0  0  0  0  0  0  0  0  0  0  0
    0.1296    1.2852   -0.3357 H   0  0  0  0  0  0  0  0  0  0  0  0
   -1.0068   -0.5640   -2.4582 H   0  0  0  0  0  0  0  0  0  0  0  0
   -1.6116    1.0531   -1.8208 H   0  0  0  0  0  0  0  0  0  0  0  0
   -7.8315   -1.0837   -1.3908 H   0  0  0  0  0  0  0  0  0  0  0  0
  1  2  2  0
  2  3  1  0
  2  4  1  0
  4  5  1  0
  5  6  2  0
  6  7  1  0
  7  8  2  0
  8  9  1  0
  9 10  1  0
 10 11  1  0
 11 12  1  0
 12 13  1  0
 13 14  1  0
 14 15  2  0
 14 16  1  0
 16 17  1  0
 17 18  1  0
 18 19  1  0
 19 20  1  0
 20 21  2  0
 21 22  1  0
 22 23  2  0
 23 24  1  0
 24 25  2  0
 13 26  1  0
 26 27  1  0
  8 28  1  0
 28 29  1  0
 28 30  2  0
 30  5  1  0
 27 10  1  0
 19 17  1  0
 25 20  1  0
  3 31  1  0
  4 32  1  0
  4 33  1  0
  6 34  1  0
  7 35  1  0
 10 36  1  0
 11 37  1  0
 11 38  1  0
 12 39  1  0
 12 40  1  0
 16 41  1  0
 17 42  1  1
 18 43  1  0
 18 44  1  0
 19 45  1  6
 21 46  1  0
 22 47  1  0
 23 48  1  0
 24 49  1  0
 25 50  1  0
 26 51  1  0
 26 52  1  0
 27 53  1  0
 27 54  1  0
 30 55  1  0
M  END
$$$$
