
     RDKit          3D

 36 37  0  0  0  0  0  0  0  0999 V2000
    5.3532   -1.7315   -0.4539 O   0  0  0  0  0  0  0  0  0  0  0  0
    5.2709   -0.5525   -0.8576 C   0  0  0  0  0  0  0  0  0  0  0  0
    4.0641    0.2109   -0.6115 C   0  0  0  0  0  0  0  0  0  0  0  0
    3.0756   -0.3352    0.0272 C   0  0  0  0  0  0  0  0  0  0  0  0
    1.7983    0.3160    0.3462 C   0  0  0  0  0  0  0  0  0  0  0  0
    1.5110    1.6149   -0.0120 C   0  0  0  0  0  0  0  0  0  0  0  0
    0.2724    2.1655    0.3275 C   0  0  0  0  0  0  0  0  0  0  0  0
   -0.6792    1.4440    1.0153 C   0  0  0  0  0  0  0  0  0  0  0  0
   -0.4025    0.1425    1.3791 C   0  0  0  0  0  0  0  0  0  0  0  0
   -1.5768   -0.8270    2.2574 S   0  0  0  0  0  6  0  0  0  0  0  0
   -2.3470    0.0964    3.1620 O   0  0  0  0  0  0  0  0  0  0  0  0
   -0.8639   -1.8061    3.1447 O   0  0  0  0  0  0  0  0  0  0  0  0
   -2.6045   -1.6890    1.2043 N   0  0  0  0  0  0  0  0  0  0  0  0
   -3.4345   -0.9703    0.3075 C   0  0  0  0  0  0  0  0  0  0  0  0
   -4.1676    0.1330    0.6924 C   0  0  0  0  0  0  0  0  0  0  0  0
   -4.9732    0.8221   -0.1990 C   0  0  0  0  0  0  0  0  0  0  0  0
   -5.0546    0.4060   -1.5092 C   0  0  0  0  0  0  0  0  0  0  0  0
   -4.3272   -0.6907   -1.8961 C   0  0  0  0  0  0  0  0  0  0  0  0
   -3.5231   -1.3772   -1.0031 C   0  0  0  0  0  0  0  0  0  0  0  0
    0.8221   -0.3795    1.0351 C   0  0  0  0  0  0  0  0  0  0  0  0
    6.3425    0.0549   -1.5557 N   0  0  0  0  0  0  0  0  0  0  0  0
    7.5041   -0.5806   -1.8297 O   0  0  0  0  0  0  0  0  0  0  0  0
    3.9572    1.2353   -0.9466 H   0  0  0  0  0  0  0  0  0  0  0  0
    3.2019   -1.3743    0.3593 H   0  0  0  0  0  0  0  0  0  0  0  0
    2.2470    2.2106   -0.5580 H   0  0  0  0  0  0  0  0  0  0  0  0
    0.1190    3.1907    0.0125 H   0  0  0  0  0  0  0  0  0  0  0  0
   -1.6243    1.8968    1.2621 H   0  0  0  0  0  0  0  0  0  0  0  0
   -2.6376   -2.7291    1.2034 H   0  0  0  0  0  0  0  0  0  0  0  0
   -4.1318    0.4899    1.7054 H   0  0  0  0  0  0  0  0  0  0  0  0
   -5.5453    1.6818    0.0980 H   0  0  0  0  0  0  0  0  0  0  0  0
   -5.6849    0.9334   -2.2363 H   0  0  0  0  0  0  0  0  0  0  0  0
   -4.3780   -1.0302   -2.9143 H   0  0  0  0  0  0  0  0  0  0  0  0
   -2.9660   -2.2388   -1.3538 H   0  0  0  0  0  0  0  0  0  0  0  0
    1.0422   -1.4137    1.3241 H   0  0  0  0  0  0  0  0  0  0  0  0
    6.2151    1.0402   -1.8672 H   0  0  0  0  0  0  0  0  0  0  0  0
    8.1252   -0.5826   -1.0591 H   0  0  0  0  0  0  0  0  0  0  0  0
  1  2  2  0
  2  3  1  0
  3  4  2  0
  4  5  1  0
  5  6  2  0
  6  7  1  0
  7  8  2  0
  8  9  1  0
  9 10  1  0
 10 11  2  0
 10 12  2  0
 10 13  1  0
 13 14  1  0
 14 15  2  0
 15 16  1  0
 16 17  2  0
 17 18  1  0
 18 19  2  0
  9 20  2  0
  2 21  1  0
 21 22  1  0
 20  5  1  0
 19 14  1  0
  3 23  1  0
  4 24  1  0
  6 25  1  0
  7 26  1  0
  8 27  1  0
 13 28  1  0
 15 29  1  0
 16 30  1  0
 17 31  1  0
 18 32  1  0
 19 33  1  0
 20 34  1  0
 21 35  1  0
 22 36  1  0
M  END
$$$$
