
     RDKit          3D

 56 55  0  0  0  0  0  0  0  0999 V2000
    6.8025   -1.1545    1.0028 C   0  0  0  0  0  0  0  0  0  0  0  0
    5.6501   -0.2362    0.9060 N   0  0  0  0  0  4  0  0  0  0  0  0
    6.2481    1.0390    0.5436 C   0  0  0  0  0  0  0  0  0  0  0  0
    5.0443   -0.0872    2.1825 C   0  0  0  0  0  0  0  0  0  0  0  0
    4.8132   -0.6645   -0.1519 C   0  0  0  0  0  0  0  0  0  0  0  0
    3.3476   -0.5021   -0.0130 C   0  0  0  0  0  0  0  0  0  0  0  0
    2.8752    0.9207    0.1676 C   0  0  0  0  0  0  0  0  0  0  0  0
    1.3806    0.9635    0.3032 C   0  0  0  0  0  0  0  0  0  0  0  0
    0.7022    0.4010   -0.9173 C   0  0  0  0  0  0  0  0  0  0  0  0
   -0.7987    0.5040   -0.6677 C   0  0  0  0  0  0  0  0  0  0  0  0
   -1.5734   -0.0353   -1.8360 C   0  0  0  0  0  0  0  0  0  0  0  0
   -3.0689    0.0366   -1.6846 C   0  0  0  0  0  0  0  0  0  0  0  0
   -3.4963   -0.7541   -0.4985 C   0  0  0  0  0  0  0  0  0  0  0  0
   -4.9885   -0.7619   -0.2514 C   0  0  0  0  0  0  0  0  0  0  0  0
   -5.5534    0.5474   -0.0198 N   0  0  0  0  0  4  0  0  0  0  0  0
   -6.8419    0.3047    0.6559 C   0  0  0  0  0  0  0  0  0  0  0  0
   -4.7850    1.3404    0.8918 C   0  0  0  0  0  0  0  0  0  0  0  0
   -5.8737    1.2501   -1.2476 C   0  0  0  0  0  0  0  0  0  0  0  0
    7.2851   -1.2362    0.0053 H   0  0  0  0  0  0  0  0  0  0  0  0
    7.5362   -0.6532    1.6685 H   0  0  0  0  0  0  0  0  0  0  0  0
    6.5255   -2.1334    1.4182 H   0  0  0  0  0  0  0  0  0  0  0  0
    7.3311    1.1002    0.8019 H   0  0  0  0  0  0  0  0  0  0  0  0
    5.7242    1.8423    1.0989 H   0  0  0  0  0  0  0  0  0  0  0  0
    6.1103    1.2155   -0.5536 H   0  0  0  0  0  0  0  0  0  0  0  0
    4.0086   -0.4504    2.2839 H   0  0  0  0  0  0  0  0  0  0  0  0
    5.1021    0.9733    2.5690 H   0  0  0  0  0  0  0  0  0  0  0  0
    5.6271   -0.6636    2.9313 H   0  0  0  0  0  0  0  0  0  0  0  0
    5.0107   -1.7363   -0.3630 H   0  0  0  0  0  0  0  0  0  0  0  0
    5.0936   -0.1521   -1.1200 H   0  0  0  0  0  0  0  0  0  0  0  0
    2.9231   -0.7950   -1.0224 H   0  0  0  0  0  0  0  0  0  0  0  0
    2.8481   -1.2055    0.6834 H   0  0  0  0  0  0  0  0  0  0  0  0
    3.1405    1.4694   -0.7848 H   0  0  0  0  0  0  0  0  0  0  0  0
    3.3648    1.4629    0.9939 H   0  0  0  0  0  0  0  0  0  0  0  0
    1.1342    0.3922    1.2208 H   0  0  0  0  0  0  0  0  0  0  0  0
    1.0512    2.0313    0.4560 H   0  0  0  0  0  0  0  0  0  0  0  0
    0.9081   -0.6804   -1.0135 H   0  0  0  0  0  0  0  0  0  0  0  0
    0.9851    0.9378   -1.8412 H   0  0  0  0  0  0  0  0  0  0  0  0
   -0.9925   -0.1538    0.2277 H   0  0  0  0  0  0  0  0  0  0  0  0
   -1.1332    1.5082   -0.3993 H   0  0  0  0  0  0  0  0  0  0  0  0
   -1.2667    0.5755   -2.7298 H   0  0  0  0  0  0  0  0  0  0  0  0
   -1.2477   -1.0785   -2.1011 H   0  0  0  0  0  0  0  0  0  0  0  0
   -3.3374    1.1126   -1.6643 H   0  0  0  0  0  0  0  0  0  0  0  0
   -3.5436   -0.3923   -2.5909 H   0  0  0  0  0  0  0  0  0  0  0  0
   -2.9451   -0.5072    0.4412 H   0  0  0  0  0  0  0  0  0  0  0  0
   -3.2298   -1.8123   -0.7035 H   0  0  0  0  0  0  0  0  0  0  0  0
   -5.1592   -1.4187    0.6265 H   0  0  0  0  0  0  0  0  0  0  0  0
   -5.4379   -1.2629   -1.1265 H   0  0  0  0  0  0  0  0  0  0  0  0
   -6.7150   -0.5089    1.3917 H   0  0  0  0  0  0  0  0  0  0  0  0
   -7.1007    1.2769    1.1250 H   0  0  0  0  0  0  0  0  0  0  0  0
   -7.5672    0.0922   -0.1399 H   0  0  0  0  0  0  0  0  0  0  0  0
   -4.0250    1.9870    0.4521 H   0  0  0  0  0  0  0  0  0  0  0  0
   -4.3806    0.6831    1.6887 H   0  0  0  0  0  0  0  0  0  0  0  0
   -5.5054    2.0448    1.4035 H   0  0  0  0  0  0  0  0  0  0  0  0
   -5.6429    0.6825   -2.1621 H   0  0  0  0  0  0  0  0  0  0  0  0
   -5.3896    2.2585   -1.2018 H   0  0  0  0  0  0  0  0  0  0  0  0
   -6.9741    1.4847   -1.3354 H   0  0  0  0  0  0  0  0  0  0  0  0
  1  2  1  0
  2  3  1  0
  2  4  1  0
  2  5  1  0
  5  6  1  0
  6  7  1  0
  7  8  1  0
  8  9  1  0
  9 10  1  0
 10 11  1  0
 11 12  1  0
 12 13  1  0
 13 14  1  0
 14 15  1  0
 15 16  1  0
 15 17  1  0
 15 18  1  0
  1 19  1  0
  1 20  1  0
  1 21  1  0
  3 22  1  0
  3 23  1  0
  3 24  1  0
  4 25  1  0
  4 26  1  0
  4 27  1  0
  5 28  1  0
  5 29  1  0
  6 30  1  0
  6 31  1  0
  7 32  1  0
  7 33  1  0
  8 34  1  0
  8 35  1  0
  9 36  1  0
  9 37  1  0
 10 38  1  0
 10 39  1  0
 11 40  1  0
 11 41  1  0
 12 42  1  0
 12 43  1  0
 13 44  1  0
 13 45  1  0
 14 46  1  0
 14 47  1  0
 16 48  1  0
 16 49  1  0
 16 50  1  0
 17 51  1  0
 17 52  1  0
 17 53  1  0
 18 54  1  0
 18 55  1  0
 18 56  1  0
M  CHG  2   2   1  15   1
M  END
$$$$
