
     RDKit          3D

 58 62  0  0  0  0  0  0  0  0999 V2000
    4.1138   -3.0471   -0.0048 C   0  0  0  0  0  0  0  0  0  0  0  0
    4.1212   -1.5564   -0.0334 C   0  0  0  0  0  0  0  0  0  0  0  0
    5.3470   -0.9152   -0.1188 C   0  0  0  0  0  0  0  0  0  0  0  0
    5.3750    0.4360   -0.1491 N   0  0  0  0  0  0  0  0  0  0  0  0
    6.4162    1.2683   -0.2192 C   0  0  0  0  0  0  0  0  0  0  0  0
    7.8664    1.0419   -0.2730 C   0  0  0  0  0  0  0  0  0  0  0  0
    8.6243   -0.0875   -0.3017 C   0  0  0  0  0  0  0  0  0  0  0  0
    9.9422    0.2475   -0.3393 N   0  0  0  0  0  0  0  0  0  0  0  0
   10.0049    1.5504   -0.3327 N   0  0  0  0  0  0  0  0  0  0  0  0
    8.7916    2.1002   -0.2927 C   0  0  0  0  0  0  0  0  0  0  0  0
    5.8366    2.5549   -0.2073 C   0  0  0  0  0  0  0  0  0  0  0  0
    4.5140    2.4099   -0.1333 N   0  0  0  0  0  0  0  0  0  0  0  0
    4.1966    1.1091   -0.0942 C   0  0  0  0  0  0  0  0  0  0  0  0
    2.9567    0.4821   -0.0066 C   0  0  0  0  0  0  0  0  0  0  0  0
    1.7662    1.2479    0.0179 N   0  0  0  0  0  0  0  0  0  0  0  0
    0.5008    0.7724    0.3879 C   0  0  0  0  0  0  0  0  0  0  0  0
    0.2271   -0.4904    0.8634 C   0  0  0  0  0  0  0  0  0  0  0  0
   -1.0778   -0.8766    1.2124 C   0  0  0  0  0  0  0  0  0  0  0  0
   -2.1456   -0.0207    1.1003 C   0  0  0  0  0  0  0  0  0  0  0  0
   -3.5002   -0.4139    1.4844 C   0  0  0  0  0  0  0  0  0  0  0  0
   -3.7017   -0.4578    2.7382 O   0  0  0  0  0  0  0  0  0  0  0  0
   -4.5287   -0.7255    0.5897 N   0  0  0  0  0  0  0  0  0  0  0  0
   -4.4257   -0.7240   -0.8452 C   0  0  0  0  0  0  0  0  0  0  0  0
   -5.6412   -1.4129   -1.4280 C   0  0  0  0  0  0  0  0  0  0  0  0
   -6.8913   -0.8313   -1.0081 N   0  0  0  0  0  0  0  0  0  0  0  0
   -6.8419   -0.2852    0.3206 C   0  0  0  0  0  0  0  0  0  0  0  0
   -6.4893    1.1784    0.3249 C   0  0  0  0  0  0  0  0  0  0  0  0
   -8.1955   -0.4649    1.0111 C   0  0  0  0  0  0  0  0  0  0  0  0
   -5.8433   -1.0901    1.1343 C   0  0  0  0  0  0  0  0  0  0  0  0
   -1.8724    1.2427    0.6236 C   0  0  0  0  0  0  0  0  0  0  0  0
   -0.6043    1.6387    0.2767 C   0  0  0  0  0  0  0  0  0  0  0  0
   -0.3856    2.9077   -0.1987 F   0  0  0  0  0  0  0  0  0  0  0  0
    2.9839   -0.8498    0.0196 N   0  0  0  0  0  0  0  0  0  0  0  0
    4.6987   -3.4685    0.8205 H   0  0  0  0  0  0  0  0  0  0  0  0
    3.0414   -3.3543    0.1122 H   0  0  0  0  0  0  0  0  0  0  0  0
    4.4397   -3.4334   -0.9993 H   0  0  0  0  0  0  0  0  0  0  0  0
    6.2305   -1.5193   -0.1518 H   0  0  0  0  0  0  0  0  0  0  0  0
    8.2708   -1.1056   -0.3021 H   0  0  0  0  0  0  0  0  0  0  0  0
   10.9235    2.0636   -0.3540 H   0  0  0  0  0  0  0  0  0  0  0  0
    8.5653    3.1783   -0.2815 H   0  0  0  0  0  0  0  0  0  0  0  0
    6.3693    3.4876   -0.2463 H   0  0  0  0  0  0  0  0  0  0  0  0
    1.8391    2.2739   -0.2749 H   0  0  0  0  0  0  0  0  0  0  0  0
    1.0363   -1.1971    0.9777 H   0  0  0  0  0  0  0  0  0  0  0  0
   -1.2412   -1.8634    1.5833 H   0  0  0  0  0  0  0  0  0  0  0  0
   -4.1973    0.2507   -1.2930 H   0  0  0  0  0  0  0  0  0  0  0  0
   -3.5524   -1.4037   -1.1094 H   0  0  0  0  0  0  0  0  0  0  0  0
   -5.5824   -1.3136   -2.5325 H   0  0  0  0  0  0  0  0  0  0  0  0
   -5.5591   -2.4825   -1.1810 H   0  0  0  0  0  0  0  0  0  0  0  0
   -7.2942   -0.1848   -1.7177 H   0  0  0  0  0  0  0  0  0  0  0  0
   -7.3227    1.8186    0.6672 H   0  0  0  0  0  0  0  0  0  0  0  0
   -6.3310    1.4873   -0.7573 H   0  0  0  0  0  0  0  0  0  0  0  0
   -5.5535    1.3681    0.9194 H   0  0  0  0  0  0  0  0  0  0  0  0
   -8.1784   -1.2465    1.7861 H   0  0  0  0  0  0  0  0  0  0  0  0
   -8.9241   -0.6305    0.2131 H   0  0  0  0  0  0  0  0  0  0  0  0
   -8.5147    0.4682    1.5415 H   0  0  0  0  0  0  0  0  0  0  0  0
   -5.9882   -2.1681    0.9654 H   0  0  0  0  0  0  0  0  0  0  0  0
   -5.9203   -0.9006    2.2056 H   0  0  0  0  0  0  0  0  0  0  0  0
   -2.6951    1.9371    0.5157 H   0  0  0  0  0  0  0  0  0  0  0  0
  1  2  1  0
  2  3  2  0
  3  4  1  0
  4  5  1  0
  5  6  1  0
  6  7  1  0
  7  8  2  0
  8  9  1  0
  9 10  1  0
  5 11  2  0
 11 12  1  0
 12 13  2  0
 13 14  1  0
 14 15  1  0
 15 16  1  0
 16 17  2  0
 17 18  1  0
 18 19  2  0
 19 20  1  0
 20 21  2  0
 20 22  1  0
 22 23  1  0
 23 24  1  0
 24 25  1  0
 25 26  1  0
 26 27  1  0
 26 28  1  0
 26 29  1  0
 19 30  1  0
 30 31  2  0
 31 32  1  0
 14 33  2  0
 33  2  1  0
 13  4  1  0
 31 16  1  0
 10  6  2  0
 29 22  1  0
  1 34  1  0
  1 35  1  0
  1 36  1  0
  3 37  1  0
  7 38  1  0
  9 39  1  0
 10 40  1  0
 11 41  1  0
 15 42  1  0
 17 43  1  0
 18 44  1  0
 23 45  1  0
 23 46  1  0
 24 47  1  0
 24 48  1  0
 25 49  1  0
 27 50  1  0
 27 51  1  0
 27 52  1  0
 28 53  1  0
 28 54  1  0
 28 55  1  0
 29 56  1  0
 29 57  1  0
 30 58  1  0
M  END
$$$$
