
     RDKit          3D

 33 34  0  0  0  0  0  0  0  0999 V2000
   -5.1941    0.4816    1.1496 C   0  0  0  0  0  0  0  0  0  0  0  0
   -3.8596   -0.0032    0.7024 C   0  0  0  0  0  0  0  0  0  0  0  0
   -3.6043   -0.3241   -0.6172 C   0  0  0  0  0  0  0  0  0  0  0  0
   -2.3737   -0.7747   -1.0493 C   0  0  0  0  0  0  0  0  0  0  0  0
   -1.3642   -0.9063   -0.1160 C   0  0  0  0  0  0  0  0  0  0  0  0
    0.2086   -1.4784   -0.6476 S   0  0  0  0  0  6  0  0  0  0  0  0
    0.7700   -2.3478    0.4130 O   0  0  0  0  0  0  0  0  0  0  0  0
   -0.0157   -2.3434   -1.8691 O   0  0  0  0  0  0  0  0  0  0  0  0
    1.2209   -0.1896   -1.1138 N   0  0  0  0  0  0  0  0  0  0  0  0
    0.7775    0.6336   -2.2269 C   0  0  0  0  0  0  0  0  0  0  0  0
    2.4573    0.1334   -0.4954 C   0  0  0  0  0  0  0  0  0  0  0  0
    2.5371    1.0057    0.5666 C   0  0  0  0  0  0  0  0  0  0  0  0
    3.7213    1.3414    1.1905 C   0  0  0  0  0  0  0  0  0  0  0  0
    4.8707    0.7614    0.7087 C   0  0  0  0  0  0  0  0  0  0  0  0
    4.8164   -0.1088   -0.3461 C   0  0  0  0  0  0  0  0  0  0  0  0
    3.6253   -0.4306   -0.9546 C   0  0  0  0  0  0  0  0  0  0  0  0
   -1.5683   -0.5963    1.2276 C   0  0  0  0  0  0  0  0  0  0  0  0
   -2.8168   -0.1517    1.5979 C   0  0  0  0  0  0  0  0  0  0  0  0
   -5.2715    1.5436    0.8462 H   0  0  0  0  0  0  0  0  0  0  0  0
   -5.9944   -0.0845    0.6438 H   0  0  0  0  0  0  0  0  0  0  0  0
   -5.2662    0.3353    2.2380 H   0  0  0  0  0  0  0  0  0  0  0  0
   -4.3982   -0.2222   -1.3600 H   0  0  0  0  0  0  0  0  0  0  0  0
   -2.1873   -1.0261   -2.1054 H   0  0  0  0  0  0  0  0  0  0  0  0
    1.6583    1.0679   -2.7756 H   0  0  0  0  0  0  0  0  0  0  0  0
    0.2344    0.0251   -2.9944 H   0  0  0  0  0  0  0  0  0  0  0  0
    0.1771    1.4961   -1.8980 H   0  0  0  0  0  0  0  0  0  0  0  0
    1.6322    1.4820    0.9695 H   0  0  0  0  0  0  0  0  0  0  0  0
    3.7737    2.0319    2.0292 H   0  0  0  0  0  0  0  0  0  0  0  0
    5.8347    0.9847    1.1566 H   0  0  0  0  0  0  0  0  0  0  0  0
    5.7217   -0.5849   -0.7488 H   0  0  0  0  0  0  0  0  0  0  0  0
    3.6356   -1.1369   -1.8005 H   0  0  0  0  0  0  0  0  0  0  0  0
   -0.7516   -0.7119    1.9330 H   0  0  0  0  0  0  0  0  0  0  0  0
   -3.0071    0.0978    2.6369 H   0  0  0  0  0  0  0  0  0  0  0  0
  1  2  1  0
  2  3  2  0
  3  4  1  0
  4  5  2  0
  5  6  1  0
  6  7  2  0
  6  8  2  0
  6  9  1  0
  9 10  1  0
  9 11  1  0
 11 12  2  0
 12 13  1  0
 13 14  2  0
 14 15  1  0
 15 16  2  0
  5 17  1  0
 17 18  2  0
 18  2  1  0
 16 11  1  0
  1 19  1  0
  1 20  1  0
  1 21  1  0
  3 22  1  0
  4 23  1  0
 10 24  1  0
 10 25  1  0
 10 26  1  0
 12 27  1  0
 13 28  1  0
 14 29  1  0
 15 30  1  0
 16 31  1  0
 17 32  1  0
 18 33  1  0
M  END
$$$$
