
     RDKit          3D

 24 24  0  0  0  0  0  0  0  0999 V2000
    3.0212    0.6939   -0.6846 O   0  0  0  0  0  0  0  0  0  0  0  0
    2.4276   -0.2942    0.0636 C   0  0  0  0  0  0  0  0  0  0  0  0
    0.9322   -0.2615   -0.0641 C   0  0  1  0  0  0  0  0  0  0  0  0
    0.3601   -1.2718    0.7032 O   0  0  0  0  0  0  0  0  0  0  0  0
   -0.9077   -1.5005    0.1684 C   0  0  1  0  0  0  0  0  0  0  0  0
   -1.5018   -2.6068    0.7534 O   0  0  0  0  0  0  0  0  0  0  0  0
   -1.8068   -0.3090    0.2798 C   0  0  2  0  0  0  0  0  0  0  0  0
   -2.8632   -0.5273   -0.6297 O   0  0  0  0  0  0  0  0  0  0  0  0
   -1.1452    0.9646   -0.1434 C   0  0  1  0  0  0  0  0  0  0  0  0
   -1.8693    2.0676    0.3421 O   0  0  0  0  0  0  0  0  0  0  0  0
    0.3058    1.0379    0.3212 C   0  0  2  0  0  0  0  0  0  0  0  0
    0.8840    2.0670   -0.4549 O   0  0  0  0  0  0  0  0  0  0  0  0
    3.8359    0.3918   -1.1542 H   0  0  0  0  0  0  0  0  0  0  0  0
    2.7488   -0.3550    1.1063 H   0  0  0  0  0  0  0  0  0  0  0  0
    2.7368   -1.2778   -0.3972 H   0  0  0  0  0  0  0  0  0  0  0  0
    0.6814   -0.4393   -1.1366 H   0  0  0  0  0  0  0  0  0  0  0  0
   -0.7549   -1.6894   -0.9291 H   0  0  0  0  0  0  0  0  0  0  0  0
   -0.9282   -3.3938    0.5236 H   0  0  0  0  0  0  0  0  0  0  0  0
   -2.2397   -0.2169    1.2904 H   0  0  0  0  0  0  0  0  0  0  0  0
   -2.4796   -0.3699   -1.5232 H   0  0  0  0  0  0  0  0  0  0  0  0
   -1.1124    0.9895   -1.2629 H   0  0  0  0  0  0  0  0  0  0  0  0
   -2.3255    2.4921   -0.4400 H   0  0  0  0  0  0  0  0  0  0  0  0
    0.3675    1.2955    1.3833 H   0  0  0  0  0  0  0  0  0  0  0  0
    1.6332    2.5133    0.0103 H   0  0  0  0  0  0  0  0  0  0  0  0
  1  2  1  0
  2  3  1  0
  3  4  1  0
  4  5  1  0
  5  6  1  0
  5  7  1  0
  7  8  1  0
  7  9  1  0
  9 10  1  0
  9 11  1  0
 11 12  1  0
 11  3  1  0
  1 13  1  0
  2 14  1  0
  2 15  1  0
  3 16  1  6
  5 17  1  6
  6 18  1  0
  7 19  1  1
  8 20  1  0
  9 21  1  6
 10 22  1  0
 11 23  1  1
 12 24  1  0
M  END
$$$$
