
     RDKit          3D

 53 57  0  0  0  0  0  0  0  0999 V2000
    8.2857   -1.0827    2.0084 C   0  0  0  0  0  0  0  0  0  0  0  0
    6.9209   -1.1848    2.3363 O   0  0  0  0  0  0  0  0  0  0  0  0
    5.9236   -1.1530    1.3423 C   0  0  0  0  0  0  0  0  0  0  0  0
    4.5915   -1.2542    1.6801 C   0  0  0  0  0  0  0  0  0  0  0  0
    3.6077   -1.2281    0.7602 N   0  0  0  0  0  0  0  0  0  0  0  0
    3.9262   -1.0977   -0.5537 C   0  0  0  0  0  0  0  0  0  0  0  0
    2.9261   -1.0699   -1.5026 C   0  0  0  0  0  0  0  0  0  0  0  0
    1.5526   -1.1716   -1.1871 N   0  0  0  0  0  0  0  0  0  0  0  0
    0.7916   -0.0026   -0.9196 C   0  0  0  0  0  0  0  0  0  0  0  0
    1.4320    1.2236   -0.9761 C   0  0  0  0  0  0  0  0  0  0  0  0
    0.7294    2.3767   -0.7238 C   0  0  0  0  0  0  0  0  0  0  0  0
   -0.6334    2.2902   -0.4115 C   0  0  0  0  0  0  0  0  0  0  0  0
   -1.2628    3.4845   -0.1958 F   0  0  0  0  0  0  0  0  0  0  0  0
   -1.2933    1.0887   -0.3477 C   0  0  0  0  0  0  0  0  0  0  0  0
   -2.7355    1.0085    0.0061 C   0  0  1  0  0  0  0  0  0  0  0  0
   -3.5225    1.7896   -1.0147 C   0  0  0  0  0  0  0  0  0  0  0  0
   -3.0972   -0.4091   -0.0541 N   0  0  0  0  0  0  0  0  0  0  0  0
   -4.2413   -0.8702    0.2474 C   0  0  0  0  0  0  0  0  0  0  0  0
   -4.4771   -2.2648    0.1502 N   0  0  0  0  0  0  0  0  0  0  0  0
   -5.3296    0.0105    0.6998 C   0  0  0  0  0  0  0  0  0  0  0  0
   -6.6300   -0.6046    1.1184 C   0  0  0  0  0  0  0  0  0  0  0  0
   -6.5404    0.2623   -0.0810 C   0  0  0  0  0  0  0  0  0  0  0  0
   -4.6999    1.2189    1.8447 S   0  0  0  0  0  6  0  0  0  0  0  0
   -5.4596    2.4942    1.7823 O   0  0  0  0  0  0  0  0  0  0  0  0
   -4.7358    0.6134    3.2189 O   0  0  0  0  0  0  0  0  0  0  0  0
   -2.9745    1.4748    1.4207 C   0  0  2  0  0  0  0  0  0  0  0  0
   -2.7215    2.7848    1.6347 F   0  0  0  0  0  0  0  0  0  0  0  0
   -0.5419   -0.0383   -0.6098 C   0  0  0  0  0  0  0  0  0  0  0  0
    3.2834   -0.9394   -2.7922 N   0  0  0  0  0  0  0  0  0  0  0  0
    4.5670   -0.8364   -3.1821 C   0  0  0  0  0  0  0  0  0  0  0  0
    5.5598   -0.8643   -2.2357 C   0  0  0  0  0  0  0  0  0  0  0  0
    5.2636   -0.9968   -0.8855 C   0  0  0  0  0  0  0  0  0  0  0  0
    6.2447   -1.0230    0.0351 N   0  0  0  0  0  0  0  0  0  0  0  0
    8.8646   -1.9722    2.3558 H   0  0  0  0  0  0  0  0  0  0  0  0
    8.7014   -0.1836    2.5212 H   0  0  0  0  0  0  0  0  0  0  0  0
    8.4485   -1.0185    0.9046 H   0  0  0  0  0  0  0  0  0  0  0  0
    4.3841   -1.3581    2.7568 H   0  0  0  0  0  0  0  0  0  0  0  0
    1.0776   -2.0945   -1.1451 H   0  0  0  0  0  0  0  0  0  0  0  0
    2.5071    1.2705   -1.2241 H   0  0  0  0  0  0  0  0  0  0  0  0
    1.2160    3.3408   -0.7643 H   0  0  0  0  0  0  0  0  0  0  0  0
   -2.9191    2.5824   -1.5132 H   0  0  0  0  0  0  0  0  0  0  0  0
   -3.9204    1.1455   -1.8268 H   0  0  0  0  0  0  0  0  0  0  0  0
   -4.3363    2.3210   -0.4732 H   0  0  0  0  0  0  0  0  0  0  0  0
   -5.1456   -2.7699    0.7758 H   0  0  0  0  0  0  0  0  0  0  0  0
   -3.9917   -2.8721   -0.5585 H   0  0  0  0  0  0  0  0  0  0  0  0
   -7.2088   -0.1782    1.9678 H   0  0  0  0  0  0  0  0  0  0  0  0
   -6.8530   -1.6643    0.9270 H   0  0  0  0  0  0  0  0  0  0  0  0
   -7.0049    1.2721   -0.0431 H   0  0  0  0  0  0  0  0  0  0  0  0
   -6.6239   -0.1868   -1.1032 H   0  0  0  0  0  0  0  0  0  0  0  0
   -2.3334    0.8474    2.0758 H   0  0  0  0  0  0  0  0  0  0  0  0
   -1.0402   -0.9943   -0.5659 H   0  0  0  0  0  0  0  0  0  0  0  0
    4.8577   -0.7311   -4.2213 H   0  0  0  0  0  0  0  0  0  0  0  0
    6.6114   -0.7852   -2.4937 H   0  0  0  0  0  0  0  0  0  0  0  0
  1  2  1  0
  2  3  1  0
  3  4  2  0
  4  5  1  0
  5  6  2  0
  6  7  1  0
  7  8  1  0
  8  9  1  0
  9 10  2  0
 10 11  1  0
 11 12  2  0
 12 13  1  0
 12 14  1  0
 14 15  1  0
 15 16  1  6
 15 17  1  0
 17 18  2  0
 18 19  1  0
 18 20  1  0
 20 21  1  0
 21 22  1  0
 20 23  1  0
 23 24  2  0
 23 25  2  0
 23 26  1  0
 26 27  1  0
 14 28  2  0
  7 29  2  0
 29 30  1  0
 30 31  2  0
 31 32  1  0
 32 33  2  0
 33  3  1  0
 32  6  1  0
 28  9  1  0
 26 15  1  0
 22 20  1  0
  1 34  1  0
  1 35  1  0
  1 36  1  0
  4 37  1  0
  8 38  1  0
 10 39  1  0
 11 40  1  0
 16 41  1  0
 16 42  1  0
 16 43  1  0
 19 44  1  0
 19 45  1  0
 21 46  1  0
 21 47  1  0
 22 48  1  0
 22 49  1  0
 26 50  1  1
 28 51  1  0
 30 52  1  0
 31 53  1  0
M  END
$$$$
