
     RDKit          3D

 56 60  0  0  0  0  0  0  0  0999 V2000
   -4.7696    4.5121    0.4693 C   0  0  0  0  0  0  0  0  0  0  0  0
   -5.3627    3.2218   -0.0190 C   0  0  0  0  0  0  0  0  0  0  0  0
   -6.5965    3.1488   -0.2335 O   0  0  0  0  0  0  0  0  0  0  0  0
   -4.5187    2.1015   -0.2313 N   0  0  0  0  0  0  0  0  0  0  0  0
   -5.1212    0.8722   -0.7032 C   0  0  0  0  0  0  0  0  0  0  0  0
   -4.6053   -0.2259    0.2396 C   0  0  0  0  0  0  0  0  0  0  0  0
   -3.1260   -0.2461    0.0957 C   0  0  0  0  0  0  0  0  0  0  0  0
   -2.4145    0.9227   -0.0086 C   0  0  0  0  0  0  0  0  0  0  0  0
   -1.0926    0.5270   -0.1290 C   0  0  0  0  0  0  0  0  0  0  0  0
   -0.0190    1.4497   -0.2623 N   0  0  0  0  0  0  0  0  0  0  0  0
    1.3271    1.0632   -0.3860 C   0  0  0  0  0  0  0  0  0  0  0  0
    2.2533    1.4622    0.5277 C   0  0  0  0  0  0  0  0  0  0  0  0
    3.5880    1.0743    0.3965 C   0  0  0  0  0  0  0  0  0  0  0  0
    3.9877    0.2860   -0.6534 C   0  0  0  0  0  0  0  0  0  0  0  0
    5.3817   -0.1107   -0.7792 C   0  0  0  0  0  0  0  0  0  0  0  0
    6.0444   -0.3404   -1.9690 C   0  0  0  0  0  0  0  0  0  0  0  0
    7.3103   -0.6842   -1.6533 N   0  0  0  0  0  0  0  0  0  0  0  0
    7.4839   -0.6851   -0.3463 N   0  0  0  0  0  0  0  0  0  0  0  0
    8.7399   -1.0138    0.3108 C   0  0  0  0  0  0  0  0  0  0  0  0
    6.3147   -0.3366    0.2052 C   0  0  0  0  0  0  0  0  0  0  0  0
    3.0382   -0.1151   -1.5782 C   0  0  0  0  0  0  0  0  0  0  0  0
    1.7054    0.2732   -1.4458 C   0  0  0  0  0  0  0  0  0  0  0  0
    0.8017   -0.1288   -2.3564 F   0  0  0  0  0  0  0  0  0  0  0  0
   -1.0615   -0.7968   -0.0940 N   0  0  0  0  0  0  0  0  0  0  0  0
   -2.2715   -1.3068    0.0412 N   0  0  0  0  0  0  0  0  0  0  0  0
   -2.6322   -2.6962    0.1169 C   0  0  2  0  0  0  0  0  0  0  0  0
   -2.5439   -3.0993    1.5960 C   0  0  0  0  0  0  0  0  0  0  0  0
   -1.0203   -3.1194    1.7417 C   0  0  0  0  0  0  0  0  0  0  0  0
   -0.4978   -3.5085    0.5434 O   0  0  0  0  0  0  0  0  0  0  0  0
   -1.4739   -3.5481   -0.4125 C   0  0  0  0  0  0  0  0  0  0  0  0
   -3.1165    2.2228    0.0260 C   0  0  0  0  0  0  0  0  0  0  0  0
   -4.1016    4.8692   -0.3463 H   0  0  0  0  0  0  0  0  0  0  0  0
   -4.1695    4.2674    1.3719 H   0  0  0  0  0  0  0  0  0  0  0  0
   -5.5897    5.2249    0.6943 H   0  0  0  0  0  0  0  0  0  0  0  0
   -4.6602    0.6512   -1.6850 H   0  0  0  0  0  0  0  0  0  0  0  0
   -6.2078    0.9224   -0.7102 H   0  0  0  0  0  0  0  0  0  0  0  0
   -4.8216    0.0430    1.2942 H   0  0  0  0  0  0  0  0  0  0  0  0
   -5.0628   -1.1785   -0.0720 H   0  0  0  0  0  0  0  0  0  0  0  0
   -0.2006    2.4921   -0.2728 H   0  0  0  0  0  0  0  0  0  0  0  0
    2.0289    2.0828    1.3862 H   0  0  0  0  0  0  0  0  0  0  0  0
    4.3191    1.4013    1.1357 H   0  0  0  0  0  0  0  0  0  0  0  0
    5.6628   -0.2709   -2.9890 H   0  0  0  0  0  0  0  0  0  0  0  0
    9.0328   -2.0535    0.0748 H   0  0  0  0  0  0  0  0  0  0  0  0
    8.5546   -0.9626    1.4188 H   0  0  0  0  0  0  0  0  0  0  0  0
    9.5355   -0.2799    0.0567 H   0  0  0  0  0  0  0  0  0  0  0  0
    6.1211   -0.2441    1.2521 H   0  0  0  0  0  0  0  0  0  0  0  0
    3.3534   -0.7404   -2.4119 H   0  0  0  0  0  0  0  0  0  0  0  0
   -3.5855   -2.9570   -0.3294 H   0  0  0  0  0  0  0  0  0  0  0  0
   -2.8718   -4.1382    1.7400 H   0  0  0  0  0  0  0  0  0  0  0  0
   -3.0175   -2.3598    2.2418 H   0  0  0  0  0  0  0  0  0  0  0  0
   -0.7388   -2.0442    1.9123 H   0  0  0  0  0  0  0  0  0  0  0  0
   -0.6972   -3.7136    2.6051 H   0  0  0  0  0  0  0  0  0  0  0  0
   -1.8655   -4.5860   -0.4767 H   0  0  0  0  0  0  0  0  0  0  0  0
   -1.1484   -3.1921   -1.4094 H   0  0  0  0  0  0  0  0  0  0  0  0
   -2.9833    2.6062    1.0823 H   0  0  0  0  0  0  0  0  0  0  0  0
   -2.6193    2.9846   -0.6124 H   0  0  0  0  0  0  0  0  0  0  0  0
  1  2  1  0
  2  3  2  0
  2  4  1  0
  4  5  1  0
  5  6  1  0
  6  7  1  0
  7  8  2  0
  8  9  1  0
  9 10  1  0
 10 11  1  0
 11 12  2  0
 12 13  1  0
 13 14  2  0
 14 15  1  0
 15 16  1  0
 16 17  2  0
 17 18  1  0
 18 19  1  0
 18 20  1  0
 14 21  1  0
 21 22  2  0
 22 23  1  0
  9 24  2  0
 24 25  1  0
 25 26  1  0
 26 27  1  0
 27 28  1  0
 28 29  1  0
 29 30  1  0
  8 31  1  0
 31  4  1  0
 25  7  1  0
 30 26  1  0
 22 11  1  0
 20 15  2  0
  1 32  1  0
  1 33  1  0
  1 34  1  0
  5 35  1  0
  5 36  1  0
  6 37  1  0
  6 38  1  0
 10 39  1  0
 12 40  1  0
 13 41  1  0
 16 42  1  0
 19 43  1  0
 19 44  1  0
 19 45  1  0
 20 46  1  0
 21 47  1  0
 26 48  1  6
 27 49  1  0
 27 50  1  0
 28 51  1  0
 28 52  1  0
 30 53  1  0
 30 54  1  0
 31 55  1  0
 31 56  1  0
M  END
$$$$
