
     RDKit          3D

 49 53  0  0  0  0  0  0  0  0999 V2000
    7.0275    1.7887    1.1848 C   0  0  0  0  0  0  0  0  0  0  0  0
    6.1627    0.6892    0.7161 C   0  0  0  0  0  0  0  0  0  0  0  0
    6.5308   -0.6060    0.4420 C   0  0  0  0  0  0  0  0  0  0  0  0
    5.3765   -1.2536    0.0368 C   0  0  0  0  0  0  0  0  0  0  0  0
    5.0782   -2.4890   -0.3548 N   0  0  0  0  0  0  0  0  0  0  0  0
    3.8421   -2.8872   -0.7094 C   0  0  0  0  0  0  0  0  0  0  0  0
    2.7999   -1.9640   -0.6703 C   0  0  0  0  0  0  0  0  0  0  0  0
    3.1225   -0.6958   -0.2649 C   0  0  0  0  0  0  0  0  0  0  0  0
    4.3755   -0.3544    0.0779 N   0  0  0  0  0  0  0  0  0  0  0  0
    4.8381    0.8155    0.4848 N   0  0  0  0  0  0  0  0  0  0  0  0
    1.8472    0.0973   -0.3046 C   0  0  0  0  0  0  0  0  0  0  0  0
    0.7961   -0.9301   -0.2053 N   0  0  0  0  0  0  0  0  0  0  0  0
   -0.4137   -0.3853   -0.8149 C   0  0  1  0  0  0  0  0  0  0  0  0
   -1.5222   -1.4007   -0.7368 C   0  0  0  0  0  0  0  0  0  0  0  0
   -2.7731   -0.8322   -0.9745 O   0  0  0  0  0  0  0  0  0  0  0  0
   -2.9806    0.0247    0.1080 C   0  0  2  0  0  0  0  0  0  0  0  0
   -4.4114    0.2481    0.2741 C   0  0  0  0  0  0  0  0  0  0  0  0
   -4.9727    0.5251    1.5014 C   0  0  0  0  0  0  0  0  0  0  0  0
   -6.3303    0.7241    1.5784 C   0  0  0  0  0  0  0  0  0  0  0  0
   -6.8659    0.9964    2.7982 F   0  0  0  0  0  0  0  0  0  0  0  0
   -7.1677    0.6607    0.4832 C   0  0  0  0  0  0  0  0  0  0  0  0
   -6.5926    0.3822   -0.7414 C   0  0  0  0  0  0  0  0  0  0  0  0
   -5.2154    0.1747   -0.8539 C   0  0  0  0  0  0  0  0  0  0  0  0
   -4.6962   -0.0976   -2.0878 F   0  0  0  0  0  0  0  0  0  0  0  0
   -2.1976    1.2785   -0.1781 C   0  0  1  0  0  0  0  0  0  0  0  0
   -2.4306    2.2913    0.8422 N   0  0  0  0  0  0  0  0  0  0  0  0
   -0.7454    0.9542   -0.3031 C   0  0  0  0  0  0  0  0  0  0  0  0
    1.3664   -1.9885   -0.9666 C   0  0  0  0  0  0  0  0  0  0  0  0
    7.9578    1.3544    1.5762 H   0  0  0  0  0  0  0  0  0  0  0  0
    6.5082    2.3275    2.0069 H   0  0  0  0  0  0  0  0  0  0  0  0
    7.2549    2.5139    0.3895 H   0  0  0  0  0  0  0  0  0  0  0  0
    7.5329   -1.0418    0.5256 H   0  0  0  0  0  0  0  0  0  0  0  0
    3.6152   -3.8912   -1.0245 H   0  0  0  0  0  0  0  0  0  0  0  0
    1.8272    0.6022   -1.2737 H   0  0  0  0  0  0  0  0  0  0  0  0
    1.8371    0.7778    0.5509 H   0  0  0  0  0  0  0  0  0  0  0  0
   -0.1622   -0.2896   -1.9130 H   0  0  0  0  0  0  0  0  0  0  0  0
   -1.4054   -2.2159   -1.4763 H   0  0  0  0  0  0  0  0  0  0  0  0
   -1.5872   -1.8444    0.2931 H   0  0  0  0  0  0  0  0  0  0  0  0
   -2.5554   -0.4060    1.0564 H   0  0  0  0  0  0  0  0  0  0  0  0
   -4.3009    0.5701    2.3445 H   0  0  0  0  0  0  0  0  0  0  0  0
   -8.2487    0.8210    0.5563 H   0  0  0  0  0  0  0  0  0  0  0  0
   -7.2174    0.3230   -1.6310 H   0  0  0  0  0  0  0  0  0  0  0  0
   -2.6065    1.6999   -1.1266 H   0  0  0  0  0  0  0  0  0  0  0  0
   -2.1029    1.9077    1.7798 H   0  0  0  0  0  0  0  0  0  0  0  0
   -1.7465    3.0765    0.6424 H   0  0  0  0  0  0  0  0  0  0  0  0
   -0.2974    1.0714    0.7276 H   0  0  0  0  0  0  0  0  0  0  0  0
   -0.2522    1.7768   -0.8974 H   0  0  0  0  0  0  0  0  0  0  0  0
    1.1432   -1.9472   -2.0491 H   0  0  0  0  0  0  0  0  0  0  0  0
    0.9584   -2.9522   -0.6018 H   0  0  0  0  0  0  0  0  0  0  0  0
  1  2  1  0
  2  3  1  0
  3  4  2  0
  4  5  1  0
  5  6  2  0
  6  7  1  0
  7  8  2  0
  8  9  1  0
  9 10  1  0
  8 11  1  0
 11 12  1  0
 12 13  1  0
 13 14  1  0
 14 15  1  0
 15 16  1  0
 16 17  1  0
 17 18  2  0
 18 19  1  0
 19 20  1  0
 19 21  2  0
 21 22  1  0
 22 23  2  0
 23 24  1  0
 16 25  1  0
 25 26  1  0
 25 27  1  0
 12 28  1  0
 10  2  2  0
 27 13  1  0
  9  4  1  0
 23 17  1  0
 28  7  1  0
  1 29  1  0
  1 30  1  0
  1 31  1  0
  3 32  1  0
  6 33  1  0
 11 34  1  0
 11 35  1  0
 13 36  1  6
 14 37  1  0
 14 38  1  0
 16 39  1  1
 18 40  1  0
 21 41  1  0
 22 42  1  0
 25 43  1  6
 26 44  1  0
 26 45  1  0
 27 46  1  0
 27 47  1  0
 28 48  1  0
 28 49  1  0
M  END
$$$$
