
     RDKit          3D

 48 49  0  0  0  0  0  0  0  0999 V2000
    6.2254   -0.0140    1.6055 C   0  0  0  0  0  0  0  0  0  0  0  0
    5.0479    0.7124    1.4070 O   0  0  0  0  0  0  0  0  0  0  0  0
    3.8998    0.1690    0.8640 C   0  0  0  0  0  0  0  0  0  0  0  0
    3.9044   -1.1518    0.4968 C   0  0  0  0  0  0  0  0  0  0  0  0
    2.7959   -1.7364   -0.0433 C   0  0  0  0  0  0  0  0  0  0  0  0
    2.8458   -3.0725   -0.4043 O   0  0  0  0  0  0  0  0  0  0  0  0
    1.6231   -0.9696   -0.2268 C   0  0  0  0  0  0  0  0  0  0  0  0
    1.6128    0.3576    0.1378 C   0  0  0  0  0  0  0  0  0  0  0  0
    2.7364    0.9171    0.6764 C   0  0  0  0  0  0  0  0  0  0  0  0
    0.3888    1.2094   -0.0925 C   0  0  0  0  0  0  0  0  0  0  0  0
    0.5219    2.6046    0.3991 C   0  0  0  0  0  0  0  0  0  0  0  0
   -0.6624    3.4457    0.0878 C   0  0  0  0  0  0  0  0  0  0  0  0
   -1.9937    2.9976    0.5218 C   0  0  0  0  0  0  0  0  0  0  0  0
   -2.6617    1.9060   -0.2295 C   0  0  0  0  0  0  0  0  0  0  0  0
   -3.7695    1.3050    0.5599 C   0  0  0  0  0  0  0  0  0  0  0  0
   -4.3039    2.1366    1.3828 O   0  0  0  0  0  0  0  0  0  0  0  0
   -4.2245   -0.0550    0.4652 C   0  0  0  0  0  0  0  0  0  0  0  0
   -3.9074   -1.0718   -0.2567 C   0  0  0  0  0  0  0  0  0  0  0  0
   -2.9399   -1.3206   -1.3319 C   0  0  0  0  0  0  0  0  0  0  0  0
   -1.8614   -2.3008   -0.9308 C   0  0  2  0  0  0  0  0  0  0  0  0
   -2.3628   -3.5514   -0.2919 C   0  0  0  0  0  0  0  0  0  0  0  0
   -0.8318   -1.6238   -0.2698 O   0  0  0  0  0  0  0  0  0  0  0  0
    0.4787   -1.6435   -0.7871 C   0  0  0  0  0  0  0  0  0  0  0  0
    0.6938   -2.3211   -1.8617 O   0  0  0  0  0  0  0  0  0  0  0  0
    6.9912    0.5927    2.0900 H   0  0  0  0  0  0  0  0  0  0  0  0
    6.0098   -0.9397    2.2074 H   0  0  0  0  0  0  0  0  0  0  0  0
    6.6244   -0.3676    0.6466 H   0  0  0  0  0  0  0  0  0  0  0  0
    4.8002   -1.7545    0.6330 H   0  0  0  0  0  0  0  0  0  0  0  0
    3.1271   -3.4192   -1.2943 H   0  0  0  0  0  0  0  0  0  0  0  0
    2.7715    1.9564    0.9787 H   0  0  0  0  0  0  0  0  0  0  0  0
   -0.4115    0.6477    0.4708 H   0  0  0  0  0  0  0  0  0  0  0  0
    0.1342    1.2124   -1.1523 H   0  0  0  0  0  0  0  0  0  0  0  0
    0.8202    2.6571    1.4759 H   0  0  0  0  0  0  0  0  0  0  0  0
    1.4401    3.0290   -0.1248 H   0  0  0  0  0  0  0  0  0  0  0  0
   -0.6942    3.7291   -1.0112 H   0  0  0  0  0  0  0  0  0  0  0  0
   -0.4852    4.4566    0.5765 H   0  0  0  0  0  0  0  0  0  0  0  0
   -1.9779    2.6959    1.6154 H   0  0  0  0  0  0  0  0  0  0  0  0
   -2.6607    3.9141    0.5457 H   0  0  0  0  0  0  0  0  0  0  0  0
   -2.0056    1.2692   -0.7358 H   0  0  0  0  0  0  0  0  0  0  0  0
   -3.2280    2.4949   -1.0860 H   0  0  0  0  0  0  0  0  0  0  0  0
   -5.0567   -0.2685    1.2033 H   0  0  0  0  0  0  0  0  0  0  0  0
   -4.4708   -2.0451   -0.0589 H   0  0  0  0  0  0  0  0  0  0  0  0
   -2.5292   -0.4919   -1.8718 H   0  0  0  0  0  0  0  0  0  0  0  0
   -3.5261   -1.8884   -2.1624 H   0  0  0  0  0  0  0  0  0  0  0  0
   -1.4173   -2.6765   -1.9237 H   0  0  0  0  0  0  0  0  0  0  0  0
   -2.2975   -3.5415    0.8154 H   0  0  0  0  0  0  0  0  0  0  0  0
   -3.4320   -3.7514   -0.5194 H   0  0  0  0  0  0  0  0  0  0  0  0
   -1.7818   -4.4398   -0.6111 H   0  0  0  0  0  0  0  0  0  0  0  0
  1  2  1  0
  2  3  1  0
  3  4  2  0
  4  5  1  0
  5  6  1  0
  5  7  2  0
  7  8  1  0
  8  9  2  0
  8 10  1  0
 10 11  1  0
 11 12  1  0
 12 13  1  0
 13 14  1  0
 14 15  1  0
 15 16  2  0
 15 17  1  0
 17 18  2  0
 18 19  1  0
 19 20  1  0
 20 21  1  0
 20 22  1  0
 22 23  1  0
 23 24  2  0
  9  3  1  0
 23  7  1  0
  1 25  1  0
  1 26  1  0
  1 27  1  0
  4 28  1  0
  6 29  1  0
  9 30  1  0
 10 31  1  0
 10 32  1  0
 11 33  1  0
 11 34  1  0
 12 35  1  0
 12 36  1  0
 13 37  1  0
 13 38  1  0
 14 39  1  0
 14 40  1  0
 17 41  1  0
 18 42  1  0
 19 43  1  0
 19 44  1  0
 20 45  1  6
 21 46  1  0
 21 47  1  0
 21 48  1  0
M  END
$$$$
