
     RDKit          3D

 44 46  0  0  0  0  0  0  0  0999 V2000
   -4.9788   -2.0231    1.4158 C   0  0  0  0  0  0  0  0  0  0  0  0
   -5.1996   -0.8085    0.7293 O   0  0  0  0  0  0  0  0  0  0  0  0
   -4.1209   -0.2308    0.0792 C   0  0  0  0  0  0  0  0  0  0  0  0
   -2.8712   -0.8054    0.0908 C   0  0  0  0  0  0  0  0  0  0  0  0
   -1.7995   -0.2295   -0.5563 C   0  0  0  0  0  0  0  0  0  0  0  0
   -0.4455   -0.8505   -0.5447 C   0  0  0  0  0  0  0  0  0  0  0  0
    0.3513   -0.4050    0.5551 N   0  0  0  0  0  0  0  0  0  0  0  0
    1.6861   -0.9587    0.6453 C   0  0  0  0  0  0  0  0  0  0  0  0
    2.6764   -0.1695    0.2599 C   0  0  0  0  0  0  0  0  0  0  0  0
    2.3945    1.1875   -0.2266 C   0  0  0  0  0  0  0  0  0  0  0  0
    1.2079    1.5812   -0.2697 O   0  0  0  0  0  0  0  0  0  0  0  0
    3.4650    1.9983   -0.6273 N   0  0  0  0  0  0  0  0  0  0  0  0
    4.7883    1.5004   -0.5571 C   0  0  0  0  0  0  0  0  0  0  0  0
    5.7628    2.2413   -0.9229 O   0  0  0  0  0  0  0  0  0  0  0  0
    5.0826    0.1526   -0.0751 C   0  0  0  0  0  0  0  0  0  0  0  0
    6.3994   -0.2889   -0.0256 C   0  0  0  0  0  0  0  0  0  0  0  0
    6.6680   -1.5406    0.4224 C   0  0  0  0  0  0  0  0  0  0  0  0
    5.6637   -2.3855    0.8301 C   0  0  0  0  0  0  0  0  0  0  0  0
    6.0942   -4.1531    1.4582 Br  0  0  0  0  0  0  0  0  0  0  0  0
    4.3600   -1.9547    0.7834 C   0  0  0  0  0  0  0  0  0  0  0  0
    4.0481   -0.6958    0.3365 C   0  0  0  0  0  0  0  0  0  0  0  0
   -2.0097    0.9561   -1.2278 C   0  0  0  0  0  0  0  0  0  0  0  0
   -3.2525    1.5516   -1.2542 C   0  0  0  0  0  0  0  0  0  0  0  0
   -3.3636    2.7425   -1.9561 O   0  0  0  0  0  0  0  0  0  0  0  0
   -4.3185    0.9648   -0.6020 C   0  0  0  0  0  0  0  0  0  0  0  0
   -5.5548    1.5965   -0.6524 O   0  0  0  0  0  0  0  0  0  0  0  0
   -5.9675    2.5570    0.3131 C   0  0  0  0  0  0  0  0  0  0  0  0
   -4.1257   -1.8578    2.1075 H   0  0  0  0  0  0  0  0  0  0  0  0
   -5.8842   -2.3957    1.9089 H   0  0  0  0  0  0  0  0  0  0  0  0
   -4.6488   -2.8162    0.6930 H   0  0  0  0  0  0  0  0  0  0  0  0
   -2.7101   -1.7370    0.6196 H   0  0  0  0  0  0  0  0  0  0  0  0
    0.0920   -0.6195   -1.4837 H   0  0  0  0  0  0  0  0  0  0  0  0
   -0.5262   -1.9714   -0.5154 H   0  0  0  0  0  0  0  0  0  0  0  0
    0.0341    0.2753    1.2731 H   0  0  0  0  0  0  0  0  0  0  0  0
    1.7969   -1.9620    1.0137 H   0  0  0  0  0  0  0  0  0  0  0  0
    3.3365    2.9900   -0.9898 H   0  0  0  0  0  0  0  0  0  0  0  0
    7.1759    0.4129   -0.3590 H   0  0  0  0  0  0  0  0  0  0  0  0
    7.7111   -1.8657    0.4524 H   0  0  0  0  0  0  0  0  0  0  0  0
    3.5776   -2.6148    1.1017 H   0  0  0  0  0  0  0  0  0  0  0  0
   -1.1611    1.4248   -1.7480 H   0  0  0  0  0  0  0  0  0  0  0  0
   -3.1975    2.6970   -2.9575 H   0  0  0  0  0  0  0  0  0  0  0  0
   -5.0658    2.9593    0.8378 H   0  0  0  0  0  0  0  0  0  0  0  0
   -6.4877    3.4249   -0.1782 H   0  0  0  0  0  0  0  0  0  0  0  0
   -6.6834    2.1260    1.0425 H   0  0  0  0  0  0  0  0  0  0  0  0
  1  2  1  0
  2  3  1  0
  3  4  2  0
  4  5  1  0
  5  6  1  0
  6  7  1  0
  7  8  1  0
  8  9  2  0
  9 10  1  0
 10 11  2  0
 10 12  1  0
 12 13  1  0
 13 14  2  0
 13 15  1  0
 15 16  2  0
 16 17  1  0
 17 18  2  0
 18 19  1  0
 18 20  1  0
 20 21  2  0
  5 22  2  0
 22 23  1  0
 23 24  1  0
 23 25  2  0
 25 26  1  0
 26 27  1  0
 25  3  1  0
 21  9  1  0
 21 15  1  0
  1 28  1  0
  1 29  1  0
  1 30  1  0
  4 31  1  0
  6 32  1  0
  6 33  1  0
  7 34  1  0
  8 35  1  0
 12 36  1  0
 16 37  1  0
 17 38  1  0
 20 39  1  0
 22 40  1  0
 24 41  1  0
 27 42  1  0
 27 43  1  0
 27 44  1  0
M  END
$$$$
