
     RDKit          3D

 53 56  0  0  0  0  0  0  0  0999 V2000
    7.4203    2.7166   -0.1298 C   0  0  0  0  0  0  0  0  0  0  0  0
    6.9313    1.3939   -0.0430 O   0  0  0  0  0  0  0  0  0  0  0  0
    5.5983    1.1878   -0.3622 C   0  0  0  0  0  0  0  0  0  0  0  0
    4.7470    2.1986   -0.7529 C   0  0  0  0  0  0  0  0  0  0  0  0
    3.4225    1.8995   -1.0547 C   0  0  0  0  0  0  0  0  0  0  0  0
    2.9403    0.6130   -0.9720 C   0  0  0  0  0  0  0  0  0  0  0  0
    1.5218    0.2790   -1.2931 C   0  0  0  0  0  0  0  0  0  0  0  0
    0.7102    0.3943   -0.0393 C   0  0  2  0  0  0  0  0  0  0  0  0
    1.1961   -0.4785    0.8989 O   0  0  0  0  0  0  0  0  0  0  0  0
    0.1835   -1.3865    1.2289 C   0  0  0  0  0  0  0  0  0  0  0  0
    0.3419   -1.6672    2.6632 C   0  0  0  0  0  0  0  0  0  0  0  0
    0.4798   -2.8742    3.1401 C   0  0  0  0  0  0  0  0  0  0  0  0
    0.4812   -4.0136    2.2419 C   0  0  0  0  0  0  0  0  0  0  0  0
    0.6150   -5.1896    2.7015 O   0  0  0  0  0  0  0  0  0  0  0  0
    0.3281   -3.7943    0.8146 C   0  0  0  0  0  0  0  0  0  0  0  0
    0.1917   -2.5697    0.3669 C   0  0  0  0  0  0  0  0  0  0  0  0
   -1.0055   -0.7022    0.9540 O   0  0  0  0  0  0  0  0  0  0  0  0
   -0.7354    0.0086   -0.2387 C   0  0  1  0  0  0  0  0  0  0  0  0
   -1.6330    1.2151   -0.2242 C   0  0  0  0  0  0  0  0  0  0  0  0
   -3.0472    0.9096   -0.4122 C   0  0  0  0  0  0  0  0  0  0  0  0
   -3.6893    0.8503   -1.6308 C   0  0  0  0  0  0  0  0  0  0  0  0
   -5.0177    0.5600   -1.7608 C   0  0  0  0  0  0  0  0  0  0  0  0
   -5.7788    0.3111   -0.6562 C   0  0  0  0  0  0  0  0  0  0  0  0
   -7.1447    0.0120   -0.7797 O   0  0  0  0  0  0  0  0  0  0  0  0
   -7.8937   -0.2394    0.3980 C   0  0  0  0  0  0  0  0  0  0  0  0
   -5.1817    0.3587    0.5851 C   0  0  0  0  0  0  0  0  0  0  0  0
   -3.8223    0.6568    0.7018 C   0  0  0  0  0  0  0  0  0  0  0  0
    3.8155   -0.3760   -0.5786 C   0  0  0  0  0  0  0  0  0  0  0  0
    5.1171   -0.1035   -0.2785 C   0  0  0  0  0  0  0  0  0  0  0  0
    6.7453    3.3565    0.4896 H   0  0  0  0  0  0  0  0  0  0  0  0
    8.4624    2.7268    0.2542 H   0  0  0  0  0  0  0  0  0  0  0  0
    7.3815    3.0037   -1.2063 H   0  0  0  0  0  0  0  0  0  0  0  0
    5.1238    3.2029   -0.8173 H   0  0  0  0  0  0  0  0  0  0  0  0
    2.7566    2.7177   -1.3648 H   0  0  0  0  0  0  0  0  0  0  0  0
    1.5310   -0.7655   -1.6658 H   0  0  0  0  0  0  0  0  0  0  0  0
    1.1327    0.9114   -2.1195 H   0  0  0  0  0  0  0  0  0  0  0  0
    0.7169    1.4538    0.2884 H   0  0  0  0  0  0  0  0  0  0  0  0
    0.3433   -0.8370    3.3435 H   0  0  0  0  0  0  0  0  0  0  0  0
    0.5973   -3.0687    4.2159 H   0  0  0  0  0  0  0  0  0  0  0  0
    0.3315   -4.6640    0.1534 H   0  0  0  0  0  0  0  0  0  0  0  0
    0.0769   -2.4063   -0.6979 H   0  0  0  0  0  0  0  0  0  0  0  0
   -0.8152   -0.5980   -1.1322 H   0  0  0  0  0  0  0  0  0  0  0  0
   -1.3126    1.8563   -1.0945 H   0  0  0  0  0  0  0  0  0  0  0  0
   -1.4741    1.8456    0.6723 H   0  0  0  0  0  0  0  0  0  0  0  0
   -3.1001    1.0443   -2.5043 H   0  0  0  0  0  0  0  0  0  0  0  0
   -5.4690    0.5283   -2.7592 H   0  0  0  0  0  0  0  0  0  0  0  0
   -7.8197    0.6406    1.0609 H   0  0  0  0  0  0  0  0  0  0  0  0
   -7.4097   -1.0946    0.9440 H   0  0  0  0  0  0  0  0  0  0  0  0
   -8.9217   -0.5205    0.1634 H   0  0  0  0  0  0  0  0  0  0  0  0
   -5.8079    0.1574    1.4435 H   0  0  0  0  0  0  0  0  0  0  0  0
   -3.4283    0.6757    1.6993 H   0  0  0  0  0  0  0  0  0  0  0  0
    3.4920   -1.4085   -0.4955 H   0  0  0  0  0  0  0  0  0  0  0  0
    5.7747   -0.9283    0.0304 H   0  0  0  0  0  0  0  0  0  0  0  0
  1  2  1  0
  2  3  1  0
  3  4  2  0
  4  5  1  0
  5  6  2  0
  6  7  1  0
  7  8  1  0
  8  9  1  0
  9 10  1  0
 10 11  1  0
 11 12  2  0
 12 13  1  0
 13 14  2  0
 13 15  1  0
 15 16  2  0
 10 17  1  0
 17 18  1  0
 18 19  1  0
 19 20  1  0
 20 21  2  0
 21 22  1  0
 22 23  2  0
 23 24  1  0
 24 25  1  0
 23 26  1  0
 26 27  2  0
  6 28  1  0
 28 29  2  0
 29  3  1  0
 18  8  1  0
 27 20  1  0
 16 10  1  0
  1 30  1  0
  1 31  1  0
  1 32  1  0
  4 33  1  0
  5 34  1  0
  7 35  1  0
  7 36  1  0
  8 37  1  1
 11 38  1  0
 12 39  1  0
 15 40  1  0
 16 41  1  0
 18 42  1  6
 19 43  1  0
 19 44  1  0
 21 45  1  0
 22 46  1  0
 25 47  1  0
 25 48  1  0
 25 49  1  0
 26 50  1  0
 27 51  1  0
 28 52  1  0
 29 53  1  0
M  END
$$$$
