
     RDKit          3D

 57 61  0  0  0  0  0  0  0  0999 V2000
   -7.3549    1.5486   -0.1828 C   0  0  0  0  0  0  0  0  0  0  0  0
   -5.8740    1.4987   -0.0254 C   0  0  0  0  0  0  0  0  0  0  0  0
   -5.2354    2.2778    0.9124 C   0  0  0  0  0  0  0  0  0  0  0  0
   -3.8617    2.2216    1.0467 C   0  0  0  0  0  0  0  0  0  0  0  0
   -3.1445    1.3602    0.2126 C   0  0  0  0  0  0  0  0  0  0  0  0
   -1.6962    1.3354    0.3886 C   0  0  0  0  0  0  0  0  0  0  0  0
   -1.0266    2.1475   -0.2949 O   0  0  0  0  0  0  0  0  0  0  0  0
   -1.0906    0.4487    1.2758 N   0  0  0  0  0  0  0  0  0  0  0  0
   -1.9439   -0.4759    2.0431 C   0  0  0  0  0  0  0  0  0  0  0  0
   -1.3683   -1.8781    1.9925 C   0  0  0  0  0  0  0  0  0  0  0  0
    0.0007   -1.9164    2.2384 O   0  0  0  0  0  0  0  0  0  0  0  0
    0.6203   -1.1650    1.2468 C   0  0  0  0  0  0  0  0  0  0  0  0
    0.3254    0.3130    1.5446 C   0  0  1  0  0  0  0  0  0  0  0  0
    1.2099    1.1205    0.6724 C   0  0  0  0  0  0  0  0  0  0  0  0
    2.6393    0.9864    0.9280 C   0  0  0  0  0  0  0  0  0  0  0  0
    3.3774    0.2080    0.0313 C   0  0  0  0  0  0  0  0  0  0  0  0
    4.7224    0.0132    0.1736 C   0  0  0  0  0  0  0  0  0  0  0  0
    5.5680   -0.7770   -0.7077 C   0  0  0  0  0  0  0  0  0  0  0  0
    5.0648   -1.4272   -1.8119 C   0  0  0  0  0  0  0  0  0  0  0  0
    5.8808   -2.1874   -2.6586 C   0  0  0  0  0  0  0  0  0  0  0  0
    7.2234   -2.2814   -2.3706 C   0  0  0  0  0  0  0  0  0  0  0  0
    7.6771   -1.6322   -1.2834 N   0  0  0  0  0  0  0  0  0  0  0  0
    6.8900   -0.9199   -0.4973 N   0  0  0  0  0  0  0  0  0  0  0  0
    5.3334    0.6306    1.2633 C   0  0  0  0  0  0  0  0  0  0  0  0
    4.6084    1.3987    2.1491 C   0  0  0  0  0  0  0  0  0  0  0  0
    3.2521    1.5927    2.0019 C   0  0  0  0  0  0  0  0  0  0  0  0
    2.5541    2.3554    2.8883 F   0  0  0  0  0  0  0  0  0  0  0  0
   -3.7726    0.5824   -0.7219 C   0  0  0  0  0  0  0  0  0  0  0  0
   -3.0371   -0.2874   -1.5635 N   0  0  0  0  0  0  0  0  0  0  0  0
   -2.0384    0.0270   -2.3891 N   0  0  0  0  0  0  0  0  0  0  0  0
   -1.5751   -1.0456   -3.0304 C   0  0  0  0  0  0  0  0  0  0  0  0
   -2.3366   -2.0979   -2.5734 C   0  0  0  0  0  0  0  0  0  0  0  0
   -3.2032   -1.5902   -1.6915 N   0  0  0  0  0  0  0  0  0  0  0  0
   -5.1349    0.6489   -0.8437 C   0  0  0  0  0  0  0  0  0  0  0  0
   -7.8247    2.0889    0.6605 H   0  0  0  0  0  0  0  0  0  0  0  0
   -7.5267    2.1221   -1.1385 H   0  0  0  0  0  0  0  0  0  0  0  0
   -7.7191    0.4972   -0.2732 H   0  0  0  0  0  0  0  0  0  0  0  0
   -5.8063    2.9352    1.5460 H   0  0  0  0  0  0  0  0  0  0  0  0
   -3.3409    2.8254    1.7776 H   0  0  0  0  0  0  0  0  0  0  0  0
   -1.9198   -0.1400    3.0906 H   0  0  0  0  0  0  0  0  0  0  0  0
   -2.9621   -0.5275    1.6374 H   0  0  0  0  0  0  0  0  0  0  0  0
   -1.5480   -2.3387    0.9982 H   0  0  0  0  0  0  0  0  0  0  0  0
   -1.8528   -2.4429    2.8125 H   0  0  0  0  0  0  0  0  0  0  0  0
    0.1085   -1.3838    0.2872 H   0  0  0  0  0  0  0  0  0  0  0  0
    1.6774   -1.3649    1.1211 H   0  0  0  0  0  0  0  0  0  0  0  0
    0.4479    0.5204    2.6277 H   0  0  0  0  0  0  0  0  0  0  0  0
    0.9576    2.2073    0.8824 H   0  0  0  0  0  0  0  0  0  0  0  0
    1.0143    0.9942   -0.4065 H   0  0  0  0  0  0  0  0  0  0  0  0
    2.8845   -0.2672   -0.8153 H   0  0  0  0  0  0  0  0  0  0  0  0
    4.0091   -1.3686   -2.0609 H   0  0  0  0  0  0  0  0  0  0  0  0
    5.4764   -2.6990   -3.5307 H   0  0  0  0  0  0  0  0  0  0  0  0
    7.9127   -2.8636   -2.9975 H   0  0  0  0  0  0  0  0  0  0  0  0
    6.4014    0.5031    1.4167 H   0  0  0  0  0  0  0  0  0  0  0  0
    5.0855    1.8892    3.0117 H   0  0  0  0  0  0  0  0  0  0  0  0
   -0.7780   -1.1258   -3.7592 H   0  0  0  0  0  0  0  0  0  0  0  0
   -2.2560   -3.1552   -2.8698 H   0  0  0  0  0  0  0  0  0  0  0  0
   -5.6943    0.0605   -1.5631 H   0  0  0  0  0  0  0  0  0  0  0  0
  1  2  1  0
  2  3  2  0
  3  4  1  0
  4  5  2  0
  5  6  1  0
  6  7  2  0
  6  8  1  0
  8  9  1  0
  9 10  1  0
 10 11  1  0
 11 12  1  0
 12 13  1  0
 13 14  1  0
 14 15  1  0
 15 16  2  0
 16 17  1  0
 17 18  1  0
 18 19  2  0
 19 20  1  0
 20 21  2  0
 21 22  1  0
 22 23  2  0
 17 24  2  0
 24 25  1  0
 25 26  2  0
 26 27  1  0
  5 28  1  0
 28 29  1  0
 29 30  1  0
 30 31  2  0
 31 32  1  0
 32 33  2  0
 28 34  2  0
 34  2  1  0
 13  8  1  0
 26 15  1  0
 33 29  1  0
 23 18  1  0
  1 35  1  0
  1 36  1  0
  1 37  1  0
  3 38  1  0
  4 39  1  0
  9 40  1  0
  9 41  1  0
 10 42  1  0
 10 43  1  0
 12 44  1  0
 12 45  1  0
 13 46  1  1
 14 47  1  0
 14 48  1  0
 16 49  1  0
 19 50  1  0
 20 51  1  0
 21 52  1  0
 24 53  1  0
 25 54  1  0
 31 55  1  0
 32 56  1  0
 34 57  1  0
M  END
$$$$
