
     RDKit          3D

 38 39  0  0  0  0  0  0  0  0999 V2000
   -1.1052   -0.6427    0.4179 C   0  0  2  0  0  0  0  0  0  0  0  0
   -2.0799   -0.6206   -0.7528 C   0  0  0  0  0  0  0  0  0  0  0  0
   -3.2860    0.1492   -0.2778 C   0  0  0  0  0  0  0  0  0  0  0  0
   -3.3667    1.5313   -0.4429 C   0  0  0  0  0  0  0  0  0  0  0  0
   -4.4646    2.2234   -0.0093 C   0  0  0  0  0  0  0  0  0  0  0  0
   -5.5190    1.6017    0.5975 C   0  0  0  0  0  0  0  0  0  0  0  0
   -5.4657    0.2294    0.7746 C   0  0  0  0  0  0  0  0  0  0  0  0
   -4.3580   -0.4641    0.3364 C   0  0  0  0  0  0  0  0  0  0  0  0
    0.0651   -1.3229    0.1301 O   0  0  0  0  0  0  0  0  0  0  0  0
    1.2820   -0.7188    0.1175 C   0  0  0  0  0  0  0  0  0  0  0  0
    2.2524   -1.6753   -0.2068 C   0  0  0  0  0  0  0  0  0  0  0  0
    3.6136   -1.3563   -0.2988 C   0  0  0  0  0  0  0  0  0  0  0  0
    4.0275   -0.0551   -0.0638 C   0  0  0  0  0  0  0  0  0  0  0  0
    5.4545    0.3489   -0.1451 C   0  0  0  0  0  0  0  0  0  0  0  0
    5.7660    0.7902   -1.5740 C   0  0  0  0  0  0  0  0  0  0  0  0
    3.0781    0.8849    0.2544 C   0  0  0  0  0  0  0  0  0  0  0  0
    1.7445    0.5510    0.3399 C   0  0  0  0  0  0  0  0  0  0  0  0
   -1.7810   -1.2788    1.6028 C   0  0  0  0  0  0  0  0  0  0  0  0
   -2.5550   -1.7150    2.6705 O   0  0  0  0  0  0  0  0  0  0  0  0
   -0.8530   -2.1243    1.6780 O   0  0  0  0  0  0  0  0  0  0  0  0
   -0.8781    0.4187    0.6225 H   0  0  0  0  0  0  0  0  0  0  0  0
   -2.3387   -1.6454   -1.0319 H   0  0  0  0  0  0  0  0  0  0  0  0
   -1.6568   -0.0533   -1.5919 H   0  0  0  0  0  0  0  0  0  0  0  0
   -2.5463    2.0538   -0.9208 H   0  0  0  0  0  0  0  0  0  0  0  0
   -4.5483    3.3094   -0.1292 H   0  0  0  0  0  0  0  0  0  0  0  0
   -6.3853    2.1414    0.9406 H   0  0  0  0  0  0  0  0  0  0  0  0
   -6.2797   -0.2910    1.2490 H   0  0  0  0  0  0  0  0  0  0  0  0
   -4.3119   -1.5161    0.4695 H   0  0  0  0  0  0  0  0  0  0  0  0
    2.1226   -2.7357   -0.4230 H   0  0  0  0  0  0  0  0  0  0  0  0
    4.4044   -2.0319   -0.5404 H   0  0  0  0  0  0  0  0  0  0  0  0
    6.0686   -0.5371    0.0741 H   0  0  0  0  0  0  0  0  0  0  0  0
    5.5921    1.1968    0.5521 H   0  0  0  0  0  0  0  0  0  0  0  0
    5.0746    0.1917   -2.2335 H   0  0  0  0  0  0  0  0  0  0  0  0
    6.7942    0.5292   -1.8259 H   0  0  0  0  0  0  0  0  0  0  0  0
    5.5012    1.8538   -1.6987 H   0  0  0  0  0  0  0  0  0  0  0  0
    3.2975    1.9336    0.4574 H   0  0  0  0  0  0  0  0  0  0  0  0
    0.9441    1.2332    0.5840 H   0  0  0  0  0  0  0  0  0  0  0  0
   -3.3040   -2.3871    2.4655 H   0  0  0  0  0  0  0  0  0  0  0  0
  1  2  1  0
  2  3  1  0
  3  4  2  0
  4  5  1  0
  5  6  2  0
  6  7  1  0
  7  8  2  0
  1  9  1  0
  9 10  1  0
 10 11  2  0
 11 12  1  0
 12 13  2  0
 13 14  1  0
 14 15  1  0
 13 16  1  0
 16 17  2  0
  1 18  1  0
 18 19  1  0
 18 20  2  0
  8  3  1  0
 17 10  1  0
  1 21  1  1
  2 22  1  0
  2 23  1  0
  4 24  1  0
  5 25  1  0
  6 26  1  0
  7 27  1  0
  8 28  1  0
 11 29  1  0
 12 30  1  0
 14 31  1  0
 14 32  1  0
 15 33  1  0
 15 34  1  0
 15 35  1  0
 16 36  1  0
 17 37  1  0
 19 38  1  0
M  END
$$$$
