
     RDKit          3D

 43 46  0  0  0  0  0  0  0  0999 V2000
    9.5621    0.2895   -0.6371 N   0  0  0  0  0  0  0  0  0  0  0  0
    8.4005    0.2755   -0.5216 C   0  0  0  0  0  0  0  0  0  0  0  0
    6.9763    0.2782   -0.3937 C   0  0  0  0  0  0  0  0  0  0  0  0
    6.2036   -0.6500   -1.0705 C   0  0  0  0  0  0  0  0  0  0  0  0
    4.8618   -0.6485   -0.9508 N   0  0  0  0  0  0  0  0  0  0  0  0
    4.2060    0.2364   -0.1826 C   0  0  0  0  0  0  0  0  0  0  0  0
    2.7346    0.1379   -0.1318 C   0  0  0  0  0  0  0  0  0  0  0  0
    2.1549    0.9664    0.5845 O   0  0  0  0  0  0  0  0  0  0  0  0
    2.0164   -0.8265   -0.8424 N   0  0  0  0  0  0  0  0  0  0  0  0
    0.6246   -1.0296   -0.8823 C   0  0  0  0  0  0  0  0  0  0  0  0
    0.1081   -2.0460   -1.6586 C   0  0  0  0  0  0  0  0  0  0  0  0
   -1.2472   -2.3079   -1.7490 C   0  0  0  0  0  0  0  0  0  0  0  0
   -2.0963   -1.4997   -1.0190 C   0  0  0  0  0  0  0  0  0  0  0  0
   -3.4254   -1.7412   -1.0958 F   0  0  0  0  0  0  0  0  0  0  0  0
   -1.6358   -0.4718   -0.2287 C   0  0  0  0  0  0  0  0  0  0  0  0
   -2.6369    0.3304    0.5339 C   0  0  2  0  0  0  0  0  0  0  0  0
   -1.9437    1.3996    1.3644 C   0  0  0  0  0  0  0  0  0  0  0  0
   -1.2467    2.2996    0.6023 F   0  0  0  0  0  0  0  0  0  0  0  0
   -2.8485    2.0640    2.1567 F   0  0  0  0  0  0  0  0  0  0  0  0
   -3.3020   -0.5644    1.4129 N   0  0  0  0  0  0  0  0  0  0  0  0
   -4.5438   -0.7850    1.4294 C   0  0  0  0  0  0  0  0  0  0  0  0
   -5.1408   -1.7176    2.3634 N   0  0  0  0  0  0  0  0  0  0  0  0
   -5.3845   -0.1367    0.5471 O   0  0  0  0  0  0  0  0  0  0  0  0
   -4.9299    0.6984   -0.4650 C   0  0  1  0  0  0  0  0  0  0  0  0
   -4.4773    2.0861    0.0262 C   0  0  0  0  0  0  0  0  0  0  0  0
   -3.5315    1.0817   -0.4248 C   0  0  1  0  0  0  0  0  0  0  0  0
   -0.2780   -0.2503   -0.1705 C   0  0  0  0  0  0  0  0  0  0  0  0
    4.9122    1.1678    0.5027 C   0  0  0  0  0  0  0  0  0  0  0  0
    4.1010    2.3258    1.5038 Cl  0  0  0  0  0  0  0  0  0  0  0  0
    6.2943    1.1957    0.4030 C   0  0  0  0  0  0  0  0  0  0  0  0
    6.7276   -1.3803   -1.7030 H   0  0  0  0  0  0  0  0  0  0  0  0
    2.6345   -1.4845   -1.4253 H   0  0  0  0  0  0  0  0  0  0  0  0
    0.8344   -2.6523   -2.2145 H   0  0  0  0  0  0  0  0  0  0  0  0
   -1.5868   -3.1160   -2.3723 H   0  0  0  0  0  0  0  0  0  0  0  0
   -1.2521    0.8895    2.1122 H   0  0  0  0  0  0  0  0  0  0  0  0
   -5.2551   -1.4848    3.3589 H   0  0  0  0  0  0  0  0  0  0  0  0
   -5.4460   -2.6256    1.9846 H   0  0  0  0  0  0  0  0  0  0  0  0
   -5.5203    0.6781   -1.3953 H   0  0  0  0  0  0  0  0  0  0  0  0
   -4.7678    2.3414    1.0413 H   0  0  0  0  0  0  0  0  0  0  0  0
   -4.7468    2.9258   -0.6904 H   0  0  0  0  0  0  0  0  0  0  0  0
   -3.0282    1.2776   -1.4064 H   0  0  0  0  0  0  0  0  0  0  0  0
    0.0422    0.5484    0.4632 H   0  0  0  0  0  0  0  0  0  0  0  0
    6.8760    1.9246    0.9367 H   0  0  0  0  0  0  0  0  0  0  0  0
  1  2  3  0
  2  3  1  0
  3  4  2  0
  4  5  1  0
  5  6  2  0
  6  7  1  0
  7  8  2  0
  7  9  1  0
  9 10  1  0
 10 11  2  0
 11 12  1  0
 12 13  2  0
 13 14  1  0
 13 15  1  0
 15 16  1  0
 16 17  1  1
 17 18  1  0
 17 19  1  0
 16 20  1  0
 20 21  2  0
 21 22  1  0
 21 23  1  0
 23 24  1  0
 24 25  1  0
 25 26  1  0
 15 27  2  0
  6 28  1  0
 28 29  1  0
 28 30  2  0
 30  3  1  0
 27 10  1  0
 26 16  1  0
 26 24  1  0
  4 31  1  0
  9 32  1  0
 11 33  1  0
 12 34  1  0
 17 35  1  0
 22 36  1  0
 22 37  1  0
 24 38  1  6
 25 39  1  0
 25 40  1  0
 26 41  1  6
 27 42  1  0
 30 43  1  0
M  END
$$$$
