
     RDKit          3D

 76 80  0  0  0  0  0  0  0  0999 V2000
   -6.3376   -5.3911    1.7001 C   0  0  0  0  0  0  0  0  0  0  0  0
   -6.3991   -4.4548    0.5947 N   0  0  0  0  0  0  0  0  0  0  0  0
   -5.3279   -3.9930   -0.0480 C   0  0  0  0  0  0  0  0  0  0  0  0
   -5.7631   -3.1204   -1.0259 C   0  0  0  0  0  0  0  0  0  0  0  0
   -4.8636   -2.4166   -1.9213 C   0  0  0  0  0  0  0  0  0  0  0  0
   -4.3608   -1.1568   -1.2827 C   0  0  0  0  0  0  0  0  0  0  0  0
   -3.1525   -1.2353   -0.6407 C   0  0  0  0  0  0  0  0  0  0  0  0
   -2.5668   -0.1967    0.0263 N   0  0  0  0  0  0  0  0  0  0  0  0
   -1.2471   -0.3978    0.6299 C   0  0  0  0  0  0  0  0  0  0  0  0
   -0.2468   -0.3108   -0.4701 C   0  0  0  0  0  0  0  0  0  0  0  0
   -0.3287    0.5753   -1.3369 O   0  0  0  0  0  0  0  0  0  0  0  0
    0.8288   -1.2649   -0.5480 N   0  0  0  0  0  0  0  0  0  0  0  0
    0.9834   -2.2833    0.4495 C   0  0  0  0  0  0  0  0  0  0  0  0
    0.2923   -3.5750    0.1807 C   0  0  0  0  0  0  0  0  0  0  0  0
    0.5484   -4.4976    1.2976 N   0  0  0  0  0  0  0  0  0  0  0  0
    1.7281   -1.1514   -1.6755 C   0  0  0  0  0  0  0  0  0  0  0  0
    3.0040   -0.5441   -1.2845 C   0  0  0  0  0  0  0  0  0  0  0  0
    4.0373   -1.4402   -0.9504 C   0  0  0  0  0  0  0  0  0  0  0  0
    5.2373   -0.9281   -0.5711 C   0  0  0  0  0  0  0  0  0  0  0  0
    5.4994    0.4416   -0.4952 C   0  0  0  0  0  0  0  0  0  0  0  0
    6.8262    0.8621   -0.0678 C   0  0  0  0  0  0  0  0  0  0  0  0
    7.4704    0.0518    0.8339 C   0  0  0  0  0  0  0  0  0  0  0  0
    8.7330    0.3732    1.2670 C   0  0  0  0  0  0  0  0  0  0  0  0
    9.3476    1.5337    0.7770 C   0  0  0  0  0  0  0  0  0  0  0  0
   10.9601    1.8980    1.3539 Cl  0  0  0  0  0  0  0  0  0  0  0  0
    8.6671    2.3307   -0.1340 C   0  0  0  0  0  0  0  0  0  0  0  0
    7.4009    2.0074   -0.5673 C   0  0  0  0  0  0  0  0  0  0  0  0
    4.4730    1.2906   -0.8271 C   0  0  0  0  0  0  0  0  0  0  0  0
    3.2249    0.7851   -1.2208 C   0  0  0  0  0  0  0  0  0  0  0  0
   -3.2361    0.9583    0.0360 C   0  0  0  0  0  0  0  0  0  0  0  0
   -2.5579    2.3359    0.9357 S   0  0  0  0  0  0  0  0  0  0  0  0
   -1.4955    3.2926   -0.1470 C   0  0  0  0  0  0  0  0  0  0  0  0
   -1.6248    4.7587    0.0373 C   0  0  0  0  0  0  0  0  0  0  0  0
   -0.8833    5.4561    0.9800 C   0  0  0  0  0  0  0  0  0  0  0  0
   -1.0359    6.8213    1.0909 C   0  0  0  0  0  0  0  0  0  0  0  0
   -1.9089    7.4962    0.2831 C   0  0  0  0  0  0  0  0  0  0  0  0
   -2.0445    8.8351    0.4026 F   0  0  0  0  0  0  0  0  0  0  0  0
   -2.6306    6.7952   -0.6376 C   0  0  0  0  0  0  0  0  0  0  0  0
   -2.4994    5.4431   -0.7683 C   0  0  0  0  0  0  0  0  0  0  0  0
   -4.4434    1.0751   -0.5953 N   0  0  0  0  0  0  0  0  0  0  0  0
   -5.0141    0.0280   -1.2554 C   0  0  0  0  0  0  0  0  0  0  0  0
   -6.1310    0.1116   -1.8450 O   0  0  0  0  0  0  0  0  0  0  0  0
   -7.1148   -3.0854   -0.9385 C   0  0  0  0  0  0  0  0  0  0  0  0
   -7.4996   -3.9196    0.0743 N   0  0  0  0  0  0  0  0  0  0  0  0
   -7.3384   -5.7359    1.9311 H   0  0  0  0  0  0  0  0  0  0  0  0
   -5.6559   -6.2385    1.4593 H   0  0  0  0  0  0  0  0  0  0  0  0
   -5.8521   -4.8330    2.5322 H   0  0  0  0  0  0  0  0  0  0  0  0
   -4.2863   -4.2416    0.1439 H   0  0  0  0  0  0  0  0  0  0  0  0
   -3.9448   -3.0248   -2.1841 H   0  0  0  0  0  0  0  0  0  0  0  0
   -5.3124   -2.1120   -2.9021 H   0  0  0  0  0  0  0  0  0  0  0  0
   -2.6090   -2.1652   -0.6510 H   0  0  0  0  0  0  0  0  0  0  0  0
   -1.0947    0.5505    1.2397 H   0  0  0  0  0  0  0  0  0  0  0  0
   -1.1896   -1.2908    1.2329 H   0  0  0  0  0  0  0  0  0  0  0  0
    2.0839   -2.5150    0.5077 H   0  0  0  0  0  0  0  0  0  0  0  0
    0.7202   -1.8885    1.4598 H   0  0  0  0  0  0  0  0  0  0  0  0
    0.7336   -4.1018   -0.7069 H   0  0  0  0  0  0  0  0  0  0  0  0
   -0.7964   -3.4899    0.0036 H   0  0  0  0  0  0  0  0  0  0  0  0
   -0.3754   -4.8114    1.7140 H   0  0  0  0  0  0  0  0  0  0  0  0
    1.0777   -3.9847    2.0505 H   0  0  0  0  0  0  0  0  0  0  0  0
    1.9022   -2.1814   -2.1063 H   0  0  0  0  0  0  0  0  0  0  0  0
    1.2115   -0.6058   -2.4913 H   0  0  0  0  0  0  0  0  0  0  0  0
    3.8707   -2.4965   -1.0107 H   0  0  0  0  0  0  0  0  0  0  0  0
    6.0202   -1.6513   -0.3238 H   0  0  0  0  0  0  0  0  0  0  0  0
    7.0171   -0.8564    1.2382 H   0  0  0  0  0  0  0  0  0  0  0  0
    9.2497   -0.2480    1.9724 H   0  0  0  0  0  0  0  0  0  0  0  0
    9.2002    3.2118   -0.4741 H   0  0  0  0  0  0  0  0  0  0  0  0
    6.8699    2.6268   -1.2735 H   0  0  0  0  0  0  0  0  0  0  0  0
    4.6486    2.3613   -0.7770 H   0  0  0  0  0  0  0  0  0  0  0  0
    2.4467    1.5137   -1.4777 H   0  0  0  0  0  0  0  0  0  0  0  0
   -1.7734    3.0553   -1.1993 H   0  0  0  0  0  0  0  0  0  0  0  0
   -0.4277    3.0120   -0.0229 H   0  0  0  0  0  0  0  0  0  0  0  0
   -0.2106    4.8899    1.5941 H   0  0  0  0  0  0  0  0  0  0  0  0
   -0.4630    7.3871    1.8217 H   0  0  0  0  0  0  0  0  0  0  0  0
   -3.3435    7.2888   -1.3126 H   0  0  0  0  0  0  0  0  0  0  0  0
   -3.0794    4.9218   -1.5039 H   0  0  0  0  0  0  0  0  0  0  0  0
   -7.8477   -2.5406   -1.5104 H   0  0  0  0  0  0  0  0  0  0  0  0
  1  2  1  0
  2  3  1  0
  3  4  2  0
  4  5  1  0
  5  6  1  0
  6  7  2  0
  7  8  1  0
  8  9  1  0
  9 10  1  0
 10 11  2  0
 10 12  1  0
 12 13  1  0
 13 14  1  0
 14 15  1  0
 12 16  1  0
 16 17  1  0
 17 18  2  0
 18 19  1  0
 19 20  2  0
 20 21  1  0
 21 22  2  0
 22 23  1  0
 23 24  2  0
 24 25  1  0
 24 26  1  0
 26 27  2  0
 20 28  1  0
 28 29  2  0
  8 30  1  0
 30 31  1  0
 31 32  1  0
 32 33  1  0
 33 34  2  0
 34 35  1  0
 35 36  2  0
 36 37  1  0
 36 38  1  0
 38 39  2  0
 30 40  2  0
 40 41  1  0
 41 42  2  0
  4 43  1  0
 43 44  2  0
 44  2  1  0
 41  6  1  0
 29 17  1  0
 39 33  1  0
 27 21  1  0
  1 45  1  0
  1 46  1  0
  1 47  1  0
  3 48  1  0
  5 49  1  0
  5 50  1  0
  7 51  1  0
  9 52  1  0
  9 53  1  0
 13 54  1  0
 13 55  1  0
 14 56  1  0
 14 57  1  0
 15 58  1  0
 15 59  1  0
 16 60  1  0
 16 61  1  0
 18 62  1  0
 19 63  1  0
 22 64  1  0
 23 65  1  0
 26 66  1  0
 27 67  1  0
 28 68  1  0
 29 69  1  0
 32 70  1  0
 32 71  1  0
 34 72  1  0
 35 73  1  0
 38 74  1  0
 39 75  1  0
 43 76  1  0
M  END
$$$$
