
     RDKit          3D

 43 44  0  0  0  0  0  0  0  0999 V2000
    0.1442   -0.3939   -2.2364 C   0  0  0  0  0  0  0  0  0  0  0  0
    0.2025   -1.0878   -0.9255 C   0  0  0  0  0  0  0  0  0  0  0  0
    1.2968   -0.5437   -0.0778 C   0  0  0  0  0  0  0  0  0  0  0  0
    2.5441   -0.6238   -0.7735 O   0  0  0  0  0  0  0  0  0  0  0  0
    3.7002   -0.1653   -0.1385 C   0  0  0  0  0  0  0  0  0  0  0  0
    4.8237   -0.3024   -0.9321 C   0  0  0  0  0  0  0  0  0  0  0  0
    6.0654    0.1005   -0.4631 C   0  0  0  0  0  0  0  0  0  0  0  0
    6.0761    0.6351    0.8299 C   0  0  0  0  0  0  0  0  0  0  0  0
    4.9549    0.7682    1.6129 C   0  0  0  0  0  0  0  0  0  0  0  0
    3.7314    0.3641    1.1342 C   0  0  0  0  0  0  0  0  0  0  0  0
   -1.1132   -1.0305   -0.1924 N   0  0  0  0  0  0  0  0  0  0  0  0
   -2.0715   -1.6980   -0.9403 C   0  0  0  0  0  0  0  0  0  0  0  0
   -3.2923   -2.3082   -0.3710 C   0  0  0  0  0  0  0  0  0  0  0  0
   -4.4877   -1.3498    0.4237 Cl  0  0  0  0  0  0  0  0  0  0  0  0
   -1.2280    0.2151    0.3990 C   0  0  0  0  0  0  0  0  0  0  0  0
   -2.3495    0.8135    1.0364 C   0  0  0  0  0  0  0  0  0  0  0  0
   -2.6079    0.6202    2.4022 C   0  0  0  0  0  0  0  0  0  0  0  0
   -3.6812    1.2770    2.9648 C   0  0  0  0  0  0  0  0  0  0  0  0
   -4.4811    2.1029    2.2046 C   0  0  0  0  0  0  0  0  0  0  0  0
   -4.2372    2.3074    0.8399 C   0  0  0  0  0  0  0  0  0  0  0  0
   -3.1552    1.6555    0.2357 C   0  0  0  0  0  0  0  0  0  0  0  0
    0.3178    0.6936   -2.0669 H   0  0  0  0  0  0  0  0  0  0  0  0
    0.9869   -0.8325   -2.8534 H   0  0  0  0  0  0  0  0  0  0  0  0
   -0.7568   -0.6132   -2.8398 H   0  0  0  0  0  0  0  0  0  0  0  0
    0.3511   -2.1661   -1.0790 H   0  0  0  0  0  0  0  0  0  0  0  0
    1.4377   -1.0294    0.8984 H   0  0  0  0  0  0  0  0  0  0  0  0
    1.1364    0.5760    0.0432 H   0  0  0  0  0  0  0  0  0  0  0  0
    4.8381   -0.7093   -1.9254 H   0  0  0  0  0  0  0  0  0  0  0  0
    7.0299    0.0644   -0.9468 H   0  0  0  0  0  0  0  0  0  0  0  0
    7.0041    0.9849    1.3002 H   0  0  0  0  0  0  0  0  0  0  0  0
    5.0061    1.1885    2.6195 H   0  0  0  0  0  0  0  0  0  0  0  0
    2.8020    0.4354    1.6837 H   0  0  0  0  0  0  0  0  0  0  0  0
   -1.5273   -2.5640   -1.4575 H   0  0  0  0  0  0  0  0  0  0  0  0
   -2.4202   -1.1173   -1.8585 H   0  0  0  0  0  0  0  0  0  0  0  0
   -3.0327   -3.1907    0.3069 H   0  0  0  0  0  0  0  0  0  0  0  0
   -3.8181   -2.8483   -1.2438 H   0  0  0  0  0  0  0  0  0  0  0  0
   -0.7871    1.0077   -0.3116 H   0  0  0  0  0  0  0  0  0  0  0  0
   -0.3872    0.2337    1.2119 H   0  0  0  0  0  0  0  0  0  0  0  0
   -1.9620   -0.0346    2.9693 H   0  0  0  0  0  0  0  0  0  0  0  0
   -3.9113    1.1576    4.0000 H   0  0  0  0  0  0  0  0  0  0  0  0
   -5.3452    2.6583    2.5599 H   0  0  0  0  0  0  0  0  0  0  0  0
   -4.8657    2.9622    0.2155 H   0  0  0  0  0  0  0  0  0  0  0  0
   -2.9309    1.7870   -0.8171 H   0  0  0  0  0  0  0  0  0  0  0  0
  1  2  1  0
  2  3  1  0
  3  4  1  0
  4  5  1  0
  5  6  2  0
  6  7  1  0
  7  8  2  0
  8  9  1  0
  9 10  2  0
  2 11  1  0
 11 12  1  0
 12 13  1  0
 13 14  1  0
 11 15  1  0
 15 16  1  0
 16 17  2  0
 17 18  1  0
 18 19  2  0
 19 20  1  0
 20 21  2  0
 10  5  1  0
 21 16  1  0
  1 22  1  0
  1 23  1  0
  1 24  1  0
  2 25  1  0
  3 26  1  0
  3 27  1  0
  6 28  1  0
  7 29  1  0
  8 30  1  0
  9 31  1  0
 10 32  1  0
 12 33  1  0
 12 34  1  0
 13 35  1  0
 13 36  1  0
 15 37  1  0
 15 38  1  0
 17 39  1  0
 18 40  1  0
 19 41  1  0
 20 42  1  0
 21 43  1  0
M  END
$$$$
