
     RDKit          3D

 41 44  0  0  0  0  0  0  0  0999 V2000
    3.4967   -0.8949    4.0271 N   0  0  0  0  0  0  0  0  0  0  0  0
    2.3617   -0.8151    3.1519 C   0  0  0  0  0  0  0  0  0  0  0  0
    2.1109   -0.5197    1.8239 C   0  0  0  0  0  0  0  0  0  0  0  0
    0.7759   -0.6549    1.7194 N   0  0  0  0  0  0  0  0  0  0  0  0
    0.0096   -0.5004    0.6469 C   0  0  0  0  0  0  0  0  0  0  0  0
   -1.3561   -0.6696    0.6171 C   0  0  0  0  0  0  0  0  0  0  0  0
   -1.9307   -1.0318    1.8278 C   0  0  0  0  0  0  0  0  0  0  0  0
   -1.1636   -1.2018    2.9599 C   0  0  0  0  0  0  0  0  0  0  0  0
    0.2042   -1.0017    2.8614 C   0  0  0  0  0  0  0  0  0  0  0  0
    1.1880   -1.1007    3.7483 N   0  0  0  0  0  0  0  0  0  0  0  0
   -2.1294   -0.5122   -0.5926 C   0  0  0  0  0  0  0  0  0  0  0  0
   -1.4279   -0.8895   -1.5948 O   0  0  0  0  0  0  0  0  0  0  0  0
   -3.4557   -0.0454   -0.9076 C   0  0  0  0  0  0  0  0  0  0  0  0
   -3.9464   -0.3597   -2.1720 C   0  0  0  0  0  0  0  0  0  0  0  0
   -3.2609   -1.0844   -3.0889 F   0  0  0  0  0  0  0  0  0  0  0  0
   -5.2048    0.0827   -2.5333 C   0  0  0  0  0  0  0  0  0  0  0  0
   -6.0163    0.8277   -1.7052 C   0  0  0  0  0  0  0  0  0  0  0  0
   -5.5545    1.1626   -0.4266 C   0  0  0  0  0  0  0  0  0  0  0  0
   -4.2988    0.6991   -0.1178 C   0  0  0  0  0  0  0  0  0  0  0  0
   -3.8566    1.0612    1.1170 F   0  0  0  0  0  0  0  0  0  0  0  0
    3.2135   -0.1973    0.9602 C   0  0  0  0  0  0  0  0  0  0  0  0
    4.3561   -0.4640    1.4905 O   0  0  0  0  0  0  0  0  0  0  0  0
    3.4507    0.3494   -0.3555 C   0  0  0  0  0  0  0  0  0  0  0  0
    2.6405    1.2689   -1.0045 C   0  0  0  0  0  0  0  0  0  0  0  0
    2.7694    1.8023   -2.2636 C   0  0  0  0  0  0  0  0  0  0  0  0
    3.8664    1.3432   -2.9572 C   0  0  0  0  0  0  0  0  0  0  0  0
    4.7292    0.4321   -2.3986 C   0  0  0  0  0  0  0  0  0  0  0  0
    4.5264   -0.0522   -1.1308 C   0  0  0  0  0  0  0  0  0  0  0  0
    3.9342   -1.8246    4.2346 H   0  0  0  0  0  0  0  0  0  0  0  0
    4.0369   -0.1572    4.5551 H   0  0  0  0  0  0  0  0  0  0  0  0
    0.4419   -0.2456   -0.2847 H   0  0  0  0  0  0  0  0  0  0  0  0
   -2.9630   -1.2175    1.9707 H   0  0  0  0  0  0  0  0  0  0  0  0
   -1.5559   -1.4824    3.9239 H   0  0  0  0  0  0  0  0  0  0  0  0
   -5.6163   -0.1522   -3.5280 H   0  0  0  0  0  0  0  0  0  0  0  0
   -7.0031    1.1781   -1.9770 H   0  0  0  0  0  0  0  0  0  0  0  0
   -6.1454    1.7428    0.2643 H   0  0  0  0  0  0  0  0  0  0  0  0
    1.7698    1.6549   -0.4566 H   0  0  0  0  0  0  0  0  0  0  0  0
    2.0844    2.5087   -2.6730 H   0  0  0  0  0  0  0  0  0  0  0  0
    4.0811    1.6813   -3.9517 H   0  0  0  0  0  0  0  0  0  0  0  0
    5.6121    0.0548   -2.9399 H   0  0  0  0  0  0  0  0  0  0  0  0
    5.2261   -0.7750   -0.7094 H   0  0  0  0  0  0  0  0  0  0  0  0
  1  2  1  0
  2  3  2  0
  3  4  1  0
  4  5  1  0
  5  6  2  0
  6  7  1  0
  7  8  2  0
  8  9  1  0
  9 10  2  0
  6 11  1  0
 11 12  2  0
 11 13  1  0
 13 14  2  0
 14 15  1  0
 14 16  1  0
 16 17  2  0
 17 18  1  0
 18 19  2  0
 19 20  1  0
  3 21  1  0
 21 22  2  0
 21 23  1  0
 23 24  2  0
 24 25  1  0
 25 26  2  0
 26 27  1  0
 27 28  2  0
 10  2  1  0
 19 13  1  0
 28 23  1  0
  9  4  1  0
  1 29  1  0
  1 30  1  0
  5 31  1  0
  7 32  1  0
  8 33  1  0
 16 34  1  0
 17 35  1  0
 18 36  1  0
 24 37  1  0
 25 38  1  0
 26 39  1  0
 27 40  1  0
 28 41  1  0
M  END
$$$$
