
     RDKit          3D

 48 51  0  0  0  0  0  0  0  0999 V2000
    2.4485    1.3687   -1.7039 C   0  0  0  0  0  0  0  0  0  0  0  0
    2.2532    0.2742   -0.6643 C   0  0  1  0  0  0  0  0  0  0  0  0
    0.9091   -0.2625   -0.7576 C   0  0  0  0  0  0  0  0  0  0  0  0
   -0.0010   -0.1725    0.2734 C   0  0  0  0  0  0  0  0  0  0  0  0
   -1.2956   -0.6944    0.1720 C   0  0  0  0  0  0  0  0  0  0  0  0
   -2.2212   -0.6000    1.2275 N   0  0  0  0  0  0  0  0  0  0  0  0
   -3.5255   -1.1375    1.0970 C   0  0  0  0  0  0  0  0  0  0  0  0
   -3.7758   -2.4285    1.4606 N   0  0  0  0  0  0  0  0  0  0  0  0
   -4.9997   -2.9546    1.3453 C   0  0  0  0  0  0  0  0  0  0  0  0
   -6.0352   -2.2511    0.8719 N   0  0  0  0  0  0  0  0  0  0  0  0
   -5.8582   -0.9811    0.4980 C   0  0  0  0  0  0  0  0  0  0  0  0
   -6.9504   -0.2902    0.0154 C   0  0  0  0  0  0  0  0  0  0  0  0
   -6.7497    1.0219   -0.3667 C   0  0  0  0  0  0  0  0  0  0  0  0
   -8.0882    1.9789   -0.9942 Cl  0  0  0  0  0  0  0  0  0  0  0  0
   -5.4778    1.5522   -0.2415 C   0  0  0  0  0  0  0  0  0  0  0  0
   -4.4349    0.8403    0.2363 N   0  0  0  0  0  0  0  0  0  0  0  0
   -4.6004   -0.4257    0.6117 C   0  0  0  0  0  0  0  0  0  0  0  0
   -1.6756   -1.3190   -0.9947 C   0  0  0  0  0  0  0  0  0  0  0  0
   -0.7891   -1.4204   -2.0320 C   0  0  0  0  0  0  0  0  0  0  0  0
    0.4882   -0.8949   -1.9066 C   0  0  0  0  0  0  0  0  0  0  0  0
    1.3254   -1.0118   -2.9378 F   0  0  0  0  0  0  0  0  0  0  0  0
    3.3346   -0.7906   -0.8146 C   0  0  0  0  0  0  0  0  0  0  0  0
    4.8576    0.1220   -0.8600 S   0  0  0  0  0  6  0  0  0  0  0  0
    5.9824   -0.8694   -0.7382 O   0  0  0  0  0  0  0  0  0  0  0  0
    5.0437    0.8285   -2.1684 O   0  0  0  0  0  0  0  0  0  0  0  0
    4.7825    1.2328    0.5028 C   0  0  1  0  0  0  0  0  0  0  0  0
    5.7796    0.6890    1.5453 C   0  0  0  0  0  0  0  0  0  0  0  0
    5.2792    2.4869    0.1857 F   0  0  0  0  0  0  0  0  0  0  0  0
    3.4795    1.2971    1.1706 C   0  0  0  0  0  0  0  0  0  0  0  0
    3.4094    1.8692    2.5033 N   0  0  0  0  0  0  0  0  0  0  0  0
    2.4208    0.8723    0.6277 N   0  0  0  0  0  0  0  0  0  0  0  0
    3.0977    2.1779   -1.3679 H   0  0  0  0  0  0  0  0  0  0  0  0
    1.4568    1.8529   -1.9471 H   0  0  0  0  0  0  0  0  0  0  0  0
    2.7642    0.9055   -2.6732 H   0  0  0  0  0  0  0  0  0  0  0  0
    0.2944    0.3154    1.1861 H   0  0  0  0  0  0  0  0  0  0  0  0
   -2.0028   -0.1400    2.1420 H   0  0  0  0  0  0  0  0  0  0  0  0
   -5.1689   -3.9968    1.6465 H   0  0  0  0  0  0  0  0  0  0  0  0
   -7.9364   -0.7167   -0.0766 H   0  0  0  0  0  0  0  0  0  0  0  0
   -5.3778    2.5951   -0.5593 H   0  0  0  0  0  0  0  0  0  0  0  0
   -2.6657   -1.7450   -1.1368 H   0  0  0  0  0  0  0  0  0  0  0  0
   -1.0623   -1.9092   -2.9666 H   0  0  0  0  0  0  0  0  0  0  0  0
    3.3796   -1.3517    0.1625 H   0  0  0  0  0  0  0  0  0  0  0  0
    3.1913   -1.4370   -1.6728 H   0  0  0  0  0  0  0  0  0  0  0  0
    5.6013    1.1054    2.5345 H   0  0  0  0  0  0  0  0  0  0  0  0
    6.8119    0.7605    1.1760 H   0  0  0  0  0  0  0  0  0  0  0  0
    5.5455   -0.4091    1.6046 H   0  0  0  0  0  0  0  0  0  0  0  0
    3.5302    2.8641    2.6977 H   0  0  0  0  0  0  0  0  0  0  0  0
    3.2257    1.1987    3.2678 H   0  0  0  0  0  0  0  0  0  0  0  0
  2  1  1  6
  2  3  1  0
  3  4  2  0
  4  5  1  0
  5  6  1  0
  6  7  1  0
  7  8  2  0
  8  9  1  0
  9 10  2  0
 10 11  1  0
 11 12  2  0
 12 13  1  0
 13 14  1  0
 13 15  2  0
 15 16  1  0
 16 17  2  0
  5 18  2  0
 18 19  1  0
 19 20  2  0
 20 21  1  0
  2 22  1  0
 22 23  1  0
 23 24  2  0
 23 25  2  0
 23 26  1  0
 26 27  1  0
 26 28  1  6
 26 29  1  0
 29 30  1  0
 29 31  2  0
 31  2  1  0
 20  3  1  0
 17  7  1  0
 17 11  1  0
  1 32  1  0
  1 33  1  0
  1 34  1  0
  4 35  1  0
  6 36  1  0
  9 37  1  0
 12 38  1  0
 15 39  1  0
 18 40  1  0
 19 41  1  0
 22 42  1  0
 22 43  1  0
 27 44  1  0
 27 45  1  0
 27 46  1  0
 30 47  1  0
 30 48  1  0
M  END
$$$$
