
     RDKit          3D

 24 25  0  0  0  0  0  0  0  0999 V2000
    3.7589    0.3001    1.3187 N   0  0  0  0  0  0  0  0  0  0  0  0
    3.1447   -0.2920   -0.1794 S   0  0  0  0  0  0  0  0  0  0  0  0
    3.2976   -1.7902   -0.1812 O   0  0  0  0  0  0  0  0  0  0  0  0
    3.8475    0.3133   -1.3721 O   0  0  0  0  0  0  0  0  0  0  0  0
    1.4405    0.0472   -0.3560 C   0  0  0  0  0  0  0  0  0  0  0  0
    1.0324    1.2443   -0.9552 C   0  0  0  0  0  0  0  0  0  0  0  0
   -0.3240    1.5442   -1.1108 C   0  0  0  0  0  0  0  0  0  0  0  0
   -1.2236    0.5974   -0.6421 C   0  0  0  0  0  0  0  0  0  0  0  0
   -2.7100    0.6465   -0.6731 C   0  0  0  0  0  0  0  0  0  0  0  0
   -3.0420   -0.2011    0.5503 C   0  0  0  0  0  0  0  0  0  0  0  0
   -2.0642   -1.3539    0.3283 C   0  0  0  0  0  0  0  0  0  0  0  0
   -0.8311   -0.5854   -0.0500 C   0  0  0  0  0  0  0  0  0  0  0  0
    0.5095   -0.8703    0.0979 C   0  0  0  0  0  0  0  0  0  0  0  0
    4.7692    0.5304    1.1888 H   0  0  0  0  0  0  0  0  0  0  0  0
    3.6079   -0.4606    2.0468 H   0  0  0  0  0  0  0  0  0  0  0  0
    1.7421    1.9850   -1.3219 H   0  0  0  0  0  0  0  0  0  0  0  0
   -0.6606    2.4635   -1.5711 H   0  0  0  0  0  0  0  0  0  0  0  0
   -3.0084    0.1446   -1.6106 H   0  0  0  0  0  0  0  0  0  0  0  0
   -3.1036    1.6735   -0.5818 H   0  0  0  0  0  0  0  0  0  0  0  0
   -4.0779   -0.5230    0.5951 H   0  0  0  0  0  0  0  0  0  0  0  0
   -2.6884    0.3541    1.4409 H   0  0  0  0  0  0  0  0  0  0  0  0
   -1.9094   -1.9505    1.2436 H   0  0  0  0  0  0  0  0  0  0  0  0
   -2.3668   -2.0326   -0.4720 H   0  0  0  0  0  0  0  0  0  0  0  0
    0.8598   -1.7844    0.5557 H   0  0  0  0  0  0  0  0  0  0  0  0
  1  2  1  0
  2  3  2  0
  2  4  2  0
  2  5  1  0
  5  6  2  0
  6  7  1  0
  7  8  2  0
  8  9  1  0
  9 10  1  0
 10 11  1  0
 11 12  1  0
 12 13  2  0
 13  5  1  0
 12  8  1  0
  1 14  1  0
  1 15  1  0
  6 16  1  0
  7 17  1  0
  9 18  1  0
  9 19  1  0
 10 20  1  0
 10 21  1  0
 11 22  1  0
 11 23  1  0
 13 24  1  0
M  END
$$$$
