
     RDKit          3D

 37 39  0  0  0  0  0  0  0  0999 V2000
    6.3586    1.4563    0.2756 C   0  0  0  0  0  0  0  0  0  0  0  0
    4.9653    1.3985    0.4447 O   0  0  0  0  0  0  0  0  0  0  0  0
    4.1772    0.3210    0.0086 C   0  0  0  0  0  0  0  0  0  0  0  0
    2.8283    0.4985    0.2912 C   0  0  0  0  0  0  0  0  0  0  0  0
    1.9472   -0.4973   -0.0901 C   0  0  0  0  0  0  0  0  0  0  0  0
    2.3555   -1.6457   -0.7326 C   0  0  0  0  0  0  0  0  0  0  0  0
    3.7057   -1.7638   -0.9851 C   0  0  0  0  0  0  0  0  0  0  0  0
    4.6353   -0.8114   -0.6329 C   0  0  0  0  0  0  0  0  0  0  0  0
    0.5482   -0.3170    0.2010 N   0  0  0  0  0  0  0  0  0  0  0  0
   -0.2667   -0.6877    1.3692 C   0  0  0  0  0  0  0  0  0  0  0  0
   -1.3492    0.3499    1.5146 C   0  0  0  0  0  0  0  0  0  0  0  0
   -2.4495    0.1441    0.5374 C   0  0  0  0  0  0  0  0  0  0  0  0
   -2.0048    0.2042   -0.7519 C   0  0  0  0  0  0  0  0  0  0  0  0
   -3.4360   -0.0592   -1.7296 S   0  0  0  0  0  0  0  0  0  0  0  0
   -4.5762   -0.2398   -0.3644 C   0  0  0  0  0  0  0  0  0  0  0  0
   -3.7675   -0.0826    0.7996 C   0  0  0  0  0  0  0  0  0  0  0  0
   -6.3278   -0.5474   -0.4744 S   0  0  0  0  0  0  0  0  0  0  0  0
   -7.1167    0.7177   -1.3305 N   0  0  0  0  0  0  0  0  0  0  0  0
   -6.8365   -0.7523    0.8968 O   0  0  0  0  0  0  0  0  0  0  0  0
   -6.4523   -1.8022   -1.2903 O   0  0  0  0  0  0  0  0  0  0  0  0
   -0.3060    0.4943   -1.0933 S   0  0  0  0  0  0  0  0  0  0  0  0
    0.0540   -0.1728   -2.3999 O   0  0  0  0  0  0  0  0  0  0  0  0
    0.0219    1.9469   -1.0727 O   0  0  0  0  0  0  0  0  0  0  0  0
    6.8991    1.1738    1.2080 H   0  0  0  0  0  0  0  0  0  0  0  0
    6.7388    0.8763   -0.5905 H   0  0  0  0  0  0  0  0  0  0  0  0
    6.6238    2.5281    0.0957 H   0  0  0  0  0  0  0  0  0  0  0  0
    2.4218    1.3671    0.7911 H   0  0  0  0  0  0  0  0  0  0  0  0
    1.6768   -2.4374   -1.0388 H   0  0  0  0  0  0  0  0  0  0  0  0
    4.1058   -2.6480   -1.4920 H   0  0  0  0  0  0  0  0  0  0  0  0
    5.6912   -0.8606   -0.8083 H   0  0  0  0  0  0  0  0  0  0  0  0
   -0.7201   -1.6619    1.1457 H   0  0  0  0  0  0  0  0  0  0  0  0
    0.3517   -0.6676    2.2726 H   0  0  0  0  0  0  0  0  0  0  0  0
   -1.6735    0.3364    2.5700 H   0  0  0  0  0  0  0  0  0  0  0  0
   -0.8997    1.3711    1.3646 H   0  0  0  0  0  0  0  0  0  0  0  0
   -4.2375   -0.1516    1.7686 H   0  0  0  0  0  0  0  0  0  0  0  0
   -7.2446    1.5354   -0.6695 H   0  0  0  0  0  0  0  0  0  0  0  0
   -6.4412    1.0865   -2.0486 H   0  0  0  0  0  0  0  0  0  0  0  0
  1  2  1  0
  2  3  1  0
  3  4  2  0
  4  5  1  0
  5  6  2  0
  6  7  1  0
  7  8  2  0
  5  9  1  0
  9 10  1  0
 10 11  1  0
 11 12  1  0
 12 13  2  0
 13 14  1  0
 14 15  1  0
 15 16  2  0
 15 17  1  0
 17 18  1  0
 17 19  2  0
 17 20  2  0
 13 21  1  0
 21 22  2  0
 21 23  2  0
  8  3  1  0
 21  9  1  0
 16 12  1  0
  1 24  1  0
  1 25  1  0
  1 26  1  0
  4 27  1  0
  6 28  1  0
  7 29  1  0
  8 30  1  0
 10 31  1  0
 10 32  1  0
 11 33  1  0
 11 34  1  0
 16 35  1  0
 18 36  1  0
 18 37  1  0
M  END
$$$$
