
     RDKit          3D

 71 76  0  0  0  0  0  0  0  0999 V2000
   -6.5165    2.8025    0.6298 C   0  0  0  0  0  0  0  0  0  0  0  0
   -7.0589    1.8928   -0.3609 N   0  0  0  0  0  0  0  0  0  0  0  0
   -8.4924    1.9506   -0.5778 C   0  0  0  0  0  0  0  0  0  0  0  0
   -6.2902    0.9857   -1.0995 C   0  0  0  0  0  0  0  0  0  0  0  0
   -6.8203    0.2402   -1.9334 O   0  0  0  0  0  0  0  0  0  0  0  0
   -4.8533    0.9171   -0.8885 C   0  0  0  0  0  0  0  0  0  0  0  0
   -4.0146    1.9661   -1.3122 C   0  0  0  0  0  0  0  0  0  0  0  0
   -2.7483    1.5873   -0.9433 C   0  0  0  0  0  0  0  0  0  0  0  0
   -1.4918    2.1776   -1.0625 C   0  0  0  0  0  0  0  0  0  0  0  0
   -0.4434    1.5101   -0.5606 N   0  0  0  0  0  0  0  0  0  0  0  0
   -0.4768    0.3259    0.0474 C   0  0  0  0  0  0  0  0  0  0  0  0
    0.6723   -0.3000    0.5888 N   0  0  0  0  0  0  0  0  0  0  0  0
    1.9921    0.1589    0.5216 C   0  0  0  0  0  0  0  0  0  0  0  0
    2.4164    1.2513   -0.1777 C   0  0  0  0  0  0  0  0  0  0  0  0
    3.7432    1.7096   -0.1681 C   0  0  0  0  0  0  0  0  0  0  0  0
    4.6672    1.0357    0.5781 C   0  0  0  0  0  0  0  0  0  0  0  0
    6.0328    1.4761    0.6333 C   0  0  0  0  0  0  0  0  0  0  0  0
    6.2362    2.6159    1.1543 O   0  0  0  0  0  0  0  0  0  0  0  0
    7.1419    0.7082    0.1383 N   0  0  0  0  0  0  0  0  0  0  0  0
    6.9063   -0.5732   -0.4543 C   0  0  0  0  0  0  0  0  0  0  0  0
    8.1524   -1.2531   -0.9761 C   0  0  0  0  0  0  0  0  0  0  0  0
    8.8871   -1.8266    0.2359 C   0  0  0  0  0  0  0  0  0  0  0  0
    9.9333   -0.7662    0.4885 C   0  0  0  0  0  0  0  0  0  0  0  0
    9.5240    0.4188   -0.3626 C   0  0  0  0  0  0  0  0  0  0  0  0
    8.4879    1.2763    0.2624 C   0  0  0  0  0  0  0  0  0  0  0  0
    8.9884   -0.2286   -1.5361 N   0  0  0  0  0  0  0  0  0  0  0  0
    4.2466   -0.0605    1.2804 C   0  0  0  0  0  0  0  0  0  0  0  0
    2.9567   -0.4803    1.2496 N   0  0  0  0  0  0  0  0  0  0  0  0
   -1.7082   -0.2491    0.1587 N   0  0  0  0  0  0  0  0  0  0  0  0
   -2.8139    0.3644   -0.3234 C   0  0  0  0  0  0  0  0  0  0  0  0
   -4.1318   -0.0369   -0.2997 N   0  0  0  0  0  0  0  0  0  0  0  0
   -4.5646   -1.2952    0.2659 C   0  0  0  0  0  0  0  0  0  0  0  0
   -5.7167   -1.0789    1.2094 C   0  0  0  0  0  0  0  0  0  0  0  0
   -6.9168   -1.8941    0.8393 C   0  0  0  0  0  0  0  0  0  0  0  0
   -6.4579   -3.3500    0.8094 C   0  0  0  0  0  0  0  0  0  0  0  0
   -5.5783   -3.5075   -0.3831 C   0  0  0  0  0  0  0  0  0  0  0  0
   -4.8006   -2.3121   -0.7970 C   0  0  0  0  0  0  0  0  0  0  0  0
   -5.5172    2.5092    0.9952 H   0  0  0  0  0  0  0  0  0  0  0  0
   -7.2345    2.8678    1.4549 H   0  0  0  0  0  0  0  0  0  0  0  0
   -6.3956    3.7753    0.1265 H   0  0  0  0  0  0  0  0  0  0  0  0
   -8.7461    2.5696   -1.4592 H   0  0  0  0  0  0  0  0  0  0  0  0
   -8.8906    0.9383   -0.7569 H   0  0  0  0  0  0  0  0  0  0  0  0
   -9.0218    2.4050    0.2937 H   0  0  0  0  0  0  0  0  0  0  0  0
   -4.2970    2.8807   -1.8196 H   0  0  0  0  0  0  0  0  0  0  0  0
   -1.4469    3.1367   -1.5546 H   0  0  0  0  0  0  0  0  0  0  0  0
    0.5228   -1.2208    1.1042 H   0  0  0  0  0  0  0  0  0  0  0  0
    1.7579    1.8321   -0.7962 H   0  0  0  0  0  0  0  0  0  0  0  0
    4.0538    2.5836   -0.7381 H   0  0  0  0  0  0  0  0  0  0  0  0
    6.2073   -0.3997   -1.3137 H   0  0  0  0  0  0  0  0  0  0  0  0
    6.3900   -1.3049    0.1982 H   0  0  0  0  0  0  0  0  0  0  0  0
    7.9200   -2.0442   -1.7001 H   0  0  0  0  0  0  0  0  0  0  0  0
    9.3138   -2.8236    0.0046 H   0  0  0  0  0  0  0  0  0  0  0  0
    8.2256   -1.9105    1.1148 H   0  0  0  0  0  0  0  0  0  0  0  0
   10.0878   -0.5242    1.5434 H   0  0  0  0  0  0  0  0  0  0  0  0
   10.8858   -1.1781    0.0673 H   0  0  0  0  0  0  0  0  0  0  0  0
   10.4694    0.9781   -0.5979 H   0  0  0  0  0  0  0  0  0  0  0  0
    8.7125    1.5787    1.3071 H   0  0  0  0  0  0  0  0  0  0  0  0
    8.4594    2.2393   -0.3273 H   0  0  0  0  0  0  0  0  0  0  0  0
    8.3660    0.4519   -2.0287 H   0  0  0  0  0  0  0  0  0  0  0  0
    4.9704   -0.5901    1.8833 H   0  0  0  0  0  0  0  0  0  0  0  0
   -3.7398   -1.7169    0.9146 H   0  0  0  0  0  0  0  0  0  0  0  0
   -6.0425   -0.0169    1.2849 H   0  0  0  0  0  0  0  0  0  0  0  0
   -5.4617   -1.3543    2.2653 H   0  0  0  0  0  0  0  0  0  0  0  0
   -7.3551   -1.6898   -0.1323 H   0  0  0  0  0  0  0  0  0  0  0  0
   -7.7057   -1.7413    1.6061 H   0  0  0  0  0  0  0  0  0  0  0  0
   -6.0011   -3.5888    1.7746 H   0  0  0  0  0  0  0  0  0  0  0  0
   -7.4041   -3.9404    0.7072 H   0  0  0  0  0  0  0  0  0  0  0  0
   -4.9359   -4.4304   -0.2336 H   0  0  0  0  0  0  0  0  0  0  0  0
   -6.2535   -3.8243   -1.2341 H   0  0  0  0  0  0  0  0  0  0  0  0
   -3.7725   -2.6993   -1.0886 H   0  0  0  0  0  0  0  0  0  0  0  0
   -5.2107   -1.9063   -1.7433 H   0  0  0  0  0  0  0  0  0  0  0  0
  1  2  1  0
  2  3  1  0
  2  4  1  0
  4  5  2  0
  4  6  1  0
  6  7  2  0
  7  8  1  0
  8  9  2  0
  9 10  1  0
 10 11  2  0
 11 12  1  0
 12 13  1  0
 13 14  2  0
 14 15  1  0
 15 16  2  0
 16 17  1  0
 17 18  2  0
 17 19  1  0
 19 20  1  0
 20 21  1  0
 21 22  1  0
 22 23  1  0
 23 24  1  0
 24 25  1  0
 24 26  1  0
 16 27  1  0
 27 28  2  0
 11 29  1  0
 29 30  2  0
 30 31  1  0
 31 32  1  0
 32 33  1  0
 33 34  1  0
 34 35  1  0
 35 36  1  0
 36 37  1  0
 31  6  1  0
 37 32  1  0
 30  8  1  0
 28 13  1  0
 25 19  1  0
 26 21  1  0
  1 38  1  0
  1 39  1  0
  1 40  1  0
  3 41  1  0
  3 42  1  0
  3 43  1  0
  7 44  1  0
  9 45  1  0
 12 46  1  0
 14 47  1  0
 15 48  1  0
 20 49  1  0
 20 50  1  0
 21 51  1  0
 22 52  1  0
 22 53  1  0
 23 54  1  0
 23 55  1  0
 24 56  1  0
 25 57  1  0
 25 58  1  0
 26 59  1  0
 27 60  1  0
 32 61  1  0
 33 62  1  0
 33 63  1  0
 34 64  1  0
 34 65  1  0
 35 66  1  0
 35 67  1  0
 36 68  1  0
 36 69  1  0
 37 70  1  0
 37 71  1  0
M  END
$$$$
