
     RDKit          3D

 46 49  0  0  0  0  0  0  0  0999 V2000
    0.1562   -0.6854   -2.1484 C   0  0  1  0  0  0  0  0  0  0  0  0
   -0.9347   -1.2220   -1.2619 C   0  0  0  0  0  0  0  0  0  0  0  0
   -1.5161   -0.1587   -0.4324 N   0  0  0  0  0  0  0  0  0  0  0  0
   -1.9696   -0.2125    0.9568 C   0  0  0  0  0  0  0  0  0  0  0  0
   -3.4047   -0.5949    0.9705 C   0  0  0  0  0  0  0  0  0  0  0  0
   -4.3237    0.4492    0.9181 C   0  0  0  0  0  0  0  0  0  0  0  0
   -5.6842    0.1884    0.9262 C   0  0  0  0  0  0  0  0  0  0  0  0
   -6.0902   -1.1440    0.9882 C   0  0  0  0  0  0  0  0  0  0  0  0
   -5.1868   -2.1893    1.0406 C   0  0  0  0  0  0  0  0  0  0  0  0
   -3.8186   -1.9097    1.0316 C   0  0  0  0  0  0  0  0  0  0  0  0
   -1.6225    1.0844   -1.1619 C   0  0  0  0  0  0  0  0  0  0  0  0
   -1.7771    2.1796   -0.5648 O   0  0  0  0  0  0  0  0  0  0  0  0
   -1.5236    0.8574   -2.6498 C   0  0  0  0  0  0  0  0  0  0  0  0
   -0.2722    0.3673   -2.9052 O   0  0  0  0  0  0  0  0  0  0  0  0
    1.3519   -0.2271   -1.3931 C   0  0  0  0  0  0  0  0  0  0  0  0
    1.5456   -0.4855   -0.0526 C   0  0  0  0  0  0  0  0  0  0  0  0
    2.6837   -0.0396    0.6319 C   0  0  0  0  0  0  0  0  0  0  0  0
    3.6169    0.6631   -0.0408 C   0  0  0  0  0  0  0  0  0  0  0  0
    3.4063    0.9126   -1.3827 C   0  0  0  0  0  0  0  0  0  0  0  0
    2.2910    0.4901   -2.1066 C   0  0  0  0  0  0  0  0  0  0  0  0
    4.7141    1.0488    0.7791 N   0  0  0  0  0  0  0  0  0  0  0  0
    5.6514    2.1357    0.4681 C   0  0  0  0  0  0  0  0  0  0  0  0
    4.6647   -0.0282    2.1570 S   0  0  0  0  0  0  0  0  0  0  0  0
    5.4490   -1.2671    1.9188 O   0  0  0  0  0  0  0  0  0  0  0  0
    5.0633    0.6926    3.4080 O   0  0  0  0  0  0  0  0  0  0  0  0
    2.9082   -0.3077    2.0766 C   0  0  0  0  0  0  0  0  0  0  0  0
    0.4779   -1.5393   -2.7889 H   0  0  0  0  0  0  0  0  0  0  0  0
   -1.7580   -1.5273   -1.9405 H   0  0  0  0  0  0  0  0  0  0  0  0
   -0.6391   -2.0927   -0.6892 H   0  0  0  0  0  0  0  0  0  0  0  0
   -1.8224    0.8127    1.3537 H   0  0  0  0  0  0  0  0  0  0  0  0
   -1.3483   -0.9192    1.5462 H   0  0  0  0  0  0  0  0  0  0  0  0
   -4.0283    1.4850    0.8698 H   0  0  0  0  0  0  0  0  0  0  0  0
   -6.3824    1.0147    0.8848 H   0  0  0  0  0  0  0  0  0  0  0  0
   -7.1496   -1.3409    0.9943 H   0  0  0  0  0  0  0  0  0  0  0  0
   -5.5605   -3.2138    1.0881 H   0  0  0  0  0  0  0  0  0  0  0  0
   -3.0915   -2.7118    1.0719 H   0  0  0  0  0  0  0  0  0  0  0  0
   -2.3454    0.1803   -2.9613 H   0  0  0  0  0  0  0  0  0  0  0  0
   -1.6037    1.8415   -3.1598 H   0  0  0  0  0  0  0  0  0  0  0  0
    0.7470   -1.0487    0.3833 H   0  0  0  0  0  0  0  0  0  0  0  0
    4.1399    1.4726   -1.9376 H   0  0  0  0  0  0  0  0  0  0  0  0
    2.1998    0.7271   -3.1599 H   0  0  0  0  0  0  0  0  0  0  0  0
    6.1852    2.4647    1.3870 H   0  0  0  0  0  0  0  0  0  0  0  0
    5.1309    3.0175    0.0648 H   0  0  0  0  0  0  0  0  0  0  0  0
    6.4064    1.7295   -0.2262 H   0  0  0  0  0  0  0  0  0  0  0  0
    2.6926   -1.3589    2.3190 H   0  0  0  0  0  0  0  0  0  0  0  0
    2.3711    0.4095    2.7295 H   0  0  0  0  0  0  0  0  0  0  0  0
  1  2  1  0
  2  3  1  0
  3  4  1  0
  4  5  1  0
  5  6  2  0
  6  7  1  0
  7  8  2  0
  8  9  1  0
  9 10  2  0
  3 11  1  0
 11 12  2  0
 11 13  1  0
 13 14  1  0
  1 15  1  0
 15 16  2  0
 16 17  1  0
 17 18  2  0
 18 19  1  0
 19 20  2  0
 18 21  1  0
 21 22  1  0
 21 23  1  0
 23 24  2  0
 23 25  2  0
 23 26  1  0
 14  1  1  0
 20 15  1  0
 10  5  1  0
 26 17  1  0
  1 27  1  6
  2 28  1  0
  2 29  1  0
  4 30  1  0
  4 31  1  0
  6 32  1  0
  7 33  1  0
  8 34  1  0
  9 35  1  0
 10 36  1  0
 13 37  1  0
 13 38  1  0
 16 39  1  0
 19 40  1  0
 20 41  1  0
 22 42  1  0
 22 43  1  0
 22 44  1  0
 26 45  1  0
 26 46  1  0
M  END
$$$$
