
     RDKit          3D

 22 22  0  0  0  0  0  0  0  0999 V2000
   -3.8825    0.2424    0.7278 N   0  0  0  0  0  0  0  0  0  0  0  0
   -2.9126   -0.4676    0.0398 N   0  0  0  0  0  0  0  0  0  0  0  0
   -1.5827    0.0657    0.3006 C   0  0  0  0  0  0  0  0  0  0  0  0
   -0.5789   -0.7744   -0.4971 C   0  0  0  0  0  0  0  0  0  0  0  0
    0.8000   -0.2926   -0.2837 C   0  0  0  0  0  0  0  0  0  0  0  0
    1.3141    0.6764   -1.1210 C   0  0  0  0  0  0  0  0  0  0  0  0
    2.6009    1.1320   -0.9287 C   0  0  0  0  0  0  0  0  0  0  0  0
    3.4166    0.6487    0.0902 C   0  0  0  0  0  0  0  0  0  0  0  0
    2.9025   -0.3240    0.9319 C   0  0  0  0  0  0  0  0  0  0  0  0
    1.6131   -0.7750    0.7328 C   0  0  0  0  0  0  0  0  0  0  0  0
   -4.1994   -0.2548    1.6041 H   0  0  0  0  0  0  0  0  0  0  0  0
   -4.6730    0.4086    0.0731 H   0  0  0  0  0  0  0  0  0  0  0  0
   -3.1039   -0.5876   -0.9584 H   0  0  0  0  0  0  0  0  0  0  0  0
   -1.5740    1.1074   -0.0394 H   0  0  0  0  0  0  0  0  0  0  0  0
   -1.3489    0.0505    1.3750 H   0  0  0  0  0  0  0  0  0  0  0  0
   -0.8711   -0.7400   -1.5645 H   0  0  0  0  0  0  0  0  0  0  0  0
   -0.7270   -1.8274   -0.1396 H   0  0  0  0  0  0  0  0  0  0  0  0
    0.6929    1.0636   -1.9192 H   0  0  0  0  0  0  0  0  0  0  0  0
    2.9737    1.9030   -1.6152 H   0  0  0  0  0  0  0  0  0  0  0  0
    4.4227    1.0274    0.2145 H   0  0  0  0  0  0  0  0  0  0  0  0
    3.5068   -0.7364    1.7499 H   0  0  0  0  0  0  0  0  0  0  0  0
    1.2105   -1.5460    1.4026 H   0  0  0  0  0  0  0  0  0  0  0  0
  1  2  1  0
  2  3  1  0
  3  4  1  0
  4  5  1  0
  5  6  2  0
  6  7  1  0
  7  8  2  0
  8  9  1  0
  9 10  2  0
 10  5  1  0
  1 11  1  0
  1 12  1  0
  2 13  1  0
  3 14  1  0
  3 15  1  0
  4 16  1  0
  4 17  1  0
  6 18  1  0
  7 19  1  0
  8 20  1  0
  9 21  1  0
 10 22  1  0
M  END
$$$$
