
     RDKit          3D

 69 73  0  0  0  0  0  0  0  0999 V2000
   -1.2546   -3.4085    2.3261 O   0  0  0  0  0  0  0  0  0  0  0  0
   -1.4071   -2.9930    1.1646 C   0  0  0  0  0  0  0  0  0  0  0  0
   -2.4848   -3.2383    0.2201 C   0  0  0  0  0  0  0  0  0  0  0  0
   -3.4786   -3.9431    0.4416 O   0  0  0  0  0  0  0  0  0  0  0  0
   -2.1809   -2.5337   -0.9637 N   0  0  0  0  0  0  0  0  0  0  0  0
   -2.9588   -2.4714   -2.2048 C   0  0  0  0  0  0  0  0  0  0  0  0
   -3.9648   -1.3777   -2.1552 C   0  0  0  0  0  0  0  0  0  0  0  0
   -5.2253   -1.6182   -1.6516 C   0  0  0  0  0  0  0  0  0  0  0  0
   -6.1749   -0.6028   -1.6027 C   0  0  0  0  0  0  0  0  0  0  0  0
   -5.9337    0.6745   -2.0384 C   0  0  0  0  0  0  0  0  0  0  0  0
   -6.8293    1.6894   -2.0044 O   0  0  0  0  0  0  0  0  0  0  0  0
   -8.1032    1.8735   -1.5891 C   0  0  0  0  0  0  0  0  0  0  0  0
   -8.2736    1.6824   -0.1055 C   0  0  0  0  0  0  0  0  0  0  0  0
   -7.4472    2.6171    0.5231 O   0  0  0  0  0  0  0  0  0  0  0  0
   -7.5046    2.5544    1.8966 C   0  0  0  0  0  0  0  0  0  0  0  0
   -7.0974    1.2351    2.4742 C   0  0  0  0  0  0  0  0  0  0  0  0
   -5.7740    0.9989    2.0814 F   0  0  0  0  0  0  0  0  0  0  0  0
   -4.6401    0.9041   -2.5510 C   0  0  0  0  0  0  0  0  0  0  0  0
   -3.7055   -0.1003   -2.5981 C   0  0  0  0  0  0  0  0  0  0  0  0
   -0.9462   -1.8663   -0.7648 C   0  0  0  0  0  0  0  0  0  0  0  0
   -0.1608   -1.0361   -1.5725 C   0  0  0  0  0  0  0  0  0  0  0  0
    1.0298   -0.4939   -1.1545 C   0  0  0  0  0  0  0  0  0  0  0  0
    1.4951   -0.7596    0.1035 C   0  0  0  0  0  0  0  0  0  0  0  0
    3.0228   -0.0547    0.6201 S   0  0  0  0  0  6  0  0  0  0  0  0
    2.9497    0.1256    2.1103 O   0  0  0  0  0  0  0  0  0  0  0  0
    3.1338    1.2740   -0.0858 O   0  0  0  0  0  0  0  0  0  0  0  0
    4.2584   -1.1502    0.2143 N   0  0  0  0  0  0  0  0  0  0  0  0
    4.3415   -1.3829   -1.2042 C   0  0  0  0  0  0  0  0  0  0  0  0
    5.8301   -1.4509   -1.1049 C   0  0  0  0  0  0  0  0  0  0  0  0
    5.6135   -0.6726    0.2122 C   0  0  1  0  0  0  0  0  0  0  0  0
    5.8044    0.7944    0.0137 C   0  0  0  0  0  0  0  0  0  0  0  0
    7.1439    1.1373    0.0481 O   0  0  0  0  0  0  0  0  0  0  0  0
    8.0696    1.0746    1.0501 C   0  0  0  0  0  0  0  0  0  0  0  0
    9.3970    1.4636    0.7946 C   0  0  0  0  0  0  0  0  0  0  0  0
   10.3253    1.4115    1.7732 C   0  0  0  0  0  0  0  0  0  0  0  0
   10.0413    0.9866    3.0478 C   0  0  0  0  0  0  0  0  0  0  0  0
    8.7539    0.5960    3.3449 C   0  0  0  0  0  0  0  0  0  0  0  0
    7.7978    0.6545    2.3216 C   0  0  0  0  0  0  0  0  0  0  0  0
    0.7666   -1.5646    0.9318 C   0  0  0  0  0  0  0  0  0  0  0  0
   -0.4289   -2.1010    0.4934 C   0  0  0  0  0  0  0  0  0  0  0  0
   -2.2944   -2.2503   -3.0758 H   0  0  0  0  0  0  0  0  0  0  0  0
   -3.3995   -3.4601   -2.3662 H   0  0  0  0  0  0  0  0  0  0  0  0
   -5.4271   -2.6231   -1.3040 H   0  0  0  0  0  0  0  0  0  0  0  0
   -7.1394   -0.8702   -1.2120 H   0  0  0  0  0  0  0  0  0  0  0  0
   -8.3611    2.9693   -1.7640 H   0  0  0  0  0  0  0  0  0  0  0  0
   -8.8817    1.3056   -2.1643 H   0  0  0  0  0  0  0  0  0  0  0  0
   -8.0987    0.6574    0.1708 H   0  0  0  0  0  0  0  0  0  0  0  0
   -9.3500    1.9103    0.1120 H   0  0  0  0  0  0  0  0  0  0  0  0
   -8.5197    2.8541    2.2670 H   0  0  0  0  0  0  0  0  0  0  0  0
   -6.8065    3.3217    2.2900 H   0  0  0  0  0  0  0  0  0  0  0  0
   -7.0518    1.3530    3.5775 H   0  0  0  0  0  0  0  0  0  0  0  0
   -7.6900    0.3811    2.1494 H   0  0  0  0  0  0  0  0  0  0  0  0
   -4.4331    1.9004   -2.8980 H   0  0  0  0  0  0  0  0  0  0  0  0
   -2.7018    0.0938   -3.0022 H   0  0  0  0  0  0  0  0  0  0  0  0
   -0.5628   -0.8476   -2.5763 H   0  0  0  0  0  0  0  0  0  0  0  0
    1.5765    0.1379   -1.8398 H   0  0  0  0  0  0  0  0  0  0  0  0
    3.8484   -2.3292   -1.5602 H   0  0  0  0  0  0  0  0  0  0  0  0
    3.9886   -0.5565   -1.8531 H   0  0  0  0  0  0  0  0  0  0  0  0
    6.3342   -0.8209   -1.8536 H   0  0  0  0  0  0  0  0  0  0  0  0
    6.2501   -2.4623   -0.9477 H   0  0  0  0  0  0  0  0  0  0  0  0
    6.1788   -1.1255    1.0390 H   0  0  0  0  0  0  0  0  0  0  0  0
    5.2605    1.3176    0.8584 H   0  0  0  0  0  0  0  0  0  0  0  0
    5.3133    1.1704   -0.9120 H   0  0  0  0  0  0  0  0  0  0  0  0
    9.6025    1.7987   -0.2258 H   0  0  0  0  0  0  0  0  0  0  0  0
   11.3437    1.7208    1.5388 H   0  0  0  0  0  0  0  0  0  0  0  0
   10.8157    0.9610    3.7991 H   0  0  0  0  0  0  0  0  0  0  0  0
    8.4946    0.2549    4.3411 H   0  0  0  0  0  0  0  0  0  0  0  0
    6.7944    0.3589    2.6149 H   0  0  0  0  0  0  0  0  0  0  0  0
    1.1161   -1.7923    1.9412 H   0  0  0  0  0  0  0  0  0  0  0  0
  1  2  2  0
  2  3  1  0
  3  4  2  0
  3  5  1  0
  5  6  1  0
  6  7  1  0
  7  8  2  0
  8  9  1  0
  9 10  2  0
 10 11  1  0
 11 12  1  0
 12 13  1  0
 13 14  1  0
 14 15  1  0
 15 16  1  0
 16 17  1  0
 10 18  1  0
 18 19  2  0
  5 20  1  0
 20 21  2  0
 21 22  1  0
 22 23  2  0
 23 24  1  0
 24 25  2  0
 24 26  2  0
 24 27  1  0
 27 28  1  0
 28 29  1  0
 29 30  1  0
 30 31  1  0
 31 32  1  0
 32 33  1  0
 33 34  2  0
 34 35  1  0
 35 36  2  0
 36 37  1  0
 37 38  2  0
 23 39  1  0
 39 40  2  0
 40  2  1  0
 19  7  1  0
 40 20  1  0
 30 27  1  0
 38 33  1  0
  6 41  1  0
  6 42  1  0
  8 43  1  0
  9 44  1  0
 12 45  1  0
 12 46  1  0
 13 47  1  0
 13 48  1  0
 15 49  1  0
 15 50  1  0
 16 51  1  0
 16 52  1  0
 18 53  1  0
 19 54  1  0
 21 55  1  0
 22 56  1  0
 28 57  1  0
 28 58  1  0
 29 59  1  0
 29 60  1  0
 30 61  1  1
 31 62  1  0
 31 63  1  0
 34 64  1  0
 35 65  1  0
 36 66  1  0
 37 67  1  0
 38 68  1  0
 39 69  1  0
M  END
$$$$
