
     RDKit          3D

 55 59  0  0  0  0  0  0  0  0999 V2000
   -3.7335    0.4860   -3.4489 N   0  0  0  0  0  0  0  0  0  0  0  0
   -4.6519    0.3325   -2.3833 C   0  0  0  0  0  0  0  0  0  0  0  0
   -5.9885    0.0997   -2.6618 C   0  0  0  0  0  0  0  0  0  0  0  0
   -6.8616   -0.0459   -1.5775 C   0  0  0  0  0  0  0  0  0  0  0  0
   -6.4018    0.0403   -0.2849 C   0  0  0  0  0  0  0  0  0  0  0  0
   -7.3337   -0.1154    0.8234 C   0  0  0  0  0  0  0  0  0  0  0  0
   -8.6791   -0.3483    0.8010 C   0  0  0  0  0  0  0  0  0  0  0  0
   -9.3334   -0.4556    1.9569 C   0  0  0  0  0  0  0  0  0  0  0  0
   -8.6355   -0.3288    3.1368 C   0  0  0  0  0  0  0  0  0  0  0  0
   -6.9602   -0.0420    2.5347 S   0  0  0  0  0  0  0  0  0  0  0  0
   -5.0652    0.2730   -0.0218 C   0  0  0  0  0  0  0  0  0  0  0  0
   -4.1977    0.4177   -1.0849 C   0  0  0  0  0  0  0  0  0  0  0  0
   -2.8088    0.6592   -0.8765 N   0  0  0  0  0  0  0  0  0  0  0  0
   -1.8875   -0.4186   -0.7634 C   0  0  0  0  0  0  0  0  0  0  0  0
   -2.4106   -1.5848   -0.8637 O   0  0  0  0  0  0  0  0  0  0  0  0
   -0.4590   -0.2661   -0.5511 C   0  0  0  0  0  0  0  0  0  0  0  0
    0.3289   -1.3797   -0.4583 C   0  0  0  0  0  0  0  0  0  0  0  0
    1.6922   -1.2474   -0.2559 C   0  0  0  0  0  0  0  0  0  0  0  0
    2.2728    0.0204   -0.1450 C   0  0  0  0  0  0  0  0  0  0  0  0
    3.6739    0.1578    0.0630 N   0  0  0  0  0  0  0  0  0  0  0  0
    4.5704   -0.9706    0.1687 C   0  0  0  0  0  0  0  0  0  0  0  0
    5.9790   -0.5291   -0.1402 C   0  0  0  0  0  0  0  0  0  0  0  0
    6.4431    0.5764    0.7531 C   0  0  0  0  0  0  0  0  0  0  0  0
    5.3671    1.5162    1.1830 C   0  0  0  0  0  0  0  0  0  0  0  0
    4.2350    1.4832    0.1751 C   0  0  0  0  0  0  0  0  0  0  0  0
    7.1150   -0.0732    1.9619 C   0  0  0  0  0  0  0  0  0  0  0  0
    8.3626   -0.5248    1.3774 N   0  0  0  0  0  0  0  0  0  0  0  0
    8.6270    0.3680    0.3026 C   0  0  0  0  0  0  0  0  0  0  0  0
    9.6595    0.3644   -0.4261 O   0  0  0  0  0  0  0  0  0  0  0  0
    7.5481    1.2639    0.1773 O   0  0  0  0  0  0  0  0  0  0  0  0
    1.4483    1.0699   -0.2444 N   0  0  0  0  0  0  0  0  0  0  0  0
    0.1143    0.9647   -0.4420 C   0  0  0  0  0  0  0  0  0  0  0  0
   -3.6507    1.4153   -3.9004 H   0  0  0  0  0  0  0  0  0  0  0  0
   -3.1656   -0.3172   -3.7590 H   0  0  0  0  0  0  0  0  0  0  0  0
   -6.3473    0.0324   -3.6787 H   0  0  0  0  0  0  0  0  0  0  0  0
   -7.9214   -0.2303   -1.7636 H   0  0  0  0  0  0  0  0  0  0  0  0
   -9.1880   -0.4414   -0.1901 H   0  0  0  0  0  0  0  0  0  0  0  0
  -10.4420   -0.6471    2.0464 H   0  0  0  0  0  0  0  0  0  0  0  0
   -8.9458   -0.3773    4.1607 H   0  0  0  0  0  0  0  0  0  0  0  0
   -4.6952    0.3422    0.9961 H   0  0  0  0  0  0  0  0  0  0  0  0
   -2.4614    1.6353   -0.8058 H   0  0  0  0  0  0  0  0  0  0  0  0
   -0.1273   -2.3656   -0.5452 H   0  0  0  0  0  0  0  0  0  0  0  0
    2.3087   -2.1241   -0.1833 H   0  0  0  0  0  0  0  0  0  0  0  0
    4.3002   -1.8123   -0.4891 H   0  0  0  0  0  0  0  0  0  0  0  0
    4.5022   -1.3138    1.2415 H   0  0  0  0  0  0  0  0  0  0  0  0
    6.6312   -1.4286   -0.0744 H   0  0  0  0  0  0  0  0  0  0  0  0
    5.9854   -0.2203   -1.2190 H   0  0  0  0  0  0  0  0  0  0  0  0
    5.7775    2.5464    1.1718 H   0  0  0  0  0  0  0  0  0  0  0  0
    5.0110    1.2986    2.1898 H   0  0  0  0  0  0  0  0  0  0  0  0
    3.4396    2.1590    0.5845 H   0  0  0  0  0  0  0  0  0  0  0  0
    4.5824    1.8897   -0.7899 H   0  0  0  0  0  0  0  0  0  0  0  0
    6.5135   -0.8775    2.3916 H   0  0  0  0  0  0  0  0  0  0  0  0
    7.3806    0.7239    2.6928 H   0  0  0  0  0  0  0  0  0  0  0  0
    8.9713   -1.3252    1.6504 H   0  0  0  0  0  0  0  0  0  0  0  0
   -0.4880    1.8530   -0.5122 H   0  0  0  0  0  0  0  0  0  0  0  0
  1  2  1  0
  2  3  2  0
  3  4  1  0
  4  5  2  0
  5  6  1  0
  6  7  2  0
  7  8  1  0
  8  9  2  0
  9 10  1  0
  5 11  1  0
 11 12  2  0
 12 13  1  0
 13 14  1  0
 14 15  2  0
 14 16  1  0
 16 17  2  0
 17 18  1  0
 18 19  2  0
 19 20  1  0
 20 21  1  0
 21 22  1  0
 22 23  1  0
 23 24  1  0
 24 25  1  0
 23 26  1  0
 26 27  1  0
 27 28  1  0
 28 29  2  0
 28 30  1  0
 19 31  1  0
 31 32  2  0
 12  2  1  0
 32 16  1  0
 10  6  1  0
 25 20  1  0
 30 23  1  0
  1 33  1  0
  1 34  1  0
  3 35  1  0
  4 36  1  0
  7 37  1  0
  8 38  1  0
  9 39  1  0
 11 40  1  0
 13 41  1  0
 17 42  1  0
 18 43  1  0
 21 44  1  0
 21 45  1  0
 22 46  1  0
 22 47  1  0
 24 48  1  0
 24 49  1  0
 25 50  1  0
 25 51  1  0
 26 52  1  0
 26 53  1  0
 27 54  1  0
 32 55  1  0
M  END
$$$$
