
     RDKit          3D

 32 34  0  0  0  0  0  0  0  0999 V2000
    1.9066    3.0154   -0.8316 O   0  0  0  0  0  0  0  0  0  0  0  0
    1.4765    1.8633   -0.5815 C   0  0  0  0  0  0  0  0  0  0  0  0
    0.0997    1.6393   -0.5238 C   0  0  0  0  0  0  0  0  0  0  0  0
   -0.7072    2.7427   -0.7549 O   0  0  0  0  0  0  0  0  0  0  0  0
   -0.3728    0.4086   -0.2565 C   0  0  0  0  0  0  0  0  0  0  0  0
   -1.8077    0.0919   -0.1786 C   0  0  0  0  0  0  0  0  0  0  0  0
   -2.8213    0.9524   -0.3562 C   0  0  0  0  0  0  0  0  0  0  0  0
   -4.1622    0.5554   -0.2617 C   0  0  0  0  0  0  0  0  0  0  0  0
   -4.4710   -0.7457    0.0196 C   0  0  0  0  0  0  0  0  0  0  0  0
   -5.8233   -1.1454    0.1148 O   0  0  0  0  0  0  0  0  0  0  0  0
   -3.4544   -1.6424    0.2050 C   0  0  0  0  0  0  0  0  0  0  0  0
   -3.7598   -2.9570    0.4892 O   0  0  0  0  0  0  0  0  0  0  0  0
   -2.1591   -1.2374    0.1091 C   0  0  0  0  0  0  0  0  0  0  0  0
    0.4967   -0.5643   -0.0539 O   0  0  0  0  0  0  0  0  0  0  0  0
    1.7872   -0.4135   -0.0952 C   0  0  0  0  0  0  0  0  0  0  0  0
    2.6572   -1.4851    0.1286 C   0  0  0  0  0  0  0  0  0  0  0  0
    4.0225   -1.2963    0.0786 C   0  0  0  0  0  0  0  0  0  0  0  0
    4.8974   -2.3555    0.2997 O   0  0  0  0  0  0  0  0  0  0  0  0
    4.5734   -0.0510   -0.1924 C   0  0  0  0  0  0  0  0  0  0  0  0
    3.7118    1.0039   -0.4127 C   0  0  0  0  0  0  0  0  0  0  0  0
    4.1832    2.2764   -0.6889 O   0  0  0  0  0  0  0  0  0  0  0  0
    2.3390    0.8193   -0.3635 C   0  0  0  0  0  0  0  0  0  0  0  0
   -0.6675    3.4813   -0.0447 H   0  0  0  0  0  0  0  0  0  0  0  0
   -2.6245    1.9934   -0.5810 H   0  0  0  0  0  0  0  0  0  0  0  0
   -4.9391    1.3121   -0.4187 H   0  0  0  0  0  0  0  0  0  0  0  0
   -6.3950   -0.5671    0.7048 H   0  0  0  0  0  0  0  0  0  0  0  0
   -4.0701   -3.5974   -0.2253 H   0  0  0  0  0  0  0  0  0  0  0  0
   -1.3448   -1.9681    0.2602 H   0  0  0  0  0  0  0  0  0  0  0  0
    2.2423   -2.4746    0.3437 H   0  0  0  0  0  0  0  0  0  0  0  0
    5.4517   -2.6982   -0.4969 H   0  0  0  0  0  0  0  0  0  0  0  0
    5.6491    0.0717   -0.2263 H   0  0  0  0  0  0  0  0  0  0  0  0
    4.0853    2.9717    0.0646 H   0  0  0  0  0  0  0  0  0  0  0  0
  1  2  2  0
  2  3  1  0
  3  4  1  0
  3  5  2  0
  5  6  1  0
  6  7  2  0
  7  8  1  0
  8  9  2  0
  9 10  1  0
  9 11  1  0
 11 12  1  0
 11 13  2  0
  5 14  1  0
 14 15  1  0
 15 16  2  0
 16 17  1  0
 17 18  1  0
 17 19  2  0
 19 20  1  0
 20 21  1  0
 20 22  2  0
 22  2  1  0
 13  6  1  0
 22 15  1  0
  4 23  1  0
  7 24  1  0
  8 25  1  0
 10 26  1  0
 12 27  1  0
 13 28  1  0
 16 29  1  0
 18 30  1  0
 19 31  1  0
 21 32  1  0
M  END
$$$$
