
     RDKit          3D

 60 64  0  0  0  0  0  0  0  0999 V2000
   -6.4388    4.6435    0.6217 C   0  0  0  0  0  0  0  0  0  0  0  0
   -5.7412    3.3845    0.5165 N   0  0  0  0  0  0  0  0  0  0  0  0
   -4.4189    3.2181    0.4241 C   0  0  0  0  0  0  0  0  0  0  0  0
   -4.1047    1.8512    0.3381 C   0  0  0  0  0  0  0  0  0  0  0  0
   -2.7514    1.3582    0.2290 C   0  0  0  0  0  0  0  0  0  0  0  0
   -1.6408    2.2347    0.2026 C   0  0  0  0  0  0  0  0  0  0  0  0
   -0.4893    1.5149    0.0951 C   0  0  0  0  0  0  0  0  0  0  0  0
    0.8464    1.9090    0.0309 C   0  0  0  0  0  0  0  0  0  0  0  0
    1.7990    1.0046   -0.0731 N   0  0  0  0  0  0  0  0  0  0  0  0
    1.4793   -0.2940   -0.1170 C   0  0  0  0  0  0  0  0  0  0  0  0
    2.5231   -1.2871   -0.2308 N   0  0  0  0  0  0  0  0  0  0  0  0
    3.8874   -0.8654   -0.2921 C   0  0  0  0  0  0  0  0  0  0  0  0
    4.6839   -1.1617   -1.3792 C   0  0  0  0  0  0  0  0  0  0  0  0
    6.0173   -0.7447   -1.4290 C   0  0  0  0  0  0  0  0  0  0  0  0
    6.5748   -0.0259   -0.3943 C   0  0  0  0  0  0  0  0  0  0  0  0
    7.9631    0.4175   -0.4286 C   0  0  0  0  0  0  0  0  0  0  0  0
    8.7372    0.5577    0.7124 C   0  0  0  0  0  0  0  0  0  0  0  0
   10.0069    0.9662    0.6504 N   0  0  0  0  0  0  0  0  0  0  0  0
   10.5668    1.2529   -0.5325 C   0  0  0  0  0  0  0  0  0  0  0  0
    9.8312    1.1224   -1.6464 N   0  0  0  0  0  0  0  0  0  0  0  0
    8.5502    0.7154   -1.6394 C   0  0  0  0  0  0  0  0  0  0  0  0
    5.7890    0.2767    0.6982 C   0  0  0  0  0  0  0  0  0  0  0  0
    4.4710   -0.1420    0.7347 C   0  0  0  0  0  0  0  0  0  0  0  0
    3.5075    0.2585    2.1331 Cl  0  0  0  0  0  0  0  0  0  0  0  0
    0.1611   -0.7168   -0.0553 C   0  0  0  0  0  0  0  0  0  0  0  0
   -0.8669    0.2010    0.0541 C   0  0  0  0  0  0  0  0  0  0  0  0
   -2.2420    0.1226    0.1362 N   0  0  0  0  0  0  0  0  0  0  0  0
   -2.8844   -1.1254    0.1146 C   0  0  0  0  0  0  0  0  0  0  0  0
   -2.1445   -2.1805    0.0178 O   0  0  0  0  0  0  0  0  0  0  0  0
   -4.1946   -1.4588    0.1783 O   0  0  0  0  0  0  0  0  0  0  0  0
   -4.7427   -2.7372    0.1493 C   0  0  0  0  0  0  0  0  0  0  0  0
   -4.4071   -3.4944   -1.1232 C   0  0  0  0  0  0  0  0  0  0  0  0
   -4.3383   -3.6019    1.3096 C   0  0  0  0  0  0  0  0  0  0  0  0
   -6.2597   -2.5948    0.1707 C   0  0  0  0  0  0  0  0  0  0  0  0
   -5.3084    1.2456    0.3856 C   0  0  0  0  0  0  0  0  0  0  0  0
   -6.2999    2.2024    0.4950 N   0  0  0  0  0  0  0  0  0  0  0  0
   -7.1592    4.6592    1.4876 H   0  0  0  0  0  0  0  0  0  0  0  0
   -7.0400    4.8771   -0.2785 H   0  0  0  0  0  0  0  0  0  0  0  0
   -5.7292    5.4798    0.8070 H   0  0  0  0  0  0  0  0  0  0  0  0
   -3.7272    4.0214    0.4187 H   0  0  0  0  0  0  0  0  0  0  0  0
   -1.6654    3.3113    0.2570 H   0  0  0  0  0  0  0  0  0  0  0  0
    1.0729    2.9571    0.0683 H   0  0  0  0  0  0  0  0  0  0  0  0
    2.2447   -2.2731   -0.2642 H   0  0  0  0  0  0  0  0  0  0  0  0
    4.2890   -1.7262   -2.2194 H   0  0  0  0  0  0  0  0  0  0  0  0
    6.6524   -0.9689   -2.2724 H   0  0  0  0  0  0  0  0  0  0  0  0
    8.2898    0.3280    1.6644 H   0  0  0  0  0  0  0  0  0  0  0  0
   11.5948    1.5788   -0.5299 H   0  0  0  0  0  0  0  0  0  0  0  0
    7.9615    0.6116   -2.5385 H   0  0  0  0  0  0  0  0  0  0  0  0
    6.2421    0.8412    1.5009 H   0  0  0  0  0  0  0  0  0  0  0  0
   -0.0553   -1.7776   -0.0940 H   0  0  0  0  0  0  0  0  0  0  0  0
   -5.0194   -4.4288   -1.1053 H   0  0  0  0  0  0  0  0  0  0  0  0
   -3.3495   -3.8268   -1.1491 H   0  0  0  0  0  0  0  0  0  0  0  0
   -4.7099   -2.9345   -2.0266 H   0  0  0  0  0  0  0  0  0  0  0  0
   -3.9485   -2.9236    2.1139 H   0  0  0  0  0  0  0  0  0  0  0  0
   -5.1869   -4.2096    1.6219 H   0  0  0  0  0  0  0  0  0  0  0  0
   -3.5265   -4.2947    0.9862 H   0  0  0  0  0  0  0  0  0  0  0  0
   -6.5134   -2.1968    1.1839 H   0  0  0  0  0  0  0  0  0  0  0  0
   -6.5000   -1.8015   -0.5675 H   0  0  0  0  0  0  0  0  0  0  0  0
   -6.7509   -3.5463   -0.0547 H   0  0  0  0  0  0  0  0  0  0  0  0
   -5.5873    0.2160    0.3542 H   0  0  0  0  0  0  0  0  0  0  0  0
  1  2  1  0
  2  3  1  0
  3  4  2  0
  4  5  1  0
  5  6  2  0
  6  7  1  0
  7  8  2  0
  8  9  1  0
  9 10  2  0
 10 11  1  0
 11 12  1  0
 12 13  2  0
 13 14  1  0
 14 15  2  0
 15 16  1  0
 16 17  2  0
 17 18  1  0
 18 19  2  0
 19 20  1  0
 20 21  2  0
 15 22  1  0
 22 23  2  0
 23 24  1  0
 10 25  1  0
 25 26  2  0
 26 27  1  0
 27 28  1  0
 28 29  2  0
 28 30  1  0
 30 31  1  0
 31 32  1  0
 31 33  1  0
 31 34  1  0
  4 35  1  0
 35 36  2  0
 36  2  1  0
 27  5  1  0
 26  7  1  0
 23 12  1  0
 21 16  1  0
  1 37  1  0
  1 38  1  0
  1 39  1  0
  3 40  1  0
  6 41  1  0
  8 42  1  0
 11 43  1  0
 13 44  1  0
 14 45  1  0
 17 46  1  0
 19 47  1  0
 21 48  1  0
 22 49  1  0
 25 50  1  0
 32 51  1  0
 32 52  1  0
 32 53  1  0
 33 54  1  0
 33 55  1  0
 33 56  1  0
 34 57  1  0
 34 58  1  0
 34 59  1  0
 35 60  1  0
M  END
$$$$
