
     RDKit          3D

 30 32  0  0  0  0  0  0  0  0999 V2000
    0.0828    0.6217   -1.7416 O   0  0  0  0  0  0  0  0  0  0  0  0
    0.4493    0.1560   -0.6263 C   0  0  0  0  0  0  0  0  0  0  0  0
   -0.4620   -0.2992    0.3214 C   0  0  0  0  0  0  0  0  0  0  0  0
   -1.8799   -0.2422    0.0305 C   0  0  0  0  0  0  0  0  0  0  0  0
   -2.7308    0.2251    0.9992 C   0  0  0  0  0  0  0  0  0  0  0  0
   -4.0942    0.3028    0.7798 C   0  0  0  0  0  0  0  0  0  0  0  0
   -4.6063   -0.0994   -0.4410 C   0  0  0  0  0  0  0  0  0  0  0  0
   -5.9827   -0.0242   -0.6710 O   0  0  0  0  0  0  0  0  0  0  0  0
   -3.7735   -0.5735   -1.4331 C   0  0  0  0  0  0  0  0  0  0  0  0
   -2.4174   -0.6333   -1.1691 C   0  0  0  0  0  0  0  0  0  0  0  0
    0.0136   -0.8000    1.5298 C   0  0  0  0  0  0  0  0  0  0  0  0
    1.3035   -0.8266    1.7362 O   0  0  0  0  0  0  0  0  0  0  0  0
    2.1924   -0.4051    0.8639 C   0  0  0  0  0  0  0  0  0  0  0  0
    3.5420   -0.4596    1.1414 C   0  0  0  0  0  0  0  0  0  0  0  0
    4.4921   -0.0235    0.2422 C   0  0  0  0  0  0  0  0  0  0  0  0
    5.8497   -0.0807    0.5269 O   0  0  0  0  0  0  0  0  0  0  0  0
    4.1088    0.4962   -0.9996 C   0  0  0  0  0  0  0  0  0  0  0  0
    2.7531    0.5453   -1.2653 C   0  0  0  0  0  0  0  0  0  0  0  0
    2.3645    1.0581   -2.4916 O   0  0  0  0  0  0  0  0  0  0  0  0
    1.8029    0.1078   -0.3629 C   0  0  0  0  0  0  0  0  0  0  0  0
   -2.3670    0.5543    1.9813 H   0  0  0  0  0  0  0  0  0  0  0  0
   -4.7534    0.6763    1.5607 H   0  0  0  0  0  0  0  0  0  0  0  0
   -6.3223    0.0873   -1.6174 H   0  0  0  0  0  0  0  0  0  0  0  0
   -4.1629   -0.8899   -2.3895 H   0  0  0  0  0  0  0  0  0  0  0  0
   -1.7194   -1.0048   -1.9322 H   0  0  0  0  0  0  0  0  0  0  0  0
   -0.7249   -1.1442    2.2407 H   0  0  0  0  0  0  0  0  0  0  0  0
    3.8772   -0.8548    2.0905 H   0  0  0  0  0  0  0  0  0  0  0  0
    6.4022    0.7420    0.7254 H   0  0  0  0  0  0  0  0  0  0  0  0
    4.8664    0.8344   -1.6945 H   0  0  0  0  0  0  0  0  0  0  0  0
    1.8966    1.9535   -2.6031 H   0  0  0  0  0  0  0  0  0  0  0  0
  1  2  2  0
  2  3  1  0
  3  4  1  0
  4  5  2  0
  5  6  1  0
  6  7  2  0
  7  8  1  0
  7  9  1  0
  9 10  2  0
  3 11  2  0
 11 12  1  0
 12 13  1  0
 13 14  2  0
 14 15  1  0
 15 16  1  0
 15 17  2  0
 17 18  1  0
 18 19  1  0
 18 20  2  0
 20  2  1  0
 10  4  1  0
 20 13  1  0
  5 21  1  0
  6 22  1  0
  8 23  1  0
  9 24  1  0
 10 25  1  0
 11 26  1  0
 14 27  1  0
 16 28  1  0
 17 29  1  0
 19 30  1  0
M  END
$$$$
