
     RDKit          3D

 50 52  0  0  0  0  0  0  0  0999 V2000
    9.3765   -0.8769   -0.2119 Cl  0  0  0  0  0  0  0  0  0  0  0  0
    7.7954   -0.1328   -0.2958 C   0  0  0  0  0  0  0  0  0  0  0  0
    6.9625   -0.1326    0.8013 C   0  0  0  0  0  0  0  0  0  0  0  0
    5.7277    0.4590    0.7010 C   0  0  0  0  0  0  0  0  0  0  0  0
    5.2534    1.0726   -0.4667 C   0  0  0  0  0  0  0  0  0  0  0  0
    3.8824    1.6090   -0.2804 C   0  0  0  0  0  0  0  0  0  0  0  0
    2.9624    0.6318   -0.6754 O   0  0  0  0  0  0  0  0  0  0  0  0
    3.0896   -0.5673   -0.0336 C   0  0  0  0  0  0  0  0  0  0  0  0
    2.0390   -1.5292   -0.5101 C   0  0  0  0  0  0  0  0  0  0  0  0
    0.7366   -1.0076   -0.2174 N   0  0  0  0  0  0  0  0  0  0  0  0
    0.4798   -0.9877    1.2166 C   0  0  0  0  0  0  0  0  0  0  0  0
   -1.0124   -0.6227    1.3783 C   0  0  0  0  0  0  0  0  0  0  0  0
   -1.7129   -1.6451    0.6739 N   0  0  0  0  0  0  0  0  0  0  0  0
   -3.4023   -1.5013    0.7083 S   0  0  0  0  0  0  0  0  0  0  0  0
   -3.8071   -1.6069    2.1678 O   0  0  0  0  0  0  0  0  0  0  0  0
   -3.9572   -2.6930   -0.0582 O   0  0  0  0  0  0  0  0  0  0  0  0
   -3.9932   -0.0657   -0.0291 C   0  0  0  0  0  0  0  0  0  0  0  0
   -3.4117    0.9877   -0.6921 C   0  0  0  0  0  0  0  0  0  0  0  0
   -4.0770    2.0587   -1.2156 C   0  0  0  0  0  0  0  0  0  0  0  0
   -5.4281    2.1405   -1.1010 C   0  0  0  0  0  0  0  0  0  0  0  0
   -6.0880    1.1325   -0.4563 C   0  0  0  0  0  0  0  0  0  0  0  0
   -7.4616    1.2666   -0.3785 C   0  0  0  0  0  0  0  0  0  0  0  0
   -8.1745    0.3106    0.2320 N   0  0  0  0  0  0  0  0  0  0  0  0
   -7.5846   -0.7646    0.7639 C   0  0  0  0  0  0  0  0  0  0  0  0
   -6.2170   -0.8648    0.6694 C   0  0  0  0  0  0  0  0  0  0  0  0
   -5.3889    0.0607    0.0638 C   0  0  0  0  0  0  0  0  0  0  0  0
    6.0956    1.0605   -1.5409 C   0  0  0  0  0  0  0  0  0  0  0  0
    7.3397    0.4750   -1.4720 C   0  0  0  0  0  0  0  0  0  0  0  0
    7.3385   -0.6067    1.6825 H   0  0  0  0  0  0  0  0  0  0  0  0
    5.1714    0.3916    1.6372 H   0  0  0  0  0  0  0  0  0  0  0  0
    3.7553    2.4338   -1.0412 H   0  0  0  0  0  0  0  0  0  0  0  0
    3.6956    1.9544    0.7343 H   0  0  0  0  0  0  0  0  0  0  0  0
    3.0336   -0.4544    1.0681 H   0  0  0  0  0  0  0  0  0  0  0  0
    4.0821   -1.0321   -0.2345 H   0  0  0  0  0  0  0  0  0  0  0  0
    2.1592   -1.6159   -1.6306 H   0  0  0  0  0  0  0  0  0  0  0  0
    2.1560   -2.5417   -0.0441 H   0  0  0  0  0  0  0  0  0  0  0  0
    0.6067   -0.0395   -0.5659 H   0  0  0  0  0  0  0  0  0  0  0  0
    1.1097   -0.2363    1.7227 H   0  0  0  0  0  0  0  0  0  0  0  0
    0.6646   -1.9635    1.6873 H   0  0  0  0  0  0  0  0  0  0  0  0
   -1.2398   -0.6924    2.4899 H   0  0  0  0  0  0  0  0  0  0  0  0
   -1.1558    0.4086    1.0619 H   0  0  0  0  0  0  0  0  0  0  0  0
   -1.2905   -1.8890   -0.2462 H   0  0  0  0  0  0  0  0  0  0  0  0
   -2.3626    0.9035   -0.7908 H   0  0  0  0  0  0  0  0  0  0  0  0
   -3.4879    2.8086   -1.7037 H   0  0  0  0  0  0  0  0  0  0  0  0
   -5.9247    2.9978   -1.5188 H   0  0  0  0  0  0  0  0  0  0  0  0
   -7.9746    2.1207   -0.7933 H   0  0  0  0  0  0  0  0  0  0  0  0
   -8.1866   -1.5002    1.2369 H   0  0  0  0  0  0  0  0  0  0  0  0
   -5.8114   -1.7629    1.1094 H   0  0  0  0  0  0  0  0  0  0  0  0
    5.6706    1.5507   -2.3982 H   0  0  0  0  0  0  0  0  0  0  0  0
    7.9662    0.4979   -2.3454 H   0  0  0  0  0  0  0  0  0  0  0  0
  1  2  1  0
  2  3  2  0
  3  4  1  0
  4  5  2  0
  5  6  1  0
  6  7  1  0
  7  8  1  0
  8  9  1  0
  9 10  1  0
 10 11  1  0
 11 12  1  0
 12 13  1  0
 13 14  1  0
 14 15  2  0
 14 16  2  0
 14 17  1  0
 17 18  2  0
 18 19  1  0
 19 20  2  0
 20 21  1  0
 21 22  2  0
 22 23  1  0
 23 24  2  0
 24 25  1  0
 25 26  2  0
  5 27  1  0
 27 28  2  0
 28  2  1  0
 26 17  1  0
 26 21  1  0
  3 29  1  0
  4 30  1  0
  6 31  1  0
  6 32  1  0
  8 33  1  0
  8 34  1  0
  9 35  1  0
  9 36  1  0
 10 37  1  0
 11 38  1  0
 11 39  1  0
 12 40  1  0
 12 41  1  0
 13 42  1  0
 18 43  1  0
 19 44  1  0
 20 45  1  0
 22 46  1  0
 24 47  1  0
 25 48  1  0
 27 49  1  0
 28 50  1  0
M  END
$$$$
