
     RDKit          3D

 56 58  0  0  0  0  0  0  0  0999 V2000
    0.0976    3.0763    0.8924 C   0  0  0  0  0  0  0  0  0  0  0  0
    1.3562    2.9970    0.6173 C   0  0  0  0  0  0  0  0  0  0  0  0
    1.9983    4.3352    0.2855 C   0  0  0  0  0  0  0  0  0  0  0  0
    2.1973    1.8263    0.5216 C   0  0  0  0  0  0  0  0  0  0  0  0
    3.5998    1.9886    0.5415 C   0  0  0  0  0  0  0  0  0  0  0  0
    4.4367    0.9645    0.4793 N   0  0  0  0  0  0  0  0  0  0  0  0
    3.9870   -0.3297    0.3911 C   0  0  0  0  0  0  0  0  0  0  0  0
    4.9506   -1.3955    0.3301 C   0  0  0  0  0  0  0  0  0  0  0  0
    6.3060   -1.0527    0.3654 C   0  0  0  0  0  0  0  0  0  0  0  0
    7.3279   -1.9685    0.3147 C   0  0  0  0  0  0  0  0  0  0  0  0
    8.9997   -1.4703    0.3632 Cl  0  0  0  0  0  0  0  0  0  0  0  0
    6.9801   -3.2914    0.2242 C   0  0  0  0  0  0  0  0  0  0  0  0
    5.6689   -3.6839    0.1860 C   0  0  0  0  0  0  0  0  0  0  0  0
    4.6609   -2.7208    0.2400 C   0  0  0  0  0  0  0  0  0  0  0  0
    3.4067   -3.1777    0.1980 F   0  0  0  0  0  0  0  0  0  0  0  0
    2.6449   -0.5329    0.3660 C   0  0  0  0  0  0  0  0  0  0  0  0
    1.7352    0.5479    0.4284 C   0  0  0  0  0  0  0  0  0  0  0  0
    0.3387    0.2015    0.3420 N   0  0  0  0  0  0  0  0  0  0  0  0
   -0.3762    0.5627   -0.8328 C   0  0  0  0  0  0  0  0  0  0  0  0
    0.3318    1.1936   -1.8783 C   0  0  0  0  0  0  0  0  0  0  0  0
   -0.3549    1.5481   -3.0092 C   0  0  0  0  0  0  0  0  0  0  0  0
   -1.6569    1.3250   -3.1670 N   0  0  0  0  0  0  0  0  0  0  0  0
   -2.3725    0.7349   -2.2163 C   0  0  0  0  0  0  0  0  0  0  0  0
   -1.7186    0.3488   -1.0310 C   0  0  0  0  0  0  0  0  0  0  0  0
   -2.4985   -0.2969    0.0282 C   0  0  0  0  0  0  0  0  0  0  0  0
   -2.0393   -0.6690    1.1331 O   0  0  0  0  0  0  0  0  0  0  0  0
   -3.9024   -0.5651   -0.1196 N   0  0  0  0  0  0  0  0  0  0  0  0
   -4.6696   -1.2058    0.9360 C   0  0  1  0  0  0  0  0  0  0  0  0
   -5.7975   -0.3089    1.3274 C   0  0  0  0  0  0  0  0  0  0  0  0
   -6.7548    0.0024    0.2179 C   0  0  0  0  0  0  0  0  0  0  0  0
   -5.1995   -2.5087    0.3816 C   0  0  0  0  0  0  0  0  0  0  0  0
   -6.0150   -2.3569   -0.7171 O   0  0  0  0  0  0  0  0  0  0  0  0
   -0.4696    4.0200    0.8851 H   0  0  0  0  0  0  0  0  0  0  0  0
   -0.4789    2.2330    1.1960 H   0  0  0  0  0  0  0  0  0  0  0  0
    2.4543    4.7691    1.1720 H   0  0  0  0  0  0  0  0  0  0  0  0
    1.2489    5.0295   -0.1386 H   0  0  0  0  0  0  0  0  0  0  0  0
    2.7228    4.1402   -0.5503 H   0  0  0  0  0  0  0  0  0  0  0  0
    3.9496    3.0007    0.6118 H   0  0  0  0  0  0  0  0  0  0  0  0
    6.5903    0.0091    0.4381 H   0  0  0  0  0  0  0  0  0  0  0  0
    7.7991   -4.0207    0.1838 H   0  0  0  0  0  0  0  0  0  0  0  0
    5.4094   -4.7176    0.1155 H   0  0  0  0  0  0  0  0  0  0  0  0
    2.1949   -1.5039    0.2990 H   0  0  0  0  0  0  0  0  0  0  0  0
   -0.0281   -0.2888    1.1489 H   0  0  0  0  0  0  0  0  0  0  0  0
    1.3849    1.3691   -1.7520 H   0  0  0  0  0  0  0  0  0  0  0  0
    0.1623    2.0385   -3.8381 H   0  0  0  0  0  0  0  0  0  0  0  0
   -3.4405    0.5463   -2.3321 H   0  0  0  0  0  0  0  0  0  0  0  0
   -4.3888   -0.3163   -0.9650 H   0  0  0  0  0  0  0  0  0  0  0  0
   -4.0278   -1.4628    1.8053 H   0  0  0  0  0  0  0  0  0  0  0  0
   -5.3565    0.6757    1.6548 H   0  0  0  0  0  0  0  0  0  0  0  0
   -6.3376   -0.6704    2.2352 H   0  0  0  0  0  0  0  0  0  0  0  0
   -7.2281    0.9868    0.4499 H   0  0  0  0  0  0  0  0  0  0  0  0
   -6.3622   -0.0520   -0.7916 H   0  0  0  0  0  0  0  0  0  0  0  0
   -7.5809   -0.7448    0.2910 H   0  0  0  0  0  0  0  0  0  0  0  0
   -5.7689   -3.0832    1.1475 H   0  0  0  0  0  0  0  0  0  0  0  0
   -4.3349   -3.1603    0.0777 H   0  0  0  0  0  0  0  0  0  0  0  0
   -5.7824   -2.9153   -1.4836 H   0  0  0  0  0  0  0  0  0  0  0  0
  1  2  2  3
  2  3  1  0
  2  4  1  0
  4  5  2  0
  5  6  1  0
  6  7  2  0
  7  8  1  0
  8  9  2  0
  9 10  1  0
 10 11  1  0
 10 12  2  0
 12 13  1  0
 13 14  2  0
 14 15  1  0
  7 16  1  0
 16 17  2  0
 17 18  1  0
 18 19  1  0
 19 20  2  0
 20 21  1  0
 21 22  2  0
 22 23  1  0
 23 24  2  0
 24 25  1  0
 25 26  2  0
 25 27  1  0
 27 28  1  0
 28 29  1  0
 29 30  1  0
 28 31  1  0
 31 32  1  0
 17  4  1  0
 24 19  1  0
 14  8  1  0
  1 33  1  0
  1 34  1  0
  3 35  1  0
  3 36  1  0
  3 37  1  0
  5 38  1  0
  9 39  1  0
 12 40  1  0
 13 41  1  0
 16 42  1  0
 18 43  1  0
 20 44  1  0
 21 45  1  0
 23 46  1  0
 27 47  1  0
 28 48  1  1
 29 49  1  0
 29 50  1  0
 30 51  1  0
 30 52  1  0
 30 53  1  0
 31 54  1  0
 31 55  1  0
 32 56  1  0
M  END
$$$$
