
     RDKit          3D

 58 63  0  0  0  0  0  0  0  0999 V2000
   -3.5415   -1.9937   -0.4208 O   0  0  0  0  0  0  0  0  0  0  0  0
   -4.3047   -0.9531   -0.3886 C   0  0  0  0  0  0  0  0  0  0  0  0
   -5.6363   -1.2213   -0.0572 N   0  0  0  0  0  0  0  0  0  0  0  0
   -6.1302   -2.5759    0.2316 C   0  0  0  0  0  0  0  0  0  0  0  0
   -7.5212   -2.9379   -0.1439 C   0  0  0  0  0  0  0  0  0  0  0  0
   -7.1450   -2.7255    1.3049 C   0  0  0  0  0  0  0  0  0  0  0  0
   -3.7110    0.3277   -0.6898 C   0  0  0  0  0  0  0  0  0  0  0  0
   -2.3532    0.4221   -1.0040 C   0  0  0  0  0  0  0  0  0  0  0  0
   -1.7363    1.5702   -1.2928 N   0  0  0  0  0  0  0  0  0  0  0  0
   -0.3479    1.5276   -1.5958 C   0  0  0  0  0  0  0  0  0  0  0  0
    0.1368    2.1615   -2.7239 C   0  0  0  0  0  0  0  0  0  0  0  0
    1.4730    2.1578   -3.0743 C   0  0  0  0  0  0  0  0  0  0  0  0
    2.3542    1.4837   -2.2473 C   0  0  0  0  0  0  0  0  0  0  0  0
    1.9176    0.8351   -1.1089 C   0  0  0  0  0  0  0  0  0  0  0  0
    2.8902    0.1353   -0.2659 C   0  0  0  0  0  0  0  0  0  0  0  0
    2.7051    0.0306    1.1081 C   0  0  0  0  0  0  0  0  0  0  0  0
    3.6319   -0.6320    1.8845 C   0  0  0  0  0  0  0  0  0  0  0  0
    4.7724   -1.2169    1.3527 C   0  0  0  0  0  0  0  0  0  0  0  0
    5.6975   -1.8871    2.2588 C   0  0  2  0  0  0  0  0  0  0  0  0
    6.7056   -1.1646    3.0713 C   0  0  0  0  0  0  0  0  0  0  0  0
    7.1485   -1.9566    1.8905 C   0  0  1  0  0  0  0  0  0  0  0  0
    7.7695   -3.2822    2.1366 C   0  0  0  0  0  0  0  0  0  0  0  0
    8.6372   -3.7062    1.3439 O   0  0  0  0  0  0  0  0  0  0  0  0
    7.4262   -4.0734    3.2134 O   0  0  0  0  0  0  0  0  0  0  0  0
    4.9446   -1.1071   -0.0092 C   0  0  0  0  0  0  0  0  0  0  0  0
    6.0018   -1.6405   -0.6329 F   0  0  0  0  0  0  0  0  0  0  0  0
    4.0211   -0.4449   -0.7937 C   0  0  0  0  0  0  0  0  0  0  0  0
    0.5642    0.8687   -0.8009 C   0  0  0  0  0  0  0  0  0  0  0  0
   -2.4600    2.6873   -1.2796 C   0  0  0  0  0  0  0  0  0  0  0  0
   -1.8795    3.8686   -1.5647 N   0  0  0  0  0  0  0  0  0  0  0  0
   -2.5449    5.0318   -1.5706 C   0  0  0  0  0  0  0  0  0  0  0  0
   -3.8891    5.0695   -1.2768 C   0  0  0  0  0  0  0  0  0  0  0  0
   -4.5273    3.8925   -0.9794 C   0  0  0  0  0  0  0  0  0  0  0  0
   -3.8059    2.7235   -0.9852 C   0  0  0  0  0  0  0  0  0  0  0  0
   -4.4238    1.4867   -0.6845 C   0  0  0  0  0  0  0  0  0  0  0  0
   -5.6318    1.5172   -0.4201 O   0  0  0  0  0  0  0  0  0  0  0  0
   -6.3247   -0.4736   -0.0031 H   0  0  0  0  0  0  0  0  0  0  0  0
   -5.3360   -3.3438    0.1567 H   0  0  0  0  0  0  0  0  0  0  0  0
   -8.1465   -2.2108   -0.6727 H   0  0  0  0  0  0  0  0  0  0  0  0
   -7.6815   -3.9962   -0.4806 H   0  0  0  0  0  0  0  0  0  0  0  0
   -7.5678   -1.7804    1.7372 H   0  0  0  0  0  0  0  0  0  0  0  0
   -7.0962   -3.6056    1.9609 H   0  0  0  0  0  0  0  0  0  0  0  0
   -1.7973   -0.5137   -1.0039 H   0  0  0  0  0  0  0  0  0  0  0  0
   -0.5818    2.6832   -3.3541 H   0  0  0  0  0  0  0  0  0  0  0  0
    1.8554    2.6571   -3.9630 H   0  0  0  0  0  0  0  0  0  0  0  0
    3.4207    1.4414   -2.4651 H   0  0  0  0  0  0  0  0  0  0  0  0
    1.8199    0.4818    1.5390 H   0  0  0  0  0  0  0  0  0  0  0  0
    3.4614   -0.7004    2.9700 H   0  0  0  0  0  0  0  0  0  0  0  0
    5.2402   -2.7791    2.7854 H   0  0  0  0  0  0  0  0  0  0  0  0
    6.7490   -0.0484    3.0629 H   0  0  0  0  0  0  0  0  0  0  0  0
    6.9996   -1.5865    4.0535 H   0  0  0  0  0  0  0  0  0  0  0  0
    7.5266   -1.4425    0.9895 H   0  0  0  0  0  0  0  0  0  0  0  0
    7.9164   -4.9665    3.3749 H   0  0  0  0  0  0  0  0  0  0  0  0
    4.1788   -0.3727   -1.8552 H   0  0  0  0  0  0  0  0  0  0  0  0
    0.2126    0.3708    0.0774 H   0  0  0  0  0  0  0  0  0  0  0  0
   -2.0497    5.9655   -1.8041 H   0  0  0  0  0  0  0  0  0  0  0  0
   -4.4344    6.0329   -1.2830 H   0  0  0  0  0  0  0  0  0  0  0  0
   -5.5727    3.9087   -0.7493 H   0  0  0  0  0  0  0  0  0  0  0  0
  1  2  2  0
  2  3  1  0
  3  4  1  0
  4  5  1  0
  5  6  1  0
  2  7  1  0
  7  8  2  0
  8  9  1  0
  9 10  1  0
 10 11  2  0
 11 12  1  0
 12 13  2  0
 13 14  1  0
 14 15  1  0
 15 16  2  0
 16 17  1  0
 17 18  2  0
 18 19  1  0
 19 20  1  0
 20 21  1  0
 21 22  1  0
 22 23  2  0
 22 24  1  0
 18 25  1  0
 25 26  1  0
 25 27  2  0
 14 28  2  0
  9 29  1  0
 29 30  2  0
 30 31  1  0
 31 32  2  0
 32 33  1  0
 33 34  2  0
 34 35  1  0
 35 36  2  0
  6  4  1  0
 35  7  1  0
 28 10  1  0
 34 29  1  0
 27 15  1  0
 21 19  1  0
  3 37  1  0
  4 38  1  0
  5 39  1  0
  5 40  1  0
  6 41  1  0
  6 42  1  0
  8 43  1  0
 11 44  1  0
 12 45  1  0
 13 46  1  0
 16 47  1  0
 17 48  1  0
 19 49  1  1
 20 50  1  0
 20 51  1  0
 21 52  1  6
 24 53  1  0
 27 54  1  0
 28 55  1  0
 31 56  1  0
 32 57  1  0
 33 58  1  0
M  END
$$$$
