
     RDKit          3D

 53 56  0  0  0  0  0  0  0  0999 V2000
   -5.2807    3.9295    0.8884 C   0  0  0  0  0  0  0  0  0  0  0  0
   -5.7663    2.7026    0.4402 O   0  0  0  0  0  0  0  0  0  0  0  0
   -4.9965    1.6064    0.0770 C   0  0  0  0  0  0  0  0  0  0  0  0
   -5.6594    0.4716   -0.3441 C   0  0  0  0  0  0  0  0  0  0  0  0
   -7.0568    0.4714   -0.3873 O   0  0  0  0  0  0  0  0  0  0  0  0
   -7.7549   -0.6776   -0.8145 C   0  0  0  0  0  0  0  0  0  0  0  0
   -5.0000   -0.6780   -0.7296 C   0  0  0  0  0  0  0  0  0  0  0  0
   -3.6237   -0.6142   -0.6646 C   0  0  0  0  0  0  0  0  0  0  0  0
   -2.9108   -1.7322   -1.0373 C   0  0  0  0  0  0  0  0  0  0  0  0
   -3.6076   -2.8955   -1.4695 N   0  0  0  0  0  0  0  0  0  0  0  0
   -1.5666   -1.7262   -0.9937 N   0  0  0  0  0  0  0  0  0  0  0  0
   -0.8588   -0.6700   -0.5990 C   0  0  0  0  0  0  0  0  0  0  0  0
   -1.5449    0.4400   -0.2283 N   0  0  0  0  0  0  0  0  0  0  0  0
   -2.8884    0.4796   -0.2558 C   0  0  0  0  0  0  0  0  0  0  0  0
   -3.6158    1.5964    0.1161 C   0  0  0  0  0  0  0  0  0  0  0  0
    0.5742   -0.6683   -0.5542 N   0  0  0  0  0  0  0  0  0  0  0  0
    1.3872    0.4369   -0.1389 C   0  0  0  0  0  0  0  0  0  0  0  0
    2.7669    0.3162   -0.7407 C   0  0  0  0  0  0  0  0  0  0  0  0
    3.3712   -0.9256   -0.2928 N   0  0  0  0  0  0  0  0  0  0  0  0
    2.4473   -2.0281   -0.0412 C   0  0  0  0  0  0  0  0  0  0  0  0
    1.2492   -1.8962   -0.9668 C   0  0  0  0  0  0  0  0  0  0  0  0
    4.7425   -1.2730   -0.0471 C   0  0  0  0  0  0  0  0  0  0  0  0
    5.1741   -2.4028    0.3487 O   0  0  0  0  0  0  0  0  0  0  0  0
    5.9636   -0.4649   -0.1773 C   0  0  0  0  0  0  0  0  0  0  0  0
    6.7449   -0.3341    1.0906 C   0  0  0  0  0  0  0  0  0  0  0  0
    6.9294    1.1636    1.2030 C   0  0  0  0  0  0  0  0  0  0  0  0
    6.6787    1.6123   -0.2252 C   0  0  0  0  0  0  0  0  0  0  0  0
    5.6265    0.8220   -0.6122 O   0  0  0  0  0  0  0  0  0  0  0  0
   -6.0086    4.3415    1.6142 H   0  0  0  0  0  0  0  0  0  0  0  0
   -4.2888    3.8514    1.3496 H   0  0  0  0  0  0  0  0  0  0  0  0
   -5.2124    4.6127   -0.0032 H   0  0  0  0  0  0  0  0  0  0  0  0
   -8.8404   -0.4118   -0.8237 H   0  0  0  0  0  0  0  0  0  0  0  0
   -7.5260   -1.4868   -0.0824 H   0  0  0  0  0  0  0  0  0  0  0  0
   -7.4935   -0.9970   -1.8409 H   0  0  0  0  0  0  0  0  0  0  0  0
   -5.5085   -1.5739   -1.0616 H   0  0  0  0  0  0  0  0  0  0  0  0
   -4.0510   -3.1235   -2.3907 H   0  0  0  0  0  0  0  0  0  0  0  0
   -4.1004   -3.3140   -2.2850 H   0  0  0  0  0  0  0  0  0  0  0  0
   -3.0885    2.4740    0.4422 H   0  0  0  0  0  0  0  0  0  0  0  0
    0.9606    1.3892   -0.5688 H   0  0  0  0  0  0  0  0  0  0  0  0
    1.5230    0.5479    0.9390 H   0  0  0  0  0  0  0  0  0  0  0  0
    2.6975    0.2438   -1.8513 H   0  0  0  0  0  0  0  0  0  0  0  0
    3.3309    1.2117   -0.4142 H   0  0  0  0  0  0  0  0  0  0  0  0
    2.0630   -1.9461    1.0076 H   0  0  0  0  0  0  0  0  0  0  0  0
    2.9098   -3.0229   -0.1936 H   0  0  0  0  0  0  0  0  0  0  0  0
    1.6308   -1.7651   -2.0029 H   0  0  0  0  0  0  0  0  0  0  0  0
    0.5861   -2.7558   -0.8460 H   0  0  0  0  0  0  0  0  0  0  0  0
    6.6764   -0.8992   -0.9373 H   0  0  0  0  0  0  0  0  0  0  0  0
    6.2654   -0.7706    1.9836 H   0  0  0  0  0  0  0  0  0  0  0  0
    7.7674   -0.7914    1.0328 H   0  0  0  0  0  0  0  0  0  0  0  0
    7.9617    1.4284    1.5244 H   0  0  0  0  0  0  0  0  0  0  0  0
    6.1557    1.6184    1.8618 H   0  0  0  0  0  0  0  0  0  0  0  0
    6.4411    2.6828   -0.1955 H   0  0  0  0  0  0  0  0  0  0  0  0
    7.6244    1.3946   -0.7733 H   0  0  0  0  0  0  0  0  0  0  0  0
  1  2  1  0
  2  3  1  0
  3  4  2  0
  4  5  1  0
  5  6  1  0
  4  7  1  0
  7  8  2  0
  8  9  1  0
  9 10  1  0
  9 11  2  0
 11 12  1  0
 12 13  2  0
 13 14  1  0
 14 15  2  0
 12 16  1  0
 16 17  1  0
 17 18  1  0
 18 19  1  0
 19 20  1  0
 20 21  1  0
 19 22  1  0
 22 23  2  0
 22 24  1  0
 24 25  1  0
 25 26  1  0
 26 27  1  0
 27 28  1  0
 15  3  1  0
 21 16  1  0
 28 24  1  0
 14  8  1  0
  1 29  1  0
  1 30  1  0
  1 31  1  0
  6 32  1  0
  6 33  1  0
  6 34  1  0
  7 35  1  0
 10 36  1  0
 10 37  1  0
 15 38  1  0
 17 39  1  0
 17 40  1  0
 18 41  1  0
 18 42  1  0
 20 43  1  0
 20 44  1  0
 21 45  1  0
 21 46  1  0
 24 47  1  0
 25 48  1  0
 25 49  1  0
 26 50  1  0
 26 51  1  0
 27 52  1  0
 27 53  1  0
M  END
$$$$
