
     RDKit          3D

 45 48  0  0  0  0  0  0  0  0999 V2000
   -1.3374   -0.5735    0.1414 C   0  0  2  0  0  0  0  0  0  0  0  0
   -2.3582   -1.2764   -0.6520 C   0  0  0  0  0  0  0  0  0  0  0  0
   -3.4960   -1.2626    0.3777 C   0  0  1  0  0  0  0  0  0  0  0  0
   -3.2048   -2.3303    1.2362 O   0  0  0  0  0  0  0  0  0  0  0  0
   -3.3069    0.0467    1.1355 C   0  0  2  0  0  0  0  0  0  0  0  0
   -4.4151    0.8385    0.7623 O   0  0  0  0  0  0  0  0  0  0  0  0
   -2.0472    0.6675    0.6269 C   0  0  2  0  0  0  0  0  0  0  0  0
   -2.3572    1.6514   -0.4340 C   0  0  0  0  0  0  0  0  0  0  0  0
   -1.1837    1.2656    1.6985 C   0  0  0  0  0  0  0  0  0  0  0  0
    0.2034    1.5299    1.1607 C   0  0  0  0  0  0  0  0  0  0  0  0
    0.7930    0.2366    0.6816 C   0  0  2  0  0  0  0  0  0  0  0  0
    2.1855    0.3277    0.2516 C   0  0  0  0  0  0  0  0  0  0  0  0
    2.7117   -0.7464   -0.4434 C   0  0  0  0  0  0  0  0  0  0  0  0
    1.7869   -1.8890   -0.6778 C   0  0  0  0  0  0  0  0  0  0  0  0
    0.5612   -1.2796   -1.3290 C   0  0  0  0  0  0  0  0  0  0  0  0
   -0.0623   -0.2115   -0.5066 C   0  0  1  0  0  0  0  0  0  0  0  0
    4.0135   -0.7802   -0.9026 C   0  0  0  0  0  0  0  0  0  0  0  0
    4.8068    0.3366   -0.6359 C   0  0  0  0  0  0  0  0  0  0  0  0
    6.1268    0.3544   -1.0765 O   0  0  0  0  0  0  0  0  0  0  0  0
    4.3211    1.4286    0.0539 C   0  0  0  0  0  0  0  0  0  0  0  0
    3.0136    1.4020    0.4860 C   0  0  0  0  0  0  0  0  0  0  0  0
   -1.1323   -1.1877    1.0445 H   0  0  0  0  0  0  0  0  0  0  0  0
   -2.0826   -2.3435   -0.8867 H   0  0  0  0  0  0  0  0  0  0  0  0
   -2.6520   -0.8228   -1.5957 H   0  0  0  0  0  0  0  0  0  0  0  0
   -4.4762   -1.3716   -0.0826 H   0  0  0  0  0  0  0  0  0  0  0  0
   -2.5729   -2.9826    0.8560 H   0  0  0  0  0  0  0  0  0  0  0  0
   -3.2963   -0.1402    2.2365 H   0  0  0  0  0  0  0  0  0  0  0  0
   -4.7230    1.3994    1.4998 H   0  0  0  0  0  0  0  0  0  0  0  0
   -1.6440    2.4828   -0.5608 H   0  0  0  0  0  0  0  0  0  0  0  0
   -2.5168    1.2171   -1.4384 H   0  0  0  0  0  0  0  0  0  0  0  0
   -3.3474    2.1326   -0.1836 H   0  0  0  0  0  0  0  0  0  0  0  0
   -1.0896    0.5405    2.5079 H   0  0  0  0  0  0  0  0  0  0  0  0
   -1.6711    2.2114    2.0437 H   0  0  0  0  0  0  0  0  0  0  0  0
    0.8324    1.9930    1.9523 H   0  0  0  0  0  0  0  0  0  0  0  0
    0.2204    2.2407    0.3091 H   0  0  0  0  0  0  0  0  0  0  0  0
    0.7076   -0.5428    1.4775 H   0  0  0  0  0  0  0  0  0  0  0  0
    1.4826   -2.3481    0.3016 H   0  0  0  0  0  0  0  0  0  0  0  0
    2.2154   -2.6400   -1.3671 H   0  0  0  0  0  0  0  0  0  0  0  0
    0.9410   -0.7976   -2.2773 H   0  0  0  0  0  0  0  0  0  0  0  0
   -0.1629   -2.0891   -1.5851 H   0  0  0  0  0  0  0  0  0  0  0  0
   -0.2270    0.7328   -1.0941 H   0  0  0  0  0  0  0  0  0  0  0  0
    4.4097   -1.6362   -1.4486 H   0  0  0  0  0  0  0  0  0  0  0  0
    6.4877   -0.3288   -1.7297 H   0  0  0  0  0  0  0  0  0  0  0  0
    4.9120    2.2963    0.2698 H   0  0  0  0  0  0  0  0  0  0  0  0
    2.6304    2.2485    1.0231 H   0  0  0  0  0  0  0  0  0  0  0  0
  1  2  1  0
  2  3  1  0
  3  4  1  0
  3  5  1  0
  5  6  1  0
  5  7  1  0
  7  8  1  6
  7  9  1  0
  9 10  1  0
 10 11  1  0
 11 12  1  0
 12 13  2  0
 13 14  1  0
 14 15  1  0
 15 16  1  0
 13 17  1  0
 17 18  2  0
 18 19  1  0
 18 20  1  0
 20 21  2  0
  7  1  1  0
 16 11  1  0
 16  1  1  0
 21 12  1  0
  1 22  1  1
  2 23  1  0
  2 24  1  0
  3 25  1  6
  4 26  1  0
  5 27  1  1
  6 28  1  0
  8 29  1  0
  8 30  1  0
  8 31  1  0
  9 32  1  0
  9 33  1  0
 10 34  1  0
 10 35  1  0
 11 36  1  1
 14 37  1  0
 14 38  1  0
 15 39  1  0
 15 40  1  0
 16 41  1  6
 17 42  1  0
 19 43  1  0
 20 44  1  0
 21 45  1  0
M  END
$$$$
