
     RDKit          3D

 34 36  0  0  0  0  0  0  0  0999 V2000
   -3.0817    3.3762    0.8066 C   0  0  0  0  0  0  0  0  0  0  0  0
   -1.7992    2.6244    0.9668 C   0  0  0  0  0  0  0  0  0  0  0  0
   -1.8890    1.2274    0.4779 C   0  0  0  0  0  0  0  0  0  0  0  0
   -2.9505    0.6108    0.0447 O   0  0  0  0  0  0  0  0  0  0  0  0
   -2.6246   -0.6122   -0.2954 C   0  0  0  0  0  0  0  0  0  0  0  0
   -3.4429   -1.6238   -0.8054 C   0  0  0  0  0  0  0  0  0  0  0  0
   -2.8507   -2.8363   -1.0787 C   0  0  0  0  0  0  0  0  0  0  0  0
   -1.5160   -3.0609   -0.8656 C   0  0  0  0  0  0  0  0  0  0  0  0
   -0.7115   -2.0331   -0.3546 C   0  0  0  0  0  0  0  0  0  0  0  0
   -1.2855   -0.8228   -0.0805 C   0  0  0  0  0  0  0  0  0  0  0  0
   -0.7932    0.3797    0.4264 C   0  0  0  0  0  0  0  0  0  0  0  0
    0.5278    0.7068    0.8608 C   0  0  0  0  0  0  0  0  0  0  0  0
    0.6248    1.5659    1.8223 O   0  0  0  0  0  0  0  0  0  0  0  0
    1.7972    0.2213    0.3816 C   0  0  0  0  0  0  0  0  0  0  0  0
    1.9989   -0.2111   -0.9161 C   0  0  0  0  0  0  0  0  0  0  0  0
    3.2141   -0.6841   -1.3561 C   0  0  0  0  0  0  0  0  0  0  0  0
    3.4409   -1.2691   -3.1637 Br  0  0  0  0  0  0  0  0  0  0  0  0
    4.3074   -0.7528   -0.5177 C   0  0  0  0  0  0  0  0  0  0  0  0
    5.5277   -1.2399   -1.0030 O   0  0  0  0  0  0  0  0  0  0  0  0
    4.1331   -0.3271    0.7802 C   0  0  0  0  0  0  0  0  0  0  0  0
    5.6418   -0.4230    1.9437 Br  0  0  0  0  0  0  0  0  0  0  0  0
    2.9204    0.1446    1.2190 C   0  0  0  0  0  0  0  0  0  0  0  0
   -3.8803    2.9443    1.4239 H   0  0  0  0  0  0  0  0  0  0  0  0
   -2.8940    4.4085    1.1927 H   0  0  0  0  0  0  0  0  0  0  0  0
   -3.4037    3.4835   -0.2466 H   0  0  0  0  0  0  0  0  0  0  0  0
   -1.5738    2.6260    2.0717 H   0  0  0  0  0  0  0  0  0  0  0  0
   -1.0079    3.1277    0.4001 H   0  0  0  0  0  0  0  0  0  0  0  0
   -4.5033   -1.4471   -0.9739 H   0  0  0  0  0  0  0  0  0  0  0  0
   -3.4776   -3.6142   -1.4710 H   0  0  0  0  0  0  0  0  0  0  0  0
   -1.0291   -4.0047   -1.0704 H   0  0  0  0  0  0  0  0  0  0  0  0
    0.3181   -2.1862   -0.1593 H   0  0  0  0  0  0  0  0  0  0  0  0
    1.1485   -0.1652   -1.6013 H   0  0  0  0  0  0  0  0  0  0  0  0
    6.3442   -0.6188   -1.1043 H   0  0  0  0  0  0  0  0  0  0  0  0
    2.7696    0.4853    2.2451 H   0  0  0  0  0  0  0  0  0  0  0  0
  1  2  1  0
  2  3  1  0
  3  4  1  0
  4  5  1  0
  5  6  2  0
  6  7  1  0
  7  8  2  0
  8  9  1  0
  9 10  2  0
 10 11  1  0
 11 12  1  0
 12 13  2  0
 12 14  1  0
 14 15  2  0
 15 16  1  0
 16 17  1  0
 16 18  2  0
 18 19  1  0
 18 20  1  0
 20 21  1  0
 20 22  2  0
 11  3  2  0
 22 14  1  0
 10  5  1  0
  1 23  1  0
  1 24  1  0
  1 25  1  0
  2 26  1  0
  2 27  1  0
  6 28  1  0
  7 29  1  0
  8 30  1  0
  9 31  1  0
 15 32  1  0
 19 33  1  0
 22 34  1  0
M  END
$$$$
