
     RDKit          3D

 64 68  0  0  0  0  0  0  0  0999 V2000
    6.9963   -0.9115    1.7864 O   0  0  0  0  0  0  0  0  0  0  0  0
    7.4217   -0.8021    0.6062 C   0  0  0  0  0  0  0  0  0  0  0  0
    6.5757   -0.1285   -0.3052 N   0  0  0  0  0  0  0  0  0  0  0  0
    5.3130    0.4078    0.0505 C   0  0  0  0  0  0  0  0  0  0  0  0
    5.2489    1.7052    0.5033 C   0  0  0  0  0  0  0  0  0  0  0  0
    4.0539    2.3022    0.8704 C   0  0  0  0  0  0  0  0  0  0  0  0
    2.8931    1.5627    0.7754 C   0  0  0  0  0  0  0  0  0  0  0  0
    2.9170    0.2519    0.3236 C   0  0  0  0  0  0  0  0  0  0  0  0
    4.1459   -0.3141   -0.0375 C   0  0  0  0  0  0  0  0  0  0  0  0
    1.5445   -0.2501    0.3386 C   0  0  0  0  0  0  0  0  0  0  0  0
    1.1856   -1.4007   -0.0063 O   0  0  0  0  0  0  0  0  0  0  0  0
    0.6673    0.7759    0.8091 N   0  0  0  0  0  0  0  0  0  0  0  0
   -0.7732    0.7093    0.9818 C   0  0  0  0  0  0  0  0  0  0  0  0
   -1.4174    1.1518   -0.3173 C   0  0  0  0  0  0  0  0  0  0  0  0
   -2.9222    1.1145   -0.2313 C   0  0  0  0  0  0  0  0  0  0  0  0
   -3.3961   -0.2776    0.0673 C   0  0  0  0  0  0  0  0  0  0  0  0
   -4.9025   -0.4018   -0.0305 C   0  0  0  0  0  0  0  0  0  0  0  0
   -5.4522    0.4771   -1.0327 N   0  0  0  0  0  0  0  0  0  0  0  0
   -6.6802    0.0169   -1.6027 C   0  0  0  0  0  0  0  0  0  0  0  0
   -7.7530   -0.1356   -0.6018 C   0  0  0  0  0  0  0  0  0  0  0  0
   -8.5690    0.9465   -0.3409 C   0  0  0  0  0  0  0  0  0  0  0  0
   -9.5794    0.8240    0.5914 C   0  0  0  0  0  0  0  0  0  0  0  0
   -9.7784   -0.3656    1.2605 C   0  0  0  0  0  0  0  0  0  0  0  0
   -8.9804   -1.4625    1.0214 C   0  0  0  0  0  0  0  0  0  0  0  0
   -7.9709   -1.3088    0.0769 C   0  0  0  0  0  0  0  0  0  0  0  0
   -4.4830    0.7252   -2.0682 C   0  0  0  0  0  0  0  0  0  0  0  0
   -3.4629    1.6928   -1.5095 C   0  0  0  0  0  0  0  0  0  0  0  0
    1.5096    1.9050    1.0809 C   0  0  0  0  0  0  0  0  0  0  0  0
    1.1027    3.0195    1.5177 O   0  0  0  0  0  0  0  0  0  0  0  0
    8.7310   -1.3595    0.2431 C   0  0  0  0  0  0  0  0  0  0  0  0
    9.4751   -1.9974    1.2143 C   0  0  0  0  0  0  0  0  0  0  0  0
   10.7104   -2.5465    0.9560 C   0  0  0  0  0  0  0  0  0  0  0  0
   11.2327   -2.4647   -0.3049 C   0  0  0  0  0  0  0  0  0  0  0  0
   10.5068   -1.8354   -1.2781 C   0  0  0  0  0  0  0  0  0  0  0  0
    9.2510   -1.2788   -1.0097 C   0  0  0  0  0  0  0  0  0  0  0  0
    6.9150   -0.0268   -1.3003 H   0  0  0  0  0  0  0  0  0  0  0  0
    6.1586    2.2762    0.5748 H   0  0  0  0  0  0  0  0  0  0  0  0
    3.9807    3.3194    1.2284 H   0  0  0  0  0  0  0  0  0  0  0  0
    4.1859   -1.3427   -0.3950 H   0  0  0  0  0  0  0  0  0  0  0  0
   -1.0492    1.3789    1.8291 H   0  0  0  0  0  0  0  0  0  0  0  0
   -1.0458   -0.3239    1.2595 H   0  0  0  0  0  0  0  0  0  0  0  0
   -1.0754    0.4402   -1.0984 H   0  0  0  0  0  0  0  0  0  0  0  0
   -1.0704    2.1896   -0.5078 H   0  0  0  0  0  0  0  0  0  0  0  0
   -3.2067    1.7688    0.6313 H   0  0  0  0  0  0  0  0  0  0  0  0
   -2.8865   -1.0531   -0.5157 H   0  0  0  0  0  0  0  0  0  0  0  0
   -3.1426   -0.4789    1.1403 H   0  0  0  0  0  0  0  0  0  0  0  0
   -5.3830   -0.2850    0.9583 H   0  0  0  0  0  0  0  0  0  0  0  0
   -5.0975   -1.4487   -0.3945 H   0  0  0  0  0  0  0  0  0  0  0  0
   -7.0088    0.7604   -2.3480 H   0  0  0  0  0  0  0  0  0  0  0  0
   -6.5337   -0.9427   -2.1615 H   0  0  0  0  0  0  0  0  0  0  0  0
   -8.4601    1.9085   -0.8366 H   0  0  0  0  0  0  0  0  0  0  0  0
  -10.2494    1.6415    0.8351 H   0  0  0  0  0  0  0  0  0  0  0  0
  -10.5824   -0.4502    1.9970 H   0  0  0  0  0  0  0  0  0  0  0  0
   -9.1376   -2.4016    1.5497 H   0  0  0  0  0  0  0  0  0  0  0  0
   -7.3579   -2.1786   -0.0963 H   0  0  0  0  0  0  0  0  0  0  0  0
   -3.9643   -0.2332   -2.2685 H   0  0  0  0  0  0  0  0  0  0  0  0
   -4.9794    1.1327   -2.9720 H   0  0  0  0  0  0  0  0  0  0  0  0
   -2.6491    1.9021   -2.2604 H   0  0  0  0  0  0  0  0  0  0  0  0
   -3.9375    2.6892   -1.3083 H   0  0  0  0  0  0  0  0  0  0  0  0
    9.0511   -2.0572    2.2137 H   0  0  0  0  0  0  0  0  0  0  0  0
   11.2924   -3.0525    1.7419 H   0  0  0  0  0  0  0  0  0  0  0  0
   12.2167   -2.9046   -0.5011 H   0  0  0  0  0  0  0  0  0  0  0  0
   10.9303   -1.7745   -2.2808 H   0  0  0  0  0  0  0  0  0  0  0  0
    8.7250   -0.8000   -1.7986 H   0  0  0  0  0  0  0  0  0  0  0  0
  1  2  2  0
  2  3  1  0
  3  4  1  0
  4  5  2  0
  5  6  1  0
  6  7  2  0
  7  8  1  0
  8  9  2  0
  8 10  1  0
 10 11  2  0
 10 12  1  0
 12 13  1  0
 13 14  1  0
 14 15  1  0
 15 16  1  0
 16 17  1  0
 17 18  1  0
 18 19  1  0
 19 20  1  0
 20 21  2  0
 21 22  1  0
 22 23  2  0
 23 24  1  0
 24 25  2  0
 18 26  1  0
 26 27  1  0
 12 28  1  0
 28 29  2  0
  2 30  1  0
 30 31  2  0
 31 32  1  0
 32 33  2  0
 33 34  1  0
 34 35  2  0
  9  4  1  0
 27 15  1  0
 35 30  1  0
 28  7  1  0
 25 20  1  0
  3 36  1  0
  5 37  1  0
  6 38  1  0
  9 39  1  0
 13 40  1  0
 13 41  1  0
 14 42  1  0
 14 43  1  0
 15 44  1  0
 16 45  1  0
 16 46  1  0
 17 47  1  0
 17 48  1  0
 19 49  1  0
 19 50  1  0
 21 51  1  0
 22 52  1  0
 23 53  1  0
 24 54  1  0
 25 55  1  0
 26 56  1  0
 26 57  1  0
 27 58  1  0
 27 59  1  0
 31 60  1  0
 32 61  1  0
 33 62  1  0
 34 63  1  0
 35 64  1  0
M  END
$$$$
