
     RDKit          3D

 24 25  0  0  0  0  0  0  0  0999 V2000
   -0.0221   -1.5407    0.2091 C   0  0  0  0  0  0  0  0  0  0  0  0
   -1.3415   -0.8155    0.2618 C   0  0  0  0  0  0  0  0  0  0  0  0
   -2.3586   -1.1121   -0.4771 N   0  0  0  0  0  0  0  0  0  0  0  0
   -3.4221   -0.2069   -0.1421 C   0  0  0  0  0  0  0  0  0  0  0  0
   -2.7231    0.9348    0.5354 C   0  0  0  0  0  0  0  0  0  0  0  0
   -1.5654    0.2898    1.1640 N   0  0  0  0  0  0  0  0  0  0  0  0
    1.0927   -0.6652   -0.1490 C   0  0  0  0  0  0  0  0  0  0  0  0
    1.8168    0.0068    0.8441 C   0  0  0  0  0  0  0  0  0  0  0  0
    2.8824    0.8564    0.6539 C   0  0  0  0  0  0  0  0  0  0  0  0
    3.2767    1.0653   -0.6690 C   0  0  0  0  0  0  0  0  0  0  0  0
    2.5961    0.4265   -1.6883 C   0  0  0  0  0  0  0  0  0  0  0  0
    1.5316   -0.4171   -1.4372 C   0  0  0  0  0  0  0  0  0  0  0  0
   -0.1135   -2.4383   -0.4327 H   0  0  0  0  0  0  0  0  0  0  0  0
    0.1871   -1.9111    1.2561 H   0  0  0  0  0  0  0  0  0  0  0  0
   -3.9254    0.0942   -1.0859 H   0  0  0  0  0  0  0  0  0  0  0  0
   -4.1327   -0.7256    0.5451 H   0  0  0  0  0  0  0  0  0  0  0  0
   -2.3594    1.6178   -0.2866 H   0  0  0  0  0  0  0  0  0  0  0  0
   -3.3476    1.4767    1.2695 H   0  0  0  0  0  0  0  0  0  0  0  0
   -0.9847    0.4762    2.0116 H   0  0  0  0  0  0  0  0  0  0  0  0
    1.4928   -0.1705    1.8636 H   0  0  0  0  0  0  0  0  0  0  0  0
    3.3547    1.3111    1.4964 H   0  0  0  0  0  0  0  0  0  0  0  0
    4.1114    1.7321   -0.8038 H   0  0  0  0  0  0  0  0  0  0  0  0
    2.9435    0.6239   -2.6946 H   0  0  0  0  0  0  0  0  0  0  0  0
    1.0104   -0.9085   -2.2444 H   0  0  0  0  0  0  0  0  0  0  0  0
  1  2  1  0
  2  3  2  0
  3  4  1  0
  4  5  1  0
  5  6  1  0
  1  7  1  0
  7  8  2  0
  8  9  1  0
  9 10  2  0
 10 11  1  0
 11 12  2  0
  6  2  1  0
 12  7  1  0
  1 13  1  0
  1 14  1  0
  4 15  1  0
  4 16  1  0
  5 17  1  0
  5 18  1  0
  6 19  1  0
  8 20  1  0
  9 21  1  0
 10 22  1  0
 11 23  1  0
 12 24  1  0
M  END
$$$$
