
     RDKit          3D

 77 83  0  0  0  0  0  0  0  0999 V2000
   -2.4456    7.9996   -0.3801 C   0  0  0  0  0  0  0  0  0  0  0  0
   -1.7596    6.7845   -0.2091 O   0  0  0  0  0  0  0  0  0  0  0  0
   -2.3693    5.5616   -0.3822 C   0  0  0  0  0  0  0  0  0  0  0  0
   -1.6352    4.3857   -0.1992 C   0  0  0  0  0  0  0  0  0  0  0  0
   -2.1932    3.1569   -0.3590 C   0  0  0  0  0  0  0  0  0  0  0  0
   -1.4740    1.9573   -0.1752 N   0  0  0  0  0  0  0  0  0  0  0  0
   -0.0931    1.9041    0.2374 C   0  0  0  0  0  0  0  0  0  0  0  0
    0.5819    2.7501    0.8796 O   0  0  0  0  0  0  0  0  0  0  0  0
    0.4445    0.6687   -0.2153 N   0  0  0  0  0  0  0  0  0  0  0  0
    1.7753    0.2127   -0.0516 C   0  0  0  0  0  0  0  0  0  0  0  0
    2.7595    0.4911   -0.9736 C   0  0  0  0  0  0  0  0  0  0  0  0
    4.0541    0.0398   -0.8359 C   0  0  0  0  0  0  0  0  0  0  0  0
    4.4016   -0.7239    0.2613 C   0  0  0  0  0  0  0  0  0  0  0  0
    5.7852   -1.1887    0.3611 C   0  0  0  0  0  0  0  0  0  0  0  0
    6.5203   -1.4708   -0.7935 C   0  0  0  0  0  0  0  0  0  0  0  0
    7.8258   -1.9090   -0.7377 C   0  0  0  0  0  0  0  0  0  0  0  0
    8.4712   -2.0901    0.4705 C   0  0  0  0  0  0  0  0  0  0  0  0
    9.8587   -2.5469    0.5016 C   0  0  0  0  0  0  0  0  0  0  0  0
   10.6485   -2.8274   -0.6010 C   0  0  0  0  0  0  0  0  0  0  0  0
   11.9085   -3.2279   -0.1917 C   0  0  0  0  0  0  0  0  0  0  0  0
   11.8488   -3.1794    1.1576 N   0  0  0  0  0  0  0  0  0  0  0  0
   10.6537   -2.7823    1.5577 N   0  0  0  0  0  0  0  0  0  0  0  0
    7.7528   -1.8144    1.6117 C   0  0  0  0  0  0  0  0  0  0  0  0
    6.4245   -1.3684    1.5597 C   0  0  0  0  0  0  0  0  0  0  0  0
    3.4218   -1.0024    1.1824 C   0  0  0  0  0  0  0  0  0  0  0  0
    2.1170   -0.5397    1.0325 C   0  0  0  0  0  0  0  0  0  0  0  0
   -0.6273   -0.0131   -0.8957 C   0  0  0  0  0  0  0  0  0  0  0  0
   -0.4224   -0.9019   -1.7539 O   0  0  0  0  0  0  0  0  0  0  0  0
   -1.8628    0.5812   -0.3437 C   0  0  0  0  0  0  0  0  0  0  0  0
   -2.1467    0.0098    1.0153 C   0  0  0  0  0  0  0  0  0  0  0  0
   -3.5738   -0.5177    1.0495 C   0  0  0  0  0  0  0  0  0  0  0  0
   -3.6621   -1.5585    0.0844 N   0  0  0  0  0  0  0  0  0  0  0  0
   -4.8027   -2.4038    0.1433 C   0  0  0  0  0  0  0  0  0  0  0  0
   -6.0987   -1.7493   -0.1719 C   0  0  0  0  0  0  0  0  0  0  0  0
   -6.2179   -0.6541   -0.8944 N   0  0  0  0  0  0  0  0  0  0  0  0
   -7.4064   -0.1038   -1.1650 C   0  0  0  0  0  0  0  0  0  0  0  0
   -8.5602   -0.6835   -0.6822 C   0  0  0  0  0  0  0  0  0  0  0  0
   -8.4683   -1.8275    0.0763 C   0  0  0  0  0  0  0  0  0  0  0  0
   -7.2377   -2.3633    0.3331 C   0  0  0  0  0  0  0  0  0  0  0  0
   -7.1413   -3.6130    1.1552 C   0  0  0  0  0  0  0  0  0  0  0  0
   -3.3460   -1.1180   -1.2601 C   0  0  0  0  0  0  0  0  0  0  0  0
   -3.0355    0.3732   -1.2735 C   0  0  0  0  0  0  0  0  0  0  0  0
   -3.4932    3.1415   -0.7033 N   0  0  0  0  0  0  0  0  0  0  0  0
   -4.2089    4.2655   -0.8817 C   0  0  0  0  0  0  0  0  0  0  0  0
   -3.6562    5.4677   -0.7237 N   0  0  0  0  0  0  0  0  0  0  0  0
   -3.4936    7.9230   -0.0406 H   0  0  0  0  0  0  0  0  0  0  0  0
   -2.4389    8.2697   -1.4520 H   0  0  0  0  0  0  0  0  0  0  0  0
   -1.8930    8.7665    0.2345 H   0  0  0  0  0  0  0  0  0  0  0  0
   -0.6248    4.5101    0.0702 H   0  0  0  0  0  0  0  0  0  0  0  0
    2.4466    1.0990   -1.8272 H   0  0  0  0  0  0  0  0  0  0  0  0
    4.7583    0.3127   -1.6156 H   0  0  0  0  0  0  0  0  0  0  0  0
    6.0119   -1.3262   -1.7340 H   0  0  0  0  0  0  0  0  0  0  0  0
    8.3799   -2.1213   -1.6382 H   0  0  0  0  0  0  0  0  0  0  0  0
   10.3128   -2.7412   -1.6261 H   0  0  0  0  0  0  0  0  0  0  0  0
   12.7689   -3.5204   -0.7826 H   0  0  0  0  0  0  0  0  0  0  0  0
   12.6706   -3.4319    1.7660 H   0  0  0  0  0  0  0  0  0  0  0  0
    8.2514   -1.9530    2.5583 H   0  0  0  0  0  0  0  0  0  0  0  0
    5.8984   -1.1651    2.4903 H   0  0  0  0  0  0  0  0  0  0  0  0
    3.6740   -1.6072    2.0656 H   0  0  0  0  0  0  0  0  0  0  0  0
    1.4232   -0.8174    1.8193 H   0  0  0  0  0  0  0  0  0  0  0  0
   -2.0261    0.7366    1.8349 H   0  0  0  0  0  0  0  0  0  0  0  0
   -1.4733   -0.8480    1.2544 H   0  0  0  0  0  0  0  0  0  0  0  0
   -4.3377    0.2535    1.0317 H   0  0  0  0  0  0  0  0  0  0  0  0
   -3.6666   -1.0116    2.0613 H   0  0  0  0  0  0  0  0  0  0  0  0
   -4.8847   -2.7415    1.2195 H   0  0  0  0  0  0  0  0  0  0  0  0
   -4.6689   -3.3216   -0.4409 H   0  0  0  0  0  0  0  0  0  0  0  0
   -7.4820    0.8175   -1.7740 H   0  0  0  0  0  0  0  0  0  0  0  0
   -9.5412   -0.2428   -0.8992 H   0  0  0  0  0  0  0  0  0  0  0  0
   -9.3701   -2.3105    0.4723 H   0  0  0  0  0  0  0  0  0  0  0  0
   -7.1158   -3.3582    2.2268 H   0  0  0  0  0  0  0  0  0  0  0  0
   -8.0089   -4.2589    0.8755 H   0  0  0  0  0  0  0  0  0  0  0  0
   -6.2460   -4.2020    0.8978 H   0  0  0  0  0  0  0  0  0  0  0  0
   -4.2071   -1.2615   -1.9605 H   0  0  0  0  0  0  0  0  0  0  0  0
   -2.5487   -1.7507   -1.6348 H   0  0  0  0  0  0  0  0  0  0  0  0
   -2.7353    0.6959   -2.2726 H   0  0  0  0  0  0  0  0  0  0  0  0
   -3.9060    0.8588   -0.8474 H   0  0  0  0  0  0  0  0  0  0  0  0
   -5.2427    4.1751   -1.1585 H   0  0  0  0  0  0  0  0  0  0  0  0
  1  2  1  0
  2  3  1  0
  3  4  2  0
  4  5  1  0
  5  6  1  0
  6  7  1  0
  7  8  2  0
  7  9  1  0
  9 10  1  0
 10 11  2  0
 11 12  1  0
 12 13  2  0
 13 14  1  0
 14 15  2  0
 15 16  1  0
 16 17  2  0
 17 18  1  0
 18 19  1  0
 19 20  2  0
 20 21  1  0
 21 22  1  0
 17 23  1  0
 23 24  2  0
 13 25  1  0
 25 26  2  0
  9 27  1  0
 27 28  2  0
 27 29  1  0
 29 30  1  0
 30 31  1  0
 31 32  1  0
 32 33  1  0
 33 34  1  0
 34 35  2  0
 35 36  1  0
 36 37  2  0
 37 38  1  0
 38 39  2  0
 39 40  1  0
 32 41  1  0
 41 42  1  0
  5 43  2  0
 43 44  1  0
 44 45  2  0
 45  3  1  0
 29  6  1  0
 39 34  1  0
 26 10  1  0
 42 29  1  0
 24 14  1  0
 22 18  2  0
  1 46  1  0
  1 47  1  0
  1 48  1  0
  4 49  1  0
 11 50  1  0
 12 51  1  0
 15 52  1  0
 16 53  1  0
 19 54  1  0
 20 55  1  0
 21 56  1  0
 23 57  1  0
 24 58  1  0
 25 59  1  0
 26 60  1  0
 30 61  1  0
 30 62  1  0
 31 63  1  0
 31 64  1  0
 33 65  1  0
 33 66  1  0
 36 67  1  0
 37 68  1  0
 38 69  1  0
 40 70  1  0
 40 71  1  0
 40 72  1  0
 41 73  1  0
 41 74  1  0
 42 75  1  0
 42 76  1  0
 44 77  1  0
M  END
$$$$
