
     RDKit          3D

 40 43  0  0  0  0  0  0  0  0999 V2000
    7.2766   -0.4828    0.5441 C   0  0  0  0  0  0  0  0  0  0  0  0
    5.9487   -0.2181   -0.0337 N   0  0  0  0  0  0  0  0  0  0  0  0
    4.7641   -0.5355    0.6678 C   0  0  0  0  0  0  0  0  0  0  0  0
    4.9215   -1.0576    1.8142 O   0  0  0  0  0  0  0  0  0  0  0  0
    3.4124   -0.2943    0.1436 C   0  0  0  0  0  0  0  0  0  0  0  0
    3.1974    0.2819   -1.0874 C   0  0  0  0  0  0  0  0  0  0  0  0
    1.9005    0.4837   -1.5292 C   0  0  0  0  0  0  0  0  0  0  0  0
    0.8006    0.1277   -0.7799 C   0  0  0  0  0  0  0  0  0  0  0  0
   -0.4926    0.3296   -1.2245 C   0  0  0  0  0  0  0  0  0  0  0  0
   -1.5890   -0.0391   -0.4506 C   0  0  0  0  0  0  0  0  0  0  0  0
   -2.9879    0.1677   -0.9063 C   0  0  1  0  0  0  0  0  0  0  0  0
   -3.0085    0.5727   -2.2408 O   0  0  0  0  0  0  0  0  0  0  0  0
   -3.7162   -1.1335   -0.7891 C   0  0  0  0  0  0  0  0  0  0  0  0
   -4.7707   -0.9291    0.2539 C   0  0  0  0  0  0  0  0  0  0  0  0
   -4.6942    0.4801    0.6202 N   0  0  0  0  0  0  0  0  0  0  0  0
   -5.3139    1.3589    1.4079 C   0  0  0  0  0  0  0  0  0  0  0  0
   -4.7091    2.5568    1.2670 N   0  0  0  0  0  0  0  0  0  0  0  0
   -3.7082    2.4077    0.3828 C   0  0  0  0  0  0  0  0  0  0  0  0
   -3.7025    1.0934   -0.0236 C   0  0  0  0  0  0  0  0  0  0  0  0
   -1.3937   -0.6165    0.7826 C   0  0  0  0  0  0  0  0  0  0  0  0
   -0.0947   -0.8084    1.2060 C   0  0  0  0  0  0  0  0  0  0  0  0
    1.0039   -0.4513    0.4567 C   0  0  0  0  0  0  0  0  0  0  0  0
    2.2972   -0.6470    0.8859 C   0  0  0  0  0  0  0  0  0  0  0  0
    7.9385    0.3150    0.1511 H   0  0  0  0  0  0  0  0  0  0  0  0
    7.6117   -1.4792    0.2555 H   0  0  0  0  0  0  0  0  0  0  0  0
    7.1832   -0.3479    1.6419 H   0  0  0  0  0  0  0  0  0  0  0  0
    5.8900    0.2120   -0.9799 H   0  0  0  0  0  0  0  0  0  0  0  0
    4.0429    0.5679   -1.6897 H   0  0  0  0  0  0  0  0  0  0  0  0
    1.7782    0.9406   -2.5054 H   0  0  0  0  0  0  0  0  0  0  0  0
   -0.6585    0.7878   -2.2036 H   0  0  0  0  0  0  0  0  0  0  0  0
   -2.6116    1.4756   -2.3500 H   0  0  0  0  0  0  0  0  0  0  0  0
   -3.0428   -1.9536   -0.4281 H   0  0  0  0  0  0  0  0  0  0  0  0
   -4.1550   -1.4724   -1.7515 H   0  0  0  0  0  0  0  0  0  0  0  0
   -5.7702   -1.1805   -0.1709 H   0  0  0  0  0  0  0  0  0  0  0  0
   -4.6380   -1.5961    1.1312 H   0  0  0  0  0  0  0  0  0  0  0  0
   -6.1583    1.1640    2.0565 H   0  0  0  0  0  0  0  0  0  0  0  0
   -3.0273    3.1909    0.0510 H   0  0  0  0  0  0  0  0  0  0  0  0
   -2.2503   -0.9083    1.3960 H   0  0  0  0  0  0  0  0  0  0  0  0
    0.0738   -1.2626    2.1762 H   0  0  0  0  0  0  0  0  0  0  0  0
    2.4521   -1.0999    1.8521 H   0  0  0  0  0  0  0  0  0  0  0  0
  1  2  1  0
  2  3  1  0
  3  4  2  0
  3  5  1  0
  5  6  2  0
  6  7  1  0
  7  8  2  0
  8  9  1  0
  9 10  2  0
 10 11  1  0
 11 12  1  6
 11 13  1  0
 13 14  1  0
 14 15  1  0
 15 16  1  0
 16 17  2  0
 17 18  1  0
 18 19  2  0
 10 20  1  0
 20 21  2  0
 21 22  1  0
 22 23  2  0
 23  5  1  0
 22  8  1  0
 19 11  1  0
 19 15  1  0
  1 24  1  0
  1 25  1  0
  1 26  1  0
  2 27  1  0
  6 28  1  0
  7 29  1  0
  9 30  1  0
 12 31  1  0
 13 32  1  0
 13 33  1  0
 14 34  1  0
 14 35  1  0
 16 36  1  0
 18 37  1  0
 20 38  1  0
 21 39  1  0
 23 40  1  0
M  END
$$$$
