
     RDKit          3D

 53 56  0  0  0  0  0  0  0  0999 V2000
    5.0191   -1.0285   -0.4979 C   0  0  0  0  0  0  0  0  0  0  0  0
    4.4371   -0.4440    0.7509 C   0  0  0  0  0  0  0  0  0  0  0  0
    5.0171   -0.6702    1.8281 O   0  0  0  0  0  0  0  0  0  0  0  0
    3.2240    0.3894    0.8088 C   0  0  1  0  0  0  0  0  0  0  0  0
    3.3770    1.4952   -0.2550 C   0  0  0  0  0  0  0  0  0  0  0  0
    2.2490    1.1729   -1.2563 C   0  0  0  0  0  0  0  0  0  0  0  0
    1.2129    0.7489   -0.3067 C   0  0  1  0  0  0  0  0  0  0  0  0
   -0.0549    0.1838   -0.8074 C   0  0  2  0  0  0  0  0  0  0  0  0
   -0.6322    0.8485   -1.9900 C   0  0  0  0  0  0  0  0  0  0  0  0
   -1.9780    1.4510   -1.8599 C   0  0  0  0  0  0  0  0  0  0  0  0
   -2.8494    0.8610   -0.8538 C   0  0  0  0  0  0  0  0  0  0  0  0
   -4.1040    1.2642   -0.7788 C   0  0  0  0  0  0  0  0  0  0  0  0
   -5.0550    0.7529    0.1740 C   0  0  0  0  0  0  0  0  0  0  0  0
   -6.2084    1.2384    0.2619 O   0  0  0  0  0  0  0  0  0  0  0  0
   -4.6666   -0.3593    1.0607 C   0  0  0  0  0  0  0  0  0  0  0  0
   -3.1840   -0.2309    1.3483 C   0  0  0  0  0  0  0  0  0  0  0  0
   -2.3667   -0.1791    0.0893 C   0  0  1  0  0  0  0  0  0  0  0  0
   -2.4779   -1.5085   -0.6222 C   0  0  0  0  0  0  0  0  0  0  0  0
   -0.9605    0.1456    0.4208 C   0  0  1  0  0  0  0  0  0  0  0  0
   -0.3386   -0.7473    1.4396 C   0  0  0  0  0  0  0  0  0  0  0  0
    1.0515   -0.3715    1.8060 C   0  0  0  0  0  0  0  0  0  0  0  0
    1.9231   -0.2622    0.5686 C   0  0  2  0  0  0  0  0  0  0  0  0
    2.0597   -1.6063   -0.0288 C   0  0  0  0  0  0  0  0  0  0  0  0
    5.9983   -0.5462   -0.7392 H   0  0  0  0  0  0  0  0  0  0  0  0
    4.3322   -1.0265   -1.3514 H   0  0  0  0  0  0  0  0  0  0  0  0
    5.2829   -2.0852   -0.2774 H   0  0  0  0  0  0  0  0  0  0  0  0
    3.2153    0.9065    1.8325 H   0  0  0  0  0  0  0  0  0  0  0  0
    4.3573    1.4887   -0.7207 H   0  0  0  0  0  0  0  0  0  0  0  0
    3.1031    2.4559    0.2220 H   0  0  0  0  0  0  0  0  0  0  0  0
    2.5735    0.4560   -2.0080 H   0  0  0  0  0  0  0  0  0  0  0  0
    2.0382    2.1439   -1.7674 H   0  0  0  0  0  0  0  0  0  0  0  0
    0.9738    1.6074    0.3587 H   0  0  0  0  0  0  0  0  0  0  0  0
    0.1327   -0.9056   -1.0450 H   0  0  0  0  0  0  0  0  0  0  0  0
   -0.6066    0.1577   -2.8849 H   0  0  0  0  0  0  0  0  0  0  0  0
    0.0775    1.6761   -2.2941 H   0  0  0  0  0  0  0  0  0  0  0  0
   -2.4987    1.3754   -2.8488 H   0  0  0  0  0  0  0  0  0  0  0  0
   -1.9005    2.5616   -1.6791 H   0  0  0  0  0  0  0  0  0  0  0  0
   -4.4808    2.0359   -1.4699 H   0  0  0  0  0  0  0  0  0  0  0  0
   -4.8981   -1.3536    0.6234 H   0  0  0  0  0  0  0  0  0  0  0  0
   -5.1783   -0.3141    2.0503 H   0  0  0  0  0  0  0  0  0  0  0  0
   -3.0577    0.6868    1.9609 H   0  0  0  0  0  0  0  0  0  0  0  0
   -2.8903   -1.1346    1.9120 H   0  0  0  0  0  0  0  0  0  0  0  0
   -1.7494   -1.5911   -1.4320 H   0  0  0  0  0  0  0  0  0  0  0  0
   -2.4080   -2.3733    0.0501 H   0  0  0  0  0  0  0  0  0  0  0  0
   -3.5148   -1.5356   -1.0577 H   0  0  0  0  0  0  0  0  0  0  0  0
   -0.9371    1.1910    0.8340 H   0  0  0  0  0  0  0  0  0  0  0  0
   -0.4911   -1.7959    1.1251 H   0  0  0  0  0  0  0  0  0  0  0  0
   -0.9589   -0.6522    2.3798 H   0  0  0  0  0  0  0  0  0  0  0  0
    1.0175    0.6045    2.3296 H   0  0  0  0  0  0  0  0  0  0  0  0
    1.4455   -1.1309    2.5125 H   0  0  0  0  0  0  0  0  0  0  0  0
    1.2597   -2.3242    0.2860 H   0  0  0  0  0  0  0  0  0  0  0  0
    2.0755   -1.6500   -1.1303 H   0  0  0  0  0  0  0  0  0  0  0  0
    2.9928   -2.0725    0.3410 H   0  0  0  0  0  0  0  0  0  0  0  0
  1  2  1  0
  2  3  2  0
  2  4  1  0
  4  5  1  0
  5  6  1  0
  6  7  1  0
  7  8  1  0
  8  9  1  0
  9 10  1  0
 10 11  1  0
 11 12  2  0
 12 13  1  0
 13 14  2  0
 13 15  1  0
 15 16  1  0
 16 17  1  0
 17 18  1  6
 17 19  1  0
 19 20  1  0
 20 21  1  0
 21 22  1  0
 22 23  1  6
 22  4  1  0
 22  7  1  0
 19  8  1  0
 17 11  1  0
  1 24  1  0
  1 25  1  0
  1 26  1  0
  4 27  1  1
  5 28  1  0
  5 29  1  0
  6 30  1  0
  6 31  1  0
  7 32  1  1
  8 33  1  6
  9 34  1  0
  9 35  1  0
 10 36  1  0
 10 37  1  0
 12 38  1  0
 15 39  1  0
 15 40  1  0
 16 41  1  0
 16 42  1  0
 18 43  1  0
 18 44  1  0
 18 45  1  0
 19 46  1  1
 20 47  1  0
 20 48  1  0
 21 49  1  0
 21 50  1  0
 23 51  1  0
 23 52  1  0
 23 53  1  0
M  END
$$$$
