
     RDKit          3D

 39 39  0  0  0  0  0  0  0  0999 V2000
    7.7563    0.1627   -0.3644 O   0  0  0  0  0  0  0  0  0  0  0  0
    6.5593    0.4530    0.1996 N   0  0  0  0  0  0  0  0  0  0  0  0
    5.2525   -0.0838    0.0572 C   0  0  0  0  0  0  0  0  0  0  0  0
    5.2700   -1.0192   -0.7780 O   0  0  0  0  0  0  0  0  0  0  0  0
    4.3505    0.6890    0.9742 C   0  0  0  0  0  0  0  0  0  0  0  0
    2.9742    0.1278    0.8282 C   0  0  0  0  0  0  0  0  0  0  0  0
    2.4404    0.2361   -0.5915 C   0  0  0  0  0  0  0  0  0  0  0  0
    1.0527   -0.3732   -0.5565 C   0  0  0  0  0  0  0  0  0  0  0  0
    0.3732   -0.3511   -1.8796 C   0  0  0  0  0  0  0  0  0  0  0  0
   -0.9934   -0.9717   -1.7740 C   0  0  0  0  0  0  0  0  0  0  0  0
   -1.8697   -0.2377   -0.8648 C   0  0  0  0  0  0  0  0  0  0  0  0
   -1.5789    0.8354   -0.2974 O   0  0  0  0  0  0  0  0  0  0  0  0
   -3.1541   -0.7603   -0.5871 N   0  0  0  0  0  0  0  0  0  0  0  0
   -4.1728   -0.2730    0.2288 C   0  0  0  0  0  0  0  0  0  0  0  0
   -4.1724    0.8752    0.9864 C   0  0  0  0  0  0  0  0  0  0  0  0
   -5.1843    1.3391    1.7837 C   0  0  0  0  0  0  0  0  0  0  0  0
   -6.3466    0.6044    1.8630 C   0  0  0  0  0  0  0  0  0  0  0  0
   -6.4191   -0.5573    1.1314 C   0  0  0  0  0  0  0  0  0  0  0  0
   -5.3618   -0.9620    0.3511 C   0  0  0  0  0  0  0  0  0  0  0  0
    7.8038    0.7220   -1.1785 H   0  0  0  0  0  0  0  0  0  0  0  0
    6.9493    1.2298    0.7897 H   0  0  0  0  0  0  0  0  0  0  0  0
    4.3500    1.7597    0.6941 H   0  0  0  0  0  0  0  0  0  0  0  0
    4.6494    0.5596    2.0242 H   0  0  0  0  0  0  0  0  0  0  0  0
    2.2870    0.6737    1.4890 H   0  0  0  0  0  0  0  0  0  0  0  0
    2.9809   -0.9711    1.0424 H   0  0  0  0  0  0  0  0  0  0  0  0
    2.3435    1.2985   -0.8945 H   0  0  0  0  0  0  0  0  0  0  0  0
    3.1207   -0.2589   -1.3011 H   0  0  0  0  0  0  0  0  0  0  0  0
    1.1073   -1.4516   -0.2478 H   0  0  0  0  0  0  0  0  0  0  0  0
    0.4853    0.1247    0.2368 H   0  0  0  0  0  0  0  0  0  0  0  0
    1.0095   -0.8928   -2.6290 H   0  0  0  0  0  0  0  0  0  0  0  0
    0.3042    0.6852   -2.2997 H   0  0  0  0  0  0  0  0  0  0  0  0
   -1.4635   -1.1197   -2.7792 H   0  0  0  0  0  0  0  0  0  0  0  0
   -0.8864   -2.0134   -1.3491 H   0  0  0  0  0  0  0  0  0  0  0  0
   -3.3699   -1.6766   -1.0875 H   0  0  0  0  0  0  0  0  0  0  0  0
   -3.2989    1.5088    0.9806 H   0  0  0  0  0  0  0  0  0  0  0  0
   -5.1141    2.2547    2.3540 H   0  0  0  0  0  0  0  0  0  0  0  0
   -7.1816    0.8861    2.4542 H   0  0  0  0  0  0  0  0  0  0  0  0
   -7.3295   -1.1458    1.1849 H   0  0  0  0  0  0  0  0  0  0  0  0
   -5.5229   -1.9062   -0.1938 H   0  0  0  0  0  0  0  0  0  0  0  0
  1  2  1  0
  2  3  1  0
  3  4  2  0
  3  5  1  0
  5  6  1  0
  6  7  1  0
  7  8  1  0
  8  9  1  0
  9 10  1  0
 10 11  1  0
 11 12  2  0
 11 13  1  0
 13 14  1  0
 14 15  2  0
 15 16  1  0
 16 17  2  0
 17 18  1  0
 18 19  2  0
 19 14  1  0
  1 20  1  0
  2 21  1  0
  5 22  1  0
  5 23  1  0
  6 24  1  0
  6 25  1  0
  7 26  1  0
  7 27  1  0
  8 28  1  0
  8 29  1  0
  9 30  1  0
  9 31  1  0
 10 32  1  0
 10 33  1  0
 13 34  1  0
 15 35  1  0
 16 36  1  0
 17 37  1  0
 18 38  1  0
 19 39  1  0
M  END
$$$$
