
     RDKit          3D

 95 98  0  0  0  0  0  0  0  0999 V2000
    2.7161   -5.4606    2.9530 C   0  0  0  0  0  0  0  0  0  0  0  0
    1.9516   -4.2491    2.5597 C   0  0  0  0  0  0  0  0  0  0  0  0
    2.5861   -3.2883    1.7548 C   0  0  0  0  0  0  0  0  0  0  0  0
    1.9082   -2.1684    1.3869 C   0  0  0  0  0  0  0  0  0  0  0  0
    2.5129   -1.1456    0.6060 N   0  0  0  0  0  0  0  0  0  0  0  0
    3.8798   -1.2037    0.2342 C   0  0  0  0  0  0  0  0  0  0  0  0
    4.8304   -1.0376    1.4003 C   0  0  0  0  0  0  0  0  0  0  0  0
    6.1976   -1.4489    0.8929 C   0  0  0  0  0  0  0  0  0  0  0  0
    6.5824   -0.3903   -0.0506 N   0  0  0  0  0  0  0  0  0  0  0  0
    7.8034    0.2902    0.1917 C   0  0  0  0  0  0  0  0  0  0  0  0
    8.5169   -0.0120    1.1782 O   0  0  0  0  0  0  0  0  0  0  0  0
    8.2854    1.3811   -0.7056 C   0  0  0  0  0  0  0  0  0  0  0  0
    9.6172    1.8795   -0.1817 C   0  0  0  0  0  0  0  0  0  0  0  0
   10.1920    2.9355   -0.9611 N   0  0  0  0  0  0  0  0  0  0  0  0
   10.6294    2.5410   -2.2770 C   0  0  0  0  0  0  0  0  0  0  0  0
   11.7926    1.6288   -2.2337 C   0  0  0  0  0  0  0  0  0  0  0  0
   12.3580    1.2328   -1.1857 O   0  0  0  0  0  0  0  0  0  0  0  0
   12.3292    1.1504   -3.4457 O   0  0  0  0  0  0  0  0  0  0  0  0
    5.6871   -0.1289   -1.1462 C   0  0  0  0  0  0  0  0  0  0  0  0
    4.2296   -0.0844   -0.7383 C   0  0  0  0  0  0  0  0  0  0  0  0
    0.6184   -2.0290    1.8238 N   0  0  0  0  0  0  0  0  0  0  0  0
   -0.0059   -2.9251    2.5869 C   0  0  0  0  0  0  0  0  0  0  0  0
   -1.3512   -2.7476    3.0467 N   0  0  0  0  0  0  0  0  0  0  0  0
   -2.1789   -1.6338    2.7046 C   0  0  0  0  0  0  0  0  0  0  0  0
   -2.5511   -1.6860    1.2753 C   0  0  0  0  0  0  0  0  0  0  0  0
   -1.9381   -1.1440    0.1804 C   0  0  0  0  0  0  0  0  0  0  0  0
   -2.6689   -1.4649   -0.8986 N   0  0  0  0  0  0  0  0  0  0  0  0
   -2.4452   -1.1251   -2.2976 C   0  0  0  0  0  0  0  0  0  0  0  0
   -3.1089    0.1429   -2.7054 C   0  0  0  0  0  0  0  0  0  0  0  0
   -2.6646    1.3632   -1.9908 C   0  0  0  0  0  0  0  0  0  0  0  0
   -2.8081    1.4235   -0.5960 N   0  0  0  0  0  0  0  0  0  0  0  0
   -4.0869    1.4814   -0.0130 C   0  0  0  0  0  0  0  0  0  0  0  0
   -4.8701    2.7530   -0.2697 C   0  0  0  0  0  0  0  0  0  0  0  0
   -6.1949    2.6078    0.4926 C   0  0  0  0  0  0  0  0  0  0  0  0
   -6.8827    1.4406   -0.0056 N   0  0  0  0  0  0  0  0  0  0  0  0
   -8.0776    1.2384    0.7589 C   0  0  0  0  0  0  0  0  0  0  0  0
   -9.0901    2.3294    0.6767 C   0  0  0  0  0  0  0  0  0  0  0  0
   -9.8642    2.3708   -0.6112 C   0  0  0  0  0  0  0  0  0  0  0  0
  -10.5311    1.0226   -0.8246 C   0  0  0  0  0  0  0  0  0  0  0  0
   -9.5023   -0.0916   -0.8089 C   0  0  0  0  0  0  0  0  0  0  0  0
   -8.6910   -0.0904    0.4468 C   0  0  0  0  0  0  0  0  0  0  0  0
   -3.7234   -2.1969   -0.4873 N   0  0  0  0  0  0  0  0  0  0  0  0
   -3.6532   -2.3301    0.8200 N   0  0  0  0  0  0  0  0  0  0  0  0
    0.6930   -4.0204    2.9334 N   0  0  0  0  0  0  0  0  0  0  0  0
    2.3365   -5.9225    3.8707 H   0  0  0  0  0  0  0  0  0  0  0  0
    2.7038   -6.1759    2.1034 H   0  0  0  0  0  0  0  0  0  0  0  0
    3.7879   -5.1868    3.1076 H   0  0  0  0  0  0  0  0  0  0  0  0
    3.5866   -3.4914    1.4534 H   0  0  0  0  0  0  0  0  0  0  0  0
    1.8942   -0.3434    0.3181 H   0  0  0  0  0  0  0  0  0  0  0  0
    4.1478   -2.1608   -0.2966 H   0  0  0  0  0  0  0  0  0  0  0  0
    4.8340    0.0537    1.6678 H   0  0  0  0  0  0  0  0  0  0  0  0
    4.6017   -1.5927    2.2932 H   0  0  0  0  0  0  0  0  0  0  0  0
    6.9238   -1.5414    1.7246 H   0  0  0  0  0  0  0  0  0  0  0  0
    6.0647   -2.4122    0.3503 H   0  0  0  0  0  0  0  0  0  0  0  0
    7.5274    2.1934   -0.7255 H   0  0  0  0  0  0  0  0  0  0  0  0
    8.3686    1.0229   -1.7505 H   0  0  0  0  0  0  0  0  0  0  0  0
    9.4446    2.2517    0.8727 H   0  0  0  0  0  0  0  0  0  0  0  0
   10.3323    1.0275   -0.0476 H   0  0  0  0  0  0  0  0  0  0  0  0
    9.4614    3.6727   -1.0643 H   0  0  0  0  0  0  0  0  0  0  0  0
   10.9071    3.4876   -2.8230 H   0  0  0  0  0  0  0  0  0  0  0  0
    9.7616    2.0562   -2.7855 H   0  0  0  0  0  0  0  0  0  0  0  0
   12.8964    0.3199   -3.4940 H   0  0  0  0  0  0  0  0  0  0  0  0
    5.9244    0.8506   -1.6042 H   0  0  0  0  0  0  0  0  0  0  0  0
    5.8887   -0.9056   -1.9150 H   0  0  0  0  0  0  0  0  0  0  0  0
    3.6112   -0.1157   -1.6425 H   0  0  0  0  0  0  0  0  0  0  0  0
    4.0994    0.9143   -0.2396 H   0  0  0  0  0  0  0  0  0  0  0  0
   -1.7794   -3.4864    3.6864 H   0  0  0  0  0  0  0  0  0  0  0  0
   -1.5637   -0.6961    2.8795 H   0  0  0  0  0  0  0  0  0  0  0  0
   -3.0723   -1.5820    3.3638 H   0  0  0  0  0  0  0  0  0  0  0  0
   -1.0212   -0.5546    0.1462 H   0  0  0  0  0  0  0  0  0  0  0  0
   -1.3407   -1.0547   -2.4437 H   0  0  0  0  0  0  0  0  0  0  0  0
   -2.7863   -1.9392   -2.9782 H   0  0  0  0  0  0  0  0  0  0  0  0
   -2.8342    0.2984   -3.7958 H   0  0  0  0  0  0  0  0  0  0  0  0
   -4.2090    0.0084   -2.7389 H   0  0  0  0  0  0  0  0  0  0  0  0
   -3.0593    2.2910   -2.4934 H   0  0  0  0  0  0  0  0  0  0  0  0
   -1.5482    1.4490   -2.1988 H   0  0  0  0  0  0  0  0  0  0  0  0
   -2.1305    2.0137   -0.1133 H   0  0  0  0  0  0  0  0  0  0  0  0
   -3.9370    1.4397    1.1071 H   0  0  0  0  0  0  0  0  0  0  0  0
   -4.7267    0.5779   -0.2148 H   0  0  0  0  0  0  0  0  0  0  0  0
   -4.3785    3.6411    0.1706 H   0  0  0  0  0  0  0  0  0  0  0  0
   -5.0743    2.9533   -1.3182 H   0  0  0  0  0  0  0  0  0  0  0  0
   -6.8163    3.5337    0.3101 H   0  0  0  0  0  0  0  0  0  0  0  0
   -6.0375    2.5814    1.5813 H   0  0  0  0  0  0  0  0  0  0  0  0
   -7.1167    1.5230   -1.0070 H   0  0  0  0  0  0  0  0  0  0  0  0
   -7.7834    1.1891    1.8612 H   0  0  0  0  0  0  0  0  0  0  0  0
   -8.7144    3.3269    0.9455 H   0  0  0  0  0  0  0  0  0  0  0  0
   -9.8567    2.0975    1.4786 H   0  0  0  0  0  0  0  0  0  0  0  0
   -9.3049    2.7245   -1.4793 H   0  0  0  0  0  0  0  0  0  0  0  0
  -10.7018    3.1089   -0.4456 H   0  0  0  0  0  0  0  0  0  0  0  0
  -11.2165    0.8349    0.0137 H   0  0  0  0  0  0  0  0  0  0  0  0
  -11.0207    1.0172   -1.8018 H   0  0  0  0  0  0  0  0  0  0  0  0
  -10.0636   -1.0547   -0.8639 H   0  0  0  0  0  0  0  0  0  0  0  0
   -8.8646   -0.0609   -1.7310 H   0  0  0  0  0  0  0  0  0  0  0  0
   -9.3127   -0.4515    1.2917 H   0  0  0  0  0  0  0  0  0  0  0  0
   -7.8618   -0.8413    0.3025 H   0  0  0  0  0  0  0  0  0  0  0  0
  1  2  1  0
  2  3  2  0
  3  4  1  0
  4  5  1  0
  5  6  1  0
  6  7  1  0
  7  8  1  0
  8  9  1  0
  9 10  1  0
 10 11  2  0
 10 12  1  0
 12 13  1  0
 13 14  1  0
 14 15  1  0
 15 16  1  0
 16 17  2  0
 16 18  1  0
  9 19  1  0
 19 20  1  0
  4 21  2  0
 21 22  1  0
 22 23  1  0
 23 24  1  0
 24 25  1  0
 25 26  2  0
 26 27  1  0
 27 28  1  0
 28 29  1  0
 29 30  1  0
 30 31  1  0
 31 32  1  0
 32 33  1  0
 33 34  1  0
 34 35  1  0
 35 36  1  0
 36 37  1  0
 37 38  1  0
 38 39  1  0
 39 40  1  0
 40 41  1  0
 27 42  1  0
 42 43  2  0
 22 44  2  0
 44  2  1  0
 20  6  1  0
 43 25  1  0
 41 36  1  0
  1 45  1  0
  1 46  1  0
  1 47  1  0
  3 48  1  0
  5 49  1  0
  6 50  1  0
  7 51  1  0
  7 52  1  0
  8 53  1  0
  8 54  1  0
 12 55  1  0
 12 56  1  0
 13 57  1  0
 13 58  1  0
 14 59  1  0
 15 60  1  0
 15 61  1  0
 18 62  1  0
 19 63  1  0
 19 64  1  0
 20 65  1  0
 20 66  1  0
 23 67  1  0
 24 68  1  0
 24 69  1  0
 26 70  1  0
 28 71  1  0
 28 72  1  0
 29 73  1  0
 29 74  1  0
 30 75  1  0
 30 76  1  0
 31 77  1  0
 32 78  1  0
 32 79  1  0
 33 80  1  0
 33 81  1  0
 34 82  1  0
 34 83  1  0
 35 84  1  0
 36 85  1  0
 37 86  1  0
 37 87  1  0
 38 88  1  0
 38 89  1  0
 39 90  1  0
 39 91  1  0
 40 92  1  0
 40 93  1  0
 41 94  1  0
 41 95  1  0
M  END
$$$$
