
     RDKit          3D

 54 56  0  0  0  0  0  0  0  0999 V2000
   -1.4745   -0.9876   -1.0278 C   0  0  1  0  0  0  0  0  0  0  0  0
   -1.5139    0.1508   -0.0974 C   0  0  0  0  0  0  0  0  0  0  0  0
   -2.6112    0.2659    0.8790 C   0  0  0  0  0  0  0  0  0  0  0  0
   -4.0012    0.3943    0.3735 C   0  0  0  0  0  0  0  0  0  0  0  0
   -4.9428    0.5122    1.5915 C   0  0  0  0  0  0  0  0  0  0  0  0
   -4.5836    1.7091    2.3958 C   0  0  0  0  0  0  0  0  0  0  0  0
   -4.6834    2.9332    1.6992 N   0  0  0  0  0  0  0  0  0  0  0  0
   -4.1925    1.7725    3.6464 N   0  0  0  0  0  0  0  0  0  0  0  0
   -2.6663   -1.0449   -1.8970 C   0  0  0  0  0  0  0  0  0  0  0  0
   -3.0262    0.0648   -2.6457 O   0  0  0  0  0  0  0  0  0  0  0  0
   -3.3370   -2.1360   -1.9293 O   0  0  0  0  0  0  0  0  0  0  0  0
   -0.2803   -0.9720   -1.9572 C   0  0  1  0  0  0  0  0  0  0  0  0
    1.0093   -1.0074   -1.2728 C   0  0  0  0  0  0  0  0  0  0  0  0
    1.4519   -2.3122   -1.3460 C   0  0  0  0  0  0  0  0  0  0  0  0
    0.4914   -3.1862   -2.0688 C   0  0  0  0  0  0  0  0  0  0  0  0
   -0.3030   -2.1796   -2.8665 C   0  0  2  0  0  0  0  0  0  0  0  0
    0.2940   -1.9129   -4.0965 O   0  0  0  0  0  0  0  0  0  0  0  0
    2.6646   -2.6226   -0.7691 C   0  0  0  0  0  0  0  0  0  0  0  0
    3.4520   -1.6833   -0.1227 C   0  0  0  0  0  0  0  0  0  0  0  0
    2.9892   -0.3747   -0.0595 C   0  0  0  0  0  0  0  0  0  0  0  0
    1.7740   -0.0484   -0.6340 C   0  0  0  0  0  0  0  0  0  0  0  0
    3.8750    0.5588    0.6393 C   0  0  0  0  0  0  0  0  0  0  0  0
    4.6388    0.0593    1.6838 C   0  0  0  0  0  0  0  0  0  0  0  0
    5.5038    0.8721    2.4001 C   0  0  0  0  0  0  0  0  0  0  0  0
    5.5833    2.1996    2.0420 C   0  0  0  0  0  0  0  0  0  0  0  0
    6.4435    3.0495    2.7404 O   0  0  0  0  0  0  0  0  0  0  0  0
    4.8442    2.7467    1.0096 C   0  0  0  0  0  0  0  0  0  0  0  0
    3.9955    1.9121    0.3193 C   0  0  0  0  0  0  0  0  0  0  0  0
   -1.3631   -1.9321   -0.4346 H   0  0  0  0  0  0  0  0  0  0  0  0
   -0.5549    0.0977    0.5153 H   0  0  0  0  0  0  0  0  0  0  0  0
   -1.4990    1.0894   -0.7090 H   0  0  0  0  0  0  0  0  0  0  0  0
   -2.3983    1.2016    1.4873 H   0  0  0  0  0  0  0  0  0  0  0  0
   -2.5368   -0.5361    1.6827 H   0  0  0  0  0  0  0  0  0  0  0  0
   -4.4087   -0.4413   -0.1940 H   0  0  0  0  0  0  0  0  0  0  0  0
   -4.1297    1.3649   -0.1678 H   0  0  0  0  0  0  0  0  0  0  0  0
   -5.9734    0.6762    1.2085 H   0  0  0  0  0  0  0  0  0  0  0  0
   -4.8715   -0.4187    2.1698 H   0  0  0  0  0  0  0  0  0  0  0  0
   -5.2608    3.1403    0.8574 H   0  0  0  0  0  0  0  0  0  0  0  0
   -4.2215    3.8612    1.8655 H   0  0  0  0  0  0  0  0  0  0  0  0
   -4.1079    0.8823    4.1905 H   0  0  0  0  0  0  0  0  0  0  0  0
   -3.8160    0.0162   -3.3075 H   0  0  0  0  0  0  0  0  0  0  0  0
   -0.2716   -0.0830   -2.6209 H   0  0  0  0  0  0  0  0  0  0  0  0
    1.0197   -3.9210   -2.7233 H   0  0  0  0  0  0  0  0  0  0  0  0
   -0.1177   -3.7482   -1.3530 H   0  0  0  0  0  0  0  0  0  0  0  0
   -1.3146   -2.6219   -2.9835 H   0  0  0  0  0  0  0  0  0  0  0  0
   -0.3630   -2.1159   -4.8300 H   0  0  0  0  0  0  0  0  0  0  0  0
    3.0270   -3.6569   -0.8210 H   0  0  0  0  0  0  0  0  0  0  0  0
    4.3989   -2.0381    0.3010 H   0  0  0  0  0  0  0  0  0  0  0  0
    1.4624    0.9679   -0.5592 H   0  0  0  0  0  0  0  0  0  0  0  0
    4.6301   -0.9674    2.0217 H   0  0  0  0  0  0  0  0  0  0  0  0
    6.1134    0.5041    3.2236 H   0  0  0  0  0  0  0  0  0  0  0  0
    6.8560    3.8775    2.3102 H   0  0  0  0  0  0  0  0  0  0  0  0
    4.9269    3.7997    0.7482 H   0  0  0  0  0  0  0  0  0  0  0  0
    3.3796    2.2683   -0.5075 H   0  0  0  0  0  0  0  0  0  0  0  0
  1  2  1  0
  2  3  1  0
  3  4  1  0
  4  5  1  0
  5  6  1  0
  6  7  1  0
  6  8  2  3
  1  9  1  0
  9 10  1  0
  9 11  2  0
  1 12  1  0
 12 13  1  0
 13 14  2  0
 14 15  1  0
 15 16  1  0
 16 17  1  0
 14 18  1  0
 18 19  2  0
 19 20  1  0
 20 21  2  0
 20 22  1  0
 22 23  2  0
 23 24  1  0
 24 25  2  0
 25 26  1  0
 25 27  1  0
 27 28  2  0
 16 12  1  0
 28 22  1  0
 21 13  1  0
  1 29  1  1
  2 30  1  0
  2 31  1  0
  3 32  1  0
  3 33  1  0
  4 34  1  0
  4 35  1  0
  5 36  1  0
  5 37  1  0
  7 38  1  0
  7 39  1  0
  8 40  1  0
 10 41  1  0
 12 42  1  6
 15 43  1  0
 15 44  1  0
 16 45  1  6
 17 46  1  0
 18 47  1  0
 19 48  1  0
 21 49  1  0
 23 50  1  0
 24 51  1  0
 26 52  1  0
 27 53  1  0
 28 54  1  0
M  END
$$$$
