
     RDKit          3D

 48 52  0  0  0  0  0  0  0  0999 V2000
    2.9615   -0.3306   -1.6872 C   0  0  0  0  0  0  0  0  0  0  0  0
    2.3785   -0.7045   -0.3254 C   0  0  2  0  0  0  0  0  0  0  0  0
    0.9270   -0.9655   -0.5748 C   0  0  0  0  0  0  0  0  0  0  0  0
    0.2719   -2.0611   -1.0212 N   0  0  0  0  0  0  0  0  0  0  0  0
   -1.0476   -1.8164   -1.0882 N   0  0  0  0  0  0  0  0  0  0  0  0
   -1.2356   -0.5584   -0.6817 C   0  0  0  0  0  0  0  0  0  0  0  0
   -2.5377    0.1767   -0.5688 C   0  0  0  0  0  0  0  0  0  0  0  0
   -2.6396    1.5488   -0.9176 C   0  0  0  0  0  0  0  0  0  0  0  0
   -4.3253    1.9279   -0.5976 S   0  0  0  0  0  0  0  0  0  0  0  0
   -4.7363    0.1561   -0.0118 C   0  0  0  0  0  0  0  0  0  0  0  0
   -6.0976   -0.1049    0.4082 C   0  0  0  0  0  0  0  0  0  0  0  0
   -7.1017    0.8366    0.4543 C   0  0  0  0  0  0  0  0  0  0  0  0
   -8.3783    0.5096    0.8604 C   0  0  0  0  0  0  0  0  0  0  0  0
   -8.6851   -0.7759    1.2329 C   0  0  0  0  0  0  0  0  0  0  0  0
   -7.6910   -1.7240    1.1916 C   0  0  0  0  0  0  0  0  0  0  0  0
   -6.3954   -1.3923    0.7796 C   0  0  0  0  0  0  0  0  0  0  0  0
   -3.6523   -0.3302   -0.1510 N   0  0  0  0  0  0  0  0  0  0  0  0
   -0.0352   -0.0564   -0.3753 N   0  0  0  0  0  0  0  0  0  0  0  0
    0.3190    1.2656    0.1213 C   0  0  0  0  0  0  0  0  0  0  0  0
    1.4027    1.0663    1.1883 C   0  0  0  0  0  0  0  0  0  0  0  0
    2.5718    0.4000    0.5702 N   0  0  0  0  0  0  0  0  0  0  0  0
    3.8730    0.8744    0.8843 C   0  0  0  0  0  0  0  0  0  0  0  0
    3.9445    1.8705    1.6940 O   0  0  0  0  0  0  0  0  0  0  0  0
    5.1230    0.3443    0.3781 C   0  0  0  0  0  0  0  0  0  0  0  0
    5.5294   -0.9628    0.6710 C   0  0  0  0  0  0  0  0  0  0  0  0
    6.7092   -1.4786    0.2080 C   0  0  0  0  0  0  0  0  0  0  0  0
    7.5227   -0.6935   -0.5672 C   0  0  0  0  0  0  0  0  0  0  0  0
    8.6803   -1.2195   -1.0148 F   0  0  0  0  0  0  0  0  0  0  0  0
    7.1213    0.6136   -0.8620 C   0  0  0  0  0  0  0  0  0  0  0  0
    5.9449    1.1290   -0.4010 C   0  0  0  0  0  0  0  0  0  0  0  0
    2.7156    0.7375   -1.8510 H   0  0  0  0  0  0  0  0  0  0  0  0
    2.5002   -0.9850   -2.4737 H   0  0  0  0  0  0  0  0  0  0  0  0
    4.0370   -0.4624   -1.7629 H   0  0  0  0  0  0  0  0  0  0  0  0
    2.8511   -1.6329    0.0616 H   0  0  0  0  0  0  0  0  0  0  0  0
   -1.8127    2.2193   -1.3081 H   0  0  0  0  0  0  0  0  0  0  0  0
   -6.8395    1.8545    0.1547 H   0  0  0  0  0  0  0  0  0  0  0  0
   -9.1457    1.2545    0.8919 H   0  0  0  0  0  0  0  0  0  0  0  0
   -9.7020   -1.0528    1.5609 H   0  0  0  0  0  0  0  0  0  0  0  0
   -7.9248   -2.7374    1.4819 H   0  0  0  0  0  0  0  0  0  0  0  0
   -5.6044   -2.1458    0.7465 H   0  0  0  0  0  0  0  0  0  0  0  0
   -0.5101    1.7738    0.6499 H   0  0  0  0  0  0  0  0  0  0  0  0
    0.7133    1.9200   -0.6564 H   0  0  0  0  0  0  0  0  0  0  0  0
    1.0103    0.3909    1.9840 H   0  0  0  0  0  0  0  0  0  0  0  0
    1.7149    2.0539    1.5756 H   0  0  0  0  0  0  0  0  0  0  0  0
    4.8427   -1.5338    1.2994 H   0  0  0  0  0  0  0  0  0  0  0  0
    6.9822   -2.4961    0.4589 H   0  0  0  0  0  0  0  0  0  0  0  0
    7.8078    1.1684   -1.4720 H   0  0  0  0  0  0  0  0  0  0  0  0
    5.6421    2.1287   -0.6277 H   0  0  0  0  0  0  0  0  0  0  0  0
  1  2  1  0
  2  3  1  0
  3  4  2  0
  4  5  1  0
  5  6  2  0
  6  7  1  0
  7  8  2  0
  8  9  1  0
  9 10  1  0
 10 11  1  0
 11 12  2  0
 12 13  1  0
 13 14  2  0
 14 15  1  0
 15 16  2  0
 10 17  2  0
  6 18  1  0
 18 19  1  0
 19 20  1  0
 20 21  1  0
 21 22  1  0
 22 23  2  0
 22 24  1  0
 24 25  2  0
 25 26  1  0
 26 27  2  0
 27 28  1  0
 27 29  1  0
 29 30  2  0
 21  2  1  0
 30 24  1  0
 18  3  1  0
 17  7  1  0
 16 11  1  0
  1 31  1  0
  1 32  1  0
  1 33  1  0
  2 34  1  1
  8 35  1  0
 12 36  1  0
 13 37  1  0
 14 38  1  0
 15 39  1  0
 16 40  1  0
 19 41  1  0
 19 42  1  0
 20 43  1  0
 20 44  1  0
 25 45  1  0
 26 46  1  0
 29 47  1  0
 30 48  1  0
M  END
$$$$
