
     RDKit          3D

 47 50  0  0  0  0  0  0  0  0999 V2000
    2.7017   -2.9799   -0.4195 C   0  0  0  0  0  0  0  0  0  0  0  0
    2.3024   -1.7547   -1.1963 C   0  0  0  0  0  0  0  0  0  0  0  0
    0.9409   -1.9881   -1.7733 C   0  0  0  0  0  0  0  0  0  0  0  0
    3.2626   -1.6511   -2.3839 C   0  0  0  0  0  0  0  0  0  0  0  0
    2.4542   -0.4898   -0.4233 C   0  0  0  0  0  0  0  0  0  0  0  0
    1.6603   -0.4352    0.7960 N   0  0  0  0  0  0  0  0  0  0  0  0
    2.0892   -0.8450    1.9940 C   0  0  0  0  0  0  0  0  0  0  0  0
    1.0745   -0.6219    2.8504 N   0  0  0  0  0  0  0  0  0  0  0  0
    0.0315   -0.0849    2.2067 C   0  0  0  0  0  0  0  0  0  0  0  0
   -1.2366    0.2895    2.8023 C   0  0  0  0  0  0  0  0  0  0  0  0
   -2.0666   -0.7119    3.3193 C   0  0  0  0  0  0  0  0  0  0  0  0
   -3.2768   -0.4215    3.8964 C   0  0  0  0  0  0  0  0  0  0  0  0
   -3.7323    0.8708    3.9944 C   0  0  0  0  0  0  0  0  0  0  0  0
   -4.9238    1.1672    4.5622 F   0  0  0  0  0  0  0  0  0  0  0  0
   -2.9187    1.8722    3.4861 C   0  0  0  0  0  0  0  0  0  0  0  0
   -1.7031    1.5764    2.9068 C   0  0  0  0  0  0  0  0  0  0  0  0
    0.4093    0.0383    0.8644 C   0  0  0  0  0  0  0  0  0  0  0  0
   -0.4169    0.5809   -0.2119 C   0  0  0  0  0  0  0  0  0  0  0  0
   -1.6574    0.0685   -0.4460 C   0  0  0  0  0  0  0  0  0  0  0  0
   -2.4819    0.5261   -1.4562 C   0  0  0  0  0  0  0  0  0  0  0  0
   -1.9570    1.5659   -2.2392 C   0  0  0  0  0  0  0  0  0  0  0  0
   -2.4905    2.2192   -3.2832 N   0  0  0  0  0  0  0  0  0  0  0  0
   -1.5876    3.1410   -3.7070 C   0  0  0  0  0  0  0  0  0  0  0  0
   -0.4974    3.0302   -2.8964 C   0  0  0  0  0  0  0  0  0  0  0  0
    0.6947    3.7996   -2.9980 C   0  0  0  0  0  0  0  0  0  0  0  0
    1.6671    4.4495   -3.0736 N   0  0  0  0  0  0  0  0  0  0  0  0
   -0.7379    2.0546   -1.9933 N   0  0  0  0  0  0  0  0  0  0  0  0
    0.0177    1.5740   -1.0009 N   0  0  0  0  0  0  0  0  0  0  0  0
    1.8276   -3.4719    0.0719 H   0  0  0  0  0  0  0  0  0  0  0  0
    3.5165   -2.7719    0.3128 H   0  0  0  0  0  0  0  0  0  0  0  0
    3.1031   -3.7191   -1.1461 H   0  0  0  0  0  0  0  0  0  0  0  0
    0.5464   -1.1193   -2.3490 H   0  0  0  0  0  0  0  0  0  0  0  0
    0.2331   -2.3511   -0.9988 H   0  0  0  0  0  0  0  0  0  0  0  0
    1.0450   -2.8070   -2.5366 H   0  0  0  0  0  0  0  0  0  0  0  0
    2.9151   -2.2792   -3.2270 H   0  0  0  0  0  0  0  0  0  0  0  0
    3.3514   -0.5914   -2.7411 H   0  0  0  0  0  0  0  0  0  0  0  0
    4.2783   -2.0080   -2.1113 H   0  0  0  0  0  0  0  0  0  0  0  0
    2.1266    0.3503   -1.0941 H   0  0  0  0  0  0  0  0  0  0  0  0
    3.5288   -0.3389   -0.2264 H   0  0  0  0  0  0  0  0  0  0  0  0
    3.0740   -1.2790    2.2386 H   0  0  0  0  0  0  0  0  0  0  0  0
   -1.7086   -1.7299    3.2426 H   0  0  0  0  0  0  0  0  0  0  0  0
   -3.9200   -1.2191    4.2987 H   0  0  0  0  0  0  0  0  0  0  0  0
   -3.2925    2.8957    3.5712 H   0  0  0  0  0  0  0  0  0  0  0  0
   -1.0710    2.3766    2.5100 H   0  0  0  0  0  0  0  0  0  0  0  0
   -1.9893   -0.7303    0.2007 H   0  0  0  0  0  0  0  0  0  0  0  0
   -3.4644    0.1227   -1.6430 H   0  0  0  0  0  0  0  0  0  0  0  0
   -1.7218    3.8311   -4.5379 H   0  0  0  0  0  0  0  0  0  0  0  0
  1  2  1  0
  2  3  1  0
  2  4  1  0
  2  5  1  0
  5  6  1  0
  6  7  1  0
  7  8  2  0
  8  9  1  0
  9 10  1  0
 10 11  2  0
 11 12  1  0
 12 13  2  0
 13 14  1  0
 13 15  1  0
 15 16  2  0
  9 17  2  0
 17 18  1  0
 18 19  1  0
 19 20  2  0
 20 21  1  0
 21 22  2  0
 22 23  1  0
 23 24  2  0
 24 25  1  0
 25 26  3  0
 24 27  1  0
 27 28  1  0
 17  6  1  0
 28 18  2  0
 16 10  1  0
 27 21  1  0
  1 29  1  0
  1 30  1  0
  1 31  1  0
  3 32  1  0
  3 33  1  0
  3 34  1  0
  4 35  1  0
  4 36  1  0
  4 37  1  0
  5 38  1  0
  5 39  1  0
  7 40  1  0
 11 41  1  0
 12 42  1  0
 15 43  1  0
 16 44  1  0
 19 45  1  0
 20 46  1  0
 23 47  1  0
M  END
$$$$
