
     RDKit          3D

 37 40  0  0  0  0  0  0  0  0999 V2000
    5.9972   -1.1712   -2.7554 C   0  0  0  0  0  0  0  0  0  0  0  0
    5.2903   -0.5747   -1.6080 N   0  0  0  0  0  0  0  0  0  0  0  0
    3.9620   -0.5592   -1.4055 C   0  0  0  0  0  0  0  0  0  0  0  0
    3.6630    0.0822   -0.2308 C   0  0  0  0  0  0  0  0  0  0  0  0
    2.3871    0.3527    0.4157 C   0  0  0  0  0  0  0  0  0  0  0  0
    2.1450    1.0070    1.6054 C   0  0  0  0  0  0  0  0  0  0  0  0
    0.7871    1.0458    1.8521 C   0  0  0  0  0  0  0  0  0  0  0  0
    0.0052    1.5725    2.8851 C   0  0  0  0  0  0  0  0  0  0  0  0
   -1.3154    1.4193    2.7855 N   0  0  0  0  0  0  0  0  0  0  0  0
   -1.9344    0.7972    1.7660 C   0  0  0  0  0  0  0  0  0  0  0  0
   -3.3567    0.6942    1.7964 N   0  0  0  0  0  0  0  0  0  0  0  0
   -4.1073    0.1437    0.7295 C   0  0  0  0  0  0  0  0  0  0  0  0
   -4.8853   -0.9828    0.8496 C   0  0  0  0  0  0  0  0  0  0  0  0
   -5.6200   -1.4932   -0.2081 C   0  0  0  0  0  0  0  0  0  0  0  0
   -5.5724   -0.8513   -1.4282 C   0  0  0  0  0  0  0  0  0  0  0  0
   -4.8049    0.2771   -1.5826 C   0  0  0  0  0  0  0  0  0  0  0  0
   -4.0746    0.7706   -0.5006 C   0  0  0  0  0  0  0  0  0  0  0  0
   -3.1365    2.2225   -0.7734 Cl  0  0  0  0  0  0  0  0  0  0  0  0
   -1.1758    0.2856    0.7631 C   0  0  0  0  0  0  0  0  0  0  0  0
    0.1972    0.4002    0.7870 C   0  0  0  0  0  0  0  0  0  0  0  0
    1.1770   -0.0079   -0.0634 N   0  0  0  0  0  0  0  0  0  0  0  0
    4.8858    0.4583    0.2729 C   0  0  0  0  0  0  0  0  0  0  0  0
    5.8340    0.0466   -0.5804 N   0  0  0  0  0  0  0  0  0  0  0  0
    5.2466   -1.4567   -3.4874 H   0  0  0  0  0  0  0  0  0  0  0  0
    6.4869   -2.0914   -2.3300 H   0  0  0  0  0  0  0  0  0  0  0  0
    6.7966   -0.5193   -3.1242 H   0  0  0  0  0  0  0  0  0  0  0  0
    3.2080   -0.9851   -2.0605 H   0  0  0  0  0  0  0  0  0  0  0  0
    2.9037    1.4282    2.2491 H   0  0  0  0  0  0  0  0  0  0  0  0
    0.5073    2.0720    3.7065 H   0  0  0  0  0  0  0  0  0  0  0  0
   -3.8959    1.0282    2.6216 H   0  0  0  0  0  0  0  0  0  0  0  0
   -4.9331   -1.4921    1.7970 H   0  0  0  0  0  0  0  0  0  0  0  0
   -6.2333   -2.3861   -0.1082 H   0  0  0  0  0  0  0  0  0  0  0  0
   -6.1286   -1.2187   -2.2655 H   0  0  0  0  0  0  0  0  0  0  0  0
   -4.7823    0.7642   -2.5473 H   0  0  0  0  0  0  0  0  0  0  0  0
   -1.6511   -0.2253   -0.0596 H   0  0  0  0  0  0  0  0  0  0  0  0
    1.0121   -0.5238   -0.9542 H   0  0  0  0  0  0  0  0  0  0  0  0
    5.1154    0.9939    1.1907 H   0  0  0  0  0  0  0  0  0  0  0  0
  1  2  1  0
  2  3  1  0
  3  4  2  0
  4  5  1  0
  5  6  2  0
  6  7  1  0
  7  8  2  0
  8  9  1  0
  9 10  2  0
 10 11  1  0
 11 12  1  0
 12 13  2  0
 13 14  1  0
 14 15  2  0
 15 16  1  0
 16 17  2  0
 17 18  1  0
 10 19  1  0
 19 20  2  0
 20 21  1  0
  4 22  1  0
 22 23  2  0
 23  2  1  0
 21  5  1  0
 20  7  1  0
 17 12  1  0
  1 24  1  0
  1 25  1  0
  1 26  1  0
  3 27  1  0
  6 28  1  0
  8 29  1  0
 11 30  1  0
 13 31  1  0
 14 32  1  0
 15 33  1  0
 16 34  1  0
 19 35  1  0
 21 36  1  0
 22 37  1  0
M  END
$$$$
