
     RDKit          3D

 48 48  0  0  0  0  0  0  0  0999 V2000
    5.5407   -0.4781   -1.9169 O   0  0  0  0  0  0  0  0  0  0  0  0
    5.7773   -1.8298   -1.6863 C   0  0  0  0  0  0  0  0  0  0  0  0
    4.9890   -2.2746   -0.5043 C   0  0  0  0  0  0  0  0  0  0  0  0
    5.2085   -3.4655   -0.3153 O   0  0  0  0  0  0  0  0  0  0  0  0
    4.0719   -1.4612    0.3464 C   0  0  0  0  0  0  0  0  0  0  0  0
    3.9937   -0.1536   -0.0692 O   0  0  0  0  0  0  0  0  0  0  0  0
    2.9560    0.7771    0.8888 P   0  0  0  0  0  0  0  0  0  0  0  0
    3.7884    1.0664    2.3542 O   0  0  0  0  0  0  0  0  0  0  0  0
    2.7417    2.0749    0.1436 O   0  0  0  0  0  0  0  0  0  0  0  0
    1.5353   -0.0067    1.2742 O   0  0  0  0  0  0  0  0  0  0  0  0
    0.3999    0.5986    0.7399 C   0  0  0  0  0  0  0  0  0  0  0  0
   -0.5953    0.9588    1.8085 C   0  0  2  0  0  0  0  0  0  0  0  0
   -1.0925   -0.1892    2.3818 O   0  0  0  0  0  0  0  0  0  0  0  0
   -1.6667    1.7967    1.1483 C   0  0  2  0  0  0  0  0  0  0  0  0
   -2.6612    2.0011    2.1096 O   0  0  0  0  0  0  0  0  0  0  0  0
   -2.1785    1.2362   -0.1374 C   0  0  1  0  0  0  0  0  0  0  0  0
   -2.0030    2.0600   -1.2399 O   0  0  0  0  0  0  0  0  0  0  0  0
   -3.5003    2.5694   -1.8765 P   0  0  0  0  0  0  0  0  0  0  0  0
   -4.1013    1.4748   -2.9989 O   0  0  0  0  0  0  0  0  0  0  0  0
   -4.5535    2.6739   -0.5491 O   0  0  0  0  0  0  0  0  0  0  0  0
   -3.2800    3.9114   -2.4985 O   0  0  0  0  0  0  0  0  0  0  0  0
   -1.7064   -0.1568   -0.4362 C   0  0  2  0  0  0  0  0  0  0  0  0
   -2.4853   -1.0425    0.3064 O   0  0  0  0  0  0  0  0  0  0  0  0
   -3.3727   -2.0228   -0.7336 P   0  0  0  0  0  0  0  0  0  0  0  0
   -4.9814   -2.1556   -0.1822 O   0  0  0  0  0  0  0  0  0  0  0  0
   -2.7081   -3.5900   -0.8435 O   0  0  0  0  0  0  0  0  0  0  0  0
   -3.3976   -1.4115   -2.1118 O   0  0  0  0  0  0  0  0  0  0  0  0
   -0.2363   -0.3603   -0.2117 C   0  0  1  0  0  0  0  0  0  0  0  0
    0.4632   -0.3889   -1.4367 O   0  0  0  0  0  0  0  0  0  0  0  0
    6.1391    0.0875   -1.3614 H   0  0  0  0  0  0  0  0  0  0  0  0
    6.8402   -1.9653   -1.4767 H   0  0  0  0  0  0  0  0  0  0  0  0
    5.5278   -2.4447   -2.5713 H   0  0  0  0  0  0  0  0  0  0  0  0
    3.0572   -1.8989    0.2188 H   0  0  0  0  0  0  0  0  0  0  0  0
    4.4185   -1.5706    1.3957 H   0  0  0  0  0  0  0  0  0  0  0  0
    3.8442    0.1674    2.8053 H   0  0  0  0  0  0  0  0  0  0  0  0
    0.7028    1.5080    0.1500 H   0  0  0  0  0  0  0  0  0  0  0  0
   -0.1704    1.5676    2.6297 H   0  0  0  0  0  0  0  0  0  0  0  0
   -0.5087   -0.5071    3.1110 H   0  0  0  0  0  0  0  0  0  0  0  0
   -1.2034    2.7888    0.9109 H   0  0  0  0  0  0  0  0  0  0  0  0
   -2.6131    2.8753    2.5395 H   0  0  0  0  0  0  0  0  0  0  0  0
   -3.2994    1.1639   -0.0095 H   0  0  0  0  0  0  0  0  0  0  0  0
   -5.0151    1.1959   -2.7552 H   0  0  0  0  0  0  0  0  0  0  0  0
   -4.3607    3.4548    0.0105 H   0  0  0  0  0  0  0  0  0  0  0  0
   -1.9020   -0.3603   -1.5086 H   0  0  0  0  0  0  0  0  0  0  0  0
   -4.9574   -2.1123    0.8158 H   0  0  0  0  0  0  0  0  0  0  0  0
   -3.1848   -4.1766   -0.1732 H   0  0  0  0  0  0  0  0  0  0  0  0
   -0.1054   -1.3835    0.1992 H   0  0  0  0  0  0  0  0  0  0  0  0
   -0.1548   -0.6017   -2.1800 H   0  0  0  0  0  0  0  0  0  0  0  0
  1  2  1  0
  2  3  1  0
  3  4  2  0
  3  5  1  0
  5  6  1  0
  6  7  1  0
  7  8  1  0
  7  9  2  0
  7 10  1  0
 10 11  1  0
 11 12  1  0
 12 13  1  0
 12 14  1  0
 14 15  1  0
 14 16  1  0
 16 17  1  0
 17 18  1  0
 18 19  1  0
 18 20  1  0
 18 21  2  0
 16 22  1  0
 22 23  1  0
 23 24  1  0
 24 25  1  0
 24 26  1  0
 24 27  2  0
 22 28  1  0
 28 29  1  0
 28 11  1  0
  1 30  1  0
  2 31  1  0
  2 32  1  0
  5 33  1  0
  5 34  1  0
  8 35  1  0
 11 36  1  0
 12 37  1  1
 13 38  1  0
 14 39  1  6
 15 40  1  0
 16 41  1  1
 19 42  1  0
 20 43  1  0
 22 44  1  6
 25 45  1  0
 26 46  1  0
 28 47  1  1
 29 48  1  0
M  END
$$$$
