
     RDKit          3D

 50 53  0  0  0  0  0  0  0  0999 V2000
   -7.3068   -1.2936    0.7765 C   0  0  0  0  0  0  0  0  0  0  0  0
   -5.9167   -1.1692    1.2821 C   0  0  0  0  0  0  0  0  0  0  0  0
   -5.4211   -1.9457    2.1296 O   0  0  0  0  0  0  0  0  0  0  0  0
   -5.1079   -0.1184    0.7809 N   0  0  0  0  0  0  0  0  0  0  0  0
   -5.6006    0.8346   -0.2062 C   0  0  0  0  0  0  0  0  0  0  0  0
   -4.8883    0.5380   -1.5039 C   0  0  0  0  0  0  0  0  0  0  0  0
   -3.4266    0.4180   -1.2371 C   0  0  0  0  0  0  0  0  0  0  0  0
   -2.9012    0.2035    0.0126 C   0  0  0  0  0  0  0  0  0  0  0  0
   -1.4995    0.1427   -0.1061 C   0  0  0  0  0  0  0  0  0  0  0  0
   -0.5965   -0.0686    0.9533 N   0  0  0  0  0  0  0  0  0  0  0  0
    0.8072   -0.1143    0.8011 C   0  0  0  0  0  0  0  0  0  0  0  0
    1.4765    0.1672   -0.3671 C   0  0  0  0  0  0  0  0  0  0  0  0
    2.8698    0.1064   -0.4905 C   0  0  0  0  0  0  0  0  0  0  0  0
    3.6236   -0.2486    0.5934 C   0  0  0  0  0  0  0  0  0  0  0  0
    5.0862   -0.3090    0.4468 C   0  0  0  0  0  0  0  0  0  0  0  0
    5.8272   -1.2146    1.1953 C   0  0  0  0  0  0  0  0  0  0  0  0
    7.1978   -1.2748    1.0611 C   0  0  0  0  0  0  0  0  0  0  0  0
    7.8427   -0.4279    0.1750 C   0  0  0  0  0  0  0  0  0  0  0  0
    7.1146    0.4722   -0.5701 C   0  0  0  0  0  0  0  0  0  0  0  0
    7.7780    1.3369   -1.4758 O   0  0  0  0  0  0  0  0  0  0  0  0
    8.2636    2.4777   -0.9868 O   0  0  0  0  0  0  0  0  0  0  0  0
    5.7577    0.5147   -0.4212 C   0  0  0  0  0  0  0  0  0  0  0  0
    2.9604   -0.5309    1.7638 C   0  0  0  0  0  0  0  0  0  0  0  0
    1.6055   -0.4761    1.8988 C   0  0  0  0  0  0  0  0  0  0  0  0
   -1.3111    0.3271   -1.4218 N   0  0  0  0  0  0  0  0  0  0  0  0
   -2.4044    0.4874   -2.0918 N   0  0  0  0  0  0  0  0  0  0  0  0
   -2.4397    0.7041   -3.5384 C   0  0  0  0  0  0  0  0  0  0  0  0
   -3.7360    0.0706    1.2211 C   0  0  0  0  0  0  0  0  0  0  0  0
   -7.6706   -2.3297    0.9949 H   0  0  0  0  0  0  0  0  0  0  0  0
   -7.9750   -0.5785    1.2891 H   0  0  0  0  0  0  0  0  0  0  0  0
   -7.3492   -1.1548   -0.3200 H   0  0  0  0  0  0  0  0  0  0  0  0
   -6.6855    0.7735   -0.2823 H   0  0  0  0  0  0  0  0  0  0  0  0
   -5.3230    1.8598    0.1586 H   0  0  0  0  0  0  0  0  0  0  0  0
   -5.2428   -0.4406   -1.8769 H   0  0  0  0  0  0  0  0  0  0  0  0
   -5.0700    1.3500   -2.2448 H   0  0  0  0  0  0  0  0  0  0  0  0
   -0.9824   -0.2003    1.9161 H   0  0  0  0  0  0  0  0  0  0  0  0
    0.9107    0.4547   -1.2383 H   0  0  0  0  0  0  0  0  0  0  0  0
    3.3548    0.3326   -1.4173 H   0  0  0  0  0  0  0  0  0  0  0  0
    5.3260   -1.8731    1.8841 H   0  0  0  0  0  0  0  0  0  0  0  0
    7.8056   -1.9593    1.6204 H   0  0  0  0  0  0  0  0  0  0  0  0
    8.9232   -0.4645    0.0593 H   0  0  0  0  0  0  0  0  0  0  0  0
    8.7475    2.3552   -0.1301 H   0  0  0  0  0  0  0  0  0  0  0  0
    5.1813    1.2377   -1.0206 H   0  0  0  0  0  0  0  0  0  0  0  0
    3.5817   -0.8155    2.6284 H   0  0  0  0  0  0  0  0  0  0  0  0
    1.1176   -0.7038    2.8316 H   0  0  0  0  0  0  0  0  0  0  0  0
   -1.6192    0.1543   -4.0426 H   0  0  0  0  0  0  0  0  0  0  0  0
   -3.4138    0.3665   -3.9206 H   0  0  0  0  0  0  0  0  0  0  0  0
   -2.2460    1.7942   -3.7457 H   0  0  0  0  0  0  0  0  0  0  0  0
   -3.6726    1.0275    1.7837 H   0  0  0  0  0  0  0  0  0  0  0  0
   -3.3526   -0.7954    1.8019 H   0  0  0  0  0  0  0  0  0  0  0  0
  1  2  1  0
  2  3  2  0
  2  4  1  0
  4  5  1  0
  5  6  1  0
  6  7  1  0
  7  8  2  0
  8  9  1  0
  9 10  1  0
 10 11  1  0
 11 12  2  0
 12 13  1  0
 13 14  2  0
 14 15  1  0
 15 16  2  0
 16 17  1  0
 17 18  2  0
 18 19  1  0
 19 20  1  0
 20 21  1  0
 19 22  2  0
 14 23  1  0
 23 24  2  0
  9 25  2  0
 25 26  1  0
 26 27  1  0
  8 28  1  0
 28  4  1  0
 26  7  1  0
 24 11  1  0
 22 15  1  0
  1 29  1  0
  1 30  1  0
  1 31  1  0
  5 32  1  0
  5 33  1  0
  6 34  1  0
  6 35  1  0
 10 36  1  0
 12 37  1  0
 13 38  1  0
 16 39  1  0
 17 40  1  0
 18 41  1  0
 21 42  1  0
 22 43  1  0
 23 44  1  0
 24 45  1  0
 27 46  1  0
 27 47  1  0
 27 48  1  0
 28 49  1  0
 28 50  1  0
M  END
$$$$
