
     RDKit          3D

 57 60  0  0  0  0  0  0  0  0999 V2000
    1.3088   -3.9860   -1.1407 C   0  0  0  0  0  0  0  0  0  0  0  0
    0.9569   -2.5890   -0.7734 C   0  0  0  0  0  0  0  0  0  0  0  0
    1.6413   -2.1356    0.5108 C   0  0  0  0  0  0  0  0  0  0  0  0
   -0.4958   -2.3780   -0.5424 C   0  0  0  0  0  0  0  0  0  0  0  0
   -1.4009   -3.2066   -0.2650 O   0  0  0  0  0  0  0  0  0  0  0  0
   -0.7150   -0.9865   -0.6967 N   0  0  0  0  0  0  0  0  0  0  0  0
   -1.7675   -0.1523   -0.1675 C   0  0  0  0  0  0  0  0  0  0  0  0
   -1.7935   -0.1602    1.3511 C   0  0  0  0  0  0  0  0  0  0  0  0
   -2.5158    1.1159    1.7856 C   0  0  0  0  0  0  0  0  0  0  0  0
   -3.6380    1.3182    0.7780 C   0  0  0  0  0  0  0  0  0  0  0  0
   -4.6744    2.1767    1.3843 C   0  0  0  0  0  0  0  0  0  0  0  0
   -4.3387    3.4844    1.8106 N   0  0  0  0  0  0  0  0  0  0  0  0
   -5.8568    1.7452    1.5220 O   0  0  0  0  0  0  0  0  0  0  0  0
   -3.0054    1.9590   -0.4460 C   0  0  0  0  0  0  0  0  0  0  0  0
   -1.6480    1.2704   -0.6251 C   0  0  0  0  0  0  0  0  0  0  0  0
   -4.1454   -0.0274    0.3787 C   0  0  0  0  0  0  0  0  0  0  0  0
   -3.1458   -0.6409   -0.6114 C   0  0  0  0  0  0  0  0  0  0  0  0
    0.3749   -0.4437   -1.5446 C   0  0  0  0  0  0  0  0  0  0  0  0
    1.2075   -1.5953   -1.8987 C   0  0  0  0  0  0  0  0  0  0  0  0
    2.6292   -1.4398   -2.2446 C   0  0  0  0  0  0  0  0  0  0  0  0
    3.5613   -1.0437   -1.3835 O   0  0  0  0  0  0  0  0  0  0  0  0
    3.9112    0.0078   -0.6221 C   0  0  0  0  0  0  0  0  0  0  0  0
    5.0735   -0.0649    0.1911 C   0  0  0  0  0  0  0  0  0  0  0  0
    5.4966    0.9528    0.9862 C   0  0  0  0  0  0  0  0  0  0  0  0
    4.7880    2.1322    1.0330 C   0  0  0  0  0  0  0  0  0  0  0  0
    5.1879    3.2398    1.8530 C   0  0  0  0  0  0  0  0  0  0  0  0
    5.5224    4.1259    2.4968 N   0  0  0  0  0  0  0  0  0  0  0  0
    3.6571    2.1938    0.2369 C   0  0  0  0  0  0  0  0  0  0  0  0
    3.2697    1.1766   -0.5317 N   0  0  0  0  0  0  0  0  0  0  0  0
    1.1099   -4.1795   -2.1977 H   0  0  0  0  0  0  0  0  0  0  0  0
    0.7655   -4.6884   -0.4556 H   0  0  0  0  0  0  0  0  0  0  0  0
    2.4144   -4.1122   -0.9484 H   0  0  0  0  0  0  0  0  0  0  0  0
    1.4371   -1.0686    0.6186 H   0  0  0  0  0  0  0  0  0  0  0  0
    2.6894   -2.4239    0.5497 H   0  0  0  0  0  0  0  0  0  0  0  0
    1.1079   -2.6668    1.3407 H   0  0  0  0  0  0  0  0  0  0  0  0
   -0.7652   -0.0960    1.7747 H   0  0  0  0  0  0  0  0  0  0  0  0
   -2.3238   -1.0512    1.7127 H   0  0  0  0  0  0  0  0  0  0  0  0
   -1.7804    1.9367    1.7750 H   0  0  0  0  0  0  0  0  0  0  0  0
   -2.9082    1.0405    2.8193 H   0  0  0  0  0  0  0  0  0  0  0  0
   -5.0422    4.2392    1.9354 H   0  0  0  0  0  0  0  0  0  0  0  0
   -3.3449    3.7123    2.0115 H   0  0  0  0  0  0  0  0  0  0  0  0
   -2.9029    3.0299   -0.2386 H   0  0  0  0  0  0  0  0  0  0  0  0
   -3.6754    1.7475   -1.3044 H   0  0  0  0  0  0  0  0  0  0  0  0
   -1.4252    1.3134   -1.7105 H   0  0  0  0  0  0  0  0  0  0  0  0
   -0.8715    1.8523   -0.0921 H   0  0  0  0  0  0  0  0  0  0  0  0
   -5.1299    0.1089   -0.1074 H   0  0  0  0  0  0  0  0  0  0  0  0
   -4.2785   -0.7173    1.2402 H   0  0  0  0  0  0  0  0  0  0  0  0
   -3.4187   -0.2808   -1.6089 H   0  0  0  0  0  0  0  0  0  0  0  0
   -3.2085   -1.7438   -0.4907 H   0  0  0  0  0  0  0  0  0  0  0  0
   -0.1512   -0.1048   -2.4965 H   0  0  0  0  0  0  0  0  0  0  0  0
    0.8148    0.4069   -1.0470 H   0  0  0  0  0  0  0  0  0  0  0  0
    0.7316   -2.1287   -2.7950 H   0  0  0  0  0  0  0  0  0  0  0  0
    2.9430   -2.4353   -2.7166 H   0  0  0  0  0  0  0  0  0  0  0  0
    2.6464   -0.7717   -3.1776 H   0  0  0  0  0  0  0  0  0  0  0  0
    5.6221   -1.0038    0.1423 H   0  0  0  0  0  0  0  0  0  0  0  0
    6.3960    0.8911    1.6141 H   0  0  0  0  0  0  0  0  0  0  0  0
    3.1031    3.1454    0.2883 H   0  0  0  0  0  0  0  0  0  0  0  0
  1  2  1  0
  2  3  1  0
  2  4  1  0
  4  5  2  0
  4  6  1  0
  6  7  1  0
  7  8  1  0
  8  9  1  0
  9 10  1  0
 10 11  1  0
 11 12  1  0
 11 13  2  0
 10 14  1  0
 14 15  1  0
 10 16  1  0
 16 17  1  0
  6 18  1  0
 18 19  1  0
 19 20  1  0
 20 21  1  0
 21 22  1  0
 22 23  2  0
 23 24  1  0
 24 25  2  0
 25 26  1  0
 26 27  3  0
 25 28  1  0
 28 29  2  0
 19  2  1  0
 29 22  1  0
 15  7  1  0
 17  7  1  0
  1 30  1  0
  1 31  1  0
  1 32  1  0
  3 33  1  0
  3 34  1  0
  3 35  1  0
  8 36  1  0
  8 37  1  0
  9 38  1  0
  9 39  1  0
 12 40  1  0
 12 41  1  0
 14 42  1  0
 14 43  1  0
 15 44  1  0
 15 45  1  0
 16 46  1  0
 16 47  1  0
 17 48  1  0
 17 49  1  0
 18 50  1  0
 18 51  1  0
 19 52  1  0
 20 53  1  0
 20 54  1  0
 23 55  1  0
 24 56  1  0
 28 57  1  0
M  END
$$$$
