
     RDKit          3D

 52 56  0  0  0  0  0  0  0  0999 V2000
    1.8519    2.0011    0.0340 O   0  0  0  0  0  0  0  0  0  0  0  0
    1.8936    0.8538    0.6126 C   0  0  0  0  0  0  0  0  0  0  0  0
    0.6160    0.3767    1.1556 C   0  0  0  0  0  0  0  0  0  0  0  0
   -0.4966    0.3831    0.1842 C   0  0  0  0  0  0  0  0  0  0  0  0
   -0.7246    1.7557   -0.3346 C   0  0  0  0  0  0  0  0  0  0  0  0
   -0.2286    2.1130   -1.5932 C   0  0  0  0  0  0  0  0  0  0  0  0
   -0.4589    3.3928   -2.0366 C   0  0  0  0  0  0  0  0  0  0  0  0
   -1.1511    4.3309   -1.3011 C   0  0  0  0  0  0  0  0  0  0  0  0
   -1.6423    3.9858   -0.0613 C   0  0  0  0  0  0  0  0  0  0  0  0
   -1.4049    2.6766    0.3883 C   0  0  0  0  0  0  0  0  0  0  0  0
   -1.7662   -0.0349    0.9070 C   0  0  0  0  0  0  0  0  0  0  0  0
   -1.6713   -1.4236    1.5005 C   0  0  0  0  0  0  0  0  0  0  0  0
   -1.3658   -2.3866    0.3930 C   0  0  0  0  0  0  0  0  0  0  0  0
   -0.1106   -1.9939   -0.3613 C   0  0  0  0  0  0  0  0  0  0  0  0
   -0.2860   -0.5925   -0.9543 C   0  0  0  0  0  0  0  0  0  0  0  0
   -1.4404   -0.7021   -1.8841 C   0  0  0  0  0  0  0  0  0  0  0  0
   -2.7129   -1.0305   -1.1382 C   0  0  0  0  0  0  0  0  0  0  0  0
   -2.9190   -0.0171   -0.0660 C   0  0  0  0  0  0  0  0  0  0  0  0
   -2.5250   -2.4218   -0.5634 C   0  0  0  0  0  0  0  0  0  0  0  0
   -3.7073   -2.7191    0.1152 O   0  0  0  0  0  0  0  0  0  0  0  0
    3.1211    0.1969    0.6596 N   0  0  0  0  0  0  0  0  0  0  0  0
    4.4684    0.5088    0.1886 C   0  0  0  0  0  0  0  0  0  0  0  0
    4.7531   -0.9705    0.1203 C   0  0  0  0  0  0  0  0  0  0  0  0
    6.0094   -1.3531    0.5471 O   0  0  0  0  0  0  0  0  0  0  0  0
    3.6422   -1.0400    1.1564 C   0  0  0  0  0  0  0  0  0  0  0  0
    0.7364   -0.5828    1.7067 H   0  0  0  0  0  0  0  0  0  0  0  0
    0.3421    1.1074    1.9800 H   0  0  0  0  0  0  0  0  0  0  0  0
    0.3207    1.4122   -2.1982 H   0  0  0  0  0  0  0  0  0  0  0  0
   -0.0534    3.6349   -3.0307 H   0  0  0  0  0  0  0  0  0  0  0  0
   -1.3022    5.3377   -1.7148 H   0  0  0  0  0  0  0  0  0  0  0  0
   -2.1891    4.7082    0.5293 H   0  0  0  0  0  0  0  0  0  0  0  0
   -1.8307    2.5062    1.3850 H   0  0  0  0  0  0  0  0  0  0  0  0
   -2.0204    0.6427    1.7420 H   0  0  0  0  0  0  0  0  0  0  0  0
   -2.6908   -1.6634    1.8830 H   0  0  0  0  0  0  0  0  0  0  0  0
   -0.9565   -1.4698    2.3445 H   0  0  0  0  0  0  0  0  0  0  0  0
   -1.2479   -3.4115    0.7977 H   0  0  0  0  0  0  0  0  0  0  0  0
    0.7930   -2.0958    0.2198 H   0  0  0  0  0  0  0  0  0  0  0  0
   -0.0466   -2.7042   -1.2314 H   0  0  0  0  0  0  0  0  0  0  0  0
    0.6542   -0.3837   -1.4942 H   0  0  0  0  0  0  0  0  0  0  0  0
   -1.6193    0.1060   -2.5789 H   0  0  0  0  0  0  0  0  0  0  0  0
   -1.2427   -1.6102   -2.5287 H   0  0  0  0  0  0  0  0  0  0  0  0
   -3.5185   -1.0560   -1.8728 H   0  0  0  0  0  0  0  0  0  0  0  0
   -2.9762    0.9951   -0.5210 H   0  0  0  0  0  0  0  0  0  0  0  0
   -3.8719   -0.1815    0.4787 H   0  0  0  0  0  0  0  0  0  0  0  0
   -2.3209   -3.1295   -1.3891 H   0  0  0  0  0  0  0  0  0  0  0  0
   -4.1531   -3.4682   -0.3385 H   0  0  0  0  0  0  0  0  0  0  0  0
    5.0603    1.0859    0.8980 H   0  0  0  0  0  0  0  0  0  0  0  0
    4.4755    0.9432   -0.8425 H   0  0  0  0  0  0  0  0  0  0  0  0
    4.5194   -1.4393   -0.8556 H   0  0  0  0  0  0  0  0  0  0  0  0
    6.2472   -2.2073    0.1662 H   0  0  0  0  0  0  0  0  0  0  0  0
    3.0490   -1.9577    1.0054 H   0  0  0  0  0  0  0  0  0  0  0  0
    4.0983   -1.0084    2.1747 H   0  0  0  0  0  0  0  0  0  0  0  0
  1  2  2  0
  2  3  1  0
  3  4  1  0
  4  5  1  0
  5  6  2  0
  6  7  1  0
  7  8  2  0
  8  9  1  0
  9 10  2  0
  4 11  1  0
 11 12  1  0
 12 13  1  0
 13 14  1  0
 14 15  1  0
 15 16  1  0
 16 17  1  0
 17 18  1  0
 17 19  1  0
 19 20  1  0
  2 21  1  0
 21 22  1  0
 22 23  1  0
 23 24  1  0
 23 25  1  0
 15  4  1  0
 25 21  1  0
 10  5  1  0
 18 11  1  0
 19 13  1  0
  3 26  1  0
  3 27  1  0
  6 28  1  0
  7 29  1  0
  8 30  1  0
  9 31  1  0
 10 32  1  0
 11 33  1  0
 12 34  1  0
 12 35  1  0
 13 36  1  0
 14 37  1  0
 14 38  1  0
 15 39  1  0
 16 40  1  0
 16 41  1  0
 17 42  1  0
 18 43  1  0
 18 44  1  0
 19 45  1  0
 20 46  1  0
 22 47  1  0
 22 48  1  0
 23 49  1  0
 24 50  1  0
 25 51  1  0
 25 52  1  0
M  END
$$$$
