
     RDKit          3D

 61 66  0  0  0  0  0  0  0  0999 V2000
    2.5030   -2.3994    0.0458 C   0  0  1  0  0  0  0  0  0  0  0  0
    3.9530   -2.2091   -0.4367 C   0  0  0  0  0  0  0  0  0  0  0  0
    4.4224   -1.1156    0.4655 C   0  0  0  0  0  0  0  0  0  0  0  0
    3.3269   -0.1800    0.6829 N   0  0  0  0  0  0  0  0  0  0  0  0
    2.5970   -1.3277    1.1299 C   0  0  0  0  0  0  0  0  0  0  0  0
    2.4110   -0.7980    2.2607 O   0  0  0  0  0  0  0  0  0  0  0  0
    3.2103    1.2281    0.4876 C   0  0  0  0  0  0  0  0  0  0  0  0
    4.3985    1.8539    0.8454 C   0  0  0  0  0  0  0  0  0  0  0  0
    4.6000    3.2159    0.7656 C   0  0  0  0  0  0  0  0  0  0  0  0
    3.5813    4.0246    0.3078 C   0  0  0  0  0  0  0  0  0  0  0  0
    2.4079    3.3698   -0.0411 C   0  0  0  0  0  0  0  0  0  0  0  0
    2.1826    2.0135    0.0299 C   0  0  0  0  0  0  0  0  0  0  0  0
    0.9493    1.5548   -0.3597 C   0  0  0  0  0  0  0  0  0  0  0  0
   -0.0317    2.3908   -0.8048 C   0  0  0  0  0  0  0  0  0  0  0  0
   -1.3008    1.9095   -1.2036 O   0  0  0  0  0  0  0  0  0  0  0  0
   -2.1726    1.4469   -0.2082 C   0  0  0  0  0  0  0  0  0  0  0  0
   -2.8618    0.1619   -0.6941 C   0  0  0  0  0  0  0  0  0  0  0  0
   -3.3681   -0.4656    0.5607 C   0  0  0  0  0  0  0  0  0  0  0  0
   -3.1467   -1.7130    1.3354 C   0  0  0  0  0  0  0  0  0  0  0  0
   -2.8918   -2.8782    0.5286 N   0  0  0  0  0  0  0  0  0  0  0  0
   -3.8080   -3.8056    0.1695 C   0  0  0  0  0  0  0  0  0  0  0  0
   -3.2154   -4.7647   -0.5785 N   0  0  0  0  0  0  0  0  0  0  0  0
   -1.9043   -4.4264   -0.6867 C   0  0  0  0  0  0  0  0  0  0  0  0
   -1.7024   -3.2376    0.0111 C   0  0  0  0  0  0  0  0  0  0  0  0
   -0.4331   -2.5112    0.1469 C   0  0  0  0  0  0  0  0  0  0  0  0
    0.4517   -2.7501   -1.0773 C   0  0  0  0  0  0  0  0  0  0  0  0
    1.6605   -1.9684   -1.0135 N   0  0  0  0  0  0  0  0  0  0  0  0
   -4.2617    0.4097    1.0831 C   0  0  0  0  0  0  0  0  0  0  0  0
   -4.5507    1.7542    0.4994 C   0  0  0  0  0  0  0  0  0  0  0  0
   -3.1974    2.4294    0.2538 C   0  0  2  0  0  0  0  0  0  0  0  0
   -3.4299    3.5075   -0.7054 C   0  0  0  0  0  0  0  0  0  0  0  0
   -3.6113    4.3682   -1.4638 N   0  0  0  0  0  0  0  0  0  0  0  0
    0.1339    3.7743   -0.9011 C   0  0  0  0  0  0  0  0  0  0  0  0
    1.3868    4.1849   -0.4984 C   0  0  0  0  0  0  0  0  0  0  0  0
    2.3174   -3.3686    0.4857 H   0  0  0  0  0  0  0  0  0  0  0  0
    4.4890   -3.1476   -0.1132 H   0  0  0  0  0  0  0  0  0  0  0  0
    4.0265   -2.0219   -1.5046 H   0  0  0  0  0  0  0  0  0  0  0  0
    5.2009   -0.5511   -0.1227 H   0  0  0  0  0  0  0  0  0  0  0  0
    4.8444   -1.4884    1.4191 H   0  0  0  0  0  0  0  0  0  0  0  0
    5.2965    1.3526    1.2247 H   0  0  0  0  0  0  0  0  0  0  0  0
    5.5183    3.7240    1.0402 H   0  0  0  0  0  0  0  0  0  0  0  0
    3.6930    5.0952    0.2287 H   0  0  0  0  0  0  0  0  0  0  0  0
    0.7045    0.5065   -0.3232 H   0  0  0  0  0  0  0  0  0  0  0  0
   -1.5651    1.1044    0.6833 H   0  0  0  0  0  0  0  0  0  0  0  0
   -2.1699   -0.4509   -1.2555 H   0  0  0  0  0  0  0  0  0  0  0  0
   -3.7107    0.4873   -1.3527 H   0  0  0  0  0  0  0  0  0  0  0  0
   -3.9819   -1.8889    2.0556 H   0  0  0  0  0  0  0  0  0  0  0  0
   -2.2377   -1.5778    2.0002 H   0  0  0  0  0  0  0  0  0  0  0  0
   -4.8665   -3.8565    0.3961 H   0  0  0  0  0  0  0  0  0  0  0  0
   -1.2130   -5.0248   -1.2319 H   0  0  0  0  0  0  0  0  0  0  0  0
    0.1489   -2.8701    1.0336 H   0  0  0  0  0  0  0  0  0  0  0  0
   -0.6186   -1.4301    0.1991 H   0  0  0  0  0  0  0  0  0  0  0  0
    0.7811   -3.8238   -1.0704 H   0  0  0  0  0  0  0  0  0  0  0  0
   -0.1172   -2.4968   -2.0079 H   0  0  0  0  0  0  0  0  0  0  0  0
    2.1212   -2.0837   -1.9534 H   0  0  0  0  0  0  0  0  0  0  0  0
   -4.8184    0.1265    1.9956 H   0  0  0  0  0  0  0  0  0  0  0  0
   -5.0842    1.7038   -0.4724 H   0  0  0  0  0  0  0  0  0  0  0  0
   -5.0801    2.3716    1.2438 H   0  0  0  0  0  0  0  0  0  0  0  0
   -2.8868    2.8448    1.2439 H   0  0  0  0  0  0  0  0  0  0  0  0
   -0.6172    4.4433   -1.2456 H   0  0  0  0  0  0  0  0  0  0  0  0
    1.5369    5.2737   -0.5673 H   0  0  0  0  0  0  0  0  0  0  0  0
  1  2  1  0
  2  3  1  0
  3  4  1  0
  4  5  1  0
  5  6  2  0
  4  7  1  0
  7  8  2  0
  8  9  1  0
  9 10  2  0
 10 11  1  0
 11 12  2  0
 12 13  1  0
 13 14  2  0
 14 15  1  0
 15 16  1  0
 16 17  1  0
 17 18  1  0
 18 19  1  0
 19 20  1  0
 20 21  1  0
 21 22  2  0
 22 23  1  0
 23 24  2  0
 24 25  1  0
 25 26  1  0
 26 27  1  0
 18 28  2  0
 28 29  1  0
 29 30  1  0
 30 31  1  0
 31 32  3  0
 14 33  1  0
 33 34  2  0
  5  1  1  0
 12  7  1  0
 30 16  1  0
 27  1  1  0
 34 11  1  0
 24 20  1  0
  1 35  1  1
  2 36  1  0
  2 37  1  0
  3 38  1  0
  3 39  1  0
  8 40  1  0
  9 41  1  0
 10 42  1  0
 13 43  1  0
 16 44  1  0
 17 45  1  0
 17 46  1  0
 19 47  1  0
 19 48  1  0
 21 49  1  0
 23 50  1  0
 25 51  1  0
 25 52  1  0
 26 53  1  0
 26 54  1  0
 27 55  1  0
 28 56  1  0
 29 57  1  0
 29 58  1  0
 30 59  1  1
 33 60  1  0
 34 61  1  0
M  END
$$$$
