
     RDKit          3D

 46 49  0  0  0  0  0  0  0  0999 V2000
    7.4754   -0.2043   -1.0411 N   0  0  0  0  0  0  0  0  0  0  0  0
    6.0833   -0.2690   -1.1404 C   0  0  0  0  0  0  0  0  0  0  0  0
    5.5409   -0.7001   -2.1727 O   0  0  0  0  0  0  0  0  0  0  0  0
    5.2604    0.1677   -0.0364 C   0  0  0  0  0  0  0  0  0  0  0  0
    5.8107    0.6618    1.1499 C   0  0  0  0  0  0  0  0  0  0  0  0
    4.9942    1.0669    2.1763 C   0  0  0  0  0  0  0  0  0  0  0  0
    3.6254    1.0058    2.0849 C   0  0  0  0  0  0  0  0  0  0  0  0
    3.0591    0.5231    0.9272 C   0  0  0  0  0  0  0  0  0  0  0  0
    3.8895    0.1203   -0.0941 C   0  0  0  0  0  0  0  0  0  0  0  0
    3.2972   -0.3599   -1.2446 O   0  0  0  0  0  0  0  0  0  0  0  0
    1.9611   -0.1976   -1.5998 C   0  0  0  0  0  0  0  0  0  0  0  0
    1.0782    0.3313   -0.5289 C   0  0  0  0  0  0  0  0  0  0  0  0
   -0.0968   -0.5869   -0.3640 C   0  0  0  0  0  0  0  0  0  0  0  0
    0.0804   -1.7644    0.3435 C   0  0  0  0  0  0  0  0  0  0  0  0
   -0.9848   -2.5759    0.4813 N   0  0  0  0  0  0  0  0  0  0  0  0
   -2.1954   -2.2956   -0.0314 C   0  0  0  0  0  0  0  0  0  0  0  0
   -2.3621   -1.1249   -0.7320 C   0  0  0  0  0  0  0  0  0  0  0  0
   -3.6772   -0.7661   -1.3192 C   0  0  0  0  0  0  0  0  0  0  0  0
   -4.4472   -0.0086   -0.3623 N   0  0  0  0  0  0  0  0  0  0  0  0
   -5.3415   -0.6398    0.5896 C   0  0  0  0  0  0  0  0  0  0  0  0
   -6.2516    0.4924    1.0877 C   0  0  0  0  0  0  0  0  0  0  0  0
   -5.4958    1.4265    1.7667 O   0  0  0  0  0  0  0  0  0  0  0  0
   -4.6105    2.1047    0.9507 C   0  0  0  0  0  0  0  0  0  0  0  0
   -4.3422    1.4089   -0.3341 C   0  0  0  0  0  0  0  0  0  0  0  0
   -4.0263    2.0625   -1.3841 O   0  0  0  0  0  0  0  0  0  0  0  0
   -1.3049   -0.2428   -0.9115 C   0  0  0  0  0  0  0  0  0  0  0  0
    1.6974    0.4197    0.7318 O   0  0  0  0  0  0  0  0  0  0  0  0
    8.0024    0.4977   -1.5833 H   0  0  0  0  0  0  0  0  0  0  0  0
    7.9868   -0.8563   -0.4262 H   0  0  0  0  0  0  0  0  0  0  0  0
    6.8919    0.6988    1.1947 H   0  0  0  0  0  0  0  0  0  0  0  0
    5.4275    1.4453    3.0844 H   0  0  0  0  0  0  0  0  0  0  0  0
    2.9737    1.3290    2.9037 H   0  0  0  0  0  0  0  0  0  0  0  0
    1.5940   -1.2015   -1.9649 H   0  0  0  0  0  0  0  0  0  0  0  0
    1.9377    0.4438   -2.5277 H   0  0  0  0  0  0  0  0  0  0  0  0
    0.7054    1.3318   -0.8310 H   0  0  0  0  0  0  0  0  0  0  0  0
    1.0458   -2.0389    0.7808 H   0  0  0  0  0  0  0  0  0  0  0  0
   -3.0444   -2.9789    0.0987 H   0  0  0  0  0  0  0  0  0  0  0  0
   -4.1778   -1.7193   -1.5950 H   0  0  0  0  0  0  0  0  0  0  0  0
   -3.5177   -0.2143   -2.2752 H   0  0  0  0  0  0  0  0  0  0  0  0
   -6.0189   -1.3585    0.0829 H   0  0  0  0  0  0  0  0  0  0  0  0
   -4.7860   -1.0939    1.4359 H   0  0  0  0  0  0  0  0  0  0  0  0
   -7.0727    0.1161    1.7002 H   0  0  0  0  0  0  0  0  0  0  0  0
   -6.6076    1.0000    0.1433 H   0  0  0  0  0  0  0  0  0  0  0  0
   -3.6250    2.1279    1.5020 H   0  0  0  0  0  0  0  0  0  0  0  0
   -4.9699    3.1504    0.7546 H   0  0  0  0  0  0  0  0  0  0  0  0
   -1.4621    0.6788   -1.4708 H   0  0  0  0  0  0  0  0  0  0  0  0
  1  2  1  0
  2  3  2  0
  2  4  1  0
  4  5  2  0
  5  6  1  0
  6  7  2  0
  7  8  1  0
  8  9  2  0
  9 10  1  0
 10 11  1  0
 11 12  1  0
 12 13  1  0
 13 14  2  0
 14 15  1  0
 15 16  2  0
 16 17  1  0
 17 18  1  0
 18 19  1  0
 19 20  1  0
 20 21  1  0
 21 22  1  0
 22 23  1  0
 23 24  1  0
 24 25  2  0
 17 26  2  0
 12 27  1  0
  9  4  1  0
 26 13  1  0
 27  8  1  0
 24 19  1  0
  1 28  1  0
  1 29  1  0
  5 30  1  0
  6 31  1  0
  7 32  1  0
 11 33  1  0
 11 34  1  0
 12 35  1  0
 14 36  1  0
 16 37  1  0
 18 38  1  0
 18 39  1  0
 20 40  1  0
 20 41  1  0
 21 42  1  0
 21 43  1  0
 23 44  1  0
 23 45  1  0
 26 46  1  0
M  END
$$$$
