
     RDKit          3D

 58 62  0  0  0  0  0  0  0  0999 V2000
   -6.1575   -2.9216    1.1871 C   0  0  0  0  0  0  0  0  0  0  0  0
   -4.9302   -2.3293    0.6001 C   0  0  0  0  0  0  0  0  0  0  0  0
   -3.8351   -3.1149    0.3238 C   0  0  0  0  0  0  0  0  0  0  0  0
   -2.7119   -2.5650   -0.2145 C   0  0  0  0  0  0  0  0  0  0  0  0
   -2.6554   -1.2236   -0.4887 C   0  0  0  0  0  0  0  0  0  0  0  0
   -1.4060   -0.7208   -1.0642 C   0  0  0  0  0  0  0  0  0  0  0  0
   -1.3394   -0.7253   -2.3242 O   0  0  0  0  0  0  0  0  0  0  0  0
   -0.3686   -0.2700   -0.2304 N   0  0  0  0  0  0  0  0  0  0  0  0
   -0.5342   -0.3009    1.1949 C   0  0  0  0  0  0  0  0  0  0  0  0
   -0.2856    1.0937    1.7254 C   0  0  0  0  0  0  0  0  0  0  0  0
    0.1687    1.9620    0.7245 O   0  0  0  0  0  0  0  0  0  0  0  0
    1.2812    1.4156    0.0733 C   0  0  0  0  0  0  0  0  0  0  0  0
    0.8644    0.2241   -0.7731 C   0  0  1  0  0  0  0  0  0  0  0  0
    1.8988   -0.8850   -0.5752 C   0  0  0  0  0  0  0  0  0  0  0  0
    3.2011   -0.4414   -1.1108 C   0  0  0  0  0  0  0  0  0  0  0  0
    4.2344   -0.0355   -0.2766 C   0  0  0  0  0  0  0  0  0  0  0  0
    5.4377    0.3745   -0.7811 C   0  0  0  0  0  0  0  0  0  0  0  0
    6.5131    0.7973    0.0866 N   0  0  0  0  0  0  0  0  0  0  0  0
    7.6512    0.1637    0.2837 N   0  0  0  0  0  0  0  0  0  0  0  0
    8.3966    0.8522    1.1501 C   0  0  0  0  0  0  0  0  0  0  0  0
    7.6865    1.9649    1.5063 C   0  0  0  0  0  0  0  0  0  0  0  0
    6.5350    1.8882    0.8273 N   0  0  0  0  0  0  0  0  0  0  0  0
    5.6176    0.3814   -2.1380 C   0  0  0  0  0  0  0  0  0  0  0  0
    4.6097   -0.0174   -3.0193 C   0  0  0  0  0  0  0  0  0  0  0  0
    3.4052   -0.4262   -2.4724 C   0  0  0  0  0  0  0  0  0  0  0  0
    2.0917   -0.9424   -3.5151 Cl  0  0  0  0  0  0  0  0  0  0  0  0
   -3.7418   -0.4399   -0.2156 C   0  0  0  0  0  0  0  0  0  0  0  0
   -3.6942    0.9416   -0.4945 N   0  0  0  0  0  0  0  0  0  0  0  0
   -3.7973    1.4601   -1.7084 N   0  0  0  0  0  0  0  0  0  0  0  0
   -3.7155    2.8049   -1.6405 C   0  0  0  0  0  0  0  0  0  0  0  0
   -3.5522    3.1223   -0.2981 C   0  0  0  0  0  0  0  0  0  0  0  0
   -3.5469    1.9519    0.3469 N   0  0  0  0  0  0  0  0  0  0  0  0
   -4.8909   -0.9777    0.3305 C   0  0  0  0  0  0  0  0  0  0  0  0
   -6.0650   -0.1456    0.6286 C   0  0  0  0  0  0  0  0  0  0  0  0
   -5.9552   -3.9794    1.4464 H   0  0  0  0  0  0  0  0  0  0  0  0
   -6.9441   -2.9313    0.3978 H   0  0  0  0  0  0  0  0  0  0  0  0
   -6.4912   -2.3611    2.0761 H   0  0  0  0  0  0  0  0  0  0  0  0
   -3.8603   -4.1773    0.5335 H   0  0  0  0  0  0  0  0  0  0  0  0
   -1.8491   -3.2141   -0.4265 H   0  0  0  0  0  0  0  0  0  0  0  0
   -1.5213   -0.6981    1.5056 H   0  0  0  0  0  0  0  0  0  0  0  0
    0.2845   -0.9651    1.5976 H   0  0  0  0  0  0  0  0  0  0  0  0
   -1.1928    1.5419    2.1717 H   0  0  0  0  0  0  0  0  0  0  0  0
    0.4979    1.1009    2.5165 H   0  0  0  0  0  0  0  0  0  0  0  0
    1.9939    1.1058    0.8627 H   0  0  0  0  0  0  0  0  0  0  0  0
    1.7231    2.1922   -0.5560 H   0  0  0  0  0  0  0  0  0  0  0  0
    0.7970    0.4859   -1.8461 H   0  0  0  0  0  0  0  0  0  0  0  0
    2.0237   -1.0321    0.5320 H   0  0  0  0  0  0  0  0  0  0  0  0
    1.5650   -1.8371   -1.0003 H   0  0  0  0  0  0  0  0  0  0  0  0
    4.0996   -0.0390    0.7908 H   0  0  0  0  0  0  0  0  0  0  0  0
    9.3906    0.6002    1.5240 H   0  0  0  0  0  0  0  0  0  0  0  0
    8.0107    2.7479    2.2062 H   0  0  0  0  0  0  0  0  0  0  0  0
    6.5635    0.7037   -2.5448 H   0  0  0  0  0  0  0  0  0  0  0  0
    4.7599   -0.0087   -4.0800 H   0  0  0  0  0  0  0  0  0  0  0  0
   -3.7641    3.5100   -2.4452 H   0  0  0  0  0  0  0  0  0  0  0  0
   -3.4548    4.1117    0.0931 H   0  0  0  0  0  0  0  0  0  0  0  0
   -6.3069   -0.2916    1.7133 H   0  0  0  0  0  0  0  0  0  0  0  0
   -6.9421   -0.4117    0.0164 H   0  0  0  0  0  0  0  0  0  0  0  0
   -5.7928    0.9302    0.5229 H   0  0  0  0  0  0  0  0  0  0  0  0
  1  2  1  0
  2  3  2  0
  3  4  1  0
  4  5  2  0
  5  6  1  0
  6  7  2  0
  6  8  1  0
  8  9  1  0
  9 10  1  0
 10 11  1  0
 11 12  1  0
 12 13  1  0
 13 14  1  0
 14 15  1  0
 15 16  2  0
 16 17  1  0
 17 18  1  0
 18 19  1  0
 19 20  2  0
 20 21  1  0
 21 22  2  0
 17 23  2  0
 23 24  1  0
 24 25  2  0
 25 26  1  0
  5 27  1  0
 27 28  1  0
 28 29  1  0
 29 30  2  0
 30 31  1  0
 31 32  2  0
 27 33  2  0
 33 34  1  0
 33  2  1  0
 13  8  1  0
 25 15  1  0
 32 28  1  0
 22 18  1  0
  1 35  1  0
  1 36  1  0
  1 37  1  0
  3 38  1  0
  4 39  1  0
  9 40  1  0
  9 41  1  0
 10 42  1  0
 10 43  1  0
 12 44  1  0
 12 45  1  0
 13 46  1  6
 14 47  1  0
 14 48  1  0
 16 49  1  0
 20 50  1  0
 21 51  1  0
 23 52  1  0
 24 53  1  0
 30 54  1  0
 31 55  1  0
 34 56  1  0
 34 57  1  0
 34 58  1  0
M  END
$$$$
