
     RDKit          3D

 38 37  0  0  0  0  0  0  0  0999 V2000
   -3.9214   -2.1046    0.4591 O   0  0  0  0  0  0  0  0  0  0  0  0
   -4.1886   -1.0959   -0.4536 C   0  0  0  0  0  0  0  0  0  0  0  0
   -2.8708   -0.7435   -1.1350 C   0  0  0  0  0  0  0  0  0  0  0  0
   -1.9056   -0.2750   -0.0461 C   0  0  0  0  0  0  0  0  0  0  0  0
   -0.6291    0.0637   -0.7256 C   0  0  0  0  0  0  0  0  0  0  0  0
    0.4825    0.5471    0.1042 C   0  0  0  0  0  0  0  0  0  0  0  0
    0.1659    1.8225    0.8665 C   0  0  0  0  0  0  0  0  0  0  0  0
   -0.1878    2.9686   -0.0822 C   0  0  0  0  0  0  0  0  0  0  0  0
   -0.4516    4.0645    0.7661 O   0  0  0  0  0  0  0  0  0  0  0  0
    1.0516   -0.4283    1.0896 C   0  0  0  0  0  0  0  0  0  0  0  0
    1.6137   -1.6784    0.5076 C   0  0  0  0  0  0  0  0  0  0  0  0
    2.7440   -1.4514   -0.4586 C   0  0  0  0  0  0  0  0  0  0  0  0
    3.8893   -0.7414    0.2272 C   0  0  0  0  0  0  0  0  0  0  0  0
    4.8764   -0.5868   -0.7662 O   0  0  0  0  0  0  0  0  0  0  0  0
   -4.5322   -2.0979    1.2541 H   0  0  0  0  0  0  0  0  0  0  0  0
   -4.5112   -0.1806    0.0606 H   0  0  0  0  0  0  0  0  0  0  0  0
   -4.8964   -1.3868   -1.2473 H   0  0  0  0  0  0  0  0  0  0  0  0
   -2.4311   -1.6048   -1.6687 H   0  0  0  0  0  0  0  0  0  0  0  0
   -3.0851    0.1308   -1.7904 H   0  0  0  0  0  0  0  0  0  0  0  0
   -2.4217    0.5521    0.4523 H   0  0  0  0  0  0  0  0  0  0  0  0
   -1.8557   -1.1032    0.6799 H   0  0  0  0  0  0  0  0  0  0  0  0
   -0.8705    0.8686   -1.4538 H   0  0  0  0  0  0  0  0  0  0  0  0
   -0.3006   -0.7805   -1.3321 H   0  0  0  0  0  0  0  0  0  0  0  0
    1.3095    0.8139   -0.5924 H   0  0  0  0  0  0  0  0  0  0  0  0
   -0.6589    1.7364    1.5699 H   0  0  0  0  0  0  0  0  0  0  0  0
    1.0446    2.1777    1.4425 H   0  0  0  0  0  0  0  0  0  0  0  0
   -1.1726    2.7111   -0.5268 H   0  0  0  0  0  0  0  0  0  0  0  0
    0.5873    3.1662   -0.8217 H   0  0  0  0  0  0  0  0  0  0  0  0
    0.2388    4.7526    0.7366 H   0  0  0  0  0  0  0  0  0  0  0  0
    1.8539    0.0664    1.6774 H   0  0  0  0  0  0  0  0  0  0  0  0
    0.2677   -0.7054    1.8250 H   0  0  0  0  0  0  0  0  0  0  0  0
    2.0590   -2.2469    1.3518 H   0  0  0  0  0  0  0  0  0  0  0  0
    0.9094   -2.3515    0.0278 H   0  0  0  0  0  0  0  0  0  0  0  0
    3.1559   -2.4758   -0.6952 H   0  0  0  0  0  0  0  0  0  0  0  0
    2.4386   -0.9592   -1.3968 H   0  0  0  0  0  0  0  0  0  0  0  0
    4.2341   -1.3884    1.0609 H   0  0  0  0  0  0  0  0  0  0  0  0
    3.5840    0.2723    0.6191 H   0  0  0  0  0  0  0  0  0  0  0  0
    4.3845   -0.3282   -1.5856 H   0  0  0  0  0  0  0  0  0  0  0  0
  1  2  1  0
  2  3  1  0
  3  4  1  0
  4  5  1  0
  5  6  1  0
  6  7  1  0
  7  8  1  0
  8  9  1  0
  6 10  1  0
 10 11  1  0
 11 12  1  0
 12 13  1  0
 13 14  1  0
  1 15  1  0
  2 16  1  0
  2 17  1  0
  3 18  1  0
  3 19  1  0
  4 20  1  0
  4 21  1  0
  5 22  1  0
  5 23  1  0
  6 24  1  0
  7 25  1  0
  7 26  1  0
  8 27  1  0
  8 28  1  0
  9 29  1  0
 10 30  1  0
 10 31  1  0
 11 32  1  0
 11 33  1  0
 12 34  1  0
 12 35  1  0
 13 36  1  0
 13 37  1  0
 14 38  1  0
M  END
$$$$
