
     RDKit          3D

 64 68  0  0  0  0  0  0  0  0999 V2000
    1.5569    2.1273   -2.9589 O   0  0  0  0  0  0  0  0  0  0  0  0
    2.4232    1.2193   -2.8915 C   0  0  0  0  0  0  0  0  0  0  0  0
    3.5934    1.3454   -3.6051 O   0  0  0  0  0  0  0  0  0  0  0  0
    2.1704    0.0259   -2.0431 C   0  0  2  0  0  0  0  0  0  0  0  0
    0.8437    0.0866   -1.3556 C   0  0  1  0  0  0  0  0  0  0  0  0
   -0.1497   -1.3466   -1.6718 S   0  0  0  0  0  6  0  0  0  0  0  0
    0.5467   -2.6086   -1.2612 O   0  0  0  0  0  0  0  0  0  0  0  0
   -0.4302   -1.4785   -3.1533 O   0  0  0  0  0  0  0  0  0  0  0  0
   -1.6968   -1.2613   -0.8499 C   0  0  0  0  0  0  0  0  0  0  0  0
   -2.4370   -0.0243   -1.3538 C   0  0  0  0  0  0  0  0  0  0  0  0
   -3.7654    0.0893   -0.6861 C   0  0  0  0  0  0  0  0  0  0  0  0
   -4.8915   -0.5049   -1.2323 C   0  0  0  0  0  0  0  0  0  0  0  0
   -6.1303   -0.4146   -0.6343 C   0  0  0  0  0  0  0  0  0  0  0  0
   -6.3082    0.2827    0.5545 C   0  0  0  0  0  0  0  0  0  0  0  0
   -7.6168    0.3775    1.1870 C   0  0  0  0  0  0  0  0  0  0  0  0
   -8.5197   -0.6554    1.0677 C   0  0  0  0  0  0  0  0  0  0  0  0
   -9.7744   -0.6059    1.6529 C   0  0  0  0  0  0  0  0  0  0  0  0
  -10.0875    0.5237    2.3640 C   0  0  0  0  0  0  0  0  0  0  0  0
  -11.6647    0.6336    3.1237 Cl  0  0  0  0  0  0  0  0  0  0  0  0
   -9.1899    1.5669    2.4909 C   0  0  0  0  0  0  0  0  0  0  0  0
   -7.9343    1.4982    1.8956 C   0  0  0  0  0  0  0  0  0  0  0  0
   -5.1843    0.8725    1.0944 C   0  0  0  0  0  0  0  0  0  0  0  0
   -3.9376    0.7823    0.4936 C   0  0  0  0  0  0  0  0  0  0  0  0
    1.1541    0.1214    0.1187 C   0  0  0  0  0  0  0  0  0  0  0  0
    2.4628   -0.6257    0.1899 C   0  0  0  0  0  0  0  0  0  0  0  0
    3.2263   -0.0164   -0.9667 C   0  0  1  0  0  0  0  0  0  0  0  0
    4.3838   -0.8822   -1.4032 C   0  0  0  0  0  0  0  0  0  0  0  0
    5.3700   -0.9085   -0.3712 N   0  0  0  0  0  0  0  0  0  0  0  0
    5.3149   -1.8347    0.5659 N   0  0  0  0  0  0  0  0  0  0  0  0
    6.1980   -1.8985    1.5321 N   0  0  0  0  0  0  0  0  0  0  0  0
    7.2039   -1.0137    1.6059 C   0  0  0  0  0  0  0  0  0  0  0  0
    8.1439   -1.0626    2.6139 C   0  0  0  0  0  0  0  0  0  0  0  0
    9.1545   -0.1250    2.6355 C   0  0  0  0  0  0  0  0  0  0  0  0
    9.2414    0.8568    1.6712 C   0  0  0  0  0  0  0  0  0  0  0  0
    8.3035    0.9136    0.6570 C   0  0  0  0  0  0  0  0  0  0  0  0
    7.3111   -0.0235    0.6532 C   0  0  0  0  0  0  0  0  0  0  0  0
    6.3464    0.0079   -0.3611 C   0  0  0  0  0  0  0  0  0  0  0  0
    6.3639    0.8718   -1.2696 O   0  0  0  0  0  0  0  0  0  0  0  0
    3.8492    2.1881   -4.1310 H   0  0  0  0  0  0  0  0  0  0  0  0
    2.2340   -0.8683   -2.6993 H   0  0  0  0  0  0  0  0  0  0  0  0
    0.3436    1.0172   -1.6998 H   0  0  0  0  0  0  0  0  0  0  0  0
   -2.2753   -2.1718   -0.9912 H   0  0  0  0  0  0  0  0  0  0  0  0
   -1.4918   -1.1533    0.2536 H   0  0  0  0  0  0  0  0  0  0  0  0
   -2.5419   -0.1500   -2.4516 H   0  0  0  0  0  0  0  0  0  0  0  0
   -1.8262    0.8881   -1.2064 H   0  0  0  0  0  0  0  0  0  0  0  0
   -4.7538   -1.0541   -2.1681 H   0  0  0  0  0  0  0  0  0  0  0  0
   -7.0154   -0.8850   -1.0688 H   0  0  0  0  0  0  0  0  0  0  0  0
   -8.2750   -1.5464    0.5079 H   0  0  0  0  0  0  0  0  0  0  0  0
  -10.4491   -1.4524    1.5261 H   0  0  0  0  0  0  0  0  0  0  0  0
   -9.4404    2.4438    3.0463 H   0  0  0  0  0  0  0  0  0  0  0  0
   -7.2288    2.3257    1.9990 H   0  0  0  0  0  0  0  0  0  0  0  0
   -5.3139    1.4187    2.0218 H   0  0  0  0  0  0  0  0  0  0  0  0
   -3.0598    1.2551    0.9347 H   0  0  0  0  0  0  0  0  0  0  0  0
    0.3618   -0.3511    0.7308 H   0  0  0  0  0  0  0  0  0  0  0  0
    1.3383    1.1801    0.4247 H   0  0  0  0  0  0  0  0  0  0  0  0
    2.2766   -1.6818   -0.0283 H   0  0  0  0  0  0  0  0  0  0  0  0
    2.9835   -0.4645    1.1580 H   0  0  0  0  0  0  0  0  0  0  0  0
    3.5281    0.9938   -0.6780 H   0  0  0  0  0  0  0  0  0  0  0  0
    3.9829   -1.8927   -1.6512 H   0  0  0  0  0  0  0  0  0  0  0  0
    4.8270   -0.4291   -2.3030 H   0  0  0  0  0  0  0  0  0  0  0  0
    8.0656   -1.8373    3.3648 H   0  0  0  0  0  0  0  0  0  0  0  0
    9.8926   -0.1632    3.4263 H   0  0  0  0  0  0  0  0  0  0  0  0
   10.0246    1.5928    1.6779 H   0  0  0  0  0  0  0  0  0  0  0  0
    8.3691    1.6766   -0.0943 H   0  0  0  0  0  0  0  0  0  0  0  0
  1  2  2  0
  2  3  1  0
  2  4  1  0
  4  5  1  0
  5  6  1  0
  6  7  2  0
  6  8  2  0
  6  9  1  0
  9 10  1  0
 10 11  1  0
 11 12  2  0
 12 13  1  0
 13 14  2  0
 14 15  1  0
 15 16  2  0
 16 17  1  0
 17 18  2  0
 18 19  1  0
 18 20  1  0
 20 21  2  0
 14 22  1  0
 22 23  2  0
  5 24  1  0
 24 25  1  0
 25 26  1  0
 26 27  1  0
 27 28  1  0
 28 29  1  0
 29 30  2  0
 30 31  1  0
 31 32  2  0
 32 33  1  0
 33 34  2  0
 34 35  1  0
 35 36  2  0
 36 37  1  0
 37 38  2  0
 26  4  1  0
 37 28  1  0
 23 11  1  0
 36 31  1  0
 21 15  1  0
  3 39  1  0
  4 40  1  6
  5 41  1  6
  9 42  1  0
  9 43  1  0
 10 44  1  0
 10 45  1  0
 12 46  1  0
 13 47  1  0
 16 48  1  0
 17 49  1  0
 20 50  1  0
 21 51  1  0
 22 52  1  0
 23 53  1  0
 24 54  1  0
 24 55  1  0
 25 56  1  0
 25 57  1  0
 26 58  1  1
 27 59  1  0
 27 60  1  0
 32 61  1  0
 33 62  1  0
 34 63  1  0
 35 64  1  0
M  END
$$$$
