
     RDKit          3D

 54 57  0  0  0  0  0  0  0  0999 V2000
    4.4684    0.0605    3.0247 C   0  0  0  0  0  0  0  0  0  0  0  0
    5.0187   -0.3038    1.6792 C   0  0  0  0  0  0  0  0  0  0  0  0
    6.1993   -1.2524    1.7761 C   0  0  0  0  0  0  0  0  0  0  0  0
    4.0202   -0.9936    0.9574 O   0  0  0  0  0  0  0  0  0  0  0  0
    3.6036   -0.4133   -0.2599 C   0  0  0  0  0  0  0  0  0  0  0  0
    4.1327    0.6680   -0.6361 O   0  0  0  0  0  0  0  0  0  0  0  0
    2.6202   -1.0012   -1.0653 N   0  0  0  0  0  0  0  0  0  0  0  0
    2.1406   -0.4841   -2.3119 C   0  0  0  0  0  0  0  0  0  0  0  0
    1.5436    0.8528   -2.0925 C   0  0  0  0  0  0  0  0  0  0  0  0
    2.0948    2.0945   -2.2061 C   0  0  0  0  0  0  0  0  0  0  0  0
    1.1695    3.0445   -1.9085 N   0  0  0  0  0  0  0  0  0  0  0  0
    0.0163    2.3842   -1.6022 C   0  0  0  0  0  0  0  0  0  0  0  0
   -1.2369    2.8230   -1.2296 C   0  0  0  0  0  0  0  0  0  0  0  0
   -2.2033    1.8745   -0.9858 C   0  0  0  0  0  0  0  0  0  0  0  0
   -1.9586    0.4951   -1.1019 C   0  0  0  0  0  0  0  0  0  0  0  0
   -3.0195   -0.4507   -0.8098 C   0  0  0  0  0  0  0  0  0  0  0  0
   -3.5285   -0.5923    0.4850 C   0  0  0  0  0  0  0  0  0  0  0  0
   -3.1006    0.1255    1.6614 C   0  0  0  0  0  0  0  0  0  0  0  0
   -4.0283    0.8104    2.4016 C   0  0  0  0  0  0  0  0  0  0  0  0
   -3.6638    1.5283    3.5390 C   0  0  0  0  0  0  0  0  0  0  0  0
   -2.3617    1.5460    3.9167 C   0  0  0  0  0  0  0  0  0  0  0  0
   -1.9987    2.2476    5.0263 F   0  0  0  0  0  0  0  0  0  0  0  0
   -1.4243    0.8512    3.1649 C   0  0  0  0  0  0  0  0  0  0  0  0
   -1.7861    0.1349    2.0306 C   0  0  0  0  0  0  0  0  0  0  0  0
   -4.4960   -1.5156    0.3834 N   0  0  0  0  0  0  0  0  0  0  0  0
   -4.6007   -1.9355   -0.8821 C   0  0  0  0  0  0  0  0  0  0  0  0
   -3.6701   -1.2667   -1.6403 N   0  0  0  0  0  0  0  0  0  0  0  0
   -3.4472   -1.4526   -3.0483 C   0  0  0  0  0  0  0  0  0  0  0  0
   -2.5441   -2.6119   -3.3650 C   0  0  0  0  0  0  0  0  0  0  0  0
   -1.3186   -2.4297   -2.7879 F   0  0  0  0  0  0  0  0  0  0  0  0
   -2.3877   -2.7269   -4.7348 F   0  0  0  0  0  0  0  0  0  0  0  0
   -0.7111    0.1908   -1.4697 N   0  0  0  0  0  0  0  0  0  0  0  0
    0.2467    1.0647   -1.7143 N   0  0  0  0  0  0  0  0  0  0  0  0
    5.3166    0.2394    3.7364 H   0  0  0  0  0  0  0  0  0  0  0  0
    3.9436    1.0316    2.9215 H   0  0  0  0  0  0  0  0  0  0  0  0
    3.7567   -0.6835    3.4297 H   0  0  0  0  0  0  0  0  0  0  0  0
    5.3313    0.6285    1.1660 H   0  0  0  0  0  0  0  0  0  0  0  0
    6.0761   -2.0017    2.5819 H   0  0  0  0  0  0  0  0  0  0  0  0
    6.2519   -1.8133    0.8169 H   0  0  0  0  0  0  0  0  0  0  0  0
    7.1480   -0.7315    1.9341 H   0  0  0  0  0  0  0  0  0  0  0  0
    2.1914   -1.9064   -0.7286 H   0  0  0  0  0  0  0  0  0  0  0  0
    1.4206   -1.1721   -2.8024 H   0  0  0  0  0  0  0  0  0  0  0  0
    3.0449   -0.3371   -2.9651 H   0  0  0  0  0  0  0  0  0  0  0  0
    3.1056    2.3461   -2.4924 H   0  0  0  0  0  0  0  0  0  0  0  0
   -1.4670    3.8902   -1.1290 H   0  0  0  0  0  0  0  0  0  0  0  0
   -3.2068    2.1590   -0.6916 H   0  0  0  0  0  0  0  0  0  0  0  0
   -5.0828    0.8388    2.1588 H   0  0  0  0  0  0  0  0  0  0  0  0
   -4.3904    2.0586    4.1102 H   0  0  0  0  0  0  0  0  0  0  0  0
   -0.4013    0.8982    3.5083 H   0  0  0  0  0  0  0  0  0  0  0  0
   -1.0095   -0.3766    1.5004 H   0  0  0  0  0  0  0  0  0  0  0  0
   -5.2907   -2.6654   -1.2364 H   0  0  0  0  0  0  0  0  0  0  0  0
   -3.1273   -0.5176   -3.5574 H   0  0  0  0  0  0  0  0  0  0  0  0
   -4.4455   -1.6867   -3.5202 H   0  0  0  0  0  0  0  0  0  0  0  0
   -2.9536   -3.5644   -2.9353 H   0  0  0  0  0  0  0  0  0  0  0  0
  1  2  1  0
  2  3  1  0
  2  4  1  0
  4  5  1  0
  5  6  2  0
  5  7  1  0
  7  8  1  0
  8  9  1  0
  9 10  2  0
 10 11  1  0
 11 12  2  0
 12 13  1  0
 13 14  2  0
 14 15  1  0
 15 16  1  0
 16 17  2  0
 17 18  1  0
 18 19  2  0
 19 20  1  0
 20 21  2  0
 21 22  1  0
 21 23  1  0
 23 24  2  0
 17 25  1  0
 25 26  2  0
 26 27  1  0
 27 28  1  0
 28 29  1  0
 29 30  1  0
 29 31  1  0
 15 32  2  0
 32 33  1  0
 33  9  1  0
 33 12  1  0
 27 16  1  0
 24 18  1  0
  1 34  1  0
  1 35  1  0
  1 36  1  0
  2 37  1  0
  3 38  1  0
  3 39  1  0
  3 40  1  0
  7 41  1  0
  8 42  1  0
  8 43  1  0
 10 44  1  0
 13 45  1  0
 14 46  1  0
 19 47  1  0
 20 48  1  0
 23 49  1  0
 24 50  1  0
 26 51  1  0
 28 52  1  0
 28 53  1  0
 29 54  1  0
M  END
$$$$
