
     RDKit          3D

 72 75  0  0  0  0  0  0  0  0999 V2000
    5.2656    0.7267    1.1406 C   0  0  0  0  0  0  0  0  0  0  0  0
    5.6978   -0.3293    0.2143 C   0  0  0  0  0  0  0  0  0  0  0  0
    4.9134   -1.2475   -0.4355 C   0  0  0  0  0  0  0  0  0  0  0  0
    3.4687   -1.3801   -0.4594 C   0  0  0  0  0  0  0  0  0  0  0  0
    2.9928   -2.4869   -0.9142 O   0  0  0  0  0  0  0  0  0  0  0  0
    2.5130   -0.4492   -0.0514 N   0  0  0  0  0  0  0  0  0  0  0  0
    1.0916   -0.7243   -0.1274 C   0  0  0  0  0  0  0  0  0  0  0  0
    0.3737   -0.4036   -1.2603 C   0  0  0  0  0  0  0  0  0  0  0  0
   -0.9845   -0.6543   -1.3622 C   0  0  0  0  0  0  0  0  0  0  0  0
   -1.6646   -1.2420   -0.3130 C   0  0  0  0  0  0  0  0  0  0  0  0
   -3.0762   -1.5350   -0.3425 C   0  0  0  0  0  0  0  0  0  0  0  0
   -3.8433   -1.5103    0.7984 C   0  0  0  0  0  0  0  0  0  0  0  0
   -5.1936   -1.7881    0.7849 C   0  0  0  0  0  0  0  0  0  0  0  0
   -5.8135   -2.1009   -0.3887 C   0  0  0  0  0  0  0  0  0  0  0  0
   -7.5170   -2.4630   -0.5387 S   0  0  0  0  0  6  0  0  0  0  0  0
   -7.9815   -3.0069    0.7747 O   0  0  0  0  0  0  0  0  0  0  0  0
   -7.6914   -3.5060   -1.6155 O   0  0  0  0  0  0  0  0  0  0  0  0
   -8.3293   -1.0031   -0.9594 N   0  0  0  0  0  0  0  0  0  0  0  0
   -8.1423   -0.0423    0.0914 C   0  0  2  0  0  0  0  0  0  0  0  0
   -9.4644    0.3470    0.6444 C   0  0  0  0  0  0  0  0  0  0  0  0
   -9.5236    1.1886    1.5864 O   0  0  0  0  0  0  0  0  0  0  0  0
  -10.6115   -0.2070    0.1315 O   0  0  0  0  0  0  0  0  0  0  0  0
   -7.4030    1.1897   -0.4277 C   0  0  0  0  0  0  0  0  0  0  0  0
   -8.2220    1.8102   -1.5313 C   0  0  0  0  0  0  0  0  0  0  0  0
   -7.2552    2.1774    0.7085 C   0  0  0  0  0  0  0  0  0  0  0  0
   -5.0763   -2.1362   -1.5575 C   0  0  0  0  0  0  0  0  0  0  0  0
   -3.7067   -1.8507   -1.5192 C   0  0  0  0  0  0  0  0  0  0  0  0
   -0.9577   -1.5685    0.8279 C   0  0  0  0  0  0  0  0  0  0  0  0
    0.3955   -1.3089    0.9064 C   0  0  0  0  0  0  0  0  0  0  0  0
    5.7595   -2.0431   -1.0881 O   0  0  0  0  0  0  0  0  0  0  0  0
    6.9955   -1.6832   -0.8911 C   0  0  0  0  0  0  0  0  0  0  0  0
    8.2030   -2.2033   -1.3529 C   0  0  0  0  0  0  0  0  0  0  0  0
    9.3754   -1.6013   -0.9663 C   0  0  0  0  0  0  0  0  0  0  0  0
    9.3956   -0.5012   -0.1395 C   0  0  0  0  0  0  0  0  0  0  0  0
   10.9181    0.1883    0.3110 Cl  0  0  0  0  0  0  0  0  0  0  0  0
    8.2046    0.0386    0.3337 C   0  0  0  0  0  0  0  0  0  0  0  0
    8.2373    1.1592    1.1672 O   0  0  0  0  0  0  0  0  0  0  0  0
    8.2790    2.4330    0.5906 C   0  0  0  0  0  0  0  0  0  0  0  0
    7.2320    3.4005    1.0091 C   0  0  0  0  0  0  0  0  0  0  0  0
    9.6379    3.0983    0.8164 C   0  0  0  0  0  0  0  0  0  0  0  0
    7.0473   -0.5733   -0.0572 C   0  0  0  0  0  0  0  0  0  0  0  0
    4.8608    1.6051    0.6243 H   0  0  0  0  0  0  0  0  0  0  0  0
    4.4479    0.3572    1.8379 H   0  0  0  0  0  0  0  0  0  0  0  0
    6.0732    0.9910    1.8740 H   0  0  0  0  0  0  0  0  0  0  0  0
    2.8169    0.4763    0.2998 H   0  0  0  0  0  0  0  0  0  0  0  0
    0.9203    0.0626   -2.0890 H   0  0  0  0  0  0  0  0  0  0  0  0
   -1.5357   -0.3891   -2.2770 H   0  0  0  0  0  0  0  0  0  0  0  0
   -3.3351   -1.2578    1.7307 H   0  0  0  0  0  0  0  0  0  0  0  0
   -5.7583   -1.7636    1.6937 H   0  0  0  0  0  0  0  0  0  0  0  0
   -7.8448   -0.6428   -1.8292 H   0  0  0  0  0  0  0  0  0  0  0  0
   -7.5466   -0.4005    0.9391 H   0  0  0  0  0  0  0  0  0  0  0  0
  -11.5081    0.1830    0.4267 H   0  0  0  0  0  0  0  0  0  0  0  0
   -6.4193    0.8972   -0.8222 H   0  0  0  0  0  0  0  0  0  0  0  0
   -7.9489    1.3789   -2.5070 H   0  0  0  0  0  0  0  0  0  0  0  0
   -9.3007    1.6990   -1.3169 H   0  0  0  0  0  0  0  0  0  0  0  0
   -7.9850    2.9081   -1.5263 H   0  0  0  0  0  0  0  0  0  0  0  0
   -8.1245    2.8661    0.6827 H   0  0  0  0  0  0  0  0  0  0  0  0
   -7.2286    1.6513    1.6951 H   0  0  0  0  0  0  0  0  0  0  0  0
   -6.3338    2.8003    0.5800 H   0  0  0  0  0  0  0  0  0  0  0  0
   -5.5249   -2.3780   -2.5027 H   0  0  0  0  0  0  0  0  0  0  0  0
   -3.1108   -1.8722   -2.4193 H   0  0  0  0  0  0  0  0  0  0  0  0
   -1.4568   -2.0392    1.6902 H   0  0  0  0  0  0  0  0  0  0  0  0
    0.9267   -1.5700    1.8015 H   0  0  0  0  0  0  0  0  0  0  0  0
    8.1405   -3.0635   -1.9981 H   0  0  0  0  0  0  0  0  0  0  0  0
   10.3069   -2.0103   -1.3269 H   0  0  0  0  0  0  0  0  0  0  0  0
    8.2046    2.3038   -0.5278 H   0  0  0  0  0  0  0  0  0  0  0  0
    6.8902    3.2363    2.0732 H   0  0  0  0  0  0  0  0  0  0  0  0
    7.6593    4.4217    1.0087 H   0  0  0  0  0  0  0  0  0  0  0  0
    6.3608    3.4448    0.3229 H   0  0  0  0  0  0  0  0  0  0  0  0
   10.0542    2.6492    1.7374 H   0  0  0  0  0  0  0  0  0  0  0  0
    9.4705    4.1835    1.0783 H   0  0  0  0  0  0  0  0  0  0  0  0
   10.2893    3.0634   -0.0547 H   0  0  0  0  0  0  0  0  0  0  0  0
  1  2  1  0
  2  3  2  0
  3  4  1  0
  4  5  2  0
  4  6  1  0
  6  7  1  0
  7  8  2  0
  8  9  1  0
  9 10  2  0
 10 11  1  0
 11 12  2  0
 12 13  1  0
 13 14  2  0
 14 15  1  0
 15 16  2  0
 15 17  2  0
 15 18  1  0
 18 19  1  0
 19 20  1  0
 20 21  2  0
 20 22  1  0
 19 23  1  0
 23 24  1  0
 23 25  1  0
 14 26  1  0
 26 27  2  0
 10 28  1  0
 28 29  2  0
  3 30  1  0
 30 31  1  0
 31 32  2  0
 32 33  1  0
 33 34  2  0
 34 35  1  0
 34 36  1  0
 36 37  1  0
 37 38  1  0
 38 39  1  0
 38 40  1  0
 36 41  2  0
 41  2  1  0
 29  7  1  0
 41 31  1  0
 27 11  1  0
  1 42  1  0
  1 43  1  0
  1 44  1  0
  6 45  1  0
  8 46  1  0
  9 47  1  0
 12 48  1  0
 13 49  1  0
 18 50  1  0
 19 51  1  1
 22 52  1  0
 23 53  1  0
 24 54  1  0
 24 55  1  0
 24 56  1  0
 25 57  1  0
 25 58  1  0
 25 59  1  0
 26 60  1  0
 27 61  1  0
 28 62  1  0
 29 63  1  0
 32 64  1  0
 33 65  1  0
 38 66  1  0
 39 67  1  0
 39 68  1  0
 39 69  1  0
 40 70  1  0
 40 71  1  0
 40 72  1  0
M  END
$$$$
