
     RDKit          3D

 49 52  0  0  0  0  0  0  0  0999 V2000
    6.2383    0.6515   -0.1647 C   0  0  0  0  0  0  0  0  0  0  0  0
    4.8952    1.1523    0.0295 N   0  0  0  0  0  0  0  0  0  0  0  0
    4.1571    1.1125   -1.2218 C   0  0  0  0  0  0  0  0  0  0  0  0
    2.6811    0.8318   -0.9768 C   0  0  0  0  0  0  0  0  0  0  0  0
    2.4814   -0.4561   -0.3868 N   0  0  0  0  0  0  0  0  0  0  0  0
    1.3826   -0.5128    0.5571 C   0  0  0  0  0  0  0  0  0  0  0  0
    0.0372   -0.3390   -0.1631 C   0  0  0  0  0  0  0  0  0  0  0  0
   -1.0158   -0.4123    0.8944 C   0  0  0  0  0  0  0  0  0  0  0  0
   -2.3712   -0.2563    0.4173 N   0  0  0  0  0  0  0  0  0  0  0  0
   -2.8051    1.0309    0.0710 C   0  0  0  0  0  0  0  0  0  0  0  0
   -1.9792    2.1232    0.2373 C   0  0  0  0  0  0  0  0  0  0  0  0
   -2.3120    3.4461   -0.0598 C   0  0  0  0  0  0  0  0  0  0  0  0
   -3.5679    3.7085   -0.5630 C   0  0  0  0  0  0  0  0  0  0  0  0
   -4.4312    2.6552   -0.7475 C   0  0  0  0  0  0  0  0  0  0  0  0
   -4.0123    1.3932   -0.4263 C   0  0  0  0  0  0  0  0  0  0  0  0
   -5.2536    0.1465   -0.7124 S   0  0  0  0  0  0  0  0  0  0  0  0
   -4.5158   -1.3926   -0.2033 C   0  0  0  0  0  0  0  0  0  0  0  0
   -3.2260   -1.3781    0.2673 C   0  0  0  0  0  0  0  0  0  0  0  0
   -2.7834   -2.6356    0.6121 C   0  0  0  0  0  0  0  0  0  0  0  0
   -3.5350   -3.7903    0.5051 C   0  0  0  0  0  0  0  0  0  0  0  0
   -2.9819   -5.3929    0.9407 Cl  0  0  0  0  0  0  0  0  0  0  0  0
   -4.8368   -3.7109    0.0168 C   0  0  0  0  0  0  0  0  0  0  0  0
   -5.3173   -2.4687   -0.3402 C   0  0  0  0  0  0  0  0  0  0  0  0
    3.6832   -0.9077    0.3076 C   0  0  0  0  0  0  0  0  0  0  0  0
    4.2597    0.2873    1.0278 C   0  0  0  0  0  0  0  0  0  0  0  0
    6.9272    1.3945   -0.6152 H   0  0  0  0  0  0  0  0  0  0  0  0
    6.1694   -0.2504   -0.7910 H   0  0  0  0  0  0  0  0  0  0  0  0
    6.6070    0.3230    0.8444 H   0  0  0  0  0  0  0  0  0  0  0  0
    4.5772    0.3357   -1.8948 H   0  0  0  0  0  0  0  0  0  0  0  0
    4.2167    2.0761   -1.7690 H   0  0  0  0  0  0  0  0  0  0  0  0
    2.2268    0.7998   -2.0038 H   0  0  0  0  0  0  0  0  0  0  0  0
    2.2562    1.6812   -0.4312 H   0  0  0  0  0  0  0  0  0  0  0  0
    1.3973   -1.4704    1.0844 H   0  0  0  0  0  0  0  0  0  0  0  0
    1.5162    0.2835    1.3161 H   0  0  0  0  0  0  0  0  0  0  0  0
   -0.0729   -1.1425   -0.9314 H   0  0  0  0  0  0  0  0  0  0  0  0
    0.1096    0.5924   -0.7357 H   0  0  0  0  0  0  0  0  0  0  0  0
   -0.8267   -1.3347    1.4735 H   0  0  0  0  0  0  0  0  0  0  0  0
   -0.7784    0.3995    1.6620 H   0  0  0  0  0  0  0  0  0  0  0  0
   -0.9782    2.0845    0.6316 H   0  0  0  0  0  0  0  0  0  0  0  0
   -1.6620    4.2957    0.0717 H   0  0  0  0  0  0  0  0  0  0  0  0
   -3.8587    4.7217   -0.8040 H   0  0  0  0  0  0  0  0  0  0  0  0
   -5.4041    2.9121   -1.1438 H   0  0  0  0  0  0  0  0  0  0  0  0
   -1.8237   -2.8673    0.9910 H   0  0  0  0  0  0  0  0  0  0  0  0
   -5.4553   -4.5915   -0.0814 H   0  0  0  0  0  0  0  0  0  0  0  0
   -6.3311   -2.4389   -0.7163 H   0  0  0  0  0  0  0  0  0  0  0  0
    4.4348   -1.3010   -0.4043 H   0  0  0  0  0  0  0  0  0  0  0  0
    3.3700   -1.6878    1.0407 H   0  0  0  0  0  0  0  0  0  0  0  0
    5.0462   -0.0538    1.7519 H   0  0  0  0  0  0  0  0  0  0  0  0
    3.4650    0.8325    1.5363 H   0  0  0  0  0  0  0  0  0  0  0  0
  1  2  1  0
  2  3  1  0
  3  4  1  0
  4  5  1  0
  5  6  1  0
  6  7  1  0
  7  8  1  0
  8  9  1  0
  9 10  1  0
 10 11  2  0
 11 12  1  0
 12 13  2  0
 13 14  1  0
 14 15  2  0
 15 16  1  0
 16 17  1  0
 17 18  2  0
 18 19  1  0
 19 20  2  0
 20 21  1  0
 20 22  1  0
 22 23  2  0
  5 24  1  0
 24 25  1  0
 25  2  1  0
 18  9  1  0
 15 10  1  0
 23 17  1  0
  1 26  1  0
  1 27  1  0
  1 28  1  0
  3 29  1  0
  3 30  1  0
  4 31  1  0
  4 32  1  0
  6 33  1  0
  6 34  1  0
  7 35  1  0
  7 36  1  0
  8 37  1  0
  8 38  1  0
 11 39  1  0
 12 40  1  0
 13 41  1  0
 14 42  1  0
 19 43  1  0
 22 44  1  0
 23 45  1  0
 24 46  1  0
 24 47  1  0
 25 48  1  0
 25 49  1  0
M  END
$$$$
