
     RDKit          3D

 52 56  0  0  0  0  0  0  0  0999 V2000
   -6.5467   -2.6787    1.7520 F   0  0  0  0  0  0  0  0  0  0  0  0
   -5.5254   -1.8422    1.2846 C   0  0  0  0  0  0  0  0  0  0  0  0
   -4.5611   -2.6956    0.7286 F   0  0  0  0  0  0  0  0  0  0  0  0
   -5.0249   -1.1770    2.3511 F   0  0  0  0  0  0  0  0  0  0  0  0
   -6.0091   -0.9982    0.1731 C   0  0  0  0  0  0  0  0  0  0  0  0
   -7.3476   -1.1741   -0.2223 C   0  0  0  0  0  0  0  0  0  0  0  0
   -7.8427   -0.4407   -1.2740 C   0  0  0  0  0  0  0  0  0  0  0  0
   -7.0161    0.4525   -1.9196 C   0  0  0  0  0  0  0  0  0  0  0  0
   -5.7051    0.6180   -1.5236 C   0  0  0  0  0  0  0  0  0  0  0  0
   -5.1902   -0.1233   -0.4531 C   0  0  0  0  0  0  0  0  0  0  0  0
   -3.8269    0.1068   -0.0505 C   0  0  0  0  0  0  0  0  0  0  0  0
   -3.5042    0.7846    1.0996 C   0  0  0  0  0  0  0  0  0  0  0  0
   -2.1813    0.9818    1.4987 C   0  0  0  0  0  0  0  0  0  0  0  0
   -1.8371    1.7149    2.7445 C   0  0  0  0  0  0  0  0  0  0  0  0
   -1.0697    2.8030    2.3653 F   0  0  0  0  0  0  0  0  0  0  0  0
   -2.9526    2.0876    3.4503 F   0  0  0  0  0  0  0  0  0  0  0  0
   -1.0504    0.9500    3.5838 F   0  0  0  0  0  0  0  0  0  0  0  0
   -1.1436    0.4955    0.7382 C   0  0  0  0  0  0  0  0  0  0  0  0
    0.2047    0.5137    0.8382 N   0  0  0  0  0  0  0  0  0  0  0  0
    0.7605   -0.1217   -0.1974 C   0  0  0  0  0  0  0  0  0  0  0  0
    2.2143   -0.2911   -0.4063 C   0  0  0  0  0  0  0  0  0  0  0  0
    2.7856   -1.2273   -1.0441 N   0  0  0  0  0  0  0  0  0  0  0  0
    4.1567   -1.0787   -1.0440 O   0  0  0  0  0  0  0  0  0  0  0  0
    4.5450    0.0112   -0.2427 C   0  0  0  0  0  0  0  0  0  0  0  0
    5.3919    1.0120   -0.9586 C   0  0  0  0  0  0  0  0  0  0  0  0
    6.8455    0.8319   -0.5724 C   0  0  0  0  0  0  0  0  0  0  0  0
    7.1916   -0.6350   -0.4209 C   0  0  0  0  0  0  0  0  0  0  0  0
    6.4705   -1.2491    0.7457 C   0  0  0  0  0  0  0  0  0  0  0  0
    5.2279   -0.4366    1.0347 C   0  0  0  0  0  0  0  0  0  0  0  0
    3.2425    0.6454    0.1211 C   0  0  0  0  0  0  0  0  0  0  0  0
   -0.2381   -0.5551   -0.9750 N   0  0  0  0  0  0  0  0  0  0  0  0
   -1.4319   -0.1876   -0.4210 C   0  0  0  0  0  0  0  0  0  0  0  0
   -2.7434   -0.3721   -0.7973 C   0  0  0  0  0  0  0  0  0  0  0  0
   -7.9755   -1.8794    0.2985 H   0  0  0  0  0  0  0  0  0  0  0  0
   -8.8774   -0.5532   -1.6062 H   0  0  0  0  0  0  0  0  0  0  0  0
   -7.4426    1.0138   -2.7464 H   0  0  0  0  0  0  0  0  0  0  0  0
   -5.0511    1.3179   -2.0268 H   0  0  0  0  0  0  0  0  0  0  0  0
   -4.2667    1.2138    1.7343 H   0  0  0  0  0  0  0  0  0  0  0  0
    0.6971    0.9807    1.6459 H   0  0  0  0  0  0  0  0  0  0  0  0
    5.0960    2.0333   -0.5830 H   0  0  0  0  0  0  0  0  0  0  0  0
    5.2402    1.0376   -2.0435 H   0  0  0  0  0  0  0  0  0  0  0  0
    7.4549    1.2696   -1.3773 H   0  0  0  0  0  0  0  0  0  0  0  0
    7.0432    1.3028    0.4218 H   0  0  0  0  0  0  0  0  0  0  0  0
    6.9482   -1.2275   -1.3238 H   0  0  0  0  0  0  0  0  0  0  0  0
    8.2869   -0.6832   -0.2125 H   0  0  0  0  0  0  0  0  0  0  0  0
    7.1209   -1.2657    1.6439 H   0  0  0  0  0  0  0  0  0  0  0  0
    6.1575   -2.2913    0.5576 H   0  0  0  0  0  0  0  0  0  0  0  0
    4.5287   -0.9579    1.7249 H   0  0  0  0  0  0  0  0  0  0  0  0
    5.5587    0.4842    1.5594 H   0  0  0  0  0  0  0  0  0  0  0  0
    3.1060    0.7649    1.2191 H   0  0  0  0  0  0  0  0  0  0  0  0
    3.0682    1.6284   -0.3686 H   0  0  0  0  0  0  0  0  0  0  0  0
   -2.9820   -0.9137   -1.7168 H   0  0  0  0  0  0  0  0  0  0  0  0
  1  2  1  0
  2  3  1  0
  2  4  1  0
  2  5  1  0
  5  6  2  0
  6  7  1  0
  7  8  2  0
  8  9  1  0
  9 10  2  0
 10 11  1  0
 11 12  2  0
 12 13  1  0
 13 14  1  0
 14 15  1  0
 14 16  1  0
 14 17  1  0
 13 18  2  0
 18 19  1  0
 19 20  1  0
 20 21  1  0
 21 22  2  0
 22 23  1  0
 23 24  1  0
 24 25  1  0
 25 26  1  0
 26 27  1  0
 27 28  1  0
 28 29  1  0
 24 30  1  0
 20 31  2  0
 31 32  1  0
 32 33  2  0
 10  5  1  0
 33 11  1  0
 32 18  1  0
 30 21  1  0
 29 24  1  0
  6 34  1  0
  7 35  1  0
  8 36  1  0
  9 37  1  0
 12 38  1  0
 19 39  1  0
 25 40  1  0
 25 41  1  0
 26 42  1  0
 26 43  1  0
 27 44  1  0
 27 45  1  0
 28 46  1  0
 28 47  1  0
 29 48  1  0
 29 49  1  0
 30 50  1  0
 30 51  1  0
 33 52  1  0
M  END
$$$$
