
     RDKit          3D

 29 30  0  0  0  0  0  0  0  0999 V2000
    6.1880   -0.2288   -0.1255 O   0  0  0  0  0  0  0  0  0  0  0  0
    4.7953   -0.2018   -0.2250 C   0  0  0  0  0  0  0  0  0  0  0  0
    4.0204   -0.0220    0.8977 C   0  0  0  0  0  0  0  0  0  0  0  0
    2.6195    0.0070    0.8106 C   0  0  0  0  0  0  0  0  0  0  0  0
    1.9729   -0.1411   -0.3841 C   0  0  0  0  0  0  0  0  0  0  0  0
    0.5219   -0.1201   -0.5389 C   0  0  0  0  0  0  0  0  0  0  0  0
   -0.2919    0.0455    0.4744 C   0  0  0  0  0  0  0  0  0  0  0  0
   -1.7378    0.0712    0.3545 C   0  0  0  0  0  0  0  0  0  0  0  0
   -2.5290    0.2523    1.4843 C   0  0  0  0  0  0  0  0  0  0  0  0
   -3.9026    0.2785    1.3828 C   0  0  0  0  0  0  0  0  0  0  0  0
   -4.6397    0.4623    2.5425 O   0  0  0  0  0  0  0  0  0  0  0  0
   -4.5369    0.1261    0.1590 C   0  0  0  0  0  0  0  0  0  0  0  0
   -3.7802   -0.0539   -0.9695 C   0  0  0  0  0  0  0  0  0  0  0  0
   -4.3865   -0.2108   -2.2196 O   0  0  0  0  0  0  0  0  0  0  0  0
   -2.3958   -0.0768   -0.8419 C   0  0  0  0  0  0  0  0  0  0  0  0
    2.7699   -0.3233   -1.5200 C   0  0  0  0  0  0  0  0  0  0  0  0
    4.1452   -0.3513   -1.4309 C   0  0  0  0  0  0  0  0  0  0  0  0
    6.6394    0.5462    0.3825 H   0  0  0  0  0  0  0  0  0  0  0  0
    4.5034    0.0982    1.8587 H   0  0  0  0  0  0  0  0  0  0  0  0
    2.0561    0.1499    1.7147 H   0  0  0  0  0  0  0  0  0  0  0  0
    0.0704   -0.2456   -1.5314 H   0  0  0  0  0  0  0  0  0  0  0  0
    0.0936    0.1759    1.4885 H   0  0  0  0  0  0  0  0  0  0  0  0
   -2.0379    0.3703    2.4311 H   0  0  0  0  0  0  0  0  0  0  0  0
   -4.7613    1.4274    2.8517 H   0  0  0  0  0  0  0  0  0  0  0  0
   -5.6072    0.1443    0.0644 H   0  0  0  0  0  0  0  0  0  0  0  0
   -4.9623   -1.0244   -2.4049 H   0  0  0  0  0  0  0  0  0  0  0  0
   -1.8494   -0.2228   -1.7720 H   0  0  0  0  0  0  0  0  0  0  0  0
    2.2539   -0.4402   -2.4638 H   0  0  0  0  0  0  0  0  0  0  0  0
    4.7684   -0.4922   -2.3075 H   0  0  0  0  0  0  0  0  0  0  0  0
  1  2  1  0
  2  3  2  0
  3  4  1  0
  4  5  2  0
  5  6  1  0
  6  7  2  0
  7  8  1  0
  8  9  2  0
  9 10  1  0
 10 11  1  0
 10 12  2  0
 12 13  1  0
 13 14  1  0
 13 15  2  0
  5 16  1  0
 16 17  2  0
 17  2  1  0
 15  8  1  0
  1 18  1  0
  3 19  1  0
  4 20  1  0
  6 21  1  0
  7 22  1  0
  9 23  1  0
 11 24  1  0
 12 25  1  0
 14 26  1  0
 15 27  1  0
 16 28  1  0
 17 29  1  0
M  END
$$$$
