
     RDKit          3D

 49 51  0  0  0  0  0  0  0  0999 V2000
    7.5818    0.5000   -0.9519 C   0  0  0  0  0  0  0  0  0  0  0  0
    7.4327   -0.9739   -0.6829 C   0  0  0  0  0  0  0  0  0  0  0  0
    6.3702   -1.2193    0.2065 O   0  0  0  0  0  0  0  0  0  0  0  0
    5.0501   -0.8793   -0.0366 C   0  0  0  0  0  0  0  0  0  0  0  0
    4.5982   -0.2589   -1.1808 C   0  0  0  0  0  0  0  0  0  0  0  0
    3.2396    0.0389   -1.3202 C   0  0  0  0  0  0  0  0  0  0  0  0
    2.3182   -0.2689   -0.3419 C   0  0  0  0  0  0  0  0  0  0  0  0
    0.9635    0.0406   -0.5077 C   0  0  0  0  0  0  0  0  0  0  0  0
    0.0739   -0.2777    0.4836 C   0  0  0  0  0  0  0  0  0  0  0  0
   -1.3506    0.0360    0.3996 C   0  0  0  0  0  0  0  0  0  0  0  0
   -2.3773   -0.8380    0.5710 N   0  0  0  0  0  0  0  0  0  0  0  0
   -3.5410   -0.2344    0.4467 N   0  0  0  0  0  0  0  0  0  0  0  0
   -4.8795   -0.7871    0.5523 C   0  0  0  0  0  0  0  0  0  0  0  0
   -5.5376   -0.8863   -0.8038 C   0  0  0  0  0  0  0  0  0  0  0  0
   -5.7598    0.0956    1.4274 C   0  0  0  0  0  0  0  0  0  0  0  0
   -4.8637   -2.1729    1.1550 C   0  0  0  0  0  0  0  0  0  0  0  0
   -3.3128    1.0624    0.1890 C   0  0  0  0  0  0  0  0  0  0  0  0
   -4.2589    2.1013   -0.0221 N   0  0  0  0  0  0  0  0  0  0  0  0
   -1.9202    1.2639    0.1544 C   0  0  0  0  0  0  0  0  0  0  0  0
   -1.2903    2.5528   -0.0797 C   0  0  0  0  0  0  0  0  0  0  0  0
    0.1076    2.7161   -0.0239 N   0  0  0  0  0  0  0  0  0  0  0  0
   -1.9783    3.5705   -0.3383 O   0  0  0  0  0  0  0  0  0  0  0  0
    0.5521   -0.8978    1.6161 C   0  0  0  0  0  0  0  0  0  0  0  0
    1.8719   -1.1931    1.7634 N   0  0  0  0  0  0  0  0  0  0  0  0
    2.7656   -0.8904    0.8057 C   0  0  0  0  0  0  0  0  0  0  0  0
    4.1141   -1.1827    0.9375 C   0  0  0  0  0  0  0  0  0  0  0  0
    7.5821    0.7170   -2.0501 H   0  0  0  0  0  0  0  0  0  0  0  0
    6.7808    1.0952   -0.4319 H   0  0  0  0  0  0  0  0  0  0  0  0
    8.5410    0.8657   -0.4972 H   0  0  0  0  0  0  0  0  0  0  0  0
    7.3161   -1.5446   -1.6307 H   0  0  0  0  0  0  0  0  0  0  0  0
    8.3686   -1.3363   -0.2093 H   0  0  0  0  0  0  0  0  0  0  0  0
    5.3063   -0.0154   -1.9518 H   0  0  0  0  0  0  0  0  0  0  0  0
    2.8768    0.5252   -2.2138 H   0  0  0  0  0  0  0  0  0  0  0  0
    0.6840    0.5079   -1.4401 H   0  0  0  0  0  0  0  0  0  0  0  0
   -6.0442    0.0353   -1.1008 H   0  0  0  0  0  0  0  0  0  0  0  0
   -4.8247   -1.2521   -1.5787 H   0  0  0  0  0  0  0  0  0  0  0  0
   -6.3210   -1.6930   -0.7372 H   0  0  0  0  0  0  0  0  0  0  0  0
   -6.2559    0.8340    0.7415 H   0  0  0  0  0  0  0  0  0  0  0  0
   -5.1110    0.6180    2.1681 H   0  0  0  0  0  0  0  0  0  0  0  0
   -6.5032   -0.5557    1.9016 H   0  0  0  0  0  0  0  0  0  0  0  0
   -4.4410   -2.9374    0.5047 H   0  0  0  0  0  0  0  0  0  0  0  0
   -5.9386   -2.4464    1.3265 H   0  0  0  0  0  0  0  0  0  0  0  0
   -4.3852   -2.0897    2.1502 H   0  0  0  0  0  0  0  0  0  0  0  0
   -4.6898    2.6535    0.7430 H   0  0  0  0  0  0  0  0  0  0  0  0
   -4.5152    2.2963   -1.0202 H   0  0  0  0  0  0  0  0  0  0  0  0
    0.6191    2.9922   -0.8964 H   0  0  0  0  0  0  0  0  0  0  0  0
    0.6356    2.5625    0.8860 H   0  0  0  0  0  0  0  0  0  0  0  0
   -0.0892   -1.1820    2.4441 H   0  0  0  0  0  0  0  0  0  0  0  0
    4.4390   -1.6681    1.8427 H   0  0  0  0  0  0  0  0  0  0  0  0
  1  2  1  0
  2  3  1  0
  3  4  1  0
  4  5  2  0
  5  6  1  0
  6  7  2  0
  7  8  1  0
  8  9  2  0
  9 10  1  0
 10 11  2  0
 11 12  1  0
 12 13  1  0
 13 14  1  0
 13 15  1  0
 13 16  1  0
 12 17  1  0
 17 18  1  0
 17 19  2  0
 19 20  1  0
 20 21  1  0
 20 22  2  0
  9 23  1  0
 23 24  2  0
 24 25  1  0
 25 26  2  0
 26  4  1  0
 25  7  1  0
 19 10  1  0
  1 27  1  0
  1 28  1  0
  1 29  1  0
  2 30  1  0
  2 31  1  0
  5 32  1  0
  6 33  1  0
  8 34  1  0
 14 35  1  0
 14 36  1  0
 14 37  1  0
 15 38  1  0
 15 39  1  0
 15 40  1  0
 16 41  1  0
 16 42  1  0
 16 43  1  0
 18 44  1  0
 18 45  1  0
 21 46  1  0
 21 47  1  0
 23 48  1  0
 26 49  1  0
M  END
$$$$
