
     RDKit          3D

 59 61  0  0  0  0  0  0  0  0999 V2000
   -4.1344    1.0921    1.8958 N   0  0  0  0  0  0  0  0  0  0  0  0
   -4.1572    0.5687    0.5662 C   0  0  0  0  0  0  0  0  0  0  0  0
   -3.1144   -0.0478   -0.0864 C   0  0  0  0  0  0  0  0  0  0  0  0
   -1.7681   -0.2953    0.4361 C   0  0  0  0  0  0  0  0  0  0  0  0
   -1.4124    0.0552    1.5816 O   0  0  0  0  0  0  0  0  0  0  0  0
   -0.8428   -0.9728   -0.4347 N   0  0  0  0  0  0  0  0  0  0  0  0
    0.5084   -1.2510    0.0092 C   0  0  0  0  0  0  0  0  0  0  0  0
    1.3259   -1.9770   -0.9958 C   0  0  0  0  0  0  0  0  0  0  0  0
    1.4312   -1.2756   -2.2010 O   0  0  0  0  0  0  0  0  0  0  0  0
    2.6956   -2.2825   -0.4395 C   0  0  0  0  0  0  0  0  0  0  0  0
    3.5070   -1.1254   -0.1301 N   0  0  0  0  0  0  0  0  0  0  0  0
    3.5358   -0.7400    1.2765 C   0  0  0  0  0  0  0  0  0  0  0  0
    4.6043   -1.5753    2.0150 C   0  0  0  0  0  0  0  0  0  0  0  0
    5.8257   -1.3390    1.4445 O   0  0  0  0  0  0  0  0  0  0  0  0
    4.2809   -0.4799   -1.1335 C   0  0  0  0  0  0  0  0  0  0  0  0
    4.2631   -0.9538   -2.3026 O   0  0  0  0  0  0  0  0  0  0  0  0
    5.0830    0.6880   -0.8895 C   0  0  0  0  0  0  0  0  0  0  0  0
    4.5079    1.9023   -0.5571 C   0  0  0  0  0  0  0  0  0  0  0  0
    3.1626    1.9576   -0.4720 F   0  0  0  0  0  0  0  0  0  0  0  0
    5.3124    3.0074   -0.3404 C   0  0  0  0  0  0  0  0  0  0  0  0
    6.6870    2.9549   -0.4426 C   0  0  0  0  0  0  0  0  0  0  0  0
    7.2526    1.7294   -0.7782 C   0  0  0  0  0  0  0  0  0  0  0  0
    6.4631    0.6213   -0.9963 C   0  0  0  0  0  0  0  0  0  0  0  0
    7.0031   -0.5901   -1.3309 F   0  0  0  0  0  0  0  0  0  0  0  0
    0.7082   -3.3216   -1.2977 C   0  0  0  0  0  0  0  0  0  0  0  0
   -0.5456   -3.3012   -1.7972 F   0  0  0  0  0  0  0  0  0  0  0  0
    0.7158   -4.0185   -0.0803 F   0  0  0  0  0  0  0  0  0  0  0  0
    1.5360   -4.0575   -2.1398 F   0  0  0  0  0  0  0  0  0  0  0  0
   -3.6184   -0.3671   -1.3279 C   0  0  0  0  0  0  0  0  0  0  0  0
   -4.8915    0.0492   -1.3794 N   0  0  0  0  0  0  0  0  0  0  0  0
   -5.2466    0.6274   -0.2279 N   0  0  0  0  0  0  0  0  0  0  0  0
   -6.5113    1.1875    0.0959 C   0  0  0  0  0  0  0  0  0  0  0  0
   -7.5869    0.3406    0.3624 C   0  0  0  0  0  0  0  0  0  0  0  0
   -8.8227    0.8618    0.6766 C   0  0  0  0  0  0  0  0  0  0  0  0
   -9.0763    2.2145    0.7476 C   0  0  0  0  0  0  0  0  0  0  0  0
  -10.2945    2.7157    1.0573 F   0  0  0  0  0  0  0  0  0  0  0  0
   -8.0027    3.0631    0.4818 C   0  0  0  0  0  0  0  0  0  0  0  0
   -6.7635    2.5380    0.1668 C   0  0  0  0  0  0  0  0  0  0  0  0
   -3.7302    2.0233    2.1464 H   0  0  0  0  0  0  0  0  0  0  0  0
   -4.5356    0.5455    2.6957 H   0  0  0  0  0  0  0  0  0  0  0  0
   -1.1699   -1.2389   -1.3793 H   0  0  0  0  0  0  0  0  0  0  0  0
    0.4465   -1.7508    0.9870 H   0  0  0  0  0  0  0  0  0  0  0  0
    1.0245   -0.2541    0.1716 H   0  0  0  0  0  0  0  0  0  0  0  0
    0.9278   -0.4343   -2.1645 H   0  0  0  0  0  0  0  0  0  0  0  0
    2.6636   -2.9317    0.4513 H   0  0  0  0  0  0  0  0  0  0  0  0
    3.2966   -2.8590   -1.2059 H   0  0  0  0  0  0  0  0  0  0  0  0
    2.5488   -0.9486    1.7342 H   0  0  0  0  0  0  0  0  0  0  0  0
    3.8083    0.2908    1.4670 H   0  0  0  0  0  0  0  0  0  0  0  0
    4.2660   -2.6254    1.8749 H   0  0  0  0  0  0  0  0  0  0  0  0
    4.5967   -1.3151    3.0847 H   0  0  0  0  0  0  0  0  0  0  0  0
    6.0466   -2.0105    0.7360 H   0  0  0  0  0  0  0  0  0  0  0  0
    4.8046    3.9311   -0.0838 H   0  0  0  0  0  0  0  0  0  0  0  0
    7.3132    3.8193   -0.2722 H   0  0  0  0  0  0  0  0  0  0  0  0
    8.3421    1.6348   -0.8718 H   0  0  0  0  0  0  0  0  0  0  0  0
   -3.0360   -0.8733   -2.1044 H   0  0  0  0  0  0  0  0  0  0  0  0
   -7.4082   -0.7249    0.3112 H   0  0  0  0  0  0  0  0  0  0  0  0
   -9.6763    0.2079    0.8865 H   0  0  0  0  0  0  0  0  0  0  0  0
   -8.2068    4.1121    0.5398 H   0  0  0  0  0  0  0  0  0  0  0  0
   -5.9425    3.1982   -0.0367 H   0  0  0  0  0  0  0  0  0  0  0  0
  1  2  1  0
  2  3  2  0
  3  4  1  0
  4  5  2  0
  4  6  1  0
  6  7  1  0
  7  8  1  0
  8  9  1  0
  8 10  1  0
 10 11  1  0
 11 12  1  0
 12 13  1  0
 13 14  1  0
 11 15  1  0
 15 16  2  0
 15 17  1  0
 17 18  2  0
 18 19  1  0
 18 20  1  0
 20 21  2  0
 21 22  1  0
 22 23  2  0
 23 24  1  0
  8 25  1  0
 25 26  1  0
 25 27  1  0
 25 28  1  0
  3 29  1  0
 29 30  2  0
 30 31  1  0
 31 32  1  0
 32 33  2  0
 33 34  1  0
 34 35  2  0
 35 36  1  0
 35 37  1  0
 37 38  2  0
 31  2  1  0
 38 32  1  0
 23 17  1  0
  1 39  1  0
  1 40  1  0
  6 41  1  0
  7 42  1  0
  7 43  1  0
  9 44  1  0
 10 45  1  0
 10 46  1  0
 12 47  1  0
 12 48  1  0
 13 49  1  0
 13 50  1  0
 14 51  1  0
 20 52  1  0
 21 53  1  0
 22 54  1  0
 29 55  1  0
 33 56  1  0
 34 57  1  0
 37 58  1  0
 38 59  1  0
M  END
$$$$
