
     RDKit          3D

 38 40  0  0  0  0  0  0  0  0999 V2000
   -4.7699    0.3726   -2.5907 C   0  0  0  0  0  0  0  0  0  0  0  0
   -3.9977   -0.7775   -2.4485 O   0  0  0  0  0  0  0  0  0  0  0  0
   -2.6341   -0.7672   -2.1089 C   0  0  0  0  0  0  0  0  0  0  0  0
   -1.8847   -1.9014   -1.9712 C   0  0  0  0  0  0  0  0  0  0  0  0
   -0.5272   -1.8462   -1.6320 C   0  0  0  0  0  0  0  0  0  0  0  0
    0.0972   -0.6480   -1.4251 C   0  0  0  0  0  0  0  0  0  0  0  0
   -0.6584    0.5102   -1.5633 C   0  0  0  0  0  0  0  0  0  0  0  0
   -1.9894    0.4518   -1.8968 C   0  0  0  0  0  0  0  0  0  0  0  0
    0.0911    1.7818   -1.3198 C   0  0  0  0  0  0  0  0  0  0  0  0
    0.9003    1.6016   -0.0605 C   0  0  0  0  0  0  0  0  0  0  0  0
    2.0356    0.5909   -0.3473 C   0  0  0  0  0  0  0  0  0  0  0  0
    2.8767    0.4147    0.8600 C   0  0  0  0  0  0  0  0  0  0  0  0
    2.1771   -0.0585    2.0840 C   0  0  0  0  0  0  0  0  0  0  0  0
    1.6066    0.9159    2.9349 C   0  0  0  0  0  0  0  0  0  0  0  0
    0.8997    0.5215    4.0399 C   0  0  0  0  0  0  0  0  0  0  0  0
    0.7008   -0.7971    4.3897 C   0  0  0  0  0  0  0  0  0  0  0  0
    1.2504   -1.7526    3.5720 C   0  0  0  0  0  0  0  0  0  0  0  0
    1.9775   -1.3627    2.4371 C   0  0  0  0  0  0  0  0  0  0  0  0
    2.7746   -2.7665    1.4173 Br  0  0  0  0  0  0  0  0  0  0  0  0
    1.5375   -0.5238   -1.0926 C   0  0  0  0  0  0  0  0  0  0  0  0
    2.2422   -1.4921   -1.5434 O   0  0  0  0  0  0  0  0  0  0  0  0
   -4.5433    1.0628   -1.7493 H   0  0  0  0  0  0  0  0  0  0  0  0
   -5.8415    0.0988   -2.6508 H   0  0  0  0  0  0  0  0  0  0  0  0
   -4.4490    0.9116   -3.5222 H   0  0  0  0  0  0  0  0  0  0  0  0
   -2.3400   -2.8571   -2.1249 H   0  0  0  0  0  0  0  0  0  0  0  0
    0.0385   -2.7595   -1.5295 H   0  0  0  0  0  0  0  0  0  0  0  0
   -2.5558    1.3594   -2.0005 H   0  0  0  0  0  0  0  0  0  0  0  0
   -0.6630    2.5773   -1.1979 H   0  0  0  0  0  0  0  0  0  0  0  0
    0.7512    1.9197   -2.2154 H   0  0  0  0  0  0  0  0  0  0  0  0
    1.3598    2.5241    0.3036 H   0  0  0  0  0  0  0  0  0  0  0  0
    0.2258    1.0949    0.6833 H   0  0  0  0  0  0  0  0  0  0  0  0
    2.6910    1.1994   -1.0933 H   0  0  0  0  0  0  0  0  0  0  0  0
    3.4870    1.3289    1.0565 H   0  0  0  0  0  0  0  0  0  0  0  0
    3.6549   -0.3731    0.6397 H   0  0  0  0  0  0  0  0  0  0  0  0
    1.7754    1.9562    2.6476 H   0  0  0  0  0  0  0  0  0  0  0  0
    0.4725    1.3207    4.6679 H   0  0  0  0  0  0  0  0  0  0  0  0
    0.1174   -1.0347    5.2867 H   0  0  0  0  0  0  0  0  0  0  0  0
    1.1131   -2.7971    3.8162 H   0  0  0  0  0  0  0  0  0  0  0  0
  1  2  1  0
  2  3  1  0
  3  4  2  0
  4  5  1  0
  5  6  2  0
  6  7  1  0
  7  8  2  0
  7  9  1  0
  9 10  1  0
 10 11  1  0
 11 12  1  0
 12 13  1  0
 13 14  2  0
 14 15  1  0
 15 16  2  0
 16 17  1  0
 17 18  2  0
 18 19  1  0
 11 20  1  0
 20 21  2  0
  8  3  1  0
 18 13  1  0
 20  6  1  0
  1 22  1  0
  1 23  1  0
  1 24  1  0
  4 25  1  0
  5 26  1  0
  8 27  1  0
  9 28  1  0
  9 29  1  0
 10 30  1  0
 10 31  1  0
 11 32  1  0
 12 33  1  0
 12 34  1  0
 14 35  1  0
 15 36  1  0
 16 37  1  0
 17 38  1  0
M  END
$$$$
