
     RDKit          3D

 69 70  0  0  0  0  0  0  0  0999 V2000
    1.3029    1.7501   -0.7491 C   0  0  2  0  0  0  0  0  0  0  0  0
    1.8085    2.9644   -1.2269 O   0  0  0  0  0  0  0  0  0  0  0  0
    2.5383    0.8880   -0.4716 C   0  0  0  0  0  0  0  0  0  0  0  0
    3.4288    1.5282    0.5404 C   0  0  0  0  0  0  0  0  0  0  0  0
    4.6629    0.6579    0.8119 C   0  0  0  0  0  0  0  0  0  0  0  0
    5.4629    0.4504   -0.4436 C   0  0  0  0  0  0  0  0  0  0  0  0
    6.7050   -0.4160   -0.2072 C   0  0  0  0  0  0  0  0  0  0  0  0
    7.6397    0.2049    0.8062 C   0  0  0  0  0  0  0  0  0  0  0  0
    8.8545   -0.6985    1.0003 C   0  0  0  0  0  0  0  0  0  0  0  0
    0.4398    1.0662   -1.7863 C   0  0  0  0  0  0  0  0  0  0  0  0
   -0.0938   -0.2347   -1.2554 C   0  0  1  0  0  0  0  0  0  0  0  0
   -0.8670   -0.0478   -0.1186 O   0  0  0  0  0  0  0  0  0  0  0  0
   -1.6812   -1.1350    0.0576 C   0  0  1  0  0  0  0  0  0  0  0  0
   -1.1710   -1.9553    1.1886 C   0  0  0  0  0  0  0  0  0  0  0  0
    0.1240   -2.3636    0.8640 O   0  0  0  0  0  0  0  0  0  0  0  0
   -2.9791   -0.6990    0.1684 O   0  0  0  0  0  0  0  0  0  0  0  0
   -3.2693    0.1567    1.1961 C   0  0  1  0  0  0  0  0  0  0  0  0
   -3.6578    1.3659    0.6225 O   0  0  0  0  0  0  0  0  0  0  0  0
   -4.7862    1.3138   -0.1307 C   0  0  2  0  0  0  0  0  0  0  0  0
   -5.6141    2.5567    0.1968 C   0  0  0  0  0  0  0  0  0  0  0  0
   -6.7863    2.5416   -0.5590 O   0  0  0  0  0  0  0  0  0  0  0  0
   -5.6192    0.0977   -0.0634 C   0  0  1  0  0  0  0  0  0  0  0  0
   -5.4473   -0.6863   -1.2263 O   0  0  0  0  0  0  0  0  0  0  0  0
   -5.5251   -0.7218    1.1773 C   0  0  2  0  0  0  0  0  0  0  0  0
   -6.7088   -0.7580    1.9219 O   0  0  0  0  0  0  0  0  0  0  0  0
   -4.4143   -0.2646    2.0786 C   0  0  1  0  0  0  0  0  0  0  0  0
   -4.1174   -1.2358    2.9978 O   0  0  0  0  0  0  0  0  0  0  0  0
   -1.6426   -1.9403   -1.2442 C   0  0  1  0  0  0  0  0  0  0  0  0
   -2.8900   -2.3956   -1.6254 O   0  0  0  0  0  0  0  0  0  0  0  0
   -1.1075   -0.8582   -2.1925 C   0  0  2  0  0  0  0  0  0  0  0  0
   -0.5176   -1.4314   -3.3175 O   0  0  0  0  0  0  0  0  0  0  0  0
    0.7285    1.9356    0.1735 H   0  0  0  0  0  0  0  0  0  0  0  0
    2.7424    2.8793   -1.5812 H   0  0  0  0  0  0  0  0  0  0  0  0
    2.2664   -0.1190   -0.1194 H   0  0  0  0  0  0  0  0  0  0  0  0
    3.1060    0.8824   -1.4422 H   0  0  0  0  0  0  0  0  0  0  0  0
    3.8327    2.5089    0.2156 H   0  0  0  0  0  0  0  0  0  0  0  0
    2.9312    1.7181    1.5125 H   0  0  0  0  0  0  0  0  0  0  0  0
    5.2857    1.0821    1.6007 H   0  0  0  0  0  0  0  0  0  0  0  0
    4.3061   -0.3426    1.1311 H   0  0  0  0  0  0  0  0  0  0  0  0
    4.9012   -0.0623   -1.2334 H   0  0  0  0  0  0  0  0  0  0  0  0
    5.8580    1.4076   -0.8529 H   0  0  0  0  0  0  0  0  0  0  0  0
    6.4038   -1.4226    0.0892 H   0  0  0  0  0  0  0  0  0  0  0  0
    7.2152   -0.4712   -1.1960 H   0  0  0  0  0  0  0  0  0  0  0  0
    7.1449    0.2623    1.7789 H   0  0  0  0  0  0  0  0  0  0  0  0
    8.0130    1.1778    0.4205 H   0  0  0  0  0  0  0  0  0  0  0  0
    8.5880   -1.4697    1.7492 H   0  0  0  0  0  0  0  0  0  0  0  0
    9.6654   -0.0643    1.4088 H   0  0  0  0  0  0  0  0  0  0  0  0
    9.1593   -1.1952    0.0531 H   0  0  0  0  0  0  0  0  0  0  0  0
   -0.4110    1.7444   -2.0072 H   0  0  0  0  0  0  0  0  0  0  0  0
    1.0525    0.8428   -2.6820 H   0  0  0  0  0  0  0  0  0  0  0  0
    0.7232   -0.9439   -1.1642 H   0  0  0  0  0  0  0  0  0  0  0  0
   -1.0634   -1.3287    2.0904 H   0  0  0  0  0  0  0  0  0  0  0  0
   -1.7283   -2.8953    1.3565 H   0  0  0  0  0  0  0  0  0  0  0  0
    0.8179   -2.0376    1.4646 H   0  0  0  0  0  0  0  0  0  0  0  0
   -2.4230    0.4261    1.8562 H   0  0  0  0  0  0  0  0  0  0  0  0
   -4.4620    1.4631   -1.2003 H   0  0  0  0  0  0  0  0  0  0  0  0
   -5.0870    3.4922   -0.0292 H   0  0  0  0  0  0  0  0  0  0  0  0
   -5.8952    2.5935    1.2749 H   0  0  0  0  0  0  0  0  0  0  0  0
   -7.0748    3.4454   -0.8512 H   0  0  0  0  0  0  0  0  0  0  0  0
   -6.7007    0.4191   -0.1294 H   0  0  0  0  0  0  0  0  0  0  0  0
   -4.8924   -0.1944   -1.9096 H   0  0  0  0  0  0  0  0  0  0  0  0
   -5.2942   -1.7736    0.8725 H   0  0  0  0  0  0  0  0  0  0  0  0
   -7.4227   -1.2424    1.4115 H   0  0  0  0  0  0  0  0  0  0  0  0
   -4.7250    0.6493    2.6427 H   0  0  0  0  0  0  0  0  0  0  0  0
   -4.7966   -1.9641    3.0422 H   0  0  0  0  0  0  0  0  0  0  0  0
   -0.8797   -2.7258   -1.1973 H   0  0  0  0  0  0  0  0  0  0  0  0
   -3.0035   -3.3748   -1.5895 H   0  0  0  0  0  0  0  0  0  0  0  0
   -1.9362   -0.1609   -2.4533 H   0  0  0  0  0  0  0  0  0  0  0  0
   -1.0172   -2.2849   -3.5173 H   0  0  0  0  0  0  0  0  0  0  0  0
  1  2  1  0
  1  3  1  0
  3  4  1  0
  4  5  1  0
  5  6  1  0
  6  7  1  0
  7  8  1  0
  8  9  1  0
  1 10  1  0
 10 11  1  0
 11 12  1  0
 12 13  1  0
 13 14  1  0
 14 15  1  0
 13 16  1  1
 16 17  1  0
 17 18  1  0
 18 19  1  0
 19 20  1  0
 20 21  1  0
 19 22  1  0
 22 23  1  0
 22 24  1  0
 24 25  1  0
 24 26  1  0
 26 27  1  0
 13 28  1  0
 28 29  1  0
 28 30  1  0
 30 31  1  0
 30 11  1  0
 26 17  1  0
  1 32  1  1
  2 33  1  0
  3 34  1  0
  3 35  1  0
  4 36  1  0
  4 37  1  0
  5 38  1  0
  5 39  1  0
  6 40  1  0
  6 41  1  0
  7 42  1  0
  7 43  1  0
  8 44  1  0
  8 45  1  0
  9 46  1  0
  9 47  1  0
  9 48  1  0
 10 49  1  0
 10 50  1  0
 11 51  1  1
 14 52  1  0
 14 53  1  0
 15 54  1  0
 17 55  1  1
 19 56  1  6
 20 57  1  0
 20 58  1  0
 21 59  1  0
 22 60  1  6
 23 61  1  0
 24 62  1  6
 25 63  1  0
 26 64  1  1
 27 65  1  0
 28 66  1  1
 29 67  1  0
 30 68  1  6
 31 69  1  0
M  END
$$$$
