
     RDKit          3D

 51 55  0  0  0  0  0  0  0  0999 V2000
    1.9055   -0.5680    1.4345 C   0  0  2  0  0  0  0  0  0  0  0  0
    2.1002   -1.9796    1.6082 N   0  0  0  0  0  0  0  0  0  0  0  0
    1.1193   -0.3122    0.1611 C   0  0  0  0  0  0  0  0  0  0  0  0
   -0.0831   -0.8467    0.0951 O   0  0  0  0  0  0  0  0  0  0  0  0
   -1.1137   -1.6030    0.0663 C   0  0  0  0  0  0  0  0  0  0  0  0
   -2.3326   -0.9871   -0.1100 C   0  0  0  0  0  0  0  0  0  0  0  0
   -2.4819    0.3966   -0.2622 C   0  0  0  0  0  0  0  0  0  0  0  0
   -3.7096    0.9984   -0.4443 C   0  0  0  0  0  0  0  0  0  0  0  0
   -4.8605    0.2443   -0.4839 C   0  0  0  0  0  0  0  0  0  0  0  0
   -4.7496   -1.0849   -0.3407 N   0  0  0  0  0  0  0  0  0  0  0  0
   -3.5537   -1.6706   -0.1640 C   0  0  0  0  0  0  0  0  0  0  0  0
   -3.4316   -3.0521   -0.0221 C   0  0  0  0  0  0  0  0  0  0  0  0
   -2.2477   -3.6739    0.1513 N   0  0  0  0  0  0  0  0  0  0  0  0
   -1.0866   -2.9853    0.1990 C   0  0  0  0  0  0  0  0  0  0  0  0
   -6.1873    0.8113   -0.6823 C   0  0  0  0  0  0  0  0  0  0  0  0
   -7.2776   -0.0318   -0.7100 C   0  0  0  0  0  0  0  0  0  0  0  0
   -8.5317    0.5036   -0.9036 C   0  0  0  0  0  0  0  0  0  0  0  0
   -8.7616    1.8258   -1.0704 N   0  0  0  0  0  0  0  0  0  0  0  0
   -7.6944    2.6779   -1.0457 C   0  0  0  0  0  0  0  0  0  0  0  0
   -6.4308    2.1556   -0.8527 C   0  0  0  0  0  0  0  0  0  0  0  0
    3.1867    0.2136    1.3864 C   0  0  0  0  0  0  0  0  0  0  0  0
    4.1243   -0.1451    0.3367 C   0  0  0  0  0  0  0  0  0  0  0  0
    4.3532   -1.1140   -0.6128 C   0  0  0  0  0  0  0  0  0  0  0  0
    5.4579   -0.9359   -1.3557 N   0  0  0  0  0  0  0  0  0  0  0  0
    5.9795    0.2008   -0.8726 C   0  0  0  0  0  0  0  0  0  0  0  0
    5.2151    0.7174    0.1472 C   0  0  0  0  0  0  0  0  0  0  0  0
    5.6958    1.8865    0.6963 C   0  0  0  0  0  0  0  0  0  0  0  0
    6.8423    2.5377    0.3031 C   0  0  0  0  0  0  0  0  0  0  0  0
    7.5805    1.9882   -0.7231 C   0  0  0  0  0  0  0  0  0  0  0  0
    7.1508    0.8160   -1.3156 C   0  0  0  0  0  0  0  0  0  0  0  0
    1.2549   -0.1682    2.2813 H   0  0  0  0  0  0  0  0  0  0  0  0
    3.0238   -2.2438    1.9706 H   0  0  0  0  0  0  0  0  0  0  0  0
    1.9243   -2.5455    0.7658 H   0  0  0  0  0  0  0  0  0  0  0  0
    1.1412    0.8320    0.0700 H   0  0  0  0  0  0  0  0  0  0  0  0
    1.7662   -0.6596   -0.6837 H   0  0  0  0  0  0  0  0  0  0  0  0
   -1.5958    1.0079   -0.2349 H   0  0  0  0  0  0  0  0  0  0  0  0
   -3.7525    2.0607   -0.5531 H   0  0  0  0  0  0  0  0  0  0  0  0
   -4.2981   -3.6912   -0.0460 H   0  0  0  0  0  0  0  0  0  0  0  0
   -0.1861   -3.5565    0.3398 H   0  0  0  0  0  0  0  0  0  0  0  0
   -7.2369   -1.1078   -0.5894 H   0  0  0  0  0  0  0  0  0  0  0  0
   -9.4317   -0.1073   -0.9356 H   0  0  0  0  0  0  0  0  0  0  0  0
   -7.8072    3.7643   -1.1744 H   0  0  0  0  0  0  0  0  0  0  0  0
   -5.5919    2.8610   -0.8368 H   0  0  0  0  0  0  0  0  0  0  0  0
    2.9772    1.3193    1.3957 H   0  0  0  0  0  0  0  0  0  0  0  0
    3.7169    0.0389    2.3810 H   0  0  0  0  0  0  0  0  0  0  0  0
    3.6821   -1.9444   -0.7161 H   0  0  0  0  0  0  0  0  0  0  0  0
    5.7578   -1.5845   -2.1091 H   0  0  0  0  0  0  0  0  0  0  0  0
    5.1313    2.3326    1.5015 H   0  0  0  0  0  0  0  0  0  0  0  0
    7.1306    3.4683    0.8158 H   0  0  0  0  0  0  0  0  0  0  0  0
    8.4763    2.5248   -1.0092 H   0  0  0  0  0  0  0  0  0  0  0  0
    7.7403    0.4154   -2.1048 H   0  0  0  0  0  0  0  0  0  0  0  0
  1  2  1  0
  1  3  1  0
  3  4  1  0
  4  5  1  0
  5  6  1  0
  6  7  2  0
  7  8  1  0
  8  9  2  0
  9 10  1  0
 10 11  2  0
 11 12  1  0
 12 13  2  0
 13 14  1  0
  9 15  1  0
 15 16  2  0
 16 17  1  0
 17 18  2  0
 18 19  1  0
 19 20  2  0
  1 21  1  0
 21 22  1  0
 22 23  2  0
 23 24  1  0
 24 25  1  0
 25 26  2  0
 26 27  1  0
 27 28  2  0
 28 29  1  0
 29 30  2  0
 14  5  2  0
 20 15  1  0
 26 22  1  0
 11  6  1  0
 30 25  1  0
  1 31  1  1
  2 32  1  0
  2 33  1  0
  3 34  1  0
  3 35  1  0
  7 36  1  0
  8 37  1  0
 12 38  1  0
 14 39  1  0
 16 40  1  0
 17 41  1  0
 19 42  1  0
 20 43  1  0
 21 44  1  0
 21 45  1  0
 23 46  1  0
 24 47  1  0
 27 48  1  0
 28 49  1  0
 29 50  1  0
 30 51  1  0
M  END
$$$$
