
     RDKit          3D

 48 50  0  0  0  0  0  0  0  0999 V2000
   -1.6788    4.2986   -1.8693 C   0  0  0  0  0  0  0  0  0  0  0  0
   -2.1855    4.1081   -0.1811 S   0  0  0  0  0  6  0  0  0  0  0  0
   -1.1726    4.8106    0.6823 O   0  0  0  0  0  0  0  0  0  0  0  0
   -3.5165    4.7221    0.0657 O   0  0  0  0  0  0  0  0  0  0  0  0
   -2.2417    2.4188    0.3044 C   0  0  0  0  0  0  0  0  0  0  0  0
   -3.1860    1.6399   -0.5550 C   0  0  0  0  0  0  0  0  0  0  0  0
   -3.8083    2.1985   -1.4933 O   0  0  0  0  0  0  0  0  0  0  0  0
   -3.4084    0.2320   -0.3323 N   0  0  0  0  0  0  0  0  0  0  0  0
   -4.3153   -0.5183   -1.1568 C   0  0  0  0  0  0  0  0  0  0  0  0
   -4.3803   -1.9568   -0.7194 C   0  0  0  0  0  0  0  0  0  0  0  0
   -4.9576   -2.1151    0.9314 S   0  0  0  0  0  6  0  0  0  0  0  0
   -4.9908   -3.8114    1.3002 N   0  0  0  0  0  0  0  0  0  0  0  0
   -6.3514   -1.6083    1.0981 O   0  0  0  0  0  0  0  0  0  0  0  0
   -4.0064   -1.5002    1.9105 O   0  0  0  0  0  0  0  0  0  0  0  0
   -0.9040    1.7537    0.1280 C   0  0  0  0  0  0  0  0  0  0  0  0
   -0.1115    1.4958   -0.7245 N   0  0  0  0  0  0  0  0  0  0  0  0
    1.0340    0.8731   -0.5832 C   0  0  0  0  0  0  0  0  0  0  0  0
    1.9841    0.5597   -1.5825 C   0  0  0  0  0  0  0  0  0  0  0  0
    3.1353   -0.1029   -1.2382 C   0  0  0  0  0  0  0  0  0  0  0  0
    3.4557   -0.5003    0.0282 C   0  0  0  0  0  0  0  0  0  0  0  0
    4.6550   -1.1904    0.3859 C   0  0  0  0  0  0  0  0  0  0  0  0
    5.4135   -0.8524    1.4834 C   0  0  0  0  0  0  0  0  0  0  0  0
    6.5762   -1.5187    1.8335 C   0  0  0  0  0  0  0  0  0  0  0  0
    7.3258   -1.1454    2.9623 O   0  0  0  0  0  0  0  0  0  0  0  0
    6.9905   -2.5453    1.0703 N   0  0  0  0  0  0  0  0  0  0  0  0
    6.2789   -2.9034   -0.0055 C   0  0  0  0  0  0  0  0  0  0  0  0
    5.1152   -2.2554   -0.3770 C   0  0  0  0  0  0  0  0  0  0  0  0
    4.4488   -2.6799   -1.4849 F   0  0  0  0  0  0  0  0  0  0  0  0
    2.5216   -0.1968    1.0357 C   0  0  0  0  0  0  0  0  0  0  0  0
    1.3641    0.4713    0.6795 C   0  0  0  0  0  0  0  0  0  0  0  0
   -0.0610    1.0338    1.6701 S   0  0  0  0  0  0  0  0  0  0  0  0
   -1.1899    5.3057   -1.9936 H   0  0  0  0  0  0  0  0  0  0  0  0
   -2.6021    4.3382   -2.4902 H   0  0  0  0  0  0  0  0  0  0  0  0
   -0.9805    3.5059   -2.2018 H   0  0  0  0  0  0  0  0  0  0  0  0
   -2.5673    2.3943    1.3719 H   0  0  0  0  0  0  0  0  0  0  0  0
   -2.8483   -0.1533    0.4627 H   0  0  0  0  0  0  0  0  0  0  0  0
   -5.3393   -0.0486   -1.1735 H   0  0  0  0  0  0  0  0  0  0  0  0
   -3.9831   -0.5380   -2.2339 H   0  0  0  0  0  0  0  0  0  0  0  0
   -3.3246   -2.3436   -0.7971 H   0  0  0  0  0  0  0  0  0  0  0  0
   -4.9724   -2.5455   -1.4453 H   0  0  0  0  0  0  0  0  0  0  0  0
   -4.0225   -4.1747    1.0627 H   0  0  0  0  0  0  0  0  0  0  0  0
   -5.7363   -4.2556    0.7408 H   0  0  0  0  0  0  0  0  0  0  0  0
    1.8434    0.8216   -2.6185 H   0  0  0  0  0  0  0  0  0  0  0  0
    3.8951   -0.3600   -2.0017 H   0  0  0  0  0  0  0  0  0  0  0  0
    5.1224   -0.0352    2.1276 H   0  0  0  0  0  0  0  0  0  0  0  0
    8.3088   -0.9028    2.7859 H   0  0  0  0  0  0  0  0  0  0  0  0
    6.6511   -3.7378   -0.5924 H   0  0  0  0  0  0  0  0  0  0  0  0
    2.7227   -0.4857    2.0477 H   0  0  0  0  0  0  0  0  0  0  0  0
  1  2  1  0
  2  3  2  0
  2  4  2  0
  2  5  1  0
  5  6  1  0
  6  7  2  0
  6  8  1  0
  8  9  1  0
  9 10  1  0
 10 11  1  0
 11 12  1  0
 11 13  2  0
 11 14  2  0
  5 15  1  0
 15 16  2  0
 16 17  1  0
 17 18  2  0
 18 19  1  0
 19 20  2  0
 20 21  1  0
 21 22  2  0
 22 23  1  0
 23 24  1  0
 23 25  2  0
 25 26  1  0
 26 27  2  0
 27 28  1  0
 20 29  1  0
 29 30  2  0
 30 31  1  0
 31 15  1  0
 30 17  1  0
 27 21  1  0
  1 32  1  0
  1 33  1  0
  1 34  1  0
  5 35  1  0
  8 36  1  0
  9 37  1  0
  9 38  1  0
 10 39  1  0
 10 40  1  0
 12 41  1  0
 12 42  1  0
 18 43  1  0
 19 44  1  0
 22 45  1  0
 24 46  1  0
 26 47  1  0
 29 48  1  0
M  END
$$$$
