
     RDKit          3D

 68 71  0  0  0  0  0  0  0  0999 V2000
   -2.8274   -2.9438    0.8888 C   0  0  0  0  0  0  0  0  0  0  0  0
   -1.6738   -2.8200   -0.0735 C   0  0  0  0  0  0  0  0  0  0  0  0
   -2.0059   -1.8176   -1.1556 C   0  0  0  0  0  0  0  0  0  0  0  0
   -2.2615   -0.5126   -0.4839 C   0  0  0  0  0  0  0  0  0  0  0  0
   -3.5519   -0.0573   -0.3338 C   0  0  0  0  0  0  0  0  0  0  0  0
   -3.8567    1.1389    0.2769 C   0  0  0  0  0  0  0  0  0  0  0  0
   -5.2118    1.6513    0.4438 C   0  0  0  0  0  0  0  0  0  0  0  0
   -5.3170    2.7735    1.0663 O   0  0  0  0  0  0  0  0  0  0  0  0
   -6.4477    1.0351   -0.0140 C   0  0  0  0  0  0  0  0  0  0  0  0
   -6.5957    0.8941   -1.5090 C   0  0  0  0  0  0  0  0  0  0  0  0
   -8.1128    0.8474   -1.7819 C   0  0  0  0  0  0  0  0  0  0  0  0
   -8.7258   -0.2206   -0.9148 C   0  0  0  0  0  0  0  0  0  0  0  0
   -7.6967   -1.0971   -0.2299 C   0  0  0  0  0  0  0  0  0  0  0  0
   -6.8125   -0.2601    0.6899 C   0  0  0  0  0  0  0  0  0  0  0  0
   -2.7663    1.8710    0.7410 C   0  0  0  0  0  0  0  0  0  0  0  0
   -1.4707    1.4223    0.5952 C   0  0  0  0  0  0  0  0  0  0  0  0
   -1.1674    0.2302   -0.0145 C   0  0  0  0  0  0  0  0  0  0  0  0
    0.0931   -0.2832   -0.1952 O   0  0  0  0  0  0  0  0  0  0  0  0
    1.3341    0.1788    0.1219 C   0  0  0  0  0  0  0  0  0  0  0  0
    1.8127    1.4378   -0.5058 C   0  0  0  0  0  0  0  0  0  0  0  0
    3.2032    1.8271   -0.0537 C   0  0  0  0  0  0  0  0  0  0  0  0
    4.1590    0.8552   -0.3628 O   0  0  0  0  0  0  0  0  0  0  0  0
    5.4936    1.0561   -0.0137 C   0  0  0  0  0  0  0  0  0  0  0  0
    5.8612    2.2254    0.6412 C   0  0  0  0  0  0  0  0  0  0  0  0
    7.1736    2.3990    0.9726 C   0  0  0  0  0  0  0  0  0  0  0  0
    8.1203    1.4103    0.6530 C   0  0  0  0  0  0  0  0  0  0  0  0
    7.7695    0.2627    0.0121 C   0  0  0  0  0  0  0  0  0  0  0  0
    8.7535   -0.7507   -0.3121 C   0  0  0  0  0  0  0  0  0  0  0  0
    8.3586   -2.2786   -1.1575 S   0  0  0  0  0  0  0  0  0  0  0  0
   10.0468   -2.9110   -1.1551 C   0  0  0  0  0  0  0  0  0  0  0  0
   10.4065   -4.0095   -1.6403 O   0  0  0  0  0  0  0  0  0  0  0  0
   10.6955   -1.9501   -0.5472 N   0  0  0  0  0  0  0  0  0  0  0  0
   10.0898   -0.8722   -0.1191 C   0  0  0  0  0  0  0  0  0  0  0  0
   10.7810    0.2004    0.5532 O   0  0  0  0  0  0  0  0  0  0  0  0
    6.4235    0.0885   -0.3259 C   0  0  0  0  0  0  0  0  0  0  0  0
   -2.7136   -2.2587    1.7701 H   0  0  0  0  0  0  0  0  0  0  0  0
   -3.8041   -2.6969    0.4360 H   0  0  0  0  0  0  0  0  0  0  0  0
   -2.8420   -4.0137    1.2354 H   0  0  0  0  0  0  0  0  0  0  0  0
   -1.4413   -3.7797   -0.5568 H   0  0  0  0  0  0  0  0  0  0  0  0
   -0.7967   -2.4530    0.5183 H   0  0  0  0  0  0  0  0  0  0  0  0
   -2.9456   -2.1655   -1.6318 H   0  0  0  0  0  0  0  0  0  0  0  0
   -1.2491   -1.7586   -1.9361 H   0  0  0  0  0  0  0  0  0  0  0  0
   -4.3706   -0.6605   -0.7033 H   0  0  0  0  0  0  0  0  0  0  0  0
   -7.2945    1.7376    0.2737 H   0  0  0  0  0  0  0  0  0  0  0  0
   -6.2148    1.8218   -1.9778 H   0  0  0  0  0  0  0  0  0  0  0  0
   -6.2087   -0.0192   -1.9453 H   0  0  0  0  0  0  0  0  0  0  0  0
   -8.5460    1.8242   -1.5103 H   0  0  0  0  0  0  0  0  0  0  0  0
   -8.2918    0.6437   -2.8605 H   0  0  0  0  0  0  0  0  0  0  0  0
   -9.3418   -0.8881   -1.5492 H   0  0  0  0  0  0  0  0  0  0  0  0
   -9.3989    0.2039   -0.1402 H   0  0  0  0  0  0  0  0  0  0  0  0
   -7.1107   -1.6598   -0.9751 H   0  0  0  0  0  0  0  0  0  0  0  0
   -8.2330   -1.8112    0.4021 H   0  0  0  0  0  0  0  0  0  0  0  0
   -5.9732   -0.8525    1.0306 H   0  0  0  0  0  0  0  0  0  0  0  0
   -7.4513   -0.0700    1.6020 H   0  0  0  0  0  0  0  0  0  0  0  0
   -2.9806    2.8317    1.2338 H   0  0  0  0  0  0  0  0  0  0  0  0
   -0.6702    2.0285    0.9883 H   0  0  0  0  0  0  0  0  0  0  0  0
    2.0621   -0.6706   -0.0702 H   0  0  0  0  0  0  0  0  0  0  0  0
    1.4492    0.3212    1.2467 H   0  0  0  0  0  0  0  0  0  0  0  0
    1.8431    1.2470   -1.6234 H   0  0  0  0  0  0  0  0  0  0  0  0
    1.1639    2.2818   -0.3646 H   0  0  0  0  0  0  0  0  0  0  0  0
    3.4225    2.8206   -0.4936 H   0  0  0  0  0  0  0  0  0  0  0  0
    3.1447    1.8911    1.0697 H   0  0  0  0  0  0  0  0  0  0  0  0
    5.1059    2.9792    0.8786 H   0  0  0  0  0  0  0  0  0  0  0  0
    7.4740    3.3009    1.4809 H   0  0  0  0  0  0  0  0  0  0  0  0
    9.1256    1.6265    0.9484 H   0  0  0  0  0  0  0  0  0  0  0  0
   11.7699   -2.0658   -0.4010 H   0  0  0  0  0  0  0  0  0  0  0  0
   11.0937    0.0635    1.5074 H   0  0  0  0  0  0  0  0  0  0  0  0
    6.1499   -0.8200   -0.8323 H   0  0  0  0  0  0  0  0  0  0  0  0
  1  2  1  0
  2  3  1  0
  3  4  1  0
  4  5  2  0
  5  6  1  0
  6  7  1  0
  7  8  2  0
  7  9  1  0
  9 10  1  0
 10 11  1  0
 11 12  1  0
 12 13  1  0
 13 14  1  0
  6 15  2  0
 15 16  1  0
 16 17  2  0
 17 18  1  0
 18 19  1  0
 19 20  1  0
 20 21  1  0
 21 22  1  0
 22 23  1  0
 23 24  2  0
 24 25  1  0
 25 26  2  0
 26 27  1  0
 27 28  1  0
 28 29  1  0
 29 30  1  0
 30 31  2  0
 30 32  1  0
 32 33  1  0
 33 34  1  0
 27 35  2  0
 17  4  1  0
 35 23  1  0
 14  9  1  0
 33 28  2  0
  1 36  1  0
  1 37  1  0
  1 38  1  0
  2 39  1  0
  2 40  1  0
  3 41  1  0
  3 42  1  0
  5 43  1  0
  9 44  1  0
 10 45  1  0
 10 46  1  0
 11 47  1  0
 11 48  1  0
 12 49  1  0
 12 50  1  0
 13 51  1  0
 13 52  1  0
 14 53  1  0
 14 54  1  0
 15 55  1  0
 16 56  1  0
 19 57  1  0
 19 58  1  0
 20 59  1  0
 20 60  1  0
 21 61  1  0
 21 62  1  0
 24 63  1  0
 25 64  1  0
 26 65  1  0
 32 66  1  0
 34 67  1  0
 35 68  1  0
M  END
$$$$
