
     RDKit          3D

 56 60  0  0  0  0  0  0  0  0999 V2000
   -3.3829    5.8789    3.6147 C   0  0  0  0  0  0  0  0  0  0  0  0
   -2.5714    4.7341    3.4666 O   0  0  0  0  0  0  0  0  0  0  0  0
   -2.9094    3.6778    2.6345 C   0  0  0  0  0  0  0  0  0  0  0  0
   -4.0986    3.7113    1.9004 C   0  0  0  0  0  0  0  0  0  0  0  0
   -4.4424    2.6661    1.0689 C   0  0  0  0  0  0  0  0  0  0  0  0
   -5.5962    2.6841    0.3671 N   0  0  0  0  0  0  0  0  0  0  0  0
   -5.9396    1.6684   -0.4287 C   0  0  0  0  0  0  0  0  0  0  0  0
   -5.1351    0.5920   -0.5517 C   0  0  0  0  0  0  0  0  0  0  0  0
   -3.9204    0.5124    0.1505 C   0  0  0  0  0  0  0  0  0  0  0  0
   -3.1567   -0.6059   -0.0234 O   0  0  0  0  0  0  0  0  0  0  0  0
   -1.9182   -0.7705   -0.5789 C   0  0  0  0  0  0  0  0  0  0  0  0
   -0.7740   -1.1888    0.0550 C   0  0  0  0  0  0  0  0  0  0  0  0
    0.4397   -1.3362   -0.5464 C   0  0  0  0  0  0  0  0  0  0  0  0
    0.6076   -1.0669   -1.8784 C   0  0  0  0  0  0  0  0  0  0  0  0
    1.8197   -1.2105   -2.5149 C   0  0  0  0  0  0  0  0  0  0  0  0
    2.9871   -1.6580   -1.7386 C   0  0  0  0  0  0  0  0  0  0  0  0
    3.6643   -0.8190   -1.0578 O   0  0  0  0  0  0  0  0  0  0  0  0
    3.4265   -3.0073   -1.6938 N   0  0  0  0  0  0  0  0  0  0  0  0
    4.5594   -3.3745   -0.9250 C   0  0  0  0  0  0  0  0  0  0  0  0
    5.7948   -3.3553   -1.5334 C   0  0  0  0  0  0  0  0  0  0  0  0
    6.9503   -3.6904   -0.8862 C   0  0  0  0  0  0  0  0  0  0  0  0
    6.9027   -4.0742    0.4570 C   0  0  0  0  0  0  0  0  0  0  0  0
    8.3845   -4.5071    1.2977 Cl  0  0  0  0  0  0  0  0  0  0  0  0
    5.6697   -4.0933    1.0645 C   0  0  0  0  0  0  0  0  0  0  0  0
    4.5162   -3.7519    0.3939 C   0  0  0  0  0  0  0  0  0  0  0  0
    1.8790   -0.9183   -3.8584 C   0  0  0  0  0  0  0  0  0  0  0  0
    0.7848   -0.4943   -4.5719 C   0  0  0  0  0  0  0  0  0  0  0  0
   -0.4094   -0.3595   -3.9128 C   0  0  0  0  0  0  0  0  0  0  0  0
   -0.5305   -0.6380   -2.5667 C   0  0  0  0  0  0  0  0  0  0  0  0
   -1.7525   -0.4909   -1.9522 C   0  0  0  0  0  0  0  0  0  0  0  0
   -3.5905    1.5596    0.9586 C   0  0  0  0  0  0  0  0  0  0  0  0
   -2.4232    1.5283    1.6809 C   0  0  0  0  0  0  0  0  0  0  0  0
   -2.0779    2.5943    2.5255 C   0  0  0  0  0  0  0  0  0  0  0  0
   -0.9040    2.5694    3.2528 O   0  0  0  0  0  0  0  0  0  0  0  0
   -0.0419    1.4595    3.1335 C   0  0  0  0  0  0  0  0  0  0  0  0
   -3.8667    6.1989    2.6656 H   0  0  0  0  0  0  0  0  0  0  0  0
   -4.1820    5.6444    4.3342 H   0  0  0  0  0  0  0  0  0  0  0  0
   -2.7639    6.7058    4.0411 H   0  0  0  0  0  0  0  0  0  0  0  0
   -4.7745    4.5588    1.9736 H   0  0  0  0  0  0  0  0  0  0  0  0
   -6.8940    1.7656   -0.9628 H   0  0  0  0  0  0  0  0  0  0  0  0
   -5.4031   -0.2451   -1.1948 H   0  0  0  0  0  0  0  0  0  0  0  0
   -0.8603   -1.4206    1.1107 H   0  0  0  0  0  0  0  0  0  0  0  0
    1.3375   -1.6701   -0.0161 H   0  0  0  0  0  0  0  0  0  0  0  0
    2.8851   -3.7244   -2.2499 H   0  0  0  0  0  0  0  0  0  0  0  0
    5.8959   -3.0615   -2.5895 H   0  0  0  0  0  0  0  0  0  0  0  0
    7.9186   -3.6756   -1.3594 H   0  0  0  0  0  0  0  0  0  0  0  0
    5.6156   -4.3907    2.1133 H   0  0  0  0  0  0  0  0  0  0  0  0
    3.5559   -3.7722    0.8855 H   0  0  0  0  0  0  0  0  0  0  0  0
    2.8597   -1.0421   -4.3484 H   0  0  0  0  0  0  0  0  0  0  0  0
    0.8670   -0.2694   -5.6421 H   0  0  0  0  0  0  0  0  0  0  0  0
   -1.2834   -0.0253   -4.4646 H   0  0  0  0  0  0  0  0  0  0  0  0
   -2.6388   -0.1538   -2.4909 H   0  0  0  0  0  0  0  0  0  0  0  0
   -1.7523    0.7090    1.6485 H   0  0  0  0  0  0  0  0  0  0  0  0
    0.9367    1.6823    3.6525 H   0  0  0  0  0  0  0  0  0  0  0  0
   -0.4357    0.5280    3.5505 H   0  0  0  0  0  0  0  0  0  0  0  0
    0.1711    1.2324    2.0467 H   0  0  0  0  0  0  0  0  0  0  0  0
  1  2  1  0
  2  3  1  0
  3  4  2  0
  4  5  1  0
  5  6  2  0
  6  7  1  0
  7  8  2  0
  8  9  1  0
  9 10  1  0
 10 11  1  0
 11 12  2  0
 12 13  1  0
 13 14  2  0
 14 15  1  0
 15 16  1  0
 16 17  2  0
 16 18  1  0
 18 19  1  0
 19 20  2  0
 20 21  1  0
 21 22  2  0
 22 23  1  0
 22 24  1  0
 24 25  2  0
 15 26  2  0
 26 27  1  0
 27 28  2  0
 28 29  1  0
 29 30  2  0
  9 31  2  0
 31 32  1  0
 32 33  2  0
 33 34  1  0
 34 35  1  0
 33  3  1  0
 31  5  1  0
 30 11  1  0
 29 14  1  0
 25 19  1  0
  1 36  1  0
  1 37  1  0
  1 38  1  0
  4 39  1  0
  7 40  1  0
  8 41  1  0
 12 42  1  0
 13 43  1  0
 18 44  1  0
 20 45  1  0
 21 46  1  0
 24 47  1  0
 25 48  1  0
 26 49  1  0
 27 50  1  0
 28 51  1  0
 30 52  1  0
 32 53  1  0
 35 54  1  0
 35 55  1  0
 35 56  1  0
M  END
$$$$
