
     RDKit          3D

 53 56  0  0  0  0  0  0  0  0999 V2000
   -3.2029   -1.0047    1.0874 C   0  0  0  0  0  0  0  0  0  0  0  0
   -3.5907    0.0935    0.1124 C   0  0  0  0  0  0  0  0  0  0  0  0
   -4.8521   -0.2681   -0.5708 C   0  0  0  0  0  0  0  0  0  0  0  0
   -5.4731   -1.4573   -0.2659 C   0  0  0  0  0  0  0  0  0  0  0  0
   -6.6506   -1.7567   -0.9281 C   0  0  0  0  0  0  0  0  0  0  0  0
   -7.2001   -0.9077   -1.8642 C   0  0  0  0  0  0  0  0  0  0  0  0
   -6.5825    0.2902   -2.1771 C   0  0  0  0  0  0  0  0  0  0  0  0
   -5.4081    0.5757   -1.5084 C   0  0  0  0  0  0  0  0  0  0  0  0
   -3.8283    1.4011    0.8190 C   0  0  0  0  0  0  0  0  0  0  0  0
   -2.6673    1.9043    1.6019 C   0  0  0  0  0  0  0  0  0  0  0  0
   -1.3204    1.5554    1.0799 C   0  0  0  0  0  0  0  0  0  0  0  0
   -1.2818    0.6616   -0.0328 N   0  0  0  0  0  0  0  0  0  0  0  0
   -0.0047    0.0946   -0.3835 C   0  0  0  0  0  0  0  0  0  0  0  0
    0.0981   -0.7087   -1.3557 O   0  0  0  0  0  0  0  0  0  0  0  0
    1.1720    0.4086    0.3348 N   0  0  0  0  0  0  0  0  0  0  0  0
    2.4655   -0.1812   -0.0390 C   0  0  0  0  0  0  0  0  0  0  0  0
    3.5086    0.3538    0.9174 C   0  0  0  0  0  0  0  0  0  0  0  0
    4.8514   -0.1633    0.6478 C   0  0  0  0  0  0  0  0  0  0  0  0
    5.2749   -1.3427    1.2725 C   0  0  0  0  0  0  0  0  0  0  0  0
    6.5443   -1.8146    1.0058 C   0  0  0  0  0  0  0  0  0  0  0  0
    7.3650   -1.1231    0.1372 C   0  0  0  0  0  0  0  0  0  0  0  0
    8.6306   -1.3548   -0.2954 N   0  0  0  0  0  0  0  0  0  0  0  0
    8.9950   -0.3786   -1.1486 C   0  0  0  0  0  0  0  0  0  0  0  0
    7.9472    0.4627   -1.2439 N   0  0  0  0  0  0  0  0  0  0  0  0
    6.9354    0.0411   -0.4741 C   0  0  0  0  0  0  0  0  0  0  0  0
    5.6701    0.5206   -0.2146 C   0  0  0  0  0  0  0  0  0  0  0  0
   -2.4515    0.2950   -0.8333 C   0  0  0  0  0  0  0  0  0  0  0  0
   -3.9928   -1.1698    1.8631 H   0  0  0  0  0  0  0  0  0  0  0  0
   -3.0627   -1.9761    0.5731 H   0  0  0  0  0  0  0  0  0  0  0  0
   -2.2888   -0.7281    1.6250 H   0  0  0  0  0  0  0  0  0  0  0  0
   -5.0863   -2.1631    0.4618 H   0  0  0  0  0  0  0  0  0  0  0  0
   -7.1482   -2.7096   -0.6837 H   0  0  0  0  0  0  0  0  0  0  0  0
   -8.1365   -1.1677   -2.3769 H   0  0  0  0  0  0  0  0  0  0  0  0
   -7.0167    0.9543   -2.9126 H   0  0  0  0  0  0  0  0  0  0  0  0
   -4.9389    1.5302   -1.7744 H   0  0  0  0  0  0  0  0  0  0  0  0
   -4.6965    1.2423    1.5011 H   0  0  0  0  0  0  0  0  0  0  0  0
   -4.0976    2.1427    0.0209 H   0  0  0  0  0  0  0  0  0  0  0  0
   -2.7639    3.0309    1.6293 H   0  0  0  0  0  0  0  0  0  0  0  0
   -2.8079    1.6160    2.6741 H   0  0  0  0  0  0  0  0  0  0  0  0
   -0.7583    1.0835    1.9410 H   0  0  0  0  0  0  0  0  0  0  0  0
   -0.7165    2.4896    0.8775 H   0  0  0  0  0  0  0  0  0  0  0  0
    1.0955    1.0708    1.1352 H   0  0  0  0  0  0  0  0  0  0  0  0
    2.6494    0.0809   -1.0844 H   0  0  0  0  0  0  0  0  0  0  0  0
    2.4019   -1.2870    0.0308 H   0  0  0  0  0  0  0  0  0  0  0  0
    3.4479    1.4519    0.9692 H   0  0  0  0  0  0  0  0  0  0  0  0
    3.2027   -0.0124    1.9368 H   0  0  0  0  0  0  0  0  0  0  0  0
    4.6258   -1.8833    1.9551 H   0  0  0  0  0  0  0  0  0  0  0  0
    6.9093   -2.7339    1.4764 H   0  0  0  0  0  0  0  0  0  0  0  0
    9.9264   -0.2416   -1.6818 H   0  0  0  0  0  0  0  0  0  0  0  0
    7.8848    1.3446   -1.8306 H   0  0  0  0  0  0  0  0  0  0  0  0
    5.2960    1.4321   -0.6754 H   0  0  0  0  0  0  0  0  0  0  0  0
   -2.6569    1.0512   -1.6150 H   0  0  0  0  0  0  0  0  0  0  0  0
   -2.2152   -0.6452   -1.3669 H   0  0  0  0  0  0  0  0  0  0  0  0
  1  2  1  0
  2  3  1  0
  3  4  2  0
  4  5  1  0
  5  6  2  0
  6  7  1  0
  7  8  2  0
  2  9  1  0
  9 10  1  0
 10 11  1  0
 11 12  1  0
 12 13  1  0
 13 14  2  0
 13 15  1  0
 15 16  1  0
 16 17  1  0
 17 18  1  0
 18 19  2  0
 19 20  1  0
 20 21  2  0
 21 22  1  0
 22 23  2  0
 23 24  1  0
 24 25  1  0
 25 26  2  0
 12 27  1  0
 27  2  1  0
  8  3  1  0
 26 18  1  0
 25 21  1  0
  1 28  1  0
  1 29  1  0
  1 30  1  0
  4 31  1  0
  5 32  1  0
  6 33  1  0
  7 34  1  0
  8 35  1  0
  9 36  1  0
  9 37  1  0
 10 38  1  0
 10 39  1  0
 11 40  1  0
 11 41  1  0
 15 42  1  0
 16 43  1  0
 16 44  1  0
 17 45  1  0
 17 46  1  0
 19 47  1  0
 20 48  1  0
 23 49  1  0
 24 50  1  0
 26 51  1  0
 27 52  1  0
 27 53  1  0
M  END
$$$$
