
     RDKit          3D

 62 66  0  0  0  0  0  0  0  0999 V2000
    9.3101   -1.0444   -0.2624 C   0  0  0  0  0  0  0  0  0  0  0  0
    8.0703   -2.2999   -0.5619 S   0  0  0  0  0  6  0  0  0  0  0  0
    8.2495   -2.9410   -1.9042 O   0  0  0  0  0  0  0  0  0  0  0  0
    8.1538   -3.3550    0.5191 O   0  0  0  0  0  0  0  0  0  0  0  0
    6.4883   -1.5668   -0.4347 C   0  0  0  0  0  0  0  0  0  0  0  0
    5.8775   -1.0153   -1.5396 C   0  0  0  0  0  0  0  0  0  0  0  0
    4.6301   -0.4325   -1.4618 C   0  0  0  0  0  0  0  0  0  0  0  0
    3.9739   -0.3996   -0.2465 C   0  0  0  0  0  0  0  0  0  0  0  0
    4.5554   -0.9398    0.8699 C   0  0  0  0  0  0  0  0  0  0  0  0
    5.7875   -1.5105    0.7726 C   0  0  0  0  0  0  0  0  0  0  0  0
    3.8419   -0.8926    2.1398 C   0  0  0  0  0  0  0  0  0  0  0  0
    2.7613    0.1261    2.2538 C   0  0  0  0  0  0  0  0  0  0  0  0
    1.9674    0.3382    1.0165 C   0  0  0  0  0  0  0  0  0  0  0  0
    1.5244    1.8104    1.0002 C   0  0  0  0  0  0  0  0  0  0  0  0
    0.5807    2.0802   -0.1135 C   0  0  0  0  0  0  0  0  0  0  0  0
   -0.8658    2.1040    0.2234 C   0  0  0  0  0  0  0  0  0  0  0  0
   -1.2465    0.8833    0.8657 N   0  0  0  0  0  0  0  0  0  0  0  0
   -2.6597    0.5694    0.7919 C   0  0  0  0  0  0  0  0  0  0  0  0
   -3.0644   -0.5060    1.3240 O   0  0  0  0  0  0  0  0  0  0  0  0
   -3.6136    1.3923    0.1619 N   0  0  0  0  0  0  0  0  0  0  0  0
   -5.0026    0.9900    0.1384 C   0  0  1  0  0  0  0  0  0  0  0  0
   -6.0780    2.0032    0.2944 C   0  0  0  0  0  0  0  0  0  0  0  0
   -5.8708    1.3555   -1.0091 C   0  0  2  0  0  0  0  0  0  0  0  0
   -6.7776    0.2698   -1.4871 C   0  0  0  0  0  0  0  0  0  0  0  0
   -7.0278    0.1364   -2.8204 C   0  0  0  0  0  0  0  0  0  0  0  0
   -7.8539   -0.8449   -3.3246 C   0  0  0  0  0  0  0  0  0  0  0  0
   -8.4484   -1.7240   -2.4392 C   0  0  0  0  0  0  0  0  0  0  0  0
   -8.1998   -1.5945   -1.0916 C   0  0  0  0  0  0  0  0  0  0  0  0
   -7.3711   -0.6075   -0.6055 C   0  0  0  0  0  0  0  0  0  0  0  0
   -0.4447   -0.0667    1.5818 C   0  0  0  0  0  0  0  0  0  0  0  0
    0.7697   -0.5633    0.8596 C   0  0  0  0  0  0  0  0  0  0  0  0
    2.7440    0.1707   -0.1519 O   0  0  0  0  0  0  0  0  0  0  0  0
    9.2697   -0.3499   -1.1359 H   0  0  0  0  0  0  0  0  0  0  0  0
    8.9811   -0.4872    0.6335 H   0  0  0  0  0  0  0  0  0  0  0  0
   10.2895   -1.5095   -0.1263 H   0  0  0  0  0  0  0  0  0  0  0  0
    6.3933   -1.0392   -2.5025 H   0  0  0  0  0  0  0  0  0  0  0  0
    4.1298    0.0089   -2.3208 H   0  0  0  0  0  0  0  0  0  0  0  0
    6.2777   -1.9454    1.6260 H   0  0  0  0  0  0  0  0  0  0  0  0
    4.5990   -0.6744    2.9481 H   0  0  0  0  0  0  0  0  0  0  0  0
    3.4728   -1.9250    2.3922 H   0  0  0  0  0  0  0  0  0  0  0  0
    2.1105   -0.1536    3.1086 H   0  0  0  0  0  0  0  0  0  0  0  0
    3.2455    1.0985    2.5629 H   0  0  0  0  0  0  0  0  0  0  0  0
    2.3992    2.4787    0.9082 H   0  0  0  0  0  0  0  0  0  0  0  0
    1.0295    2.0822    1.9630 H   0  0  0  0  0  0  0  0  0  0  0  0
    0.8437    3.0862   -0.5471 H   0  0  0  0  0  0  0  0  0  0  0  0
    0.7077    1.3838   -0.9773 H   0  0  0  0  0  0  0  0  0  0  0  0
   -1.2026    3.0112    0.7639 H   0  0  0  0  0  0  0  0  0  0  0  0
   -1.4072    2.1598   -0.7734 H   0  0  0  0  0  0  0  0  0  0  0  0
   -3.3193    2.3076   -0.2915 H   0  0  0  0  0  0  0  0  0  0  0  0
   -5.2076    0.0257    0.6450 H   0  0  0  0  0  0  0  0  0  0  0  0
   -6.9619    1.7647    0.9351 H   0  0  0  0  0  0  0  0  0  0  0  0
   -5.7446    3.0523    0.4308 H   0  0  0  0  0  0  0  0  0  0  0  0
   -5.4457    1.9930   -1.8005 H   0  0  0  0  0  0  0  0  0  0  0  0
   -6.5864    0.8025   -3.5738 H   0  0  0  0  0  0  0  0  0  0  0  0
   -8.0260   -0.9148   -4.3971 H   0  0  0  0  0  0  0  0  0  0  0  0
   -9.0956   -2.4889   -2.8607 H   0  0  0  0  0  0  0  0  0  0  0  0
   -8.6695   -2.2873   -0.4031 H   0  0  0  0  0  0  0  0  0  0  0  0
   -7.1719   -0.5026    0.4645 H   0  0  0  0  0  0  0  0  0  0  0  0
   -1.0779   -0.9575    1.7793 H   0  0  0  0  0  0  0  0  0  0  0  0
   -0.1801    0.3091    2.6165 H   0  0  0  0  0  0  0  0  0  0  0  0
    1.0461   -1.5411    1.3024 H   0  0  0  0  0  0  0  0  0  0  0  0
    0.5397   -0.7130   -0.1905 H   0  0  0  0  0  0  0  0  0  0  0  0
  1  2  1  0
  2  3  2  0
  2  4  2  0
  2  5  1  0
  5  6  2  0
  6  7  1  0
  7  8  2  0
  8  9  1  0
  9 10  2  0
  9 11  1  0
 11 12  1  0
 12 13  1  0
 13 14  1  0
 14 15  1  0
 15 16  1  0
 16 17  1  0
 17 18  1  0
 18 19  2  0
 18 20  1  0
 20 21  1  0
 21 22  1  0
 22 23  1  0
 23 24  1  0
 24 25  2  0
 25 26  1  0
 26 27  2  0
 27 28  1  0
 28 29  2  0
 17 30  1  0
 30 31  1  0
 13 32  1  0
 10  5  1  0
 31 13  1  0
 32  8  1  0
 23 21  1  0
 29 24  1  0
  1 33  1  0
  1 34  1  0
  1 35  1  0
  6 36  1  0
  7 37  1  0
 10 38  1  0
 11 39  1  0
 11 40  1  0
 12 41  1  0
 12 42  1  0
 14 43  1  0
 14 44  1  0
 15 45  1  0
 15 46  1  0
 16 47  1  0
 16 48  1  0
 20 49  1  0
 21 50  1  1
 22 51  1  0
 22 52  1  0
 23 53  1  6
 25 54  1  0
 26 55  1  0
 27 56  1  0
 28 57  1  0
 29 58  1  0
 30 59  1  0
 30 60  1  0
 31 61  1  0
 31 62  1  0
M  END
$$$$
