
     RDKit          3D

 40 41  0  0  0  0  0  0  0  0999 V2000
    3.8110    0.3113    1.6410 C   0  0  0  0  0  0  0  0  0  0  0  0
    3.7619   -0.6649    0.4906 C   0  0  0  0  0  0  0  0  0  0  0  0
    5.1257   -1.2973    0.2649 C   0  0  0  0  0  0  0  0  0  0  0  0
    3.3847    0.0217   -0.8049 C   0  0  0  0  0  0  0  0  0  0  0  0
    2.0950    0.6490   -0.7293 N   0  0  0  0  0  0  0  0  0  0  0  0
    0.9307   -0.1252   -0.4853 C   0  0  0  0  0  0  0  0  0  0  0  0
    0.9565   -1.4583   -0.3180 N   0  0  0  0  0  0  0  0  0  0  0  0
   -0.1501   -2.1883   -0.0896 C   0  0  0  0  0  0  0  0  0  0  0  0
   -0.0153   -3.6125    0.0760 C   0  0  0  0  0  0  0  0  0  0  0  0
    0.1098   -4.7684    0.1976 N   0  0  0  0  0  0  0  0  0  0  0  0
   -1.3199   -1.5530   -0.0279 N   0  0  0  0  0  0  0  0  0  0  0  0
   -1.4525   -0.2213   -0.1820 C   0  0  0  0  0  0  0  0  0  0  0  0
   -2.7068    0.4289   -0.1119 N   0  0  0  0  0  0  0  0  0  0  0  0
   -2.8873    1.4384    0.9026 C   0  0  0  0  0  0  0  0  0  0  0  0
   -4.2191    1.1151    1.5921 C   0  0  0  0  0  0  0  0  0  0  0  0
   -5.2000    1.2649    0.6068 O   0  0  0  0  0  0  0  0  0  0  0  0
   -5.1444    0.2196   -0.3077 C   0  0  0  0  0  0  0  0  0  0  0  0
   -3.8040    0.1336   -0.9984 C   0  0  0  0  0  0  0  0  0  0  0  0
   -0.3075    0.5174   -0.4162 C   0  0  0  0  0  0  0  0  0  0  0  0
   -0.3277    1.9238   -0.5935 N   0  0  0  0  0  0  0  0  0  0  0  0
    3.7624    1.3655    1.3246 H   0  0  0  0  0  0  0  0  0  0  0  0
    3.0463    0.1015    2.4093 H   0  0  0  0  0  0  0  0  0  0  0  0
    4.8076    0.1867    2.1568 H   0  0  0  0  0  0  0  0  0  0  0  0
    3.0653   -1.4843    0.7484 H   0  0  0  0  0  0  0  0  0  0  0  0
    5.7162   -0.6276   -0.4023 H   0  0  0  0  0  0  0  0  0  0  0  0
    5.6279   -1.4047    1.2353 H   0  0  0  0  0  0  0  0  0  0  0  0
    4.9381   -2.2715   -0.2371 H   0  0  0  0  0  0  0  0  0  0  0  0
    3.3656   -0.7938   -1.5842 H   0  0  0  0  0  0  0  0  0  0  0  0
    4.1754    0.7248   -1.1337 H   0  0  0  0  0  0  0  0  0  0  0  0
    2.0149    1.6830   -0.8551 H   0  0  0  0  0  0  0  0  0  0  0  0
   -3.0345    2.4515    0.4528 H   0  0  0  0  0  0  0  0  0  0  0  0
   -2.0504    1.4520    1.6343 H   0  0  0  0  0  0  0  0  0  0  0  0
   -4.1478    0.0263    1.8702 H   0  0  0  0  0  0  0  0  0  0  0  0
   -4.3997    1.7525    2.4551 H   0  0  0  0  0  0  0  0  0  0  0  0
   -5.9076    0.4206   -1.0882 H   0  0  0  0  0  0  0  0  0  0  0  0
   -5.4098   -0.7370    0.1667 H   0  0  0  0  0  0  0  0  0  0  0  0
   -3.7335   -0.8763   -1.4527 H   0  0  0  0  0  0  0  0  0  0  0  0
   -3.8075    0.9295   -1.7848 H   0  0  0  0  0  0  0  0  0  0  0  0
    0.2534    2.5875   -0.0064 H   0  0  0  0  0  0  0  0  0  0  0  0
   -0.9227    2.3794   -1.3193 H   0  0  0  0  0  0  0  0  0  0  0  0
  1  2  1  0
  2  3  1  0
  2  4  1  0
  4  5  1  0
  5  6  1  0
  6  7  2  0
  7  8  1  0
  8  9  1  0
  9 10  3  0
  8 11  2  0
 11 12  1  0
 12 13  1  0
 13 14  1  0
 14 15  1  0
 15 16  1  0
 16 17  1  0
 17 18  1  0
 12 19  2  0
 19 20  1  0
 19  6  1  0
 18 13  1  0
  1 21  1  0
  1 22  1  0
  1 23  1  0
  2 24  1  0
  3 25  1  0
  3 26  1  0
  3 27  1  0
  4 28  1  0
  4 29  1  0
  5 30  1  0
 14 31  1  0
 14 32  1  0
 15 33  1  0
 15 34  1  0
 17 35  1  0
 17 36  1  0
 18 37  1  0
 18 38  1  0
 20 39  1  0
 20 40  1  0
M  END
$$$$
