
     RDKit          3D

 57 61  0  0  0  0  0  0  0  0999 V2000
    7.9030    3.6012    0.8083 C   0  0  0  0  0  0  0  0  0  0  0  0
    7.6891    2.2282    0.5633 O   0  0  0  0  0  0  0  0  0  0  0  0
    6.4038    1.7355    0.5820 C   0  0  0  0  0  0  0  0  0  0  0  0
    5.3579    2.5854    0.8374 C   0  0  0  0  0  0  0  0  0  0  0  0
    4.0604    2.1346    0.8656 C   0  0  0  0  0  0  0  0  0  0  0  0
    3.7490    0.7900    0.6351 C   0  0  0  0  0  0  0  0  0  0  0  0
    2.3602    0.4133    0.6552 N   0  0  0  0  0  0  0  0  0  0  0  0
    1.3689    1.4378    0.6471 C   0  0  0  0  0  0  0  0  0  0  0  0
    0.0215    0.9870    0.3263 C   0  0  0  0  0  0  0  0  0  0  0  0
   -0.9871    1.9595    0.0824 C   0  0  0  0  0  0  0  0  0  0  0  0
   -2.2142    1.5324   -0.1478 N   0  0  0  0  0  0  0  0  0  0  0  0
   -2.6098    0.2645   -0.1754 C   0  0  0  0  0  0  0  0  0  0  0  0
   -3.9659   -0.1443   -0.4294 N   0  0  0  0  0  0  0  0  0  0  0  0
   -5.0548    0.6703   -0.7110 C   0  0  0  0  0  0  0  0  0  0  0  0
   -6.3369    0.1153   -0.7553 C   0  0  0  0  0  0  0  0  0  0  0  0
   -7.4530    0.8700   -1.0369 C   0  0  0  0  0  0  0  0  0  0  0  0
   -7.3412    2.2179   -1.2882 C   0  0  0  0  0  0  0  0  0  0  0  0
   -8.4713    2.9365   -1.5639 F   0  0  0  0  0  0  0  0  0  0  0  0
   -6.1023    2.7891   -1.2525 C   0  0  0  0  0  0  0  0  0  0  0  0
   -4.9853    2.0070   -0.9656 C   0  0  0  0  0  0  0  0  0  0  0  0
   -1.6614   -0.6618    0.0530 N   0  0  0  0  0  0  0  0  0  0  0  0
   -0.3616   -0.3150    0.3001 C   0  0  0  0  0  0  0  0  0  0  0  0
    0.5984   -1.3462    0.4680 N   0  0  0  0  0  0  0  0  0  0  0  0
    0.2676   -2.7552    0.4672 C   0  0  0  0  0  0  0  0  0  0  0  0
   -0.7607   -3.1666    1.4614 C   0  0  0  0  0  0  0  0  0  0  0  0
   -1.3577   -4.4188    0.8526 C   0  0  0  0  0  0  0  0  0  0  0  0
   -1.4554   -4.0591   -0.6073 C   0  0  1  0  0  0  0  0  0  0  0  0
   -2.7190   -3.4880   -0.8443 O   0  0  0  0  0  0  0  0  0  0  0  0
   -0.3337   -3.0846   -0.8882 C   0  0  0  0  0  0  0  0  0  0  0  0
    1.9698   -0.9421    0.6504 C   0  0  0  0  0  0  0  0  0  0  0  0
    2.7894   -1.8970    0.8083 O   0  0  0  0  0  0  0  0  0  0  0  0
    4.7742   -0.0601    0.3807 C   0  0  0  0  0  0  0  0  0  0  0  0
    6.1010    0.4215    0.3563 C   0  0  0  0  0  0  0  0  0  0  0  0
    7.7094    3.8711    1.8491 H   0  0  0  0  0  0  0  0  0  0  0  0
    8.9676    3.8020    0.5048 H   0  0  0  0  0  0  0  0  0  0  0  0
    7.2923    4.1871    0.0784 H   0  0  0  0  0  0  0  0  0  0  0  0
    5.5509    3.6548    1.0257 H   0  0  0  0  0  0  0  0  0  0  0  0
    3.2327    2.8057    1.0713 H   0  0  0  0  0  0  0  0  0  0  0  0
    1.2973    1.9781    1.6252 H   0  0  0  0  0  0  0  0  0  0  0  0
    1.6567    2.2795   -0.0686 H   0  0  0  0  0  0  0  0  0  0  0  0
   -0.6680    2.9829    0.1045 H   0  0  0  0  0  0  0  0  0  0  0  0
   -4.1650   -1.2036   -0.4012 H   0  0  0  0  0  0  0  0  0  0  0  0
   -6.4337   -0.9293   -0.5611 H   0  0  0  0  0  0  0  0  0  0  0  0
   -8.4566    0.4174   -1.0679 H   0  0  0  0  0  0  0  0  0  0  0  0
   -5.9962    3.8395   -1.4460 H   0  0  0  0  0  0  0  0  0  0  0  0
   -4.0130    2.5207   -0.9576 H   0  0  0  0  0  0  0  0  0  0  0  0
    1.2038   -3.3756    0.6259 H   0  0  0  0  0  0  0  0  0  0  0  0
   -1.5174   -2.3990    1.6023 H   0  0  0  0  0  0  0  0  0  0  0  0
   -0.2832   -3.4821    2.4261 H   0  0  0  0  0  0  0  0  0  0  0  0
   -0.6473   -5.2493    0.9597 H   0  0  0  0  0  0  0  0  0  0  0  0
   -2.3542   -4.6424    1.2913 H   0  0  0  0  0  0  0  0  0  0  0  0
   -1.3996   -4.9679   -1.2608 H   0  0  0  0  0  0  0  0  0  0  0  0
   -3.3716   -4.1547   -1.1299 H   0  0  0  0  0  0  0  0  0  0  0  0
    0.4013   -3.6508   -1.5136 H   0  0  0  0  0  0  0  0  0  0  0  0
   -0.7455   -2.2300   -1.4208 H   0  0  0  0  0  0  0  0  0  0  0  0
    4.6185   -1.1171    0.1759 H   0  0  0  0  0  0  0  0  0  0  0  0
    6.8778   -0.2951    0.1501 H   0  0  0  0  0  0  0  0  0  0  0  0
  1  2  1  0
  2  3  1  0
  3  4  2  0
  4  5  1  0
  5  6  2  0
  6  7  1  0
  7  8  1  0
  8  9  1  0
  9 10  2  0
 10 11  1  0
 11 12  2  0
 12 13  1  0
 13 14  1  0
 14 15  2  0
 15 16  1  0
 16 17  2  0
 17 18  1  0
 17 19  1  0
 19 20  2  0
 12 21  1  0
 21 22  2  0
 22 23  1  0
 23 24  1  0
 24 25  1  0
 25 26  1  0
 26 27  1  0
 27 28  1  0
 27 29  1  0
 23 30  1  0
 30 31  2  0
  6 32  1  0
 32 33  2  0
 33  3  1  0
 30  7  1  0
 22  9  1  0
 29 24  1  0
 20 14  1  0
  1 34  1  0
  1 35  1  0
  1 36  1  0
  4 37  1  0
  5 38  1  0
  8 39  1  0
  8 40  1  0
 10 41  1  0
 13 42  1  0
 15 43  1  0
 16 44  1  0
 19 45  1  0
 20 46  1  0
 24 47  1  0
 25 48  1  0
 25 49  1  0
 26 50  1  0
 26 51  1  0
 27 52  1  6
 28 53  1  0
 29 54  1  0
 29 55  1  0
 32 56  1  0
 33 57  1  0
M  END
$$$$
