
     RDKit          3D

 66 71  0  0  0  0  0  0  0  0999 V2000
   -0.6044    5.6220   -0.8174 C   0  0  0  0  0  0  0  0  0  0  0  0
    0.0162    5.2797    0.5159 C   0  0  0  0  0  0  0  0  0  0  0  0
    0.2898    3.9341    0.6903 O   0  0  0  0  0  0  0  0  0  0  0  0
    1.1356    3.1776   -0.1069 C   0  0  0  0  0  0  0  0  0  0  0  0
    1.7314    3.8149   -1.1298 N   0  0  0  0  0  0  0  0  0  0  0  0
    2.4890    2.8890   -1.7446 C   0  0  0  0  0  0  0  0  0  0  0  0
    2.3188    1.7103   -1.0580 C   0  0  0  0  0  0  0  0  0  0  0  0
    1.4770    1.8779   -0.0368 N   0  0  0  0  0  0  0  0  0  0  0  0
    0.9658    0.9553    0.9228 C   0  0  0  0  0  0  0  0  0  0  0  0
   -0.3421    0.3706    0.5358 C   0  0  0  0  0  0  0  0  0  0  0  0
   -0.6489   -0.7630   -0.1752 C   0  0  0  0  0  0  0  0  0  0  0  0
   -1.9171   -1.1980   -0.4729 C   0  0  0  0  0  0  0  0  0  0  0  0
   -3.0125   -0.4764   -0.0482 C   0  0  0  0  0  0  0  0  0  0  0  0
   -2.7946    0.6766    0.6731 C   0  0  0  0  0  0  0  0  0  0  0  0
   -1.4981    1.0575    0.9379 C   0  0  0  0  0  0  0  0  0  0  0  0
   -4.3009   -1.0002   -0.4077 C   0  0  0  0  0  0  0  0  0  0  0  0
   -4.5655   -1.0288   -1.7670 C   0  0  0  0  0  0  0  0  0  0  0  0
   -5.7615   -1.4985   -2.2689 C   0  0  0  0  0  0  0  0  0  0  0  0
   -6.7346   -1.9581   -1.3930 C   0  0  0  0  0  0  0  0  0  0  0  0
   -6.4884   -1.9383   -0.0175 C   0  0  0  0  0  0  0  0  0  0  0  0
   -5.2798   -1.4606    0.4371 C   0  0  0  0  0  0  0  0  0  0  0  0
   -5.0001   -1.4366    1.8527 C   0  0  0  0  0  0  0  0  0  0  0  0
   -3.9257   -1.0520    2.5627 N   0  0  0  0  0  0  0  0  0  0  0  0
   -4.1457   -1.2217    3.8335 O   0  0  0  0  0  0  0  0  0  0  0  0
   -5.3255   -1.7092    4.0681 C   0  0  0  0  0  0  0  0  0  0  0  0
   -5.8892   -2.0034    5.1337 O   0  0  0  0  0  0  0  0  0  0  0  0
   -5.8404   -1.8364    2.8370 N   0  0  0  0  0  0  0  0  0  0  0  0
    3.0289    0.6343   -1.5358 C   0  0  0  0  0  0  0  0  0  0  0  0
    3.8663    0.6876   -2.6306 C   0  0  0  0  0  0  0  0  0  0  0  0
    4.0462    1.8448   -3.3245 C   0  0  0  0  0  0  0  0  0  0  0  0
    3.3287    2.9082   -2.8290 C   0  0  0  0  0  0  0  0  0  0  0  0
    2.9550   -0.6511   -0.8664 C   0  0  0  0  0  0  0  0  0  0  0  0
    2.8541   -1.7148   -0.2590 O   0  0  0  0  0  0  0  0  0  0  0  0
    3.6541   -1.7494   -1.3209 O   0  0  0  0  0  0  0  0  0  0  0  0
    3.6873   -3.0477   -0.8016 C   0  0  0  0  0  0  0  0  0  0  0  0
    4.1676   -3.0776    0.6228 C   0  0  0  0  0  0  0  0  0  0  0  0
    5.5238   -2.9196    0.9331 C   0  0  0  0  0  0  0  0  0  0  0  0
    6.6340   -2.7107   -0.0241 C   0  0  0  0  0  0  0  0  0  0  0  0
    5.6276   -2.9906    2.2251 O   0  0  0  0  0  0  0  0  0  0  0  0
    4.4248   -3.1832    2.7533 C   0  0  0  0  0  0  0  0  0  0  0  0
    4.0530   -3.3100    3.9479 O   0  0  0  0  0  0  0  0  0  0  0  0
    3.5588   -3.2327    1.7701 O   0  0  0  0  0  0  0  0  0  0  0  0
   -0.9521    6.6852   -0.7351 H   0  0  0  0  0  0  0  0  0  0  0  0
    0.0921    5.6046   -1.6594 H   0  0  0  0  0  0  0  0  0  0  0  0
   -1.5279    5.0234   -0.9727 H   0  0  0  0  0  0  0  0  0  0  0  0
   -0.7603    5.5485    1.2799 H   0  0  0  0  0  0  0  0  0  0  0  0
    0.8680    5.9510    0.7220 H   0  0  0  0  0  0  0  0  0  0  0  0
    1.6939    0.1932    1.2613 H   0  0  0  0  0  0  0  0  0  0  0  0
    0.7722    1.5472    1.8715 H   0  0  0  0  0  0  0  0  0  0  0  0
    0.1951   -1.3372   -0.5131 H   0  0  0  0  0  0  0  0  0  0  0  0
   -2.0117   -2.1113   -1.0425 H   0  0  0  0  0  0  0  0  0  0  0  0
   -3.6494    1.2461    1.0063 H   0  0  0  0  0  0  0  0  0  0  0  0
   -1.4287    1.9730    1.5115 H   0  0  0  0  0  0  0  0  0  0  0  0
   -3.8674   -0.6927   -2.5029 H   0  0  0  0  0  0  0  0  0  0  0  0
   -5.9564   -1.5146   -3.3534 H   0  0  0  0  0  0  0  0  0  0  0  0
   -7.6565   -2.3189   -1.8057 H   0  0  0  0  0  0  0  0  0  0  0  0
   -7.2573   -2.2991    0.6420 H   0  0  0  0  0  0  0  0  0  0  0  0
   -6.8164   -2.2143    2.6380 H   0  0  0  0  0  0  0  0  0  0  0  0
    4.4153   -0.1977   -2.9803 H   0  0  0  0  0  0  0  0  0  0  0  0
    4.6723    1.9997   -4.1904 H   0  0  0  0  0  0  0  0  0  0  0  0
    3.4103    3.8658   -3.3155 H   0  0  0  0  0  0  0  0  0  0  0  0
    4.4555   -3.6141   -1.4004 H   0  0  0  0  0  0  0  0  0  0  0  0
    2.7411   -3.6160   -0.9367 H   0  0  0  0  0  0  0  0  0  0  0  0
    7.2780   -1.8896    0.3671 H   0  0  0  0  0  0  0  0  0  0  0  0
    7.2684   -3.6301   -0.0075 H   0  0  0  0  0  0  0  0  0  0  0  0
    6.2631   -2.4741   -1.0415 H   0  0  0  0  0  0  0  0  0  0  0  0
  1  2  1  0
  2  3  1  0
  3  4  1  0
  4  5  2  0
  5  6  1  0
  6  7  2  0
  7  8  1  0
  8  9  1  0
  9 10  1  0
 10 11  2  0
 11 12  1  0
 12 13  2  0
 13 14  1  0
 14 15  2  0
 13 16  1  0
 16 17  2  0
 17 18  1  0
 18 19  2  0
 19 20  1  0
 20 21  2  0
 21 22  1  0
 22 23  2  0
 23 24  1  0
 24 25  1  0
 25 26  2  0
 25 27  1  0
  7 28  1  0
 28 29  2  0
 29 30  1  0
 30 31  2  0
 28 32  1  0
 32 33  2  0
 32 34  1  0
 34 35  1  0
 35 36  1  0
 36 37  2  0
 37 38  1  0
 37 39  1  0
 39 40  1  0
 40 41  2  0
 40 42  1  0
  8  4  1  0
 15 10  1  0
 21 16  1  0
 27 22  1  0
 42 36  1  0
 31  6  1  0
  1 43  1  0
  1 44  1  0
  1 45  1  0
  2 46  1  0
  2 47  1  0
  9 48  1  0
  9 49  1  0
 11 50  1  0
 12 51  1  0
 14 52  1  0
 15 53  1  0
 17 54  1  0
 18 55  1  0
 19 56  1  0
 20 57  1  0
 27 58  1  0
 29 59  1  0
 30 60  1  0
 31 61  1  0
 35 62  1  0
 35 63  1  0
 38 64  1  0
 38 65  1  0
 38 66  1  0
M  END
$$$$
