
     RDKit          3D

 53 55  0  0  0  0  0  0  0  0999 V2000
    9.2418   -0.9806   -0.2439 C   0  0  0  0  0  0  0  0  0  0  0  0
    8.5899    0.2522   -0.3263 O   0  0  0  0  0  0  0  0  0  0  0  0
    7.1988    0.2642   -0.4501 C   0  0  0  0  0  0  0  0  0  0  0  0
    6.4608   -0.9001   -0.4928 C   0  0  0  0  0  0  0  0  0  0  0  0
    5.0868   -0.8831   -0.6152 C   0  0  0  0  0  0  0  0  0  0  0  0
    4.3877    0.3053   -0.7006 C   0  0  0  0  0  0  0  0  0  0  0  0
    2.9273    0.3324   -0.8308 C   0  0  0  0  0  0  0  0  0  0  0  0
    2.3056    1.3463   -1.5196 C   0  0  0  0  0  0  0  0  0  0  0  0
    0.9314    1.3747   -1.6441 C   0  0  0  0  0  0  0  0  0  0  0  0
    0.1379    0.3950   -1.0865 C   0  0  0  0  0  0  0  0  0  0  0  0
   -1.6294    0.4308   -1.2447 S   0  0  0  0  0  6  0  0  0  0  0  0
   -2.0494   -1.0307   -1.1640 O   0  0  0  0  0  0  0  0  0  0  0  0
   -2.0382    0.9344   -2.5899 O   0  0  0  0  0  0  0  0  0  0  0  0
   -2.3376    1.2882    0.0488 N   0  0  0  0  0  0  0  0  0  0  0  0
   -3.1130    0.3913    0.9034 C   0  0  1  0  0  0  0  0  0  0  0  0
   -2.4523    0.2935    2.2441 C   0  0  0  0  0  0  0  0  0  0  0  0
   -1.4051    0.9873    2.4790 O   0  0  0  0  0  0  0  0  0  0  0  0
   -2.8927   -0.5060    3.2708 O   0  0  0  0  0  0  0  0  0  0  0  0
   -4.4994    0.9331    0.9578 C   0  0  0  0  0  0  0  0  0  0  0  0
   -5.1364    1.0032   -0.3950 C   0  0  0  0  0  0  0  0  0  0  0  0
   -5.5542   -0.3116   -0.9386 C   0  0  0  0  0  0  0  0  0  0  0  0
   -6.2298   -1.2452    0.0078 C   0  0  0  0  0  0  0  0  0  0  0  0
   -5.6605   -1.2291    1.4118 C   0  0  0  0  0  0  0  0  0  0  0  0
   -5.4177    0.1973    1.8736 C   0  0  0  0  0  0  0  0  0  0  0  0
    0.7785   -0.6120   -0.4006 C   0  0  0  0  0  0  0  0  0  0  0  0
    2.1366   -0.6491   -0.2719 C   0  0  0  0  0  0  0  0  0  0  0  0
    5.1290    1.4684   -0.6577 C   0  0  0  0  0  0  0  0  0  0  0  0
    6.5040    1.4523   -0.5352 C   0  0  0  0  0  0  0  0  0  0  0  0
    8.9224   -1.6940   -1.0391 H   0  0  0  0  0  0  0  0  0  0  0  0
   10.3394   -0.7931   -0.3624 H   0  0  0  0  0  0  0  0  0  0  0  0
    9.0987   -1.4681    0.7322 H   0  0  0  0  0  0  0  0  0  0  0  0
    6.9804   -1.8310   -0.4283 H   0  0  0  0  0  0  0  0  0  0  0  0
    4.4961   -1.7945   -0.6496 H   0  0  0  0  0  0  0  0  0  0  0  0
    2.8913    2.1513   -1.9829 H   0  0  0  0  0  0  0  0  0  0  0  0
    0.4209    2.1723   -2.1876 H   0  0  0  0  0  0  0  0  0  0  0  0
   -1.6740    1.8593    0.5925 H   0  0  0  0  0  0  0  0  0  0  0  0
   -3.0777   -0.6058    0.4755 H   0  0  0  0  0  0  0  0  0  0  0  0
   -2.3114   -0.8501    4.0235 H   0  0  0  0  0  0  0  0  0  0  0  0
   -4.4561    1.9905    1.3325 H   0  0  0  0  0  0  0  0  0  0  0  0
   -6.0295    1.6582   -0.3312 H   0  0  0  0  0  0  0  0  0  0  0  0
   -4.4056    1.4535   -1.1017 H   0  0  0  0  0  0  0  0  0  0  0  0
   -4.7389   -0.8384   -1.4967 H   0  0  0  0  0  0  0  0  0  0  0  0
   -6.3215   -0.0961   -1.7509 H   0  0  0  0  0  0  0  0  0  0  0  0
   -7.3384   -1.1418    0.0260 H   0  0  0  0  0  0  0  0  0  0  0  0
   -6.0531   -2.2937   -0.3727 H   0  0  0  0  0  0  0  0  0  0  0  0
   -4.7565   -1.8410    1.5248 H   0  0  0  0  0  0  0  0  0  0  0  0
   -6.4380   -1.6514    2.0814 H   0  0  0  0  0  0  0  0  0  0  0  0
   -5.0267    0.1804    2.8821 H   0  0  0  0  0  0  0  0  0  0  0  0
   -6.4039    0.7312    1.8616 H   0  0  0  0  0  0  0  0  0  0  0  0
    0.1716   -1.3892    0.0435 H   0  0  0  0  0  0  0  0  0  0  0  0
    2.6524   -1.4360    0.2653 H   0  0  0  0  0  0  0  0  0  0  0  0
    4.5774    2.4066   -0.7251 H   0  0  0  0  0  0  0  0  0  0  0  0
    7.0800    2.3814   -0.5023 H   0  0  0  0  0  0  0  0  0  0  0  0
  1  2  1  0
  2  3  1  0
  3  4  2  0
  4  5  1  0
  5  6  2  0
  6  7  1  0
  7  8  2  0
  8  9  1  0
  9 10  2  0
 10 11  1  0
 11 12  2  0
 11 13  2  0
 11 14  1  0
 14 15  1  0
 15 16  1  0
 16 17  2  0
 16 18  1  0
 15 19  1  0
 19 20  1  0
 20 21  1  0
 21 22  1  0
 22 23  1  0
 23 24  1  0
 10 25  1  0
 25 26  2  0
  6 27  1  0
 27 28  2  0
 28  3  1  0
 26  7  1  0
 24 19  1  0
  1 29  1  0
  1 30  1  0
  1 31  1  0
  4 32  1  0
  5 33  1  0
  8 34  1  0
  9 35  1  0
 14 36  1  0
 15 37  1  6
 18 38  1  0
 19 39  1  0
 20 40  1  0
 20 41  1  0
 21 42  1  0
 21 43  1  0
 22 44  1  0
 22 45  1  0
 23 46  1  0
 23 47  1  0
 24 48  1  0
 24 49  1  0
 25 50  1  0
 26 51  1  0
 27 52  1  0
 28 53  1  0
M  END
$$$$
