
     RDKit          3D

 51 55  0  0  0  0  0  0  0  0999 V2000
   -4.2678   -0.1529    3.1538 C   0  0  0  0  0  0  0  0  0  0  0  0
   -2.9361   -0.1589    2.5246 C   0  0  0  0  0  0  0  0  0  0  0  0
   -1.8687   -0.6911    3.2330 C   0  0  0  0  0  0  0  0  0  0  0  0
   -0.6337   -0.6753    2.6003 C   0  0  0  0  0  0  0  0  0  0  0  0
   -0.5080   -0.1433    1.3165 C   0  0  0  0  0  0  0  0  0  0  0  0
    0.8305   -0.2224    0.8519 N   0  0  0  0  0  0  0  0  0  0  0  0
    1.2589   -1.3683    0.1411 C   0  0  0  0  0  0  0  0  0  0  0  0
    0.3279   -2.2346   -0.0036 O   0  0  0  0  0  0  0  0  0  0  0  0
    2.5730   -1.7168   -0.4476 C   0  0  0  0  0  0  0  0  0  0  0  0
    2.6524   -2.6389   -1.6047 C   0  0  0  0  0  0  0  0  0  0  0  0
    2.9263   -3.1767   -0.2612 C   0  0  0  0  0  0  0  0  0  0  0  0
    3.6538   -0.7390   -0.2117 C   0  0  0  0  0  0  0  0  0  0  0  0
    4.0101   -0.1857    0.9864 C   0  0  0  0  0  0  0  0  0  0  0  0
    5.0032    0.7286    1.1808 C   0  0  0  0  0  0  0  0  0  0  0  0
    5.7402    1.1614    0.0985 C   0  0  0  0  0  0  0  0  0  0  0  0
    6.7847    2.0623    0.0002 O   0  0  0  0  0  0  0  0  0  0  0  0
    7.3433    1.9227   -1.2998 C   0  0  0  0  0  0  0  0  0  0  0  0
    7.6385    3.1566   -1.8436 F   0  0  0  0  0  0  0  0  0  0  0  0
    8.4849    1.1597   -1.1363 F   0  0  0  0  0  0  0  0  0  0  0  0
    6.3287    1.2557   -2.0185 O   0  0  0  0  0  0  0  0  0  0  0  0
    5.4369    0.6442   -1.1489 C   0  0  0  0  0  0  0  0  0  0  0  0
    4.4175   -0.2822   -1.2898 C   0  0  0  0  0  0  0  0  0  0  0  0
   -1.5655    0.3542    0.6833 N   0  0  0  0  0  0  0  0  0  0  0  0
   -2.7920    0.3628    1.2557 C   0  0  0  0  0  0  0  0  0  0  0  0
   -3.8876    0.9308    0.4786 C   0  0  0  0  0  0  0  0  0  0  0  0
   -3.9442    0.5396   -0.8442 C   0  0  0  0  0  0  0  0  0  0  0  0
   -4.9553    1.0393   -1.6362 C   0  0  0  0  0  0  0  0  0  0  0  0
   -5.9114    1.9129   -1.1614 C   0  0  0  0  0  0  0  0  0  0  0  0
   -5.8517    2.3024    0.1636 C   0  0  0  0  0  0  0  0  0  0  0  0
   -4.8380    1.8001    0.9531 C   0  0  0  0  0  0  0  0  0  0  0  0
   -5.1458    0.7147   -3.0625 C   0  0  0  0  0  0  0  0  0  0  0  0
   -4.3634   -0.1278   -3.8401 O   0  0  0  0  0  0  0  0  0  0  0  0
   -6.0466    1.1404   -3.8273 O   0  0  0  0  0  0  0  0  0  0  0  0
   -4.3309   -1.0716    3.8025 H   0  0  0  0  0  0  0  0  0  0  0  0
   -5.1037   -0.2404    2.4444 H   0  0  0  0  0  0  0  0  0  0  0  0
   -4.3786    0.6931    3.8814 H   0  0  0  0  0  0  0  0  0  0  0  0
   -2.0262   -1.0862    4.2174 H   0  0  0  0  0  0  0  0  0  0  0  0
    0.1708   -1.1025    3.1942 H   0  0  0  0  0  0  0  0  0  0  0  0
    1.5642    0.5068    0.9755 H   0  0  0  0  0  0  0  0  0  0  0  0
    3.5216   -2.4962   -2.2776 H   0  0  0  0  0  0  0  0  0  0  0  0
    1.7456   -2.9555   -2.1526 H   0  0  0  0  0  0  0  0  0  0  0  0
    3.9253   -3.3723    0.1283 H   0  0  0  0  0  0  0  0  0  0  0  0
    2.1438   -3.8898    0.1168 H   0  0  0  0  0  0  0  0  0  0  0  0
    3.4833   -0.4903    1.8667 H   0  0  0  0  0  0  0  0  0  0  0  0
    5.2317    1.1283    2.1715 H   0  0  0  0  0  0  0  0  0  0  0  0
    4.2753   -0.6102   -2.3072 H   0  0  0  0  0  0  0  0  0  0  0  0
   -3.2774   -0.1360   -1.3776 H   0  0  0  0  0  0  0  0  0  0  0  0
   -6.7221    2.3296   -1.7472 H   0  0  0  0  0  0  0  0  0  0  0  0
   -6.5706    2.9881    0.6083 H   0  0  0  0  0  0  0  0  0  0  0  0
   -4.7797    2.0901    1.9715 H   0  0  0  0  0  0  0  0  0  0  0  0
   -4.7673   -0.9594   -4.2875 H   0  0  0  0  0  0  0  0  0  0  0  0
  1  2  1  0
  2  3  2  0
  3  4  1  0
  4  5  2  0
  5  6  1  0
  6  7  1  0
  7  8  2  0
  7  9  1  0
  9 10  1  0
 10 11  1  0
  9 12  1  0
 12 13  2  0
 13 14  1  0
 14 15  2  0
 15 16  1  0
 16 17  1  0
 17 18  1  0
 17 19  1  0
 17 20  1  0
 20 21  1  0
 21 22  2  0
  5 23  1  0
 23 24  2  0
 24 25  1  0
 25 26  2  0
 26 27  1  0
 27 28  2  0
 28 29  1  0
 29 30  2  0
 27 31  1  0
 31 32  1  0
 31 33  2  0
 24  2  1  0
 30 25  1  0
 11  9  1  0
 22 12  1  0
 21 15  1  0
  1 34  1  0
  1 35  1  0
  1 36  1  0
  3 37  1  0
  4 38  1  0
  6 39  1  0
 10 40  1  0
 10 41  1  0
 11 42  1  0
 11 43  1  0
 13 44  1  0
 14 45  1  0
 22 46  1  0
 26 47  1  0
 28 48  1  0
 29 49  1  0
 30 50  1  0
 32 51  1  0
M  END
$$$$
