
     RDKit          3D

 61 64  0  0  0  0  0  0  0  0999 V2000
   -7.7592   -1.0728    0.1093 C   0  0  1  0  0  0  0  0  0  0  0  0
   -7.5752   -2.2247   -0.8862 C   0  0  0  0  0  0  0  0  0  0  0  0
   -6.4200   -0.7060    0.6773 C   0  0  0  0  0  0  0  0  0  0  0  0
   -5.6836    0.2291   -0.1468 N   0  0  0  0  0  0  0  0  0  0  0  0
   -6.4726    1.0262   -1.0593 C   0  0  0  0  0  0  0  0  0  0  0  0
   -7.8378    1.1860   -0.3925 C   0  0  1  0  0  0  0  0  0  0  0  0
   -8.6901    2.1836   -1.1436 C   0  0  0  0  0  0  0  0  0  0  0  0
   -8.4753   -0.0311   -0.4295 O   0  0  0  0  0  0  0  0  0  0  0  0
   -4.2633    0.3385   -0.0486 C   0  0  0  0  0  0  0  0  0  0  0  0
   -3.5295    1.3124   -0.6677 C   0  0  0  0  0  0  0  0  0  0  0  0
   -2.1803    1.4306   -0.5891 C   0  0  0  0  0  0  0  0  0  0  0  0
   -1.4360    0.5289    0.1575 C   0  0  0  0  0  0  0  0  0  0  0  0
   -0.0251    0.6923    0.2177 N   0  0  0  0  0  0  0  0  0  0  0  0
    0.9920   -0.0350    0.9127 C   0  0  0  0  0  0  0  0  0  0  0  0
    0.5788   -0.9975    1.5957 O   0  0  0  0  0  0  0  0  0  0  0  0
    2.3729    0.4124    0.7589 C   0  0  0  0  0  0  0  0  0  0  0  0
    2.4895    1.7917    0.9512 C   0  0  0  0  0  0  0  0  0  0  0  0
    3.6983    2.4425    0.8427 C   0  0  0  0  0  0  0  0  0  0  0  0
    4.7746    1.6349    0.5332 C   0  0  0  0  0  0  0  0  0  0  0  0
    4.7098    0.2462    0.3311 C   0  0  0  0  0  0  0  0  0  0  0  0
    3.4677   -0.3185    0.4580 C   0  0  0  0  0  0  0  0  0  0  0  0
    3.2911   -1.7549    0.2589 C   0  0  0  0  0  0  0  0  0  0  0  0
    5.9653   -0.4185    0.0280 C   0  0  0  0  0  0  0  0  0  0  0  0
    6.6064    0.2158   -1.0442 C   0  0  0  0  0  0  0  0  0  0  0  0
    7.8519   -0.2038   -1.5312 C   0  0  0  0  0  0  0  0  0  0  0  0
    8.4134   -1.2852   -0.8887 C   0  0  0  0  0  0  0  0  0  0  0  0
    9.6669   -1.6917   -1.3931 O   0  0  0  0  0  0  0  0  0  0  0  0
   10.8265   -1.0833   -0.8048 C   0  0  0  0  0  0  0  0  0  0  0  0
   10.8862   -1.3428    0.5472 F   0  0  0  0  0  0  0  0  0  0  0  0
   11.9732   -1.5661   -1.3953 F   0  0  0  0  0  0  0  0  0  0  0  0
   10.7724    0.2911   -0.9599 F   0  0  0  0  0  0  0  0  0  0  0  0
    7.8139   -1.9279    0.1610 C   0  0  0  0  0  0  0  0  0  0  0  0
    6.5701   -1.4946    0.6339 C   0  0  0  0  0  0  0  0  0  0  0  0
   -2.1887   -0.4292    0.7624 C   0  0  0  0  0  0  0  0  0  0  0  0
   -3.5253   -0.5167    0.6634 N   0  0  0  0  0  0  0  0  0  0  0  0
   -8.3396   -1.5101    0.9779 H   0  0  0  0  0  0  0  0  0  0  0  0
   -7.7597   -3.2101   -0.3659 H   0  0  0  0  0  0  0  0  0  0  0  0
   -6.5312   -2.2738   -1.2516 H   0  0  0  0  0  0  0  0  0  0  0  0
   -8.2286   -2.1249   -1.7711 H   0  0  0  0  0  0  0  0  0  0  0  0
   -5.8366   -1.6615    0.7378 H   0  0  0  0  0  0  0  0  0  0  0  0
   -6.4986   -0.3209    1.7327 H   0  0  0  0  0  0  0  0  0  0  0  0
   -6.0483    1.9910   -1.3292 H   0  0  0  0  0  0  0  0  0  0  0  0
   -6.6993    0.4392   -1.9952 H   0  0  0  0  0  0  0  0  0  0  0  0
   -7.6661    1.5816    0.6167 H   0  0  0  0  0  0  0  0  0  0  0  0
   -8.2831    3.2131   -1.0844 H   0  0  0  0  0  0  0  0  0  0  0  0
   -9.6745    2.2119   -0.6266 H   0  0  0  0  0  0  0  0  0  0  0  0
   -8.8282    1.8817   -2.2073 H   0  0  0  0  0  0  0  0  0  0  0  0
   -4.0388    2.0645   -1.2755 H   0  0  0  0  0  0  0  0  0  0  0  0
   -1.6810    2.2529   -1.1222 H   0  0  0  0  0  0  0  0  0  0  0  0
    0.3750    1.4946   -0.3531 H   0  0  0  0  0  0  0  0  0  0  0  0
    1.6521    2.4620    1.1983 H   0  0  0  0  0  0  0  0  0  0  0  0
    3.8453    3.5006    0.9799 H   0  0  0  0  0  0  0  0  0  0  0  0
    5.7477    2.1416    0.4421 H   0  0  0  0  0  0  0  0  0  0  0  0
    2.5817   -1.9136   -0.6115 H   0  0  0  0  0  0  0  0  0  0  0  0
    4.2038   -2.3103   -0.0361 H   0  0  0  0  0  0  0  0  0  0  0  0
    2.8944   -2.2754    1.1740 H   0  0  0  0  0  0  0  0  0  0  0  0
    6.2132    1.0817   -1.6015 H   0  0  0  0  0  0  0  0  0  0  0  0
    8.3379    0.2919   -2.3618 H   0  0  0  0  0  0  0  0  0  0  0  0
    8.2714   -2.7742    0.6507 H   0  0  0  0  0  0  0  0  0  0  0  0
    6.0176   -1.9264    1.4511 H   0  0  0  0  0  0  0  0  0  0  0  0
   -1.6853   -1.1689    1.3621 H   0  0  0  0  0  0  0  0  0  0  0  0
  1  2  1  0
  1  3  1  0
  3  4  1  0
  4  5  1  0
  5  6  1  0
  6  7  1  0
  6  8  1  0
  4  9  1  0
  9 10  2  0
 10 11  1  0
 11 12  2  0
 12 13  1  0
 13 14  1  0
 14 15  2  0
 14 16  1  0
 16 17  2  0
 17 18  1  0
 18 19  2  0
 19 20  1  0
 20 21  2  0
 21 22  1  0
 20 23  1  0
 23 24  2  0
 24 25  1  0
 25 26  2  0
 26 27  1  0
 27 28  1  0
 28 29  1  0
 28 30  1  0
 28 31  1  0
 26 32  1  0
 32 33  2  0
 12 34  1  0
 34 35  2  0
  8  1  1  0
 35  9  1  0
 21 16  1  0
 33 23  1  0
  1 36  1  1
  2 37  1  0
  2 38  1  0
  2 39  1  0
  3 40  1  0
  3 41  1  0
  5 42  1  0
  5 43  1  0
  6 44  1  1
  7 45  1  0
  7 46  1  0
  7 47  1  0
 10 48  1  0
 11 49  1  0
 13 50  1  0
 17 51  1  0
 18 52  1  0
 19 53  1  0
 22 54  1  0
 22 55  1  0
 22 56  1  0
 24 57  1  0
 25 58  1  0
 32 59  1  0
 33 60  1  0
 34 61  1  0
M  END
$$$$
