
     RDKit          3D

 30 32  0  0  0  0  0  0  0  0999 V2000
   -4.7352    0.8956   -0.2816 C   0  0  0  0  0  0  0  0  0  0  0  0
   -3.3869    0.2828   -0.2201 C   0  0  0  0  0  0  0  0  0  0  0  0
   -3.1713   -1.0804   -0.1360 C   0  0  0  0  0  0  0  0  0  0  0  0
   -1.9081   -1.6233   -0.0802 C   0  0  0  0  0  0  0  0  0  0  0  0
   -1.7722   -2.9993    0.0032 O   0  0  0  0  0  0  0  0  0  0  0  0
   -0.8289   -0.7677   -0.1100 C   0  0  0  0  0  0  0  0  0  0  0  0
   -0.9863    0.6140   -0.1941 C   0  0  0  0  0  0  0  0  0  0  0  0
   -2.2814    1.1043   -0.2474 C   0  0  0  0  0  0  0  0  0  0  0  0
    0.1739    1.5056   -0.2245 C   0  0  0  0  0  0  0  0  0  0  0  0
   -0.0023    2.7476   -0.3008 O   0  0  0  0  0  0  0  0  0  0  0  0
    1.5079    0.9028   -0.1639 C   0  0  0  0  0  0  0  0  0  0  0  0
    2.6243    1.7144   -0.1904 C   0  0  0  0  0  0  0  0  0  0  0  0
    3.9186    1.1984   -0.1356 C   0  0  0  0  0  0  0  0  0  0  0  0
    5.0227    2.0646   -0.1655 O   0  0  0  0  0  0  0  0  0  0  0  0
    4.1050   -0.1635   -0.0521 C   0  0  0  0  0  0  0  0  0  0  0  0
    2.9858   -0.9660   -0.0261 C   0  0  0  0  0  0  0  0  0  0  0  0
    3.1672   -2.3506    0.0586 O   0  0  0  0  0  0  0  0  0  0  0  0
    1.7076   -0.4508   -0.0806 C   0  0  0  0  0  0  0  0  0  0  0  0
    0.5262   -1.3048   -0.0528 C   0  0  0  0  0  0  0  0  0  0  0  0
    0.6771   -2.5659    0.0241 O   0  0  0  0  0  0  0  0  0  0  0  0
   -4.9974    1.3704    0.7001 H   0  0  0  0  0  0  0  0  0  0  0  0
   -4.7426    1.7249   -1.0212 H   0  0  0  0  0  0  0  0  0  0  0  0
   -5.5181    0.1646   -0.5970 H   0  0  0  0  0  0  0  0  0  0  0  0
   -4.0257   -1.7412   -0.1133 H   0  0  0  0  0  0  0  0  0  0  0  0
   -2.0095   -3.5502    0.8096 H   0  0  0  0  0  0  0  0  0  0  0  0
   -2.3792    2.1894   -0.3130 H   0  0  0  0  0  0  0  0  0  0  0  0
    2.4628    2.7816   -0.2561 H   0  0  0  0  0  0  0  0  0  0  0  0
    5.9345    1.6750   -0.2742 H   0  0  0  0  0  0  0  0  0  0  0  0
    5.1082   -0.6061   -0.0071 H   0  0  0  0  0  0  0  0  0  0  0  0
    2.8232   -2.7662    0.9375 H   0  0  0  0  0  0  0  0  0  0  0  0
  1  2  1  0
  2  3  2  0
  3  4  1  0
  4  5  1  0
  4  6  2  0
  6  7  1  0
  7  8  2  0
  7  9  1  0
  9 10  2  0
  9 11  1  0
 11 12  2  0
 12 13  1  0
 13 14  1  0
 13 15  2  0
 15 16  1  0
 16 17  1  0
 16 18  2  0
 18 19  1  0
 19 20  2  0
  8  2  1  0
 18 11  1  0
 19  6  1  0
  1 21  1  0
  1 22  1  0
  1 23  1  0
  3 24  1  0
  5 25  1  0
  8 26  1  0
 12 27  1  0
 14 28  1  0
 15 29  1  0
 17 30  1  0
M  END
$$$$
