
     RDKit          3D

 60 64  0  0  0  0  0  0  0  0999 V2000
    2.1519   -0.2824    2.8981 O   0  0  0  0  0  0  0  0  0  0  0  0
    2.2233   -0.0017    1.6124 C   0  0  0  0  0  0  0  0  0  0  0  0
    3.5071    0.4666    1.1320 C   0  0  2  0  0  0  0  0  0  0  0  0
    3.6681    1.5351    0.1187 C   0  0  0  0  0  0  0  0  0  0  0  0
    4.1544    0.1009   -0.1487 C   0  0  1  0  0  0  0  0  0  0  0  0
    5.6571   -0.0080   -0.1963 C   0  0  0  0  0  0  0  0  0  0  0  0
    6.2060   -0.8434   -1.1363 C   0  0  0  0  0  0  0  0  0  0  0  0
    7.5838   -0.9995   -1.2478 C   0  0  0  0  0  0  0  0  0  0  0  0
    8.4201   -0.3055   -0.4019 C   0  0  0  0  0  0  0  0  0  0  0  0
    9.9057   -0.4759   -0.5246 C   0  0  0  0  0  0  0  0  0  0  0  0
   10.3770   -0.7437    0.7500 F   0  0  0  0  0  0  0  0  0  0  0  0
   10.4418    0.7129   -0.9841 F   0  0  0  0  0  0  0  0  0  0  0  0
   10.1656   -1.5171   -1.3915 F   0  0  0  0  0  0  0  0  0  0  0  0
    7.8630    0.5236    0.5303 C   0  0  0  0  0  0  0  0  0  0  0  0
    6.4885    0.6765    0.6382 C   0  0  0  0  0  0  0  0  0  0  0  0
    1.0056   -0.2218    0.9656 N   0  0  0  0  0  0  0  0  0  0  0  0
   -0.1741   -0.7191    1.7336 C   0  0  0  0  0  0  0  0  0  0  0  0
   -1.3959   -0.6290    0.8828 C   0  0  0  0  0  0  0  0  0  0  0  0
   -1.5493    0.5549    0.1079 N   0  0  0  0  0  0  0  0  0  0  0  0
   -2.5840    0.2760   -1.2651 S   0  0  0  0  0  6  0  0  0  0  0  0
   -2.0568   -0.7976   -2.1418 O   0  0  0  0  0  0  0  0  0  0  0  0
   -2.6905    1.5759   -2.0129 O   0  0  0  0  0  0  0  0  0  0  0  0
   -4.1981   -0.2029   -0.7271 C   0  0  0  0  0  0  0  0  0  0  0  0
   -5.1846    0.7047   -0.4881 C   0  0  0  0  0  0  0  0  0  0  0  0
   -6.4605    0.3891   -0.0674 C   0  0  0  0  0  0  0  0  0  0  0  0
   -7.4892    1.3623    0.1798 C   0  0  0  0  0  0  0  0  0  0  0  0
   -8.7351    1.1077    0.5867 N   0  0  0  0  0  0  0  0  0  0  0  0
   -9.4061    2.2681    0.7087 N   0  0  0  0  0  0  0  0  0  0  0  0
   -8.5758    3.2648    0.3756 C   0  0  0  0  0  0  0  0  0  0  0  0
   -7.4046    2.6912    0.0540 N   0  0  0  0  0  0  0  0  0  0  0  0
   -6.7142   -0.9705    0.1131 C   0  0  0  0  0  0  0  0  0  0  0  0
   -5.7538   -1.9320   -0.1138 C   0  0  0  0  0  0  0  0  0  0  0  0
   -6.0078   -3.3864    0.0740 C   0  0  0  0  0  0  0  0  0  0  0  0
   -7.3034   -3.6439    0.4210 F   0  0  0  0  0  0  0  0  0  0  0  0
   -5.1437   -3.9296    1.0285 F   0  0  0  0  0  0  0  0  0  0  0  0
   -5.6910   -4.0248   -1.1244 F   0  0  0  0  0  0  0  0  0  0  0  0
   -4.4998   -1.5421   -0.5332 C   0  0  0  0  0  0  0  0  0  0  0  0
   -0.3305    1.1298   -0.4064 C   0  0  0  0  0  0  0  0  0  0  0  0
    0.6987   -0.0187   -0.4248 C   0  0  0  0  0  0  0  0  0  0  0  0
    4.2956    0.5593    1.9655 H   0  0  0  0  0  0  0  0  0  0  0  0
    2.8689    1.9344   -0.5007 H   0  0  0  0  0  0  0  0  0  0  0  0
    4.4792    2.3155    0.2617 H   0  0  0  0  0  0  0  0  0  0  0  0
    3.6675   -0.4727   -0.9235 H   0  0  0  0  0  0  0  0  0  0  0  0
    5.5729   -1.4179   -1.8334 H   0  0  0  0  0  0  0  0  0  0  0  0
    7.9817   -1.6626   -1.9957 H   0  0  0  0  0  0  0  0  0  0  0  0
    8.5083    1.0677    1.1929 H   0  0  0  0  0  0  0  0  0  0  0  0
    6.0754    1.3323    1.3753 H   0  0  0  0  0  0  0  0  0  0  0  0
    0.0171   -1.8104    1.9360 H   0  0  0  0  0  0  0  0  0  0  0  0
   -0.2580   -0.1603    2.6699 H   0  0  0  0  0  0  0  0  0  0  0  0
   -1.5028   -1.5549    0.2492 H   0  0  0  0  0  0  0  0  0  0  0  0
   -2.2694   -0.7223    1.6052 H   0  0  0  0  0  0  0  0  0  0  0  0
   -4.9611    1.7505   -0.6357 H   0  0  0  0  0  0  0  0  0  0  0  0
   -8.8242    4.3024    0.3752 H   0  0  0  0  0  0  0  0  0  0  0  0
   -6.5410    3.2112   -0.2538 H   0  0  0  0  0  0  0  0  0  0  0  0
   -7.7102   -1.2756    0.4459 H   0  0  0  0  0  0  0  0  0  0  0  0
   -3.7282   -2.2649   -0.7192 H   0  0  0  0  0  0  0  0  0  0  0  0
    0.0125    1.9242    0.3087 H   0  0  0  0  0  0  0  0  0  0  0  0
   -0.4748    1.5493   -1.4070 H   0  0  0  0  0  0  0  0  0  0  0  0
    1.5099    0.1864   -1.0993 H   0  0  0  0  0  0  0  0  0  0  0  0
    0.1113   -0.9363   -0.7583 H   0  0  0  0  0  0  0  0  0  0  0  0
  1  2  2  0
  2  3  1  0
  3  4  1  0
  4  5  1  0
  5  6  1  0
  6  7  2  0
  7  8  1  0
  8  9  2  0
  9 10  1  0
 10 11  1  0
 10 12  1  0
 10 13  1  0
  9 14  1  0
 14 15  2  0
  2 16  1  0
 16 17  1  0
 17 18  1  0
 18 19  1  0
 19 20  1  0
 20 21  2  0
 20 22  2  0
 20 23  1  0
 23 24  2  0
 24 25  1  0
 25 26  1  0
 26 27  2  0
 27 28  1  0
 28 29  2  0
 29 30  1  0
 25 31  2  0
 31 32  1  0
 32 33  1  0
 33 34  1  0
 33 35  1  0
 33 36  1  0
 32 37  2  0
 19 38  1  0
 38 39  1  0
  5  3  1  0
 15  6  1  0
 39 16  1  0
 37 23  1  0
 30 26  1  0
  3 40  1  1
  4 41  1  0
  4 42  1  0
  5 43  1  6
  7 44  1  0
  8 45  1  0
 14 46  1  0
 15 47  1  0
 17 48  1  0
 17 49  1  0
 18 50  1  0
 18 51  1  0
 24 52  1  0
 29 53  1  0
 30 54  1  0
 31 55  1  0
 37 56  1  0
 38 57  1  0
 38 58  1  0
 39 59  1  0
 39 60  1  0
M  END
$$$$
