
     RDKit          3D

 45 47  0  0  0  0  0  0  0  0999 V2000
    3.7224    2.7439   -3.2887 O   0  0  0  0  0  0  0  0  0  0  0  0
    3.9843    1.5654   -2.4261 S   0  0  0  0  0  6  0  0  0  0  0  0
    4.9266    0.6389   -3.1761 O   0  0  0  0  0  0  0  0  0  0  0  0
    4.7652    2.0577   -0.9844 N   0  0  0  0  0  0  0  0  0  0  0  0
    5.2518    1.0413   -0.0748 C   0  0  0  0  0  0  0  0  0  0  0  0
    5.8034    0.9068    0.9476 N   0  0  0  0  0  0  0  0  0  0  0  0
    6.1506   -0.1747    1.5992 C   0  0  0  0  0  0  0  0  0  0  0  0
    5.8014   -1.3414    0.9619 C   0  0  0  0  0  0  0  0  0  0  0  0
    4.9977   -0.7815   -0.5308 S   0  0  0  0  0  0  0  0  0  0  0  0
    2.5390    0.6459   -2.0682 C   0  0  0  0  0  0  0  0  0  0  0  0
    2.3672   -0.6513   -2.4868 C   0  0  0  0  0  0  0  0  0  0  0  0
    1.2181   -1.3307   -2.1817 C   0  0  0  0  0  0  0  0  0  0  0  0
    1.0164   -2.9950   -2.7279 Cl  0  0  0  0  0  0  0  0  0  0  0  0
    0.1879   -0.7636   -1.4516 C   0  0  0  0  0  0  0  0  0  0  0  0
   -0.9922   -1.4927   -1.1793 N   0  0  0  0  0  0  0  0  0  0  0  0
   -2.0912   -0.9699   -0.4019 C   0  0  0  0  0  0  0  0  0  0  0  0
   -1.7201   -0.9285    1.0392 C   0  0  0  0  0  0  0  0  0  0  0  0
   -2.8327   -0.3724    1.9138 C   0  0  0  0  0  0  0  0  0  0  0  0
   -3.2242    1.0215    1.5562 C   0  0  0  0  0  0  0  0  0  0  0  0
   -4.5132    1.1429    0.8151 C   0  0  0  0  0  0  0  0  0  0  0  0
   -5.5543    0.1440    1.1938 C   0  0  0  0  0  0  0  0  0  0  0  0
   -5.1948   -0.6266    2.2766 O   0  0  0  0  0  0  0  0  0  0  0  0
   -4.0095   -1.3285    1.9801 C   0  0  0  0  0  0  0  0  0  0  0  0
    0.3633    0.5343   -1.0353 C   0  0  0  0  0  0  0  0  0  0  0  0
    1.5281    1.2285   -1.3420 C   0  0  0  0  0  0  0  0  0  0  0  0
    1.6527    2.5065   -0.9074 F   0  0  0  0  0  0  0  0  0  0  0  0
    4.9070    3.0667   -0.7307 H   0  0  0  0  0  0  0  0  0  0  0  0
    6.6831   -0.1870    2.5852 H   0  0  0  0  0  0  0  0  0  0  0  0
    5.9653   -2.4312    1.2740 H   0  0  0  0  0  0  0  0  0  0  0  0
    3.1649   -1.1101   -3.0598 H   0  0  0  0  0  0  0  0  0  0  0  0
   -1.0523   -2.4685   -1.5745 H   0  0  0  0  0  0  0  0  0  0  0  0
   -2.2889    0.0738   -0.7562 H   0  0  0  0  0  0  0  0  0  0  0  0
   -2.9852   -1.5760   -0.6175 H   0  0  0  0  0  0  0  0  0  0  0  0
   -1.5848   -1.9911    1.4279 H   0  0  0  0  0  0  0  0  0  0  0  0
   -0.7948   -0.4264    1.2732 H   0  0  0  0  0  0  0  0  0  0  0  0
   -2.4068   -0.3505    2.9518 H   0  0  0  0  0  0  0  0  0  0  0  0
   -3.2862    1.6624    2.4778 H   0  0  0  0  0  0  0  0  0  0  0  0
   -2.4309    1.4924    0.9231 H   0  0  0  0  0  0  0  0  0  0  0  0
   -4.9453    2.1624    1.0401 H   0  0  0  0  0  0  0  0  0  0  0  0
   -4.3766    1.1650   -0.3056 H   0  0  0  0  0  0  0  0  0  0  0  0
   -6.5537    0.6013    1.3859 H   0  0  0  0  0  0  0  0  0  0  0  0
   -5.7130   -0.5427    0.3111 H   0  0  0  0  0  0  0  0  0  0  0  0
   -4.1255   -1.9118    1.0431 H   0  0  0  0  0  0  0  0  0  0  0  0
   -3.8914   -2.0761    2.7986 H   0  0  0  0  0  0  0  0  0  0  0  0
   -0.4287    1.0355   -0.4679 H   0  0  0  0  0  0  0  0  0  0  0  0
  1  2  2  0
  2  3  2  0
  2  4  1  0
  4  5  1  0
  5  6  2  0
  6  7  1  0
  7  8  2  0
  8  9  1  0
  2 10  1  0
 10 11  2  0
 11 12  1  0
 12 13  1  0
 12 14  2  0
 14 15  1  0
 15 16  1  0
 16 17  1  0
 17 18  1  0
 18 19  1  0
 19 20  1  0
 20 21  1  0
 21 22  1  0
 22 23  1  0
 14 24  1  0
 24 25  2  0
 25 26  1  0
  9  5  1  0
 25 10  1  0
 23 18  1  0
  4 27  1  0
  7 28  1  0
  8 29  1  0
 11 30  1  0
 15 31  1  0
 16 32  1  0
 16 33  1  0
 17 34  1  0
 17 35  1  0
 18 36  1  0
 19 37  1  0
 19 38  1  0
 20 39  1  0
 20 40  1  0
 21 41  1  0
 21 42  1  0
 23 43  1  0
 23 44  1  0
 24 45  1  0
M  END
$$$$
