
     RDKit          3D

 50 53  0  0  0  0  0  0  0  0999 V2000
   -7.6063    1.4937    0.5075 C   0  0  0  0  0  0  0  0  0  0  0  0
   -6.8966    0.7642   -0.5684 C   0  0  0  0  0  0  0  0  0  0  0  0
   -7.4482    0.5392   -1.6865 O   0  0  0  0  0  0  0  0  0  0  0  0
   -5.5708    0.3062   -0.3453 N   0  0  0  0  0  0  0  0  0  0  0  0
   -4.8266   -0.4045   -1.3397 C   0  0  0  0  0  0  0  0  0  0  0  0
   -3.5834    0.3762   -1.7154 C   0  0  0  0  0  0  0  0  0  0  0  0
   -2.6575    0.5511   -0.5388 C   0  0  0  0  0  0  0  0  0  0  0  0
   -2.3806   -0.6306    0.1729 N   0  0  0  0  0  0  0  0  0  0  0  0
   -1.1955   -1.3470   -0.1265 C   0  0  0  0  0  0  0  0  0  0  0  0
    0.0009   -0.5133    0.0892 C   0  0  0  0  0  0  0  0  0  0  0  0
    0.5851    0.1996   -0.9310 C   0  0  0  0  0  0  0  0  0  0  0  0
    1.7137    0.9798   -0.6574 C   0  0  0  0  0  0  0  0  0  0  0  0
    2.2771    1.0767    0.5772 C   0  0  0  0  0  0  0  0  0  0  0  0
    3.3784    1.8354    0.8540 O   0  0  0  0  0  0  0  0  0  0  0  0
    4.6892    1.3494    0.7666 C   0  0  0  0  0  0  0  0  0  0  0  0
    5.8268    1.6396    0.9044 N   0  0  0  0  0  0  0  0  0  0  0  0
    6.9097    0.9382    0.7422 C   0  0  0  0  0  0  0  0  0  0  0  0
    8.2506    1.3423    0.9232 C   0  0  0  0  0  0  0  0  0  0  0  0
    9.2318    0.4280    0.6927 C   0  0  0  0  0  0  0  0  0  0  0  0
    9.0606   -0.8752    0.2940 C   0  0  0  0  0  0  0  0  0  0  0  0
    7.7431   -1.2966    0.1088 C   0  0  0  0  0  0  0  0  0  0  0  0
    6.7131   -0.3702    0.3408 C   0  0  0  0  0  0  0  0  0  0  0  0
    4.9192   -0.4566    0.2349 S   0  0  0  0  0  0  0  0  0  0  0  0
    1.6866    0.3575    1.6014 C   0  0  0  0  0  0  0  0  0  0  0  0
    0.5735   -0.4194    1.3605 C   0  0  0  0  0  0  0  0  0  0  0  0
   -3.5258   -1.4696    0.4269 C   0  0  0  0  0  0  0  0  0  0  0  0
   -4.3612   -1.7276   -0.7765 C   0  0  0  0  0  0  0  0  0  0  0  0
   -7.2575    2.5590    0.4411 H   0  0  0  0  0  0  0  0  0  0  0  0
   -7.2204    1.1098    1.4802 H   0  0  0  0  0  0  0  0  0  0  0  0
   -8.7030    1.4193    0.4242 H   0  0  0  0  0  0  0  0  0  0  0  0
   -5.1466    0.5090    0.5850 H   0  0  0  0  0  0  0  0  0  0  0  0
   -5.4062   -0.5331   -2.2774 H   0  0  0  0  0  0  0  0  0  0  0  0
   -3.9222    1.3859   -2.0340 H   0  0  0  0  0  0  0  0  0  0  0  0
   -3.0395   -0.0732   -2.5502 H   0  0  0  0  0  0  0  0  0  0  0  0
   -3.1211    1.3086    0.1619 H   0  0  0  0  0  0  0  0  0  0  0  0
   -1.7310    1.0217   -0.8976 H   0  0  0  0  0  0  0  0  0  0  0  0
   -1.1789   -1.7991   -1.1413 H   0  0  0  0  0  0  0  0  0  0  0  0
   -1.1663   -2.2341    0.5727 H   0  0  0  0  0  0  0  0  0  0  0  0
    0.1975    0.1673   -1.9460 H   0  0  0  0  0  0  0  0  0  0  0  0
    2.1869    1.5529   -1.4659 H   0  0  0  0  0  0  0  0  0  0  0  0
    8.5258    2.3341    1.2331 H   0  0  0  0  0  0  0  0  0  0  0  0
   10.2815    0.7349    0.8316 H   0  0  0  0  0  0  0  0  0  0  0  0
    9.8420   -1.5911    0.1140 H   0  0  0  0  0  0  0  0  0  0  0  0
    7.4805   -2.2939   -0.2022 H   0  0  0  0  0  0  0  0  0  0  0  0
    2.1043    0.4050    2.6074 H   0  0  0  0  0  0  0  0  0  0  0  0
    0.0833   -0.9972    2.1383 H   0  0  0  0  0  0  0  0  0  0  0  0
   -3.1087   -2.4659    0.7584 H   0  0  0  0  0  0  0  0  0  0  0  0
   -4.1644   -1.1357    1.2612 H   0  0  0  0  0  0  0  0  0  0  0  0
   -5.2526   -2.3079   -0.4552 H   0  0  0  0  0  0  0  0  0  0  0  0
   -3.7905   -2.3053   -1.5511 H   0  0  0  0  0  0  0  0  0  0  0  0
  1  2  1  0
  2  3  2  0
  2  4  1  0
  4  5  1  0
  5  6  1  0
  6  7  1  0
  7  8  1  0
  8  9  1  0
  9 10  1  0
 10 11  2  0
 11 12  1  0
 12 13  2  0
 13 14  1  0
 14 15  1  0
 15 16  2  0
 16 17  1  0
 17 18  2  0
 18 19  1  0
 19 20  2  0
 20 21  1  0
 21 22  2  0
 22 23  1  0
 13 24  1  0
 24 25  2  0
  8 26  1  0
 26 27  1  0
 27  5  1  0
 25 10  1  0
 23 15  1  0
 22 17  1  0
  1 28  1  0
  1 29  1  0
  1 30  1  0
  4 31  1  0
  5 32  1  0
  6 33  1  0
  6 34  1  0
  7 35  1  0
  7 36  1  0
  9 37  1  0
  9 38  1  0
 11 39  1  0
 12 40  1  0
 18 41  1  0
 19 42  1  0
 20 43  1  0
 21 44  1  0
 24 45  1  0
 25 46  1  0
 26 47  1  0
 26 48  1  0
 27 49  1  0
 27 50  1  0
M  END
$$$$
