
     RDKit          3D

 60 63  0  0  0  0  0  0  0  0999 V2000
   -6.7936   -4.6514    1.4106 C   0  0  0  0  0  0  0  0  0  0  0  0
   -6.2751   -3.8819    0.2984 N   0  0  0  0  0  0  0  0  0  0  0  0
   -5.1788   -2.9761    0.5138 C   0  0  0  0  0  0  0  0  0  0  0  0
   -4.6225   -2.8256    1.7218 N   0  0  0  0  0  0  0  0  0  0  0  0
   -3.6063   -1.9992    1.9689 C   0  0  0  0  0  0  0  0  0  0  0  0
   -3.0487   -1.2174    0.9374 C   0  0  0  0  0  0  0  0  0  0  0  0
   -1.9515   -0.3309    1.2247 C   0  0  0  0  0  0  0  0  0  0  0  0
   -1.5200   -0.2924    2.4413 O   0  0  0  0  0  0  0  0  0  0  0  0
   -1.2843    0.5074    0.3359 N   0  0  0  0  0  0  0  0  0  0  0  0
   -0.1966    1.3531    0.7396 C   0  0  0  0  0  0  0  0  0  0  0  0
    1.1218    0.9648    0.7206 C   0  0  0  0  0  0  0  0  0  0  0  0
    2.1375    1.8175    1.1205 C   0  0  0  0  0  0  0  0  0  0  0  0
    3.5089    1.3660    1.0839 C   0  0  0  0  0  0  0  0  0  0  0  0
    3.7503    0.1863    0.6808 O   0  0  0  0  0  0  0  0  0  0  0  0
    4.6185    2.1386    1.4646 N   0  0  0  0  0  0  0  0  0  0  0  0
    5.9405    1.5802    1.3849 C   0  0  0  0  0  0  0  0  0  0  0  0
    6.5379    0.9054    2.4034 C   0  0  0  0  0  0  0  0  0  0  0  0
    7.7912    0.3798    2.3185 C   0  0  0  0  0  0  0  0  0  0  0  0
    8.4860    0.5453    1.1312 C   0  0  0  0  0  0  0  0  0  0  0  0
    7.9278    1.2207    0.0675 C   0  0  0  0  0  0  0  0  0  0  0  0
    8.7172    1.3661   -1.1756 C   0  0  0  0  0  0  0  0  0  0  0  0
    9.9381    1.9241   -0.8293 F   0  0  0  0  0  0  0  0  0  0  0  0
    8.9628    0.1301   -1.7159 F   0  0  0  0  0  0  0  0  0  0  0  0
    8.1052    2.1590   -2.1006 F   0  0  0  0  0  0  0  0  0  0  0  0
    6.6725    1.7257    0.2059 C   0  0  0  0  0  0  0  0  0  0  0  0
    1.8524    3.0848    1.5504 C   0  0  0  0  0  0  0  0  0  0  0  0
    0.5211    3.4964    1.5765 C   0  0  0  0  0  0  0  0  0  0  0  0
   -0.4704    2.6257    1.1723 C   0  0  0  0  0  0  0  0  0  0  0  0
   -1.8922    3.0957    1.2109 C   0  0  0  0  0  0  0  0  0  0  0  0
   -3.6276   -1.3839   -0.2851 C   0  0  0  0  0  0  0  0  0  0  0  0
   -3.1617   -0.6639   -1.3849 O   0  0  0  0  0  0  0  0  0  0  0  0
   -3.7021   -0.7879   -2.6345 C   0  0  0  0  0  0  0  0  0  0  0  0
   -3.2220   -1.7199   -3.5343 C   0  0  0  0  0  0  0  0  0  0  0  0
   -3.8089   -1.7952   -4.7770 C   0  0  0  0  0  0  0  0  0  0  0  0
   -4.8430   -0.9717   -5.1223 C   0  0  0  0  0  0  0  0  0  0  0  0
   -5.3035   -0.0564   -4.2181 C   0  0  0  0  0  0  0  0  0  0  0  0
   -4.7528    0.0613   -2.9614 C   0  0  0  0  0  0  0  0  0  0  0  0
   -4.6729   -2.2493   -0.4853 N   0  0  0  0  0  0  0  0  0  0  0  0
   -7.8995   -4.4250    1.4555 H   0  0  0  0  0  0  0  0  0  0  0  0
   -6.3747   -4.2418    2.3451 H   0  0  0  0  0  0  0  0  0  0  0  0
   -6.6134   -5.7385    1.2796 H   0  0  0  0  0  0  0  0  0  0  0  0
   -6.6590   -3.9502   -0.6631 H   0  0  0  0  0  0  0  0  0  0  0  0
   -3.1842   -1.9021    2.9466 H   0  0  0  0  0  0  0  0  0  0  0  0
   -1.5591    0.5467   -0.6660 H   0  0  0  0  0  0  0  0  0  0  0  0
    1.3140   -0.0523    0.3722 H   0  0  0  0  0  0  0  0  0  0  0  0
    4.5001    3.1046    1.8020 H   0  0  0  0  0  0  0  0  0  0  0  0
    6.0012    0.7691    3.3417 H   0  0  0  0  0  0  0  0  0  0  0  0
    8.2779   -0.1575    3.1172 H   0  0  0  0  0  0  0  0  0  0  0  0
    9.4669    0.1411    1.0471 H   0  0  0  0  0  0  0  0  0  0  0  0
    6.2084    2.2631   -0.6181 H   0  0  0  0  0  0  0  0  0  0  0  0
    2.6213    3.8046    1.8798 H   0  0  0  0  0  0  0  0  0  0  0  0
    0.2980    4.4941    1.9150 H   0  0  0  0  0  0  0  0  0  0  0  0
   -2.5558    2.4535    0.6286 H   0  0  0  0  0  0  0  0  0  0  0  0
   -2.2258    3.2627    2.2604 H   0  0  0  0  0  0  0  0  0  0  0  0
   -1.9203    4.1132    0.7327 H   0  0  0  0  0  0  0  0  0  0  0  0
   -2.4073   -2.3895   -3.3022 H   0  0  0  0  0  0  0  0  0  0  0  0
   -3.4231   -2.5359   -5.4839 H   0  0  0  0  0  0  0  0  0  0  0  0
   -5.2774   -1.0626   -6.1102 H   0  0  0  0  0  0  0  0  0  0  0  0
   -6.1215    0.5939   -4.4933 H   0  0  0  0  0  0  0  0  0  0  0  0
   -5.1221    0.7900   -2.2464 H   0  0  0  0  0  0  0  0  0  0  0  0
  1  2  1  0
  2  3  1  0
  3  4  2  0
  4  5  1  0
  5  6  2  0
  6  7  1  0
  7  8  2  0
  7  9  1  0
  9 10  1  0
 10 11  2  0
 11 12  1  0
 12 13  1  0
 13 14  2  0
 13 15  1  0
 15 16  1  0
 16 17  2  0
 17 18  1  0
 18 19  2  0
 19 20  1  0
 20 21  1  0
 21 22  1  0
 21 23  1  0
 21 24  1  0
 20 25  2  0
 12 26  2  0
 26 27  1  0
 27 28  2  0
 28 29  1  0
  6 30  1  0
 30 31  1  0
 31 32  1  0
 32 33  2  0
 33 34  1  0
 34 35  2  0
 35 36  1  0
 36 37  2  0
 30 38  2  0
 38  3  1  0
 28 10  1  0
 37 32  1  0
 25 16  1  0
  1 39  1  0
  1 40  1  0
  1 41  1  0
  2 42  1  0
  5 43  1  0
  9 44  1  0
 11 45  1  0
 15 46  1  0
 17 47  1  0
 18 48  1  0
 19 49  1  0
 25 50  1  0
 26 51  1  0
 27 52  1  0
 29 53  1  0
 29 54  1  0
 29 55  1  0
 33 56  1  0
 34 57  1  0
 35 58  1  0
 36 59  1  0
 37 60  1  0
M  END
$$$$
