
     RDKit          3D

 73 78  0  0  0  0  0  0  0  0999 V2000
   -1.4106   -7.4779   -0.5678 C   0  0  0  0  0  0  0  0  0  0  0  0
   -0.9697   -6.1494   -0.7877 O   0  0  0  0  0  0  0  0  0  0  0  0
   -0.8302   -5.2949    0.2723 C   0  0  0  0  0  0  0  0  0  0  0  0
   -0.3942   -3.9951    0.0199 C   0  0  0  0  0  0  0  0  0  0  0  0
   -0.2362   -3.0947    1.0434 C   0  0  0  0  0  0  0  0  0  0  0  0
    0.2054   -1.7830    0.7698 N   0  0  0  0  0  0  0  0  0  0  0  0
    1.5764   -1.4023    0.7529 C   0  0  0  0  0  0  0  0  0  0  0  0
    2.5415   -2.0580    1.2137 O   0  0  0  0  0  0  0  0  0  0  0  0
    1.7051   -0.1356    0.1215 N   0  0  0  0  0  0  0  0  0  0  0  0
    2.9378    0.5827   -0.0832 C   0  0  0  0  0  0  0  0  0  0  0  0
    3.7141    0.4258   -1.2100 C   0  0  0  0  0  0  0  0  0  0  0  0
    4.8964    1.1351   -1.3811 C   0  0  0  0  0  0  0  0  0  0  0  0
    5.3321    2.0241   -0.4213 C   0  0  0  0  0  0  0  0  0  0  0  0
    6.5797    2.7764   -0.5970 C   0  0  0  0  0  0  0  0  0  0  0  0
    7.6680    2.2662   -1.2846 C   0  0  0  0  0  0  0  0  0  0  0  0
    8.8178    3.0331   -1.4131 C   0  0  0  0  0  0  0  0  0  0  0  0
    8.8786    4.2994   -0.8586 C   0  0  0  0  0  0  0  0  0  0  0  0
    7.7800    4.7799   -0.1804 C   0  0  0  0  0  0  0  0  0  0  0  0
    6.6241    4.0375   -0.0382 C   0  0  0  0  0  0  0  0  0  0  0  0
    4.5495    2.1778    0.7076 C   0  0  0  0  0  0  0  0  0  0  0  0
    3.3764    1.4720    0.8741 C   0  0  0  0  0  0  0  0  0  0  0  0
    0.4001    0.2667   -0.2542 C   0  0  0  0  0  0  0  0  0  0  0  0
    0.1905    1.2107   -1.0674 O   0  0  0  0  0  0  0  0  0  0  0  0
   -0.5532   -0.6022    0.4667 C   0  0  0  0  0  0  0  0  0  0  0  0
   -0.9064    0.0852    1.7795 C   0  0  0  0  0  0  0  0  0  0  0  0
   -1.6815    1.3195    1.4411 C   0  0  0  0  0  0  0  0  0  0  0  0
   -2.9026    0.9566    0.7464 N   0  0  0  0  0  0  0  0  0  0  0  0
   -4.0654    1.3994    1.5189 C   0  0  0  0  0  0  0  0  0  0  0  0
   -5.2838    1.0495    0.7580 C   0  0  0  0  0  0  0  0  0  0  0  0
   -5.9894   -0.0290    1.1282 N   0  0  0  0  0  0  0  0  0  0  0  0
   -7.0878   -0.4025    0.4765 C   0  0  0  0  0  0  0  0  0  0  0  0
   -7.4967    0.3576   -0.6119 C   0  0  0  0  0  0  0  0  0  0  0  0
   -6.7912    1.4685   -1.0124 C   0  0  0  0  0  0  0  0  0  0  0  0
   -5.6575    1.8356   -0.3221 C   0  0  0  0  0  0  0  0  0  0  0  0
   -4.8501    3.0150   -0.6783 C   0  0  0  0  0  0  0  0  0  0  0  0
   -2.9959   -0.4691    0.4944 C   0  0  0  0  0  0  0  0  0  0  0  0
   -1.8050   -0.9044   -0.3222 C   0  0  0  0  0  0  0  0  0  0  0  0
   -1.8119   -0.3299   -1.6692 C   0  0  0  0  0  0  0  0  0  0  0  0
   -2.6965    0.4809   -2.0134 O   0  0  0  0  0  0  0  0  0  0  0  0
   -0.8311   -0.6849   -2.5747 O   0  0  0  0  0  0  0  0  0  0  0  0
   -0.5034   -3.4684    2.2980 N   0  0  0  0  0  0  0  0  0  0  0  0
   -0.9288   -4.7365    2.5453 C   0  0  0  0  0  0  0  0  0  0  0  0
   -1.0871   -5.6280    1.5464 N   0  0  0  0  0  0  0  0  0  0  0  0
   -0.5804   -8.1557   -0.8008 H   0  0  0  0  0  0  0  0  0  0  0  0
   -2.2491   -7.7178   -1.2402 H   0  0  0  0  0  0  0  0  0  0  0  0
   -1.7716   -7.5847    0.4804 H   0  0  0  0  0  0  0  0  0  0  0  0
   -0.1832   -3.7194   -1.0218 H   0  0  0  0  0  0  0  0  0  0  0  0
    3.3630   -0.2718   -1.9533 H   0  0  0  0  0  0  0  0  0  0  0  0
    5.4780    0.9894   -2.2710 H   0  0  0  0  0  0  0  0  0  0  0  0
    7.6187    1.2792   -1.7158 H   0  0  0  0  0  0  0  0  0  0  0  0
    9.6806    2.6850   -1.9327 H   0  0  0  0  0  0  0  0  0  0  0  0
    9.7441    4.9426   -0.9248 H   0  0  0  0  0  0  0  0  0  0  0  0
    7.8220    5.7691    0.2548 H   0  0  0  0  0  0  0  0  0  0  0  0
    5.7954    4.4681    0.5046 H   0  0  0  0  0  0  0  0  0  0  0  0
    4.8647    2.8671    1.4772 H   0  0  0  0  0  0  0  0  0  0  0  0
    2.7864    1.6195    1.7769 H   0  0  0  0  0  0  0  0  0  0  0  0
   -1.3998   -0.5836    2.4835 H   0  0  0  0  0  0  0  0  0  0  0  0
    0.0668    0.4202    2.2345 H   0  0  0  0  0  0  0  0  0  0  0  0
   -1.0744    1.9422    0.7541 H   0  0  0  0  0  0  0  0  0  0  0  0
   -1.8848    1.9580    2.3282 H   0  0  0  0  0  0  0  0  0  0  0  0
   -3.9279    2.4913    1.6552 H   0  0  0  0  0  0  0  0  0  0  0  0
   -4.0858    0.8513    2.4771 H   0  0  0  0  0  0  0  0  0  0  0  0
   -7.6141   -1.2798    0.8213 H   0  0  0  0  0  0  0  0  0  0  0  0
   -8.3908    0.0301   -1.1208 H   0  0  0  0  0  0  0  0  0  0  0  0
   -7.1508    2.0215   -1.8612 H   0  0  0  0  0  0  0  0  0  0  0  0
   -4.6690    3.6969    0.1910 H   0  0  0  0  0  0  0  0  0  0  0  0
   -5.4646    3.6474   -1.3854 H   0  0  0  0  0  0  0  0  0  0  0  0
   -3.9228    2.7938   -1.2275 H   0  0  0  0  0  0  0  0  0  0  0  0
   -3.9012   -0.6129   -0.1344 H   0  0  0  0  0  0  0  0  0  0  0  0
   -3.1084   -1.0709    1.4015 H   0  0  0  0  0  0  0  0  0  0  0  0
   -1.9147   -2.0253   -0.4728 H   0  0  0  0  0  0  0  0  0  0  0  0
   -0.7796   -0.1883   -3.4629 H   0  0  0  0  0  0  0  0  0  0  0  0
   -1.1536   -5.0719    3.5454 H   0  0  0  0  0  0  0  0  0  0  0  0
  1  2  1  0
  2  3  1  0
  3  4  2  0
  4  5  1  0
  5  6  1  0
  6  7  1  0
  7  8  2  0
  7  9  1  0
  9 10  1  0
 10 11  2  0
 11 12  1  0
 12 13  2  0
 13 14  1  0
 14 15  2  0
 15 16  1  0
 16 17  2  0
 17 18  1  0
 18 19  2  0
 13 20  1  0
 20 21  2  0
  9 22  1  0
 22 23  2  0
 22 24  1  0
 24 25  1  0
 25 26  1  0
 26 27  1  0
 27 28  1  0
 28 29  1  0
 29 30  2  0
 30 31  1  0
 31 32  2  0
 32 33  1  0
 33 34  2  0
 34 35  1  0
 27 36  1  0
 36 37  1  0
 37 38  1  0
 38 39  2  0
 38 40  1  0
  5 41  2  0
 41 42  1  0
 42 43  2  0
 43  3  1  0
 24  6  1  0
 34 29  1  0
 21 10  1  0
 37 24  1  0
 19 14  1  0
  1 44  1  0
  1 45  1  0
  1 46  1  0
  4 47  1  0
 11 48  1  0
 12 49  1  0
 15 50  1  0
 16 51  1  0
 17 52  1  0
 18 53  1  0
 19 54  1  0
 20 55  1  0
 21 56  1  0
 25 57  1  0
 25 58  1  0
 26 59  1  0
 26 60  1  0
 28 61  1  0
 28 62  1  0
 31 63  1  0
 32 64  1  0
 33 65  1  0
 35 66  1  0
 35 67  1  0
 35 68  1  0
 36 69  1  0
 36 70  1  0
 37 71  1  0
 40 72  1  0
 42 73  1  0
M  END
$$$$
