
     RDKit          3D

 94 99  0  0  0  0  0  0  0  0999 V2000
    3.9066   -1.9787   -3.0414 C   0  0  0  0  0  0  0  0  0  0  0  0
    3.3523   -2.7332   -1.8339 C   0  0  0  0  0  0  0  0  0  0  0  0
    3.3537   -4.2070   -2.2353 C   0  0  0  0  0  0  0  0  0  0  0  0
    4.2529   -2.6073   -0.6514 C   0  0  0  0  0  0  0  0  0  0  0  0
    3.4187   -2.6824    0.6290 C   0  0  0  0  0  0  0  0  0  0  0  0
    2.6761   -1.3425    0.6694 C   0  0  2  0  0  0  0  0  0  0  0  0
    3.8620   -0.3817    0.7066 C   0  0  0  0  0  0  0  0  0  0  0  0
    3.9834    0.4448   -0.2172 O   0  0  0  0  0  0  0  0  0  0  0  0
    4.7944   -0.3914    1.7104 O   0  0  0  0  0  0  0  0  0  0  0  0
    5.9081    0.4056    1.8744 C   0  0  0  0  0  0  0  0  0  0  0  0
    5.6891    1.8521    1.9781 C   0  0  0  0  0  0  0  0  0  0  0  0
    5.3882    2.4897    3.1595 C   0  0  0  0  0  0  0  0  0  0  0  0
    5.2143    3.8524    3.1774 C   0  0  0  0  0  0  0  0  0  0  0  0
    5.3323    4.6160    2.0359 C   0  0  0  0  0  0  0  0  0  0  0  0
    5.6323    3.9973    0.8476 C   0  0  0  0  0  0  0  0  0  0  0  0
    5.8068    2.6176    0.8392 C   0  0  0  0  0  0  0  0  0  0  0  0
    1.9190   -1.0802    1.8935 C   0  0  0  0  0  0  0  0  0  0  0  0
    0.4629   -1.0182    1.9838 C   0  0  0  0  0  0  0  0  0  0  0  0
   -0.2950   -1.0943    0.6279 C   0  0  2  0  0  0  0  0  0  0  0  0
   -0.4633   -2.5996    0.4944 C   0  0  0  0  0  0  0  0  0  0  0  0
    0.6787   -0.5048   -0.2911 C   0  0  0  0  0  0  0  0  0  0  0  0
    0.4681    0.6887   -0.7774 C   0  0  0  0  0  0  0  0  0  0  0  0
   -0.7092    1.5351   -0.4706 C   0  0  0  0  0  0  0  0  0  0  0  0
   -1.8570    0.5977   -0.3137 C   0  0  2  0  0  0  0  0  0  0  0  0
   -3.1959    1.2984   -0.2938 C   0  0  1  0  0  0  0  0  0  0  0  0
   -3.4932    2.1509    0.8617 C   0  0  0  0  0  0  0  0  0  0  0  0
   -3.1431    2.2497   -1.5138 C   0  0  0  0  0  0  0  0  0  0  0  0
   -4.5046    2.7583   -1.8975 C   0  0  0  0  0  0  0  0  0  0  0  0
   -5.5983    1.7780   -1.9443 C   0  0  2  0  0  0  0  0  0  0  0  0
   -6.8207    2.4709   -1.8669 O   0  0  0  0  0  0  0  0  0  0  0  0
   -5.5924    0.7337   -0.8843 C   0  0  0  0  0  0  0  0  0  0  0  0
   -6.3370   -0.4733   -1.4919 C   0  0  0  0  0  0  0  0  0  0  0  0
   -6.3515    1.1117    0.3455 C   0  0  0  0  0  0  0  0  0  0  0  0
   -4.1987    0.2606   -0.6648 C   0  0  2  0  0  0  0  0  0  0  0  0
   -4.1123   -0.9746    0.1946 C   0  0  0  0  0  0  0  0  0  0  0  0
   -2.7249   -1.5401    0.2034 C   0  0  0  0  0  0  0  0  0  0  0  0
   -1.6618   -0.5188    0.6511 C   0  0  1  0  0  0  0  0  0  0  0  0
   -2.0153   -0.1914    2.0786 C   0  0  0  0  0  0  0  0  0  0  0  0
    1.9463   -1.1665   -0.6465 C   0  0  2  0  0  0  0  0  0  0  0  0
    1.9250   -2.3037   -1.5636 C   0  0  0  0  0  0  0  0  0  0  0  0
    4.6270   -2.6159   -3.6108 H   0  0  0  0  0  0  0  0  0  0  0  0
    4.4039   -1.0709   -2.6783 H   0  0  0  0  0  0  0  0  0  0  0  0
    3.0389   -1.6784   -3.6555 H   0  0  0  0  0  0  0  0  0  0  0  0
    3.3452   -4.8308   -1.2949 H   0  0  0  0  0  0  0  0  0  0  0  0
    2.5150   -4.4598   -2.8872 H   0  0  0  0  0  0  0  0  0  0  0  0
    4.3010   -4.4650   -2.7520 H   0  0  0  0  0  0  0  0  0  0  0  0
    4.8570   -1.6784   -0.6263 H   0  0  0  0  0  0  0  0  0  0  0  0
    4.9799   -3.4544   -0.5683 H   0  0  0  0  0  0  0  0  0  0  0  0
    4.0491   -2.8186    1.5147 H   0  0  0  0  0  0  0  0  0  0  0  0
    2.7461   -3.5232    0.5241 H   0  0  0  0  0  0  0  0  0  0  0  0
    6.6075    0.2090    1.0301 H   0  0  0  0  0  0  0  0  0  0  0  0
    6.4030    0.0860    2.8345 H   0  0  0  0  0  0  0  0  0  0  0  0
    5.2913    1.9048    4.0680 H   0  0  0  0  0  0  0  0  0  0  0  0
    4.9734    4.3628    4.1242 H   0  0  0  0  0  0  0  0  0  0  0  0
    5.1991    5.6904    2.0289 H   0  0  0  0  0  0  0  0  0  0  0  0
    5.7316    4.5633   -0.0584 H   0  0  0  0  0  0  0  0  0  0  0  0
    6.0540    2.1817   -0.1430 H   0  0  0  0  0  0  0  0  0  0  0  0
    2.3436   -0.1382    2.3866 H   0  0  0  0  0  0  0  0  0  0  0  0
    2.2834   -1.8648    2.6500 H   0  0  0  0  0  0  0  0  0  0  0  0
    0.1112   -1.8531    2.6650 H   0  0  0  0  0  0  0  0  0  0  0  0
    0.1708   -0.0982    2.5298 H   0  0  0  0  0  0  0  0  0  0  0  0
   -0.9819   -2.9619   -0.3560 H   0  0  0  0  0  0  0  0  0  0  0  0
   -1.0498   -2.8809    1.4283 H   0  0  0  0  0  0  0  0  0  0  0  0
    0.4937   -3.1324    0.7775 H   0  0  0  0  0  0  0  0  0  0  0  0
    1.1932    1.1691   -1.4831 H   0  0  0  0  0  0  0  0  0  0  0  0
   -0.5472    2.1975    0.3988 H   0  0  0  0  0  0  0  0  0  0  0  0
   -0.9249    2.1618   -1.3752 H   0  0  0  0  0  0  0  0  0  0  0  0
   -1.8800    0.0814   -1.3353 H   0  0  0  0  0  0  0  0  0  0  0  0
   -4.0348    3.0828    0.5048 H   0  0  0  0  0  0  0  0  0  0  0  0
   -4.1520    1.7674    1.6461 H   0  0  0  0  0  0  0  0  0  0  0  0
   -2.5314    2.5979    1.2407 H   0  0  0  0  0  0  0  0  0  0  0  0
   -2.6237    3.1786   -1.1278 H   0  0  0  0  0  0  0  0  0  0  0  0
   -2.6567    1.7915   -2.3708 H   0  0  0  0  0  0  0  0  0  0  0  0
   -4.3745    3.1826   -2.9377 H   0  0  0  0  0  0  0  0  0  0  0  0
   -4.8168    3.6579   -1.2890 H   0  0  0  0  0  0  0  0  0  0  0  0
   -5.6122    1.3005   -2.9654 H   0  0  0  0  0  0  0  0  0  0  0  0
   -7.5836    1.8749   -1.6957 H   0  0  0  0  0  0  0  0  0  0  0  0
   -6.6720   -1.0984   -0.6361 H   0  0  0  0  0  0  0  0  0  0  0  0
   -5.6646   -1.0788   -2.1090 H   0  0  0  0  0  0  0  0  0  0  0  0
   -7.2510   -0.1417   -2.0128 H   0  0  0  0  0  0  0  0  0  0  0  0
   -6.1405    0.4986    1.2198 H   0  0  0  0  0  0  0  0  0  0  0  0
   -7.4615    0.9901    0.1564 H   0  0  0  0  0  0  0  0  0  0  0  0
   -6.2633    2.2097    0.6001 H   0  0  0  0  0  0  0  0  0  0  0  0
   -3.8593   -0.1068   -1.6894 H   0  0  0  0  0  0  0  0  0  0  0  0
   -4.6266   -0.9235    1.1488 H   0  0  0  0  0  0  0  0  0  0  0  0
   -4.7179   -1.7490   -0.3913 H   0  0  0  0  0  0  0  0  0  0  0  0
   -2.5035   -1.8020   -0.8731 H   0  0  0  0  0  0  0  0  0  0  0  0
   -2.7776   -2.4445    0.7731 H   0  0  0  0  0  0  0  0  0  0  0  0
   -1.6386   -0.9720    2.7734 H   0  0  0  0  0  0  0  0  0  0  0  0
   -1.6358    0.7599    2.4539 H   0  0  0  0  0  0  0  0  0  0  0  0
   -3.1322   -0.2611    2.2627 H   0  0  0  0  0  0  0  0  0  0  0  0
    2.6034   -0.4293   -1.2297 H   0  0  0  0  0  0  0  0  0  0  0  0
    1.5529   -1.9083   -2.5628 H   0  0  0  0  0  0  0  0  0  0  0  0
    1.3420   -3.1794   -1.3880 H   0  0  0  0  0  0  0  0  0  0  0  0
  1  2  1  0
  2  3  1  0
  2  4  1  0
  4  5  1  0
  5  6  1  0
  6  7  1  6
  7  8  2  0
  7  9  1  0
  9 10  1  0
 10 11  1  0
 11 12  2  0
 12 13  1  0
 13 14  2  0
 14 15  1  0
 15 16  2  0
  6 17  1  0
 17 18  1  0
 18 19  1  0
 19 20  1  6
 19 21  1  0
 21 22  2  0
 22 23  1  0
 23 24  1  0
 24 25  1  0
 25 26  1  1
 25 27  1  0
 27 28  1  0
 28 29  1  0
 29 30  1  0
 29 31  1  0
 31 32  1  0
 31 33  1  0
 31 34  1  0
 34 35  1  0
 35 36  1  0
 36 37  1  0
 37 38  1  1
 21 39  1  0
 39 40  1  0
 40  2  1  0
 39  6  1  0
 16 11  1  0
 37 19  1  0
 37 24  1  0
 34 25  1  0
  1 41  1  0
  1 42  1  0
  1 43  1  0
  3 44  1  0
  3 45  1  0
  3 46  1  0
  4 47  1  0
  4 48  1  0
  5 49  1  0
  5 50  1  0
 10 51  1  0
 10 52  1  0
 12 53  1  0
 13 54  1  0
 14 55  1  0
 15 56  1  0
 16 57  1  0
 17 58  1  0
 17 59  1  0
 18 60  1  0
 18 61  1  0
 20 62  1  0
 20 63  1  0
 20 64  1  0
 22 65  1  0
 23 66  1  0
 23 67  1  0
 24 68  1  6
 26 69  1  0
 26 70  1  0
 26 71  1  0
 27 72  1  0
 27 73  1  0
 28 74  1  0
 28 75  1  0
 29 76  1  6
 30 77  1  0
 32 78  1  0
 32 79  1  0
 32 80  1  0
 33 81  1  0
 33 82  1  0
 33 83  1  0
 34 84  1  6
 35 85  1  0
 35 86  1  0
 36 87  1  0
 36 88  1  0
 38 89  1  0
 38 90  1  0
 38 91  1  0
 39 92  1  6
 40 93  1  0
 40 94  1  0
M  END
$$$$
