
     RDKit          3D

 52 54  0  0  0  0  0  0  0  0999 V2000
   -9.3250    0.1173    1.4247 N   0  0  0  0  0  0  0  0  0  0  0  0
   -8.0535   -0.0491    0.7793 C   0  0  0  0  0  0  0  0  0  0  0  0
   -7.8373   -1.0388   -0.1051 N   0  0  0  0  0  0  0  0  0  0  0  0
   -6.6292   -1.1912   -0.7141 C   0  0  0  0  0  0  0  0  0  0  0  0
   -6.1543   -2.0693   -1.6175 N   0  0  0  0  0  0  0  0  0  0  0  0
   -4.8722   -1.8000   -1.9190 C   0  0  0  0  0  0  0  0  0  0  0  0
   -4.4605   -0.6822   -1.1806 C   0  0  0  0  0  0  0  0  0  0  0  0
   -3.1143   -0.0529   -1.1979 C   0  0  0  0  0  0  0  0  0  0  0  0
   -2.3659   -0.4936    0.0051 C   0  0  0  0  0  0  0  0  0  0  0  0
   -1.0226    0.0279    0.1640 C   0  0  0  0  0  0  0  0  0  0  0  0
    0.0272   -0.6734   -0.3823 C   0  0  0  0  0  0  0  0  0  0  0  0
    1.3503   -0.2415   -0.2760 C   0  0  0  0  0  0  0  0  0  0  0  0
    1.6471    0.9038    0.3813 C   0  0  0  0  0  0  0  0  0  0  0  0
    3.0012    1.4153    0.5327 C   0  0  0  0  0  0  0  0  0  0  0  0
    3.2252    2.4998    1.1503 O   0  0  0  0  0  0  0  0  0  0  0  0
    4.1145    0.7264   -0.0005 N   0  0  0  0  0  0  0  0  0  0  0  0
    5.4428    1.2904    0.1843 C   0  0  1  0  0  0  0  0  0  0  0  0
    6.3135    0.3257    0.9424 C   0  0  0  0  0  0  0  0  0  0  0  0
    6.4849   -0.9933    0.2384 C   0  0  0  0  0  0  0  0  0  0  0  0
    7.3500   -1.8554    1.0689 C   0  0  0  0  0  0  0  0  0  0  0  0
    6.9256   -2.3120    2.1453 O   0  0  0  0  0  0  0  0  0  0  0  0
    8.6333   -2.1594    0.6571 O   0  0  0  0  0  0  0  0  0  0  0  0
    6.0268    1.5980   -1.1625 C   0  0  0  0  0  0  0  0  0  0  0  0
    5.3773    1.3635   -2.2139 O   0  0  0  0  0  0  0  0  0  0  0  0
    7.2877    2.1451   -1.2990 O   0  0  0  0  0  0  0  0  0  0  0  0
    0.5954    1.6349    0.9458 C   0  0  0  0  0  0  0  0  0  0  0  0
   -0.6978    1.1971    0.8324 C   0  0  0  0  0  0  0  0  0  0  0  0
   -5.5814   -0.3342   -0.4453 C   0  0  0  0  0  0  0  0  0  0  0  0
   -5.8230    0.6735    0.4632 C   0  0  0  0  0  0  0  0  0  0  0  0
   -4.9156    1.4721    0.7397 O   0  0  0  0  0  0  0  0  0  0  0  0
   -7.0405    0.7909    1.0479 N   0  0  0  0  0  0  0  0  0  0  0  0
   -9.7523    1.0308    1.6129 H   0  0  0  0  0  0  0  0  0  0  0  0
   -9.8177   -0.7387    1.7063 H   0  0  0  0  0  0  0  0  0  0  0  0
   -6.7123   -2.8412   -2.0163 H   0  0  0  0  0  0  0  0  0  0  0  0
   -4.2381   -2.3368   -2.6102 H   0  0  0  0  0  0  0  0  0  0  0  0
   -2.6233   -0.3849   -2.1354 H   0  0  0  0  0  0  0  0  0  0  0  0
   -3.2703    1.0324   -1.2888 H   0  0  0  0  0  0  0  0  0  0  0  0
   -2.2913   -1.6219   -0.0805 H   0  0  0  0  0  0  0  0  0  0  0  0
   -2.9171   -0.3478    0.9535 H   0  0  0  0  0  0  0  0  0  0  0  0
   -0.1324   -1.5918   -0.9183 H   0  0  0  0  0  0  0  0  0  0  0  0
    2.1377   -0.8438   -0.7324 H   0  0  0  0  0  0  0  0  0  0  0  0
    4.0035   -0.1824   -0.5257 H   0  0  0  0  0  0  0  0  0  0  0  0
    5.3714    2.2215    0.7454 H   0  0  0  0  0  0  0  0  0  0  0  0
    5.8022    0.1209    1.9064 H   0  0  0  0  0  0  0  0  0  0  0  0
    7.2921    0.7514    1.1899 H   0  0  0  0  0  0  0  0  0  0  0  0
    5.4764   -1.4414    0.1082 H   0  0  0  0  0  0  0  0  0  0  0  0
    6.9743   -0.8170   -0.7478 H   0  0  0  0  0  0  0  0  0  0  0  0
    9.1615   -2.9259    1.0788 H   0  0  0  0  0  0  0  0  0  0  0  0
    7.5057    2.8199   -2.0316 H   0  0  0  0  0  0  0  0  0  0  0  0
    0.8373    2.5498    1.4704 H   0  0  0  0  0  0  0  0  0  0  0  0
   -1.4997    1.7470    1.2586 H   0  0  0  0  0  0  0  0  0  0  0  0
   -7.2174    1.5644    1.7424 H   0  0  0  0  0  0  0  0  0  0  0  0
  1  2  1  0
  2  3  2  0
  3  4  1  0
  4  5  1  0
  5  6  1  0
  6  7  2  0
  7  8  1  0
  8  9  1  0
  9 10  1  0
 10 11  2  0
 11 12  1  0
 12 13  2  0
 13 14  1  0
 14 15  2  0
 14 16  1  0
 16 17  1  0
 17 18  1  0
 18 19  1  0
 19 20  1  0
 20 21  2  0
 20 22  1  0
 17 23  1  0
 23 24  2  0
 23 25  1  0
 13 26  1  0
 26 27  2  0
  7 28  1  0
 28 29  1  0
 29 30  2  0
 29 31  1  0
 31  2  1  0
 28  4  2  0
 27 10  1  0
  1 32  1  0
  1 33  1  0
  5 34  1  0
  6 35  1  0
  8 36  1  0
  8 37  1  0
  9 38  1  0
  9 39  1  0
 11 40  1  0
 12 41  1  0
 16 42  1  0
 17 43  1  1
 18 44  1  0
 18 45  1  0
 19 46  1  0
 19 47  1  0
 22 48  1  0
 25 49  1  0
 26 50  1  0
 27 51  1  0
 31 52  1  0
M  END
$$$$
