
     RDKit          3D

114118  0  0  0  0  0  0  0  0999 V2000
    4.8585    2.9197   -0.2790 C   0  0  1  0  0  0  0  0  0  0  0  0
    5.6645    3.9833    0.3615 N   0  0  0  0  0  0  0  0  0  0  0  0
    6.8423    3.4954    0.5825 C   0  0  0  0  0  0  0  0  0  0  0  0
    7.9043    4.1960    1.1808 O   0  0  0  0  0  0  0  0  0  0  0  0
    6.9053    2.1641    0.1382 O   0  0  0  0  0  0  0  0  0  0  0  0
    5.5225    1.6894    0.0860 C   0  0  1  0  0  0  0  0  0  0  0  0
    5.3281    1.1216    1.4652 C   0  0  0  0  0  0  0  0  0  0  0  0
    5.5420    0.5915   -0.9432 C   0  0  1  0  0  0  0  0  0  0  0  0
    6.9402    0.2352   -1.4210 C   0  0  0  0  0  0  0  0  0  0  0  0
    7.6379    1.4009   -2.0617 C   0  0  0  0  0  0  0  0  0  0  0  0
    4.8538   -0.5632   -0.5148 O   0  0  0  0  0  0  0  0  0  0  0  0
    3.7809   -1.0983   -1.1725 C   0  0  0  0  0  0  0  0  0  0  0  0
    3.3615   -0.5586   -2.2252 O   0  0  0  0  0  0  0  0  0  0  0  0
    2.7203   -2.1397   -1.2760 C   0  0  2  0  0  0  0  0  0  0  0  0
    1.7869   -1.8447   -2.4044 C   0  0  0  0  0  0  0  0  0  0  0  0
    2.1626   -2.5822   -0.0082 C   0  0  0  0  0  0  0  0  0  0  0  0
    1.9207   -3.6371    0.5578 O   0  0  0  0  0  0  0  0  0  0  0  0
    1.7221   -1.5650    1.0080 C   0  0  2  0  0  0  0  0  0  0  0  0
    1.6331   -2.4186    2.3068 C   0  0  0  0  0  0  0  0  0  0  0  0
    0.3667   -1.0022    0.7153 C   0  0  1  0  0  0  0  0  0  0  0  0
   -0.6213   -1.8963    0.9498 O   0  0  0  0  0  0  0  0  0  0  0  0
   -1.3515   -2.3833   -0.1183 C   0  0  2  0  0  0  0  0  0  0  0  0
   -2.6324   -1.8131    0.0369 O   0  0  0  0  0  0  0  0  0  0  0  0
   -3.5837   -2.4141   -0.7608 C   0  0  2  0  0  0  0  0  0  0  0  0
   -4.8287   -1.5849   -0.7382 C   0  0  0  0  0  0  0  0  0  0  0  0
   -3.8883   -3.7452   -0.0603 C   0  0  0  0  0  0  0  0  0  0  0  0
   -2.6530   -4.5677   -0.1568 C   0  0  2  0  0  0  0  0  0  0  0  0
   -2.7260   -5.5355    0.9549 N   0  0  0  0  0  0  0  0  0  0  0  0
   -3.9213   -6.3472    0.8208 C   0  0  0  0  0  0  0  0  0  0  0  0
   -1.5673   -6.4004    0.9576 C   0  0  0  0  0  0  0  0  0  0  0  0
   -1.3543   -3.8642   -0.0598 C   0  0  1  0  0  0  0  0  0  0  0  0
   -0.5653   -4.3377   -1.1401 O   0  0  0  0  0  0  0  0  0  0  0  0
    0.1051    0.3740    1.3572 C   0  0  1  0  0  0  0  0  0  0  0  0
   -0.2399    0.0300    2.8216 C   0  0  0  0  0  0  0  0  0  0  0  0
    1.3727    1.1052    1.2544 C   0  0  0  0  0  0  0  0  0  0  0  0
    1.4806    2.5452    1.6266 C   0  0  1  0  0  0  0  0  0  0  0  0
    1.1698    2.9118    3.0272 C   0  0  0  0  0  0  0  0  0  0  0  0
    2.8819    3.0438    1.2812 C   0  0  0  0  0  0  0  0  0  0  0  0
    3.6250    3.3303    2.2072 O   0  0  0  0  0  0  0  0  0  0  0  0
    3.4434    3.2151   -0.0914 C   0  0  2  0  0  0  0  0  0  0  0  0
    2.5039    2.9083   -1.2124 C   0  0  0  0  0  0  0  0  0  0  0  0
   -1.0174    0.8844    0.8171 O   0  0  0  0  0  0  0  0  0  0  0  0
   -1.1346    1.1565   -0.4956 C   0  0  0  0  0  0  0  0  0  0  0  0
   -2.5382    1.7120   -0.6849 C   0  0  0  0  0  0  0  0  0  0  0  0
   -3.3414    1.8292    0.3592 C   0  0  0  0  0  0  0  0  0  0  0  0
   -4.6822    2.3400    0.2898 C   0  0  0  0  0  0  0  0  0  0  0  0
   -5.2738    2.7643   -0.8811 C   0  0  0  0  0  0  0  0  0  0  0  0
   -6.5637    3.2517   -0.9287 C   0  0  0  0  0  0  0  0  0  0  0  0
   -7.1922    3.6849   -2.0748 C   0  0  0  0  0  0  0  0  0  0  0  0
   -8.4982    4.1629   -2.0373 C   0  0  0  0  0  0  0  0  0  0  0  0
   -9.2080    4.2196   -0.8532 C   0  0  0  0  0  0  0  0  0  0  0  0
   -8.6249    3.7982    0.3212 C   0  0  0  0  0  0  0  0  0  0  0  0
   -7.3233    3.3297    0.2387 C   0  0  0  0  0  0  0  0  0  0  0  0
   -6.7320    2.9124    1.3698 N   0  0  0  0  0  0  0  0  0  0  0  0
   -5.4803    2.4409    1.4084 C   0  0  0  0  0  0  0  0  0  0  0  0
    5.0630    3.1066   -1.3823 H   0  0  0  0  0  0  0  0  0  0  0  0
    7.7325    5.1687    1.4655 H   0  0  0  0  0  0  0  0  0  0  0  0
    5.9809    0.1876    1.4701 H   0  0  0  0  0  0  0  0  0  0  0  0
    5.8248    1.7369    2.2414 H   0  0  0  0  0  0  0  0  0  0  0  0
    4.3369    0.7510    1.6941 H   0  0  0  0  0  0  0  0  0  0  0  0
    5.0242    0.9593   -1.8419 H   0  0  0  0  0  0  0  0  0  0  0  0
    6.8897   -0.5781   -2.1488 H   0  0  0  0  0  0  0  0  0  0  0  0
    7.5689   -0.0566   -0.5278 H   0  0  0  0  0  0  0  0  0  0  0  0
    8.1344    1.0566   -3.0273 H   0  0  0  0  0  0  0  0  0  0  0  0
    6.9967    2.2242   -2.3795 H   0  0  0  0  0  0  0  0  0  0  0  0
    8.5221    1.7577   -1.4562 H   0  0  0  0  0  0  0  0  0  0  0  0
    3.3229   -3.0504   -1.6616 H   0  0  0  0  0  0  0  0  0  0  0  0
    0.9077   -2.4784   -2.4336 H   0  0  0  0  0  0  0  0  0  0  0  0
    1.5013   -0.7718   -2.4550 H   0  0  0  0  0  0  0  0  0  0  0  0
    2.3210   -2.0302   -3.3961 H   0  0  0  0  0  0  0  0  0  0  0  0
    2.5434   -0.8842    1.1474 H   0  0  0  0  0  0  0  0  0  0  0  0
    2.4838   -3.1418    2.3266 H   0  0  0  0  0  0  0  0  0  0  0  0
    0.7147   -2.9916    2.3614 H   0  0  0  0  0  0  0  0  0  0  0  0
    1.7496   -1.8064    3.2056 H   0  0  0  0  0  0  0  0  0  0  0  0
    0.3522   -0.8492   -0.4224 H   0  0  0  0  0  0  0  0  0  0  0  0
   -0.9662   -1.9891   -1.0883 H   0  0  0  0  0  0  0  0  0  0  0  0
   -3.2396   -2.6755   -1.7693 H   0  0  0  0  0  0  0  0  0  0  0  0
   -5.6264   -2.1940   -1.2304 H   0  0  0  0  0  0  0  0  0  0  0  0
   -5.1399   -1.4446    0.3103 H   0  0  0  0  0  0  0  0  0  0  0  0
   -4.7357   -0.6514   -1.3061 H   0  0  0  0  0  0  0  0  0  0  0  0
   -4.1781   -3.5254    1.0006 H   0  0  0  0  0  0  0  0  0  0  0  0
   -4.7202   -4.2116   -0.6108 H   0  0  0  0  0  0  0  0  0  0  0  0
   -2.7462   -5.1892   -1.0772 H   0  0  0  0  0  0  0  0  0  0  0  0
   -3.6836   -7.3805    1.1280 H   0  0  0  0  0  0  0  0  0  0  0  0
   -4.2623   -6.3990   -0.2427 H   0  0  0  0  0  0  0  0  0  0  0  0
   -4.7359   -5.9826    1.4825 H   0  0  0  0  0  0  0  0  0  0  0  0
   -1.9184   -7.4002    1.3317 H   0  0  0  0  0  0  0  0  0  0  0  0
   -1.1784   -6.5925   -0.0631 H   0  0  0  0  0  0  0  0  0  0  0  0
   -0.8099   -6.0782    1.6818 H   0  0  0  0  0  0  0  0  0  0  0  0
   -0.7681   -4.2268    0.8422 H   0  0  0  0  0  0  0  0  0  0  0  0
   -1.0622   -4.0563   -1.9550 H   0  0  0  0  0  0  0  0  0  0  0  0
    0.6158    0.2680    3.4444 H   0  0  0  0  0  0  0  0  0  0  0  0
   -1.1752    0.5765    3.1431 H   0  0  0  0  0  0  0  0  0  0  0  0
   -0.4990   -1.0324    2.9542 H   0  0  0  0  0  0  0  0  0  0  0  0
    1.8821    0.8450    0.3214 H   0  0  0  0  0  0  0  0  0  0  0  0
    2.0169    0.6190    2.0970 H   0  0  0  0  0  0  0  0  0  0  0  0
    0.8161    3.1326    0.9628 H   0  0  0  0  0  0  0  0  0  0  0  0
    0.1188    2.9407    3.2885 H   0  0  0  0  0  0  0  0  0  0  0  0
    1.5122    3.9863    3.1360 H   0  0  0  0  0  0  0  0  0  0  0  0
    1.8249    2.3897    3.7786 H   0  0  0  0  0  0  0  0  0  0  0  0
    3.4312    4.3891   -0.1648 H   0  0  0  0  0  0  0  0  0  0  0  0
    1.5023    3.3080   -0.9431 H   0  0  0  0  0  0  0  0  0  0  0  0
    2.5302    1.9186   -1.6393 H   0  0  0  0  0  0  0  0  0  0  0  0
    2.8071    3.5840   -2.0811 H   0  0  0  0  0  0  0  0  0  0  0  0
   -0.4963    2.0268   -0.8374 H   0  0  0  0  0  0  0  0  0  0  0  0
   -0.9668    0.3800   -1.2318 H   0  0  0  0  0  0  0  0  0  0  0  0
   -2.8518    2.0007   -1.6742 H   0  0  0  0  0  0  0  0  0  0  0  0
   -2.9616    1.5172    1.3405 H   0  0  0  0  0  0  0  0  0  0  0  0
   -4.7494    2.7308   -1.8036 H   0  0  0  0  0  0  0  0  0  0  0  0
   -6.6502    3.6459   -3.0040 H   0  0  0  0  0  0  0  0  0  0  0  0
   -9.0080    4.5082   -2.9322 H   0  0  0  0  0  0  0  0  0  0  0  0
  -10.2239    4.5782   -0.7487 H   0  0  0  0  0  0  0  0  0  0  0  0
   -9.1138    3.8086    1.3004 H   0  0  0  0  0  0  0  0  0  0  0  0
   -5.0547    2.1175    2.3559 H   0  0  0  0  0  0  0  0  0  0  0  0
  1  2  1  0
  2  3  2  0
  3  4  1  0
  3  5  1  0
  5  6  1  0
  6  7  1  1
  6  8  1  0
  8  9  1  0
  9 10  1  0
  8 11  1  0
 11 12  1  0
 12 13  2  0
 12 14  1  0
 14 15  1  0
 14 16  1  0
 16 17  2  0
 16 18  1  0
 18 19  1  0
 18 20  1  0
 20 21  1  0
 21 22  1  0
 22 23  1  0
 23 24  1  0
 24 25  1  0
 24 26  1  0
 26 27  1  0
 27 28  1  0
 28 29  1  0
 28 30  1  0
 27 31  1  0
 31 32  1  0
 20 33  1  0
 33 34  1  0
 33 35  1  0
 35 36  1  0
 36 37  1  0
 36 38  1  0
 38 39  2  0
 38 40  1  0
 40 41  1  0
 33 42  1  6
 42 43  1  0
 43 44  1  0
 44 45  2  3
 45 46  1  0
 46 47  2  0
 47 48  1  0
 48 49  2  0
 49 50  1  0
 50 51  2  0
 51 52  1  0
 52 53  2  0
 53 54  1  0
 54 55  2  0
  6  1  1  0
 31 22  1  0
 55 46  1  0
 40  1  1  0
 53 48  1  0
  1 56  1  6
  4 57  1  0
  7 58  1  0
  7 59  1  0
  7 60  1  0
  8 61  1  6
  9 62  1  0
  9 63  1  0
 10 64  1  0
 10 65  1  0
 10 66  1  0
 14 67  1  6
 15 68  1  0
 15 69  1  0
 15 70  1  0
 18 71  1  1
 19 72  1  0
 19 73  1  0
 19 74  1  0
 20 75  1  6
 22 76  1  6
 24 77  1  6
 25 78  1  0
 25 79  1  0
 25 80  1  0
 26 81  1  0
 26 82  1  0
 27 83  1  6
 29 84  1  0
 29 85  1  0
 29 86  1  0
 30 87  1  0
 30 88  1  0
 30 89  1  0
 31 90  1  1
 32 91  1  0
 34 92  1  0
 34 93  1  0
 34 94  1  0
 35 95  1  0
 35 96  1  0
 36 97  1  6
 37 98  1  0
 37 99  1  0
 37100  1  0
 40101  1  6
 41102  1  0
 41103  1  0
 41104  1  0
 43105  1  0
 43106  1  0
 44107  1  0
 45108  1  0
 47109  1  0
 49110  1  0
 50111  1  0
 51112  1  0
 52113  1  0
 55114  1  0
M  END
$$$$
