
     RDKit          3D

 49 52  0  0  0  0  0  0  0  0999 V2000
   -0.6254   -1.6231   -0.1087 O   0  0  0  0  0  0  0  0  0  0  0  0
   -0.9514   -0.7546    0.7100 C   0  0  0  0  0  0  0  0  0  0  0  0
    0.0613   -0.1723    1.6046 C   0  0  0  0  0  0  0  0  0  0  0  0
    1.4161   -0.7340    1.3968 C   0  0  0  0  0  0  0  0  0  0  0  0
    2.2366   -0.1428    0.5107 N   0  0  0  0  0  0  0  0  0  0  0  0
    3.4705   -0.6191    0.2924 C   0  0  0  0  0  0  0  0  0  0  0  0
    4.3264    0.0154   -0.6468 N   0  0  0  0  0  0  0  0  0  0  0  0
    3.9147    1.1722   -1.4130 C   0  0  0  0  0  0  0  0  0  0  0  0
    4.9151    2.2764   -1.3297 C   0  0  0  0  0  0  0  0  0  0  0  0
    6.1536    1.8110   -0.9388 O   0  0  0  0  0  0  0  0  0  0  0  0
    6.4672    0.5942   -1.5649 C   0  0  0  0  0  0  0  0  0  0  0  0
    5.6714   -0.4927   -0.8683 C   0  0  0  0  0  0  0  0  0  0  0  0
    3.8709   -1.7294    1.0015 C   0  0  0  0  0  0  0  0  0  0  0  0
    3.0105   -2.3398    1.9230 C   0  0  0  0  0  0  0  0  0  0  0  0
    3.4002   -3.3683    2.5707 O   0  0  0  0  0  0  0  0  0  0  0  0
    1.7849   -1.8117    2.0950 N   0  0  0  0  0  0  0  0  0  0  0  0
   -2.2817   -0.3084    0.8042 N   0  0  0  0  0  0  0  0  0  0  0  0
   -2.8494    0.6888    1.6909 C   0  0  0  0  0  0  0  0  0  0  0  0
   -3.8653    1.3481    0.7852 C   0  0  0  0  0  0  0  0  0  0  0  0
   -4.3684    0.2130   -0.0094 C   0  0  0  0  0  0  0  0  0  0  0  0
   -5.5741    0.0513   -0.6989 C   0  0  0  0  0  0  0  0  0  0  0  0
   -6.5422    1.0516   -0.7114 O   0  0  0  0  0  0  0  0  0  0  0  0
   -6.4545    2.0045   -1.7570 C   0  0  0  0  0  0  0  0  0  0  0  0
   -5.2575    2.6937   -1.7392 F   0  0  0  0  0  0  0  0  0  0  0  0
   -6.6235    1.3842   -2.9976 F   0  0  0  0  0  0  0  0  0  0  0  0
   -7.4556    2.9673   -1.6026 F   0  0  0  0  0  0  0  0  0  0  0  0
   -5.7650   -1.1399   -1.3662 C   0  0  0  0  0  0  0  0  0  0  0  0
   -4.8190   -2.1341   -1.3619 C   0  0  0  0  0  0  0  0  0  0  0  0
   -3.6441   -1.9371   -0.6709 C   0  0  0  0  0  0  0  0  0  0  0  0
   -3.3991   -0.7605    0.0169 C   0  0  0  0  0  0  0  0  0  0  0  0
    0.0574    0.9290    1.4615 H   0  0  0  0  0  0  0  0  0  0  0  0
   -0.1862   -0.3369    2.6848 H   0  0  0  0  0  0  0  0  0  0  0  0
    3.7429    0.8945   -2.4739 H   0  0  0  0  0  0  0  0  0  0  0  0
    2.9141    1.5271   -1.0422 H   0  0  0  0  0  0  0  0  0  0  0  0
    5.0616    2.8055   -2.3004 H   0  0  0  0  0  0  0  0  0  0  0  0
    4.6097    3.0677   -0.6038 H   0  0  0  0  0  0  0  0  0  0  0  0
    6.2368    0.6264   -2.6418 H   0  0  0  0  0  0  0  0  0  0  0  0
    7.5289    0.4060   -1.3531 H   0  0  0  0  0  0  0  0  0  0  0  0
    6.1706   -0.7697    0.0977 H   0  0  0  0  0  0  0  0  0  0  0  0
    5.6405   -1.3867   -1.5044 H   0  0  0  0  0  0  0  0  0  0  0  0
    4.8545   -2.1291    0.8430 H   0  0  0  0  0  0  0  0  0  0  0  0
    1.1706   -2.2919    2.7891 H   0  0  0  0  0  0  0  0  0  0  0  0
   -3.3186    0.2454    2.5866 H   0  0  0  0  0  0  0  0  0  0  0  0
   -2.0825    1.4237    2.0155 H   0  0  0  0  0  0  0  0  0  0  0  0
   -4.6721    1.7407    1.4690 H   0  0  0  0  0  0  0  0  0  0  0  0
   -3.4301    2.1504    0.1726 H   0  0  0  0  0  0  0  0  0  0  0  0
   -6.6987   -1.3173   -1.9252 H   0  0  0  0  0  0  0  0  0  0  0  0
   -4.9374   -3.0780   -1.8740 H   0  0  0  0  0  0  0  0  0  0  0  0
   -2.8855   -2.7105   -0.6570 H   0  0  0  0  0  0  0  0  0  0  0  0
  1  2  2  0
  2  3  1  0
  3  4  1  0
  4  5  2  0
  5  6  1  0
  6  7  1  0
  7  8  1  0
  8  9  1  0
  9 10  1  0
 10 11  1  0
 11 12  1  0
  6 13  2  0
 13 14  1  0
 14 15  2  0
 14 16  1  0
  2 17  1  0
 17 18  1  0
 18 19  1  0
 19 20  1  0
 20 21  2  0
 21 22  1  0
 22 23  1  0
 23 24  1  0
 23 25  1  0
 23 26  1  0
 21 27  1  0
 27 28  2  0
 28 29  1  0
 29 30  2  0
 16  4  1  0
 30 17  1  0
 12  7  1  0
 30 20  1  0
  3 31  1  0
  3 32  1  0
  8 33  1  0
  8 34  1  0
  9 35  1  0
  9 36  1  0
 11 37  1  0
 11 38  1  0
 12 39  1  0
 12 40  1  0
 13 41  1  0
 16 42  1  0
 18 43  1  0
 18 44  1  0
 19 45  1  0
 19 46  1  0
 27 47  1  0
 28 48  1  0
 29 49  1  0
M  END
$$$$
