
     RDKit          3D

 26 25  0  0  0  0  0  0  0  0999 V2000
    1.4901    1.4089   -0.8544 N   0  0  0  0  0  0  0  0  0  0  0  0
    1.9283    0.1627   -0.3307 C   0  0  2  0  0  0  0  0  0  0  0  0
    0.8933   -0.7706    0.1787 C   0  0  0  0  0  0  0  0  0  0  0  0
   -0.0828   -1.1996   -0.8669 C   0  0  0  0  0  0  0  0  0  0  0  0
   -0.8551   -0.0629   -1.4686 C   0  0  0  0  0  0  0  0  0  0  0  0
   -1.5800    0.6272   -0.4231 N   0  0  0  0  0  0  0  0  0  0  0  0
   -2.6641   -0.0511    0.2230 C   0  0  0  0  0  0  0  0  0  0  0  0
   -3.4098    0.6396    1.2441 N   0  0  0  0  0  0  0  0  0  0  0  0
   -2.9902   -1.2489   -0.0773 N   0  0  0  0  0  0  0  0  0  0  0  0
    2.9430    0.3960    0.7548 C   0  0  0  0  0  0  0  0  0  0  0  0
    3.5814   -0.6138    1.4647 O   0  0  0  0  0  0  0  0  0  0  0  0
    3.3192    1.5527    1.1331 O   0  0  0  0  0  0  0  0  0  0  0  0
    1.1356    2.0810   -0.1433 H   0  0  0  0  0  0  0  0  0  0  0  0
    2.2220    1.7953   -1.4821 H   0  0  0  0  0  0  0  0  0  0  0  0
    2.4952   -0.3331   -1.1811 H   0  0  0  0  0  0  0  0  0  0  0  0
    0.3568   -0.3574    1.0764 H   0  0  0  0  0  0  0  0  0  0  0  0
    1.3584   -1.7257    0.5632 H   0  0  0  0  0  0  0  0  0  0  0  0
    0.5086   -1.7108   -1.6922 H   0  0  0  0  0  0  0  0  0  0  0  0
   -0.7581   -1.9881   -0.4550 H   0  0  0  0  0  0  0  0  0  0  0  0
   -1.6608   -0.5412   -2.1100 H   0  0  0  0  0  0  0  0  0  0  0  0
   -0.2466    0.6079   -2.0732 H   0  0  0  0  0  0  0  0  0  0  0  0
   -1.3766    1.5982   -0.0962 H   0  0  0  0  0  0  0  0  0  0  0  0
   -3.8541    1.4639    0.7770 H   0  0  0  0  0  0  0  0  0  0  0  0
   -3.5917    0.5110    2.2628 H   0  0  0  0  0  0  0  0  0  0  0  0
   -3.7643   -1.7304    0.3870 H   0  0  0  0  0  0  0  0  0  0  0  0
    4.6025   -0.5109    1.5582 H   0  0  0  0  0  0  0  0  0  0  0  0
  1  2  1  0
  2  3  1  0
  3  4  1  0
  4  5  1  0
  5  6  1  0
  6  7  1  0
  7  8  1  0
  7  9  2  3
  2 10  1  0
 10 11  1  0
 10 12  2  0
  1 13  1  0
  1 14  1  0
  2 15  1  6
  3 16  1  0
  3 17  1  0
  4 18  1  0
  4 19  1  0
  5 20  1  0
  5 21  1  0
  6 22  1  0
  8 23  1  0
  8 24  1  0
  9 25  1  0
 11 26  1  0
M  END
$$$$
