
     RDKit          3D

 44 46  0  0  0  0  0  0  0  0999 V2000
    8.1015    1.5971   -0.6796 C   0  0  0  0  0  0  0  0  0  0  0  0
    6.9658    1.8606   -1.4309 O   0  0  0  0  0  0  0  0  0  0  0  0
    5.8982    1.0647   -1.1146 C   0  0  0  0  0  0  0  0  0  0  0  0
    5.4431    1.1851    0.3045 C   0  0  0  0  0  0  0  0  0  0  0  0
    4.3071    0.3010    0.5108 N   0  0  0  0  0  0  0  0  0  0  0  0
    3.0052    0.5957    0.3474 C   0  0  0  0  0  0  0  0  0  0  0  0
    2.2859   -0.5330    0.6503 C   0  0  0  0  0  0  0  0  0  0  0  0
    0.8778   -0.7335    0.6316 N   0  0  0  0  0  0  0  0  0  0  0  0
    0.2128   -1.1926   -0.5443 C   0  0  0  0  0  0  0  0  0  0  0  0
    0.9443   -1.4027   -1.5407 O   0  0  0  0  0  0  0  0  0  0  0  0
   -1.2277   -1.4027   -0.5794 C   0  0  0  0  0  0  0  0  0  0  0  0
   -1.8492   -1.8619   -1.7744 C   0  0  0  0  0  0  0  0  0  0  0  0
   -3.5577   -1.9549   -1.3162 S   0  0  0  0  0  0  0  0  0  0  0  0
   -3.2634   -1.3701    0.4262 C   0  0  0  0  0  0  0  0  0  0  0  0
   -4.3476   -1.2160    1.3997 C   0  0  0  0  0  0  0  0  0  0  0  0
   -4.5326   -1.9259    2.5380 N   0  0  0  0  0  0  0  0  0  0  0  0
   -5.6148   -1.4881    3.1348 N   0  0  0  0  0  0  0  0  0  0  0  0
   -6.1334   -0.5135    2.4110 C   0  0  0  0  0  0  0  0  0  0  0  0
   -5.3673   -0.3207    1.3246 N   0  0  0  0  0  0  0  0  0  0  0  0
   -5.5171    0.6174    0.2486 C   0  0  0  0  0  0  0  0  0  0  0  0
   -6.1937   -0.0024   -0.9550 C   0  0  0  0  0  0  0  0  0  0  0  0
   -4.2393    1.3298   -0.1101 C   0  0  0  0  0  0  0  0  0  0  0  0
   -2.0280   -1.2079    0.3988 N   0  0  0  0  0  0  0  0  0  0  0  0
    3.1914   -1.5115    0.9994 C   0  0  0  0  0  0  0  0  0  0  0  0
    4.4207   -0.9552    0.8996 N   0  0  0  0  0  0  0  0  0  0  0  0
    8.4332    0.5417   -0.8164 H   0  0  0  0  0  0  0  0  0  0  0  0
    8.9283    2.2648   -1.0209 H   0  0  0  0  0  0  0  0  0  0  0  0
    7.8761    1.8466    0.3743 H   0  0  0  0  0  0  0  0  0  0  0  0
    5.0547    1.2168   -1.8226 H   0  0  0  0  0  0  0  0  0  0  0  0
    6.2203    0.0080   -1.2627 H   0  0  0  0  0  0  0  0  0  0  0  0
    5.1524    2.2388    0.5647 H   0  0  0  0  0  0  0  0  0  0  0  0
    6.2216    0.8864    1.0083 H   0  0  0  0  0  0  0  0  0  0  0  0
    2.5842    1.5391    0.0363 H   0  0  0  0  0  0  0  0  0  0  0  0
    0.3319   -0.5452    1.4764 H   0  0  0  0  0  0  0  0  0  0  0  0
   -1.3867   -2.0868   -2.6995 H   0  0  0  0  0  0  0  0  0  0  0  0
   -7.0417    0.0729    2.6227 H   0  0  0  0  0  0  0  0  0  0  0  0
   -6.2209    1.4180    0.6242 H   0  0  0  0  0  0  0  0  0  0  0  0
   -5.6030    0.1621   -1.8970 H   0  0  0  0  0  0  0  0  0  0  0  0
   -6.3910   -1.1029   -0.7978 H   0  0  0  0  0  0  0  0  0  0  0  0
   -7.1912    0.4387   -1.1600 H   0  0  0  0  0  0  0  0  0  0  0  0
   -3.9300    1.0225   -1.1480 H   0  0  0  0  0  0  0  0  0  0  0  0
   -4.3890    2.4462   -0.1981 H   0  0  0  0  0  0  0  0  0  0  0  0
   -3.4386    1.1999    0.6288 H   0  0  0  0  0  0  0  0  0  0  0  0
    3.0076   -2.5265    1.2980 H   0  0  0  0  0  0  0  0  0  0  0  0
  1  2  1  0
  2  3  1  0
  3  4  1  0
  4  5  1  0
  5  6  1  0
  6  7  2  0
  7  8  1  0
  8  9  1  0
  9 10  2  0
  9 11  1  0
 11 12  2  0
 12 13  1  0
 13 14  1  0
 14 15  1  0
 15 16  2  0
 16 17  1  0
 17 18  2  0
 18 19  1  0
 19 20  1  0
 20 21  1  0
 20 22  1  0
 14 23  2  0
  7 24  1  0
 24 25  2  0
 25  5  1  0
 23 11  1  0
 19 15  1  0
  1 26  1  0
  1 27  1  0
  1 28  1  0
  3 29  1  0
  3 30  1  0
  4 31  1  0
  4 32  1  0
  6 33  1  0
  8 34  1  0
 12 35  1  0
 18 36  1  0
 20 37  1  0
 21 38  1  0
 21 39  1  0
 21 40  1  0
 22 41  1  0
 22 42  1  0
 22 43  1  0
 24 44  1  0
M  END
$$$$
