
     RDKit          3D

 42 44  0  0  0  0  0  0  0  0999 V2000
   -5.9050   -1.1547    1.6547 N   0  0  0  0  0  0  0  0  0  0  0  0
   -5.0062   -0.6624    0.6483 C   0  0  0  0  0  0  0  0  0  0  0  0
   -5.3893    0.3602   -0.1706 N   0  0  0  0  0  0  0  0  0  0  0  0
   -4.5233    0.8131   -1.1186 C   0  0  0  0  0  0  0  0  0  0  0  0
   -3.3180    0.2249   -1.2042 N   0  0  0  0  0  0  0  0  0  0  0  0
   -2.8903   -0.7636   -0.4451 C   0  0  0  0  0  0  0  0  0  0  0  0
   -3.7653   -1.2114    0.5028 C   0  0  0  0  0  0  0  0  0  0  0  0
   -3.1841   -2.2090    1.1844 N   0  0  0  0  0  0  0  0  0  0  0  0
   -1.9580   -2.3823    0.6669 C   0  0  0  0  0  0  0  0  0  0  0  0
   -1.7888   -1.4863   -0.3359 N   0  0  0  0  0  0  0  0  0  0  0  0
   -0.5940   -1.3796   -1.1192 C   0  0  2  0  0  0  0  0  0  0  0  0
    0.4895   -1.7510   -0.3245 O   0  0  0  0  0  0  0  0  0  0  0  0
    1.5093   -0.8491   -0.5491 C   0  0  2  0  0  0  0  0  0  0  0  0
    2.4757   -0.7789    0.5976 C   0  0  0  0  0  0  0  0  0  0  0  0
    3.4559    0.1355    0.2955 O   0  0  0  0  0  0  0  0  0  0  0  0
    4.6266    0.3485    1.4626 P   0  0  0  0  0  0  0  0  0  0  0  0
    5.5188    1.7429    1.0303 O   0  0  0  0  0  0  0  0  0  0  0  0
    5.7284   -0.9000    1.5935 O   0  0  0  0  0  0  0  0  0  0  0  0
    4.0246    0.5767    2.8368 O   0  0  0  0  0  0  0  0  0  0  0  0
    0.7488    0.4491   -0.7388 C   0  0  1  0  0  0  0  0  0  0  0  0
    1.6306    1.3268   -1.3570 O   0  0  0  0  0  0  0  0  0  0  0  0
    1.8167    2.7884   -0.5731 P   0  0  0  0  0  0  0  0  0  0  0  0
    1.8162    2.6601    1.1048 O   0  0  0  0  0  0  0  0  0  0  0  0
    0.7182    3.9528   -1.1203 O   0  0  0  0  0  0  0  0  0  0  0  0
    3.2027    3.3140   -0.9537 O   0  0  0  0  0  0  0  0  0  0  0  0
   -0.2976   -0.0706   -1.7212 C   0  0  1  0  0  0  0  0  0  0  0  0
    0.4190   -0.2767   -2.9215 O   0  0  0  0  0  0  0  0  0  0  0  0
   -6.1840   -1.0995    2.6516 H   0  0  0  0  0  0  0  0  0  0  0  0
   -6.4301   -1.8074    1.0420 H   0  0  0  0  0  0  0  0  0  0  0  0
   -4.8144    1.6190   -1.7700 H   0  0  0  0  0  0  0  0  0  0  0  0
   -1.2952   -3.1471    1.0666 H   0  0  0  0  0  0  0  0  0  0  0  0
   -0.6186   -2.1592   -1.9356 H   0  0  0  0  0  0  0  0  0  0  0  0
    2.0136   -1.0664   -1.5120 H   0  0  0  0  0  0  0  0  0  0  0  0
    1.9467   -0.3816    1.5010 H   0  0  0  0  0  0  0  0  0  0  0  0
    2.8400   -1.7825    0.8874 H   0  0  0  0  0  0  0  0  0  0  0  0
    6.1348    1.4403    0.3170 H   0  0  0  0  0  0  0  0  0  0  0  0
    5.5143   -1.7082    1.0604 H   0  0  0  0  0  0  0  0  0  0  0  0
    0.2937    0.8379    0.1835 H   0  0  0  0  0  0  0  0  0  0  0  0
    1.6158    3.5427    1.5002 H   0  0  0  0  0  0  0  0  0  0  0  0
   -0.0757    3.4913   -1.4408 H   0  0  0  0  0  0  0  0  0  0  0  0
   -1.0859    0.6250   -1.9261 H   0  0  0  0  0  0  0  0  0  0  0  0
    0.5840   -1.2219   -3.0999 H   0  0  0  0  0  0  0  0  0  0  0  0
  1  2  1  0
  2  3  2  0
  3  4  1  0
  4  5  2  0
  5  6  1  0
  6  7  2  0
  7  8  1  0
  8  9  2  0
  9 10  1  0
 10 11  1  0
 11 12  1  0
 12 13  1  0
 13 14  1  0
 14 15  1  0
 15 16  1  0
 16 17  1  0
 16 18  1  0
 16 19  2  0
 13 20  1  0
 20 21  1  0
 21 22  1  0
 22 23  1  0
 22 24  1  0
 22 25  2  0
 20 26  1  0
 26 27  1  0
  7  2  1  0
 26 11  1  0
 10  6  1  0
  1 28  1  0
  1 29  1  0
  4 30  1  0
  9 31  1  0
 11 32  1  6
 13 33  1  6
 14 34  1  0
 14 35  1  0
 17 36  1  0
 18 37  1  0
 20 38  1  1
 23 39  1  0
 24 40  1  0
 26 41  1  6
 27 42  1  0
M  END
$$$$
