
     RDKit          3D

 76 81  0  0  0  0  0  0  0  0999 V2000
   -1.6608   -4.3426   -3.2532 C   0  0  0  0  0  0  0  0  0  0  0  0
   -1.5105   -3.5731   -2.0706 O   0  0  0  0  0  0  0  0  0  0  0  0
   -2.0921   -3.9404   -0.8668 C   0  0  0  0  0  0  0  0  0  0  0  0
   -2.8231   -5.0682   -0.8289 N   0  0  0  0  0  0  0  0  0  0  0  0
   -3.3944   -5.4362    0.3368 C   0  0  0  0  0  0  0  0  0  0  0  0
   -3.2132   -4.6544    1.4393 C   0  0  0  0  0  0  0  0  0  0  0  0
   -2.4684   -3.5176    1.3733 N   0  0  0  0  0  0  0  0  0  0  0  0
   -1.8886   -3.1272    0.2275 C   0  0  0  0  0  0  0  0  0  0  0  0
   -1.1233   -1.9373    0.2071 N   0  0  0  0  0  0  0  0  0  0  0  0
    0.2915   -1.8771    0.4994 C   0  0  0  0  0  0  0  0  0  0  0  0
    0.8486   -2.7144    1.2574 O   0  0  0  0  0  0  0  0  0  0  0  0
    0.8336   -0.7655   -0.2016 N   0  0  0  0  0  0  0  0  0  0  0  0
    2.1939   -0.3299   -0.2094 C   0  0  0  0  0  0  0  0  0  0  0  0
    3.1802   -0.9872    0.4872 C   0  0  0  0  0  0  0  0  0  0  0  0
    4.5125   -0.5906    0.4988 C   0  0  0  0  0  0  0  0  0  0  0  0
    4.8824    0.5219   -0.2231 C   0  0  0  0  0  0  0  0  0  0  0  0
    6.2842    0.8898   -0.1955 C   0  0  0  0  0  0  0  0  0  0  0  0
    7.2474   -0.0865   -0.4501 C   0  0  0  0  0  0  0  0  0  0  0  0
    8.5589    0.2819   -0.4312 C   0  0  0  0  0  0  0  0  0  0  0  0
    8.9848    1.5694   -0.1735 C   0  0  0  0  0  0  0  0  0  0  0  0
   10.3921    1.9402   -0.1584 C   0  0  0  0  0  0  0  0  0  0  0  0
   10.7277    3.1070    0.0770 O   0  0  0  0  0  0  0  0  0  0  0  0
   11.3332    0.9613   -0.4122 O   0  0  0  0  0  0  0  0  0  0  0  0
    7.9996    2.5023    0.0731 C   0  0  0  0  0  0  0  0  0  0  0  0
    6.6473    2.1856    0.0674 C   0  0  0  0  0  0  0  0  0  0  0  0
    5.6162    3.2217    0.3507 C   0  0  0  0  0  0  0  0  0  0  0  0
    3.9034    1.1826   -0.9203 C   0  0  0  0  0  0  0  0  0  0  0  0
    2.5678    0.7755   -0.9250 C   0  0  0  0  0  0  0  0  0  0  0  0
   -0.2611   -0.1797   -0.9004 C   0  0  0  0  0  0  0  0  0  0  0  0
   -0.2299    0.5026   -1.9501 O   0  0  0  0  0  0  0  0  0  0  0  0
   -1.4716   -0.5647   -0.0933 C   0  0  0  0  0  0  0  0  0  0  0  0
   -1.4319    0.3137    1.1300 C   0  0  0  0  0  0  0  0  0  0  0  0
   -2.7116    0.1689    1.8863 C   0  0  0  0  0  0  0  0  0  0  0  0
   -3.8254    0.5384    1.0684 N   0  0  0  0  0  0  0  0  0  0  0  0
   -4.4375    1.7226    1.6081 C   0  0  0  0  0  0  0  0  0  0  0  0
   -5.6049    2.1686    0.8029 C   0  0  0  0  0  0  0  0  0  0  0  0
   -5.4394    3.2274    0.0018 N   0  0  0  0  0  0  0  0  0  0  0  0
   -6.4660    3.6777   -0.7549 C   0  0  0  0  0  0  0  0  0  0  0  0
   -7.6779    3.0389   -0.6933 C   0  0  0  0  0  0  0  0  0  0  0  0
   -7.8501    1.9544    0.1264 C   0  0  0  0  0  0  0  0  0  0  0  0
   -6.7973    1.5003    0.8962 C   0  0  0  0  0  0  0  0  0  0  0  0
   -6.9809    0.3248    1.7855 C   0  0  0  0  0  0  0  0  0  0  0  0
   -3.4998    0.7546   -0.3064 C   0  0  0  0  0  0  0  0  0  0  0  0
   -2.7282   -0.4375   -0.8902 C   0  0  0  0  0  0  0  0  0  0  0  0
   -1.6881   -3.6359   -4.0978 H   0  0  0  0  0  0  0  0  0  0  0  0
   -0.7995   -5.0325   -3.3323 H   0  0  0  0  0  0  0  0  0  0  0  0
   -2.6311   -4.8776   -3.2344 H   0  0  0  0  0  0  0  0  0  0  0  0
   -3.9725   -6.3508    0.3167 H   0  0  0  0  0  0  0  0  0  0  0  0
   -3.6756   -4.9585    2.3692 H   0  0  0  0  0  0  0  0  0  0  0  0
    2.9593   -1.8812    1.0843 H   0  0  0  0  0  0  0  0  0  0  0  0
    5.2494   -1.1600    1.0763 H   0  0  0  0  0  0  0  0  0  0  0  0
    6.9430   -1.0979   -0.6538 H   0  0  0  0  0  0  0  0  0  0  0  0
    9.3669   -0.4400   -0.6234 H   0  0  0  0  0  0  0  0  0  0  0  0
   12.2800    1.1952   -0.7371 H   0  0  0  0  0  0  0  0  0  0  0  0
    8.2930    3.5308    0.2813 H   0  0  0  0  0  0  0  0  0  0  0  0
    5.9911    3.9158    1.1393 H   0  0  0  0  0  0  0  0  0  0  0  0
    4.6725    2.8152    0.7240 H   0  0  0  0  0  0  0  0  0  0  0  0
    5.4026    3.8475   -0.5362 H   0  0  0  0  0  0  0  0  0  0  0  0
    4.1776    2.0504   -1.4918 H   0  0  0  0  0  0  0  0  0  0  0  0
    1.8549    1.3539   -1.5010 H   0  0  0  0  0  0  0  0  0  0  0  0
   -1.2612    1.3564    0.7640 H   0  0  0  0  0  0  0  0  0  0  0  0
   -0.5451   -0.0067    1.7481 H   0  0  0  0  0  0  0  0  0  0  0  0
   -2.6620    0.8374    2.7963 H   0  0  0  0  0  0  0  0  0  0  0  0
   -2.7995   -0.8940    2.1988 H   0  0  0  0  0  0  0  0  0  0  0  0
   -3.6911    2.5464    1.7081 H   0  0  0  0  0  0  0  0  0  0  0  0
   -4.8258    1.5536    2.6399 H   0  0  0  0  0  0  0  0  0  0  0  0
   -6.3417    4.5424   -1.4133 H   0  0  0  0  0  0  0  0  0  0  0  0
   -8.4961    3.4059   -1.3035 H   0  0  0  0  0  0  0  0  0  0  0  0
   -8.8087    1.4278    0.1925 H   0  0  0  0  0  0  0  0  0  0  0  0
   -6.4215   -0.5688    1.4114 H   0  0  0  0  0  0  0  0  0  0  0  0
   -8.0512    0.0349    1.7853 H   0  0  0  0  0  0  0  0  0  0  0  0
   -6.7134    0.5647    2.8327 H   0  0  0  0  0  0  0  0  0  0  0  0
   -4.4050    0.8628   -0.9110 H   0  0  0  0  0  0  0  0  0  0  0  0
   -2.8691    1.6509   -0.4815 H   0  0  0  0  0  0  0  0  0  0  0  0
   -2.5448   -0.1749   -1.9537 H   0  0  0  0  0  0  0  0  0  0  0  0
   -3.4046   -1.3155   -0.7772 H   0  0  0  0  0  0  0  0  0  0  0  0
  1  2  1  0
  2  3  1  0
  3  4  2  0
  4  5  1  0
  5  6  2  0
  6  7  1  0
  7  8  2  0
  8  9  1  0
  9 10  1  0
 10 11  2  0
 10 12  1  0
 12 13  1  0
 13 14  2  0
 14 15  1  0
 15 16  2  0
 16 17  1  0
 17 18  2  0
 18 19  1  0
 19 20  2  0
 20 21  1  0
 21 22  2  0
 21 23  1  0
 20 24  1  0
 24 25  2  0
 25 26  1  0
 16 27  1  0
 27 28  2  0
 12 29  1  0
 29 30  2  0
 29 31  1  0
 31 32  1  0
 32 33  1  0
 33 34  1  0
 34 35  1  0
 35 36  1  0
 36 37  2  0
 37 38  1  0
 38 39  2  0
 39 40  1  0
 40 41  2  0
 41 42  1  0
 34 43  1  0
 43 44  1  0
  8  3  1  0
 31  9  1  0
 41 36  1  0
 28 13  1  0
 44 31  1  0
 25 17  1  0
  1 45  1  0
  1 46  1  0
  1 47  1  0
  5 48  1  0
  6 49  1  0
 14 50  1  0
 15 51  1  0
 18 52  1  0
 19 53  1  0
 23 54  1  0
 24 55  1  0
 26 56  1  0
 26 57  1  0
 26 58  1  0
 27 59  1  0
 28 60  1  0
 32 61  1  0
 32 62  1  0
 33 63  1  0
 33 64  1  0
 35 65  1  0
 35 66  1  0
 38 67  1  0
 39 68  1  0
 40 69  1  0
 42 70  1  0
 42 71  1  0
 42 72  1  0
 43 73  1  0
 43 74  1  0
 44 75  1  0
 44 76  1  0
M  END
$$$$
