
     RDKit          3D

 59 62  0  0  0  0  0  0  0  0999 V2000
    7.8756    1.1328   -0.4419 N   0  0  0  0  0  0  0  0  0  0  0  0
    6.7268    0.5982    0.2655 C   0  0  0  0  0  0  0  0  0  0  0  0
    6.0671    1.7025    1.0757 C   0  0  0  0  0  0  0  0  0  0  0  0
    4.5498    1.7070    0.8419 C   0  0  0  0  0  0  0  0  0  0  0  0
    4.3394    2.0053   -0.5272 N   0  0  0  0  0  0  0  0  0  0  0  0
    3.0262    2.3560   -0.9048 C   0  0  0  0  0  0  0  0  0  0  0  0
    1.9955    1.3423   -0.6557 C   0  0  0  0  0  0  0  0  0  0  0  0
    1.6710    0.3901   -1.5981 C   0  0  0  0  0  0  0  0  0  0  0  0
    0.7005   -0.5697   -1.3726 C   0  0  0  0  0  0  0  0  0  0  0  0
    0.0056   -0.6112   -0.1700 C   0  0  0  0  0  0  0  0  0  0  0  0
   -1.0252   -1.6400    0.0541 C   0  0  0  0  0  0  0  0  0  0  0  0
   -1.2701   -2.4907   -0.8685 O   0  0  0  0  0  0  0  0  0  0  0  0
   -1.7790   -1.7586    1.2381 N   0  0  0  0  0  0  0  0  0  0  0  0
   -2.7518   -2.7700    1.3843 C   0  0  0  0  0  0  0  0  0  0  0  0
   -2.4047   -4.0147    1.9116 C   0  0  0  0  0  0  0  0  0  0  0  0
   -3.3726   -4.9911    2.0462 C   0  0  0  0  0  0  0  0  0  0  0  0
   -4.6652   -4.7133    1.6552 C   0  0  0  0  0  0  0  0  0  0  0  0
   -5.9007   -5.9279    1.8155 Cl  0  0  0  0  0  0  0  0  0  0  0  0
   -5.0210   -3.4669    1.1254 C   0  0  0  0  0  0  0  0  0  0  0  0
   -4.0394   -2.4978    0.9965 C   0  0  0  0  0  0  0  0  0  0  0  0
   -4.3619   -1.1954    0.4553 C   0  0  0  0  0  0  0  0  0  0  0  0
   -3.4399   -0.3412    0.3571 O   0  0  0  0  0  0  0  0  0  0  0  0
   -5.6347   -0.7718    0.0147 N   0  0  0  0  0  0  0  0  0  0  0  0
   -5.8949    0.5268   -0.5110 C   0  0  0  0  0  0  0  0  0  0  0  0
   -5.7825    0.7981   -1.8588 C   0  0  0  0  0  0  0  0  0  0  0  0
   -6.0291    2.0462   -2.3900 C   0  0  0  0  0  0  0  0  0  0  0  0
   -6.4055    3.0644   -1.5213 C   0  0  0  0  0  0  0  0  0  0  0  0
   -6.7342    4.6718   -2.1215 Cl  0  0  0  0  0  0  0  0  0  0  0  0
   -6.5130    2.7748   -0.1741 C   0  0  0  0  0  0  0  0  0  0  0  0
   -6.2624    1.5341    0.3128 N   0  0  0  0  0  0  0  0  0  0  0  0
    0.3232    0.3340    0.7737 C   0  0  0  0  0  0  0  0  0  0  0  0
    1.3069    1.3021    0.5373 C   0  0  0  0  0  0  0  0  0  0  0  0
    5.0849    1.2263   -1.4528 C   0  0  0  0  0  0  0  0  0  0  0  0
    5.7751    0.0366   -0.7712 C   0  0  0  0  0  0  0  0  0  0  0  0
    8.4312    0.3185   -0.8188 H   0  0  0  0  0  0  0  0  0  0  0  0
    8.5208    1.6682    0.1724 H   0  0  0  0  0  0  0  0  0  0  0  0
    7.0524   -0.2482    0.9345 H   0  0  0  0  0  0  0  0  0  0  0  0
    6.4203    2.7000    0.6838 H   0  0  0  0  0  0  0  0  0  0  0  0
    6.3263    1.6000    2.1266 H   0  0  0  0  0  0  0  0  0  0  0  0
    4.1111    0.7555    1.1824 H   0  0  0  0  0  0  0  0  0  0  0  0
    4.1636    2.5589    1.4519 H   0  0  0  0  0  0  0  0  0  0  0  0
    2.7505    3.3048   -0.3571 H   0  0  0  0  0  0  0  0  0  0  0  0
    3.0428    2.6636   -1.9825 H   0  0  0  0  0  0  0  0  0  0  0  0
    2.2070    0.4166   -2.5348 H   0  0  0  0  0  0  0  0  0  0  0  0
    0.4504   -1.3142   -2.1161 H   0  0  0  0  0  0  0  0  0  0  0  0
   -1.6194   -1.0955    2.0144 H   0  0  0  0  0  0  0  0  0  0  0  0
   -1.3990   -4.2138    2.2096 H   0  0  0  0  0  0  0  0  0  0  0  0
   -3.1783   -5.9763    2.4454 H   0  0  0  0  0  0  0  0  0  0  0  0
   -6.0412   -3.2806    0.8287 H   0  0  0  0  0  0  0  0  0  0  0  0
   -6.4195   -1.4500    0.0807 H   0  0  0  0  0  0  0  0  0  0  0  0
   -5.4821   -0.0506   -2.4842 H   0  0  0  0  0  0  0  0  0  0  0  0
   -5.9296    2.2186   -3.4550 H   0  0  0  0  0  0  0  0  0  0  0  0
   -6.8089    3.5921    0.4764 H   0  0  0  0  0  0  0  0  0  0  0  0
   -0.2109    0.3178    1.7233 H   0  0  0  0  0  0  0  0  0  0  0  0
    1.5196    2.0254    1.3150 H   0  0  0  0  0  0  0  0  0  0  0  0
    5.9413    1.8683   -1.8149 H   0  0  0  0  0  0  0  0  0  0  0  0
    4.5468    0.9199   -2.3598 H   0  0  0  0  0  0  0  0  0  0  0  0
    5.0481   -0.6288   -0.2900 H   0  0  0  0  0  0  0  0  0  0  0  0
    6.3970   -0.4590   -1.5450 H   0  0  0  0  0  0  0  0  0  0  0  0
  1  2  1  0
  2  3  1  0
  3  4  1  0
  4  5  1  0
  5  6  1  0
  6  7  1  0
  7  8  2  0
  8  9  1  0
  9 10  2  0
 10 11  1  0
 11 12  2  0
 11 13  1  0
 13 14  1  0
 14 15  2  0
 15 16  1  0
 16 17  2  0
 17 18  1  0
 17 19  1  0
 19 20  2  0
 20 21  1  0
 21 22  2  0
 21 23  1  0
 23 24  1  0
 24 25  2  0
 25 26  1  0
 26 27  2  0
 27 28  1  0
 27 29  1  0
 29 30  2  0
 10 31  1  0
 31 32  2  0
  5 33  1  0
 33 34  1  0
 34  2  1  0
 32  7  1  0
 20 14  1  0
 30 24  1  0
  1 35  1  0
  1 36  1  0
  2 37  1  0
  3 38  1  0
  3 39  1  0
  4 40  1  0
  4 41  1  0
  6 42  1  0
  6 43  1  0
  8 44  1  0
  9 45  1  0
 13 46  1  0
 15 47  1  0
 16 48  1  0
 19 49  1  0
 23 50  1  0
 25 51  1  0
 26 52  1  0
 29 53  1  0
 31 54  1  0
 32 55  1  0
 33 56  1  0
 33 57  1  0
 34 58  1  0
 34 59  1  0
M  END
$$$$
