
     RDKit          3D

101103  0  0  0  0  0  0  0  0999 V2000
   14.6189    2.0542    0.0285 C   0  0  0  0  0  0  0  0  0  0  0  0
   13.2260    1.4388   -0.0443 C   0  0  0  0  0  0  0  0  0  0  0  0
   12.9357    0.8251    1.2982 C   0  0  0  0  0  0  0  0  0  0  0  0
   11.5848    0.1771    1.3622 C   0  0  0  0  0  0  0  0  0  0  0  0
   11.4128   -0.3938    2.7561 C   0  0  0  0  0  0  0  0  0  0  0  0
   10.1142   -1.0604    2.9308 C   0  0  0  0  0  0  0  0  0  0  0  0
    9.6836   -1.6184    3.9131 O   0  0  0  0  0  0  0  0  0  0  0  0
    8.4823   -1.6742    2.5387 S   0  0  0  0  0  0  0  0  0  0  0  0
    8.1267   -1.1746    0.8377 C   0  0  0  0  0  0  0  0  0  0  0  0
    6.8073   -1.6463    0.3247 C   0  0  0  0  0  0  0  0  0  0  0  0
    6.6582   -1.1421   -1.0562 N   0  0  0  0  0  0  0  0  0  0  0  0
    5.4461   -1.4940   -1.7621 C   0  0  0  0  0  0  0  0  0  0  0  0
    4.9688   -2.1682   -0.7893 O   0  0  0  0  0  0  0  0  0  0  0  0
    5.5157   -0.8831   -3.1009 C   0  0  0  0  0  0  0  0  0  0  0  0
    4.3617   -1.1336   -3.9975 C   0  0  0  0  0  0  0  0  0  0  0  0
    3.0769   -0.6840   -3.6146 N   0  0  0  0  0  0  0  0  0  0  0  0
    1.9959   -0.7618   -2.7111 C   0  0  0  0  0  0  0  0  0  0  0  0
    2.2281   -1.6167   -1.8217 O   0  0  0  0  0  0  0  0  0  0  0  0
    0.7673    0.0512   -2.8070 C   0  0  2  0  0  0  0  0  0  0  0  0
    0.8207    1.0111   -3.8188 O   0  0  0  0  0  0  0  0  0  0  0  0
    0.3800    0.7438   -1.5251 C   0  0  0  0  0  0  0  0  0  0  0  0
    1.4732    1.6614   -1.0542 C   0  0  0  0  0  0  0  0  0  0  0  0
   -0.7896    1.6730   -1.9206 C   0  0  0  0  0  0  0  0  0  0  0  0
   -0.1106   -0.2180   -0.4785 C   0  0  0  0  0  0  0  0  0  0  0  0
   -0.4832    0.4192    0.7049 O   0  0  0  0  0  0  0  0  0  0  0  0
   -1.3968   -0.5693    1.7255 P   0  0  0  0  0  0  0  0  0  0  0  0
   -1.7901   -2.0327    0.9817 O   0  0  0  0  0  0  0  0  0  0  0  0
   -0.5860   -0.8620    2.9576 O   0  0  0  0  0  0  0  0  0  0  0  0
   -2.7694    0.2968    2.1932 O   0  0  0  0  0  0  0  0  0  0  0  0
   -3.9935    0.2949    1.0617 P   0  0  0  0  0  0  0  0  0  0  0  0
   -4.5857    1.8794    0.8676 O   0  0  0  0  0  0  0  0  0  0  0  0
   -3.3650   -0.0676   -0.2862 O   0  0  0  0  0  0  0  0  0  0  0  0
   -5.2849   -0.6986    1.4217 O   0  0  0  0  0  0  0  0  0  0  0  0
   -6.4229   -0.0289    1.8579 C   0  0  0  0  0  0  0  0  0  0  0  0
   -7.5645   -1.0238    2.1199 C   0  0  1  0  0  0  0  0  0  0  0  0
   -8.6313   -0.2799    2.5432 O   0  0  0  0  0  0  0  0  0  0  0  0
   -9.7319   -0.6012    1.7740 C   0  0  2  0  0  0  0  0  0  0  0  0
   -9.2230   -1.1166    0.4562 C   0  0  2  0  0  0  0  0  0  0  0  0
  -10.0856   -1.9350   -0.2144 O   0  0  0  0  0  0  0  0  0  0  0  0
   -7.9337   -1.7632    0.8702 C   0  0  2  0  0  0  0  0  0  0  0  0
   -7.9262   -3.1096    0.9575 O   0  0  0  0  0  0  0  0  0  0  0  0
   -6.8877   -3.9178   -0.0654 P   0  0  0  0  0  0  0  0  0  0  0  0
   -6.8108   -3.2360   -1.6217 O   0  0  0  0  0  0  0  0  0  0  0  0
   -7.1516   -5.5772   -0.1013 O   0  0  0  0  0  0  0  0  0  0  0  0
   -5.4771   -3.7349    0.5083 O   0  0  0  0  0  0  0  0  0  0  0  0
  -10.6279    0.5472    1.6135 N   0  0  0  0  0  0  0  0  0  0  0  0
  -11.9124    0.6712    2.0168 C   0  0  0  0  0  0  0  0  0  0  0  0
  -12.4061    1.8682    1.6947 N   0  0  0  0  0  0  0  0  0  0  0  0
  -11.4403    2.5578    1.0665 C   0  0  0  0  0  0  0  0  0  0  0  0
  -10.3236    1.7201    1.0189 C   0  0  0  0  0  0  0  0  0  0  0  0
   -9.1937    2.1584    0.4373 N   0  0  0  0  0  0  0  0  0  0  0  0
   -9.2159    3.4038   -0.0712 C   0  0  0  0  0  0  0  0  0  0  0  0
  -10.2682    4.2417   -0.0462 N   0  0  0  0  0  0  0  0  0  0  0  0
  -11.4252    3.8409    0.5293 C   0  0  0  0  0  0  0  0  0  0  0  0
  -12.5539    4.6830    0.5807 N   0  0  0  0  0  0  0  0  0  0  0  0
   14.8083    2.3387    1.0808 H   0  0  0  0  0  0  0  0  0  0  0  0
   15.4001    1.2679   -0.1858 H   0  0  0  0  0  0  0  0  0  0  0  0
   14.7639    2.8854   -0.6791 H   0  0  0  0  0  0  0  0  0  0  0  0
   13.2488    0.7307   -0.8803 H   0  0  0  0  0  0  0  0  0  0  0  0
   12.5221    2.2758   -0.2775 H   0  0  0  0  0  0  0  0  0  0  0  0
   12.9399    1.6713    2.0390 H   0  0  0  0  0  0  0  0  0  0  0  0
   13.7274    0.0768    1.5008 H   0  0  0  0  0  0  0  0  0  0  0  0
   11.5320   -0.6434    0.5877 H   0  0  0  0  0  0  0  0  0  0  0  0
   10.8144    0.8980    1.0835 H   0  0  0  0  0  0  0  0  0  0  0  0
   12.2106   -1.1141    2.9565 H   0  0  0  0  0  0  0  0  0  0  0  0
   11.4996    0.4660    3.4507 H   0  0  0  0  0  0  0  0  0  0  0  0
    8.2317   -0.0785    0.6785 H   0  0  0  0  0  0  0  0  0  0  0  0
    8.9169   -1.6663    0.1953 H   0  0  0  0  0  0  0  0  0  0  0  0
    5.9819   -1.2687    0.9547 H   0  0  0  0  0  0  0  0  0  0  0  0
    6.8233   -2.7633    0.3351 H   0  0  0  0  0  0  0  0  0  0  0  0
    7.4733   -0.5422   -1.4393 H   0  0  0  0  0  0  0  0  0  0  0  0
    6.4607   -1.3045   -3.5758 H   0  0  0  0  0  0  0  0  0  0  0  0
    5.7610    0.2087   -3.0160 H   0  0  0  0  0  0  0  0  0  0  0  0
    4.2479   -2.2839   -4.0720 H   0  0  0  0  0  0  0  0  0  0  0  0
    4.6238   -0.8601   -5.0306 H   0  0  0  0  0  0  0  0  0  0  0  0
    2.7939    0.0605   -4.3376 H   0  0  0  0  0  0  0  0  0  0  0  0
   -0.1155   -0.5924   -3.0859 H   0  0  0  0  0  0  0  0  0  0  0  0
    1.5704    1.6446   -3.6609 H   0  0  0  0  0  0  0  0  0  0  0  0
    1.3911    2.6959   -1.4412 H   0  0  0  0  0  0  0  0  0  0  0  0
    2.4913    1.2993   -1.3551 H   0  0  0  0  0  0  0  0  0  0  0  0
    1.5083    1.6568    0.0744 H   0  0  0  0  0  0  0  0  0  0  0  0
   -1.0098    2.3584   -1.0593 H   0  0  0  0  0  0  0  0  0  0  0  0
   -1.6872    1.1212   -2.1855 H   0  0  0  0  0  0  0  0  0  0  0  0
   -0.5264    2.3137   -2.7647 H   0  0  0  0  0  0  0  0  0  0  0  0
    0.7901   -0.8422   -0.1873 H   0  0  0  0  0  0  0  0  0  0  0  0
   -0.8384   -0.9367   -0.8606 H   0  0  0  0  0  0  0  0  0  0  0  0
   -1.9778   -2.7397    1.6485 H   0  0  0  0  0  0  0  0  0  0  0  0
   -3.8903    2.5069    1.2027 H   0  0  0  0  0  0  0  0  0  0  0  0
   -6.6995    0.7284    1.1127 H   0  0  0  0  0  0  0  0  0  0  0  0
   -6.2535    0.4922    2.8176 H   0  0  0  0  0  0  0  0  0  0  0  0
   -7.1496   -1.6759    2.9275 H   0  0  0  0  0  0  0  0  0  0  0  0
  -10.3042   -1.3547    2.3521 H   0  0  0  0  0  0  0  0  0  0  0  0
   -9.0217   -0.2232   -0.1747 H   0  0  0  0  0  0  0  0  0  0  0  0
   -9.9567   -1.8077   -1.1873 H   0  0  0  0  0  0  0  0  0  0  0  0
   -7.1801   -1.4939    0.0872 H   0  0  0  0  0  0  0  0  0  0  0  0
   -7.4664   -3.6396   -2.2412 H   0  0  0  0  0  0  0  0  0  0  0  0
   -7.8227   -5.7934   -0.7666 H   0  0  0  0  0  0  0  0  0  0  0  0
  -12.4761   -0.0966    2.5360 H   0  0  0  0  0  0  0  0  0  0  0  0
   -8.3606    3.8798   -0.5716 H   0  0  0  0  0  0  0  0  0  0  0  0
  -13.2361    4.8718    1.3404 H   0  0  0  0  0  0  0  0  0  0  0  0
  -12.8766    5.2774   -0.2091 H   0  0  0  0  0  0  0  0  0  0  0  0
  1  2  1  0
  2  3  1  0
  3  4  1  0
  4  5  1  0
  5  6  1  0
  6  7  2  0
  6  8  1  0
  8  9  1  0
  9 10  1  0
 10 11  1  0
 11 12  1  0
 12 13  2  0
 12 14  1  0
 14 15  1  0
 15 16  1  0
 16 17  1  0
 17 18  2  0
 17 19  1  0
 19 20  1  0
 19 21  1  0
 21 22  1  0
 21 23  1  0
 21 24  1  0
 24 25  1  0
 25 26  1  0
 26 27  1  0
 26 28  2  0
 26 29  1  0
 29 30  1  0
 30 31  1  0
 30 32  2  0
 30 33  1  0
 33 34  1  0
 34 35  1  0
 35 36  1  0
 36 37  1  0
 37 38  1  0
 38 39  1  0
 38 40  1  0
 40 41  1  0
 41 42  1  0
 42 43  1  0
 42 44  1  0
 42 45  2  0
 37 46  1  0
 46 47  1  0
 47 48  2  0
 48 49  1  0
 49 50  2  0
 50 51  1  0
 51 52  2  0
 52 53  1  0
 53 54  2  0
 54 55  1  0
 40 35  1  0
 50 46  1  0
 54 49  1  0
  1 56  1  0
  1 57  1  0
  1 58  1  0
  2 59  1  0
  2 60  1  0
  3 61  1  0
  3 62  1  0
  4 63  1  0
  4 64  1  0
  5 65  1  0
  5 66  1  0
  9 67  1  0
  9 68  1  0
 10 69  1  0
 10 70  1  0
 11 71  1  0
 14 72  1  0
 14 73  1  0
 15 74  1  0
 15 75  1  0
 16 76  1  0
 19 77  1  6
 20 78  1  0
 22 79  1  0
 22 80  1  0
 22 81  1  0
 23 82  1  0
 23 83  1  0
 23 84  1  0
 24 85  1  0
 24 86  1  0
 27 87  1  0
 31 88  1  0
 34 89  1  0
 34 90  1  0
 35 91  1  1
 37 92  1  1
 38 93  1  6
 39 94  1  0
 40 95  1  6
 43 96  1  0
 44 97  1  0
 47 98  1  0
 52 99  1  0
 55100  1  0
 55101  1  0
M  END
$$$$
