
     RDKit          3D

 38 41  0  0  0  0  0  0  0  0999 V2000
   -4.2792    2.0580    2.0341 C   0  0  0  0  0  0  0  0  0  0  0  0
   -2.9180    1.9158    1.3850 C   0  0  0  0  0  0  0  0  0  0  0  0
   -2.7658    0.5644    0.7947 C   0  0  0  0  0  0  0  0  0  0  0  0
   -1.5699    0.2055    0.1340 C   0  0  0  0  0  0  0  0  0  0  0  0
   -1.4125   -1.0266   -0.4107 C   0  0  0  0  0  0  0  0  0  0  0  0
   -0.2468   -1.4635   -1.1478 C   0  0  0  0  0  0  0  0  0  0  0  0
   -0.2701   -2.5305   -2.0718 C   0  0  0  0  0  0  0  0  0  0  0  0
    0.9398   -2.7478   -2.5779 N   0  0  0  0  0  0  0  0  0  0  0  0
    1.7650   -1.8741   -2.0308 C   0  0  0  0  0  0  0  0  0  0  0  0
    3.1053   -1.7305   -2.2376 N   0  0  0  0  0  0  0  0  0  0  0  0
    3.7498   -0.7794   -1.5541 C   0  0  0  0  0  0  0  0  0  0  0  0
    3.1083    0.0453   -0.6615 C   0  0  0  0  0  0  0  0  0  0  0  0
    3.8307    1.0837    0.0805 C   0  0  0  0  0  0  0  0  0  0  0  0
    3.3249    2.2933    0.5036 C   0  0  0  0  0  0  0  0  0  0  0  0
    4.3056    2.9499    1.1439 N   0  0  0  0  0  0  0  0  0  0  0  0
    5.4128    2.2216    1.1518 N   0  0  0  0  0  0  0  0  0  0  0  0
    5.1451    1.0599    0.4990 C   0  0  0  0  0  0  0  0  0  0  0  0
    1.7431   -0.0952   -0.4461 C   0  0  0  0  0  0  0  0  0  0  0  0
    1.0672   -1.0656   -1.1418 C   0  0  0  0  0  0  0  0  0  0  0  0
   -2.4804   -1.8771   -0.2756 N   0  0  0  0  0  0  0  0  0  0  0  0
   -3.6103   -1.5742    0.3338 C   0  0  0  0  0  0  0  0  0  0  0  0
   -4.6936   -2.4866    0.4520 N   0  0  0  0  0  0  0  0  0  0  0  0
   -3.7315   -0.3333    0.8677 N   0  0  0  0  0  0  0  0  0  0  0  0
   -4.3950    3.0312    2.5199 H   0  0  0  0  0  0  0  0  0  0  0  0
   -5.0999    1.9701    1.2884 H   0  0  0  0  0  0  0  0  0  0  0  0
   -4.4599    1.2834    2.7978 H   0  0  0  0  0  0  0  0  0  0  0  0
   -2.1409    2.1796    2.1010 H   0  0  0  0  0  0  0  0  0  0  0  0
   -2.8667    2.6340    0.5309 H   0  0  0  0  0  0  0  0  0  0  0  0
   -0.8344    0.9671    0.0728 H   0  0  0  0  0  0  0  0  0  0  0  0
   -1.2056   -3.0581   -2.2889 H   0  0  0  0  0  0  0  0  0  0  0  0
    1.1325   -3.5088   -3.2929 H   0  0  0  0  0  0  0  0  0  0  0  0
    4.8316   -0.6155   -1.6791 H   0  0  0  0  0  0  0  0  0  0  0  0
    2.3360    2.6778    0.3672 H   0  0  0  0  0  0  0  0  0  0  0  0
    6.3008    2.5369    1.5958 H   0  0  0  0  0  0  0  0  0  0  0  0
    5.8444    0.2569    0.3371 H   0  0  0  0  0  0  0  0  0  0  0  0
    1.2192    0.5156    0.2582 H   0  0  0  0  0  0  0  0  0  0  0  0
   -5.5236   -2.2872    1.0265 H   0  0  0  0  0  0  0  0  0  0  0  0
   -4.6582   -3.3961   -0.0578 H   0  0  0  0  0  0  0  0  0  0  0  0
  1  2  1  0
  2  3  1  0
  3  4  2  0
  4  5  1  0
  5  6  1  0
  6  7  2  0
  7  8  1  0
  8  9  1  0
  9 10  2  0
 10 11  1  0
 11 12  2  0
 12 13  1  0
 13 14  1  0
 14 15  2  0
 15 16  1  0
 16 17  1  0
 12 18  1  0
 18 19  2  0
  5 20  2  0
 20 21  1  0
 21 22  1  0
 21 23  2  0
 23  3  1  0
 19  6  1  0
 19  9  1  0
 17 13  2  0
  1 24  1  0
  1 25  1  0
  1 26  1  0
  2 27  1  0
  2 28  1  0
  4 29  1  0
  7 30  1  0
  8 31  1  0
 11 32  1  0
 14 33  1  0
 16 34  1  0
 17 35  1  0
 18 36  1  0
 22 37  1  0
 22 38  1  0
M  END
$$$$
