
     RDKit          3D

 29 31  0  0  0  0  0  0  0  0999 V2000
    0.6202    2.4041    0.4015 N   0  0  0  0  0  0  0  0  0  0  0  0
    0.5205    1.0023    0.2322 C   0  0  0  0  0  0  0  0  0  0  0  0
   -0.7224    0.3847    0.3433 C   0  0  0  0  0  0  0  0  0  0  0  0
   -0.7829   -0.9829    0.1724 C   0  0  0  0  0  0  0  0  0  0  0  0
    0.3452   -1.6964   -0.0964 N   0  0  0  0  0  0  0  0  0  0  0  0
    1.5530   -1.1089   -0.2060 C   0  0  0  0  0  0  0  0  0  0  0  0
    2.6732   -1.8897   -0.4824 C   0  0  0  0  0  0  0  0  0  0  0  0
    3.8915   -1.2820   -0.5910 C   0  0  0  0  0  0  0  0  0  0  0  0
    4.0508    0.0832   -0.4357 C   0  0  0  0  0  0  0  0  0  0  0  0
    2.9053    0.8210   -0.1611 C   0  0  0  0  0  0  0  0  0  0  0  0
    1.6621    0.2617   -0.0423 C   0  0  0  0  0  0  0  0  0  0  0  0
   -2.1084   -1.6464    0.2902 C   0  0  0  0  0  0  0  0  0  0  0  0
   -3.1940   -0.7589   -0.1970 C   0  0  0  0  0  0  0  0  0  0  0  0
   -3.2037    0.6050    0.3935 C   0  0  0  0  0  0  0  0  0  0  0  0
   -1.8835    1.2205    0.6333 C   0  0  0  0  0  0  0  0  0  0  0  0
    0.0380    2.9265    1.1021 H   0  0  0  0  0  0  0  0  0  0  0  0
    1.2800    2.9848   -0.1649 H   0  0  0  0  0  0  0  0  0  0  0  0
    2.5210   -2.9581   -0.5996 H   0  0  0  0  0  0  0  0  0  0  0  0
    4.7650   -1.8994   -0.8076 H   0  0  0  0  0  0  0  0  0  0  0  0
    5.0242    0.5521   -0.5247 H   0  0  0  0  0  0  0  0  0  0  0  0
    3.0001    1.8798   -0.0362 H   0  0  0  0  0  0  0  0  0  0  0  0
   -2.3183   -1.9441    1.3395 H   0  0  0  0  0  0  0  0  0  0  0  0
   -2.0659   -2.5495   -0.3524 H   0  0  0  0  0  0  0  0  0  0  0  0
   -4.1756   -1.2650    0.0393 H   0  0  0  0  0  0  0  0  0  0  0  0
   -3.1694   -0.7093   -1.3225 H   0  0  0  0  0  0  0  0  0  0  0  0
   -3.8792    1.2449   -0.2458 H   0  0  0  0  0  0  0  0  0  0  0  0
   -3.7440    0.5418    1.3832 H   0  0  0  0  0  0  0  0  0  0  0  0
   -1.8055    2.1337   -0.0277 H   0  0  0  0  0  0  0  0  0  0  0  0
   -1.7975    1.6445    1.6753 H   0  0  0  0  0  0  0  0  0  0  0  0
  1  2  1  0
  2  3  2  0
  3  4  1  0
  4  5  2  0
  5  6  1  0
  6  7  2  0
  7  8  1  0
  8  9  2  0
  9 10  1  0
 10 11  2  0
  4 12  1  0
 12 13  1  0
 13 14  1  0
 14 15  1  0
 11  2  1  0
 15  3  1  0
 11  6  1  0
  1 16  1  0
  1 17  1  0
  7 18  1  0
  8 19  1  0
  9 20  1  0
 10 21  1  0
 12 22  1  0
 12 23  1  0
 13 24  1  0
 13 25  1  0
 14 26  1  0
 14 27  1  0
 15 28  1  0
 15 29  1  0
M  END
$$$$
