
     RDKit          3D

 57 62  0  0  0  0  0  0  0  0999 V2000
   -9.0303    0.1972    0.2514 F   0  0  0  0  0  0  0  0  0  0  0  0
   -8.0562   -0.2012   -0.6081 C   0  0  0  0  0  0  0  0  0  0  0  0
   -8.4004   -0.9908   -1.7047 C   0  0  0  0  0  0  0  0  0  0  0  0
   -7.4601   -1.4205   -2.6020 C   0  0  0  0  0  0  0  0  0  0  0  0
   -6.1240   -1.0506   -2.4016 C   0  0  0  0  0  0  0  0  0  0  0  0
   -5.7917   -0.2749   -1.3227 C   0  0  0  0  0  0  0  0  0  0  0  0
   -6.7393    0.1518   -0.4279 C   0  0  0  0  0  0  0  0  0  0  0  0
   -6.3556    0.9741    0.7079 C   0  0  0  0  0  0  0  0  0  0  0  0
   -4.9556    0.8190    1.1802 C   0  0  0  0  0  0  0  0  0  0  0  0
   -3.9424    0.4829    0.1393 C   0  0  0  0  0  0  0  0  0  0  0  0
   -3.1460   -0.7518    0.5899 C   0  0  0  0  0  0  0  0  0  0  0  0
   -2.2498   -0.4459    1.7363 C   0  0  0  0  0  0  0  0  0  0  0  0
   -1.3133    0.6093    1.2951 N   0  0  0  0  0  0  0  0  0  0  0  0
    0.0813    0.3666    1.2914 C   0  0  0  0  0  0  0  0  0  0  0  0
    1.0054    1.3415    1.0156 C   0  0  0  0  0  0  0  0  0  0  0  0
    2.3664    1.0205    1.0267 C   0  0  0  0  0  0  0  0  0  0  0  0
    2.8127   -0.2533    1.3080 C   0  0  0  0  0  0  0  0  0  0  0  0
    4.2155   -0.6323    1.3304 C   0  0  0  0  0  0  0  0  0  0  0  0
    4.6773   -1.8587    1.6007 N   0  0  0  0  0  0  0  0  0  0  0  0
    6.0039   -1.8314    1.5298 N   0  0  0  0  0  0  0  0  0  0  0  0
    6.3772   -0.5782    1.2125 C   0  0  0  0  0  0  0  0  0  0  0  0
    7.7819   -0.1143    1.0336 C   0  0  0  0  0  0  0  0  0  0  0  0
    8.1793   -0.2885   -0.3937 C   0  0  0  0  0  0  0  0  0  0  0  0
    8.7548   -1.4654   -0.8036 C   0  0  0  0  0  0  0  0  0  0  0  0
    9.1101   -1.5937   -2.1282 C   0  0  0  0  0  0  0  0  0  0  0  0
    8.9076   -0.5890   -3.0413 C   0  0  0  0  0  0  0  0  0  0  0  0
    8.3433    0.5359   -2.5877 N   0  0  0  0  0  0  0  0  0  0  0  0
    7.9765    0.7173   -1.3081 C   0  0  0  0  0  0  0  0  0  0  0  0
    5.2713    0.1213    1.0992 O   0  0  0  0  0  0  0  0  0  0  0  0
    1.8603   -1.1641    1.5701 N   0  0  0  0  0  0  0  0  0  0  0  0
    0.5759   -0.8703    1.5618 N   0  0  0  0  0  0  0  0  0  0  0  0
   -1.9369    1.8358    0.8904 C   0  0  0  0  0  0  0  0  0  0  0  0
   -3.0350    1.6446   -0.1280 C   0  0  0  0  0  0  0  0  0  0  0  0
   -4.5020    0.0999   -1.1027 O   0  0  0  0  0  0  0  0  0  0  0  0
   -9.4272   -1.2662   -1.8454 H   0  0  0  0  0  0  0  0  0  0  0  0
   -7.6609   -2.0247   -3.4577 H   0  0  0  0  0  0  0  0  0  0  0  0
   -5.3558   -1.3731   -3.0918 H   0  0  0  0  0  0  0  0  0  0  0  0
   -7.0630    0.7282    1.5526 H   0  0  0  0  0  0  0  0  0  0  0  0
   -6.5761    2.0390    0.4640 H   0  0  0  0  0  0  0  0  0  0  0  0
   -4.9486    0.0511    1.9837 H   0  0  0  0  0  0  0  0  0  0  0  0
   -4.6432    1.7670    1.6674 H   0  0  0  0  0  0  0  0  0  0  0  0
   -2.5632   -1.1463   -0.2608 H   0  0  0  0  0  0  0  0  0  0  0  0
   -3.8989   -1.5106    0.8893 H   0  0  0  0  0  0  0  0  0  0  0  0
   -1.7097   -1.3486    2.0181 H   0  0  0  0  0  0  0  0  0  0  0  0
   -2.8352   -0.0485    2.5948 H   0  0  0  0  0  0  0  0  0  0  0  0
    0.6940    2.3615    0.7917 H   0  0  0  0  0  0  0  0  0  0  0  0
    3.0851    1.7939    0.8084 H   0  0  0  0  0  0  0  0  0  0  0  0
    8.4844   -0.6624    1.6898 H   0  0  0  0  0  0  0  0  0  0  0  0
    7.7814    0.9831    1.2245 H   0  0  0  0  0  0  0  0  0  0  0  0
    8.9295   -2.2898   -0.0917 H   0  0  0  0  0  0  0  0  0  0  0  0
    9.5686   -2.5220   -2.4714 H   0  0  0  0  0  0  0  0  0  0  0  0
    9.1910   -0.6928   -4.0953 H   0  0  0  0  0  0  0  0  0  0  0  0
    7.5158    1.6631   -0.9869 H   0  0  0  0  0  0  0  0  0  0  0  0
   -1.2190    2.5343    0.4406 H   0  0  0  0  0  0  0  0  0  0  0  0
   -2.4296    2.2730    1.8004 H   0  0  0  0  0  0  0  0  0  0  0  0
   -2.5400    1.5750   -1.1233 H   0  0  0  0  0  0  0  0  0  0  0  0
   -3.6417    2.5732   -0.1270 H   0  0  0  0  0  0  0  0  0  0  0  0
  1  2  1  0
  2  3  2  0
  3  4  1  0
  4  5  2  0
  5  6  1  0
  6  7  2  0
  7  8  1  0
  8  9  1  0
  9 10  1  0
 10 11  1  0
 11 12  1  0
 12 13  1  0
 13 14  1  0
 14 15  2  0
 15 16  1  0
 16 17  2  0
 17 18  1  0
 18 19  2  0
 19 20  1  0
 20 21  2  0
 21 22  1  0
 22 23  1  0
 23 24  2  0
 24 25  1  0
 25 26  2  0
 26 27  1  0
 27 28  2  0
 21 29  1  0
 17 30  1  0
 30 31  2  0
 13 32  1  0
 32 33  1  0
 10 34  1  0
  7  2  1  0
 33 10  1  0
 34  6  1  0
 31 14  1  0
 29 18  1  0
 28 23  1  0
  3 35  1  0
  4 36  1  0
  5 37  1  0
  8 38  1  0
  8 39  1  0
  9 40  1  0
  9 41  1  0
 11 42  1  0
 11 43  1  0
 12 44  1  0
 12 45  1  0
 15 46  1  0
 16 47  1  0
 22 48  1  0
 22 49  1  0
 24 50  1  0
 25 51  1  0
 26 52  1  0
 28 53  1  0
 32 54  1  0
 32 55  1  0
 33 56  1  0
 33 57  1  0
M  END
$$$$
