
     RDKit          3D

 36 38  0  0  0  0  0  0  0  0999 V2000
   -0.8953   -3.8457    0.3465 C   0  0  0  0  0  0  0  0  0  0  0  0
   -0.9677   -2.4192   -0.1148 C   0  0  0  0  0  0  0  0  0  0  0  0
   -2.1390   -1.8562   -0.5600 C   0  0  0  0  0  0  0  0  0  0  0  0
   -2.1613   -0.5248   -0.9802 C   0  0  0  0  0  0  0  0  0  0  0  0
   -3.3532    0.0262   -1.4264 O   0  0  0  0  0  0  0  0  0  0  0  0
   -4.2242    0.6565   -0.5480 C   0  0  0  0  0  0  0  0  0  0  0  0
   -5.3811    1.1768   -1.0583 C   0  0  0  0  0  0  0  0  0  0  0  0
   -6.2437    1.7966   -0.2114 N   0  0  0  0  0  0  0  0  0  0  0  0
   -5.9880    1.9074    1.0965 C   0  0  0  0  0  0  0  0  0  0  0  0
   -4.8457    1.3882    1.5714 N   0  0  0  0  0  0  0  0  0  0  0  0
   -3.9448    0.7615    0.7964 C   0  0  0  0  0  0  0  0  0  0  0  0
   -0.9804    0.1800   -0.9280 C   0  0  0  0  0  0  0  0  0  0  0  0
    0.1934   -0.3850   -0.4816 C   0  0  0  0  0  0  0  0  0  0  0  0
    1.4335    0.3805   -0.4347 C   0  0  0  0  0  0  0  0  0  0  0  0
    1.4535    1.5652   -0.7994 O   0  0  0  0  0  0  0  0  0  0  0  0
    2.6125   -0.2752    0.0411 N   0  0  0  0  0  0  0  0  0  0  0  0
    3.8513    0.4217    0.1091 C   0  0  0  0  0  0  0  0  0  0  0  0
    4.7255    0.4228   -0.9688 C   0  0  0  0  0  0  0  0  0  0  0  0
    5.9277    1.0967   -0.9084 C   0  0  0  0  0  0  0  0  0  0  0  0
    6.2937    1.7897    0.2296 C   0  0  0  0  0  0  0  0  0  0  0  0
    7.4733    2.4634    0.3178 F   0  0  0  0  0  0  0  0  0  0  0  0
    5.4041    1.7703    1.2848 C   0  0  0  0  0  0  0  0  0  0  0  0
    4.2379    1.1056    1.2008 N   0  0  0  0  0  0  0  0  0  0  0  0
    0.1439   -1.6834   -0.0883 N   0  0  0  0  0  0  0  0  0  0  0  0
   -0.0667   -4.3560   -0.1961 H   0  0  0  0  0  0  0  0  0  0  0  0
   -0.6772   -3.8328    1.4339 H   0  0  0  0  0  0  0  0  0  0  0  0
   -1.8154   -4.3776    0.0907 H   0  0  0  0  0  0  0  0  0  0  0  0
   -3.0176   -2.4766   -0.5689 H   0  0  0  0  0  0  0  0  0  0  0  0
   -5.6789    1.1410   -2.0881 H   0  0  0  0  0  0  0  0  0  0  0  0
   -6.6419    2.3901    1.8066 H   0  0  0  0  0  0  0  0  0  0  0  0
   -3.0433    0.3607    1.2190 H   0  0  0  0  0  0  0  0  0  0  0  0
   -0.9823    1.2083   -1.2490 H   0  0  0  0  0  0  0  0  0  0  0  0
    2.5367   -1.2810    0.3372 H   0  0  0  0  0  0  0  0  0  0  0  0
    4.4307   -0.1191   -1.8482 H   0  0  0  0  0  0  0  0  0  0  0  0
    6.6229    1.1024   -1.7545 H   0  0  0  0  0  0  0  0  0  0  0  0
    5.7073    2.3206    2.1729 H   0  0  0  0  0  0  0  0  0  0  0  0
  1  2  1  0
  2  3  2  0
  3  4  1  0
  4  5  1  0
  5  6  1  0
  6  7  2  0
  7  8  1  0
  8  9  2  0
  9 10  1  0
 10 11  2  0
  4 12  2  0
 12 13  1  0
 13 14  1  0
 14 15  2  0
 14 16  1  0
 16 17  1  0
 17 18  2  0
 18 19  1  0
 19 20  2  0
 20 21  1  0
 20 22  1  0
 22 23  2  0
 13 24  2  0
 24  2  1  0
 11  6  1  0
 23 17  1  0
  1 25  1  0
  1 26  1  0
  1 27  1  0
  3 28  1  0
  7 29  1  0
  9 30  1  0
 11 31  1  0
 12 32  1  0
 16 33  1  0
 18 34  1  0
 19 35  1  0
 22 36  1  0
M  END
$$$$
