
     RDKit          3D

 28 29  0  0  0  0  0  0  0  0999 V2000
   -0.5926   -2.1969   -0.3417 C   0  0  0  0  0  0  0  0  0  0  0  0
   -0.2626   -0.7746   -0.0566 C   0  0  0  0  0  0  0  0  0  0  0  0
   -1.2324    0.1398    0.3466 C   0  0  0  0  0  0  0  0  0  0  0  0
   -2.6187   -0.3477    0.4976 C   0  0  0  0  0  0  0  0  0  0  0  0
   -3.6488    0.7329    0.6531 C   0  0  0  0  0  0  0  0  0  0  0  0
   -3.6518    1.5576   -0.4691 O   0  0  0  0  0  0  0  0  0  0  0  0
   -0.7494    1.4097    0.5639 C   0  0  0  0  0  0  0  0  0  0  0  0
   -1.5817    2.2781    0.9308 O   0  0  0  0  0  0  0  0  0  0  0  0
    0.5058    1.7556    0.4127 O   0  0  0  0  0  0  0  0  0  0  0  0
    1.4437    0.9223    0.0352 C   0  0  0  0  0  0  0  0  0  0  0  0
    2.7557    1.3364   -0.1099 C   0  0  0  0  0  0  0  0  0  0  0  0
    3.7474    0.4391   -0.5129 C   0  0  0  0  0  0  0  0  0  0  0  0
    5.0216    0.9832   -0.6190 O   0  0  0  0  0  0  0  0  0  0  0  0
    3.3614   -0.8604   -0.7555 C   0  0  0  0  0  0  0  0  0  0  0  0
    2.0477   -1.2547   -0.6052 C   0  0  0  0  0  0  0  0  0  0  0  0
    1.0604   -0.3805   -0.2085 C   0  0  0  0  0  0  0  0  0  0  0  0
    0.1354   -2.9048    0.1536 H   0  0  0  0  0  0  0  0  0  0  0  0
   -1.5705   -2.4410    0.1424 H   0  0  0  0  0  0  0  0  0  0  0  0
   -0.7009   -2.4032   -1.4140 H   0  0  0  0  0  0  0  0  0  0  0  0
   -2.9395   -0.9968   -0.3692 H   0  0  0  0  0  0  0  0  0  0  0  0
   -2.6055   -1.0261    1.3902 H   0  0  0  0  0  0  0  0  0  0  0  0
   -3.5975    1.2994    1.5841 H   0  0  0  0  0  0  0  0  0  0  0  0
   -4.6398    0.2250    0.6486 H   0  0  0  0  0  0  0  0  0  0  0  0
   -4.0388    2.4311   -0.2833 H   0  0  0  0  0  0  0  0  0  0  0  0
    2.9403    2.3715    0.1065 H   0  0  0  0  0  0  0  0  0  0  0  0
    5.4253    1.5249    0.1602 H   0  0  0  0  0  0  0  0  0  0  0  0
    4.1656   -1.5248   -1.0658 H   0  0  0  0  0  0  0  0  0  0  0  0
    1.8205   -2.2952   -0.8148 H   0  0  0  0  0  0  0  0  0  0  0  0
  1  2  1  0
  2  3  2  0
  3  4  1  0
  4  5  1  0
  5  6  1  0
  3  7  1  0
  7  8  2  0
  7  9  1  0
  9 10  1  0
 10 11  2  0
 11 12  1  0
 12 13  1  0
 12 14  2  0
 14 15  1  0
 15 16  2  0
 16  2  1  0
 16 10  1  0
  1 17  1  0
  1 18  1  0
  1 19  1  0
  4 20  1  0
  4 21  1  0
  5 22  1  0
  5 23  1  0
  6 24  1  0
 11 25  1  0
 13 26  1  0
 14 27  1  0
 15 28  1  0
M  END
$$$$
