
     RDKit          3D

 76 79  0  0  0  0  0  0  0  0999 V2000
   -0.8528   -0.5772   -3.9542 C   0  0  0  0  0  0  0  0  0  0  0  0
   -0.2120   -1.2177   -2.7485 C   0  0  0  0  0  0  0  0  0  0  0  0
   -0.5644   -2.6661   -2.6740 C   0  0  0  0  0  0  0  0  0  0  0  0
   -0.4332   -0.4666   -1.4865 C   0  0  0  0  0  0  0  0  0  0  0  0
   -1.5726   -0.4157   -0.6856 C   0  0  0  0  0  0  0  0  0  0  0  0
   -2.8310   -1.0685   -1.0688 C   0  0  0  0  0  0  0  0  0  0  0  0
   -3.0717   -1.3264   -2.2603 O   0  0  0  0  0  0  0  0  0  0  0  0
   -3.7798   -1.4150   -0.0956 N   0  0  0  0  0  0  0  0  0  0  0  0
   -5.0393   -2.0396   -0.2936 C   0  0  0  0  0  0  0  0  0  0  0  0
   -5.5121   -2.4181   -1.5232 C   0  0  0  0  0  0  0  0  0  0  0  0
   -6.7668   -3.0236   -1.6113 C   0  0  0  0  0  0  0  0  0  0  0  0
   -7.5288   -3.2438   -0.4907 C   0  0  0  0  0  0  0  0  0  0  0  0
   -7.0592   -2.8666    0.7411 C   0  0  0  0  0  0  0  0  0  0  0  0
   -5.8354   -2.2751    0.8341 C   0  0  0  0  0  0  0  0  0  0  0  0
   -1.3358    0.3717    0.4137 C   0  0  0  0  0  0  0  0  0  0  0  0
   -2.2333    0.7316    1.4929 C   0  0  0  0  0  0  0  0  0  0  0  0
   -3.3140    1.5833    1.3048 C   0  0  0  0  0  0  0  0  0  0  0  0
   -4.1812    1.9627    2.2984 C   0  0  0  0  0  0  0  0  0  0  0  0
   -3.9796    1.4754    3.5694 C   0  0  0  0  0  0  0  0  0  0  0  0
   -2.9296    0.6292    3.8215 C   0  0  0  0  0  0  0  0  0  0  0  0
   -2.0636    0.2615    2.7867 C   0  0  0  0  0  0  0  0  0  0  0  0
   -0.0135    0.8161    0.2818 C   0  0  0  0  0  0  0  0  0  0  0  0
    0.6165    1.6965    1.2689 C   0  0  0  0  0  0  0  0  0  0  0  0
    0.7551    3.0581    0.9742 C   0  0  0  0  0  0  0  0  0  0  0  0
    1.3351    3.9256    1.8577 C   0  0  0  0  0  0  0  0  0  0  0  0
    1.7964    3.4574    3.0680 C   0  0  0  0  0  0  0  0  0  0  0  0
    2.3607    4.3505    3.9068 F   0  0  0  0  0  0  0  0  0  0  0  0
    1.6656    2.1221    3.3677 C   0  0  0  0  0  0  0  0  0  0  0  0
    1.0800    1.2450    2.4758 C   0  0  0  0  0  0  0  0  0  0  0  0
    0.4913    0.3101   -0.8414 N   0  0  0  0  0  0  0  0  0  0  0  0
    1.8214    0.5271   -1.3588 C   0  0  0  0  0  0  0  0  0  0  0  0
    2.8361   -0.4849   -0.8894 C   0  0  0  0  0  0  0  0  0  0  0  0
    4.1582   -0.1784   -1.5318 C   0  0  1  0  0  0  0  0  0  0  0  0
    4.0375   -0.2469   -2.9474 O   0  0  0  0  0  0  0  0  0  0  0  0
    4.7695    1.1215   -1.1832 C   0  0  0  0  0  0  0  0  0  0  0  0
    5.0764    1.2917    0.2640 C   0  0  1  0  0  0  0  0  0  0  0  0
    3.9534    1.2145    1.0565 O   0  0  0  0  0  0  0  0  0  0  0  0
    6.0693    0.2947    0.8073 C   0  0  0  0  0  0  0  0  0  0  0  0
    7.3898    0.3268    0.1673 C   0  0  0  0  0  0  0  0  0  0  0  0
    7.7108    1.1274   -0.7432 O   0  0  0  0  0  0  0  0  0  0  0  0
    8.3177   -0.6245    0.6451 O   0  0  0  0  0  0  0  0  0  0  0  0
   -1.5246   -1.2730   -4.4936 H   0  0  0  0  0  0  0  0  0  0  0  0
   -1.4082    0.3376   -3.6227 H   0  0  0  0  0  0  0  0  0  0  0  0
   -0.1226   -0.1929   -4.7019 H   0  0  0  0  0  0  0  0  0  0  0  0
    0.9192   -1.1367   -2.9897 H   0  0  0  0  0  0  0  0  0  0  0  0
   -1.2862   -2.9029   -3.4752 H   0  0  0  0  0  0  0  0  0  0  0  0
   -0.9783   -2.8851   -1.6728 H   0  0  0  0  0  0  0  0  0  0  0  0
    0.3425   -3.3030   -2.8747 H   0  0  0  0  0  0  0  0  0  0  0  0
   -3.5437   -1.2149    0.9279 H   0  0  0  0  0  0  0  0  0  0  0  0
   -4.9507   -2.2678   -2.4377 H   0  0  0  0  0  0  0  0  0  0  0  0
   -7.1080   -3.3098   -2.6024 H   0  0  0  0  0  0  0  0  0  0  0  0
   -8.5177   -3.7221   -0.5668 H   0  0  0  0  0  0  0  0  0  0  0  0
   -7.6669   -3.0422    1.6352 H   0  0  0  0  0  0  0  0  0  0  0  0
   -5.4946   -1.9867    1.8430 H   0  0  0  0  0  0  0  0  0  0  0  0
   -3.4665    1.9608    0.3094 H   0  0  0  0  0  0  0  0  0  0  0  0
   -5.0202    2.6322    2.1222 H   0  0  0  0  0  0  0  0  0  0  0  0
   -4.6742    1.7809    4.3585 H   0  0  0  0  0  0  0  0  0  0  0  0
   -2.7854    0.2551    4.8274 H   0  0  0  0  0  0  0  0  0  0  0  0
   -1.2562   -0.4088    3.0190 H   0  0  0  0  0  0  0  0  0  0  0  0
    0.3697    3.3730   -0.0029 H   0  0  0  0  0  0  0  0  0  0  0  0
    1.4117    4.9645    1.5686 H   0  0  0  0  0  0  0  0  0  0  0  0
    2.0209    1.7404    4.3097 H   0  0  0  0  0  0  0  0  0  0  0  0
    0.9948    0.2046    2.7265 H   0  0  0  0  0  0  0  0  0  0  0  0
    2.1764    1.5340   -0.9949 H   0  0  0  0  0  0  0  0  0  0  0  0
    1.8403    0.5827   -2.4484 H   0  0  0  0  0  0  0  0  0  0  0  0
    2.5592   -1.5200   -1.2906 H   0  0  0  0  0  0  0  0  0  0  0  0
    2.9116   -0.5934    0.1937 H   0  0  0  0  0  0  0  0  0  0  0  0
    4.9165   -0.9814   -1.3090 H   0  0  0  0  0  0  0  0  0  0  0  0
    3.8132   -1.2164   -3.1109 H   0  0  0  0  0  0  0  0  0  0  0  0
    5.6849    1.2875   -1.8013 H   0  0  0  0  0  0  0  0  0  0  0  0
    4.0954    1.9925   -1.4751 H   0  0  0  0  0  0  0  0  0  0  0  0
    5.5849    2.2968    0.3636 H   0  0  0  0  0  0  0  0  0  0  0  0
    4.1433    0.7799    1.9454 H   0  0  0  0  0  0  0  0  0  0  0  0
    6.2211    0.5683    1.8849 H   0  0  0  0  0  0  0  0  0  0  0  0
    5.6150   -0.7296    0.8095 H   0  0  0  0  0  0  0  0  0  0  0  0
    9.0526   -0.9501    0.0098 H   0  0  0  0  0  0  0  0  0  0  0  0
  1  2  1  0
  2  3  1  0
  2  4  1  0
  4  5  2  0
  5  6  1  0
  6  7  2  0
  6  8  1  0
  8  9  1  0
  9 10  2  0
 10 11  1  0
 11 12  2  0
 12 13  1  0
 13 14  2  0
  5 15  1  0
 15 16  1  0
 16 17  2  0
 17 18  1  0
 18 19  2  0
 19 20  1  0
 20 21  2  0
 15 22  2  0
 22 23  1  0
 23 24  2  0
 24 25  1  0
 25 26  2  0
 26 27  1  0
 26 28  1  0
 28 29  2  0
 22 30  1  0
 30 31  1  0
 31 32  1  0
 32 33  1  0
 33 34  1  0
 33 35  1  0
 35 36  1  0
 36 37  1  0
 36 38  1  0
 38 39  1  0
 39 40  2  0
 39 41  1  0
 30  4  1  0
 14  9  1  0
 21 16  1  0
 29 23  1  0
  1 42  1  0
  1 43  1  0
  1 44  1  0
  2 45  1  0
  3 46  1  0
  3 47  1  0
  3 48  1  0
  8 49  1  0
 10 50  1  0
 11 51  1  0
 12 52  1  0
 13 53  1  0
 14 54  1  0
 17 55  1  0
 18 56  1  0
 19 57  1  0
 20 58  1  0
 21 59  1  0
 24 60  1  0
 25 61  1  0
 28 62  1  0
 29 63  1  0
 31 64  1  0
 31 65  1  0
 32 66  1  0
 32 67  1  0
 33 68  1  1
 34 69  1  0
 35 70  1  0
 35 71  1  0
 36 72  1  6
 37 73  1  0
 38 74  1  0
 38 75  1  0
 41 76  1  0
M  END
$$$$
