
     RDKit          3D

 65 68  0  0  0  0  0  0  0  0999 V2000
   -7.5160    1.0516    1.4627 C   0  0  0  0  0  0  0  0  0  0  0  0
   -8.3904   -0.0914    1.0102 C   0  0  1  0  0  0  0  0  0  0  0  0
   -9.4852    0.4169    0.3282 O   0  0  0  0  0  0  0  0  0  0  0  0
   -7.6357   -0.9928    0.0658 C   0  0  0  0  0  0  0  0  0  0  0  0
   -6.4284   -1.5835    0.6818 C   0  0  0  0  0  0  0  0  0  0  0  0
   -6.6710   -2.6085    1.4198 O   0  0  0  0  0  0  0  0  0  0  0  0
   -5.1116   -1.1484    0.5404 N   0  0  0  0  0  0  0  0  0  0  0  0
   -4.0321   -1.8213    1.1967 C   0  0  0  0  0  0  0  0  0  0  0  0
   -3.0327   -2.3316    0.1955 C   0  0  0  0  0  0  0  0  0  0  0  0
   -2.9065   -1.5635   -1.0527 C   0  0  0  0  0  0  0  0  0  0  0  0
   -1.5392   -0.9241   -1.0684 C   0  0  0  0  0  0  0  0  0  0  0  0
   -1.0854    0.0235   -0.2318 N   0  0  0  0  0  0  0  0  0  0  0  0
    0.1660    0.3245   -0.5678 C   0  0  0  0  0  0  0  0  0  0  0  0
    1.0775    1.3057    0.0605 C   0  0  0  0  0  0  0  0  0  0  0  0
    0.6234    2.4932    0.5943 C   0  0  0  0  0  0  0  0  0  0  0  0
    1.4687    3.3811    1.1661 N   0  0  0  0  0  0  0  0  0  0  0  0
    2.7883    3.1338    1.2334 C   0  0  0  0  0  0  0  0  0  0  0  0
    3.6758    4.0711    1.8371 N   0  0  0  0  0  0  0  0  0  0  0  0
    3.2547    1.9547    0.7056 C   0  0  0  0  0  0  0  0  0  0  0  0
    4.6808    1.6380    0.7524 C   0  0  0  0  0  0  0  0  0  0  0  0
    5.6358    2.4110    1.2809 N   0  0  0  0  0  0  0  0  0  0  0  0
    6.7854    1.7538    1.1156 N   0  0  0  0  0  0  0  0  0  0  0  0
    6.5470    0.5857    0.4917 C   0  0  0  0  0  0  0  0  0  0  0  0
    7.5566   -0.4406    0.1202 C   0  0  0  0  0  0  0  0  0  0  0  0
    7.7070   -1.4147    1.2591 C   0  0  0  0  0  0  0  0  0  0  0  0
    7.1091   -1.2257   -1.1043 C   0  0  0  0  0  0  0  0  0  0  0  0
    8.8676    0.2185   -0.2342 C   0  0  0  0  0  0  0  0  0  0  0  0
    5.2530    0.5578    0.2900 O   0  0  0  0  0  0  0  0  0  0  0  0
    2.4008    1.0753    0.1369 N   0  0  0  0  0  0  0  0  0  0  0  0
    0.4968   -0.4413   -1.6228 N   0  0  0  0  0  0  0  0  0  0  0  0
    1.7774   -0.4269   -2.3003 C   0  0  0  0  0  0  0  0  0  0  0  0
   -0.5471   -1.1947   -1.9167 N   0  0  0  0  0  0  0  0  0  0  0  0
   -3.8908   -0.5300   -1.3814 C   0  0  0  0  0  0  0  0  0  0  0  0
   -4.7587   -0.0176   -0.2585 C   0  0  0  0  0  0  0  0  0  0  0  0
   -7.2436    1.6759    0.6017 H   0  0  0  0  0  0  0  0  0  0  0  0
   -6.5836    0.6308    1.8969 H   0  0  0  0  0  0  0  0  0  0  0  0
   -8.0593    1.6370    2.2473 H   0  0  0  0  0  0  0  0  0  0  0  0
   -8.7322   -0.7136    1.8475 H   0  0  0  0  0  0  0  0  0  0  0  0
  -10.3404    0.1376    0.7459 H   0  0  0  0  0  0  0  0  0  0  0  0
   -8.3262   -1.8036   -0.2769 H   0  0  0  0  0  0  0  0  0  0  0  0
   -7.3411   -0.4204   -0.8320 H   0  0  0  0  0  0  0  0  0  0  0  0
   -3.5612   -1.0970    1.9152 H   0  0  0  0  0  0  0  0  0  0  0  0
   -4.4325   -2.6305    1.8180 H   0  0  0  0  0  0  0  0  0  0  0  0
   -2.0604   -2.4192    0.7361 H   0  0  0  0  0  0  0  0  0  0  0  0
   -3.3302   -3.4063   -0.0013 H   0  0  0  0  0  0  0  0  0  0  0  0
   -2.8817   -2.2912   -1.9020 H   0  0  0  0  0  0  0  0  0  0  0  0
   -0.4347    2.6972    0.5434 H   0  0  0  0  0  0  0  0  0  0  0  0
    3.6644    4.3016    2.8629 H   0  0  0  0  0  0  0  0  0  0  0  0
    4.3727    4.5519    1.2251 H   0  0  0  0  0  0  0  0  0  0  0  0
    8.1770   -0.9276    2.1525 H   0  0  0  0  0  0  0  0  0  0  0  0
    6.6785   -1.6928    1.5910 H   0  0  0  0  0  0  0  0  0  0  0  0
    8.2708   -2.2994    0.9300 H   0  0  0  0  0  0  0  0  0  0  0  0
    6.0288   -1.4521   -1.0703 H   0  0  0  0  0  0  0  0  0  0  0  0
    7.7214   -2.1489   -1.1200 H   0  0  0  0  0  0  0  0  0  0  0  0
    7.3990   -0.5980   -1.9819 H   0  0  0  0  0  0  0  0  0  0  0  0
    8.6473    1.0326   -0.9533 H   0  0  0  0  0  0  0  0  0  0  0  0
    9.4308    0.5640    0.6573 H   0  0  0  0  0  0  0  0  0  0  0  0
    9.4638   -0.5341   -0.8022 H   0  0  0  0  0  0  0  0  0  0  0  0
    2.4756   -1.1794   -1.8654 H   0  0  0  0  0  0  0  0  0  0  0  0
    1.6662   -0.6099   -3.4048 H   0  0  0  0  0  0  0  0  0  0  0  0
    2.2582    0.5702   -2.2054 H   0  0  0  0  0  0  0  0  0  0  0  0
   -3.4067    0.3845   -1.8352 H   0  0  0  0  0  0  0  0  0  0  0  0
   -4.6078   -0.8693   -2.1867 H   0  0  0  0  0  0  0  0  0  0  0  0
   -5.5836    0.5432   -0.7011 H   0  0  0  0  0  0  0  0  0  0  0  0
   -4.1708    0.7272    0.3621 H   0  0  0  0  0  0  0  0  0  0  0  0
  1  2  1  0
  2  3  1  0
  2  4  1  0
  4  5  1  0
  5  6  2  0
  5  7  1  0
  7  8  1  0
  8  9  1  0
  9 10  1  0
 10 11  1  0
 11 12  1  0
 12 13  2  0
 13 14  1  0
 14 15  2  0
 15 16  1  0
 16 17  2  0
 17 18  1  0
 17 19  1  0
 19 20  1  0
 20 21  2  0
 21 22  1  0
 22 23  2  0
 23 24  1  0
 24 25  1  0
 24 26  1  0
 24 27  1  0
 23 28  1  0
 19 29  2  0
 13 30  1  0
 30 31  1  0
 30 32  1  0
 10 33  1  0
 33 34  1  0
 34  7  1  0
 32 11  2  0
 29 14  1  0
 28 20  1  0
  1 35  1  0
  1 36  1  0
  1 37  1  0
  2 38  1  1
  3 39  1  0
  4 40  1  0
  4 41  1  0
  8 42  1  0
  8 43  1  0
  9 44  1  0
  9 45  1  0
 10 46  1  0
 15 47  1  0
 18 48  1  0
 18 49  1  0
 25 50  1  0
 25 51  1  0
 25 52  1  0
 26 53  1  0
 26 54  1  0
 26 55  1  0
 27 56  1  0
 27 57  1  0
 27 58  1  0
 31 59  1  0
 31 60  1  0
 31 61  1  0
 33 62  1  0
 33 63  1  0
 34 64  1  0
 34 65  1  0
M  END
$$$$
