
     RDKit          3D

 36 38  0  0  0  0  0  0  0  0999 V2000
   -1.5307    3.0173   -2.0358 C   0  0  0  0  0  0  0  0  0  0  0  0
   -1.2507    2.0230   -0.9370 C   0  0  0  0  0  0  0  0  0  0  0  0
   -2.2562    1.7620   -0.0292 C   0  0  0  0  0  0  0  0  0  0  0  0
   -2.0173    0.8556    0.9818 C   0  0  0  0  0  0  0  0  0  0  0  0
   -3.0178    0.5819    1.9027 O   0  0  0  0  0  0  0  0  0  0  0  0
   -3.9502   -0.4176    1.7358 C   0  0  0  0  0  0  0  0  0  0  0  0
   -4.8939   -0.5841    2.7306 C   0  0  0  0  0  0  0  0  0  0  0  0
   -5.8028   -1.5577    2.5687 N   0  0  0  0  0  0  0  0  0  0  0  0
   -5.8534   -2.3743    1.5098 C   0  0  0  0  0  0  0  0  0  0  0  0
   -4.9376   -2.2252    0.5273 N   0  0  0  0  0  0  0  0  0  0  0  0
   -4.0099   -1.2598    0.6534 C   0  0  0  0  0  0  0  0  0  0  0  0
   -0.7773    0.2583    1.0267 C   0  0  0  0  0  0  0  0  0  0  0  0
    0.2128    0.5267    0.1184 C   0  0  0  0  0  0  0  0  0  0  0  0
    1.5388   -0.1387    0.2003 C   0  0  0  0  0  0  0  0  0  0  0  0
    1.7809   -0.9631    1.1055 O   0  0  0  0  0  0  0  0  0  0  0  0
    2.5280    0.1712   -0.7602 N   0  0  0  0  0  0  0  0  0  0  0  0
    3.8333   -0.3632   -0.8324 C   0  0  0  0  0  0  0  0  0  0  0  0
    4.3591   -1.2864    0.0352 C   0  0  0  0  0  0  0  0  0  0  0  0
    5.6663   -1.7570   -0.1189 C   0  0  0  0  0  0  0  0  0  0  0  0
    6.4590   -1.3064   -1.1448 C   0  0  0  0  0  0  0  0  0  0  0  0
    8.1052   -1.8737   -1.3711 Cl  0  0  0  0  0  0  0  0  0  0  0  0
    5.9125   -0.3813   -2.0029 C   0  0  0  0  0  0  0  0  0  0  0  0
    4.6686    0.0456   -1.8297 N   0  0  0  0  0  0  0  0  0  0  0  0
   -0.0565    1.4141   -0.8512 N   0  0  0  0  0  0  0  0  0  0  0  0
   -2.2097    2.4976   -2.7528 H   0  0  0  0  0  0  0  0  0  0  0  0
   -2.0618    3.8904   -1.6133 H   0  0  0  0  0  0  0  0  0  0  0  0
   -0.6065    3.3760   -2.5010 H   0  0  0  0  0  0  0  0  0  0  0  0
   -3.2121    2.2647   -0.1174 H   0  0  0  0  0  0  0  0  0  0  0  0
   -4.8845    0.0687    3.6173 H   0  0  0  0  0  0  0  0  0  0  0  0
   -6.6093   -3.1588    1.4100 H   0  0  0  0  0  0  0  0  0  0  0  0
   -3.2826   -1.1424   -0.1283 H   0  0  0  0  0  0  0  0  0  0  0  0
   -0.5661   -0.4553    1.8095 H   0  0  0  0  0  0  0  0  0  0  0  0
    2.2855    0.8809   -1.5199 H   0  0  0  0  0  0  0  0  0  0  0  0
    3.7913   -1.6773    0.8564 H   0  0  0  0  0  0  0  0  0  0  0  0
    6.0867   -2.4833    0.5598 H   0  0  0  0  0  0  0  0  0  0  0  0
    6.5591   -0.0423   -2.8034 H   0  0  0  0  0  0  0  0  0  0  0  0
  1  2  1  0
  2  3  2  0
  3  4  1  0
  4  5  1  0
  5  6  1  0
  6  7  2  0
  7  8  1  0
  8  9  2  0
  9 10  1  0
 10 11  2  0
  4 12  2  0
 12 13  1  0
 13 14  1  0
 14 15  2  0
 14 16  1  0
 16 17  1  0
 17 18  2  0
 18 19  1  0
 19 20  2  0
 20 21  1  0
 20 22  1  0
 22 23  2  0
 13 24  2  0
 24  2  1  0
 11  6  1  0
 23 17  1  0
  1 25  1  0
  1 26  1  0
  1 27  1  0
  3 28  1  0
  7 29  1  0
  9 30  1  0
 11 31  1  0
 12 32  1  0
 16 33  1  0
 18 34  1  0
 19 35  1  0
 22 36  1  0
M  END
$$$$
