
     RDKit          3D

 69 71  0  0  0  0  0  0  0  0999 V2000
    8.0416    0.8220    1.0059 C   0  0  0  0  0  0  0  0  0  0  0  0
    7.2175    0.7380   -0.2098 N   0  0  0  0  0  0  0  0  0  0  0  0
    7.3571    2.0033   -0.8820 C   0  0  0  0  0  0  0  0  0  0  0  0
    5.8674    0.4589    0.1977 C   0  0  0  0  0  0  0  0  0  0  0  0
    4.9837    0.3643   -1.0402 C   0  0  0  0  0  0  0  0  0  0  0  0
    3.6069    0.0813   -0.6531 N   0  0  0  0  0  0  0  0  0  0  0  0
    2.7987    1.2420   -0.4191 C   0  0  0  0  0  0  0  0  0  0  0  0
    1.3915    1.1146   -0.8945 C   0  0  0  0  0  0  0  0  0  0  0  0
    0.6699   -0.0188   -0.2304 N   0  0  0  0  0  0  0  0  0  0  0  0
   -0.6401   -0.0947   -0.6818 C   0  0  0  0  0  0  0  0  0  0  0  0
   -1.0113    0.8211   -1.5338 O   0  0  0  0  0  0  0  0  0  0  0  0
   -1.6971   -1.0719   -0.3347 C   0  0  0  0  0  0  0  0  0  0  0  0
   -1.5135   -2.2569    0.2602 C   0  0  0  0  0  0  0  0  0  0  0  0
   -2.5567   -3.0817    0.4911 C   0  0  0  0  0  0  0  0  0  0  0  0
   -2.5878   -4.4367    1.1350 C   0  0  0  0  0  0  0  0  0  0  0  0
   -4.0274   -4.8934    1.1288 C   0  0  0  0  0  0  0  0  0  0  0  0
   -1.7793   -5.4210    0.3236 C   0  0  0  0  0  0  0  0  0  0  0  0
   -2.0905   -4.3628    2.5467 C   0  0  0  0  0  0  0  0  0  0  0  0
   -3.9014   -2.2261   -0.1301 S   0  0  0  0  0  0  0  0  0  0  0  0
   -2.9990   -0.7626   -0.6883 C   0  0  0  0  0  0  0  0  0  0  0  0
   -3.5863    0.3763   -1.3216 N   0  0  0  0  0  0  0  0  0  0  0  0
   -4.0441    1.4639   -0.5177 C   0  0  0  0  0  0  0  0  0  0  0  0
   -3.9132    1.3773    0.7106 O   0  0  0  0  0  0  0  0  0  0  0  0
   -4.6363    2.6270   -1.0620 N   0  0  0  0  0  0  0  0  0  0  0  0
   -5.0987    3.7226   -0.2734 C   0  0  0  0  0  0  0  0  0  0  0  0
   -4.2446    4.7591    0.0258 C   0  0  0  0  0  0  0  0  0  0  0  0
   -4.6502    5.8379    0.7850 C   0  0  0  0  0  0  0  0  0  0  0  0
   -5.9400    5.8952    1.2641 C   0  0  0  0  0  0  0  0  0  0  0  0
   -6.7905    4.8554    0.9619 C   0  0  0  0  0  0  0  0  0  0  0  0
   -8.4541    4.8925    1.5587 Cl  0  0  0  0  0  0  0  0  0  0  0  0
   -6.3844    3.7785    0.2036 C   0  0  0  0  0  0  0  0  0  0  0  0
   -7.5321    2.4732   -0.1482 Cl  0  0  0  0  0  0  0  0  0  0  0  0
    1.2876   -0.8379    0.7470 C   0  0  0  0  0  0  0  0  0  0  0  0
    2.1491   -1.9422    0.1534 C   0  0  0  0  0  0  0  0  0  0  0  0
    3.2651   -1.2825   -0.5632 C   0  0  0  0  0  0  0  0  0  0  0  0
    4.0133   -2.0717   -1.1811 O   0  0  0  0  0  0  0  0  0  0  0  0
    7.9233   -0.1461    1.5344 H   0  0  0  0  0  0  0  0  0  0  0  0
    7.6636    1.6801    1.5790 H   0  0  0  0  0  0  0  0  0  0  0  0
    9.0986    1.0234    0.7509 H   0  0  0  0  0  0  0  0  0  0  0  0
    7.6716    1.8270   -1.9356 H   0  0  0  0  0  0  0  0  0  0  0  0
    8.0905    2.6831   -0.3914 H   0  0  0  0  0  0  0  0  0  0  0  0
    6.4061    2.5769   -0.9289 H   0  0  0  0  0  0  0  0  0  0  0  0
    5.5227    1.2463    0.8860 H   0  0  0  0  0  0  0  0  0  0  0  0
    5.8532   -0.5343    0.6802 H   0  0  0  0  0  0  0  0  0  0  0  0
    5.0004    1.2824   -1.6428 H   0  0  0  0  0  0  0  0  0  0  0  0
    5.3725   -0.4613   -1.6569 H   0  0  0  0  0  0  0  0  0  0  0  0
    3.2216    2.1428   -0.9390 H   0  0  0  0  0  0  0  0  0  0  0  0
    2.8882    1.5256    0.6702 H   0  0  0  0  0  0  0  0  0  0  0  0
    1.3977    0.9852   -1.9749 H   0  0  0  0  0  0  0  0  0  0  0  0
    0.8295    2.0093   -0.5531 H   0  0  0  0  0  0  0  0  0  0  0  0
   -0.5114   -2.6312    0.5660 H   0  0  0  0  0  0  0  0  0  0  0  0
   -4.2276   -5.6162    1.9569 H   0  0  0  0  0  0  0  0  0  0  0  0
   -4.3224   -5.2784    0.1386 H   0  0  0  0  0  0  0  0  0  0  0  0
   -4.7170   -4.0261    1.3476 H   0  0  0  0  0  0  0  0  0  0  0  0
   -2.2334   -6.4255    0.4167 H   0  0  0  0  0  0  0  0  0  0  0  0
   -0.7276   -5.4266    0.6308 H   0  0  0  0  0  0  0  0  0  0  0  0
   -1.8824   -5.1170   -0.7440 H   0  0  0  0  0  0  0  0  0  0  0  0
   -2.5238   -3.5205    3.0889 H   0  0  0  0  0  0  0  0  0  0  0  0
   -0.9883   -4.2717    2.6161 H   0  0  0  0  0  0  0  0  0  0  0  0
   -2.3805   -5.2897    3.0679 H   0  0  0  0  0  0  0  0  0  0  0  0
   -3.7012    0.4590   -2.3556 H   0  0  0  0  0  0  0  0  0  0  0  0
   -4.7370    2.6777   -2.1048 H   0  0  0  0  0  0  0  0  0  0  0  0
   -3.2076    4.7273   -0.3514 H   0  0  0  0  0  0  0  0  0  0  0  0
   -3.9672    6.6487    1.0137 H   0  0  0  0  0  0  0  0  0  0  0  0
   -6.2795    6.7482    1.8710 H   0  0  0  0  0  0  0  0  0  0  0  0
    0.6722   -1.1462    1.6070 H   0  0  0  0  0  0  0  0  0  0  0  0
    2.0857   -0.1886    1.2877 H   0  0  0  0  0  0  0  0  0  0  0  0
    1.5874   -2.5746   -0.5713 H   0  0  0  0  0  0  0  0  0  0  0  0
    2.5512   -2.5325    0.9839 H   0  0  0  0  0  0  0  0  0  0  0  0
  1  2  1  0
  2  3  1  0
  2  4  1  0
  4  5  1  0
  5  6  1  0
  6  7  1  0
  7  8  1  0
  8  9  1  0
  9 10  1  0
 10 11  2  0
 10 12  1  0
 12 13  1  0
 13 14  2  0
 14 15  1  0
 15 16  1  0
 15 17  1  0
 15 18  1  0
 14 19  1  0
 19 20  1  0
 20 21  1  0
 21 22  1  0
 22 23  2  0
 22 24  1  0
 24 25  1  0
 25 26  2  0
 26 27  1  0
 27 28  2  0
 28 29  1  0
 29 30  1  0
 29 31  2  0
 31 32  1  0
  9 33  1  0
 33 34  1  0
 34 35  1  0
 35 36  2  0
 35  6  1  0
 20 12  2  0
 31 25  1  0
  1 37  1  0
  1 38  1  0
  1 39  1  0
  3 40  1  0
  3 41  1  0
  3 42  1  0
  4 43  1  0
  4 44  1  0
  5 45  1  0
  5 46  1  0
  7 47  1  0
  7 48  1  0
  8 49  1  0
  8 50  1  0
 13 51  1  0
 16 52  1  0
 16 53  1  0
 16 54  1  0
 17 55  1  0
 17 56  1  0
 17 57  1  0
 18 58  1  0
 18 59  1  0
 18 60  1  0
 21 61  1  0
 24 62  1  0
 26 63  1  0
 27 64  1  0
 28 65  1  0
 33 66  1  0
 33 67  1  0
 34 68  1  0
 34 69  1  0
M  END
$$$$
