
     RDKit          3D

 43 46  0  0  0  0  0  0  0  0999 V2000
   -0.8195    2.0263   -2.8075 C   0  0  0  0  0  0  0  0  0  0  0  0
   -1.7937    1.4621   -1.8305 C   0  0  0  0  0  0  0  0  0  0  0  0
   -1.3993    1.0298   -0.6426 C   0  0  0  0  0  0  0  0  0  0  0  0
    0.0482    1.1407   -0.3168 C   0  0  0  0  0  0  0  0  0  0  0  0
    0.8860    1.6137   -1.1311 O   0  0  0  0  0  0  0  0  0  0  0  0
    0.5641    0.7294    0.9213 N   0  0  0  0  0  0  0  0  0  0  0  0
    1.9517    0.8282    1.2854 C   0  0  0  0  0  0  0  0  0  0  0  0
    2.4669    1.8223    2.0269 C   0  0  0  0  0  0  0  0  0  0  0  0
    3.8296    1.8511    2.3153 C   0  0  0  0  0  0  0  0  0  0  0  0
    4.6639    0.8405    1.8273 C   0  0  0  0  0  0  0  0  0  0  0  0
    5.9826    0.6277    1.9418 N   0  0  0  0  0  0  0  0  0  0  0  0
    6.2699   -0.4796    1.2734 N   0  0  0  0  0  0  0  0  0  0  0  0
    5.1657   -1.0282    0.7045 C   0  0  0  0  0  0  0  0  0  0  0  0
    4.1336   -0.1619    1.0751 C   0  0  0  0  0  0  0  0  0  0  0  0
    2.7907   -0.1880    0.7953 C   0  0  0  0  0  0  0  0  0  0  0  0
   -2.3324    0.3723    0.2875 C   0  0  0  0  0  0  0  0  0  0  0  0
   -2.2489   -1.1323    0.1240 C   0  0  0  0  0  0  0  0  0  0  0  0
   -2.7270   -1.7012   -1.0234 C   0  0  0  0  0  0  0  0  0  0  0  0
   -2.6984   -3.0933   -1.2436 C   0  0  0  0  0  0  0  0  0  0  0  0
   -2.1586   -3.8768   -0.2384 C   0  0  0  0  0  0  0  0  0  0  0  0
   -2.1189   -5.2406   -0.4123 F   0  0  0  0  0  0  0  0  0  0  0  0
   -1.6868   -3.3001    0.8976 C   0  0  0  0  0  0  0  0  0  0  0  0
   -1.7170   -1.9135    1.1159 C   0  0  0  0  0  0  0  0  0  0  0  0
   -3.7156    0.6851    0.0231 N   0  0  0  0  0  0  0  0  0  0  0  0
   -4.1314    1.1254   -1.2537 C   0  0  0  0  0  0  0  0  0  0  0  0
   -5.3849    1.1595   -1.5358 O   0  0  0  0  0  0  0  0  0  0  0  0
   -3.1748    1.5285   -2.2116 N   0  0  0  0  0  0  0  0  0  0  0  0
   -1.3668    2.3111   -3.7503 H   0  0  0  0  0  0  0  0  0  0  0  0
   -0.3287    2.9439   -2.4854 H   0  0  0  0  0  0  0  0  0  0  0  0
   -0.1268    1.1891   -3.0955 H   0  0  0  0  0  0  0  0  0  0  0  0
   -0.0896    0.3478    1.6375 H   0  0  0  0  0  0  0  0  0  0  0  0
    1.8022    2.5984    2.3922 H   0  0  0  0  0  0  0  0  0  0  0  0
    4.2222    2.6380    2.9028 H   0  0  0  0  0  0  0  0  0  0  0  0
    6.6439    1.2322    2.4607 H   0  0  0  0  0  0  0  0  0  0  0  0
    5.1137   -1.9197    0.1103 H   0  0  0  0  0  0  0  0  0  0  0  0
    2.3666   -0.9769    0.2001 H   0  0  0  0  0  0  0  0  0  0  0  0
   -2.1548    0.6210    1.3594 H   0  0  0  0  0  0  0  0  0  0  0  0
   -3.1651   -1.1217   -1.8350 H   0  0  0  0  0  0  0  0  0  0  0  0
   -3.0686   -3.5566   -2.1311 H   0  0  0  0  0  0  0  0  0  0  0  0
   -1.2719   -3.9588    1.6573 H   0  0  0  0  0  0  0  0  0  0  0  0
   -1.3474   -1.5226    2.0298 H   0  0  0  0  0  0  0  0  0  0  0  0
   -4.4212    0.5826    0.7799 H   0  0  0  0  0  0  0  0  0  0  0  0
   -3.4533    1.8651   -3.1812 H   0  0  0  0  0  0  0  0  0  0  0  0
  1  2  1  0
  2  3  2  0
  3  4  1  0
  4  5  2  0
  4  6  1  0
  6  7  1  0
  7  8  2  0
  8  9  1  0
  9 10  2  0
 10 11  1  0
 11 12  1  0
 12 13  2  0
 13 14  1  0
 14 15  2  0
  3 16  1  0
 16 17  1  0
 17 18  2  0
 18 19  1  0
 19 20  2  0
 20 21  1  0
 20 22  1  0
 22 23  2  0
 16 24  1  0
 24 25  1  0
 25 26  2  0
 25 27  1  0
 27  2  1  0
 15  7  1  0
 23 17  1  0
 14 10  1  0
  1 28  1  0
  1 29  1  0
  1 30  1  0
  6 31  1  0
  8 32  1  0
  9 33  1  0
 11 34  1  0
 13 35  1  0
 15 36  1  0
 16 37  1  0
 18 38  1  0
 19 39  1  0
 22 40  1  0
 23 41  1  0
 24 42  1  0
 27 43  1  0
M  END
$$$$
