
     RDKit          3D

 49 52  0  0  0  0  0  0  0  0999 V2000
    6.9253   -0.1607   -1.9494 C   0  0  0  0  0  0  0  0  0  0  0  0
    6.3483    1.0409   -1.3096 C   0  0  0  0  0  0  0  0  0  0  0  0
    6.8475    2.2890   -1.2889 N   0  0  0  0  0  0  0  0  0  0  0  0
    6.0508    3.0926   -0.6201 N   0  0  0  0  0  0  0  0  0  0  0  0
    5.0049    2.3654   -0.1894 C   0  0  0  0  0  0  0  0  0  0  0  0
    3.9058    2.7081    0.5409 C   0  0  0  0  0  0  0  0  0  0  0  0
    2.9755    1.7378    0.8428 C   0  0  0  0  0  0  0  0  0  0  0  0
    3.1044    0.4248    0.4375 C   0  0  0  0  0  0  0  0  0  0  0  0
    2.0648   -0.5483    0.8026 C   0  0  0  0  0  0  0  0  0  0  0  0
    2.3671   -1.8772    1.0132 C   0  0  0  0  0  0  0  0  0  0  0  0
    1.3808   -2.7347    1.3469 N   0  0  0  0  0  0  0  0  0  0  0  0
    0.1021   -2.3440    1.4842 C   0  0  0  0  0  0  0  0  0  0  0  0
   -0.2722   -1.0347    1.2888 C   0  0  0  0  0  0  0  0  0  0  0  0
   -1.5178   -0.5086    1.3911 O   0  0  0  0  0  0  0  0  0  0  0  0
   -2.7557   -0.9944    1.6734 C   0  0  0  0  0  0  0  0  0  0  0  0
   -3.2257   -1.9972    0.6565 C   0  0  1  0  0  0  0  0  0  0  0  0
   -4.5585   -2.4396    1.0763 N   0  0  0  0  0  0  0  0  0  0  0  0
   -3.2995   -1.3505   -0.7184 C   0  0  0  0  0  0  0  0  0  0  0  0
   -4.2440   -0.2102   -0.7249 C   0  0  0  0  0  0  0  0  0  0  0  0
   -5.5728   -0.4709   -1.0074 C   0  0  0  0  0  0  0  0  0  0  0  0
   -6.4822    0.5619   -1.0293 C   0  0  0  0  0  0  0  0  0  0  0  0
   -6.0523    1.8319   -0.7703 C   0  0  0  0  0  0  0  0  0  0  0  0
   -4.7473    2.1180   -0.4887 C   0  0  0  0  0  0  0  0  0  0  0  0
   -3.8351    1.0799   -0.4670 C   0  0  0  0  0  0  0  0  0  0  0  0
    0.7585   -0.1367    0.9401 C   0  0  0  0  0  0  0  0  0  0  0  0
    4.2101    0.0834   -0.2964 C   0  0  0  0  0  0  0  0  0  0  0  0
    5.1485    1.0531   -0.6031 C   0  0  0  0  0  0  0  0  0  0  0  0
    6.8175   -1.0008   -1.2414 H   0  0  0  0  0  0  0  0  0  0  0  0
    6.4002   -0.3137   -2.9051 H   0  0  0  0  0  0  0  0  0  0  0  0
    8.0341   -0.0286   -2.0946 H   0  0  0  0  0  0  0  0  0  0  0  0
    6.2083    4.1149   -0.4556 H   0  0  0  0  0  0  0  0  0  0  0  0
    3.7628    3.7125    0.8769 H   0  0  0  0  0  0  0  0  0  0  0  0
    2.1155    2.0323    1.4209 H   0  0  0  0  0  0  0  0  0  0  0  0
    3.3854   -2.2365    0.9134 H   0  0  0  0  0  0  0  0  0  0  0  0
   -0.6061   -3.1007    1.7653 H   0  0  0  0  0  0  0  0  0  0  0  0
   -2.8854   -1.3819    2.7156 H   0  0  0  0  0  0  0  0  0  0  0  0
   -3.5188   -0.1538    1.6284 H   0  0  0  0  0  0  0  0  0  0  0  0
   -2.5604   -2.8440    0.5937 H   0  0  0  0  0  0  0  0  0  0  0  0
   -4.4212   -3.3390    1.5855 H   0  0  0  0  0  0  0  0  0  0  0  0
   -4.9687   -1.7651    1.7735 H   0  0  0  0  0  0  0  0  0  0  0  0
   -3.6239   -2.1147   -1.4606 H   0  0  0  0  0  0  0  0  0  0  0  0
   -2.2834   -1.0003   -0.9897 H   0  0  0  0  0  0  0  0  0  0  0  0
   -5.8608   -1.4826   -1.2038 H   0  0  0  0  0  0  0  0  0  0  0  0
   -7.5134    0.3133   -1.2551 H   0  0  0  0  0  0  0  0  0  0  0  0
   -6.8070    2.6206   -0.7981 H   0  0  0  0  0  0  0  0  0  0  0  0
   -4.3961    3.1306   -0.2806 H   0  0  0  0  0  0  0  0  0  0  0  0
   -2.7839    1.2801   -0.2461 H   0  0  0  0  0  0  0  0  0  0  0  0
    0.5347    0.9085    0.7721 H   0  0  0  0  0  0  0  0  0  0  0  0
    4.3392   -0.9300   -0.6264 H   0  0  0  0  0  0  0  0  0  0  0  0
  1  2  1  0
  2  3  2  0
  3  4  1  0
  4  5  1  0
  5  6  2  0
  6  7  1  0
  7  8  2  0
  8  9  1  0
  9 10  2  0
 10 11  1  0
 11 12  2  0
 12 13  1  0
 13 14  1  0
 14 15  1  0
 15 16  1  0
 16 17  1  0
 16 18  1  0
 18 19  1  0
 19 20  2  0
 20 21  1  0
 21 22  2  0
 22 23  1  0
 23 24  2  0
 13 25  2  0
  8 26  1  0
 26 27  2  0
 27  2  1  0
 27  5  1  0
 25  9  1  0
 24 19  1  0
  1 28  1  0
  1 29  1  0
  1 30  1  0
  4 31  1  0
  6 32  1  0
  7 33  1  0
 10 34  1  0
 12 35  1  0
 15 36  1  0
 15 37  1  0
 16 38  1  6
 17 39  1  0
 17 40  1  0
 18 41  1  0
 18 42  1  0
 20 43  1  0
 21 44  1  0
 22 45  1  0
 23 46  1  0
 24 47  1  0
 25 48  1  0
 26 49  1  0
M  END
$$$$
