
     RDKit          3D

 43 45  0  0  0  0  0  0  0  0999 V2000
    0.4293    0.2973   -0.2476 O   0  0  0  0  0  0  0  0  0  0  0  0
    0.9204   -0.8674   -0.3512 C   0  0  0  0  0  0  0  0  0  0  0  0
    2.2990   -0.8589   -0.6744 N   0  0  0  0  0  0  0  0  0  0  0  0
    3.0432    0.3593   -0.8609 C   0  0  0  0  0  0  0  0  0  0  0  0
    3.0967    0.8886   -2.1258 C   0  0  0  0  0  0  0  0  0  0  0  0
    3.7775    2.0480   -2.4238 C   0  0  0  0  0  0  0  0  0  0  0  0
    4.4277    2.6870   -1.3815 C   0  0  0  0  0  0  0  0  0  0  0  0
    4.3810    2.1646   -0.1062 C   0  0  0  0  0  0  0  0  0  0  0  0
    5.0914    2.8800    0.9836 C   0  0  0  0  0  0  0  0  0  0  0  0
    5.9397    3.8325    0.4532 F   0  0  0  0  0  0  0  0  0  0  0  0
    5.9178    1.9296    1.5991 F   0  0  0  0  0  0  0  0  0  0  0  0
    4.2402    3.4510    1.8943 F   0  0  0  0  0  0  0  0  0  0  0  0
    3.6870    1.0010    0.1459 C   0  0  0  0  0  0  0  0  0  0  0  0
    0.1026   -2.0404   -0.1479 C   0  0  0  0  0  0  0  0  0  0  0  0
    0.7484   -3.2773   -0.2869 C   0  0  0  0  0  0  0  0  0  0  0  0
    0.1182   -4.4881   -0.1271 C   0  0  0  0  0  0  0  0  0  0  0  0
   -1.2154   -4.4910    0.1854 C   0  0  0  0  0  0  0  0  0  0  0  0
   -1.8737   -3.3042    0.3279 C   0  0  0  0  0  0  0  0  0  0  0  0
   -1.2168   -2.0624    0.1616 C   0  0  0  0  0  0  0  0  0  0  0  0
   -1.9409   -0.8712    0.3194 N   0  0  0  0  0  0  0  0  0  0  0  0
   -3.3513   -0.9454    0.6508 C   0  0  0  0  0  0  0  0  0  0  0  0
   -3.9627    0.4137    0.7806 C   0  0  0  0  0  0  0  0  0  0  0  0
   -4.5262    1.0603   -0.2983 C   0  0  0  0  0  0  0  0  0  0  0  0
   -5.0865    2.3061   -0.1788 C   0  0  0  0  0  0  0  0  0  0  0  0
   -5.0825    2.9050    1.0219 N   0  0  0  0  0  0  0  0  0  0  0  0
   -4.5419    2.3010    2.0894 C   0  0  0  0  0  0  0  0  0  0  0  0
   -3.9714    1.0491    2.0002 C   0  0  0  0  0  0  0  0  0  0  0  0
    2.8053   -1.7450   -0.7842 H   0  0  0  0  0  0  0  0  0  0  0  0
    2.5839    0.3822   -2.9409 H   0  0  0  0  0  0  0  0  0  0  0  0
    3.7918    2.4298   -3.4429 H   0  0  0  0  0  0  0  0  0  0  0  0
    4.9592    3.5979   -1.6308 H   0  0  0  0  0  0  0  0  0  0  0  0
    3.6512    0.5940    1.1417 H   0  0  0  0  0  0  0  0  0  0  0  0
    1.7820   -3.3111   -0.5288 H   0  0  0  0  0  0  0  0  0  0  0  0
    0.6335   -5.4213   -0.2386 H   0  0  0  0  0  0  0  0  0  0  0  0
   -1.7214   -5.4378    0.3135 H   0  0  0  0  0  0  0  0  0  0  0  0
   -2.9190   -3.2426    0.5723 H   0  0  0  0  0  0  0  0  0  0  0  0
   -1.5461    0.0510    0.2177 H   0  0  0  0  0  0  0  0  0  0  0  0
   -3.4958   -1.5412    1.5743 H   0  0  0  0  0  0  0  0  0  0  0  0
   -3.8509   -1.4320   -0.2306 H   0  0  0  0  0  0  0  0  0  0  0  0
   -4.5139    0.5471   -1.2615 H   0  0  0  0  0  0  0  0  0  0  0  0
   -5.5291    2.8009   -1.0519 H   0  0  0  0  0  0  0  0  0  0  0  0
   -4.5536    2.8077    3.0423 H   0  0  0  0  0  0  0  0  0  0  0  0
   -3.5279    0.5524    2.8737 H   0  0  0  0  0  0  0  0  0  0  0  0
  1  2  2  0
  2  3  1  0
  3  4  1  0
  4  5  2  0
  5  6  1  0
  6  7  2  0
  7  8  1  0
  8  9  1  0
  9 10  1  0
  9 11  1  0
  9 12  1  0
  8 13  2  0
  2 14  1  0
 14 15  2  0
 15 16  1  0
 16 17  2  0
 17 18  1  0
 18 19  2  0
 19 20  1  0
 20 21  1  0
 21 22  1  0
 22 23  2  0
 23 24  1  0
 24 25  2  0
 25 26  1  0
 26 27  2  0
 13  4  1  0
 19 14  1  0
 27 22  1  0
  3 28  1  0
  5 29  1  0
  6 30  1  0
  7 31  1  0
 13 32  1  0
 15 33  1  0
 16 34  1  0
 17 35  1  0
 18 36  1  0
 20 37  1  0
 21 38  1  0
 21 39  1  0
 23 40  1  0
 24 41  1  0
 26 42  1  0
 27 43  1  0
M  END
$$$$
