
     RDKit          3D

 60 63  0  0  0  0  0  0  0  0999 V2000
    7.7980    1.4461   -3.6769 C   0  0  0  0  0  0  0  0  0  0  0  0
    7.9434    1.3381   -2.2753 O   0  0  0  0  0  0  0  0  0  0  0  0
    6.9647    0.6529   -1.5736 C   0  0  0  0  0  0  0  0  0  0  0  0
    5.8685    0.0763   -2.1559 C   0  0  0  0  0  0  0  0  0  0  0  0
    4.9095   -0.6048   -1.3999 C   0  0  0  0  0  0  0  0  0  0  0  0
    5.0260   -0.7232   -0.0514 C   0  0  0  0  0  0  0  0  0  0  0  0
    4.0554   -1.4317    0.7785 C   0  0  0  0  0  0  0  0  0  0  0  0
    4.2329   -1.4479    2.0240 O   0  0  0  0  0  0  0  0  0  0  0  0
    2.9310   -2.0987    0.2535 N   0  0  0  0  0  0  0  0  0  0  0  0
    1.9915   -2.7859    1.0930 C   0  0  0  0  0  0  0  0  0  0  0  0
    1.0104   -1.8762    1.7767 C   0  0  0  0  0  0  0  0  0  0  0  0
    1.2003   -1.3805    3.0449 C   0  0  0  0  0  0  0  0  0  0  0  0
    0.2420   -0.5332    3.6165 C   0  0  0  0  0  0  0  0  0  0  0  0
   -0.8925   -0.1937    2.9129 C   0  0  0  0  0  0  0  0  0  0  0  0
   -1.0897   -0.6853    1.6453 C   0  0  0  0  0  0  0  0  0  0  0  0
   -2.2807   -0.3504    0.8755 C   0  0  0  0  0  0  0  0  0  0  0  0
   -2.4060   -0.8307   -0.2904 O   0  0  0  0  0  0  0  0  0  0  0  0
   -3.3336    0.4738    1.3074 N   0  0  0  0  0  0  0  0  0  0  0  0
   -4.4807    0.7725    0.5189 C   0  0  0  0  0  0  0  0  0  0  0  0
   -4.5237    1.8554   -0.3331 C   0  0  0  0  0  0  0  0  0  0  0  0
   -5.6300    2.1530   -1.1063 C   0  0  0  0  0  0  0  0  0  0  0  0
   -6.7562    1.3576   -1.0506 C   0  0  0  0  0  0  0  0  0  0  0  0
   -6.7195    0.2717   -0.1991 C   0  0  0  0  0  0  0  0  0  0  0  0
   -5.6147   -0.0246    0.5723 C   0  0  0  0  0  0  0  0  0  0  0  0
   -7.9593   -0.5732   -0.1594 C   0  0  0  0  0  0  0  0  0  0  0  0
   -8.3842   -0.7175   -1.5436 N   0  0  0  0  0  0  0  0  0  0  0  0
   -8.9088    0.5579   -1.9863 C   0  0  0  0  0  0  0  0  0  0  0  0
   -7.9437    1.6872   -1.8917 C   0  0  0  0  0  0  0  0  0  0  0  0
   -0.1466   -1.5111    1.0985 C   0  0  0  0  0  0  0  0  0  0  0  0
    6.1323   -0.1410    0.5364 C   0  0  0  0  0  0  0  0  0  0  0  0
    7.0827    0.5306   -0.1882 C   0  0  0  0  0  0  0  0  0  0  0  0
    8.2018    1.1175    0.4159 O   0  0  0  0  0  0  0  0  0  0  0  0
    8.3914    1.0339    1.8099 C   0  0  0  0  0  0  0  0  0  0  0  0
    6.8080    1.9282   -3.9169 H   0  0  0  0  0  0  0  0  0  0  0  0
    7.7911    0.4464   -4.1352 H   0  0  0  0  0  0  0  0  0  0  0  0
    8.5835    2.0797   -4.1326 H   0  0  0  0  0  0  0  0  0  0  0  0
    5.7779    0.1722   -3.2330 H   0  0  0  0  0  0  0  0  0  0  0  0
    4.0848   -1.0241   -1.9434 H   0  0  0  0  0  0  0  0  0  0  0  0
    2.8014   -2.0733   -0.8119 H   0  0  0  0  0  0  0  0  0  0  0  0
    2.4688   -3.4129    1.8665 H   0  0  0  0  0  0  0  0  0  0  0  0
    1.4153   -3.4934    0.4406 H   0  0  0  0  0  0  0  0  0  0  0  0
    2.0815   -1.6478    3.6089 H   0  0  0  0  0  0  0  0  0  0  0  0
    0.4320   -0.1660    4.6175 H   0  0  0  0  0  0  0  0  0  0  0  0
   -1.6289    0.4715    3.3832 H   0  0  0  0  0  0  0  0  0  0  0  0
   -3.2763    0.8925    2.2594 H   0  0  0  0  0  0  0  0  0  0  0  0
   -3.6166    2.4692   -0.3569 H   0  0  0  0  0  0  0  0  0  0  0  0
   -5.6171    3.0217   -1.7675 H   0  0  0  0  0  0  0  0  0  0  0  0
   -5.6166   -0.8967    1.2406 H   0  0  0  0  0  0  0  0  0  0  0  0
   -8.7266    0.0139    0.4153 H   0  0  0  0  0  0  0  0  0  0  0  0
   -7.8035   -1.5232    0.3528 H   0  0  0  0  0  0  0  0  0  0  0  0
   -9.1358   -1.4216   -1.6520 H   0  0  0  0  0  0  0  0  0  0  0  0
   -9.2427    0.4077   -3.0511 H   0  0  0  0  0  0  0  0  0  0  0  0
   -9.8400    0.8474   -1.4392 H   0  0  0  0  0  0  0  0  0  0  0  0
   -7.6276    1.9665   -2.9274 H   0  0  0  0  0  0  0  0  0  0  0  0
   -8.3909    2.6076   -1.4661 H   0  0  0  0  0  0  0  0  0  0  0  0
   -0.2654   -1.9275    0.0841 H   0  0  0  0  0  0  0  0  0  0  0  0
    6.2346   -0.2294    1.6095 H   0  0  0  0  0  0  0  0  0  0  0  0
    8.8084    0.0388    2.0758 H   0  0  0  0  0  0  0  0  0  0  0  0
    7.4787    1.1777    2.3982 H   0  0  0  0  0  0  0  0  0  0  0  0
    9.1104    1.8604    2.0823 H   0  0  0  0  0  0  0  0  0  0  0  0
  1  2  1  0
  2  3  1  0
  3  4  2  0
  4  5  1  0
  5  6  2  0
  6  7  1  0
  7  8  2  0
  7  9  1  0
  9 10  1  0
 10 11  1  0
 11 12  2  0
 12 13  1  0
 13 14  2  0
 14 15  1  0
 15 16  1  0
 16 17  2  0
 16 18  1  0
 18 19  1  0
 19 20  2  0
 20 21  1  0
 21 22  2  0
 22 23  1  0
 23 24  2  0
 23 25  1  0
 25 26  1  0
 26 27  1  0
 27 28  1  0
 15 29  2  0
  6 30  1  0
 30 31  2  0
 31 32  1  0
 32 33  1  0
 31  3  1  0
 29 11  1  0
 24 19  1  0
 28 22  1  0
  1 34  1  0
  1 35  1  0
  1 36  1  0
  4 37  1  0
  5 38  1  0
  9 39  1  0
 10 40  1  0
 10 41  1  0
 12 42  1  0
 13 43  1  0
 14 44  1  0
 18 45  1  0
 20 46  1  0
 21 47  1  0
 24 48  1  0
 25 49  1  0
 25 50  1  0
 26 51  1  0
 27 52  1  0
 27 53  1  0
 28 54  1  0
 28 55  1  0
 29 56  1  0
 30 57  1  0
 33 58  1  0
 33 59  1  0
 33 60  1  0
M  END
$$$$
