
     RDKit          3D

 45 47  0  0  0  0  0  0  0  0999 V2000
    4.6525   -1.4891    1.0357 C   0  0  0  0  0  0  0  0  0  0  0  0
    3.2620   -1.3215    0.7313 N   0  0  0  0  0  0  0  0  0  0  0  0
    2.3876   -2.1320    1.5017 C   0  0  0  0  0  0  0  0  0  0  0  0
    3.0061   -1.2704   -0.6767 C   0  0  0  0  0  0  0  0  0  0  0  0
    1.5755   -1.0972   -1.0512 C   0  0  0  0  0  0  0  0  0  0  0  0
    1.0187    0.1867   -0.4852 C   0  0  0  0  0  0  0  0  0  0  0  0
   -0.4250    0.3973   -0.8416 C   0  0  0  0  0  0  0  0  0  0  0  0
   -1.2955   -0.6961   -0.3338 C   0  0  0  0  0  0  0  0  0  0  0  0
   -1.4426   -1.0018    1.0000 C   0  0  0  0  0  0  0  0  0  0  0  0
   -2.2490   -2.0223    1.4728 C   0  0  0  0  0  0  0  0  0  0  0  0
   -2.9569   -2.7914    0.5637 C   0  0  0  0  0  0  0  0  0  0  0  0
   -3.7508   -3.7961    1.0302 F   0  0  0  0  0  0  0  0  0  0  0  0
   -2.8196   -2.4974   -0.7750 C   0  0  0  0  0  0  0  0  0  0  0  0
   -2.0129   -1.4776   -1.2351 C   0  0  0  0  0  0  0  0  0  0  0  0
   -0.6185    0.5825   -2.2177 O   0  0  0  0  0  0  0  0  0  0  0  0
   -1.6876    1.4405   -2.3485 C   0  0  0  0  0  0  0  0  0  0  0  0
   -1.6354    2.3136   -1.1613 C   0  0  0  0  0  0  0  0  0  0  0  0
   -2.1749    3.5560   -0.8315 C   0  0  0  0  0  0  0  0  0  0  0  0
   -1.9395    4.1396    0.3883 C   0  0  0  0  0  0  0  0  0  0  0  0
   -2.4846    5.4238    0.7619 C   0  0  0  0  0  0  0  0  0  0  0  0
   -2.9303    6.4420    1.0719 N   0  0  0  0  0  0  0  0  0  0  0  0
   -1.1536    3.4925    1.3156 C   0  0  0  0  0  0  0  0  0  0  0  0
   -0.6245    2.2732    0.9910 C   0  0  0  0  0  0  0  0  0  0  0  0
   -0.8562    1.6812   -0.2297 C   0  0  0  0  0  0  0  0  0  0  0  0
    5.2164   -1.4652    0.0754 H   0  0  0  0  0  0  0  0  0  0  0  0
    5.0796   -0.7088    1.6759 H   0  0  0  0  0  0  0  0  0  0  0  0
    4.8039   -2.5076    1.4494 H   0  0  0  0  0  0  0  0  0  0  0  0
    2.8946   -3.0458    1.9172 H   0  0  0  0  0  0  0  0  0  0  0  0
    2.1180   -1.5404    2.4268 H   0  0  0  0  0  0  0  0  0  0  0  0
    1.4402   -2.4182    1.0512 H   0  0  0  0  0  0  0  0  0  0  0  0
    3.5687   -0.4152   -1.1330 H   0  0  0  0  0  0  0  0  0  0  0  0
    3.4547   -2.1806   -1.1265 H   0  0  0  0  0  0  0  0  0  0  0  0
    0.9141   -1.9499   -0.8519 H   0  0  0  0  0  0  0  0  0  0  0  0
    1.5620   -0.9872   -2.1778 H   0  0  0  0  0  0  0  0  0  0  0  0
    1.1253    0.2691    0.5949 H   0  0  0  0  0  0  0  0  0  0  0  0
    1.5952    1.0140   -0.9529 H   0  0  0  0  0  0  0  0  0  0  0  0
   -0.9153   -0.4398    1.7555 H   0  0  0  0  0  0  0  0  0  0  0  0
   -2.3295   -2.2215    2.5334 H   0  0  0  0  0  0  0  0  0  0  0  0
   -3.3954   -3.1296   -1.4597 H   0  0  0  0  0  0  0  0  0  0  0  0
   -1.9797   -1.3403   -2.3062 H   0  0  0  0  0  0  0  0  0  0  0  0
   -1.5820    2.0656   -3.2653 H   0  0  0  0  0  0  0  0  0  0  0  0
   -2.6840    0.9334   -2.3244 H   0  0  0  0  0  0  0  0  0  0  0  0
   -2.7822    4.0511   -1.5539 H   0  0  0  0  0  0  0  0  0  0  0  0
   -0.9534    3.9377    2.2905 H   0  0  0  0  0  0  0  0  0  0  0  0
    0.0040    1.7434    1.7044 H   0  0  0  0  0  0  0  0  0  0  0  0
  1  2  1  0
  2  3  1  0
  2  4  1  0
  4  5  1  0
  5  6  1  0
  6  7  1  0
  7  8  1  0
  8  9  2  0
  9 10  1  0
 10 11  2  0
 11 12  1  0
 11 13  1  0
 13 14  2  0
  7 15  1  0
 15 16  1  0
 16 17  1  0
 17 18  2  0
 18 19  1  0
 19 20  1  0
 20 21  3  0
 19 22  2  0
 22 23  1  0
 23 24  2  0
 24  7  1  0
 14  8  1  0
 24 17  1  0
  1 25  1  0
  1 26  1  0
  1 27  1  0
  3 28  1  0
  3 29  1  0
  3 30  1  0
  4 31  1  0
  4 32  1  0
  5 33  1  0
  5 34  1  0
  6 35  1  0
  6 36  1  0
  9 37  1  0
 10 38  1  0
 13 39  1  0
 14 40  1  0
 16 41  1  0
 16 42  1  0
 18 43  1  0
 22 44  1  0
 23 45  1  0
M  END
$$$$
