
     RDKit          3D

 37 39  0  0  0  0  0  0  0  0999 V2000
   -5.8909    0.1339    0.0818 C   0  0  0  0  0  0  0  0  0  0  0  0
   -5.2126   -0.1076   -1.1748 N   0  0  0  0  0  0  0  0  0  0  0  0
   -5.5808    0.4034   -2.3717 C   0  0  0  0  0  0  0  0  0  0  0  0
   -4.6863   -0.0690   -3.2673 N   0  0  0  0  0  0  0  0  0  0  0  0
   -3.8052   -0.8369   -2.6530 N   0  0  0  0  0  0  0  0  0  0  0  0
   -4.1056   -0.8826   -1.3416 C   0  0  0  0  0  0  0  0  0  0  0  0
   -3.2800   -1.7538   -0.0167 S   0  0  0  0  0  0  0  0  0  0  0  0
   -2.0134   -0.7610    0.7559 C   0  0  0  0  0  0  0  0  0  0  0  0
   -2.3148    0.0458    1.8310 C   0  0  0  0  0  0  0  0  0  0  0  0
   -1.3135    0.7895    2.3922 C   0  0  0  0  0  0  0  0  0  0  0  0
   -0.0276    0.7031    1.8555 C   0  0  0  0  0  0  0  0  0  0  0  0
    0.9482    1.5141    2.5065 N   0  0  0  0  0  0  0  0  0  0  0  0
    0.3075   -0.1030    0.7699 C   0  0  0  0  0  0  0  0  0  0  0  0
   -0.7364   -0.8325    0.2402 C   0  0  0  0  0  0  0  0  0  0  0  0
    1.6879   -0.1065    0.3016 C   0  0  0  0  0  0  0  0  0  0  0  0
    2.4827    0.6248    0.9177 O   0  0  0  0  0  0  0  0  0  0  0  0
    2.0244   -0.9261   -0.8013 N   0  0  0  0  0  0  0  0  0  0  0  0
    3.4502   -0.8025   -1.1312 C   0  0  0  0  0  0  0  0  0  0  0  0
    4.3612   -0.1711   -0.6744 N   0  0  0  0  0  0  0  0  0  0  0  0
    5.5946   -0.2099   -1.1358 C   0  0  0  0  0  0  0  0  0  0  0  0
    6.5879    0.6554   -0.4239 C   0  0  0  0  0  0  0  0  0  0  0  0
    5.8322   -1.0892   -2.2782 C   0  0  0  0  0  0  0  0  0  0  0  0
    4.0981   -1.7842   -2.5352 S   0  0  0  0  0  0  0  0  0  0  0  0
   -6.9502    0.4508   -0.1489 H   0  0  0  0  0  0  0  0  0  0  0  0
   -5.9807   -0.7937    0.6792 H   0  0  0  0  0  0  0  0  0  0  0  0
   -5.3973    0.9614    0.6171 H   0  0  0  0  0  0  0  0  0  0  0  0
   -6.4367    1.0611   -2.5320 H   0  0  0  0  0  0  0  0  0  0  0  0
   -3.3192    0.0537    2.1783 H   0  0  0  0  0  0  0  0  0  0  0  0
   -1.5340    1.4220    3.2298 H   0  0  0  0  0  0  0  0  0  0  0  0
    1.2388    2.4887    2.2449 H   0  0  0  0  0  0  0  0  0  0  0  0
    1.5461    1.3019    3.3458 H   0  0  0  0  0  0  0  0  0  0  0  0
   -0.5042   -1.4655   -0.6019 H   0  0  0  0  0  0  0  0  0  0  0  0
    1.3965   -1.5365   -1.3273 H   0  0  0  0  0  0  0  0  0  0  0  0
    7.6067    0.5024   -0.8015 H   0  0  0  0  0  0  0  0  0  0  0  0
    6.6283    0.4598    0.6652 H   0  0  0  0  0  0  0  0  0  0  0  0
    6.3473    1.7272   -0.5526 H   0  0  0  0  0  0  0  0  0  0  0  0
    6.9509   -1.0672   -2.6276 H   0  0  0  0  0  0  0  0  0  0  0  0
  1  2  1  0
  2  3  1  0
  3  4  2  0
  4  5  1  0
  5  6  2  0
  6  7  1  0
  7  8  1  0
  8  9  2  0
  9 10  1  0
 10 11  2  0
 11 12  1  0
 11 13  1  0
 13 14  2  0
 13 15  1  0
 15 16  2  0
 15 17  1  0
 17 18  1  0
 18 19  2  0
 19 20  1  0
 20 21  1  0
 20 22  2  0
 22 23  1  0
  6  2  1  0
 14  8  1  0
 23 18  1  0
  1 24  1  0
  1 25  1  0
  1 26  1  0
  3 27  1  0
  9 28  1  0
 10 29  1  0
 12 30  1  0
 12 31  1  0
 14 32  1  0
 17 33  1  0
 21 34  1  0
 21 35  1  0
 21 36  1  0
 22 37  1  0
M  END
$$$$
