
     RDKit          3D

 58 62  0  0  0  0  0  0  0  0999 V2000
   -2.2562    3.6055    1.5579 C   0  0  0  0  0  0  0  0  0  0  0  0
   -1.9237    2.8685    0.3285 C   0  0  0  0  0  0  0  0  0  0  0  0
   -1.2450    3.5220   -0.6887 C   0  0  0  0  0  0  0  0  0  0  0  0
   -0.9361    2.8440   -1.8260 C   0  0  0  0  0  0  0  0  0  0  0  0
   -1.3068    1.5317   -1.9311 C   0  0  0  0  0  0  0  0  0  0  0  0
   -1.9903    0.8349   -0.9333 C   0  0  0  0  0  0  0  0  0  0  0  0
   -2.3652   -0.5573   -1.1041 C   0  0  0  0  0  0  0  0  0  0  0  0
   -3.4632   -0.8122   -1.6331 O   0  0  0  0  0  0  0  0  0  0  0  0
   -1.5386   -1.6520   -0.6949 N   0  0  0  0  0  0  0  0  0  0  0  0
   -1.9688   -3.0040   -0.8882 C   0  0  0  0  0  0  0  0  0  0  0  0
   -1.0005   -4.0600   -0.4900 C   0  0  1  0  0  0  0  0  0  0  0  0
   -0.4960   -4.7456   -1.7673 C   0  0  0  0  0  0  0  0  0  0  0  0
    0.0187   -3.6918    0.3205 O   0  0  0  0  0  0  0  0  0  0  0  0
   -0.0386   -2.4727    0.9329 C   0  0  0  0  0  0  0  0  0  0  0  0
   -0.2503   -1.3753   -0.0643 C   0  0  1  0  0  0  0  0  0  0  0  0
    0.8515   -1.2672   -1.0415 C   0  0  0  0  0  0  0  0  0  0  0  0
    2.1469   -0.9493   -0.4185 C   0  0  0  0  0  0  0  0  0  0  0  0
    2.4673    0.4160   -0.2676 C   0  0  0  0  0  0  0  0  0  0  0  0
    3.6128    0.7976    0.3393 C   0  0  0  0  0  0  0  0  0  0  0  0
    3.9865    2.1803    0.5195 N   0  0  0  0  0  0  0  0  0  0  0  0
    3.4076    3.2479   -0.0090 N   0  0  0  0  0  0  0  0  0  0  0  0
    4.0395    4.3698    0.3894 C   0  0  0  0  0  0  0  0  0  0  0  0
    5.0643    3.9600    1.2095 C   0  0  0  0  0  0  0  0  0  0  0  0
    4.9938    2.6209    1.2599 N   0  0  0  0  0  0  0  0  0  0  0  0
    4.4693   -0.1708    0.8113 C   0  0  0  0  0  0  0  0  0  0  0  0
    4.1846   -1.4795    0.6775 C   0  0  0  0  0  0  0  0  0  0  0  0
    3.0198   -1.8841    0.0599 C   0  0  0  0  0  0  0  0  0  0  0  0
    2.8012   -3.2383   -0.0993 F   0  0  0  0  0  0  0  0  0  0  0  0
   -2.2999    1.5312    0.2175 C   0  0  0  0  0  0  0  0  0  0  0  0
   -2.9951    0.9072    1.2832 N   0  0  0  0  0  0  0  0  0  0  0  0
   -4.2820    1.1684    1.5689 N   0  0  0  0  0  0  0  0  0  0  0  0
   -4.6824    0.4460    2.6226 C   0  0  0  0  0  0  0  0  0  0  0  0
   -3.5866   -0.2941    3.0007 C   0  0  0  0  0  0  0  0  0  0  0  0
   -2.6015    0.0141    2.1723 N   0  0  0  0  0  0  0  0  0  0  0  0
   -2.0993    2.9393    2.4423 H   0  0  0  0  0  0  0  0  0  0  0  0
   -3.3224    3.8981    1.5177 H   0  0  0  0  0  0  0  0  0  0  0  0
   -1.5697    4.4748    1.6598 H   0  0  0  0  0  0  0  0  0  0  0  0
   -0.9796    4.5627   -0.5459 H   0  0  0  0  0  0  0  0  0  0  0  0
   -0.4072    3.3095   -2.6480 H   0  0  0  0  0  0  0  0  0  0  0  0
   -1.0801    0.9640   -2.8166 H   0  0  0  0  0  0  0  0  0  0  0  0
   -2.9714   -3.1799   -0.3705 H   0  0  0  0  0  0  0  0  0  0  0  0
   -2.2254   -3.1465   -1.9758 H   0  0  0  0  0  0  0  0  0  0  0  0
   -1.6042   -4.8729    0.0184 H   0  0  0  0  0  0  0  0  0  0  0  0
   -1.2756   -5.4588   -2.0825 H   0  0  0  0  0  0  0  0  0  0  0  0
    0.4480   -5.2890   -1.5690 H   0  0  0  0  0  0  0  0  0  0  0  0
   -0.3785   -3.9754   -2.5815 H   0  0  0  0  0  0  0  0  0  0  0  0
    0.9106   -2.2660    1.4748 H   0  0  0  0  0  0  0  0  0  0  0  0
   -0.8625   -2.4786    1.7052 H   0  0  0  0  0  0  0  0  0  0  0  0
   -0.3887   -0.3889    0.4933 H   0  0  0  0  0  0  0  0  0  0  0  0
    0.6567   -0.5486   -1.8704 H   0  0  0  0  0  0  0  0  0  0  0  0
    0.9448   -2.2562   -1.5596 H   0  0  0  0  0  0  0  0  0  0  0  0
    1.7664    1.1641   -0.6541 H   0  0  0  0  0  0  0  0  0  0  0  0
    3.8041    5.4105    0.1269 H   0  0  0  0  0  0  0  0  0  0  0  0
    5.7554    4.6322    1.6878 H   0  0  0  0  0  0  0  0  0  0  0  0
    5.3914    0.1221    1.3004 H   0  0  0  0  0  0  0  0  0  0  0  0
    4.8470   -2.2827    1.0449 H   0  0  0  0  0  0  0  0  0  0  0  0
   -5.6738    0.4607    3.0679 H   0  0  0  0  0  0  0  0  0  0  0  0
   -3.5230   -1.0060    3.8253 H   0  0  0  0  0  0  0  0  0  0  0  0
  1  2  1  0
  2  3  2  0
  3  4  1  0
  4  5  2  0
  5  6  1  0
  6  7  1  0
  7  8  2  0
  7  9  1  0
  9 10  1  0
 10 11  1  0
 11 12  1  0
 11 13  1  0
 13 14  1  0
 14 15  1  0
 15 16  1  0
 16 17  1  0
 17 18  2  0
 18 19  1  0
 19 20  1  0
 20 21  1  0
 21 22  2  0
 22 23  1  0
 23 24  2  0
 19 25  2  0
 25 26  1  0
 26 27  2  0
 27 28  1  0
  6 29  2  0
 29 30  1  0
 30 31  1  0
 31 32  2  0
 32 33  1  0
 33 34  2  0
 29  2  1  0
 34 30  1  0
 15  9  1  0
 27 17  1  0
 24 20  1  0
  1 35  1  0
  1 36  1  0
  1 37  1  0
  3 38  1  0
  4 39  1  0
  5 40  1  0
 10 41  1  0
 10 42  1  0
 11 43  1  1
 12 44  1  0
 12 45  1  0
 12 46  1  0
 14 47  1  0
 14 48  1  0
 15 49  1  1
 16 50  1  0
 16 51  1  0
 18 52  1  0
 22 53  1  0
 23 54  1  0
 25 55  1  0
 26 56  1  0
 32 57  1  0
 33 58  1  0
M  END
$$$$
