
     RDKit          3D

 23 23  0  0  0  0  0  0  0  0999 V2000
   -2.1618    1.2202    0.9420 C   0  0  0  0  0  0  0  0  0  0  0  0
   -1.7738    0.3467   -0.2577 C   0  0  0  0  0  0  0  0  0  0  0  0
   -2.5663   -0.9180   -0.2829 C   0  0  0  0  0  0  0  0  0  0  0  0
   -0.3040    0.1460   -0.2684 C   0  0  0  0  0  0  0  0  0  0  0  0
    0.5039    0.6272   -1.2793 C   0  0  0  0  0  0  0  0  0  0  0  0
    1.8716    0.4419   -1.2916 C   0  0  0  0  0  0  0  0  0  0  0  0
    2.4786   -0.2591   -0.2459 C   0  0  0  0  0  0  0  0  0  0  0  0
    3.9019   -0.4588   -0.2472 N   0  0  0  0  0  0  0  0  0  0  0  0
    1.6816   -0.7403    0.7623 C   0  0  0  0  0  0  0  0  0  0  0  0
    0.3167   -0.5447    0.7566 C   0  0  0  0  0  0  0  0  0  0  0  0
   -1.2257    1.6352    1.3902 H   0  0  0  0  0  0  0  0  0  0  0  0
   -2.6583    0.5950    1.7144 H   0  0  0  0  0  0  0  0  0  0  0  0
   -2.7695    2.0707    0.6179 H   0  0  0  0  0  0  0  0  0  0  0  0
   -2.0194    0.9245   -1.1806 H   0  0  0  0  0  0  0  0  0  0  0  0
   -1.9514   -1.8251   -0.3798 H   0  0  0  0  0  0  0  0  0  0  0  0
   -3.2912   -0.9786   -1.1409 H   0  0  0  0  0  0  0  0  0  0  0  0
   -3.2112   -1.0045    0.6181 H   0  0  0  0  0  0  0  0  0  0  0  0
    0.0125    1.1726   -2.0884 H   0  0  0  0  0  0  0  0  0  0  0  0
    2.4748    0.8409   -2.1138 H   0  0  0  0  0  0  0  0  0  0  0  0
    4.4713    0.0701   -0.9401 H   0  0  0  0  0  0  0  0  0  0  0  0
    4.2843   -1.1294    0.4542 H   0  0  0  0  0  0  0  0  0  0  0  0
    2.1845   -1.2805    1.5599 H   0  0  0  0  0  0  0  0  0  0  0  0
   -0.2492   -0.9519    1.5838 H   0  0  0  0  0  0  0  0  0  0  0  0
  1  2  1  0
  2  3  1  0
  2  4  1  0
  4  5  2  0
  5  6  1  0
  6  7  2  0
  7  8  1  0
  7  9  1  0
  9 10  2  0
 10  4  1  0
  1 11  1  0
  1 12  1  0
  1 13  1  0
  2 14  1  0
  3 15  1  0
  3 16  1  0
  3 17  1  0
  5 18  1  0
  6 19  1  0
  8 20  1  0
  8 21  1  0
  9 22  1  0
 10 23  1  0
M  END
$$$$
