
     RDKit          3D

 68 70  0  0  0  0  0  0  0  0999 V2000
   -1.2993    0.2927    0.6099 C   0  0  1  0  0  0  0  0  0  0  0  0
   -2.0597    0.7453   -0.6604 C   0  0  0  0  0  0  0  0  0  0  0  0
   -2.8705   -0.3721   -1.2476 C   0  0  0  0  0  0  0  0  0  0  0  0
   -3.8177   -0.8517   -0.2368 N   0  0  0  0  0  0  0  0  0  0  0  0
   -4.6730   -1.9466   -0.5648 C   0  0  0  0  0  0  0  0  0  0  0  0
   -4.6677   -2.5753   -1.8053 C   0  0  0  0  0  0  0  0  0  0  0  0
   -5.5084   -3.6590   -2.0759 C   0  0  0  0  0  0  0  0  0  0  0  0
   -6.3509   -4.1241   -1.1411 N   0  0  0  0  0  4  0  0  0  0  0  0
   -6.3986   -3.5626    0.0625 C   0  0  0  0  0  0  0  0  0  0  0  0
   -5.5690   -2.4747    0.3696 C   0  0  0  0  0  0  0  0  0  0  0  0
   -0.3806   -0.7510    0.3234 N   0  0  0  0  0  0  0  0  0  0  0  0
    0.3448   -1.9132    0.0121 C   0  0  0  0  0  0  0  0  0  0  0  0
   -0.6177   -2.6968   -0.2174 O   0  0  0  0  0  0  0  0  0  0  0  0
    1.7861   -2.2607   -0.0703 C   0  0  0  0  0  0  0  0  0  0  0  0
    2.5005   -1.1391    0.5178 N   0  0  0  0  0  0  0  0  0  0  0  0
    4.1929   -1.3012    0.5456 S   0  0  0  0  0  0  0  0  0  0  0  0
    4.6366   -2.5200    1.3384 O   0  0  0  0  0  0  0  0  0  0  0  0
    4.7841   -0.0785    1.2069 O   0  0  0  0  0  0  0  0  0  0  0  0
    4.8803   -1.3823   -1.1120 C   0  0  0  0  0  0  0  0  0  0  0  0
    6.3329   -1.7690   -0.9034 C   0  0  0  0  0  0  0  0  0  0  0  0
    7.2624   -1.2802   -1.9769 C   0  0  0  0  0  0  0  0  0  0  0  0
    7.1339    0.2127   -2.0620 C   0  0  0  0  0  0  0  0  0  0  0  0
    5.7409    0.5094   -2.5742 C   0  0  0  0  0  0  0  0  0  0  0  0
    4.6720   -0.0307   -1.6968 C   0  0  0  0  0  0  0  0  0  0  0  0
   -0.7232    1.5016    1.1578 C   0  0  0  0  0  0  0  0  0  0  0  0
    0.5144    1.5368    1.1016 O   0  0  0  0  0  0  0  0  0  0  0  0
   -1.7027    2.3963    1.6565 N   0  0  0  0  0  0  0  0  0  0  0  0
   -3.1046    2.5828    1.9308 C   0  0  0  0  0  0  0  0  0  0  0  0
   -3.3430    3.3110    3.2295 C   0  0  0  0  0  0  0  0  0  0  0  0
   -2.8842    4.7382    3.1865 C   0  0  0  0  0  0  0  0  0  0  0  0
   -1.9118    4.8259    2.0293 C   0  0  0  0  0  0  0  0  0  0  0  0
   -1.0080    3.6304    2.0152 C   0  0  0  0  0  0  0  0  0  0  0  0
   -2.1114   -0.0980    1.2731 H   0  0  0  0  0  0  0  0  0  0  0  0
   -1.3657    1.1968   -1.3989 H   0  0  0  0  0  0  0  0  0  0  0  0
   -2.7862    1.5268   -0.3889 H   0  0  0  0  0  0  0  0  0  0  0  0
   -2.3140   -1.2403   -1.6256 H   0  0  0  0  0  0  0  0  0  0  0  0
   -3.4782    0.0859   -2.0909 H   0  0  0  0  0  0  0  0  0  0  0  0
   -3.9550   -0.4706    0.7193 H   0  0  0  0  0  0  0  0  0  0  0  0
   -3.9910   -2.1936   -2.5533 H   0  0  0  0  0  0  0  0  0  0  0  0
   -5.4943   -4.1404   -3.0562 H   0  0  0  0  0  0  0  0  0  0  0  0
   -7.0001   -4.9420   -1.3163 H   0  0  0  0  0  0  0  0  0  0  0  0
   -7.0901   -3.9357    0.8212 H   0  0  0  0  0  0  0  0  0  0  0  0
   -5.6047   -2.0060    1.3501 H   0  0  0  0  0  0  0  0  0  0  0  0
    0.5197   -0.1530    0.4049 H   0  0  0  0  0  0  0  0  0  0  0  0
    1.9367   -3.1965    0.4716 H   0  0  0  0  0  0  0  0  0  0  0  0
    2.1197   -2.4076   -1.1180 H   0  0  0  0  0  0  0  0  0  0  0  0
    2.0934   -0.8828    1.4526 H   0  0  0  0  0  0  0  0  0  0  0  0
    4.3764   -2.2000   -1.6317 H   0  0  0  0  0  0  0  0  0  0  0  0
    6.3828   -2.8743   -0.9089 H   0  0  0  0  0  0  0  0  0  0  0  0
    6.6696   -1.4682    0.1060 H   0  0  0  0  0  0  0  0  0  0  0  0
    7.1328   -1.7820   -2.9209 H   0  0  0  0  0  0  0  0  0  0  0  0
    8.3074   -1.4733   -1.5981 H   0  0  0  0  0  0  0  0  0  0  0  0
    7.8519    0.5776   -2.8074 H   0  0  0  0  0  0  0  0  0  0  0  0
    7.2663    0.6582   -1.0681 H   0  0  0  0  0  0  0  0  0  0  0  0
    5.6564    1.6510   -2.5171 H   0  0  0  0  0  0  0  0  0  0  0  0
    5.6329    0.2089   -3.6120 H   0  0  0  0  0  0  0  0  0  0  0  0
    3.7379   -0.0682   -2.3103 H   0  0  0  0  0  0  0  0  0  0  0  0
    4.4244    0.7258   -0.9038 H   0  0  0  0  0  0  0  0  0  0  0  0
   -3.5643    3.1208    1.1082 H   0  0  0  0  0  0  0  0  0  0  0  0
   -3.5431    1.5537    1.9880 H   0  0  0  0  0  0  0  0  0  0  0  0
   -4.4064    3.2546    3.5120 H   0  0  0  0  0  0  0  0  0  0  0  0
   -2.7675    2.7743    4.0047 H   0  0  0  0  0  0  0  0  0  0  0  0
   -3.7747    5.3661    2.8957 H   0  0  0  0  0  0  0  0  0  0  0  0
   -2.4254    5.1173    4.0954 H   0  0  0  0  0  0  0  0  0  0  0  0
   -1.2437    5.7019    2.2304 H   0  0  0  0  0  0  0  0  0  0  0  0
   -2.4185    5.0360    1.0754 H   0  0  0  0  0  0  0  0  0  0  0  0
   -0.2149    3.8671    1.2427 H   0  0  0  0  0  0  0  0  0  0  0  0
   -0.4502    3.5155    2.9657 H   0  0  0  0  0  0  0  0  0  0  0  0
  1  2  1  0
  2  3  1  0
  3  4  1  0
  4  5  1  0
  5  6  2  0
  6  7  1  0
  7  8  2  0
  8  9  1  0
  9 10  2  0
  1 11  1  0
 11 12  1  0
 12 13  2  0
 12 14  1  0
 14 15  1  0
 15 16  1  0
 16 17  2  0
 16 18  2  0
 16 19  1  0
 19 20  1  0
 20 21  1  0
 21 22  1  0
 22 23  1  0
 23 24  1  0
  1 25  1  0
 25 26  2  0
 25 27  1  0
 27 28  1  0
 28 29  1  0
 29 30  1  0
 30 31  1  0
 31 32  1  0
 10  5  1  0
 24 19  1  0
 32 27  1  0
  1 33  1  1
  2 34  1  0
  2 35  1  0
  3 36  1  0
  3 37  1  0
  4 38  1  0
  6 39  1  0
  7 40  1  0
  8 41  1  0
  9 42  1  0
 10 43  1  0
 11 44  1  0
 14 45  1  0
 14 46  1  0
 15 47  1  0
 19 48  1  0
 20 49  1  0
 20 50  1  0
 21 51  1  0
 21 52  1  0
 22 53  1  0
 22 54  1  0
 23 55  1  0
 23 56  1  0
 24 57  1  0
 24 58  1  0
 28 59  1  0
 28 60  1  0
 29 61  1  0
 29 62  1  0
 30 63  1  0
 30 64  1  0
 31 65  1  0
 31 66  1  0
 32 67  1  0
 32 68  1  0
M  CHG  1   8   1
M  END
$$$$
