
     RDKit          3D

 67 71  0  0  0  0  0  0  0  0999 V2000
   -3.3270   -1.2241   -0.2490 O   0  0  0  0  0  0  0  0  0  0  0  0
   -3.3908    0.0314   -0.3074 C   0  0  0  0  0  0  0  0  0  0  0  0
   -2.2121    0.7363   -0.6181 N   0  0  0  0  0  0  0  0  0  0  0  0
   -0.9647    0.0496   -0.8633 C   0  0  0  0  0  0  0  0  0  0  0  0
   -0.4697    0.3715   -2.2550 C   0  0  0  0  0  0  0  0  0  0  0  0
    0.7213   -0.4894   -2.5011 C   0  0  0  0  0  0  0  0  0  0  0  0
    1.7508   -0.2832   -1.5266 N   0  0  0  0  0  0  0  0  0  0  0  0
    2.4331   -1.4916   -1.1997 C   0  0  0  0  0  0  0  0  0  0  0  0
    3.5045   -1.3046   -0.1991 C   0  0  0  0  0  0  0  0  0  0  0  0
    3.4260   -1.4333    1.1706 C   0  0  0  0  0  0  0  0  0  0  0  0
    4.6863   -1.1569    1.6545 C   0  0  0  0  0  0  0  0  0  0  0  0
    5.5394   -0.8644    0.6577 N   0  0  0  0  0  0  0  0  0  0  0  0
    6.9359   -0.5249    0.7823 C   0  0  0  0  0  0  0  0  0  0  0  0
    7.3287    0.7994    0.7887 C   0  0  0  0  0  0  0  0  0  0  0  0
    8.6458    1.1843    0.9043 C   0  0  0  0  0  0  0  0  0  0  0  0
    9.6311    0.2249    1.0198 C   0  0  0  0  0  0  0  0  0  0  0  0
   11.0569    0.6509    1.1444 C   0  0  0  0  0  0  0  0  0  0  0  0
   11.6604    0.7031   -0.1032 F   0  0  0  0  0  0  0  0  0  0  0  0
   11.1134    1.9254    1.7217 F   0  0  0  0  0  0  0  0  0  0  0  0
   11.7110   -0.1898    2.0062 F   0  0  0  0  0  0  0  0  0  0  0  0
    9.2420   -1.0880    1.0135 C   0  0  0  0  0  0  0  0  0  0  0  0
    7.9041   -1.4765    0.8960 C   0  0  0  0  0  0  0  0  0  0  0  0
    4.8226   -0.9532   -0.4757 C   0  0  0  0  0  0  0  0  0  0  0  0
    1.4616    0.5748   -0.4670 C   0  0  0  0  0  0  0  0  0  0  0  0
    0.0869    0.5342    0.1054 C   0  0  0  0  0  0  0  0  0  0  0  0
   -4.6397    0.6565   -0.0578 N   0  0  0  0  0  0  0  0  0  0  0  0
   -5.8171   -0.1296    0.2570 C   0  0  0  0  0  0  0  0  0  0  0  0
   -6.8878    0.0628   -0.7493 C   0  0  0  0  0  0  0  0  0  0  0  0
   -7.1633    1.3480   -1.1696 C   0  0  0  0  0  0  0  0  0  0  0  0
   -8.1680    1.5742   -2.1179 C   0  0  0  0  0  0  0  0  0  0  0  0
   -8.8605    0.4851   -2.6083 C   0  0  0  0  0  0  0  0  0  0  0  0
   -8.5607   -0.7778   -2.1686 C   0  0  0  0  0  0  0  0  0  0  0  0
   -7.5684   -1.0307   -1.2282 C   0  0  0  0  0  0  0  0  0  0  0  0
   -6.3122    0.1773    1.6318 C   0  0  0  0  0  0  0  0  0  0  0  0
   -6.4542    1.3895    2.2035 N   0  0  0  0  0  0  0  0  0  0  0  0
   -6.9302    1.2365    3.4481 C   0  0  0  0  0  0  0  0  0  0  0  0
   -7.0845   -0.1109    3.6445 C   0  0  0  0  0  0  0  0  0  0  0  0
   -6.6989   -0.7259    2.5188 N   0  0  0  0  0  0  0  0  0  0  0  0
   -2.2453    1.7735   -0.6709 H   0  0  0  0  0  0  0  0  0  0  0  0
   -1.1040   -1.0318   -0.7642 H   0  0  0  0  0  0  0  0  0  0  0  0
   -1.2698    0.1717   -2.9768 H   0  0  0  0  0  0  0  0  0  0  0  0
   -0.2365    1.4517   -2.3119 H   0  0  0  0  0  0  0  0  0  0  0  0
    0.3919   -1.5563   -2.4117 H   0  0  0  0  0  0  0  0  0  0  0  0
    1.1084   -0.3293   -3.5283 H   0  0  0  0  0  0  0  0  0  0  0  0
    2.8103   -1.9853   -2.1232 H   0  0  0  0  0  0  0  0  0  0  0  0
    1.6466   -2.1867   -0.7751 H   0  0  0  0  0  0  0  0  0  0  0  0
    2.5329   -1.7029    1.7557 H   0  0  0  0  0  0  0  0  0  0  0  0
    4.9499   -1.1734    2.6861 H   0  0  0  0  0  0  0  0  0  0  0  0
    6.5514    1.5447    0.6981 H   0  0  0  0  0  0  0  0  0  0  0  0
    8.8776    2.2441    0.9016 H   0  0  0  0  0  0  0  0  0  0  0  0
   10.0093   -1.8434    1.1037 H   0  0  0  0  0  0  0  0  0  0  0  0
    7.6562   -2.5174    0.8968 H   0  0  0  0  0  0  0  0  0  0  0  0
    5.2326   -0.7721   -1.4638 H   0  0  0  0  0  0  0  0  0  0  0  0
    2.1985    0.4614    0.3418 H   0  0  0  0  0  0  0  0  0  0  0  0
    1.6238    1.6361   -0.8318 H   0  0  0  0  0  0  0  0  0  0  0  0
    0.0217   -0.1262    0.9958 H   0  0  0  0  0  0  0  0  0  0  0  0
   -0.2339    1.5407    0.4475 H   0  0  0  0  0  0  0  0  0  0  0  0
   -4.7338    1.6894   -0.0960 H   0  0  0  0  0  0  0  0  0  0  0  0
   -5.5482   -1.2262    0.2550 H   0  0  0  0  0  0  0  0  0  0  0  0
   -6.6023    2.1791   -0.7654 H   0  0  0  0  0  0  0  0  0  0  0  0
   -8.3749    2.5673   -2.4374 H   0  0  0  0  0  0  0  0  0  0  0  0
   -9.6354    0.6568   -3.3395 H   0  0  0  0  0  0  0  0  0  0  0  0
   -9.1126   -1.6066   -2.5646 H   0  0  0  0  0  0  0  0  0  0  0  0
   -7.3269   -2.0239   -0.8775 H   0  0  0  0  0  0  0  0  0  0  0  0
   -7.1648    1.9889    4.1932 H   0  0  0  0  0  0  0  0  0  0  0  0
   -7.4525   -0.6143    4.5453 H   0  0  0  0  0  0  0  0  0  0  0  0
   -6.7223   -1.7766    2.4135 H   0  0  0  0  0  0  0  0  0  0  0  0
  1  2  2  0
  2  3  1  0
  3  4  1  0
  4  5  1  0
  5  6  1  0
  6  7  1  0
  7  8  1  0
  8  9  1  0
  9 10  1  0
 10 11  2  0
 11 12  1  0
 12 13  1  0
 13 14  2  0
 14 15  1  0
 15 16  2  0
 16 17  1  0
 17 18  1  0
 17 19  1  0
 17 20  1  0
 16 21  1  0
 21 22  2  0
 12 23  1  0
  7 24  1  0
 24 25  1  0
  2 26  1  0
 26 27  1  0
 27 28  1  0
 28 29  2  0
 29 30  1  0
 30 31  2  0
 31 32  1  0
 32 33  2  0
 27 34  1  0
 34 35  2  0
 35 36  1  0
 36 37  2  0
 37 38  1  0
 25  4  1  0
 33 28  1  0
 38 34  1  0
 23  9  2  0
 22 13  1  0
  3 39  1  0
  4 40  1  0
  5 41  1  0
  5 42  1  0
  6 43  1  0
  6 44  1  0
  8 45  1  0
  8 46  1  0
 10 47  1  0
 11 48  1  0
 14 49  1  0
 15 50  1  0
 21 51  1  0
 22 52  1  0
 23 53  1  0
 24 54  1  0
 24 55  1  0
 25 56  1  0
 25 57  1  0
 26 58  1  0
 27 59  1  0
 29 60  1  0
 30 61  1  0
 31 62  1  0
 32 63  1  0
 33 64  1  0
 36 65  1  0
 37 66  1  0
 38 67  1  0
M  END
$$$$
