
     RDKit          3D

 43 46  0  0  0  0  0  0  0  0999 V2000
   -2.0987    3.2712    1.6891 N   0  0  0  0  0  0  0  0  0  0  0  0
   -2.8271    2.1545    1.1841 C   0  0  0  0  0  0  0  0  0  0  0  0
   -2.2744    1.3650    0.3467 N   0  0  0  0  0  0  0  0  0  0  0  0
   -2.9162    0.1973   -0.2353 C   0  0  2  0  0  0  0  0  0  0  0  0
   -1.8294   -0.8198   -0.4324 C   0  0  0  0  0  0  0  0  0  0  0  0
   -0.5201   -0.5612   -0.0879 C   0  0  0  0  0  0  0  0  0  0  0  0
    0.5100   -1.4430   -0.2444 C   0  0  0  0  0  0  0  0  0  0  0  0
    1.8313   -1.0707    0.1472 N   0  0  0  0  0  0  0  0  0  0  0  0
    2.7481   -0.4429   -0.7218 C   0  0  0  0  0  0  0  0  0  0  0  0
    2.3836   -0.2000   -1.8970 O   0  0  0  0  0  0  0  0  0  0  0  0
    4.1016   -0.0586   -0.3298 C   0  0  0  0  0  0  0  0  0  0  0  0
    4.7035   -0.2174    0.8630 N   0  0  0  0  0  0  0  0  0  0  0  0
    5.9325    0.2658    0.8043 N   0  0  0  0  0  0  0  0  0  0  0  0
    6.9288    0.2939    1.8800 C   0  0  0  0  0  0  0  0  0  0  0  0
    7.8894   -0.6549    1.6784 F   0  0  0  0  0  0  0  0  0  0  0  0
    6.2967    0.1458    3.0962 F   0  0  0  0  0  0  0  0  0  0  0  0
    6.1800    0.7565   -0.4223 C   0  0  0  0  0  0  0  0  0  0  0  0
    5.0284    0.5554   -1.1444 C   0  0  0  0  0  0  0  0  0  0  0  0
    4.8230    1.0200   -2.8190 Cl  0  0  0  0  0  0  0  0  0  0  0  0
    0.2094   -2.6773   -0.7862 C   0  0  0  0  0  0  0  0  0  0  0  0
   -1.0817   -3.0098   -1.1564 C   0  0  0  0  0  0  0  0  0  0  0  0
   -2.0956   -2.0625   -0.9712 C   0  0  0  0  0  0  0  0  0  0  0  0
   -3.6972   -2.5206   -1.4458 Cl  0  0  0  0  0  0  0  0  0  0  0  0
   -3.4314    0.6872   -1.5825 C   0  0  0  0  0  0  0  0  0  0  0  0
   -4.3148    1.7230   -1.3925 F   0  0  0  0  0  0  0  0  0  0  0  0
   -2.3979    1.1789   -2.3579 F   0  0  0  0  0  0  0  0  0  0  0  0
   -3.9797   -0.3751    0.6354 C   0  0  2  0  0  0  0  0  0  0  0  0
   -5.4043   -0.0592    0.5477 C   0  0  0  0  0  0  0  0  0  0  0  0
   -4.5211    0.5283    1.6669 C   0  0  2  0  0  0  0  0  0  0  0  0
   -4.1277    1.8687    1.5562 O   0  0  0  0  0  0  0  0  0  0  0  0
   -2.5798    4.1909    1.7410 H   0  0  0  0  0  0  0  0  0  0  0  0
   -1.1292    3.1297    1.9826 H   0  0  0  0  0  0  0  0  0  0  0  0
   -0.2882    0.4144    0.3393 H   0  0  0  0  0  0  0  0  0  0  0  0
    2.1467   -1.2674    1.1225 H   0  0  0  0  0  0  0  0  0  0  0  0
    7.3870    1.2991    1.8659 H   0  0  0  0  0  0  0  0  0  0  0  0
    7.1181    1.2155   -0.7452 H   0  0  0  0  0  0  0  0  0  0  0  0
    1.0184   -3.3862   -0.9155 H   0  0  0  0  0  0  0  0  0  0  0  0
   -1.3219   -3.9864   -1.5856 H   0  0  0  0  0  0  0  0  0  0  0  0
   -3.9239   -0.0938   -2.1690 H   0  0  0  0  0  0  0  0  0  0  0  0
   -3.7512   -1.4074    1.0432 H   0  0  0  0  0  0  0  0  0  0  0  0
   -6.1446   -0.8272    0.9029 H   0  0  0  0  0  0  0  0  0  0  0  0
   -5.8671    0.6999   -0.0823 H   0  0  0  0  0  0  0  0  0  0  0  0
   -4.7132    0.1805    2.7022 H   0  0  0  0  0  0  0  0  0  0  0  0
  1  2  1  0
  2  3  2  0
  3  4  1  0
  4  5  1  0
  5  6  2  0
  6  7  1  0
  7  8  1  0
  8  9  1  0
  9 10  2  0
  9 11  1  0
 11 12  2  0
 12 13  1  0
 13 14  1  0
 14 15  1  0
 14 16  1  0
 13 17  1  0
 17 18  2  0
 18 19  1  0
  7 20  2  0
 20 21  1  0
 21 22  2  0
 22 23  1  0
  4 24  1  6
 24 25  1  0
 24 26  1  0
  4 27  1  0
 27 28  1  0
 28 29  1  0
 29 30  1  0
 30  2  1  0
 22  5  1  0
 29 27  1  0
 18 11  1  0
  1 31  1  0
  1 32  1  0
  6 33  1  0
  8 34  1  0
 14 35  1  0
 17 36  1  0
 20 37  1  0
 21 38  1  0
 24 39  1  0
 27 40  1  1
 28 41  1  0
 28 42  1  0
 29 43  1  1
M  END
$$$$
