
     RDKit          3D

 57 60  0  0  0  0  0  0  0  0999 V2000
    2.9461    2.8648    0.1543 C   0  0  0  0  0  0  0  0  0  0  0  0
    1.5172    3.2738    0.2391 C   0  0  0  0  0  0  0  0  0  0  0  0
    0.4239    2.4311    0.2282 C   0  0  0  0  0  0  0  0  0  0  0  0
    0.2742    1.0332    0.1429 C   0  0  0  0  0  0  0  0  0  0  0  0
    1.4784    0.3649    0.0465 O   0  0  0  0  0  0  0  0  0  0  0  0
    1.6230   -1.0065   -0.0872 C   0  0  2  0  0  0  0  0  0  0  0  0
    2.2328   -1.6573    1.1458 C   0  0  0  0  0  0  0  0  0  0  0  0
    2.4169   -1.4066   -1.3144 C   0  0  1  0  0  0  0  0  0  0  0  0
    3.8011   -0.8555   -1.3160 C   0  0  0  0  0  0  0  0  0  0  0  0
    4.6984   -1.9307   -1.5961 N   0  0  0  0  0  0  0  0  0  0  0  0
    3.9316   -3.0380   -2.0333 C   0  0  0  0  0  0  0  0  0  0  0  0
    4.3157   -3.9565   -2.7782 O   0  0  0  0  0  0  0  0  0  0  0  0
    2.5855   -2.8870   -1.4300 C   0  0  0  0  0  0  0  0  0  0  0  0
   -0.9393    0.4642    0.1559 N   0  0  0  0  0  0  0  0  0  0  0  0
   -2.0883    1.1369    0.2467 C   0  0  0  0  0  0  0  0  0  0  0  0
   -3.4201    0.5641    0.2855 C   0  0  0  0  0  0  0  0  0  0  0  0
   -4.5940    1.3227    0.2697 C   0  0  0  0  0  0  0  0  0  0  0  0
   -5.6530    0.5123    0.3459 N   0  0  0  0  0  0  0  0  0  0  0  0
   -5.1922   -0.6960    0.4070 N   0  0  0  0  0  0  0  0  0  0  0  0
   -3.8156   -0.7160    0.3728 C   0  0  0  0  0  0  0  0  0  0  0  0
   -2.9991   -1.9417    0.4201 C   0  0  0  0  0  0  0  0  0  0  0  0
   -4.0017   -3.1317    0.5448 C   0  0  0  0  0  0  0  0  0  0  0  0
   -2.0516   -1.9937    1.5933 C   0  0  0  0  0  0  0  0  0  0  0  0
   -2.2766   -2.2458   -0.8782 C   0  0  0  0  0  0  0  0  0  0  0  0
   -1.9369    2.5354    0.3312 C   0  0  0  0  0  0  0  0  0  0  0  0
   -0.7240    3.1701    0.3230 C   0  0  0  0  0  0  0  0  0  0  0  0
   -0.3164    4.4648    0.3913 N   0  0  0  0  0  0  0  0  0  0  0  0
    1.0035    4.5270    0.3419 N   0  0  0  0  0  0  0  0  0  0  0  0
    1.8020    5.7515    0.3900 C   0  0  0  0  0  0  0  0  0  0  0  0
    3.5634    3.7730    0.0471 H   0  0  0  0  0  0  0  0  0  0  0  0
    3.1516    2.2266   -0.7130 H   0  0  0  0  0  0  0  0  0  0  0  0
    3.2108    2.3867    1.1321 H   0  0  0  0  0  0  0  0  0  0  0  0
    0.6220   -1.4473   -0.2143 H   0  0  0  0  0  0  0  0  0  0  0  0
    1.9481   -1.0623    2.0182 H   0  0  0  0  0  0  0  0  0  0  0  0
    1.8051   -2.6638    1.2485 H   0  0  0  0  0  0  0  0  0  0  0  0
    3.3424   -1.6731    1.0723 H   0  0  0  0  0  0  0  0  0  0  0  0
    1.8961   -1.0520   -2.2273 H   0  0  0  0  0  0  0  0  0  0  0  0
    3.9657   -0.0643   -2.0984 H   0  0  0  0  0  0  0  0  0  0  0  0
    4.0049   -0.3647   -0.3412 H   0  0  0  0  0  0  0  0  0  0  0  0
    5.7249   -1.9025   -1.4968 H   0  0  0  0  0  0  0  0  0  0  0  0
    1.8667   -3.3418   -2.1474 H   0  0  0  0  0  0  0  0  0  0  0  0
    2.6080   -3.4226   -0.4634 H   0  0  0  0  0  0  0  0  0  0  0  0
   -4.6524    2.3820    0.2053 H   0  0  0  0  0  0  0  0  0  0  0  0
   -6.6791    0.7715    0.3566 H   0  0  0  0  0  0  0  0  0  0  0  0
   -3.4811   -4.0360    0.2181 H   0  0  0  0  0  0  0  0  0  0  0  0
   -4.7955   -2.8890   -0.1910 H   0  0  0  0  0  0  0  0  0  0  0  0
   -4.3851   -3.2045    1.5629 H   0  0  0  0  0  0  0  0  0  0  0  0
   -1.0017   -2.0759    1.3271 H   0  0  0  0  0  0  0  0  0  0  0  0
   -2.3752   -2.7563    2.3422 H   0  0  0  0  0  0  0  0  0  0  0  0
   -2.1780   -1.0167    2.1459 H   0  0  0  0  0  0  0  0  0  0  0  0
   -1.2930   -2.6846   -0.6739 H   0  0  0  0  0  0  0  0  0  0  0  0
   -2.8801   -2.9337   -1.5317 H   0  0  0  0  0  0  0  0  0  0  0  0
   -2.1452   -1.3275   -1.4733 H   0  0  0  0  0  0  0  0  0  0  0  0
   -2.8358    3.1222    0.4077 H   0  0  0  0  0  0  0  0  0  0  0  0
    1.2482    6.5463    0.9726 H   0  0  0  0  0  0  0  0  0  0  0  0
    2.7350    5.5792    0.9493 H   0  0  0  0  0  0  0  0  0  0  0  0
    1.9677    6.1771   -0.6022 H   0  0  0  0  0  0  0  0  0  0  0  0
  1  2  1  0
  2  3  2  0
  3  4  1  0
  4  5  1  0
  5  6  1  0
  6  7  1  0
  6  8  1  0
  8  9  1  0
  9 10  1  0
 10 11  1  0
 11 12  2  0
 11 13  1  0
  4 14  2  0
 14 15  1  0
 15 16  1  0
 16 17  2  0
 17 18  1  0
 18 19  1  0
 19 20  2  0
 20 21  1  0
 21 22  1  0
 21 23  1  0
 21 24  1  0
 15 25  2  0
 25 26  1  0
 26 27  2  0
 27 28  1  0
 28 29  1  0
 28  2  1  0
 26  3  1  0
 13  8  1  0
 20 16  1  0
  1 30  1  0
  1 31  1  0
  1 32  1  0
  6 33  1  6
  7 34  1  0
  7 35  1  0
  7 36  1  0
  8 37  1  6
  9 38  1  0
  9 39  1  0
 10 40  1  0
 13 41  1  0
 13 42  1  0
 17 43  1  0
 18 44  1  0
 22 45  1  0
 22 46  1  0
 22 47  1  0
 23 48  1  0
 23 49  1  0
 23 50  1  0
 24 51  1  0
 24 52  1  0
 24 53  1  0
 25 54  1  0
 29 55  1  0
 29 56  1  0
 29 57  1  0
M  END
$$$$
