
     RDKit          3D

 53 57  0  0  0  0  0  0  0  0999 V2000
    1.3374   -2.8469    1.9517 C   0  0  0  0  0  0  0  0  0  0  0  0
    0.3058   -2.0833    1.3219 O   0  0  0  0  0  0  0  0  0  0  0  0
    0.6165   -0.8732    0.7384 C   0  0  0  0  0  0  0  0  0  0  0  0
    1.8989   -0.4033    0.7594 C   0  0  0  0  0  0  0  0  0  0  0  0
    2.2409    0.8128    0.1788 C   0  0  0  0  0  0  0  0  0  0  0  0
    3.5010    1.3406    0.1749 C   0  0  0  0  0  0  0  0  0  0  0  0
    4.5670    0.5936    0.7750 N   0  0  0  0  0  0  0  0  0  0  0  0
    5.6256    0.0624    0.0100 C   0  0  0  0  0  0  0  0  0  0  0  0
    6.9371    0.4279    0.2561 C   0  0  0  0  0  0  0  0  0  0  0  0
    7.9716   -0.0756   -0.4966 C   0  0  0  0  0  0  0  0  0  0  0  0
    7.7290   -0.9621   -1.5217 C   0  0  0  0  0  0  0  0  0  0  0  0
    8.7823   -1.4267   -2.2323 F   0  0  0  0  0  0  0  0  0  0  0  0
    6.4263   -1.3341   -1.7765 C   0  0  0  0  0  0  0  0  0  0  0  0
    6.0962   -2.4548   -3.0722 Cl  0  0  0  0  0  0  0  0  0  0  0  0
    5.3929   -0.8207   -1.0118 C   0  0  0  0  0  0  0  0  0  0  0  0
    4.1560   -1.2196   -1.3125 F   0  0  0  0  0  0  0  0  0  0  0  0
    3.7520    2.5291   -0.3985 N   0  0  0  0  0  0  0  0  0  0  0  0
    2.7829    3.2493   -0.9921 C   0  0  0  0  0  0  0  0  0  0  0  0
    1.5524    2.7259   -0.9848 N   0  0  0  0  0  0  0  0  0  0  0  0
    1.2448    1.5401   -0.4244 C   0  0  0  0  0  0  0  0  0  0  0  0
   -0.0533    1.0459   -0.4359 C   0  0  0  0  0  0  0  0  0  0  0  0
   -0.4136   -0.1600    0.1356 C   0  0  0  0  0  0  0  0  0  0  0  0
   -1.6998   -0.6708    0.1356 O   0  0  0  0  0  0  0  0  0  0  0  0
   -2.7952   -0.0718   -0.4554 C   0  0  1  0  0  0  0  0  0  0  0  0
   -3.5123   -1.0929   -1.3150 C   0  0  0  0  0  0  0  0  0  0  0  0
   -4.8480   -0.7132   -1.2140 O   0  0  0  0  0  0  0  0  0  0  0  0
   -5.0357   -0.5242    0.1376 C   0  0  2  0  0  0  0  0  0  0  0  0
   -6.1531    0.5018    0.3206 C   0  0  1  0  0  0  0  0  0  0  0  0
   -6.6516    0.4329    1.5864 O   0  0  0  0  0  0  0  0  0  0  0  0
   -7.9897    0.1692    1.7125 C   0  0  0  0  0  0  0  0  0  0  0  0
   -5.3648    1.7666    0.0475 C   0  0  0  0  0  0  0  0  0  0  0  0
   -4.1288    1.5849    0.6546 O   0  0  0  0  0  0  0  0  0  0  0  0
   -3.8446    0.2289    0.6059 C   0  0  2  0  0  0  0  0  0  0  0  0
    0.9254   -3.7760    2.3933 H   0  0  0  0  0  0  0  0  0  0  0  0
    1.9251   -2.2368    2.6774 H   0  0  0  0  0  0  0  0  0  0  0  0
    2.0861   -3.1700    1.1720 H   0  0  0  0  0  0  0  0  0  0  0  0
    2.6981   -0.9572    1.2281 H   0  0  0  0  0  0  0  0  0  0  0  0
    4.5214    0.4647    1.7963 H   0  0  0  0  0  0  0  0  0  0  0  0
    7.1530    1.1149    1.0461 H   0  0  0  0  0  0  0  0  0  0  0  0
    8.9856    0.2250   -0.2858 H   0  0  0  0  0  0  0  0  0  0  0  0
    3.0263    4.2079   -1.4447 H   0  0  0  0  0  0  0  0  0  0  0  0
   -0.7975    1.6510   -0.9193 H   0  0  0  0  0  0  0  0  0  0  0  0
   -2.5917    0.8274   -1.0702 H   0  0  0  0  0  0  0  0  0  0  0  0
   -3.4338   -2.1278   -0.8729 H   0  0  0  0  0  0  0  0  0  0  0  0
   -3.1305   -1.0587   -2.3626 H   0  0  0  0  0  0  0  0  0  0  0  0
   -5.2546   -1.4568    0.6862 H   0  0  0  0  0  0  0  0  0  0  0  0
   -6.8843    0.3318   -0.4917 H   0  0  0  0  0  0  0  0  0  0  0  0
   -8.2676   -0.8079    1.2629 H   0  0  0  0  0  0  0  0  0  0  0  0
   -8.6421    0.9888    1.3439 H   0  0  0  0  0  0  0  0  0  0  0  0
   -8.2165    0.0933    2.8038 H   0  0  0  0  0  0  0  0  0  0  0  0
   -5.8774    2.6871    0.3232 H   0  0  0  0  0  0  0  0  0  0  0  0
   -5.1846    1.7924   -1.0507 H   0  0  0  0  0  0  0  0  0  0  0  0
   -3.4670   -0.0720    1.5867 H   0  0  0  0  0  0  0  0  0  0  0  0
  1  2  1  0
  2  3  1  0
  3  4  2  0
  4  5  1  0
  5  6  2  0
  6  7  1  0
  7  8  1  0
  8  9  2  0
  9 10  1  0
 10 11  2  0
 11 12  1  0
 11 13  1  0
 13 14  1  0
 13 15  2  0
 15 16  1  0
  6 17  1  0
 17 18  2  0
 18 19  1  0
 19 20  2  0
 20 21  1  0
 21 22  2  0
 22 23  1  0
 23 24  1  0
 24 25  1  0
 25 26  1  0
 26 27  1  0
 27 28  1  0
 28 29  1  0
 29 30  1  0
 28 31  1  0
 31 32  1  0
 32 33  1  0
 22  3  1  0
 33 24  1  0
 20  5  1  0
 33 27  1  0
 15  8  1  0
  1 34  1  0
  1 35  1  0
  1 36  1  0
  4 37  1  0
  7 38  1  0
  9 39  1  0
 10 40  1  0
 18 41  1  0
 21 42  1  0
 24 43  1  6
 25 44  1  0
 25 45  1  0
 27 46  1  1
 28 47  1  6
 30 48  1  0
 30 49  1  0
 30 50  1  0
 31 51  1  0
 31 52  1  0
 33 53  1  1
M  END
$$$$
