
     RDKit          3D

 35 36  0  0  0  0  0  0  0  0999 V2000
   -3.7787   -2.4721   -1.7841 C   0  0  0  0  0  0  0  0  0  0  0  0
   -3.7552   -1.4412   -0.8174 O   0  0  0  0  0  0  0  0  0  0  0  0
   -2.6311   -0.6226   -0.7809 C   0  0  0  0  0  0  0  0  0  0  0  0
   -1.5673   -0.7884   -1.6423 C   0  0  0  0  0  0  0  0  0  0  0  0
   -0.4630    0.0354   -1.5876 C   0  0  0  0  0  0  0  0  0  0  0  0
   -0.3680    1.0701   -0.6646 C   0  0  0  0  0  0  0  0  0  0  0  0
    1.0083    2.1334   -0.5619 S   0  0  0  0  0  6  0  0  0  0  0  0
    1.7342    2.2119   -1.8839 O   0  0  0  0  0  0  0  0  0  0  0  0
    0.4428    3.5060   -0.2155 O   0  0  0  0  0  0  0  0  0  0  0  0
    2.0805    1.6814    0.6806 N   0  0  0  0  0  0  0  0  0  0  0  0
    2.7935    0.4766    0.8073 C   0  0  0  0  0  0  0  0  0  0  0  0
    4.1729    0.5643    1.0526 C   0  0  0  0  0  0  0  0  0  0  0  0
    4.9569   -0.5578    1.1782 C   0  0  0  0  0  0  0  0  0  0  0  0
    4.4001   -1.8006    1.0649 C   0  0  0  0  0  0  0  0  0  0  0  0
    3.0501   -1.8845    0.8250 C   0  0  0  0  0  0  0  0  0  0  0  0
    2.2257   -0.7633    0.6925 C   0  0  0  0  0  0  0  0  0  0  0  0
   -1.4436    1.2251    0.1944 C   0  0  0  0  0  0  0  0  0  0  0  0
   -2.5504    0.4001    0.1403 C   0  0  0  0  0  0  0  0  0  0  0  0
   -3.6158    0.5627    0.9997 O   0  0  0  0  0  0  0  0  0  0  0  0
   -3.6380    1.5917    1.9946 C   0  0  0  0  0  0  0  0  0  0  0  0
   -4.7803   -2.9386   -1.7731 H   0  0  0  0  0  0  0  0  0  0  0  0
   -3.5439   -2.0381   -2.7688 H   0  0  0  0  0  0  0  0  0  0  0  0
   -2.9781   -3.1997   -1.4747 H   0  0  0  0  0  0  0  0  0  0  0  0
   -1.5891   -1.5795   -2.3816 H   0  0  0  0  0  0  0  0  0  0  0  0
    0.3809   -0.0848   -2.2603 H   0  0  0  0  0  0  0  0  0  0  0  0
    2.2569    2.3767    1.4798 H   0  0  0  0  0  0  0  0  0  0  0  0
    4.6691    1.5215    1.1519 H   0  0  0  0  0  0  0  0  0  0  0  0
    6.0271   -0.4524    1.3690 H   0  0  0  0  0  0  0  0  0  0  0  0
    5.0072   -2.7004    1.1615 H   0  0  0  0  0  0  0  0  0  0  0  0
    2.5601   -2.8531    0.7268 H   0  0  0  0  0  0  0  0  0  0  0  0
    1.1754   -0.8626    0.5163 H   0  0  0  0  0  0  0  0  0  0  0  0
   -1.3692    2.0346    0.9165 H   0  0  0  0  0  0  0  0  0  0  0  0
   -4.6794    1.7719    2.3368 H   0  0  0  0  0  0  0  0  0  0  0  0
   -2.9627    1.3208    2.8306 H   0  0  0  0  0  0  0  0  0  0  0  0
   -3.2282    2.5556    1.5720 H   0  0  0  0  0  0  0  0  0  0  0  0
  1  2  1  0
  2  3  1  0
  3  4  2  0
  4  5  1  0
  5  6  2  0
  6  7  1  0
  7  8  2  0
  7  9  2  0
  7 10  1  0
 10 11  1  0
 11 12  2  0
 12 13  1  0
 13 14  2  0
 14 15  1  0
 15 16  2  0
  6 17  1  0
 17 18  2  0
 18 19  1  0
 19 20  1  0
 18  3  1  0
 16 11  1  0
  1 21  1  0
  1 22  1  0
  1 23  1  0
  4 24  1  0
  5 25  1  0
 10 26  1  0
 12 27  1  0
 13 28  1  0
 14 29  1  0
 15 30  1  0
 16 31  1  0
 17 32  1  0
 20 33  1  0
 20 34  1  0
 20 35  1  0
M  END
$$$$
