
     RDKit          3D

 74 79  0  0  0  0  0  0  0  0999 V2000
   -3.6530    6.3349    2.4353 C   0  0  0  0  0  0  0  0  0  0  0  0
   -2.6925    6.8974    1.5191 N   0  0  0  0  0  0  0  0  0  0  0  0
   -2.8432    6.3900    0.1828 C   0  0  1  0  0  0  0  0  0  0  0  0
   -1.8424    7.1132   -0.7166 C   0  0  0  0  0  0  0  0  0  0  0  0
   -2.6112    4.9544    0.0239 C   0  0  0  0  0  0  0  0  0  0  0  0
   -2.7269    4.4847   -1.1523 O   0  0  0  0  0  0  0  0  0  0  0  0
   -2.2714    4.0317    1.0376 N   0  0  0  0  0  0  0  0  0  0  0  0
   -2.0730    2.6482    0.7174 C   0  0  0  0  0  0  0  0  0  0  0  0
   -3.1723    1.8045    0.7087 C   0  0  0  0  0  0  0  0  0  0  0  0
   -2.9764    0.4503    0.4021 C   0  0  0  0  0  0  0  0  0  0  0  0
   -1.7278   -0.0183    0.1202 C   0  0  0  0  0  0  0  0  0  0  0  0
   -1.5255   -1.4147   -0.2002 C   0  0  0  0  0  0  0  0  0  0  0  0
   -1.7262   -2.5215    0.5932 C   0  0  0  0  0  0  0  0  0  0  0  0
   -2.2131   -2.4980    1.9694 C   0  0  0  0  0  0  0  0  0  0  0  0
   -3.4327   -3.0994    2.2867 C   0  0  0  0  0  0  0  0  0  0  0  0
   -3.9345   -3.1120    3.5709 C   0  0  0  0  0  0  0  0  0  0  0  0
   -3.2067   -2.5086    4.5822 C   0  0  0  0  0  0  0  0  0  0  0  0
   -3.7171   -2.5024    5.9994 C   0  0  0  0  0  0  0  0  0  0  0  0
   -2.0457   -1.9376    4.2729 N   0  0  0  0  0  0  0  0  0  0  0  0
   -1.5428   -1.9212    3.0028 C   0  0  0  0  0  0  0  0  0  0  0  0
   -1.3893   -3.5820   -0.1587 N   0  0  0  0  0  0  0  0  0  0  0  0
   -0.9864   -3.2109   -1.3878 C   0  0  0  0  0  0  0  0  0  0  0  0
   -0.5480   -3.8858   -2.5143 C   0  0  0  0  0  0  0  0  0  0  0  0
   -0.1900   -3.2391   -3.6769 C   0  0  0  0  0  0  0  0  0  0  0  0
    0.2845   -3.9635   -4.9006 C   0  0  0  0  0  0  0  0  0  0  0  0
   -0.2842   -1.8618   -3.6853 C   0  0  0  0  0  0  0  0  0  0  0  0
   -0.7320   -1.2084   -2.5278 C   0  0  0  0  0  0  0  0  0  0  0  0
   -1.0719   -1.8714   -1.4108 N   0  0  0  0  0  0  0  0  0  0  0  0
   -0.6519    0.8295    0.1339 C   0  0  0  0  0  0  0  0  0  0  0  0
    0.6911    0.3347   -0.1471 C   0  0  0  0  0  0  0  0  0  0  0  0
    1.8000   -0.0749   -0.3843 C   0  0  0  0  0  0  0  0  0  0  0  0
    3.1326   -0.5440   -0.6811 C   0  0  0  0  0  0  0  0  0  0  0  0
    4.1221    0.3309   -1.0949 C   0  0  0  0  0  0  0  0  0  0  0  0
    5.4183   -0.0580   -1.3801 C   0  0  0  0  0  0  0  0  0  0  0  0
    5.7792   -1.3796   -1.2568 C   0  0  0  0  0  0  0  0  0  0  0  0
    7.0751   -1.7570   -1.5376 C   0  0  0  0  0  0  0  0  0  0  0  0
    8.1463   -0.8260   -1.9673 C   0  0  0  0  0  0  0  0  0  0  0  0
    7.3836   -3.0792   -1.3958 N   0  0  0  0  0  0  0  0  0  0  0  0
    6.4719   -3.9762   -1.0018 C   0  0  0  0  0  0  0  0  0  0  0  0
    5.1709   -3.5989   -0.7189 C   0  0  0  0  0  0  0  0  0  0  0  0
    4.7933   -2.2716   -0.8426 C   0  0  0  0  0  0  0  0  0  0  0  0
    3.4995   -1.8676   -0.5608 C   0  0  0  0  0  0  0  0  0  0  0  0
   -0.8830    2.1242    0.4333 N   0  0  0  0  0  0  0  0  0  0  0  0
   -4.2447    5.5312    1.9566 H   0  0  0  0  0  0  0  0  0  0  0  0
   -4.4146    7.0924    2.7531 H   0  0  0  0  0  0  0  0  0  0  0  0
   -3.1971    6.0015    3.4039 H   0  0  0  0  0  0  0  0  0  0  0  0
   -2.8328    7.9294    1.4951 H   0  0  0  0  0  0  0  0  0  0  0  0
   -3.8717    6.7175   -0.1470 H   0  0  0  0  0  0  0  0  0  0  0  0
   -2.3036    7.3229   -1.7115 H   0  0  0  0  0  0  0  0  0  0  0  0
   -1.6012    8.1001   -0.2723 H   0  0  0  0  0  0  0  0  0  0  0  0
   -0.8818    6.5553   -0.7899 H   0  0  0  0  0  0  0  0  0  0  0  0
   -2.1625    4.3686    2.0212 H   0  0  0  0  0  0  0  0  0  0  0  0
   -4.1557    2.2033    0.9361 H   0  0  0  0  0  0  0  0  0  0  0  0
   -3.8710   -0.1565    0.4094 H   0  0  0  0  0  0  0  0  0  0  0  0
   -4.0077   -3.5709    1.5078 H   0  0  0  0  0  0  0  0  0  0  0  0
   -4.8730   -3.5855    3.7666 H   0  0  0  0  0  0  0  0  0  0  0  0
   -3.9361   -1.4629    6.2744 H   0  0  0  0  0  0  0  0  0  0  0  0
   -4.5858   -3.1972    6.0890 H   0  0  0  0  0  0  0  0  0  0  0  0
   -2.9452   -2.8785    6.7064 H   0  0  0  0  0  0  0  0  0  0  0  0
   -0.5883   -1.4328    2.8317 H   0  0  0  0  0  0  0  0  0  0  0  0
   -0.4818   -4.9622   -2.4824 H   0  0  0  0  0  0  0  0  0  0  0  0
    1.0701   -3.3150   -5.3901 H   0  0  0  0  0  0  0  0  0  0  0  0
    0.6663   -4.9676   -4.6922 H   0  0  0  0  0  0  0  0  0  0  0  0
   -0.5313   -4.0622   -5.6530 H   0  0  0  0  0  0  0  0  0  0  0  0
   -0.0151   -1.3037   -4.5736 H   0  0  0  0  0  0  0  0  0  0  0  0
   -0.8070   -0.1256   -2.5482 H   0  0  0  0  0  0  0  0  0  0  0  0
    3.8418    1.3919   -1.1996 H   0  0  0  0  0  0  0  0  0  0  0  0
    6.1619    0.6450   -1.7019 H   0  0  0  0  0  0  0  0  0  0  0  0
    8.3192   -0.8200   -3.0661 H   0  0  0  0  0  0  0  0  0  0  0  0
    8.0737    0.1804   -1.5247 H   0  0  0  0  0  0  0  0  0  0  0  0
    9.1047   -1.2525   -1.5317 H   0  0  0  0  0  0  0  0  0  0  0  0
    6.7878   -5.0108   -0.9115 H   0  0  0  0  0  0  0  0  0  0  0  0
    4.4243   -4.3044   -0.4016 H   0  0  0  0  0  0  0  0  0  0  0  0
    2.7607   -2.5701   -0.2451 H   0  0  0  0  0  0  0  0  0  0  0  0
  1  2  1  0
  2  3  1  0
  3  4  1  0
  3  5  1  0
  5  6  2  0
  5  7  1  0
  7  8  1  0
  8  9  2  0
  9 10  1  0
 10 11  2  0
 11 12  1  0
 12 13  2  0
 13 14  1  0
 14 15  2  0
 15 16  1  0
 16 17  2  0
 17 18  1  0
 17 19  1  0
 19 20  2  0
 13 21  1  0
 21 22  2  0
 22 23  1  0
 23 24  2  0
 24 25  1  0
 24 26  1  0
 26 27  2  0
 27 28  1  0
 11 29  1  0
 29 30  1  0
 30 31  3  0
 31 32  1  0
 32 33  2  0
 33 34  1  0
 34 35  2  0
 35 36  1  0
 36 37  1  0
 36 38  2  0
 38 39  1  0
 39 40  2  0
 40 41  1  0
 41 42  2  0
 29 43  2  0
 43  8  1  0
 28 12  1  0
 42 32  1  0
 20 14  1  0
 28 22  1  0
 41 35  1  0
  1 44  1  0
  1 45  1  0
  1 46  1  0
  2 47  1  0
  3 48  1  6
  4 49  1  0
  4 50  1  0
  4 51  1  0
  7 52  1  0
  9 53  1  0
 10 54  1  0
 15 55  1  0
 16 56  1  0
 18 57  1  0
 18 58  1  0
 18 59  1  0
 20 60  1  0
 23 61  1  0
 25 62  1  0
 25 63  1  0
 25 64  1  0
 26 65  1  0
 27 66  1  0
 33 67  1  0
 34 68  1  0
 37 69  1  0
 37 70  1  0
 37 71  1  0
 39 72  1  0
 40 73  1  0
 42 74  1  0
M  END
$$$$
