
     RDKit          3D

 41 45  0  0  0  0  0  0  0  0999 V2000
   -4.4701    2.6442   -0.3218 C   0  0  0  0  0  0  0  0  0  0  0  0
   -4.0439    2.3337    0.9565 C   0  0  0  0  0  0  0  0  0  0  0  0
   -3.5021    1.0862    1.1826 C   0  0  0  0  0  0  0  0  0  0  0  0
   -3.3700    0.1363    0.1785 C   0  0  0  0  0  0  0  0  0  0  0  0
   -2.8218   -1.1611    0.4933 C   0  0  0  0  0  0  0  0  0  0  0  0
   -3.6313   -2.2122    0.8522 N   0  0  0  0  0  0  0  0  0  0  0  0
   -2.9206   -3.2636    1.0880 N   0  0  0  0  0  0  0  0  0  0  0  0
   -1.5986   -2.9368    0.8882 C   0  0  0  0  0  0  0  0  0  0  0  0
   -1.5842   -1.6405    0.5281 N   0  0  0  0  0  0  0  0  0  0  0  0
   -0.3305   -0.9555    0.3273 C   0  0  0  0  0  0  0  0  0  0  0  0
   -0.3169    0.3374   -0.1483 C   0  0  0  0  0  0  0  0  0  0  0  0
    0.9144    0.9073   -0.4193 C   0  0  0  0  0  0  0  0  0  0  0  0
    2.0928    0.2235   -0.2272 C   0  0  0  0  0  0  0  0  0  0  0  0
    3.3663    0.8835   -0.5357 C   0  0  0  0  0  0  0  0  0  0  0  0
    3.5172    1.8217   -1.5376 C   0  0  0  0  0  0  0  0  0  0  0  0
    4.7323    2.4204   -1.7972 C   0  0  0  0  0  0  0  0  0  0  0  0
    5.8356    2.0829   -1.0435 C   0  0  0  0  0  0  0  0  0  0  0  0
    5.6712    1.1675   -0.0717 N   0  0  0  0  0  0  0  0  0  0  0  0
    4.4847    0.5678    0.1985 C   0  0  0  0  0  0  0  0  0  0  0  0
    2.0740   -1.0599    0.2468 C   0  0  0  0  0  0  0  0  0  0  0  0
    0.8329   -1.6575    0.5303 C   0  0  0  0  0  0  0  0  0  0  0  0
    0.8499   -3.0024    1.1309 C   0  0  0  0  0  0  0  0  0  0  0  0
   -0.3964   -3.7582    0.9395 C   0  0  0  0  0  0  0  0  0  0  0  0
   -3.8071    0.4883   -1.0770 C   0  0  0  0  0  0  0  0  0  0  0  0
   -4.3510    1.7201   -1.3378 C   0  0  0  0  0  0  0  0  0  0  0  0
   -4.9071    3.6062   -0.5766 H   0  0  0  0  0  0  0  0  0  0  0  0
   -4.1390    3.0671    1.7599 H   0  0  0  0  0  0  0  0  0  0  0  0
   -3.1809    0.8892    2.2069 H   0  0  0  0  0  0  0  0  0  0  0  0
   -1.1615    0.9465   -0.3334 H   0  0  0  0  0  0  0  0  0  0  0  0
    0.9863    1.9203   -0.7949 H   0  0  0  0  0  0  0  0  0  0  0  0
    2.6329    2.0647   -2.1107 H   0  0  0  0  0  0  0  0  0  0  0  0
    4.8618    3.1526   -2.5751 H   0  0  0  0  0  0  0  0  0  0  0  0
    6.7867    2.5280   -1.2202 H   0  0  0  0  0  0  0  0  0  0  0  0
    4.3990   -0.1622    0.9890 H   0  0  0  0  0  0  0  0  0  0  0  0
    2.9535   -1.6297    0.4118 H   0  0  0  0  0  0  0  0  0  0  0  0
    1.7425   -3.5476    0.7074 H   0  0  0  0  0  0  0  0  0  0  0  0
    1.0142   -2.8392    2.2340 H   0  0  0  0  0  0  0  0  0  0  0  0
   -0.3169   -4.4259    0.0105 H   0  0  0  0  0  0  0  0  0  0  0  0
   -0.4723   -4.5148    1.7889 H   0  0  0  0  0  0  0  0  0  0  0  0
   -3.7267   -0.2196   -1.9011 H   0  0  0  0  0  0  0  0  0  0  0  0
   -4.6992    1.9913   -2.3534 H   0  0  0  0  0  0  0  0  0  0  0  0
  1  2  2  0
  2  3  1  0
  3  4  2  0
  4  5  1  0
  5  6  2  0
  6  7  1  0
  7  8  2  0
  8  9  1  0
  9 10  1  0
 10 11  2  0
 11 12  1  0
 12 13  2  0
 13 14  1  0
 14 15  2  0
 15 16  1  0
 16 17  2  0
 17 18  1  0
 18 19  2  0
 13 20  1  0
 20 21  2  0
 21 22  1  0
 22 23  1  0
  4 24  1  0
 24 25  2  0
 25  1  1  0
  9  5  1  0
 21 10  1  0
 23  8  1  0
 19 14  1  0
  1 26  1  0
  2 27  1  0
  3 28  1  0
 11 29  1  0
 12 30  1  0
 15 31  1  0
 16 32  1  0
 17 33  1  0
 19 34  1  0
 20 35  1  0
 22 36  1  0
 22 37  1  0
 23 38  1  0
 23 39  1  0
 24 40  1  0
 25 41  1  0
M  END
$$$$
