
     RDKit          3D

 32 33  0  0  0  0  0  0  0  0999 V2000
    4.5427   -2.6348   -0.5498 O   0  0  0  0  0  0  0  0  0  0  0  0
    3.4718   -2.1547   -0.1648 C   0  0  0  0  0  0  0  0  0  0  0  0
    2.7088   -2.8873    0.7355 O   0  0  0  0  0  0  0  0  0  0  0  0
    3.0386   -0.8530   -0.6540 C   0  0  0  0  0  0  0  0  0  0  0  0
    3.8187   -0.1503   -1.5468 C   0  0  0  0  0  0  0  0  0  0  0  0
    3.4085    1.0818   -2.0091 C   0  0  0  0  0  0  0  0  0  0  0  0
    2.2102    1.6512   -1.5967 C   0  0  0  0  0  0  0  0  0  0  0  0
    1.4205    0.9617   -0.7056 C   0  0  0  0  0  0  0  0  0  0  0  0
    0.2221    1.5641   -0.2669 N   0  0  0  0  0  0  0  0  0  0  0  0
   -0.9300    0.9059    0.2157 C   0  0  0  0  0  0  0  0  0  0  0  0
   -1.2302    1.1307    1.5695 C   0  0  0  0  0  0  0  0  0  0  0  0
   -2.3330    0.5682    2.1682 C   0  0  0  0  0  0  0  0  0  0  0  0
   -3.1771   -0.2384    1.4422 C   0  0  0  0  0  0  0  0  0  0  0  0
   -4.3532   -0.8238    2.1304 C   0  0  0  0  0  0  0  0  0  0  0  0
   -5.4381   -0.0190    1.8353 F   0  0  0  0  0  0  0  0  0  0  0  0
   -4.1289   -0.9028    3.4888 F   0  0  0  0  0  0  0  0  0  0  0  0
   -4.5497   -2.0911    1.5830 F   0  0  0  0  0  0  0  0  0  0  0  0
   -2.8681   -0.4448    0.1236 C   0  0  0  0  0  0  0  0  0  0  0  0
   -1.7628    0.1070   -0.5184 C   0  0  0  0  0  0  0  0  0  0  0  0
   -1.5322   -0.1074   -1.8845 N   0  0  0  0  0  4  0  0  0  0  0  0
   -0.4225   -0.1581   -2.3806 O   0  0  0  0  0  0  0  0  0  0  0  0
   -2.6261   -0.2684   -2.7249 O   0  0  0  0  0  1  0  0  0  0  0  0
    1.8606   -0.2796   -0.2566 C   0  0  0  0  0  0  0  0  0  0  0  0
    3.1506   -3.4286    1.4959 H   0  0  0  0  0  0  0  0  0  0  0  0
    4.7623   -0.5686   -1.8891 H   0  0  0  0  0  0  0  0  0  0  0  0
    3.9959    1.6554   -2.7071 H   0  0  0  0  0  0  0  0  0  0  0  0
    1.9229    2.6290   -1.9874 H   0  0  0  0  0  0  0  0  0  0  0  0
    0.1753    2.6323   -0.2992 H   0  0  0  0  0  0  0  0  0  0  0  0
   -0.5760    1.7625    2.1532 H   0  0  0  0  0  0  0  0  0  0  0  0
   -2.5194    0.7785    3.2318 H   0  0  0  0  0  0  0  0  0  0  0  0
   -3.5096   -1.0694   -0.4642 H   0  0  0  0  0  0  0  0  0  0  0  0
    1.2475   -0.8106    0.4327 H   0  0  0  0  0  0  0  0  0  0  0  0
  1  2  2  0
  2  3  1  0
  2  4  1  0
  4  5  2  0
  5  6  1  0
  6  7  2  0
  7  8  1  0
  8  9  1  0
  9 10  1  0
 10 11  2  0
 11 12  1  0
 12 13  2  0
 13 14  1  0
 14 15  1  0
 14 16  1  0
 14 17  1  0
 13 18  1  0
 18 19  2  0
 19 20  1  0
 20 21  2  0
 20 22  1  0
  8 23  2  0
 23  4  1  0
 19 10  1  0
  3 24  1  0
  5 25  1  0
  6 26  1  0
  7 27  1  0
  9 28  1  0
 11 29  1  0
 12 30  1  0
 18 31  1  0
 23 32  1  0
M  CHG  2  20   1  22  -1
M  END
$$$$
