
     RDKit          3D

 38 42  0  0  0  0  0  0  0  0999 V2000
    3.7250   -2.3832   -1.3525 N   0  0  0  0  0  0  0  0  0  0  0  0
    3.7622   -1.6286   -0.1388 C   0  0  0  0  0  0  0  0  0  0  0  0
    4.7567   -1.6137    0.7763 N   0  0  0  0  0  0  0  0  0  0  0  0
    4.4259   -0.7926    1.7635 N   0  0  0  0  0  0  0  0  0  0  0  0
    3.2176   -0.2440    1.5379 C   0  0  0  0  0  0  0  0  0  0  0  0
    2.8085   -0.7783    0.3358 C   0  0  0  0  0  0  0  0  0  0  0  0
    1.6042   -0.4480   -0.2270 C   0  0  0  0  0  0  0  0  0  0  0  0
    0.7925    0.4457    0.4428 C   0  0  0  0  0  0  0  0  0  0  0  0
    1.2190    0.9617    1.6319 N   0  0  0  0  0  0  0  0  0  0  0  0
    2.3923    0.6238    2.1551 N   0  0  0  0  0  0  0  0  0  0  0  0
   -0.5199    0.9680    0.0823 C   0  0  0  0  0  0  0  0  0  0  0  0
   -0.7922    2.3124   -0.1679 C   0  0  0  0  0  0  0  0  0  0  0  0
    0.0285    3.4216   -0.1464 C   0  0  0  0  0  0  0  0  0  0  0  0
   -0.5083    4.6527   -0.4381 C   0  0  0  0  0  0  0  0  0  0  0  0
   -1.8554    4.7630   -0.7474 C   0  0  0  0  0  0  0  0  0  0  0  0
   -2.6560    3.6220   -0.7600 C   0  0  0  0  0  0  0  0  0  0  0  0
   -2.0881    2.4408   -0.4686 N   0  0  0  0  0  0  0  0  0  0  0  0
   -2.6217    1.2530   -0.4163 N   0  0  0  0  0  0  0  0  0  0  0  0
   -1.7059    0.3219   -0.0844 C   0  0  0  0  0  0  0  0  0  0  0  0
   -1.9393   -1.0846    0.0642 C   0  0  0  0  0  0  0  0  0  0  0  0
   -2.3901   -1.7370   -1.0895 C   0  0  0  0  0  0  0  0  0  0  0  0
   -2.6547   -3.0976   -1.0843 C   0  0  0  0  0  0  0  0  0  0  0  0
   -2.4707   -3.8336    0.0863 C   0  0  0  0  0  0  0  0  0  0  0  0
   -2.0222   -3.1629    1.2193 C   0  0  0  0  0  0  0  0  0  0  0  0
   -1.7596   -1.7986    1.2045 C   0  0  0  0  0  0  0  0  0  0  0  0
    2.9019   -2.8908   -1.7471 H   0  0  0  0  0  0  0  0  0  0  0  0
    4.6345   -2.4179   -1.8894 H   0  0  0  0  0  0  0  0  0  0  0  0
    4.9832   -0.5631    2.6222 H   0  0  0  0  0  0  0  0  0  0  0  0
    1.1705   -0.7872   -1.1457 H   0  0  0  0  0  0  0  0  0  0  0  0
    1.0692    3.2987    0.0978 H   0  0  0  0  0  0  0  0  0  0  0  0
    0.0912    5.5520   -0.4355 H   0  0  0  0  0  0  0  0  0  0  0  0
   -2.3539    5.6934   -0.9882 H   0  0  0  0  0  0  0  0  0  0  0  0
   -3.7182    3.6971   -1.0025 H   0  0  0  0  0  0  0  0  0  0  0  0
   -2.5569   -1.2277   -2.0407 H   0  0  0  0  0  0  0  0  0  0  0  0
   -3.0084   -3.6272   -1.9774 H   0  0  0  0  0  0  0  0  0  0  0  0
   -2.6731   -4.9069    0.1115 H   0  0  0  0  0  0  0  0  0  0  0  0
   -1.8723   -3.7081    2.1370 H   0  0  0  0  0  0  0  0  0  0  0  0
   -1.4161   -1.2965    2.0792 H   0  0  0  0  0  0  0  0  0  0  0  0
  1  2  1  0
  2  3  2  0
  3  4  1  0
  4  5  1  0
  5  6  2  0
  6  7  1  0
  7  8  2  0
  8  9  1  0
  9 10  2  0
  8 11  1  0
 11 12  2  0
 12 13  1  0
 13 14  2  0
 14 15  1  0
 15 16  2  0
 16 17  1  0
 17 18  1  0
 18 19  2  0
 19 20  1  0
 20 21  2  0
 21 22  1  0
 22 23  2  0
 23 24  1  0
 24 25  2  0
  6  2  1  0
 19 11  1  0
 25 20  1  0
 10  5  1  0
 17 12  1  0
  1 26  1  0
  1 27  1  0
  4 28  1  0
  7 29  1  0
 13 30  1  0
 14 31  1  0
 15 32  1  0
 16 33  1  0
 21 34  1  0
 22 35  1  0
 23 36  1  0
 24 37  1  0
 25 38  1  0
M  END
$$$$
