
     RDKit          3D

 65 69  0  0  0  0  0  0  0  0999 V2000
   -7.7398   -1.0578   -1.9958 C   0  0  0  0  0  0  0  0  0  0  0  0
   -8.0852   -0.6582   -0.6012 C   0  0  0  0  0  0  0  0  0  0  0  0
   -9.3919   -0.7579   -0.1807 C   0  0  0  0  0  0  0  0  0  0  0  0
   -9.7656   -0.3976    1.1131 C   0  0  0  0  0  0  0  0  0  0  0  0
   -8.7823    0.0629    1.9597 C   0  0  0  0  0  0  0  0  0  0  0  0
   -7.4634    0.1720    1.5596 C   0  0  0  0  0  0  0  0  0  0  0  0
   -6.3997    0.6722    2.4747 C   0  0  0  0  0  0  0  0  0  0  0  0
   -7.1191   -0.1900    0.2768 C   0  0  0  0  0  0  0  0  0  0  0  0
   -5.7201   -0.0684   -0.1511 C   0  0  0  0  0  0  0  0  0  0  0  0
   -5.2662    1.1237   -0.7252 C   0  0  0  0  0  0  0  0  0  0  0  0
   -3.9596    1.2307   -1.1376 C   0  0  0  0  0  0  0  0  0  0  0  0
   -3.4789    2.5164   -1.7563 C   0  0  0  0  0  0  0  0  0  0  0  0
   -3.0497    0.2217   -1.0203 C   0  0  0  0  0  0  0  0  0  0  0  0
   -1.7682    0.3150   -1.4410 N   0  0  0  0  0  0  0  0  0  0  0  0
   -0.9030   -0.7046   -1.3283 C   0  0  0  0  0  0  0  0  0  0  0  0
    0.3968   -0.5530   -1.8023 N   0  0  0  0  0  0  0  0  0  0  0  0
    1.5340   -0.4733   -0.9583 C   0  0  0  0  0  0  0  0  0  0  0  0
    1.5160   -0.7034    0.3988 C   0  0  0  0  0  0  0  0  0  0  0  0
    2.7041   -0.5959    1.1127 C   0  0  0  0  0  0  0  0  0  0  0  0
    3.9091   -0.2687    0.5323 C   0  0  0  0  0  0  0  0  0  0  0  0
    5.0117   -0.1900    1.3245 O   0  0  0  0  0  0  0  0  0  0  0  0
    6.3367    0.0933    1.0035 C   0  0  0  0  0  0  0  0  0  0  0  0
    6.9206   -0.9454    0.1243 C   0  0  0  0  0  0  0  0  0  0  0  0
    8.2923   -0.6850   -0.2614 N   0  0  0  0  0  0  0  0  0  0  0  0
    9.2386   -0.7684    0.8014 C   0  0  0  0  0  0  0  0  0  0  0  0
   10.1738    0.4106    0.6392 C   0  0  0  0  0  0  0  0  0  0  0  0
    9.3087    1.4388   -0.0194 C   0  0  0  0  0  0  0  0  0  0  0  0
    8.4501    0.5786   -0.9357 C   0  0  0  0  0  0  0  0  0  0  0  0
    3.9117   -0.0411   -0.8139 C   0  0  0  0  0  0  0  0  0  0  0  0
    2.7601   -0.1386   -1.5503 C   0  0  0  0  0  0  0  0  0  0  0  0
   -1.3273   -1.8476   -0.7795 N   0  0  0  0  0  0  0  0  0  0  0  0
   -2.5885   -1.9617   -0.3565 N   0  0  0  0  0  0  0  0  0  0  0  0
   -3.4828   -0.9634   -0.4545 C   0  0  0  0  0  0  0  0  0  0  0  0
   -4.7967   -1.0835   -0.0351 C   0  0  0  0  0  0  0  0  0  0  0  0
   -6.9902   -0.3631   -2.3973 H   0  0  0  0  0  0  0  0  0  0  0  0
   -8.6500   -0.9961   -2.6520 H   0  0  0  0  0  0  0  0  0  0  0  0
   -7.3138   -2.0949   -2.0093 H   0  0  0  0  0  0  0  0  0  0  0  0
  -10.1556   -1.1230   -0.8546 H   0  0  0  0  0  0  0  0  0  0  0  0
  -10.8021   -0.4853    1.4240 H   0  0  0  0  0  0  0  0  0  0  0  0
   -9.0157    0.3596    2.9875 H   0  0  0  0  0  0  0  0  0  0  0  0
   -6.1606    1.7100    2.1949 H   0  0  0  0  0  0  0  0  0  0  0  0
   -6.8196    0.7003    3.5064 H   0  0  0  0  0  0  0  0  0  0  0  0
   -5.4927    0.0101    2.4301 H   0  0  0  0  0  0  0  0  0  0  0  0
   -5.9821    1.9188   -0.8160 H   0  0  0  0  0  0  0  0  0  0  0  0
   -4.2336    3.3369   -1.6060 H   0  0  0  0  0  0  0  0  0  0  0  0
   -3.3152    2.2942   -2.8231 H   0  0  0  0  0  0  0  0  0  0  0  0
   -2.5184    2.7827   -1.2766 H   0  0  0  0  0  0  0  0  0  0  0  0
    0.5155   -0.4975   -2.8562 H   0  0  0  0  0  0  0  0  0  0  0  0
    0.5990   -0.9591    0.8709 H   0  0  0  0  0  0  0  0  0  0  0  0
    2.6421   -0.7888    2.1940 H   0  0  0  0  0  0  0  0  0  0  0  0
    6.9041    0.1068    1.9622 H   0  0  0  0  0  0  0  0  0  0  0  0
    6.3248    1.1150    0.5387 H   0  0  0  0  0  0  0  0  0  0  0  0
    6.3245   -1.2785   -0.7210 H   0  0  0  0  0  0  0  0  0  0  0  0
    7.0057   -1.8825    0.7783 H   0  0  0  0  0  0  0  0  0  0  0  0
    9.8695   -1.6790    0.6049 H   0  0  0  0  0  0  0  0  0  0  0  0
    8.7862   -0.7950    1.8094 H   0  0  0  0  0  0  0  0  0  0  0  0
   10.9966    0.1716   -0.0727 H   0  0  0  0  0  0  0  0  0  0  0  0
   10.6037    0.7534    1.6021 H   0  0  0  0  0  0  0  0  0  0  0  0
    8.6384    1.9286    0.7211 H   0  0  0  0  0  0  0  0  0  0  0  0
    9.8782    2.1750   -0.6165 H   0  0  0  0  0  0  0  0  0  0  0  0
    9.0221    0.4066   -1.8651 H   0  0  0  0  0  0  0  0  0  0  0  0
    7.5084    1.1150   -1.0947 H   0  0  0  0  0  0  0  0  0  0  0  0
    4.8018    0.2460   -1.3695 H   0  0  0  0  0  0  0  0  0  0  0  0
    2.7766    0.0453   -2.6279 H   0  0  0  0  0  0  0  0  0  0  0  0
   -5.1238   -2.0153    0.4075 H   0  0  0  0  0  0  0  0  0  0  0  0
  1  2  1  0
  2  3  2  0
  3  4  1  0
  4  5  2  0
  5  6  1  0
  6  7  1  0
  6  8  2  0
  8  9  1  0
  9 10  2  0
 10 11  1  0
 11 12  1  0
 11 13  2  0
 13 14  1  0
 14 15  2  0
 15 16  1  0
 16 17  1  0
 17 18  2  0
 18 19  1  0
 19 20  2  0
 20 21  1  0
 21 22  1  0
 22 23  1  0
 23 24  1  0
 24 25  1  0
 25 26  1  0
 26 27  1  0
 27 28  1  0
 20 29  1  0
 29 30  2  0
 15 31  1  0
 31 32  2  0
 32 33  1  0
 33 34  2  0
  8  2  1  0
 34  9  1  0
 33 13  1  0
 30 17  1  0
 28 24  1  0
  1 35  1  0
  1 36  1  0
  1 37  1  0
  3 38  1  0
  4 39  1  0
  5 40  1  0
  7 41  1  0
  7 42  1  0
  7 43  1  0
 10 44  1  0
 12 45  1  0
 12 46  1  0
 12 47  1  0
 16 48  1  0
 18 49  1  0
 19 50  1  0
 22 51  1  0
 22 52  1  0
 23 53  1  0
 23 54  1  0
 25 55  1  0
 25 56  1  0
 26 57  1  0
 26 58  1  0
 27 59  1  0
 27 60  1  0
 28 61  1  0
 28 62  1  0
 29 63  1  0
 30 64  1  0
 34 65  1  0
M  END
$$$$
