
     RDKit          3D

 33 35  0  0  0  0  0  0  0  0999 V2000
    6.1963   -0.1525   -0.3602 C   0  0  0  0  0  0  0  0  0  0  0  0
    5.2441   -1.1804   -0.1663 O   0  0  0  0  0  0  0  0  0  0  0  0
    3.9220   -0.8047    0.0257 C   0  0  0  0  0  0  0  0  0  0  0  0
    2.9154   -1.7432    0.2244 C   0  0  0  0  0  0  0  0  0  0  0  0
    1.6084   -1.3423    0.4129 C   0  0  0  0  0  0  0  0  0  0  0  0
    1.2403   -0.0134    0.4138 C   0  0  0  0  0  0  0  0  0  0  0  0
   -0.1380    0.3662    0.6145 C   0  0  0  0  0  0  0  0  0  0  0  0
   -0.5285    1.3904    1.4620 C   0  0  0  0  0  0  0  0  0  0  0  0
   -1.7888    1.7171    1.6278 O   0  0  0  0  0  0  0  0  0  0  0  0
   -2.7389    1.0693    0.9817 C   0  0  0  0  0  0  0  0  0  0  0  0
   -4.0728    1.3854    1.1316 C   0  0  0  0  0  0  0  0  0  0  0  0
   -5.0727    0.7138    0.4604 C   0  0  0  0  0  0  0  0  0  0  0  0
   -6.4152    1.0709    0.6449 O   0  0  0  0  0  0  0  0  0  0  0  0
   -4.7374   -0.3151   -0.3962 C   0  0  0  0  0  0  0  0  0  0  0  0
   -3.4158   -0.6529   -0.5661 C   0  0  0  0  0  0  0  0  0  0  0  0
   -3.0384   -1.6793   -1.4166 O   0  0  0  0  0  0  0  0  0  0  0  0
   -2.4309    0.0403    0.1225 C   0  0  0  0  0  0  0  0  0  0  0  0
   -1.1140   -0.3325   -0.0779 C   0  0  0  0  0  0  0  0  0  0  0  0
   -0.7995   -1.2674   -0.8554 O   0  0  0  0  0  0  0  0  0  0  0  0
    2.2285    0.9204    0.2182 C   0  0  0  0  0  0  0  0  0  0  0  0
    3.5283    0.5159    0.0310 C   0  0  0  0  0  0  0  0  0  0  0  0
    5.8971    0.5218   -1.2094 H   0  0  0  0  0  0  0  0  0  0  0  0
    7.1786   -0.5744   -0.6513 H   0  0  0  0  0  0  0  0  0  0  0  0
    6.2302    0.4620    0.5422 H   0  0  0  0  0  0  0  0  0  0  0  0
    3.1839   -2.7816    0.2267 H   0  0  0  0  0  0  0  0  0  0  0  0
    0.8511   -2.1178    0.5654 H   0  0  0  0  0  0  0  0  0  0  0  0
    0.2781    1.9139    1.9878 H   0  0  0  0  0  0  0  0  0  0  0  0
   -4.3360    2.2015    1.8113 H   0  0  0  0  0  0  0  0  0  0  0  0
   -7.1145    0.8082   -0.0381 H   0  0  0  0  0  0  0  0  0  0  0  0
   -5.4713   -0.8767   -0.9481 H   0  0  0  0  0  0  0  0  0  0  0  0
   -3.6309   -2.4906   -1.4593 H   0  0  0  0  0  0  0  0  0  0  0  0
    2.0129    1.9759    0.2069 H   0  0  0  0  0  0  0  0  0  0  0  0
    4.3287    1.2520   -0.1266 H   0  0  0  0  0  0  0  0  0  0  0  0
  1  2  1  0
  2  3  1  0
  3  4  2  0
  4  5  1  0
  5  6  2  0
  6  7  1  0
  7  8  2  0
  8  9  1  0
  9 10  1  0
 10 11  2  0
 11 12  1  0
 12 13  1  0
 12 14  2  0
 14 15  1  0
 15 16  1  0
 15 17  2  0
 17 18  1  0
 18 19  2  0
  6 20  1  0
 20 21  2  0
 21  3  1  0
 18  7  1  0
 17 10  1  0
  1 22  1  0
  1 23  1  0
  1 24  1  0
  4 25  1  0
  5 26  1  0
  8 27  1  0
 11 28  1  0
 13 29  1  0
 14 30  1  0
 16 31  1  0
 20 32  1  0
 21 33  1  0
M  END
$$$$
