
     RDKit          3D

 52 55  0  0  0  0  0  0  0  0999 V2000
    3.5916    4.2066    1.9732 C   0  0  0  0  0  0  0  0  0  0  0  0
    3.5661    3.3654    0.8380 O   0  0  0  0  0  0  0  0  0  0  0  0
    2.7582    2.2299    0.8341 C   0  0  0  0  0  0  0  0  0  0  0  0
    1.9780    1.9084    1.9216 C   0  0  0  0  0  0  0  0  0  0  0  0
    1.1748    0.7653    1.8994 C   0  0  0  0  0  0  0  0  0  0  0  0
    1.1617   -0.0453    0.7854 C   0  0  0  0  0  0  0  0  0  0  0  0
    0.3061   -1.2401    0.7934 C   0  0  0  0  0  0  0  0  0  0  0  0
   -1.1445   -0.8780    0.8359 C   0  0  0  0  0  0  0  0  0  0  0  0
   -1.9169   -1.2280    1.9200 C   0  0  0  0  0  0  0  0  0  0  0  0
   -3.2621   -0.8838    1.9461 C   0  0  0  0  0  0  0  0  0  0  0  0
   -3.7800   -0.1946    0.8691 C   0  0  0  0  0  0  0  0  0  0  0  0
   -3.0422    0.1763   -0.2382 C   0  0  0  0  0  0  0  0  0  0  0  0
   -3.6073    0.8992   -1.3580 C   0  0  0  0  0  0  0  0  0  0  0  0
   -2.8286    1.7727   -2.0790 C   0  0  0  0  0  0  0  0  0  0  0  0
   -3.3588    2.4794   -3.1666 C   0  0  0  0  0  0  0  0  0  0  0  0
   -4.6625    2.2976   -3.5130 C   0  0  0  0  0  0  0  0  0  0  0  0
   -5.4320    1.4340   -2.8004 N   0  0  0  0  0  0  0  0  0  0  0  0
   -4.9181    0.7427   -1.7384 C   0  0  0  0  0  0  0  0  0  0  0  0
   -1.6901   -0.1896   -0.2253 C   0  0  0  0  0  0  0  0  0  0  0  0
    0.6187   -1.9988    1.9700 N   0  0  0  0  0  0  0  0  0  0  0  0
    1.0267   -3.1665    1.6531 C   0  0  0  0  0  0  0  0  0  0  0  0
    1.4250   -4.1810    2.5999 N   0  0  0  0  0  0  0  0  0  0  0  0
    1.0341   -3.3735    0.2477 N   0  0  0  0  0  0  0  0  0  0  0  0
    1.4398   -4.5808   -0.4673 C   0  0  0  0  0  0  0  0  0  0  0  0
    0.5671   -2.1664   -0.3215 C   0  0  0  0  0  0  0  0  0  0  0  0
    0.4332   -2.0140   -1.5755 O   0  0  0  0  0  0  0  0  0  0  0  0
    1.9420    0.2917   -0.2802 C   0  0  0  0  0  0  0  0  0  0  0  0
    2.7524    1.4199   -0.2934 C   0  0  0  0  0  0  0  0  0  0  0  0
    3.5237    1.7140   -1.4026 O   0  0  0  0  0  0  0  0  0  0  0  0
    3.4675    0.8480   -2.5126 C   0  0  0  0  0  0  0  0  0  0  0  0
    4.3680    4.9806    1.8777 H   0  0  0  0  0  0  0  0  0  0  0  0
    3.7281    3.6584    2.9153 H   0  0  0  0  0  0  0  0  0  0  0  0
    2.6133    4.7546    2.0670 H   0  0  0  0  0  0  0  0  0  0  0  0
    2.0006    2.5594    2.7912 H   0  0  0  0  0  0  0  0  0  0  0  0
    0.5935    0.5785    2.7832 H   0  0  0  0  0  0  0  0  0  0  0  0
   -1.4866   -1.7713    2.7571 H   0  0  0  0  0  0  0  0  0  0  0  0
   -3.8848   -1.1593    2.8069 H   0  0  0  0  0  0  0  0  0  0  0  0
   -4.8292    0.0881    0.8616 H   0  0  0  0  0  0  0  0  0  0  0  0
   -1.7898    1.9635   -1.8586 H   0  0  0  0  0  0  0  0  0  0  0  0
   -2.7406    3.1503   -3.7115 H   0  0  0  0  0  0  0  0  0  0  0  0
   -5.0869    2.8363   -4.3510 H   0  0  0  0  0  0  0  0  0  0  0  0
   -5.5816    0.0778   -1.2213 H   0  0  0  0  0  0  0  0  0  0  0  0
   -1.1148    0.1104   -1.1089 H   0  0  0  0  0  0  0  0  0  0  0  0
    0.7730   -4.9434    2.8356 H   0  0  0  0  0  0  0  0  0  0  0  0
    2.3610   -4.1275    3.0285 H   0  0  0  0  0  0  0  0  0  0  0  0
    0.5950   -4.9868   -1.0733 H   0  0  0  0  0  0  0  0  0  0  0  0
    2.2704   -4.3695   -1.1621 H   0  0  0  0  0  0  0  0  0  0  0  0
    1.8131   -5.3035    0.2774 H   0  0  0  0  0  0  0  0  0  0  0  0
    1.9434   -0.3312   -1.1548 H   0  0  0  0  0  0  0  0  0  0  0  0
    4.1302    1.2719   -3.2999 H   0  0  0  0  0  0  0  0  0  0  0  0
    2.4071    0.7387   -2.8824 H   0  0  0  0  0  0  0  0  0  0  0  0
    3.7940   -0.1866   -2.2925 H   0  0  0  0  0  0  0  0  0  0  0  0
  1  2  1  0
  2  3  1  0
  3  4  2  0
  4  5  1  0
  5  6  2  0
  6  7  1  0
  7  8  1  0
  8  9  2  0
  9 10  1  0
 10 11  2  0
 11 12  1  0
 12 13  1  0
 13 14  2  0
 14 15  1  0
 15 16  2  0
 16 17  1  0
 17 18  2  0
 12 19  2  0
  7 20  1  0
 20 21  2  0
 21 22  1  0
 21 23  1  0
 23 24  1  0
 23 25  1  0
 25 26  2  0
  6 27  1  0
 27 28  2  0
 28 29  1  0
 29 30  1  0
 28  3  1  0
 25  7  1  0
 19  8  1  0
 18 13  1  0
  1 31  1  0
  1 32  1  0
  1 33  1  0
  4 34  1  0
  5 35  1  0
  9 36  1  0
 10 37  1  0
 11 38  1  0
 14 39  1  0
 15 40  1  0
 16 41  1  0
 18 42  1  0
 19 43  1  0
 22 44  1  0
 22 45  1  0
 24 46  1  0
 24 47  1  0
 24 48  1  0
 27 49  1  0
 30 50  1  0
 30 51  1  0
 30 52  1  0
M  END
$$$$
