
     RDKit          3D

 45 48  0  0  0  0  0  0  0  0999 V2000
    6.1099   -0.3225   -0.5364 C   0  0  0  0  0  0  0  0  0  0  0  0
    4.8950   -0.0536    0.2725 C   0  0  0  0  0  0  0  0  0  0  0  0
    4.7717   -0.1035    1.6395 C   0  0  0  0  0  0  0  0  0  0  0  0
    3.5331    0.2033    1.9208 O   0  0  0  0  0  0  0  0  0  0  0  0
    2.8434    0.4475    0.8537 C   0  0  0  0  0  0  0  0  0  0  0  0
    1.4107    0.8309    0.7027 C   0  0  1  0  0  0  0  0  0  0  0  0
    0.9429    0.7149   -0.7028 C   0  0  0  0  0  0  0  0  0  0  0  0
   -0.4456    0.1737   -0.9014 C   0  0  1  0  0  0  0  0  0  0  0  0
   -0.3131   -1.0103   -1.8351 C   0  0  1  0  0  0  0  0  0  0  0  0
    0.7736   -1.9600   -1.4314 C   0  0  0  0  0  0  0  0  0  0  0  0
   -1.8993   -1.9523   -1.8513 S   0  0  0  0  0  0  0  0  0  0  0  0
   -2.0494   -2.2971   -0.0728 C   0  0  0  0  0  0  0  0  0  0  0  0
   -2.4711   -3.5621    0.3486 N   0  0  0  0  0  0  0  0  0  0  0  0
   -1.7388   -1.2990    0.6394 N   0  0  0  0  0  0  0  0  0  0  0  0
   -1.3033    0.0177    0.2769 C   0  0  2  0  0  0  0  0  0  0  0  0
   -2.5374    0.8581    0.2557 C   0  0  0  0  0  0  0  0  0  0  0  0
   -3.7774    0.3309    0.5304 C   0  0  0  0  0  0  0  0  0  0  0  0
   -4.9297    1.0888    0.5083 C   0  0  0  0  0  0  0  0  0  0  0  0
   -4.8488    2.4115    0.2038 C   0  0  0  0  0  0  0  0  0  0  0  0
   -5.9547    3.2239    0.1635 F   0  0  0  0  0  0  0  0  0  0  0  0
   -3.6408    2.9811   -0.0761 C   0  0  0  0  0  0  0  0  0  0  0  0
   -2.4855    2.1871   -0.0462 C   0  0  0  0  0  0  0  0  0  0  0  0
   -1.3337    2.7790   -0.3155 F   0  0  0  0  0  0  0  0  0  0  0  0
   -0.5920    0.5153    1.5717 C   0  0  0  0  0  0  0  0  0  0  0  0
    0.6910   -0.0094    1.5466 O   0  0  0  0  0  0  0  0  0  0  0  0
    3.6741    0.2933   -0.1921 N   0  0  0  0  0  0  0  0  0  0  0  0
    6.9950   -0.0637    0.0976 H   0  0  0  0  0  0  0  0  0  0  0  0
    6.1235    0.2737   -1.4548 H   0  0  0  0  0  0  0  0  0  0  0  0
    6.1237   -1.3866   -0.8317 H   0  0  0  0  0  0  0  0  0  0  0  0
    5.5276   -0.3440    2.3569 H   0  0  0  0  0  0  0  0  0  0  0  0
    1.3223    1.8993    1.0594 H   0  0  0  0  0  0  0  0  0  0  0  0
    1.0908    1.7361   -1.1705 H   0  0  0  0  0  0  0  0  0  0  0  0
    1.7307    0.1054   -1.2454 H   0  0  0  0  0  0  0  0  0  0  0  0
   -0.9561    0.9518   -1.5678 H   0  0  0  0  0  0  0  0  0  0  0  0
   -0.0994   -0.6740   -2.8592 H   0  0  0  0  0  0  0  0  0  0  0  0
    1.7318   -1.7992   -1.9644 H   0  0  0  0  0  0  0  0  0  0  0  0
    1.0012   -1.9663   -0.3591 H   0  0  0  0  0  0  0  0  0  0  0  0
    0.4472   -2.9807   -1.7009 H   0  0  0  0  0  0  0  0  0  0  0  0
   -2.9182   -3.6771    1.2966 H   0  0  0  0  0  0  0  0  0  0  0  0
   -2.3543   -4.3972   -0.2527 H   0  0  0  0  0  0  0  0  0  0  0  0
   -3.8913   -0.7152    0.7775 H   0  0  0  0  0  0  0  0  0  0  0  0
   -5.8957    0.6540    0.7277 H   0  0  0  0  0  0  0  0  0  0  0  0
   -3.5838    4.0352   -0.3178 H   0  0  0  0  0  0  0  0  0  0  0  0
   -1.1793    0.2461    2.4524 H   0  0  0  0  0  0  0  0  0  0  0  0
   -0.5405    1.6151    1.4831 H   0  0  0  0  0  0  0  0  0  0  0  0
  1  2  1  0
  2  3  2  0
  3  4  1  0
  4  5  1  0
  5  6  1  0
  6  7  1  0
  7  8  1  0
  8  9  1  0
  9 10  1  0
  9 11  1  0
 11 12  1  0
 12 13  1  0
 12 14  2  0
 14 15  1  0
 15 16  1  6
 16 17  2  0
 17 18  1  0
 18 19  2  0
 19 20  1  0
 19 21  1  0
 21 22  2  0
 22 23  1  0
 15 24  1  0
 24 25  1  0
  5 26  2  0
 26  2  1  0
 25  6  1  0
 15  8  1  0
 22 16  1  0
  1 27  1  0
  1 28  1  0
  1 29  1  0
  3 30  1  0
  6 31  1  1
  7 32  1  0
  7 33  1  0
  8 34  1  6
  9 35  1  6
 10 36  1  0
 10 37  1  0
 10 38  1  0
 13 39  1  0
 13 40  1  0
 17 41  1  0
 18 42  1  0
 21 43  1  0
 24 44  1  0
 24 45  1  0
M  END
$$$$
