
     RDKit          3D

 57 60  0  0  0  0  0  0  0  0999 V2000
    6.1792    1.1500   -0.2840 O   0  0  0  0  0  0  0  0  0  0  0  0
    5.8352   -0.0307   -0.5045 C   0  0  0  0  0  0  0  0  0  0  0  0
    6.8845   -1.0795   -0.5948 C   0  0  0  0  0  0  0  0  0  0  0  0
    8.2469   -0.4982   -0.3961 C   0  0  0  0  0  0  0  0  0  0  0  0
    8.4967    0.1828    0.9114 C   0  0  0  0  0  0  0  0  0  0  0  0
    9.1815   -1.1033    0.6104 C   0  0  0  0  0  0  0  0  0  0  0  0
    4.4652   -0.3697   -0.6670 N   0  0  0  0  0  0  0  0  0  0  0  0
    3.4885    0.6750   -0.5717 C   0  0  0  0  0  0  0  0  0  0  0  0
    2.0805    0.1932   -0.7613 C   0  0  0  0  0  0  0  0  0  0  0  0
    1.9025   -0.3904   -2.0032 O   0  0  0  0  0  0  0  0  0  0  0  0
    1.1675    1.4208   -0.6650 C   0  0  0  0  0  0  0  0  0  0  0  0
   -0.2038    0.9488   -1.0982 C   0  0  0  0  0  0  0  0  0  0  0  0
   -0.6599   -0.1813   -0.3372 N   0  0  0  0  0  0  0  0  0  0  0  0
   -2.0430   -0.2961   -0.0367 C   0  0  0  0  0  0  0  0  0  0  0  0
   -2.8876    0.6459   -0.4632 N   0  0  0  0  0  0  0  0  0  0  0  0
   -4.2098    0.6183   -0.2261 C   0  0  0  0  0  0  0  0  0  0  0  0
   -4.9988    1.6464   -0.7137 O   0  0  0  0  0  0  0  0  0  0  0  0
   -6.3672    1.5943   -0.4546 C   0  0  0  0  0  0  0  0  0  0  0  0
   -6.8720    2.1803    0.6881 C   0  0  0  0  0  0  0  0  0  0  0  0
   -8.2460    2.1258    0.9444 C   0  0  0  0  0  0  0  0  0  0  0  0
   -9.1252    1.5015    0.0885 C   0  0  0  0  0  0  0  0  0  0  0  0
   -8.6173    0.9108   -1.0632 C   0  0  0  0  0  0  0  0  0  0  0  0
   -9.4707    0.2921   -1.9157 F   0  0  0  0  0  0  0  0  0  0  0  0
   -7.2553    0.9714   -1.3058 C   0  0  0  0  0  0  0  0  0  0  0  0
   -4.6837   -0.4575    0.5010 C   0  0  0  0  0  0  0  0  0  0  0  0
   -3.8416   -1.4549    0.9613 C   0  0  0  0  0  0  0  0  0  0  0  0
   -4.3487   -2.6102    1.7414 C   0  0  0  0  0  0  0  0  0  0  0  0
   -5.6275   -2.9624    1.2924 F   0  0  0  0  0  0  0  0  0  0  0  0
   -3.5675   -3.7279    1.5846 F   0  0  0  0  0  0  0  0  0  0  0  0
   -4.4957   -2.2396    3.0679 F   0  0  0  0  0  0  0  0  0  0  0  0
   -2.5330   -1.3448    0.6766 N   0  0  0  0  0  0  0  0  0  0  0  0
    0.2475   -1.2142    0.1367 C   0  0  0  0  0  0  0  0  0  0  0  0
    1.6465   -0.7433    0.3295 C   0  0  0  0  0  0  0  0  0  0  0  0
    6.7217   -1.8892    0.1551 H   0  0  0  0  0  0  0  0  0  0  0  0
    6.8566   -1.5579   -1.6040 H   0  0  0  0  0  0  0  0  0  0  0  0
    8.7179   -0.0587   -1.3119 H   0  0  0  0  0  0  0  0  0  0  0  0
    7.7119    0.2252    1.6755 H   0  0  0  0  0  0  0  0  0  0  0  0
    9.0702    1.1457    0.8413 H   0  0  0  0  0  0  0  0  0  0  0  0
    8.8495   -1.9980    1.2022 H   0  0  0  0  0  0  0  0  0  0  0  0
   10.2541   -1.1313    0.3834 H   0  0  0  0  0  0  0  0  0  0  0  0
    4.2398   -1.3689   -0.8485 H   0  0  0  0  0  0  0  0  0  0  0  0
    3.6126    1.2761    0.3443 H   0  0  0  0  0  0  0  0  0  0  0  0
    3.6989    1.3857   -1.4216 H   0  0  0  0  0  0  0  0  0  0  0  0
    2.5797   -0.0794   -2.6749 H   0  0  0  0  0  0  0  0  0  0  0  0
    1.4983    2.2049   -1.3599 H   0  0  0  0  0  0  0  0  0  0  0  0
    1.1035    1.7778    0.3791 H   0  0  0  0  0  0  0  0  0  0  0  0
   -0.1748    0.6280   -2.1680 H   0  0  0  0  0  0  0  0  0  0  0  0
   -0.9037    1.8006   -0.9467 H   0  0  0  0  0  0  0  0  0  0  0  0
   -6.1859    2.6721    1.3640 H   0  0  0  0  0  0  0  0  0  0  0  0
   -8.6601    2.5821    1.8396 H   0  0  0  0  0  0  0  0  0  0  0  0
  -10.1923    1.4401    0.2542 H   0  0  0  0  0  0  0  0  0  0  0  0
   -6.8326    0.5196   -2.1951 H   0  0  0  0  0  0  0  0  0  0  0  0
   -5.7426   -0.4877    0.6958 H   0  0  0  0  0  0  0  0  0  0  0  0
    0.1731   -2.0703   -0.5670 H   0  0  0  0  0  0  0  0  0  0  0  0
   -0.1839   -1.5917    1.1068 H   0  0  0  0  0  0  0  0  0  0  0  0
    1.7036   -0.1590    1.2915 H   0  0  0  0  0  0  0  0  0  0  0  0
    2.3166   -1.6190    0.3483 H   0  0  0  0  0  0  0  0  0  0  0  0
  1  2  2  0
  2  3  1  0
  3  4  1  0
  4  5  1  0
  5  6  1  0
  2  7  1  0
  7  8  1  0
  8  9  1  0
  9 10  1  0
  9 11  1  0
 11 12  1  0
 12 13  1  0
 13 14  1  0
 14 15  2  0
 15 16  1  0
 16 17  1  0
 17 18  1  0
 18 19  2  0
 19 20  1  0
 20 21  2  0
 21 22  1  0
 22 23  1  0
 22 24  2  0
 16 25  2  0
 25 26  1  0
 26 27  1  0
 27 28  1  0
 27 29  1  0
 27 30  1  0
 26 31  2  0
 13 32  1  0
 32 33  1  0
  6  4  1  0
 33  9  1  0
 31 14  1  0
 24 18  1  0
  3 34  1  0
  3 35  1  0
  4 36  1  0
  5 37  1  0
  5 38  1  0
  6 39  1  0
  6 40  1  0
  7 41  1  0
  8 42  1  0
  8 43  1  0
 10 44  1  0
 11 45  1  0
 11 46  1  0
 12 47  1  0
 12 48  1  0
 19 49  1  0
 20 50  1  0
 21 51  1  0
 24 52  1  0
 25 53  1  0
 32 54  1  0
 32 55  1  0
 33 56  1  0
 33 57  1  0
M  END
$$$$
