
     RDKit          3D

 57 59  0  0  0  0  0  0  0  0999 V2000
   -2.8094   -1.0836    1.5775 C   0  0  0  0  0  0  0  0  0  0  0  0
   -2.8641    0.2284    0.8441 C   0  0  0  0  0  0  0  0  0  0  0  0
   -2.8518    1.4913    1.5855 C   0  0  0  0  0  0  0  0  0  0  0  0
   -1.6608    0.2060   -0.0703 C   0  0  0  0  0  0  0  0  0  0  0  0
   -0.2996    0.0496    0.4327 C   0  0  0  0  0  0  0  0  0  0  0  0
   -0.0589   -1.1455    1.1557 O   0  0  0  0  0  0  0  0  0  0  0  0
    0.5159   -0.2148   -0.8812 C   0  0  0  0  0  0  0  0  0  0  0  0
    1.9240   -0.4173   -0.6820 C   0  0  0  0  0  0  0  0  0  0  0  0
    2.9261    0.5095   -0.7499 C   0  0  0  0  0  0  0  0  0  0  0  0
    4.1198   -0.1230   -0.5348 C   0  0  0  0  0  0  0  0  0  0  0  0
    5.4497    0.3284   -0.4921 C   0  0  0  0  0  0  0  0  0  0  0  0
    6.4860   -0.5445   -0.2503 C   0  0  0  0  0  0  0  0  0  0  0  0
    8.1564   -0.0749   -0.1801 S   0  0  0  0  0  6  0  0  0  0  0  0
    8.3970    1.6413   -0.4508 C   0  0  0  0  0  0  0  0  0  0  0  0
    8.9051   -0.8435   -1.2378 O   0  0  0  0  0  0  0  0  0  0  0  0
    8.7579   -0.4839    1.1564 O   0  0  0  0  0  0  0  0  0  0  0  0
    6.1715   -1.8349   -0.0589 N   0  0  0  0  0  0  0  0  0  0  0  0
    4.9186   -2.3006   -0.0922 C   0  0  0  0  0  0  0  0  0  0  0  0
    3.8566   -1.4494   -0.3326 C   0  0  0  0  0  0  0  0  0  0  0  0
    2.5294   -1.6061   -0.4252 N   0  0  0  0  0  0  0  0  0  0  0  0
    0.3968    1.1127    1.1773 C   0  0  0  0  0  0  0  0  0  0  0  0
   -0.1468    1.5117    2.3750 F   0  0  0  0  0  0  0  0  0  0  0  0
    0.6402    2.2493    0.3718 F   0  0  0  0  0  0  0  0  0  0  0  0
    1.7011    0.7098    1.5567 F   0  0  0  0  0  0  0  0  0  0  0  0
   -4.0630    0.1684   -0.0988 C   0  0  0  0  0  0  0  0  0  0  0  0
   -3.9198    0.2906   -1.4679 C   0  0  0  0  0  0  0  0  0  0  0  0
   -5.0277    0.2098   -2.3352 C   0  0  0  0  0  0  0  0  0  0  0  0
   -6.2671    0.0072   -1.8111 C   0  0  0  0  0  0  0  0  0  0  0  0
   -7.6444   -0.0953   -2.8759 Cl  0  0  0  0  0  0  0  0  0  0  0  0
   -6.4100   -0.1119   -0.4647 C   0  0  0  0  0  0  0  0  0  0  0  0
   -5.2949   -0.0305    0.4136 C   0  0  0  0  0  0  0  0  0  0  0  0
   -5.6380   -0.1273    1.7871 C   0  0  0  0  0  0  0  0  0  0  0  0
   -6.9525   -0.6297    2.2131 N   0  0  0  0  0  0  0  0  0  0  0  0
   -4.9385    0.1701    2.7511 O   0  0  0  0  0  0  0  0  0  0  0  0
   -2.1128   -1.8292    1.0402 H   0  0  0  0  0  0  0  0  0  0  0  0
   -2.5887   -1.0472    2.6317 H   0  0  0  0  0  0  0  0  0  0  0  0
   -3.7851   -1.6367    1.4261 H   0  0  0  0  0  0  0  0  0  0  0  0
   -2.6477    1.3883    2.6416 H   0  0  0  0  0  0  0  0  0  0  0  0
   -2.1506    2.2138    1.0392 H   0  0  0  0  0  0  0  0  0  0  0  0
   -3.8059    2.0915    1.5079 H   0  0  0  0  0  0  0  0  0  0  0  0
   -1.6677    1.1787   -0.6619 H   0  0  0  0  0  0  0  0  0  0  0  0
   -1.9120   -0.6489   -0.7916 H   0  0  0  0  0  0  0  0  0  0  0  0
    0.7102   -1.0783    1.7395 H   0  0  0  0  0  0  0  0  0  0  0  0
    0.0532   -1.0970   -1.3927 H   0  0  0  0  0  0  0  0  0  0  0  0
    0.2504    0.6604   -1.5298 H   0  0  0  0  0  0  0  0  0  0  0  0
    2.8489    1.5665   -0.9409 H   0  0  0  0  0  0  0  0  0  0  0  0
    5.6645    1.3621   -0.6488 H   0  0  0  0  0  0  0  0  0  0  0  0
    8.3613    1.8991   -1.5295 H   0  0  0  0  0  0  0  0  0  0  0  0
    7.6090    2.2212    0.1006 H   0  0  0  0  0  0  0  0  0  0  0  0
    9.3773    1.9614   -0.0407 H   0  0  0  0  0  0  0  0  0  0  0  0
    4.6898   -3.3424    0.0646 H   0  0  0  0  0  0  0  0  0  0  0  0
    2.0743   -2.5517   -0.3052 H   0  0  0  0  0  0  0  0  0  0  0  0
   -2.9469    0.4633   -1.8969 H   0  0  0  0  0  0  0  0  0  0  0  0
   -4.8768    0.3085   -3.3853 H   0  0  0  0  0  0  0  0  0  0  0  0
   -7.4165   -0.2737   -0.0556 H   0  0  0  0  0  0  0  0  0  0  0  0
   -7.7617   -0.0602    1.9430 H   0  0  0  0  0  0  0  0  0  0  0  0
   -6.9715   -1.5164    2.7519 H   0  0  0  0  0  0  0  0  0  0  0  0
  1  2  1  0
  2  3  1  0
  2  4  1  0
  4  5  1  0
  5  6  1  0
  5  7  1  0
  7  8  1  0
  8  9  2  0
  9 10  1  0
 10 11  2  0
 11 12  1  0
 12 13  1  0
 13 14  1  0
 13 15  2  0
 13 16  2  0
 12 17  2  0
 17 18  1  0
 18 19  2  0
 19 20  1  0
  5 21  1  0
 21 22  1  0
 21 23  1  0
 21 24  1  0
  2 25  1  0
 25 26  2  0
 26 27  1  0
 27 28  2  0
 28 29  1  0
 28 30  1  0
 30 31  2  0
 31 32  1  0
 32 33  1  0
 32 34  2  0
 20  8  1  0
 31 25  1  0
 19 10  1  0
  1 35  1  0
  1 36  1  0
  1 37  1  0
  3 38  1  0
  3 39  1  0
  3 40  1  0
  4 41  1  0
  4 42  1  0
  6 43  1  0
  7 44  1  0
  7 45  1  0
  9 46  1  0
 11 47  1  0
 14 48  1  0
 14 49  1  0
 14 50  1  0
 18 51  1  0
 20 52  1  0
 26 53  1  0
 27 54  1  0
 30 55  1  0
 33 56  1  0
 33 57  1  0
M  END
$$$$
