
     RDKit          3D

 51 54  0  0  0  0  0  0  0  0999 V2000
    2.0958    0.5744    2.5688 O   0  0  0  0  0  0  0  0  0  0  0  0
    1.1724    0.0023    1.8779 C   0  0  0  0  0  0  0  0  0  0  0  0
   -0.2421    0.3528    2.1095 C   0  0  0  0  0  0  0  0  0  0  0  0
   -1.0145    0.6174    0.9133 N   0  0  0  0  0  0  0  0  0  0  0  0
   -1.7290   -0.3525    0.2817 C   0  0  0  0  0  0  0  0  0  0  0  0
   -1.7029   -1.5335    0.7297 O   0  0  0  0  0  0  0  0  0  0  0  0
   -2.4844   -0.0932   -0.8371 C   0  0  0  0  0  0  0  0  0  0  0  0
   -3.3279   -1.1428   -1.5162 C   0  0  0  0  0  0  0  0  0  0  0  0
   -4.5744   -1.3429   -0.7124 C   0  0  0  0  0  0  0  0  0  0  0  0
   -5.6230   -0.4681   -0.8462 C   0  0  0  0  0  0  0  0  0  0  0  0
   -6.8058   -0.5967   -0.1058 C   0  0  0  0  0  0  0  0  0  0  0  0
   -6.8879   -1.6486    0.7808 C   0  0  0  0  0  0  0  0  0  0  0  0
   -5.8509   -2.5466    0.9380 C   0  0  0  0  0  0  0  0  0  0  0  0
   -4.6875   -2.3776    0.1753 C   0  0  0  0  0  0  0  0  0  0  0  0
   -2.5478    1.1492   -1.3664 N   0  0  0  0  0  0  0  0  0  0  0  0
   -1.8555    2.1175   -0.7688 C   0  0  0  0  0  0  0  0  0  0  0  0
   -1.9293    3.3796   -1.3105 C   0  0  0  0  0  0  0  0  0  0  0  0
   -1.2415    4.4375   -0.7416 C   0  0  0  0  0  0  0  0  0  0  0  0
   -0.4894    4.1732    0.3735 C   0  0  0  0  0  0  0  0  0  0  0  0
   -0.4166    2.8961    0.9192 C   0  0  0  0  0  0  0  0  0  0  0  0
   -1.0981    1.8558    0.3565 C   0  0  0  0  0  0  0  0  0  0  0  0
    1.6290   -0.9476    0.9262 N   0  0  0  0  0  0  0  0  0  0  0  0
    3.0083   -1.2176    0.7920 N   0  0  0  0  0  0  0  0  0  0  0  0
    3.8617   -0.4541   -0.0343 C   0  0  0  0  0  0  0  0  0  0  0  0
    3.3370    0.4843   -0.6665 O   0  0  0  0  0  0  0  0  0  0  0  0
    5.2884   -0.6916   -0.1900 C   0  0  0  0  0  0  0  0  0  0  0  0
    5.9940   -1.5840    0.6199 C   0  0  0  0  0  0  0  0  0  0  0  0
    7.3507   -1.7984    0.4483 C   0  0  0  0  0  0  0  0  0  0  0  0
    8.0742   -1.1490   -0.5273 C   0  0  0  0  0  0  0  0  0  0  0  0
    9.7839   -1.4215   -0.7614 Cl  0  0  0  0  0  0  0  0  0  0  0  0
    7.4034   -0.2694   -1.3348 C   0  0  0  0  0  0  0  0  0  0  0  0
    6.0408   -0.0662   -1.1444 C   0  0  0  0  0  0  0  0  0  0  0  0
   -0.2927    1.1820    2.8439 H   0  0  0  0  0  0  0  0  0  0  0  0
   -0.7511   -0.4958    2.6928 H   0  0  0  0  0  0  0  0  0  0  0  0
   -3.6248   -0.7460   -2.4970 H   0  0  0  0  0  0  0  0  0  0  0  0
   -2.7622   -2.1014   -1.6487 H   0  0  0  0  0  0  0  0  0  0  0  0
   -5.5839    0.3659   -1.5362 H   0  0  0  0  0  0  0  0  0  0  0  0
   -7.5941    0.1248   -0.2573 H   0  0  0  0  0  0  0  0  0  0  0  0
   -7.8095   -1.7642    1.3728 H   0  0  0  0  0  0  0  0  0  0  0  0
   -5.9539   -3.3543    1.6381 H   0  0  0  0  0  0  0  0  0  0  0  0
   -3.9107   -3.1093    0.3425 H   0  0  0  0  0  0  0  0  0  0  0  0
   -2.5251    3.6085   -2.1961 H   0  0  0  0  0  0  0  0  0  0  0  0
   -1.3059    5.4290   -1.1821 H   0  0  0  0  0  0  0  0  0  0  0  0
    0.0746    4.9785    0.8525 H   0  0  0  0  0  0  0  0  0  0  0  0
    0.1933    2.7531    1.7926 H   0  0  0  0  0  0  0  0  0  0  0  0
    0.9843   -1.4651    0.3245 H   0  0  0  0  0  0  0  0  0  0  0  0
    3.4510   -2.0045    1.3033 H   0  0  0  0  0  0  0  0  0  0  0  0
    5.4589   -2.1145    1.3965 H   0  0  0  0  0  0  0  0  0  0  0  0
    7.8927   -2.4972    1.0967 H   0  0  0  0  0  0  0  0  0  0  0  0
    7.9686    0.2405   -2.0985 H   0  0  0  0  0  0  0  0  0  0  0  0
    5.5594    0.6317   -1.8104 H   0  0  0  0  0  0  0  0  0  0  0  0
  1  2  2  0
  2  3  1  0
  3  4  1  0
  4  5  1  0
  5  6  2  0
  5  7  1  0
  7  8  1  0
  8  9  1  0
  9 10  2  0
 10 11  1  0
 11 12  2  0
 12 13  1  0
 13 14  2  0
  7 15  2  0
 15 16  1  0
 16 17  2  0
 17 18  1  0
 18 19  2  0
 19 20  1  0
 20 21  2  0
  2 22  1  0
 22 23  1  0
 23 24  1  0
 24 25  2  0
 24 26  1  0
 26 27  2  0
 27 28  1  0
 28 29  2  0
 29 30  1  0
 29 31  1  0
 31 32  2  0
 21  4  1  0
 32 26  1  0
 14  9  1  0
 21 16  1  0
  3 33  1  0
  3 34  1  0
  8 35  1  0
  8 36  1  0
 10 37  1  0
 11 38  1  0
 12 39  1  0
 13 40  1  0
 14 41  1  0
 17 42  1  0
 18 43  1  0
 19 44  1  0
 20 45  1  0
 22 46  1  0
 23 47  1  0
 27 48  1  0
 28 49  1  0
 31 50  1  0
 32 51  1  0
M  END
$$$$
