
     RDKit          3D

 62 65  0  0  0  0  0  0  0  0999 V2000
   -2.5049   -0.4438   -0.9851 C   0  0  2  0  0  0  0  0  0  0  0  0
   -2.5805    0.9757   -1.0834 N   0  0  0  0  0  0  0  0  0  0  0  0
   -3.0161   -0.9880    0.3236 C   0  0  0  0  0  0  0  0  0  0  0  0
   -2.7952   -2.2516    0.2380 O   0  0  0  0  0  0  0  0  0  0  0  0
   -3.6198   -0.2908    1.4402 N   0  0  0  0  0  0  0  0  0  0  0  0
   -3.9677    1.0987    1.7334 C   0  0  0  0  0  0  0  0  0  0  0  0
   -4.9273    0.9202    2.9177 C   0  0  0  0  0  0  0  0  0  0  0  0
   -4.1118   -0.1280    3.6870 C   0  0  0  0  0  0  0  0  0  0  0  0
   -4.8098   -0.6359    4.7359 F   0  0  0  0  0  0  0  0  0  0  0  0
   -2.8727    0.3872    4.0220 F   0  0  0  0  0  0  0  0  0  0  0  0
   -3.9700   -1.1536    2.5541 C   0  0  0  0  0  0  0  0  0  0  0  0
   -1.2453   -1.0760   -1.4509 C   0  0  1  0  0  0  0  0  0  0  0  0
   -1.0970   -0.7094   -2.8851 C   0  0  0  0  0  0  0  0  0  0  0  0
   -2.1421   -0.0186   -2.9930 O   0  0  0  0  0  0  0  0  0  0  0  0
   -0.8514   -0.4263   -4.2491 N   0  0  0  0  0  0  0  0  0  0  0  0
   -1.9080    0.4125   -4.7961 C   0  0  0  0  0  0  0  0  0  0  0  0
    0.3134   -0.9356   -4.9421 C   0  0  0  0  0  0  0  0  0  0  0  0
    0.0038   -0.8036   -0.7337 C   0  0  1  0  0  0  0  0  0  0  0  0
    0.3674    0.6583   -0.7281 C   0  0  0  0  0  0  0  0  0  0  0  0
    1.8873    0.6884   -0.4584 C   0  0  0  0  0  0  0  0  0  0  0  0
    1.9923    0.2448    1.0071 C   0  0  1  0  0  0  0  0  0  0  0  0
    1.5928   -1.1892    1.0735 C   0  0  0  0  0  0  0  0  0  0  0  0
    0.1453   -1.4054    0.6418 C   0  0  0  0  0  0  0  0  0  0  0  0
    3.3886    0.4254    1.4203 C   0  0  0  0  0  0  0  0  0  0  0  0
    4.2644   -0.3301    0.6609 C   0  0  0  0  0  0  0  0  0  0  0  0
    5.6081   -0.2915    0.8998 N   0  0  0  0  0  0  0  0  0  0  0  0
    6.6577   -0.8952    0.3435 N   0  0  0  0  0  0  0  0  0  0  0  0
    7.7956   -0.5241    0.9425 C   0  0  0  0  0  0  0  0  0  0  0  0
    7.4556    0.3447    1.9118 N   0  0  0  0  0  0  0  0  0  0  0  0
    6.1163    0.4776    1.8745 C   0  0  0  0  0  0  0  0  0  0  0  0
    5.2745    1.2459    2.6538 C   0  0  0  0  0  0  0  0  0  0  0  0
    3.9160    1.2148    2.4215 C   0  0  0  0  0  0  0  0  0  0  0  0
   -3.3011   -0.8225   -1.7140 H   0  0  0  0  0  0  0  0  0  0  0  0
   -3.5197    1.3267   -1.3985 H   0  0  0  0  0  0  0  0  0  0  0  0
   -2.3890    1.4448   -0.1781 H   0  0  0  0  0  0  0  0  0  0  0  0
   -3.1103    1.6840    2.0738 H   0  0  0  0  0  0  0  0  0  0  0  0
   -4.4881    1.5996    0.8921 H   0  0  0  0  0  0  0  0  0  0  0  0
   -5.8325    0.4215    2.5567 H   0  0  0  0  0  0  0  0  0  0  0  0
   -5.0558    1.8429    3.4758 H   0  0  0  0  0  0  0  0  0  0  0  0
   -3.2271   -1.9123    2.7984 H   0  0  0  0  0  0  0  0  0  0  0  0
   -4.9987   -1.5445    2.3875 H   0  0  0  0  0  0  0  0  0  0  0  0
   -1.4539   -2.1963   -1.4496 H   0  0  0  0  0  0  0  0  0  0  0  0
   -1.9152    1.3949   -4.2566 H   0  0  0  0  0  0  0  0  0  0  0  0
   -1.6685    0.6855   -5.8489 H   0  0  0  0  0  0  0  0  0  0  0  0
   -2.9102   -0.0506   -4.7422 H   0  0  0  0  0  0  0  0  0  0  0  0
    1.1021   -0.1516   -4.9935 H   0  0  0  0  0  0  0  0  0  0  0  0
    0.6442   -1.8223   -4.3645 H   0  0  0  0  0  0  0  0  0  0  0  0
   -0.0013   -1.2180   -5.9612 H   0  0  0  0  0  0  0  0  0  0  0  0
    0.8341   -1.2947   -1.3368 H   0  0  0  0  0  0  0  0  0  0  0  0
    0.1436    1.1345   -1.6770 H   0  0  0  0  0  0  0  0  0  0  0  0
   -0.0916    1.1211    0.1714 H   0  0  0  0  0  0  0  0  0  0  0  0
    2.3255   -0.0993   -1.0887 H   0  0  0  0  0  0  0  0  0  0  0  0
    2.2846    1.6933   -0.6123 H   0  0  0  0  0  0  0  0  0  0  0  0
    1.2769    0.8403    1.6052 H   0  0  0  0  0  0  0  0  0  0  0  0
    2.2318   -1.8360    0.4306 H   0  0  0  0  0  0  0  0  0  0  0  0
    1.6725   -1.5695    2.1216 H   0  0  0  0  0  0  0  0  0  0  0  0
   -0.5183   -0.9703    1.3910 H   0  0  0  0  0  0  0  0  0  0  0  0
    0.0329   -2.5063    0.5426 H   0  0  0  0  0  0  0  0  0  0  0  0
    3.9958   -0.9905   -0.1518 H   0  0  0  0  0  0  0  0  0  0  0  0
    8.8038   -0.8469    0.7093 H   0  0  0  0  0  0  0  0  0  0  0  0
    5.6124    1.8869    3.4536 H   0  0  0  0  0  0  0  0  0  0  0  0
    3.1620    1.7720    2.9660 H   0  0  0  0  0  0  0  0  0  0  0  0
  1  2  1  0
  1  3  1  0
  3  4  2  0
  3  5  1  0
  5  6  1  0
  6  7  1  0
  7  8  1  0
  8  9  1  0
  8 10  1  0
  8 11  1  0
  1 12  1  0
 12 13  1  0
 13 14  2  0
 13 15  1  0
 15 16  1  0
 15 17  1  0
 12 18  1  0
 18 19  1  0
 19 20  1  0
 20 21  1  0
 21 22  1  0
 22 23  1  0
 21 24  1  0
 24 25  2  0
 25 26  1  0
 26 27  1  0
 27 28  2  0
 28 29  1  0
 29 30  2  0
 30 31  1  0
 31 32  2  0
 11  5  1  0
 23 18  1  0
 32 24  1  0
 30 26  1  0
  1 33  1  6
  2 34  1  0
  2 35  1  0
  6 36  1  0
  6 37  1  0
  7 38  1  0
  7 39  1  0
 11 40  1  0
 11 41  1  0
 12 42  1  6
 16 43  1  0
 16 44  1  0
 16 45  1  0
 17 46  1  0
 17 47  1  0
 17 48  1  0
 18 49  1  6
 19 50  1  0
 19 51  1  0
 20 52  1  0
 20 53  1  0
 21 54  1  1
 22 55  1  0
 22 56  1  0
 23 57  1  0
 23 58  1  0
 25 59  1  0
 28 60  1  0
 31 61  1  0
 32 62  1  0
M  END
$$$$
