
     RDKit          3D

 56 60  0  0  0  0  0  0  0  0999 V2000
   -5.7189    0.7769    1.7864 C   0  0  0  0  0  0  0  0  0  0  0  0
   -5.3957   -0.1357    0.5999 C   0  0  0  0  0  0  0  0  0  0  0  0
   -6.7220   -0.4778   -0.1202 C   0  0  0  0  0  0  0  0  0  0  0  0
   -6.4172    0.8236   -0.8186 C   0  0  0  0  0  0  0  0  0  0  0  0
   -4.9885    0.5225   -0.5983 N   0  0  0  0  0  0  0  0  0  0  0  0
   -3.8444    0.8145   -1.3540 C   0  0  0  0  0  0  0  0  0  0  0  0
   -3.9789    1.4385   -2.4762 O   0  0  0  0  0  0  0  0  0  0  0  0
   -2.4979    0.4360   -0.9158 C   0  0  2  0  0  0  0  0  0  0  0  0
   -2.1957   -0.9766   -0.5336 C   0  0  0  0  0  0  0  0  0  0  0  0
   -2.1438    0.1308    0.4553 C   0  0  1  0  0  0  0  0  0  0  0  0
   -0.8282    0.6190    0.9894 C   0  0  1  0  0  0  0  0  0  0  0  0
   -0.9326    0.6634    2.5352 C   0  0  0  0  0  0  0  0  0  0  0  0
    0.2749   -0.3803    0.7587 C   0  0  0  0  0  0  0  0  0  0  0  0
    1.4578    0.0844    0.2366 C   0  0  0  0  0  0  0  0  0  0  0  0
    2.5162   -0.7666   -0.0043 C   0  0  0  0  0  0  0  0  0  0  0  0
    3.7972   -0.2920   -0.5794 C   0  0  0  0  0  0  0  0  0  0  0  0
    4.9147   -0.7513   -0.0665 C   0  0  0  0  0  0  0  0  0  0  0  0
    4.8968   -1.6437    0.9743 F   0  0  0  0  0  0  0  0  0  0  0  0
    6.2081   -0.3423   -0.5898 C   0  0  0  0  0  0  0  0  0  0  0  0
    6.3752    0.5003   -1.6431 C   0  0  0  0  0  0  0  0  0  0  0  0
    7.6683    0.8181   -2.0463 C   0  0  0  0  0  0  0  0  0  0  0  0
    8.7594    0.2944   -1.3972 C   0  0  0  0  0  0  0  0  0  0  0  0
   10.3657    0.7042   -1.9162 Cl  0  0  0  0  0  0  0  0  0  0  0  0
    8.5232   -0.5602   -0.3281 C   0  0  0  0  0  0  0  0  0  0  0  0
    7.2913   -0.8385    0.0254 N   0  0  0  0  0  0  0  0  0  0  0  0
    2.3178   -2.0953    0.3061 C   0  0  0  0  0  0  0  0  0  0  0  0
    1.1353   -2.5706    0.8297 C   0  0  0  0  0  0  0  0  0  0  0  0
    0.0803   -1.7052    1.0674 C   0  0  0  0  0  0  0  0  0  0  0  0
   -1.0941   -2.1710    1.5932 F   0  0  0  0  0  0  0  0  0  0  0  0
   -0.4154    1.9218    0.6166 N   0  0  0  0  0  0  0  0  0  0  0  0
   -0.4714    2.4112   -0.5517 C   0  0  0  0  0  0  0  0  0  0  0  0
   -0.0713    3.6964   -0.9609 N   0  0  0  0  0  0  0  0  0  0  0  0
   -1.1634    1.3122   -1.8160 S   0  0  0  0  0  0  0  0  0  0  0  0
   -6.7904    1.0346    1.8220 H   0  0  0  0  0  0  0  0  0  0  0  0
   -5.4234    0.2490    2.7028 H   0  0  0  0  0  0  0  0  0  0  0  0
   -5.0960    1.7160    1.7196 H   0  0  0  0  0  0  0  0  0  0  0  0
   -4.8889   -1.0841    0.8822 H   0  0  0  0  0  0  0  0  0  0  0  0
   -6.5671   -1.3603   -0.7441 H   0  0  0  0  0  0  0  0  0  0  0  0
   -7.5876   -0.4750    0.5590 H   0  0  0  0  0  0  0  0  0  0  0  0
   -6.7111    0.8947   -1.8765 H   0  0  0  0  0  0  0  0  0  0  0  0
   -6.7528    1.6785   -0.1737 H   0  0  0  0  0  0  0  0  0  0  0  0
   -1.3037   -1.4151   -1.0036 H   0  0  0  0  0  0  0  0  0  0  0  0
   -3.0497   -1.6990   -0.4894 H   0  0  0  0  0  0  0  0  0  0  0  0
   -2.9628    0.1645    1.1953 H   0  0  0  0  0  0  0  0  0  0  0  0
   -1.8896    1.1942    2.7357 H   0  0  0  0  0  0  0  0  0  0  0  0
   -0.1208    1.2528    2.9593 H   0  0  0  0  0  0  0  0  0  0  0  0
   -1.0413   -0.3480    2.9610 H   0  0  0  0  0  0  0  0  0  0  0  0
    1.6105    1.1420   -0.0083 H   0  0  0  0  0  0  0  0  0  0  0  0
    3.8230    0.4032   -1.3861 H   0  0  0  0  0  0  0  0  0  0  0  0
    5.5176    0.9055   -2.1473 H   0  0  0  0  0  0  0  0  0  0  0  0
    7.8175    1.4931   -2.8901 H   0  0  0  0  0  0  0  0  0  0  0  0
    9.4217   -0.9474    0.1531 H   0  0  0  0  0  0  0  0  0  0  0  0
    3.1526   -2.7915    0.1145 H   0  0  0  0  0  0  0  0  0  0  0  0
    1.0101   -3.6369    1.0656 H   0  0  0  0  0  0  0  0  0  0  0  0
   -0.6565    4.5116   -0.6761 H   0  0  0  0  0  0  0  0  0  0  0  0
    0.7859    3.8223   -1.5328 H   0  0  0  0  0  0  0  0  0  0  0  0
  1  2  1  0
  2  3  1  0
  3  4  1  0
  4  5  1  0
  5  6  1  0
  6  7  2  0
  8  6  1  1
  8  9  1  0
  9 10  1  0
 10 11  1  0
 11 12  1  1
 11 13  1  0
 13 14  2  0
 14 15  1  0
 15 16  1  0
 16 17  2  0
 17 18  1  0
 17 19  1  0
 19 20  2  0
 20 21  1  0
 21 22  2  0
 22 23  1  0
 22 24  1  0
 24 25  2  0
 15 26  2  0
 26 27  1  0
 27 28  2  0
 28 29  1  0
 11 30  1  0
 30 31  2  0
 31 32  1  0
 31 33  1  0
  5  2  1  0
 10  8  1  0
 28 13  1  0
 33  8  1  0
 25 19  1  0
  1 34  1  0
  1 35  1  0
  1 36  1  0
  2 37  1  0
  3 38  1  0
  3 39  1  0
  4 40  1  0
  4 41  1  0
  9 42  1  0
  9 43  1  0
 10 44  1  1
 12 45  1  0
 12 46  1  0
 12 47  1  0
 14 48  1  0
 16 49  1  0
 20 50  1  0
 21 51  1  0
 24 52  1  0
 26 53  1  0
 27 54  1  0
 32 55  1  0
 32 56  1  0
M  END
$$$$
