
     RDKit          3D

 33 35  0  0  0  0  0  0  0  0999 V2000
   -1.9743   -1.7756   -0.9651 C   0  0  0  0  0  0  0  0  0  0  0  0
   -2.4534   -0.4756   -0.4603 C   0  0  0  0  0  0  0  0  0  0  0  0
   -3.7708   -0.1184   -0.5244 C   0  0  0  0  0  0  0  0  0  0  0  0
   -4.2215    1.0819   -0.0598 C   0  0  0  0  0  0  0  0  0  0  0  0
   -3.2682    1.9412    0.4909 C   0  0  0  0  0  0  0  0  0  0  0  0
   -1.9265    1.5850    0.5596 C   0  0  0  0  0  0  0  0  0  0  0  0
   -1.4898    0.3474    0.0758 C   0  0  0  0  0  0  0  0  0  0  0  0
   -0.0976    0.0942    0.1995 N   0  0  0  0  0  0  0  0  0  0  0  0
    0.4367   -0.7862    1.0652 C   0  0  0  0  0  0  0  0  0  0  0  0
   -0.4680   -1.5502    1.9546 C   0  0  0  0  0  0  0  0  0  0  0  0
    1.7595   -1.0182    1.1738 N   0  0  0  0  0  0  0  0  0  0  0  0
    2.6457   -0.3455    0.3816 C   0  0  0  0  0  0  0  0  0  0  0  0
    4.0043   -0.5871    0.4968 C   0  0  0  0  0  0  0  0  0  0  0  0
    4.8621    0.1261   -0.3349 C   0  0  0  0  0  0  0  0  0  0  0  0
    4.3255    1.0313   -1.2262 C   0  0  0  0  0  0  0  0  0  0  0  0
    2.9694    1.2716   -1.3403 C   0  0  0  0  0  0  0  0  0  0  0  0
    2.1136    0.5664   -0.5171 C   0  0  0  0  0  0  0  0  0  0  0  0
    0.7431    0.7867   -0.6088 C   0  0  0  0  0  0  0  0  0  0  0  0
    0.3223    1.6298   -1.4470 O   0  0  0  0  0  0  0  0  0  0  0  0
   -0.9248   -1.7551   -1.3014 H   0  0  0  0  0  0  0  0  0  0  0  0
   -2.1956   -2.6167   -0.2628 H   0  0  0  0  0  0  0  0  0  0  0  0
   -2.5786   -2.0331   -1.8813 H   0  0  0  0  0  0  0  0  0  0  0  0
   -4.4635   -0.8088   -0.9543 H   0  0  0  0  0  0  0  0  0  0  0  0
   -5.2605    1.3057   -0.1364 H   0  0  0  0  0  0  0  0  0  0  0  0
   -3.6488    2.8879    0.8530 H   0  0  0  0  0  0  0  0  0  0  0  0
   -1.3095    2.3573    1.0136 H   0  0  0  0  0  0  0  0  0  0  0  0
   -0.0039   -1.7050    2.9702 H   0  0  0  0  0  0  0  0  0  0  0  0
   -0.6609   -2.5772    1.5819 H   0  0  0  0  0  0  0  0  0  0  0  0
   -1.4301   -1.0489    2.1529 H   0  0  0  0  0  0  0  0  0  0  0  0
    4.3708   -1.3134    1.2184 H   0  0  0  0  0  0  0  0  0  0  0  0
    5.9227   -0.0741   -0.2331 H   0  0  0  0  0  0  0  0  0  0  0  0
    5.0273    1.5804   -1.8707 H   0  0  0  0  0  0  0  0  0  0  0  0
    2.6433    1.9960   -2.0640 H   0  0  0  0  0  0  0  0  0  0  0  0
  1  2  1  0
  2  3  2  0
  3  4  1  0
  4  5  2  0
  5  6  1  0
  6  7  2  0
  7  8  1  0
  8  9  1  0
  9 10  1  0
  9 11  2  0
 11 12  1  0
 12 13  2  0
 13 14  1  0
 14 15  2  0
 15 16  1  0
 16 17  2  0
 17 18  1  0
 18 19  2  0
  7  2  1  0
 18  8  1  0
 17 12  1  0
  1 20  1  0
  1 21  1  0
  1 22  1  0
  3 23  1  0
  4 24  1  0
  5 25  1  0
  6 26  1  0
 10 27  1  0
 10 28  1  0
 10 29  1  0
 13 30  1  0
 14 31  1  0
 15 32  1  0
 16 33  1  0
M  END
$$$$
