
     RDKit          3D

 37 39  0  0  0  0  0  0  0  0999 V2000
    3.0517   -4.1100   -0.1525 O   0  0  0  0  0  0  0  0  0  0  0  0
    2.2522   -2.9971   -0.1432 C   0  0  0  0  0  0  0  0  0  0  0  0
    1.0414   -3.3201   -0.1007 O   0  0  0  0  0  0  0  0  0  0  0  0
    2.8343   -1.6438   -0.1806 C   0  0  0  0  0  0  0  0  0  0  0  0
    2.1994   -0.4027   -0.1771 C   0  0  0  0  0  0  0  0  0  0  0  0
    0.8018   -0.2052   -0.1341 C   0  0  0  0  0  0  0  0  0  0  0  0
   -0.3795    0.3003   -0.1035 C   0  0  0  0  0  0  0  0  0  0  0  0
   -1.7948   -0.0184   -0.0510 C   0  0  0  0  0  0  0  0  0  0  0  0
   -2.1615   -1.2301   -0.0180 O   0  0  0  0  0  0  0  0  0  0  0  0
   -2.6767    1.0864   -0.0408 N   0  0  0  0  0  0  0  0  0  0  0  0
   -4.0536    0.6671    0.0122 C   0  0  0  0  0  0  0  0  0  0  0  0
   -4.6452    0.4957    1.2545 C   0  0  0  0  0  0  0  0  0  0  0  0
   -5.9536    0.0983    1.4523 C   0  0  0  0  0  0  0  0  0  0  0  0
   -6.7198   -0.1434    0.3252 C   0  0  0  0  0  0  0  0  0  0  0  0
   -6.1576    0.0189   -0.9384 C   0  0  0  0  0  0  0  0  0  0  0  0
   -4.8637    0.4123   -1.0839 C   0  0  0  0  0  0  0  0  0  0  0  0
    3.1628    0.5644   -0.2216 C   0  0  0  0  0  0  0  0  0  0  0  0
    3.3267    1.9212   -0.2452 C   0  0  0  0  0  0  0  0  0  0  0  0
    1.8952    2.8900   -0.2110 Cl  0  0  0  0  0  0  0  0  0  0  0  0
    4.5024    2.6034   -0.2926 C   0  0  0  0  0  0  0  0  0  0  0  0
    5.6886    1.9041   -0.3215 C   0  0  0  0  0  0  0  0  0  0  0  0
    7.2464    2.6814   -0.3825 Cl  0  0  0  0  0  0  0  0  0  0  0  0
    5.5975    0.5319   -0.2999 C   0  0  0  0  0  0  0  0  0  0  0  0
    4.3669   -0.0788   -0.2518 C   0  0  0  0  0  0  0  0  0  0  0  0
    4.1390   -1.3896   -0.2264 N   0  0  0  0  0  0  0  0  0  0  0  0
    2.7895   -4.9389    0.3630 H   0  0  0  0  0  0  0  0  0  0  0  0
    0.2696   -1.1873   -0.0984 H   0  0  0  0  0  0  0  0  0  0  0  0
   -0.0600    1.3219   -0.1328 H   0  0  0  0  0  0  0  0  0  0  0  0
   -2.3528    2.0782   -0.0687 H   0  0  0  0  0  0  0  0  0  0  0  0
   -4.0386    0.6870    2.1420 H   0  0  0  0  0  0  0  0  0  0  0  0
   -6.3119   -0.0035    2.4858 H   0  0  0  0  0  0  0  0  0  0  0  0
   -7.7423   -0.4537    0.5071 H   0  0  0  0  0  0  0  0  0  0  0  0
   -6.7845   -0.1783   -1.7897 H   0  0  0  0  0  0  0  0  0  0  0  0
   -4.3904    0.5496   -2.0468 H   0  0  0  0  0  0  0  0  0  0  0  0
    4.5673    3.6733   -0.3092 H   0  0  0  0  0  0  0  0  0  0  0  0
    6.5174   -0.0276   -0.3222 H   0  0  0  0  0  0  0  0  0  0  0  0
    4.8364   -2.1567   -0.2385 H   0  0  0  0  0  0  0  0  0  0  0  0
  1  2  1  0
  2  3  2  0
  2  4  1  0
  4  5  2  0
  5  6  1  0
  6  7  2  0
  7  8  1  0
  8  9  2  0
  8 10  1  0
 10 11  1  0
 11 12  2  0
 12 13  1  0
 13 14  2  0
 14 15  1  0
 15 16  2  0
  5 17  1  0
 17 18  2  0
 18 19  1  0
 18 20  1  0
 20 21  2  0
 21 22  1  0
 21 23  1  0
 23 24  2  0
 24 25  1  0
 25  4  1  0
 16 11  1  0
 24 17  1  0
  1 26  1  0
  6 27  1  0
  7 28  1  0
 10 29  1  0
 12 30  1  0
 13 31  1  0
 14 32  1  0
 15 33  1  0
 16 34  1  0
 20 35  1  0
 23 36  1  0
 25 37  1  0
M  END
$$$$
