
     RDKit          3D

 52 54  0  0  0  0  0  0  0  0999 V2000
   -0.7259   -3.6119    0.3831 C   0  0  0  0  0  0  0  0  0  0  0  0
   -0.4690   -2.6072   -0.7583 C   0  0  0  0  0  0  0  0  0  0  0  0
   -0.9489   -3.2711   -2.0312 C   0  0  0  0  0  0  0  0  0  0  0  0
   -1.3477   -1.4481   -0.4363 C   0  0  0  0  0  0  0  0  0  0  0  0
   -2.7215   -1.6047   -0.6520 C   0  0  0  0  0  0  0  0  0  0  0  0
   -3.5755   -0.6466   -0.3307 N   0  0  0  0  0  0  0  0  0  0  0  0
   -3.2166    0.5542    0.2262 C   0  0  0  0  0  0  0  0  0  0  0  0
   -4.2612    1.4994    0.5229 C   0  0  0  0  0  0  0  0  0  0  0  0
   -5.5891    1.1473    0.2283 C   0  0  0  0  0  0  0  0  0  0  0  0
   -6.6624    1.9614    0.4652 C   0  0  0  0  0  0  0  0  0  0  0  0
   -8.2688    1.4302    0.0633 Cl  0  0  0  0  0  0  0  0  0  0  0  0
   -6.4725    3.1926    1.0178 C   0  0  0  0  0  0  0  0  0  0  0  0
   -5.2010    3.6017    1.3310 C   0  0  0  0  0  0  0  0  0  0  0  0
   -4.1143    2.7435    1.0765 C   0  0  0  0  0  0  0  0  0  0  0  0
   -2.8810    3.1753    1.3954 F   0  0  0  0  0  0  0  0  0  0  0  0
   -1.8844    0.7330    0.4456 C   0  0  0  0  0  0  0  0  0  0  0  0
   -0.9601   -0.2742    0.1093 C   0  0  0  0  0  0  0  0  0  0  0  0
    0.4196   -0.0169    0.3805 N   0  0  0  0  0  0  0  0  0  0  0  0
    1.2978    0.1258   -0.7179 C   0  0  0  0  0  0  0  0  0  0  0  0
    0.7947    0.1011   -2.0189 C   0  0  0  0  0  0  0  0  0  0  0  0
    1.5528    0.2295   -3.1312 C   0  0  0  0  0  0  0  0  0  0  0  0
    2.8689    0.3907   -2.9809 N   0  0  0  0  0  0  0  0  0  0  0  0
    3.4018    0.4206   -1.7348 C   0  0  0  0  0  0  0  0  0  0  0  0
    2.6675    0.2937   -0.5759 C   0  0  0  0  0  0  0  0  0  0  0  0
    3.3012    0.3253    0.7253 C   0  0  0  0  0  0  0  0  0  0  0  0
    2.7051    0.1906    1.8270 O   0  0  0  0  0  0  0  0  0  0  0  0
    4.7101    0.5206    0.8532 N   0  0  0  0  0  0  0  0  0  0  0  0
    5.3127    0.5460    2.1874 C   0  0  0  0  0  0  0  0  0  0  0  0
    6.7626    0.7598    2.0380 C   0  0  0  0  0  0  0  0  0  0  0  0
    7.3234    0.8983    0.7505 N   0  0  0  0  0  0  0  0  0  0  0  0
    7.5274    0.8238    3.0317 O   0  0  0  0  0  0  0  0  0  0  0  0
   -0.5942   -4.6580    0.0143 H   0  0  0  0  0  0  0  0  0  0  0  0
    0.0294   -3.4341    1.1613 H   0  0  0  0  0  0  0  0  0  0  0  0
   -1.7271   -3.4631    0.8239 H   0  0  0  0  0  0  0  0  0  0  0  0
    0.5870   -2.3326   -0.7731 H   0  0  0  0  0  0  0  0  0  0  0  0
   -0.0908   -3.8344   -2.4478 H   0  0  0  0  0  0  0  0  0  0  0  0
   -1.3488   -2.5253   -2.7565 H   0  0  0  0  0  0  0  0  0  0  0  0
   -1.7876   -3.9519   -1.7649 H   0  0  0  0  0  0  0  0  0  0  0  0
   -3.0718   -2.5201   -1.0850 H   0  0  0  0  0  0  0  0  0  0  0  0
   -5.7560    0.1559   -0.2182 H   0  0  0  0  0  0  0  0  0  0  0  0
   -7.2904    3.8502    1.2144 H   0  0  0  0  0  0  0  0  0  0  0  0
   -5.0032    4.5794    1.7749 H   0  0  0  0  0  0  0  0  0  0  0  0
   -1.5353    1.6514    0.8795 H   0  0  0  0  0  0  0  0  0  0  0  0
    0.6704    0.0501    1.3652 H   0  0  0  0  0  0  0  0  0  0  0  0
   -0.2816   -0.0304   -2.1512 H   0  0  0  0  0  0  0  0  0  0  0  0
    1.1146    0.2042   -4.1340 H   0  0  0  0  0  0  0  0  0  0  0  0
    4.4893    0.5537   -1.6352 H   0  0  0  0  0  0  0  0  0  0  0  0
    5.3175    0.6451    0.0390 H   0  0  0  0  0  0  0  0  0  0  0  0
    4.8143    1.3679    2.7639 H   0  0  0  0  0  0  0  0  0  0  0  0
    5.0680   -0.4209    2.6997 H   0  0  0  0  0  0  0  0  0  0  0  0
    7.1462    1.7726    0.2215 H   0  0  0  0  0  0  0  0  0  0  0  0
    7.9046    0.1567    0.3182 H   0  0  0  0  0  0  0  0  0  0  0  0
  1  2  1  0
  2  3  1  0
  2  4  1  0
  4  5  2  0
  5  6  1  0
  6  7  2  0
  7  8  1  0
  8  9  2  0
  9 10  1  0
 10 11  1  0
 10 12  2  0
 12 13  1  0
 13 14  2  0
 14 15  1  0
  7 16  1  0
 16 17  2  0
 17 18  1  0
 18 19  1  0
 19 20  2  0
 20 21  1  0
 21 22  2  0
 22 23  1  0
 23 24  2  0
 24 25  1  0
 25 26  2  0
 25 27  1  0
 27 28  1  0
 28 29  1  0
 29 30  1  0
 29 31  2  0
 17  4  1  0
 24 19  1  0
 14  8  1  0
  1 32  1  0
  1 33  1  0
  1 34  1  0
  2 35  1  0
  3 36  1  0
  3 37  1  0
  3 38  1  0
  5 39  1  0
  9 40  1  0
 12 41  1  0
 13 42  1  0
 16 43  1  0
 18 44  1  0
 20 45  1  0
 21 46  1  0
 23 47  1  0
 27 48  1  0
 28 49  1  0
 28 50  1  0
 30 51  1  0
 30 52  1  0
M  END
$$$$
