
     RDKit          3D

 44 48  0  0  0  0  0  0  0  0999 V2000
   -0.9392   -0.8736    0.5988 C   0  0  0  0  0  0  0  0  0  0  0  0
   -2.2952   -0.8974    0.7697 C   0  0  0  0  0  0  0  0  0  0  0  0
   -3.0170    0.2351    0.3721 C   0  0  0  0  0  0  0  0  0  0  0  0
   -4.4270    0.1688    0.5562 N   0  0  0  0  0  0  0  0  0  0  0  0
   -5.0662   -1.1074    0.8913 C   0  0  0  0  0  0  0  0  0  0  0  0
   -6.5346   -0.9084    0.5758 C   0  0  0  0  0  0  0  0  0  0  0  0
   -6.7448   -0.3077   -0.6599 O   0  0  0  0  0  0  0  0  0  0  0  0
   -6.2552    0.9939   -0.7054 C   0  0  0  0  0  0  0  0  0  0  0  0
   -5.3198    1.2826    0.4475 C   0  0  0  0  0  0  0  0  0  0  0  0
   -2.3623    1.3208   -0.1686 C   0  0  0  0  0  0  0  0  0  0  0  0
   -0.9711    1.2865   -0.3188 C   0  0  0  0  0  0  0  0  0  0  0  0
   -0.2605    0.1794    0.0692 C   0  0  0  0  0  0  0  0  0  0  0  0
    1.1937    0.1365   -0.0870 C   0  0  0  0  0  0  0  0  0  0  0  0
    1.9394   -0.5813    0.8287 C   0  0  0  0  0  0  0  0  0  0  0  0
    3.2786   -0.6489    0.7238 N   0  0  0  0  0  0  0  0  0  0  0  0
    3.8852    0.0027   -0.3010 C   0  0  0  0  0  0  0  0  0  0  0  0
    5.2356    0.0784   -0.6133 C   0  0  0  0  0  0  0  0  0  0  0  0
    6.3479   -0.5415    0.1082 C   0  0  0  0  0  0  0  0  0  0  0  0
    6.4598   -1.8218    0.6095 C   0  0  0  0  0  0  0  0  0  0  0  0
    7.6573   -1.9402    1.1930 N   0  0  0  0  0  0  0  0  0  0  0  0
    8.3187   -0.8046    1.0924 N   0  0  0  0  0  0  0  0  0  0  0  0
    7.5377    0.0801    0.4277 C   0  0  0  0  0  0  0  0  0  0  0  0
    5.2839    0.8676   -1.7514 C   0  0  0  0  0  0  0  0  0  0  0  0
    4.0284    1.2168   -2.0622 N   0  0  0  0  0  0  0  0  0  0  0  0
    3.1625    0.7041   -1.1967 N   0  0  0  0  0  0  0  0  0  0  0  0
    1.8228    0.7927   -1.1218 C   0  0  0  0  0  0  0  0  0  0  0  0
   -0.3802   -1.7530    0.9075 H   0  0  0  0  0  0  0  0  0  0  0  0
   -2.8056   -1.7701    1.2050 H   0  0  0  0  0  0  0  0  0  0  0  0
   -4.6216   -1.9269    0.3296 H   0  0  0  0  0  0  0  0  0  0  0  0
   -4.9734   -1.2219    1.9868 H   0  0  0  0  0  0  0  0  0  0  0  0
   -7.0673   -0.3987    1.4039 H   0  0  0  0  0  0  0  0  0  0  0  0
   -6.9846   -1.9298    0.5005 H   0  0  0  0  0  0  0  0  0  0  0  0
   -7.0256    1.7664   -0.7053 H   0  0  0  0  0  0  0  0  0  0  0  0
   -5.6697    1.0926   -1.6455 H   0  0  0  0  0  0  0  0  0  0  0  0
   -4.7552    2.1951    0.2294 H   0  0  0  0  0  0  0  0  0  0  0  0
   -5.8835    1.4066    1.3981 H   0  0  0  0  0  0  0  0  0  0  0  0
   -2.9228    2.1972   -0.4802 H   0  0  0  0  0  0  0  0  0  0  0  0
   -0.4779    2.1649   -0.7517 H   0  0  0  0  0  0  0  0  0  0  0  0
    1.4042   -1.0932    1.6428 H   0  0  0  0  0  0  0  0  0  0  0  0
    5.6835   -2.5684    0.5209 H   0  0  0  0  0  0  0  0  0  0  0  0
    9.2772   -0.6420    1.4690 H   0  0  0  0  0  0  0  0  0  0  0  0
    7.8157    1.0960    0.1955 H   0  0  0  0  0  0  0  0  0  0  0  0
    6.2119    1.1273   -2.2634 H   0  0  0  0  0  0  0  0  0  0  0  0
    1.2162    1.3444   -1.8207 H   0  0  0  0  0  0  0  0  0  0  0  0
  1  2  2  0
  2  3  1  0
  3  4  1  0
  4  5  1  0
  5  6  1  0
  6  7  1  0
  7  8  1  0
  8  9  1  0
  3 10  2  0
 10 11  1  0
 11 12  2  0
 12 13  1  0
 13 14  1  0
 14 15  2  0
 15 16  1  0
 16 17  2  0
 17 18  1  0
 18 19  1  0
 19 20  2  0
 20 21  1  0
 21 22  1  0
 17 23  1  0
 23 24  2  0
 24 25  1  0
 25 26  1  0
 12  1  1  0
 26 13  2  0
  9  4  1  0
 25 16  1  0
 22 18  2  0
  1 27  1  0
  2 28  1  0
  5 29  1  0
  5 30  1  0
  6 31  1  0
  6 32  1  0
  8 33  1  0
  8 34  1  0
  9 35  1  0
  9 36  1  0
 10 37  1  0
 11 38  1  0
 14 39  1  0
 19 40  1  0
 21 41  1  0
 22 42  1  0
 23 43  1  0
 26 44  1  0
M  END
$$$$
