
     RDKit          3D

 83 87  0  0  0  0  0  0  0  0999 V2000
    6.3013   -0.4662    2.0252 C   0  0  0  0  0  0  0  0  0  0  0  0
    6.2538   -0.9099    0.6436 C   0  0  0  0  0  0  0  0  0  0  0  0
    7.2399   -1.6407    0.2249 O   0  0  0  0  0  0  0  0  0  0  0  0
    5.2481   -0.6307   -0.2923 N   0  0  0  0  0  0  0  0  0  0  0  0
    5.4302   -1.2122   -1.6393 C   0  0  0  0  0  0  0  0  0  0  0  0
    4.0794    0.1692   -0.0054 C   0  0  0  0  0  0  0  0  0  0  0  0
    4.4814    1.5749    0.1918 C   0  0  0  0  0  0  0  0  0  0  0  0
    4.0744    2.3257    1.2747 C   0  0  0  0  0  0  0  0  0  0  0  0
    4.4521    3.6566    1.4483 C   0  0  0  0  0  0  0  0  0  0  0  0
    5.2531    4.2553    0.5253 C   0  0  0  0  0  0  0  0  0  0  0  0
    5.6789    3.5383   -0.5675 C   0  0  0  0  0  0  0  0  0  0  0  0
    5.2901    2.2273   -0.7125 C   0  0  0  0  0  0  0  0  0  0  0  0
    3.2998   -0.4363    1.1009 C   0  0  0  0  0  0  0  0  0  0  0  0
    1.8303   -0.1550    1.1003 C   0  0  0  0  0  0  0  0  0  0  0  0
    1.1592   -0.1980   -0.1478 N   0  0  0  0  0  0  0  0  0  0  0  0
    0.7201   -1.5168   -0.4051 C   0  0  0  0  0  0  0  0  0  0  0  0
    0.0054   -1.8325   -1.6553 C   0  0  0  0  0  0  0  0  0  0  0  0
   -1.2573   -1.1370   -1.9612 C   0  0  0  0  0  0  0  0  0  0  0  0
   -2.3667   -1.2881   -0.9210 C   0  0  2  0  0  0  0  0  0  0  0  0
   -2.7104   -2.6819   -0.6714 C   0  0  0  0  0  0  0  0  0  0  0  0
   -2.6519   -3.5617   -1.7306 C   0  0  0  0  0  0  0  0  0  0  0  0
   -2.9568   -4.8862   -1.5026 C   0  0  0  0  0  0  0  0  0  0  0  0
   -3.3173   -5.3443   -0.2417 C   0  0  0  0  0  0  0  0  0  0  0  0
   -3.7093   -7.0415    0.0655 Cl  0  0  0  0  0  0  0  0  0  0  0  0
   -3.3625   -4.4244    0.7937 C   0  0  0  0  0  0  0  0  0  0  0  0
   -3.8113   -4.9412    2.4263 Cl  0  0  0  0  0  0  0  0  0  0  0  0
   -3.0660   -3.0970    0.6068 C   0  0  0  0  0  0  0  0  0  0  0  0
   -3.6063   -0.7290   -1.7014 C   0  0  0  0  0  0  0  0  0  0  0  0
   -4.8138   -1.0380   -0.8570 C   0  0  0  0  0  0  0  0  0  0  0  0
   -4.7005   -0.1662    0.4057 C   0  0  0  0  0  0  0  0  0  0  0  0
   -3.4106    0.4692    0.4399 N   0  0  0  0  0  0  0  0  0  0  0  0
   -3.3300    1.8680    0.6401 C   0  0  0  0  0  0  0  0  0  0  0  0
   -2.1847    2.4009    0.6730 O   0  0  0  0  0  0  0  0  0  0  0  0
   -4.4771    2.7243    0.8080 C   0  0  0  0  0  0  0  0  0  0  0  0
   -4.8542    3.6234   -0.1916 C   0  0  0  0  0  0  0  0  0  0  0  0
   -5.9434    4.4304   -0.0206 C   0  0  0  0  0  0  0  0  0  0  0  0
   -6.6964    4.3843    1.1307 C   0  0  0  0  0  0  0  0  0  0  0  0
   -6.3078    3.4891    2.1098 C   0  0  0  0  0  0  0  0  0  0  0  0
   -5.2089    2.6549    1.9708 C   0  0  0  0  0  0  0  0  0  0  0  0
   -2.2234   -0.3787    0.2408 C   0  0  0  0  0  0  0  0  0  0  0  0
    1.8453    0.4628   -1.1641 C   0  0  0  0  0  0  0  0  0  0  0  0
    3.2890    0.1545   -1.3192 C   0  0  0  0  0  0  0  0  0  0  0  0
    7.3713   -0.5865    2.3843 H   0  0  0  0  0  0  0  0  0  0  0  0
    5.9681    0.5622    2.1793 H   0  0  0  0  0  0  0  0  0  0  0  0
    5.7000   -1.1278    2.7051 H   0  0  0  0  0  0  0  0  0  0  0  0
    5.2153   -0.4884   -2.4393 H   0  0  0  0  0  0  0  0  0  0  0  0
    6.5121   -1.4678   -1.7334 H   0  0  0  0  0  0  0  0  0  0  0  0
    4.8906   -2.1811   -1.7319 H   0  0  0  0  0  0  0  0  0  0  0  0
    3.4559    1.9299    2.0496 H   0  0  0  0  0  0  0  0  0  0  0  0
    4.1159    4.2181    2.3071 H   0  0  0  0  0  0  0  0  0  0  0  0
    5.5607    5.3018    0.6428 H   0  0  0  0  0  0  0  0  0  0  0  0
    6.3187    4.0203   -1.3095 H   0  0  0  0  0  0  0  0  0  0  0  0
    5.6284    1.6712   -1.5761 H   0  0  0  0  0  0  0  0  0  0  0  0
    3.4425   -1.5522    1.1239 H   0  0  0  0  0  0  0  0  0  0  0  0
    3.6881   -0.0723    2.0703 H   0  0  0  0  0  0  0  0  0  0  0  0
    1.3742   -0.9910    1.7261 H   0  0  0  0  0  0  0  0  0  0  0  0
    1.5055    0.7534    1.6309 H   0  0  0  0  0  0  0  0  0  0  0  0
    1.6454   -2.1894   -0.3378 H   0  0  0  0  0  0  0  0  0  0  0  0
    0.1272   -1.9228    0.5023 H   0  0  0  0  0  0  0  0  0  0  0  0
    0.7204   -1.6166   -2.5089 H   0  0  0  0  0  0  0  0  0  0  0  0
   -0.0898   -2.9586   -1.7207 H   0  0  0  0  0  0  0  0  0  0  0  0
   -1.0341   -0.0262   -1.9701 H   0  0  0  0  0  0  0  0  0  0  0  0
   -1.6271   -1.3444   -2.9765 H   0  0  0  0  0  0  0  0  0  0  0  0
   -2.3780   -3.2513   -2.7229 H   0  0  0  0  0  0  0  0  0  0  0  0
   -2.9221   -5.6208   -2.3151 H   0  0  0  0  0  0  0  0  0  0  0  0
   -3.1009   -2.3963    1.4371 H   0  0  0  0  0  0  0  0  0  0  0  0
   -3.4598    0.3558   -1.7053 H   0  0  0  0  0  0  0  0  0  0  0  0
   -3.6513   -1.1912   -2.6874 H   0  0  0  0  0  0  0  0  0  0  0  0
   -5.7293   -0.7519   -1.4303 H   0  0  0  0  0  0  0  0  0  0  0  0
   -4.9193   -2.0684   -0.5315 H   0  0  0  0  0  0  0  0  0  0  0  0
   -4.8303   -0.7821    1.3230 H   0  0  0  0  0  0  0  0  0  0  0  0
   -5.5386    0.5288    0.3861 H   0  0  0  0  0  0  0  0  0  0  0  0
   -4.2319    3.6303   -1.1029 H   0  0  0  0  0  0  0  0  0  0  0  0
   -6.1752    5.1031   -0.8518 H   0  0  0  0  0  0  0  0  0  0  0  0
   -7.5677    5.0382    1.2515 H   0  0  0  0  0  0  0  0  0  0  0  0
   -6.8833    3.4321    3.0380 H   0  0  0  0  0  0  0  0  0  0  0  0
   -4.9196    1.9625    2.7522 H   0  0  0  0  0  0  0  0  0  0  0  0
   -1.8712   -0.8057    1.1759 H   0  0  0  0  0  0  0  0  0  0  0  0
   -1.4383    0.3838   -0.0654 H   0  0  0  0  0  0  0  0  0  0  0  0
    1.6840    1.5897   -1.0281 H   0  0  0  0  0  0  0  0  0  0  0  0
    1.3773    0.2154   -2.1671 H   0  0  0  0  0  0  0  0  0  0  0  0
    3.3568   -0.8625   -1.7852 H   0  0  0  0  0  0  0  0  0  0  0  0
    3.7441    0.8631   -2.0337 H   0  0  0  0  0  0  0  0  0  0  0  0
  1  2  1  0
  2  3  2  0
  2  4  1  0
  4  5  1  0
  4  6  1  0
  6  7  1  0
  7  8  2  0
  8  9  1  0
  9 10  2  0
 10 11  1  0
 11 12  2  0
  6 13  1  0
 13 14  1  0
 14 15  1  0
 15 16  1  0
 16 17  1  0
 17 18  1  0
 19 18  1  6
 19 20  1  0
 20 21  2  0
 21 22  1  0
 22 23  2  0
 23 24  1  0
 23 25  1  0
 25 26  1  0
 25 27  2  0
 19 28  1  0
 28 29  1  0
 29 30  1  0
 30 31  1  0
 31 32  1  0
 32 33  2  0
 32 34  1  0
 34 35  2  0
 35 36  1  0
 36 37  2  0
 37 38  1  0
 38 39  2  0
 31 40  1  0
 15 41  1  0
 41 42  1  0
 42  6  1  0
 12  7  1  0
 40 19  1  0
 27 20  1  0
 39 34  1  0
  1 43  1  0
  1 44  1  0
  1 45  1  0
  5 46  1  0
  5 47  1  0
  5 48  1  0
  8 49  1  0
  9 50  1  0
 10 51  1  0
 11 52  1  0
 12 53  1  0
 13 54  1  0
 13 55  1  0
 14 56  1  0
 14 57  1  0
 16 58  1  0
 16 59  1  0
 17 60  1  0
 17 61  1  0
 18 62  1  0
 18 63  1  0
 21 64  1  0
 22 65  1  0
 27 66  1  0
 28 67  1  0
 28 68  1  0
 29 69  1  0
 29 70  1  0
 30 71  1  0
 30 72  1  0
 35 73  1  0
 36 74  1  0
 37 75  1  0
 38 76  1  0
 39 77  1  0
 40 78  1  0
 40 79  1  0
 41 80  1  0
 41 81  1  0
 42 82  1  0
 42 83  1  0
M  END
$$$$
