
     RDKit          3D

 91 96  0  0  0  0  0  0  0  0999 V2000
    7.4622    4.7437    2.3393 C   0  0  0  0  0  0  0  0  0  0  0  0
    7.6405    3.3726    2.0586 O   0  0  0  0  0  0  0  0  0  0  0  0
    6.5629    2.6656    1.5488 C   0  0  0  0  0  0  0  0  0  0  0  0
    5.3544    3.2346    1.3119 C   0  0  0  0  0  0  0  0  0  0  0  0
    4.2692    2.5358    0.8015 C   0  0  0  0  0  0  0  0  0  0  0  0
    4.4339    1.2046    0.5255 C   0  0  0  0  0  0  0  0  0  0  0  0
    5.6828    0.6121    0.7695 C   0  0  0  0  0  0  0  0  0  0  0  0
    6.7566    1.2976    1.2728 C   0  0  0  0  0  0  0  0  0  0  0  0
    7.9986    0.7645    1.5282 O   0  0  0  0  0  0  0  0  0  0  0  0
    8.3307   -0.5533    1.3043 C   0  0  0  0  0  0  0  0  0  0  0  0
    8.8232   -1.2071    2.5898 C   0  0  0  0  0  0  0  0  0  0  0  0
    9.5068   -0.6489    0.3191 C   0  0  0  0  0  0  0  0  0  0  0  0
    3.3624    0.3126   -0.0302 C   0  0  2  0  0  0  0  0  0  0  0  0
    3.9064   -0.3400   -1.2674 C   0  0  0  0  0  0  0  0  0  0  0  0
    4.3685   -1.6313   -1.2224 C   0  0  0  0  0  0  0  0  0  0  0  0
    4.8813   -2.2755   -2.3388 C   0  0  0  0  0  0  0  0  0  0  0  0
    4.9382   -1.6119   -3.5501 C   0  0  0  0  0  0  0  0  0  0  0  0
    5.5711   -2.3680   -4.9863 Cl  0  0  0  0  0  0  0  0  0  0  0  0
    4.4760   -0.3162   -3.6006 C   0  0  0  0  0  0  0  0  0  0  0  0
    3.9627    0.3124   -2.4578 C   0  0  0  0  0  0  0  0  0  0  0  0
    2.1859    1.0536   -0.4135 N   0  0  0  0  0  0  0  0  0  0  0  0
    0.9829    0.3549   -0.6858 C   0  0  0  0  0  0  0  0  0  0  0  0
   -0.1308    1.0286   -1.1060 C   0  0  0  0  0  0  0  0  0  0  0  0
   -1.3279    0.3623   -1.3881 C   0  0  0  0  0  0  0  0  0  0  0  0
   -1.4554   -0.9817   -1.2624 C   0  0  0  0  0  0  0  0  0  0  0  0
   -2.6089   -1.7365   -1.5431 N   0  0  0  0  0  0  0  0  0  0  0  0
   -2.5731   -3.1655   -1.3206 C   0  0  0  0  0  0  0  0  0  0  0  0
   -3.7908   -1.1329   -2.0437 C   0  0  0  0  0  0  0  0  0  0  0  0
   -4.9702   -1.0856   -1.1468 C   0  0  1  0  0  0  0  0  0  0  0  0
   -5.5163   -2.3792   -0.6695 C   0  0  0  0  0  0  0  0  0  0  0  0
   -6.8022   -2.2537    0.0903 C   0  0  0  0  0  0  0  0  0  0  0  0
   -6.9170   -1.0706    0.9923 C   0  0  2  0  0  0  0  0  0  0  0  0
   -8.2901   -0.7933    1.3466 N   0  0  0  0  0  0  0  0  0  0  0  0
   -9.1441   -0.5133    0.2589 C   0  0  0  0  0  0  0  0  0  0  0  0
  -10.3323    0.3576    0.6048 C   0  0  0  0  0  0  0  0  0  0  0  0
   -9.8737    1.5706    1.2722 N   0  0  0  0  0  0  0  0  0  0  0  0
   -8.8975    1.3824    2.2942 C   0  0  0  0  0  0  0  0  0  0  0  0
   -8.4390    2.3292    2.9768 O   0  0  0  0  0  0  0  0  0  0  0  0
   -8.4359   -0.0113    2.5223 C   0  0  0  0  0  0  0  0  0  0  0  0
   -6.1807    0.1532    0.5276 C   0  0  0  0  0  0  0  0  0  0  0  0
   -4.7827   -0.1938    0.0577 C   0  0  0  0  0  0  0  0  0  0  0  0
   -0.3082   -1.6574   -0.8302 C   0  0  0  0  0  0  0  0  0  0  0  0
    0.8788   -1.0112   -0.5490 C   0  0  0  0  0  0  0  0  0  0  0  0
    2.2834    2.4700   -0.5112 C   0  0  0  0  0  0  0  0  0  0  0  0
    1.7733    3.0301   -1.5079 O   0  0  0  0  0  0  0  0  0  0  0  0
    2.9888    3.2539    0.5700 C   0  0  0  0  0  0  0  0  0  0  0  0
    6.6928    4.8543    3.1329 H   0  0  0  0  0  0  0  0  0  0  0  0
    7.0561    5.2873    1.4397 H   0  0  0  0  0  0  0  0  0  0  0  0
    8.4365    5.2152    2.6295 H   0  0  0  0  0  0  0  0  0  0  0  0
    5.2426    4.2918    1.5370 H   0  0  0  0  0  0  0  0  0  0  0  0
    5.7902   -0.4495    0.5421 H   0  0  0  0  0  0  0  0  0  0  0  0
    7.5470   -1.2053    0.8958 H   0  0  0  0  0  0  0  0  0  0  0  0
    9.0896   -2.2456    2.3287 H   0  0  0  0  0  0  0  0  0  0  0  0
    9.7348   -0.7086    2.9766 H   0  0  0  0  0  0  0  0  0  0  0  0
    8.0613   -1.2330    3.3755 H   0  0  0  0  0  0  0  0  0  0  0  0
   10.3549   -0.0925    0.7754 H   0  0  0  0  0  0  0  0  0  0  0  0
    9.7614   -1.6964    0.1320 H   0  0  0  0  0  0  0  0  0  0  0  0
    9.2014   -0.1446   -0.6394 H   0  0  0  0  0  0  0  0  0  0  0  0
    3.1378   -0.4583    0.7254 H   0  0  0  0  0  0  0  0  0  0  0  0
    4.3153   -2.1444   -0.2623 H   0  0  0  0  0  0  0  0  0  0  0  0
    5.2340   -3.2866   -2.2568 H   0  0  0  0  0  0  0  0  0  0  0  0
    4.5053    0.2325   -4.5388 H   0  0  0  0  0  0  0  0  0  0  0  0
    3.6158    1.3199   -2.5362 H   0  0  0  0  0  0  0  0  0  0  0  0
   -0.1967    2.1011   -1.2471 H   0  0  0  0  0  0  0  0  0  0  0  0
   -2.1986    0.9350   -1.7168 H   0  0  0  0  0  0  0  0  0  0  0  0
   -3.4307   -3.7116   -1.7649 H   0  0  0  0  0  0  0  0  0  0  0  0
   -2.3923   -3.4036   -0.2727 H   0  0  0  0  0  0  0  0  0  0  0  0
   -1.6879   -3.5280   -1.9304 H   0  0  0  0  0  0  0  0  0  0  0  0
   -3.6689   -0.1119   -2.4778 H   0  0  0  0  0  0  0  0  0  0  0  0
   -4.0668   -1.7465   -2.9758 H   0  0  0  0  0  0  0  0  0  0  0  0
   -5.8047   -0.5936   -1.7362 H   0  0  0  0  0  0  0  0  0  0  0  0
   -5.7015   -3.0856   -1.5197 H   0  0  0  0  0  0  0  0  0  0  0  0
   -4.7824   -2.8589    0.0081 H   0  0  0  0  0  0  0  0  0  0  0  0
   -7.0473   -3.1983    0.6137 H   0  0  0  0  0  0  0  0  0  0  0  0
   -7.6091   -2.1360   -0.6922 H   0  0  0  0  0  0  0  0  0  0  0  0
   -6.4235   -1.3757    1.9632 H   0  0  0  0  0  0  0  0  0  0  0  0
   -9.5705   -1.4878   -0.1186 H   0  0  0  0  0  0  0  0  0  0  0  0
   -8.6600   -0.0558   -0.6248 H   0  0  0  0  0  0  0  0  0  0  0  0
  -10.7712    0.7059   -0.3750 H   0  0  0  0  0  0  0  0  0  0  0  0
  -11.0923   -0.1785    1.2040 H   0  0  0  0  0  0  0  0  0  0  0  0
  -10.2186    2.5172    1.0374 H   0  0  0  0  0  0  0  0  0  0  0  0
   -9.2174   -0.4903    3.1714 H   0  0  0  0  0  0  0  0  0  0  0  0
   -7.4906   -0.0417    3.1041 H   0  0  0  0  0  0  0  0  0  0  0  0
   -6.7327    0.6890   -0.2879 H   0  0  0  0  0  0  0  0  0  0  0  0
   -6.0541    0.9062    1.3312 H   0  0  0  0  0  0  0  0  0  0  0  0
   -4.1956    0.7026   -0.1382 H   0  0  0  0  0  0  0  0  0  0  0  0
   -4.3403   -0.8358    0.8666 H   0  0  0  0  0  0  0  0  0  0  0  0
   -0.3188   -2.7338   -0.6977 H   0  0  0  0  0  0  0  0  0  0  0  0
    1.7517   -1.5488   -0.2083 H   0  0  0  0  0  0  0  0  0  0  0  0
    2.3696    3.2905    1.4817 H   0  0  0  0  0  0  0  0  0  0  0  0
    3.1695    4.2743    0.1650 H   0  0  0  0  0  0  0  0  0  0  0  0
  1  2  1  0
  2  3  1  0
  3  4  2  0
  4  5  1  0
  5  6  2  0
  6  7  1  0
  7  8  2  0
  8  9  1  0
  9 10  1  0
 10 11  1  0
 10 12  1  0
  6 13  1  0
 13 14  1  0
 14 15  2  0
 15 16  1  0
 16 17  2  0
 17 18  1  0
 17 19  1  0
 19 20  2  0
 13 21  1  0
 21 22  1  0
 22 23  2  0
 23 24  1  0
 24 25  2  0
 25 26  1  0
 26 27  1  0
 26 28  1  0
 28 29  1  0
 29 30  1  0
 30 31  1  0
 31 32  1  0
 32 33  1  0
 33 34  1  0
 34 35  1  0
 35 36  1  0
 36 37  1  0
 37 38  2  0
 37 39  1  0
 32 40  1  0
 40 41  1  0
 25 42  1  0
 42 43  2  0
 21 44  1  0
 44 45  2  0
 44 46  1  0
  8  3  1  0
 20 14  1  0
 43 22  1  0
 46  5  1  0
 41 29  1  0
 39 33  1  0
  1 47  1  0
  1 48  1  0
  1 49  1  0
  4 50  1  0
  7 51  1  0
 10 52  1  0
 11 53  1  0
 11 54  1  0
 11 55  1  0
 12 56  1  0
 12 57  1  0
 12 58  1  0
 13 59  1  1
 15 60  1  0
 16 61  1  0
 19 62  1  0
 20 63  1  0
 23 64  1  0
 24 65  1  0
 27 66  1  0
 27 67  1  0
 27 68  1  0
 28 69  1  0
 28 70  1  0
 29 71  1  6
 30 72  1  0
 30 73  1  0
 31 74  1  0
 31 75  1  0
 32 76  1  1
 34 77  1  0
 34 78  1  0
 35 79  1  0
 35 80  1  0
 36 81  1  0
 39 82  1  0
 39 83  1  0
 40 84  1  0
 40 85  1  0
 41 86  1  0
 41 87  1  0
 42 88  1  0
 43 89  1  0
 46 90  1  0
 46 91  1  0
M  END
$$$$
