
     RDKit          3D

 65 70  0  0  0  0  0  0  0  0999 V2000
    0.8328    1.8207    1.4249 O   0  0  0  0  0  0  0  0  0  0  0  0
    0.5142    0.6797    0.9212 C   0  0  0  0  0  0  0  0  0  0  0  0
    1.6123   -0.0858    0.5380 N   0  0  0  0  0  0  0  0  0  0  0  0
    2.9864    0.2821    0.6630 C   0  0  1  0  0  0  0  0  0  0  0  0
    3.8437   -0.9165    0.8584 C   0  0  0  0  0  0  0  0  0  0  0  0
    4.0769   -1.7045   -0.4213 C   0  0  0  0  0  0  0  0  0  0  0  0
    4.7960   -0.8129   -1.3877 C   0  0  0  0  0  0  0  0  0  0  0  0
    3.8797    0.3549   -1.6903 C   0  0  0  0  0  0  0  0  0  0  0  0
    3.5295    1.1151   -0.4644 C   0  0  0  0  0  0  0  0  0  0  0  0
    4.8410    1.6693    0.0985 C   0  0  0  0  0  0  0  0  0  0  0  0
    5.7914    0.5057    0.4027 C   0  0  2  0  0  0  0  0  0  0  0  0
    6.9185    1.0719    0.9741 O   0  0  0  0  0  0  0  0  0  0  0  0
    6.0825   -0.2554   -0.8725 C   0  0  0  0  0  0  0  0  0  0  0  0
    5.1841   -0.4593    1.3969 C   0  0  0  0  0  0  0  0  0  0  0  0
   -0.8917    0.3969    0.8405 C   0  0  0  0  0  0  0  0  0  0  0  0
   -1.7247    0.6379    1.9531 C   0  0  0  0  0  0  0  0  0  0  0  0
   -3.0419    0.4338    1.9213 N   0  0  0  0  0  0  0  0  0  0  0  0
   -3.6541   -0.0238    0.7994 C   0  0  0  0  0  0  0  0  0  0  0  0
   -5.0928   -0.1958    0.8120 N   0  0  0  0  0  0  0  0  0  0  0  0
   -5.8387    0.1539    1.9961 C   0  0  1  0  0  0  0  0  0  0  0  0
   -5.7282    1.6847    2.1744 C   0  0  0  0  0  0  0  0  0  0  0  0
   -6.9165    2.2113    1.3873 C   0  0  0  0  0  0  0  0  0  0  0  0
   -7.5691    1.1107    0.8315 O   0  0  0  0  0  0  0  0  0  0  0  0
   -7.3098    0.0430    1.7190 C   0  0  0  0  0  0  0  0  0  0  0  0
   -2.8808   -0.2551   -0.2522 N   0  0  0  0  0  0  0  0  0  0  0  0
   -1.5260   -0.0669   -0.2830 C   0  0  0  0  0  0  0  0  0  0  0  0
   -0.8176   -0.3778   -1.5457 C   0  0  0  0  0  0  0  0  0  0  0  0
   -0.5184   -1.7974   -1.8247 C   0  0  0  0  0  0  0  0  0  0  0  0
   -1.9096   -2.3993   -1.7791 C   0  0  0  0  0  0  0  0  0  0  0  0
   -2.6383   -1.3981   -2.6801 C   0  0  0  0  0  0  0  0  0  0  0  0
   -1.8381   -0.1141   -2.6485 C   0  0  0  0  0  0  0  0  0  0  0  0
    1.4318   -1.0259    0.1385 H   0  0  0  0  0  0  0  0  0  0  0  0
    3.0548    0.9464    1.5490 H   0  0  0  0  0  0  0  0  0  0  0  0
    3.3723   -1.6299    1.5807 H   0  0  0  0  0  0  0  0  0  0  0  0
    3.1212   -2.0095   -0.8642 H   0  0  0  0  0  0  0  0  0  0  0  0
    4.6477   -2.6071   -0.1172 H   0  0  0  0  0  0  0  0  0  0  0  0
    5.0240   -1.3431   -2.3429 H   0  0  0  0  0  0  0  0  0  0  0  0
    3.0133   -0.0696   -2.2336 H   0  0  0  0  0  0  0  0  0  0  0  0
    4.4042    1.0177   -2.4006 H   0  0  0  0  0  0  0  0  0  0  0  0
    2.9243    2.0037   -0.6832 H   0  0  0  0  0  0  0  0  0  0  0  0
    4.6373    2.1352    1.1014 H   0  0  0  0  0  0  0  0  0  0  0  0
    5.3513    2.3562   -0.5774 H   0  0  0  0  0  0  0  0  0  0  0  0
    6.7825    2.0139    1.2656 H   0  0  0  0  0  0  0  0  0  0  0  0
    6.5171    0.4014   -1.6418 H   0  0  0  0  0  0  0  0  0  0  0  0
    6.8553   -1.0228   -0.6518 H   0  0  0  0  0  0  0  0  0  0  0  0
    5.8222   -1.3731    1.4100 H   0  0  0  0  0  0  0  0  0  0  0  0
    5.0260   -0.0354    2.3936 H   0  0  0  0  0  0  0  0  0  0  0  0
   -1.1995    1.0073    2.8362 H   0  0  0  0  0  0  0  0  0  0  0  0
   -5.6048   -0.5517   -0.0165 H   0  0  0  0  0  0  0  0  0  0  0  0
   -5.4939   -0.3564    2.8948 H   0  0  0  0  0  0  0  0  0  0  0  0
   -4.8317    2.0105    1.6091 H   0  0  0  0  0  0  0  0  0  0  0  0
   -5.7400    1.9847    3.2214 H   0  0  0  0  0  0  0  0  0  0  0  0
   -6.6287    2.8764    0.5593 H   0  0  0  0  0  0  0  0  0  0  0  0
   -7.6104    2.6626    2.1127 H   0  0  0  0  0  0  0  0  0  0  0  0
   -7.6179   -0.8751    1.2386 H   0  0  0  0  0  0  0  0  0  0  0  0
   -7.9149    0.1969    2.6450 H   0  0  0  0  0  0  0  0  0  0  0  0
    0.0738    0.2951   -1.6839 H   0  0  0  0  0  0  0  0  0  0  0  0
   -0.2434   -1.8523   -2.9326 H   0  0  0  0  0  0  0  0  0  0  0  0
    0.2327   -2.3239   -1.2943 H   0  0  0  0  0  0  0  0  0  0  0  0
   -1.9584   -3.4154   -2.1897 H   0  0  0  0  0  0  0  0  0  0  0  0
   -2.2898   -2.4324   -0.7537 H   0  0  0  0  0  0  0  0  0  0  0  0
   -2.6929   -1.8091   -3.7150 H   0  0  0  0  0  0  0  0  0  0  0  0
   -3.6352   -1.2192   -2.2516 H   0  0  0  0  0  0  0  0  0  0  0  0
   -1.3443   -0.0293   -3.6452 H   0  0  0  0  0  0  0  0  0  0  0  0
   -2.4790    0.7643   -2.4236 H   0  0  0  0  0  0  0  0  0  0  0  0
  1  2  2  0
  2  3  1  0
  3  4  1  0
  4  5  1  0
  5  6  1  0
  6  7  1  0
  7  8  1  0
  8  9  1  0
  9 10  1  0
 10 11  1  0
 11 12  1  1
 11 13  1  0
 11 14  1  0
  2 15  1  0
 15 16  2  0
 16 17  1  0
 17 18  2  0
 18 19  1  0
 19 20  1  0
 20 21  1  0
 21 22  1  0
 22 23  1  0
 23 24  1  0
 18 25  1  0
 25 26  2  0
 26 27  1  0
 27 28  1  0
 28 29  1  0
 29 30  1  0
 30 31  1  0
  9  4  1  0
 26 15  1  0
 31 27  1  0
 14  5  1  0
 24 20  1  0
 13  7  1  0
  3 32  1  0
  4 33  1  1
  5 34  1  0
  6 35  1  0
  6 36  1  0
  7 37  1  0
  8 38  1  0
  8 39  1  0
  9 40  1  0
 10 41  1  0
 10 42  1  0
 12 43  1  0
 13 44  1  0
 13 45  1  0
 14 46  1  0
 14 47  1  0
 16 48  1  0
 19 49  1  0
 20 50  1  1
 21 51  1  0
 21 52  1  0
 22 53  1  0
 22 54  1  0
 24 55  1  0
 24 56  1  0
 27 57  1  0
 28 58  1  0
 28 59  1  0
 29 60  1  0
 29 61  1  0
 30 62  1  0
 30 63  1  0
 31 64  1  0
 31 65  1  0
M  END
$$$$
