
     RDKit          3D

 22 21  0  0  0  0  0  0  0  0999 V2000
    2.4543    1.2179   -0.4753 N   0  0  0  0  0  0  0  0  0  0  0  0
    1.3929    0.5456    0.2565 C   0  0  1  0  0  0  0  0  0  0  0  0
    0.3145    0.1875   -0.7368 C   0  0  0  0  0  0  0  0  0  0  0  0
   -0.8627   -0.5163   -0.1485 C   0  0  0  0  0  0  0  0  0  0  0  0
   -1.8601   -0.8161   -1.2347 C   0  0  0  0  0  0  0  0  0  0  0  0
   -2.3996    0.2525   -1.9487 O   0  0  0  0  0  0  0  0  0  0  0  0
   -2.2471   -1.9702   -1.5498 O   0  0  0  0  0  0  0  0  0  0  0  0
   -1.5545    0.2810    0.8800 C   0  0  0  0  0  0  0  0  0  0  0  0
   -2.1268    1.5163    0.6557 O   0  0  0  0  0  0  0  0  0  0  0  0
   -1.6817   -0.1155    2.0842 O   0  0  0  0  0  0  0  0  0  0  0  0
    1.9558   -0.6170    0.9440 C   0  0  0  0  0  0  0  0  0  0  0  0
    1.2565   -1.4983    1.7367 O   0  0  0  0  0  0  0  0  0  0  0  0
    3.1917   -0.9364    0.8721 O   0  0  0  0  0  0  0  0  0  0  0  0
    2.4076    0.9444   -1.4814 H   0  0  0  0  0  0  0  0  0  0  0  0
    3.3882    0.9528   -0.0658 H   0  0  0  0  0  0  0  0  0  0  0  0
    0.9462    1.3167    0.9230 H   0  0  0  0  0  0  0  0  0  0  0  0
   -0.0492    1.1051   -1.2424 H   0  0  0  0  0  0  0  0  0  0  0  0
    0.7634   -0.4504   -1.5175 H   0  0  0  0  0  0  0  0  0  0  0  0
   -0.5960   -1.4924    0.3113 H   0  0  0  0  0  0  0  0  0  0  0  0
   -3.2473    0.1058   -2.5168 H   0  0  0  0  0  0  0  0  0  0  0  0
   -3.0326    1.8068    0.9913 H   0  0  0  0  0  0  0  0  0  0  0  0
    1.5865   -1.8198    2.6586 H   0  0  0  0  0  0  0  0  0  0  0  0
  1  2  1  0
  2  3  1  0
  3  4  1  0
  4  5  1  0
  5  6  1  0
  5  7  2  0
  4  8  1  0
  8  9  1  0
  8 10  2  0
  2 11  1  0
 11 12  1  0
 11 13  2  0
  1 14  1  0
  1 15  1  0
  2 16  1  1
  3 17  1  0
  3 18  1  0
  4 19  1  0
  6 20  1  0
  9 21  1  0
 12 22  1  0
M  END
$$$$
