
     RDKit          3D

 46 49  0  0  0  0  0  0  0  0999 V2000
    8.3611    0.4728    0.2336 C   0  0  0  0  0  0  0  0  0  0  0  0
    7.0804   -0.2793   -0.0092 C   0  0  0  0  0  0  0  0  0  0  0  0
    7.0920   -1.6439   -0.2044 C   0  0  0  0  0  0  0  0  0  0  0  0
    5.8920   -2.2757   -0.4222 C   0  0  0  0  0  0  0  0  0  0  0  0
    4.6703   -1.5877   -0.4523 C   0  0  0  0  0  0  0  0  0  0  0  0
    3.5600   -2.3080   -0.7130 F   0  0  0  0  0  0  0  0  0  0  0  0
    4.6572   -0.2387   -0.2580 C   0  0  0  0  0  0  0  0  0  0  0  0
    3.5071    0.5869   -0.2150 N   0  0  0  0  0  0  0  0  0  0  0  0
    2.1720    0.1786   -0.0045 C   0  0  0  0  0  0  0  0  0  0  0  0
    1.9136   -1.0164    0.1955 O   0  0  0  0  0  0  0  0  0  0  0  0
    1.1320    1.1502   -0.0247 N   0  0  0  0  0  0  0  0  0  0  0  0
   -0.2221    0.8763    0.1688 C   0  0  0  0  0  0  0  0  0  0  0  0
   -1.0954    1.9771    0.1114 C   0  0  0  0  0  0  0  0  0  0  0  0
   -2.4257    1.8260    0.2843 C   0  0  0  0  0  0  0  0  0  0  0  0
   -2.9606    0.5770    0.5230 C   0  0  0  0  0  0  0  0  0  0  0  0
   -4.4102    0.5371    0.7176 C   0  0  0  0  0  0  0  0  0  0  0  0
   -5.0147    1.2916    1.7177 C   0  0  0  0  0  0  0  0  0  0  0  0
   -6.3651    1.2434    1.9402 C   0  0  0  0  0  0  0  0  0  0  0  0
   -7.1599    0.4381    1.1693 C   0  0  0  0  0  0  0  0  0  0  0  0
   -6.5991   -0.3304    0.1607 C   0  0  0  0  0  0  0  0  0  0  0  0
   -7.1505   -1.1838   -0.7328 N   0  0  0  0  0  0  0  0  0  0  0  0
   -6.1663   -1.6403   -1.4783 N   0  0  0  0  0  0  0  0  0  0  0  0
   -4.9783   -1.1150   -1.1055 C   0  0  0  0  0  0  0  0  0  0  0  0
   -3.7023   -1.3470   -1.6706 N   0  0  0  0  0  0  0  0  0  0  0  0
   -5.2228   -0.2644   -0.0468 C   0  0  0  0  0  0  0  0  0  0  0  0
   -2.1540   -0.5016    0.5855 C   0  0  0  0  0  0  0  0  0  0  0  0
   -0.7847   -0.3561    0.4087 C   0  0  0  0  0  0  0  0  0  0  0  0
    5.9093    0.3819   -0.0371 C   0  0  0  0  0  0  0  0  0  0  0  0
    8.2754    1.1359    1.1215 H   0  0  0  0  0  0  0  0  0  0  0  0
    9.2065   -0.2473    0.3248 H   0  0  0  0  0  0  0  0  0  0  0  0
    8.6044    1.1321   -0.6260 H   0  0  0  0  0  0  0  0  0  0  0  0
    8.0083   -2.2118   -0.1893 H   0  0  0  0  0  0  0  0  0  0  0  0
    5.8809   -3.3431   -0.5770 H   0  0  0  0  0  0  0  0  0  0  0  0
    3.6511    1.6471   -0.3648 H   0  0  0  0  0  0  0  0  0  0  0  0
    1.4224    2.1632   -0.2026 H   0  0  0  0  0  0  0  0  0  0  0  0
   -0.7272    2.9900   -0.0747 H   0  0  0  0  0  0  0  0  0  0  0  0
   -3.0799    2.7129    0.2324 H   0  0  0  0  0  0  0  0  0  0  0  0
   -4.3344    1.9163    2.3023 H   0  0  0  0  0  0  0  0  0  0  0  0
   -6.7926    1.8362    2.7164 H   0  0  0  0  0  0  0  0  0  0  0  0
   -8.2291    0.3798    1.3229 H   0  0  0  0  0  0  0  0  0  0  0  0
   -8.1642   -1.3943   -0.7697 H   0  0  0  0  0  0  0  0  0  0  0  0
   -3.2147   -0.6227   -2.2230 H   0  0  0  0  0  0  0  0  0  0  0  0
   -3.2439   -2.2638   -1.5287 H   0  0  0  0  0  0  0  0  0  0  0  0
   -2.5524   -1.4901    0.7877 H   0  0  0  0  0  0  0  0  0  0  0  0
   -0.1564   -1.2443    0.4637 H   0  0  0  0  0  0  0  0  0  0  0  0
    5.9105    1.4554    0.1183 H   0  0  0  0  0  0  0  0  0  0  0  0
  1  2  1  0
  2  3  2  0
  3  4  1  0
  4  5  2  0
  5  6  1  0
  5  7  1  0
  7  8  1  0
  8  9  1  0
  9 10  2  0
  9 11  1  0
 11 12  1  0
 12 13  2  0
 13 14  1  0
 14 15  2  0
 15 16  1  0
 16 17  2  0
 17 18  1  0
 18 19  2  0
 19 20  1  0
 20 21  1  0
 21 22  1  0
 22 23  2  0
 23 24  1  0
 23 25  1  0
 15 26  1  0
 26 27  2  0
  7 28  2  0
 28  2  1  0
 27 12  1  0
 25 16  1  0
 25 20  2  0
  1 29  1  0
  1 30  1  0
  1 31  1  0
  3 32  1  0
  4 33  1  0
  8 34  1  0
 11 35  1  0
 13 36  1  0
 14 37  1  0
 17 38  1  0
 18 39  1  0
 19 40  1  0
 21 41  1  0
 24 42  1  0
 24 43  1  0
 26 44  1  0
 27 45  1  0
 28 46  1  0
M  END
$$$$
