
     RDKit          3D

 30 31  0  0  0  0  0  0  0  0999 V2000
   -3.9792   -0.4615    1.6102 C   0  0  0  0  0  0  0  0  0  0  0  0
   -3.1414   -0.0496    0.4621 C   0  0  0  0  0  0  0  0  0  0  0  0
   -3.5817    0.8397   -0.5125 C   0  0  0  0  0  0  0  0  0  0  0  0
   -2.7551    1.1848   -1.5578 C   0  0  0  0  0  0  0  0  0  0  0  0
   -1.4738    0.6657   -1.6738 C   0  0  0  0  0  0  0  0  0  0  0  0
   -0.4038    1.0894   -2.9941 Cl  0  0  0  0  0  0  0  0  0  0  0  0
   -1.0767   -0.2110   -0.6884 C   0  0  0  0  0  0  0  0  0  0  0  0
    0.2459   -0.7602   -0.7892 N   0  0  0  0  0  0  0  0  0  0  0  0
    1.3364   -0.1151   -0.1955 C   0  0  0  0  0  0  0  0  0  0  0  0
    1.0701    1.0782    0.4923 C   0  0  0  0  0  0  0  0  0  0  0  0
    2.0682    1.7909    1.1110 C   0  0  0  0  0  0  0  0  0  0  0  0
    3.3807    1.3496    1.0749 C   0  0  0  0  0  0  0  0  0  0  0  0
    3.6508    0.1845    0.4053 C   0  0  0  0  0  0  0  0  0  0  0  0
    2.6274   -0.5430   -0.2272 C   0  0  0  0  0  0  0  0  0  0  0  0
    3.0157   -1.7573   -0.9060 C   0  0  0  0  0  0  0  0  0  0  0  0
    2.2534   -2.5110   -1.5077 O   0  0  0  0  0  0  0  0  0  0  0  0
    4.3726   -2.1691   -0.9160 O   0  0  0  0  0  0  0  0  0  0  0  0
   -1.8693   -0.5813    0.3702 C   0  0  0  0  0  0  0  0  0  0  0  0
   -1.2927   -1.6997    1.5805 Cl  0  0  0  0  0  0  0  0  0  0  0  0
   -3.9977   -1.5877    1.6072 H   0  0  0  0  0  0  0  0  0  0  0  0
   -5.0335   -0.1402    1.5070 H   0  0  0  0  0  0  0  0  0  0  0  0
   -3.5007   -0.1329    2.5400 H   0  0  0  0  0  0  0  0  0  0  0  0
   -4.5812    1.2428   -0.4193 H   0  0  0  0  0  0  0  0  0  0  0  0
   -3.0708    1.8694   -2.3236 H   0  0  0  0  0  0  0  0  0  0  0  0
    0.3435   -1.6461   -1.3178 H   0  0  0  0  0  0  0  0  0  0  0  0
    0.0581    1.4674    0.5503 H   0  0  0  0  0  0  0  0  0  0  0  0
    1.8462    2.7067    1.6357 H   0  0  0  0  0  0  0  0  0  0  0  0
    4.1266    1.9483    1.5781 H   0  0  0  0  0  0  0  0  0  0  0  0
    4.6645   -0.1660    0.3714 H   0  0  0  0  0  0  0  0  0  0  0  0
    4.6975   -2.8860   -1.5531 H   0  0  0  0  0  0  0  0  0  0  0  0
  1  2  1  0
  2  3  2  0
  3  4  1  0
  4  5  2  0
  5  6  1  0
  5  7  1  0
  7  8  1  0
  8  9  1  0
  9 10  2  0
 10 11  1  0
 11 12  2  0
 12 13  1  0
 13 14  2  0
 14 15  1  0
 15 16  2  0
 15 17  1  0
  7 18  2  0
 18 19  1  0
 18  2  1  0
 14  9  1  0
  1 20  1  0
  1 21  1  0
  1 22  1  0
  3 23  1  0
  4 24  1  0
  8 25  1  0
 10 26  1  0
 11 27  1  0
 12 28  1  0
 13 29  1  0
 17 30  1  0
M  END
$$$$
