
     RDKit          3D

 40 41  0  0  0  0  0  0  0  0999 V2000
   -3.0393   -3.4102   -0.4371 C   0  0  0  0  0  0  0  0  0  0  0  0
   -3.6835   -2.2018   -0.1818 O   0  0  0  0  0  0  0  0  0  0  0  0
   -3.1024   -0.9877    0.0890 C   0  0  0  0  0  0  0  0  0  0  0  0
   -1.7433   -0.7556    0.1552 C   0  0  0  0  0  0  0  0  0  0  0  0
   -1.1704    0.4691    0.4281 C   0  0  0  0  0  0  0  0  0  0  0  0
    0.2351    0.6416    0.4855 N   0  0  0  0  0  0  0  0  0  0  0  0
    1.2070   -0.3839    0.2704 C   0  0  0  0  0  0  0  0  0  0  0  0
    1.0638   -0.9081   -1.1311 C   0  0  0  0  0  0  0  0  0  0  0  0
    2.5891    0.1933    0.5168 C   0  0  0  0  0  0  0  0  0  0  0  0
    3.6766   -0.8099    0.3152 C   0  0  0  0  0  0  0  0  0  0  0  0
    5.0008   -0.1266    0.5868 C   0  0  0  0  0  0  0  0  0  0  0  0
    6.1401   -1.0010    0.4235 N   0  0  0  0  0  0  0  0  0  0  0  0
   -2.0905    1.4976    0.6411 C   0  0  0  0  0  0  0  0  0  0  0  0
   -1.5543    2.7142    0.9119 N   0  0  0  0  0  0  0  0  0  0  0  0
   -2.3398    3.7768    1.1339 C   0  0  0  0  0  0  0  0  0  0  0  0
   -3.6997    3.6588    1.0925 C   0  0  0  0  0  0  0  0  0  0  0  0
   -4.2362    2.4159    0.8160 C   0  0  0  0  0  0  0  0  0  0  0  0
   -3.4542    1.3056    0.5836 C   0  0  0  0  0  0  0  0  0  0  0  0
   -3.9790    0.0656    0.3078 C   0  0  0  0  0  0  0  0  0  0  0  0
   -3.7366   -4.2426   -0.1565 H   0  0  0  0  0  0  0  0  0  0  0  0
   -2.8426   -3.5552   -1.5297 H   0  0  0  0  0  0  0  0  0  0  0  0
   -2.1517   -3.5503    0.1872 H   0  0  0  0  0  0  0  0  0  0  0  0
   -1.1656   -1.6272   -0.0254 H   0  0  0  0  0  0  0  0  0  0  0  0
    0.5383    1.6371    0.7112 H   0  0  0  0  0  0  0  0  0  0  0  0
    1.0156   -1.2170    0.9765 H   0  0  0  0  0  0  0  0  0  0  0  0
    0.1827   -0.4455   -1.6070 H   0  0  0  0  0  0  0  0  0  0  0  0
    1.9330   -0.6312   -1.7645 H   0  0  0  0  0  0  0  0  0  0  0  0
    0.8983   -2.0245   -1.1686 H   0  0  0  0  0  0  0  0  0  0  0  0
    2.7843    1.0610   -0.1426 H   0  0  0  0  0  0  0  0  0  0  0  0
    2.6270    0.5257    1.5734 H   0  0  0  0  0  0  0  0  0  0  0  0
    3.6137   -1.6665    1.0124 H   0  0  0  0  0  0  0  0  0  0  0  0
    3.7131   -1.2316   -0.6964 H   0  0  0  0  0  0  0  0  0  0  0  0
    5.1275    0.6760   -0.1693 H   0  0  0  0  0  0  0  0  0  0  0  0
    4.9407    0.2801    1.6346 H   0  0  0  0  0  0  0  0  0  0  0  0
    6.8100   -0.8556    1.2077 H   0  0  0  0  0  0  0  0  0  0  0  0
    6.6360   -0.8650   -0.4821 H   0  0  0  0  0  0  0  0  0  0  0  0
   -1.9759    4.7718    1.3546 H   0  0  0  0  0  0  0  0  0  0  0  0
   -4.3934    4.4637    1.2596 H   0  0  0  0  0  0  0  0  0  0  0  0
   -5.3151    2.2958    0.7774 H   0  0  0  0  0  0  0  0  0  0  0  0
   -5.0590    0.0472    0.2913 H   0  0  0  0  0  0  0  0  0  0  0  0
  1  2  1  0
  2  3  1  0
  3  4  2  0
  4  5  1  0
  5  6  1  0
  6  7  1  0
  7  8  1  0
  7  9  1  0
  9 10  1  0
 10 11  1  0
 11 12  1  0
  5 13  2  0
 13 14  1  0
 14 15  2  0
 15 16  1  0
 16 17  2  0
 17 18  1  0
 18 19  2  0
 19  3  1  0
 18 13  1  0
  1 20  1  0
  1 21  1  0
  1 22  1  0
  4 23  1  0
  6 24  1  0
  7 25  1  0
  8 26  1  0
  8 27  1  0
  8 28  1  0
  9 29  1  0
  9 30  1  0
 10 31  1  0
 10 32  1  0
 11 33  1  0
 11 34  1  0
 12 35  1  0
 12 36  1  0
 15 37  1  0
 16 38  1  0
 17 39  1  0
 19 40  1  0
M  END
$$$$
