
     RDKit          3D

 37 39  0  0  0  0  0  0  0  0999 V2000
   -3.9829    1.8033   -2.1997 Cl  0  0  0  0  0  0  0  0  0  0  0  0
   -3.6138    1.3794   -0.5341 C   0  0  0  0  0  0  0  0  0  0  0  0
   -4.2977    1.9895    0.4858 C   0  0  0  0  0  0  0  0  0  0  0  0
   -3.9841    1.6340    1.7924 C   0  0  0  0  0  0  0  0  0  0  0  0
   -3.0046    0.6880    2.0217 C   0  0  0  0  0  0  0  0  0  0  0  0
   -2.3172    0.0747    1.0001 C   0  0  0  0  0  0  0  0  0  0  0  0
   -1.0678   -1.1342    1.3448 S   0  0  0  0  0  0  0  0  0  0  0  0
   -0.2913   -1.8146   -0.0686 C   0  0  0  0  0  0  0  0  0  0  0  0
   -0.8405   -2.9590   -0.6478 C   0  0  0  0  0  0  0  0  0  0  0  0
   -0.2823   -3.5540   -1.7594 C   0  0  0  0  0  0  0  0  0  0  0  0
    0.8513   -2.9737   -2.2872 C   0  0  0  0  0  0  0  0  0  0  0  0
    1.4043   -1.8422   -1.7242 C   0  0  0  0  0  0  0  0  0  0  0  0
    0.8431   -1.2388   -0.6015 C   0  0  0  0  0  0  0  0  0  0  0  0
    1.3730   -0.0797    0.0103 N   0  0  0  0  0  0  0  0  0  0  0  0
    1.8300    0.0024    1.3668 C   0  0  0  0  0  0  0  0  0  0  0  0
    3.2390    0.5475    1.4707 C   0  0  0  0  0  0  0  0  0  0  0  0
    3.6482    1.2491    0.2827 N   0  0  0  0  0  0  0  0  0  0  0  0
    2.5833    2.0279   -0.3143 C   0  0  0  0  0  0  0  0  0  0  0  0
    1.4716    1.1378   -0.7811 C   0  0  0  0  0  0  0  0  0  0  0  0
   -2.6243    0.4234   -0.2918 C   0  0  0  0  0  0  0  0  0  0  0  0
   -1.7792   -0.3275   -1.6259 Cl  0  0  0  0  0  0  0  0  0  0  0  0
   -5.0641    2.7318    0.2553 H   0  0  0  0  0  0  0  0  0  0  0  0
   -4.5288    2.1199    2.6050 H   0  0  0  0  0  0  0  0  0  0  0  0
   -2.7592    0.4094    3.0558 H   0  0  0  0  0  0  0  0  0  0  0  0
   -1.7401   -3.4206   -0.2299 H   0  0  0  0  0  0  0  0  0  0  0  0
   -0.7331   -4.4481   -2.1909 H   0  0  0  0  0  0  0  0  0  0  0  0
    1.2963   -3.4284   -3.1544 H   0  0  0  0  0  0  0  0  0  0  0  0
    2.3014   -1.3734   -2.1326 H   0  0  0  0  0  0  0  0  0  0  0  0
    1.8234   -0.9684    1.8948 H   0  0  0  0  0  0  0  0  0  0  0  0
    1.1339    0.6970    1.9051 H   0  0  0  0  0  0  0  0  0  0  0  0
    3.2863    1.1645    2.3872 H   0  0  0  0  0  0  0  0  0  0  0  0
    3.9603   -0.3129    1.5895 H   0  0  0  0  0  0  0  0  0  0  0  0
    4.4917    1.7990    0.4637 H   0  0  0  0  0  0  0  0  0  0  0  0
    2.1873    2.8003    0.3824 H   0  0  0  0  0  0  0  0  0  0  0  0
    3.0220    2.5564   -1.1860 H   0  0  0  0  0  0  0  0  0  0  0  0
    0.5307    1.7294   -0.7279 H   0  0  0  0  0  0  0  0  0  0  0  0
    1.6341    0.9108   -1.8568 H   0  0  0  0  0  0  0  0  0  0  0  0
  1  2  1  0
  2  3  2  0
  3  4  1  0
  4  5  2  0
  5  6  1  0
  6  7  1  0
  7  8  1  0
  8  9  2  0
  9 10  1  0
 10 11  2  0
 11 12  1  0
 12 13  2  0
 13 14  1  0
 14 15  1  0
 15 16  1  0
 16 17  1  0
 17 18  1  0
 18 19  1  0
  6 20  2  0
 20 21  1  0
 20  2  1  0
 13  8  1  0
 19 14  1  0
  3 22  1  0
  4 23  1  0
  5 24  1  0
  9 25  1  0
 10 26  1  0
 11 27  1  0
 12 28  1  0
 15 29  1  0
 15 30  1  0
 16 31  1  0
 16 32  1  0
 17 33  1  0
 18 34  1  0
 18 35  1  0
 19 36  1  0
 19 37  1  0
M  END
$$$$
