
     RDKit          3D

 37 39  0  0  0  0  0  0  0  0999 V2000
    1.7529    1.1788   -1.0754 O   0  0  0  0  0  0  0  0  0  0  0  0
    2.2016    0.3810   -0.1950 C   0  0  0  0  0  0  0  0  0  0  0  0
    1.3518   -0.0035    0.8696 N   0  0  0  0  0  0  0  0  0  0  0  0
    0.0265    0.5204    0.9102 C   0  0  0  0  0  0  0  0  0  0  0  0
   -1.0444   -0.0894    0.3160 C   0  0  0  0  0  0  0  0  0  0  0  0
   -2.3180    0.4471    0.3761 C   0  0  0  0  0  0  0  0  0  0  0  0
   -3.4769   -0.1831   -0.2490 C   0  0  0  0  0  0  0  0  0  0  0  0
   -3.6022   -1.5544   -0.3782 C   0  0  0  0  0  0  0  0  0  0  0  0
   -4.7070   -2.1299   -0.9721 C   0  0  0  0  0  0  0  0  0  0  0  0
   -5.7418   -1.3389   -1.4655 C   0  0  0  0  0  0  0  0  0  0  0  0
   -5.6243    0.0308   -1.3403 C   0  0  0  0  0  0  0  0  0  0  0  0
   -4.5177    0.5838   -0.7465 C   0  0  0  0  0  0  0  0  0  0  0  0
   -2.4741    1.6374    1.0666 C   0  0  0  0  0  0  0  0  0  0  0  0
   -1.4160    2.2757    1.6754 C   0  0  0  0  0  0  0  0  0  0  0  0
   -0.1582    1.7052    1.5915 C   0  0  0  0  0  0  0  0  0  0  0  0
    0.9009    2.3519    2.2054 O   0  0  0  0  0  0  0  0  0  0  0  0
    3.5835   -0.0930   -0.3422 C   0  0  0  0  0  0  0  0  0  0  0  0
    4.1441   -0.9591    0.5673 C   0  0  0  0  0  0  0  0  0  0  0  0
    5.4555   -1.4162    0.4383 C   0  0  0  0  0  0  0  0  0  0  0  0
    6.2379   -1.0158   -0.6063 C   0  0  0  0  0  0  0  0  0  0  0  0
    5.6641   -0.1358   -1.5278 C   0  0  0  0  0  0  0  0  0  0  0  0
    4.3682    0.3146   -1.3986 C   0  0  0  0  0  0  0  0  0  0  0  0
    1.7060   -0.6610    1.6049 H   0  0  0  0  0  0  0  0  0  0  0  0
   -0.8932   -1.0186   -0.2167 H   0  0  0  0  0  0  0  0  0  0  0  0
   -2.8327   -2.2025   -0.0146 H   0  0  0  0  0  0  0  0  0  0  0  0
   -4.8369   -3.1949   -1.0886 H   0  0  0  0  0  0  0  0  0  0  0  0
   -6.6060   -1.8084   -1.9312 H   0  0  0  0  0  0  0  0  0  0  0  0
   -6.4387    0.6285   -1.7293 H   0  0  0  0  0  0  0  0  0  0  0  0
   -4.4392    1.6619   -0.6551 H   0  0  0  0  0  0  0  0  0  0  0  0
   -3.4708    2.0517    1.1104 H   0  0  0  0  0  0  0  0  0  0  0  0
   -1.6070    3.2076    2.2014 H   0  0  0  0  0  0  0  0  0  0  0  0
    1.8154    2.4249    1.7516 H   0  0  0  0  0  0  0  0  0  0  0  0
    3.6090   -1.3268    1.4167 H   0  0  0  0  0  0  0  0  0  0  0  0
    5.8693   -2.1060    1.1818 H   0  0  0  0  0  0  0  0  0  0  0  0
    7.2549   -1.3489   -0.7365 H   0  0  0  0  0  0  0  0  0  0  0  0
    6.2970    0.1854   -2.3693 H   0  0  0  0  0  0  0  0  0  0  0  0
    3.9668    0.9996   -2.1428 H   0  0  0  0  0  0  0  0  0  0  0  0
  1  2  2  0
  2  3  1  0
  3  4  1  0
  4  5  2  0
  5  6  1  0
  6  7  1  0
  7  8  2  0
  8  9  1  0
  9 10  2  0
 10 11  1  0
 11 12  2  0
  6 13  2  0
 13 14  1  0
 14 15  2  0
 15 16  1  0
  2 17  1  0
 17 18  2  0
 18 19  1  0
 19 20  2  0
 20 21  1  0
 21 22  2  0
 15  4  1  0
 22 17  1  0
 12  7  1  0
  3 23  1  0
  5 24  1  0
  8 25  1  0
  9 26  1  0
 10 27  1  0
 11 28  1  0
 12 29  1  0
 13 30  1  0
 14 31  1  0
 16 32  1  0
 18 33  1  0
 19 34  1  0
 20 35  1  0
 21 36  1  0
 22 37  1  0
M  END
$$$$
