
     RDKit          3D

 39 38  0  0  0  0  0  0  0  0999 V2000
   -5.9318    0.0893    0.5728 C   0  0  0  0  0  0  0  0  0  0  0  0
   -5.2318   -0.2349   -0.7308 C   0  0  0  0  0  0  0  0  0  0  0  0
   -3.7939    0.2132   -0.7252 C   0  0  0  0  0  0  0  0  0  0  0  0
   -2.9935   -0.4538    0.3820 C   0  0  0  0  0  0  0  0  0  0  0  0
   -1.5831    0.1017    0.2479 C   0  0  0  0  0  0  0  0  0  0  0  0
   -0.6505   -0.4455    1.2608 C   0  0  0  0  0  0  0  0  0  0  0  0
    0.7196    0.1746    1.0911 C   0  0  0  0  0  0  0  0  0  0  0  0
    1.2614   -0.1284   -0.2610 C   0  0  0  0  0  0  0  0  0  0  0  0
    2.6334    0.4778   -0.4396 C   0  0  0  0  0  0  0  0  0  0  0  0
    3.5860   -0.0792    0.5427 C   0  0  0  0  0  0  0  0  0  0  0  0
    4.9541    0.5159    0.3685 C   0  0  0  0  0  0  0  0  0  0  0  0
    5.4883    0.2114   -1.0012 C   0  0  0  0  0  0  0  0  0  0  0  0
    5.5190   -1.1884   -1.1089 O   0  0  0  0  0  0  0  0  0  0  0  0
   -5.6747    1.1084    0.9309 H   0  0  0  0  0  0  0  0  0  0  0  0
   -5.7811   -0.7059    1.3200 H   0  0  0  0  0  0  0  0  0  0  0  0
   -7.0224    0.1172    0.3494 H   0  0  0  0  0  0  0  0  0  0  0  0
   -5.7377    0.2774   -1.5533 H   0  0  0  0  0  0  0  0  0  0  0  0
   -5.2537   -1.3222   -0.8708 H   0  0  0  0  0  0  0  0  0  0  0  0
   -3.3738   -0.1002   -1.7127 H   0  0  0  0  0  0  0  0  0  0  0  0
   -3.6846    1.3145   -0.6775 H   0  0  0  0  0  0  0  0  0  0  0  0
   -3.4518   -0.2880    1.3547 H   0  0  0  0  0  0  0  0  0  0  0  0
   -2.9498   -1.5423    0.1925 H   0  0  0  0  0  0  0  0  0  0  0  0
   -1.5462    1.1843    0.1912 H   0  0  0  0  0  0  0  0  0  0  0  0
   -1.2582   -0.2901   -0.7658 H   0  0  0  0  0  0  0  0  0  0  0  0
   -1.0151   -0.2470    2.2934 H   0  0  0  0  0  0  0  0  0  0  0  0
   -0.5987   -1.5558    1.1832 H   0  0  0  0  0  0  0  0  0  0  0  0
    1.3681   -0.1219    1.9447 H   0  0  0  0  0  0  0  0  0  0  0  0
    0.6359    1.3049    1.1394 H   0  0  0  0  0  0  0  0  0  0  0  0
    0.5620    0.3276   -1.0214 H   0  0  0  0  0  0  0  0  0  0  0  0
    1.2498   -1.2093   -0.4334 H   0  0  0  0  0  0  0  0  0  0  0  0
    2.5611    1.5763   -0.2655 H   0  0  0  0  0  0  0  0  0  0  0  0
    2.9576    0.3759   -1.4902 H   0  0  0  0  0  0  0  0  0  0  0  0
    3.2541    0.0522    1.6086 H   0  0  0  0  0  0  0  0  0  0  0  0
    3.6418   -1.1868    0.3880 H   0  0  0  0  0  0  0  0  0  0  0  0
    4.9049    1.6292    0.4543 H   0  0  0  0  0  0  0  0  0  0  0  0
    5.6526    0.1975    1.1757 H   0  0  0  0  0  0  0  0  0  0  0  0
    4.8608    0.6868   -1.7659 H   0  0  0  0  0  0  0  0  0  0  0  0
    6.5583    0.5963   -1.1037 H   0  0  0  0  0  0  0  0  0  0  0  0
    5.1636   -1.4325   -2.0032 H   0  0  0  0  0  0  0  0  0  0  0  0
  1  2  1  0
  2  3  1  0
  3  4  1  0
  4  5  1  0
  5  6  1  0
  6  7  1  0
  7  8  1  0
  8  9  1  0
  9 10  1  0
 10 11  1  0
 11 12  1  0
 12 13  1  0
  1 14  1  0
  1 15  1  0
  1 16  1  0
  2 17  1  0
  2 18  1  0
  3 19  1  0
  3 20  1  0
  4 21  1  0
  4 22  1  0
  5 23  1  0
  5 24  1  0
  6 25  1  0
  6 26  1  0
  7 27  1  0
  7 28  1  0
  8 29  1  0
  8 30  1  0
  9 31  1  0
  9 32  1  0
 10 33  1  0
 10 34  1  0
 11 35  1  0
 11 36  1  0
 12 37  1  0
 12 38  1  0
 13 39  1  0
M  END
$$$$
