
     RDKit          3D

 59 62  0  0  0  0  0  0  0  0999 V2000
    5.6122    0.2440    4.7384 C   0  0  0  0  0  0  0  0  0  0  0  0
    4.2784    0.1323    4.1564 N   0  0  0  0  0  0  0  0  0  0  0  0
    4.0299   -1.2461    3.8732 C   0  0  0  0  0  0  0  0  0  0  0  0
    4.2746    0.9706    2.9767 C   0  0  0  0  0  0  0  0  0  0  0  0
    2.9785    0.9724    2.2545 C   0  0  0  0  0  0  0  0  0  0  0  0
    2.9257    0.5704    1.0118 C   0  0  0  0  0  0  0  0  0  0  0  0
    1.7137    0.5267    0.1992 C   0  0  0  0  0  0  0  0  0  0  0  0
    1.6854    0.1361   -0.9962 O   0  0  0  0  0  0  0  0  0  0  0  0
    0.4257    0.9204    0.6644 N   0  0  0  0  0  0  0  0  0  0  0  0
   -0.5281    0.7491   -0.3896 C   0  0  0  0  0  0  0  0  0  0  0  0
   -0.7719    1.8063   -1.2709 C   0  0  0  0  0  0  0  0  0  0  0  0
   -0.0656    2.9670   -1.0636 O   0  0  0  0  0  0  0  0  0  0  0  0
   -0.1274    4.1454   -1.7992 C   0  0  1  0  0  0  0  0  0  0  0  0
   -0.5453    5.3464   -0.9865 C   0  0  0  0  0  0  0  0  0  0  0  0
    0.7701    5.8968   -0.5362 C   0  0  0  0  0  0  0  0  0  0  0  0
    1.5873    5.7340   -1.6269 O   0  0  0  0  0  0  0  0  0  0  0  0
    1.2185    4.5958   -2.3142 C   0  0  0  0  0  0  0  0  0  0  0  0
   -1.6956    1.6096   -2.2757 C   0  0  0  0  0  0  0  0  0  0  0  0
   -2.3518    0.4055   -2.3982 C   0  0  0  0  0  0  0  0  0  0  0  0
   -3.2408    0.2855   -3.4014 N   0  0  0  0  0  0  0  0  0  0  0  0
   -3.9334   -0.8651   -3.5955 C   0  0  0  0  0  0  0  0  0  0  0  0
   -3.6843   -1.8526   -2.7470 N   0  0  0  0  0  0  0  0  0  0  0  0
   -2.8313   -1.8533   -1.7202 C   0  0  0  0  0  0  0  0  0  0  0  0
   -2.5845   -2.9207   -0.8294 N   0  0  0  0  0  0  0  0  0  0  0  0
   -3.2052   -4.1919   -0.8168 C   0  0  0  0  0  0  0  0  0  0  0  0
   -4.2864   -4.5217   -1.5969 C   0  0  0  0  0  0  0  0  0  0  0  0
   -4.9204   -5.7388   -1.6295 C   0  0  0  0  0  0  0  0  0  0  0  0
   -6.2945   -6.1056   -2.6420 Cl  0  0  0  0  0  0  0  0  0  0  0  0
   -4.4477   -6.7539   -0.8074 C   0  0  0  0  0  0  0  0  0  0  0  0
   -5.0024   -7.9797   -0.7688 F   0  0  0  0  0  0  0  0  0  0  0  0
   -3.3742   -6.4876   -0.0075 C   0  0  0  0  0  0  0  0  0  0  0  0
   -2.7906   -5.2516   -0.0254 C   0  0  0  0  0  0  0  0  0  0  0  0
   -2.1486   -0.6710   -1.5552 C   0  0  0  0  0  0  0  0  0  0  0  0
   -1.2202   -0.4304   -0.5691 C   0  0  0  0  0  0  0  0  0  0  0  0
    6.3937   -0.0622    3.9945 H   0  0  0  0  0  0  0  0  0  0  0  0
    5.7283   -0.4057    5.6087 H   0  0  0  0  0  0  0  0  0  0  0  0
    5.8419    1.2923    5.0489 H   0  0  0  0  0  0  0  0  0  0  0  0
    4.2719   -1.5291    2.8284 H   0  0  0  0  0  0  0  0  0  0  0  0
    4.6698   -1.8701    4.5305 H   0  0  0  0  0  0  0  0  0  0  0  0
    2.9813   -1.5132    4.1552 H   0  0  0  0  0  0  0  0  0  0  0  0
    5.0931    0.6500    2.3004 H   0  0  0  0  0  0  0  0  0  0  0  0
    4.5664    1.9917    3.3286 H   0  0  0  0  0  0  0  0  0  0  0  0
    2.0715    1.3013    2.7372 H   0  0  0  0  0  0  0  0  0  0  0  0
    3.8311    0.2397    0.5227 H   0  0  0  0  0  0  0  0  0  0  0  0
    0.3364    1.2682    1.6658 H   0  0  0  0  0  0  0  0  0  0  0  0
   -0.8207    4.1238   -2.6727 H   0  0  0  0  0  0  0  0  0  0  0  0
   -1.0105    6.1289   -1.6408 H   0  0  0  0  0  0  0  0  0  0  0  0
   -1.2666    5.1179   -0.2010 H   0  0  0  0  0  0  0  0  0  0  0  0
    1.1485    5.4663    0.4117 H   0  0  0  0  0  0  0  0  0  0  0  0
    0.6152    6.9877   -0.3190 H   0  0  0  0  0  0  0  0  0  0  0  0
    1.9855    3.7807   -2.1659 H   0  0  0  0  0  0  0  0  0  0  0  0
    1.2335    4.8207   -3.3985 H   0  0  0  0  0  0  0  0  0  0  0  0
   -1.8933    2.4188   -2.9634 H   0  0  0  0  0  0  0  0  0  0  0  0
   -4.6586   -1.0928   -4.3416 H   0  0  0  0  0  0  0  0  0  0  0  0
   -1.8922   -2.8583   -0.0708 H   0  0  0  0  0  0  0  0  0  0  0  0
   -4.7505   -3.8293   -2.2726 H   0  0  0  0  0  0  0  0  0  0  0  0
   -2.9913   -7.2640    0.6389 H   0  0  0  0  0  0  0  0  0  0  0  0
   -1.9415   -5.1087    0.6357 H   0  0  0  0  0  0  0  0  0  0  0  0
   -0.9927   -1.1986    0.1342 H   0  0  0  0  0  0  0  0  0  0  0  0
  1  2  1  0
  2  3  1  0
  2  4  1  0
  4  5  1  0
  5  6  2  0
  6  7  1  0
  7  8  2  0
  7  9  1  0
  9 10  1  0
 10 11  2  0
 11 12  1  0
 12 13  1  0
 13 14  1  0
 14 15  1  0
 15 16  1  0
 16 17  1  0
 11 18  1  0
 18 19  2  0
 19 20  1  0
 20 21  2  0
 21 22  1  0
 22 23  2  0
 23 24  1  0
 24 25  1  0
 25 26  2  0
 26 27  1  0
 27 28  1  0
 27 29  2  0
 29 30  1  0
 29 31  1  0
 31 32  2  0
 23 33  1  0
 33 34  2  0
 34 10  1  0
 17 13  1  0
 33 19  1  0
 32 25  1  0
  1 35  1  0
  1 36  1  0
  1 37  1  0
  3 38  1  0
  3 39  1  0
  3 40  1  0
  4 41  1  0
  4 42  1  0
  5 43  1  0
  6 44  1  0
  9 45  1  0
 13 46  1  6
 14 47  1  0
 14 48  1  0
 15 49  1  0
 15 50  1  0
 17 51  1  0
 17 52  1  0
 18 53  1  0
 21 54  1  0
 24 55  1  0
 26 56  1  0
 31 57  1  0
 32 58  1  0
 34 59  1  0
M  END
$$$$
