
     RDKit          3D

 60 63  0  0  0  0  0  0  0  0999 V2000
   -4.5630    7.4367   -0.8828 C   0  0  0  0  0  0  0  0  0  0  0  0
   -4.1525    6.0570   -0.8880 C   0  0  0  0  0  0  0  0  0  0  0  0
   -4.8502    4.8481   -1.0233 C   0  0  0  0  0  0  0  0  0  0  0  0
   -4.2154    3.7523   -0.9892 N   0  0  0  0  0  0  0  0  0  0  0  0
   -2.8925    3.7213   -0.8269 C   0  0  0  0  0  0  0  0  0  0  0  0
   -2.0341    2.5248   -0.7692 C   0  0  0  0  0  0  0  0  0  0  0  0
   -2.6176    1.2926   -0.8914 C   0  0  0  0  0  0  0  0  0  0  0  0
   -1.8498    0.1230   -0.8439 C   0  0  0  0  0  0  0  0  0  0  0  0
   -2.3943   -1.1330   -0.9622 O   0  0  0  0  0  0  0  0  0  0  0  0
   -1.5363   -2.2507   -0.9014 C   0  0  0  0  0  0  0  0  0  0  0  0
   -2.2774   -3.5547   -1.0461 C   0  0  0  0  0  0  0  0  0  0  0  0
   -3.0169   -3.6908   -2.3320 C   0  0  0  0  0  0  0  0  0  0  0  0
   -3.1840   -3.7085    0.1738 C   0  0  0  0  0  0  0  0  0  0  0  0
   -2.2084   -4.2114    1.2017 C   0  0  0  0  0  0  0  0  0  0  0  0
   -1.1033   -4.6938    0.5625 O   0  0  0  0  0  0  0  0  0  0  0  0
   -1.2990   -4.6824   -0.7905 C   0  0  0  0  0  0  0  0  0  0  0  0
   -0.4916    0.2629   -0.6702 C   0  0  0  0  0  0  0  0  0  0  0  0
    0.1286    1.4856   -0.5438 C   0  0  0  0  0  0  0  0  0  0  0  0
    1.5636    1.6340   -0.3605 C   0  0  0  0  0  0  0  0  0  0  0  0
    2.0444    2.8064   -0.2517 O   0  0  0  0  0  0  0  0  0  0  0  0
    2.4633    0.5642   -0.2946 N   0  0  0  0  0  0  0  0  0  0  0  0
    3.8979    0.8139   -0.1071 C   0  0  2  0  0  0  0  0  0  0  0  0
    4.5698    0.2603   -1.3648 C   0  0  0  0  0  0  0  0  0  0  0  0
    4.4015    0.1204    1.0972 C   0  0  0  0  0  0  0  0  0  0  0  0
    4.0659   -1.1837    1.3724 C   0  0  0  0  0  0  0  0  0  0  0  0
    4.5523   -1.7808    2.4911 N   0  0  0  0  0  0  0  0  0  0  0  0
    5.3601   -1.1465    3.3570 C   0  0  0  0  0  0  0  0  0  0  0  0
    5.8801   -1.8334    4.5825 C   0  0  0  0  0  0  0  0  0  0  0  0
    4.9979   -2.8059    5.0276 F   0  0  0  0  0  0  0  0  0  0  0  0
    6.0990   -0.8866    5.5563 F   0  0  0  0  0  0  0  0  0  0  0  0
    7.0641   -2.4396    4.2169 F   0  0  0  0  0  0  0  0  0  0  0  0
    5.6881    0.1270    3.0888 N   0  0  0  0  0  0  0  0  0  0  0  0
    5.2304    0.7624    1.9912 C   0  0  0  0  0  0  0  0  0  0  0  0
   -0.6784    2.6174   -0.5977 C   0  0  0  0  0  0  0  0  0  0  0  0
   -2.4760    5.3698   -0.7085 S   0  0  0  0  0  0  0  0  0  0  0  0
   -3.7922    8.0439   -0.3392 H   0  0  0  0  0  0  0  0  0  0  0  0
   -4.8102    7.8729   -1.8572 H   0  0  0  0  0  0  0  0  0  0  0  0
   -5.4904    7.5340   -0.2453 H   0  0  0  0  0  0  0  0  0  0  0  0
   -5.9645    4.9002   -1.1589 H   0  0  0  0  0  0  0  0  0  0  0  0
   -3.6695    1.1542   -1.0272 H   0  0  0  0  0  0  0  0  0  0  0  0
   -1.0372   -2.2429    0.0744 H   0  0  0  0  0  0  0  0  0  0  0  0
   -0.8185   -2.1437   -1.7571 H   0  0  0  0  0  0  0  0  0  0  0  0
   -3.1098   -4.7536   -2.6227 H   0  0  0  0  0  0  0  0  0  0  0  0
   -3.9884   -3.1598   -2.2817 H   0  0  0  0  0  0  0  0  0  0  0  0
   -2.4173   -3.1811   -3.1287 H   0  0  0  0  0  0  0  0  0  0  0  0
   -3.9141   -4.5425   -0.0163 H   0  0  0  0  0  0  0  0  0  0  0  0
   -3.6717   -2.7684    0.4562 H   0  0  0  0  0  0  0  0  0  0  0  0
   -2.6769   -4.9155    1.9223 H   0  0  0  0  0  0  0  0  0  0  0  0
   -1.8813   -3.3047    1.7905 H   0  0  0  0  0  0  0  0  0  0  0  0
   -1.8257   -5.6397   -1.0692 H   0  0  0  0  0  0  0  0  0  0  0  0
   -0.3833   -4.5313   -1.3873 H   0  0  0  0  0  0  0  0  0  0  0  0
    0.1508   -0.6275   -0.6268 H   0  0  0  0  0  0  0  0  0  0  0  0
    2.1390   -0.4070   -0.3756 H   0  0  0  0  0  0  0  0  0  0  0  0
    4.0928    1.9001   -0.0360 H   0  0  0  0  0  0  0  0  0  0  0  0
    4.6115   -0.8382   -1.3295 H   0  0  0  0  0  0  0  0  0  0  0  0
    5.5711    0.7367   -1.4214 H   0  0  0  0  0  0  0  0  0  0  0  0
    4.0018    0.6471   -2.2488 H   0  0  0  0  0  0  0  0  0  0  0  0
    3.4219   -1.6930    0.6842 H   0  0  0  0  0  0  0  0  0  0  0  0
    5.5321    1.7906    1.8315 H   0  0  0  0  0  0  0  0  0  0  0  0
   -0.2360    3.5909   -0.5035 H   0  0  0  0  0  0  0  0  0  0  0  0
  1  2  1  0
  2  3  2  0
  3  4  1  0
  4  5  2  0
  5  6  1  0
  6  7  2  0
  7  8  1  0
  8  9  1  0
  9 10  1  0
 10 11  1  0
 11 12  1  0
 11 13  1  0
 13 14  1  0
 14 15  1  0
 15 16  1  0
  8 17  2  0
 17 18  1  0
 18 19  1  0
 19 20  2  0
 19 21  1  0
 21 22  1  0
 22 23  1  0
 22 24  1  0
 24 25  2  0
 25 26  1  0
 26 27  2  0
 27 28  1  0
 28 29  1  0
 28 30  1  0
 28 31  1  0
 27 32  1  0
 32 33  2  0
 18 34  2  0
  5 35  1  0
 35  2  1  0
 34  6  1  0
 16 11  1  0
 33 24  1  0
  1 36  1  0
  1 37  1  0
  1 38  1  0
  3 39  1  0
  7 40  1  0
 10 41  1  0
 10 42  1  0
 12 43  1  0
 12 44  1  0
 12 45  1  0
 13 46  1  0
 13 47  1  0
 14 48  1  0
 14 49  1  0
 16 50  1  0
 16 51  1  0
 17 52  1  0
 21 53  1  0
 22 54  1  1
 23 55  1  0
 23 56  1  0
 23 57  1  0
 25 58  1  0
 33 59  1  0
 34 60  1  0
M  END
$$$$
