
     RDKit          3D

 61 63  0  0  0  0  0  0  0  0999 V2000
   -7.9456   -1.3725   -1.5603 C   0  0  0  0  0  0  0  0  0  0  0  0
   -6.8514   -0.3566   -1.8494 C   0  0  0  0  0  0  0  0  0  0  0  0
   -5.8083   -0.4034   -0.7718 C   0  0  0  0  0  0  0  0  0  0  0  0
   -4.5458    0.7916   -1.1325 S   0  0  0  0  0  6  0  0  0  0  0  0
   -5.1146    2.1695   -1.2772 O   0  0  0  0  0  0  0  0  0  0  0  0
   -3.9295    0.4339   -2.4583 O   0  0  0  0  0  0  0  0  0  0  0  0
   -3.3107    0.7716    0.0954 N   0  0  0  0  0  0  0  0  0  0  0  0
   -2.7291   -0.5411    0.0773 C   0  0  0  0  0  0  0  0  0  0  0  0
   -1.2550   -0.3973   -0.3430 C   0  0  0  0  0  0  0  0  0  0  0  0
   -0.6803    0.4694    0.6292 N   0  0  0  0  0  0  0  0  0  0  0  0
    0.7803    0.2967    0.7398 C   0  0  0  0  0  0  0  0  0  0  0  0
    1.3493    0.5870   -0.5721 C   0  0  0  0  0  0  0  0  0  0  0  0
    2.7513    0.5554   -0.8277 N   0  0  0  0  0  0  0  0  0  0  0  0
    3.6030   -0.5549   -0.8201 C   0  0  0  0  0  0  0  0  0  0  0  0
    3.1177   -1.7284   -0.5821 O   0  0  0  0  0  0  0  0  0  0  0  0
    5.0373   -0.4919   -1.0675 C   0  0  0  0  0  0  0  0  0  0  0  0
    5.7606   -1.6969   -1.1118 C   0  0  0  0  0  0  0  0  0  0  0  0
    5.1000   -2.8749   -0.9314 F   0  0  0  0  0  0  0  0  0  0  0  0
    7.1209   -1.7476   -1.3321 C   0  0  0  0  0  0  0  0  0  0  0  0
    7.8336   -0.5983   -1.5201 C   0  0  0  0  0  0  0  0  0  0  0  0
    7.1803    0.5915   -1.4861 C   0  0  0  0  0  0  0  0  0  0  0  0
    5.7936    0.6165   -1.2598 C   0  0  0  0  0  0  0  0  0  0  0  0
    5.2611    1.8334   -1.2392 F   0  0  0  0  0  0  0  0  0  0  0  0
    1.2646    1.2757    1.8032 C   0  0  0  0  0  0  0  0  0  0  0  0
    0.7910    0.8130    3.1574 C   0  0  0  0  0  0  0  0  0  0  0  0
    1.6961   -0.3356    3.5868 C   0  0  0  0  0  0  0  0  0  0  0  0
    2.0486   -1.1519    2.3479 C   0  0  0  0  0  0  0  0  0  0  0  0
    0.9353   -1.0660    1.3224 C   0  0  0  0  0  0  0  0  0  0  0  0
   -1.1246    1.8075    0.6168 C   0  0  0  0  0  0  0  0  0  0  0  0
   -2.4238    1.8481   -0.1953 C   0  0  0  0  0  0  0  0  0  0  0  0
   -8.0672   -1.4897   -0.4733 H   0  0  0  0  0  0  0  0  0  0  0  0
   -7.6207   -2.3444   -1.9893 H   0  0  0  0  0  0  0  0  0  0  0  0
   -8.9033   -1.0334   -2.0108 H   0  0  0  0  0  0  0  0  0  0  0  0
   -6.4273   -0.6270   -2.8484 H   0  0  0  0  0  0  0  0  0  0  0  0
   -7.2619    0.6649   -1.9583 H   0  0  0  0  0  0  0  0  0  0  0  0
   -5.3725   -1.4154   -0.6983 H   0  0  0  0  0  0  0  0  0  0  0  0
   -6.2701   -0.1437    0.1837 H   0  0  0  0  0  0  0  0  0  0  0  0
   -3.2592   -1.2706   -0.5410 H   0  0  0  0  0  0  0  0  0  0  0  0
   -2.6825   -0.8821    1.1508 H   0  0  0  0  0  0  0  0  0  0  0  0
   -0.8050   -1.4030   -0.2487 H   0  0  0  0  0  0  0  0  0  0  0  0
   -1.2051   -0.0026   -1.3871 H   0  0  0  0  0  0  0  0  0  0  0  0
    0.8106   -0.1233   -1.3100 H   0  0  0  0  0  0  0  0  0  0  0  0
    0.9832    1.6170   -0.8969 H   0  0  0  0  0  0  0  0  0  0  0  0
    3.2583    1.4816   -1.0659 H   0  0  0  0  0  0  0  0  0  0  0  0
    7.6617   -2.6840   -1.3633 H   0  0  0  0  0  0  0  0  0  0  0  0
    8.9013   -0.6251   -1.6940 H   0  0  0  0  0  0  0  0  0  0  0  0
    7.7317    1.4988   -1.6330 H   0  0  0  0  0  0  0  0  0  0  0  0
    1.0181    2.3126    1.5735 H   0  0  0  0  0  0  0  0  0  0  0  0
    2.3796    1.2053    1.8100 H   0  0  0  0  0  0  0  0  0  0  0  0
    0.8440    1.6224    3.9134 H   0  0  0  0  0  0  0  0  0  0  0  0
   -0.2445    0.4131    3.1224 H   0  0  0  0  0  0  0  0  0  0  0  0
    2.6477    0.0634    3.9914 H   0  0  0  0  0  0  0  0  0  0  0  0
    1.1466   -0.9221    4.3308 H   0  0  0  0  0  0  0  0  0  0  0  0
    2.0816   -2.2104    2.6766 H   0  0  0  0  0  0  0  0  0  0  0  0
    3.0329   -0.8726    1.9893 H   0  0  0  0  0  0  0  0  0  0  0  0
    0.9432   -1.9154    0.6686 H   0  0  0  0  0  0  0  0  0  0  0  0
    0.0033   -1.2953    1.9952 H   0  0  0  0  0  0  0  0  0  0  0  0
   -0.4663    2.5559    0.1803 H   0  0  0  0  0  0  0  0  0  0  0  0
   -1.4461    2.0753    1.6641 H   0  0  0  0  0  0  0  0  0  0  0  0
   -2.1896    1.8884   -1.2713 H   0  0  0  0  0  0  0  0  0  0  0  0
   -2.9277    2.7928    0.1017 H   0  0  0  0  0  0  0  0  0  0  0  0
  1  2  1  0
  2  3  1  0
  3  4  1  0
  4  5  2  0
  4  6  2  0
  4  7  1  0
  7  8  1  0
  8  9  1  0
  9 10  1  0
 10 11  1  0
 11 12  1  0
 12 13  1  0
 13 14  1  0
 14 15  2  0
 14 16  1  0
 16 17  2  0
 17 18  1  0
 17 19  1  0
 19 20  2  0
 20 21  1  0
 21 22  2  0
 22 23  1  0
 11 24  1  0
 24 25  1  0
 25 26  1  0
 26 27  1  0
 27 28  1  0
 10 29  1  0
 29 30  1  0
 30  7  1  0
 28 11  1  0
 22 16  1  0
  1 31  1  0
  1 32  1  0
  1 33  1  0
  2 34  1  0
  2 35  1  0
  3 36  1  0
  3 37  1  0
  8 38  1  0
  8 39  1  0
  9 40  1  0
  9 41  1  0
 12 42  1  0
 12 43  1  0
 13 44  1  0
 19 45  1  0
 20 46  1  0
 21 47  1  0
 24 48  1  0
 24 49  1  0
 25 50  1  0
 25 51  1  0
 26 52  1  0
 26 53  1  0
 27 54  1  0
 27 55  1  0
 28 56  1  0
 28 57  1  0
 29 58  1  0
 29 59  1  0
 30 60  1  0
 30 61  1  0
M  END
$$$$
