
     RDKit          3D

 70 74  0  0  0  0  0  0  0  0999 V2000
    1.1845   -3.5404   -2.8088 C   0  0  0  0  0  0  0  0  0  0  0  0
    1.6247   -3.0630   -1.4305 C   0  0  0  0  0  0  0  0  0  0  0  0
    1.3852   -1.5930   -1.2571 C   0  0  0  0  0  0  0  0  0  0  0  0
    1.8067   -1.1337    0.0590 C   0  0  0  0  0  0  0  0  0  0  0  0
    0.9930   -1.3660    1.1484 C   0  0  0  0  0  0  0  0  0  0  0  0
   -0.2509   -2.0418    1.1151 O   0  0  0  0  0  0  0  0  0  0  0  0
   -0.9794   -2.2219    2.3084 C   0  0  0  0  0  0  0  0  0  0  0  0
   -2.2051   -3.0119    2.0944 C   0  0  0  0  0  0  0  0  0  0  0  0
   -3.1781   -2.3802    1.1769 C   0  0  0  0  0  0  0  0  0  0  0  0
   -3.6018   -1.1336    1.6903 O   0  0  0  0  0  0  0  0  0  0  0  0
   -4.5825   -0.3525    1.0831 C   0  0  0  0  0  0  0  0  0  0  0  0
   -5.0172    0.8632    1.5386 C   0  0  0  0  0  0  0  0  0  0  0  0
   -6.0024    1.5683    0.8772 C   0  0  0  0  0  0  0  0  0  0  0  0
   -6.5923    1.0888   -0.2625 C   0  0  0  0  0  0  0  0  0  0  0  0
   -6.1967   -0.1434   -0.7829 C   0  0  0  0  0  0  0  0  0  0  0  0
   -5.1975   -0.8153   -0.0776 C   0  0  0  0  0  0  0  0  0  0  0  0
   -7.5346    1.9322   -0.7469 N   0  0  0  0  0  0  0  0  0  0  0  0
   -8.3764    1.7382   -1.9118 C   0  0  0  0  0  0  0  0  0  0  0  0
   -9.6619    1.0693   -1.5118 C   0  0  0  0  0  0  0  0  0  0  0  0
  -10.7533    0.3009   -1.1781 O   0  0  0  0  0  0  0  0  0  0  0  0
  -10.5718    1.8792   -1.1889 O   0  0  0  0  0  0  0  0  0  0  0  0
   -7.5227    2.9593    0.1186 C   0  0  0  0  0  0  0  0  0  0  0  0
   -6.5872    2.7767    1.1433 C   0  0  0  0  0  0  0  0  0  0  0  0
    1.4473   -0.8968    2.3722 C   0  0  0  0  0  0  0  0  0  0  0  0
    2.6311   -0.2272    2.5974 C   0  0  0  0  0  0  0  0  0  0  0  0
    3.4326   -0.0107    1.4813 C   0  0  0  0  0  0  0  0  0  0  0  0
    3.0065   -0.4600    0.2699 C   0  0  0  0  0  0  0  0  0  0  0  0
    3.8732   -0.2396   -0.7808 C   0  0  0  0  0  0  0  0  0  0  0  0
    5.0953    0.3841   -0.6562 C   0  0  0  0  0  0  0  0  0  0  0  0
    5.5023    0.8289    0.5947 C   0  0  0  0  0  0  0  0  0  0  0  0
    4.6460    0.6189    1.6483 C   0  0  0  0  0  0  0  0  0  0  0  0
    6.7953    1.4818    0.8710 C   0  0  0  0  0  0  0  0  0  0  0  0
    7.1555    1.4412    2.0883 O   0  0  0  0  0  0  0  0  0  0  0  0
    7.6993    2.1539   -0.0652 C   0  0  0  0  0  0  0  0  0  0  0  0
    7.4540    2.7736   -1.2834 C   0  0  0  0  0  0  0  0  0  0  0  0
    8.4400    3.3192   -2.0344 C   0  0  0  0  0  0  0  0  0  0  0  0
    9.7525    3.2934   -1.6368 C   0  0  0  0  0  0  0  0  0  0  0  0
   10.0269    2.6988   -0.4573 C   0  0  0  0  0  0  0  0  0  0  0  0
    9.0501    2.1426    0.3169 C   0  0  0  0  0  0  0  0  0  0  0  0
    0.2005   -3.1033   -3.0594 H   0  0  0  0  0  0  0  0  0  0  0  0
    2.0040   -3.2462   -3.4972 H   0  0  0  0  0  0  0  0  0  0  0  0
    1.0666   -4.6358   -2.7439 H   0  0  0  0  0  0  0  0  0  0  0  0
    1.1046   -3.6888   -0.6906 H   0  0  0  0  0  0  0  0  0  0  0  0
    2.7151   -3.2951   -1.3376 H   0  0  0  0  0  0  0  0  0  0  0  0
    1.7179   -0.9965   -2.1255 H   0  0  0  0  0  0  0  0  0  0  0  0
    0.2552   -1.4641   -1.2895 H   0  0  0  0  0  0  0  0  0  0  0  0
   -1.2979   -1.1885    2.6244 H   0  0  0  0  0  0  0  0  0  0  0  0
   -0.3789   -2.7092    3.1073 H   0  0  0  0  0  0  0  0  0  0  0  0
   -1.9526   -4.0395    1.7026 H   0  0  0  0  0  0  0  0  0  0  0  0
   -2.7078   -3.1637    3.0954 H   0  0  0  0  0  0  0  0  0  0  0  0
   -4.0478   -3.0414    0.9285 H   0  0  0  0  0  0  0  0  0  0  0  0
   -2.6765   -2.2136    0.1976 H   0  0  0  0  0  0  0  0  0  0  0  0
   -4.5784    1.2538    2.4221 H   0  0  0  0  0  0  0  0  0  0  0  0
   -6.6213   -0.5738   -1.6783 H   0  0  0  0  0  0  0  0  0  0  0  0
   -4.8526   -1.7907   -0.4528 H   0  0  0  0  0  0  0  0  0  0  0  0
   -7.8178    1.1088   -2.6588 H   0  0  0  0  0  0  0  0  0  0  0  0
   -8.6398    2.6722   -2.4254 H   0  0  0  0  0  0  0  0  0  0  0  0
  -10.6342   -0.4482   -0.4964 H   0  0  0  0  0  0  0  0  0  0  0  0
   -8.1932    3.8168   -0.0145 H   0  0  0  0  0  0  0  0  0  0  0  0
   -6.3782    3.4525    1.9636 H   0  0  0  0  0  0  0  0  0  0  0  0
    0.8192   -1.0650    3.2611 H   0  0  0  0  0  0  0  0  0  0  0  0
    2.9238    0.1119    3.5767 H   0  0  0  0  0  0  0  0  0  0  0  0
    3.6352   -0.5482   -1.7660 H   0  0  0  0  0  0  0  0  0  0  0  0
    5.7558    0.5339   -1.4922 H   0  0  0  0  0  0  0  0  0  0  0  0
    4.9003    0.9460    2.6561 H   0  0  0  0  0  0  0  0  0  0  0  0
    6.4190    2.7808   -1.5513 H   0  0  0  0  0  0  0  0  0  0  0  0
    8.1287    3.7788   -2.9683 H   0  0  0  0  0  0  0  0  0  0  0  0
   10.5157    3.7322   -2.2483 H   0  0  0  0  0  0  0  0  0  0  0  0
   11.0579    2.6657   -0.1248 H   0  0  0  0  0  0  0  0  0  0  0  0
    9.3673    1.6769    1.2584 H   0  0  0  0  0  0  0  0  0  0  0  0
  1  2  1  0
  2  3  1  0
  3  4  1  0
  4  5  2  0
  5  6  1  0
  6  7  1  0
  7  8  1  0
  8  9  1  0
  9 10  1  0
 10 11  1  0
 11 12  2  0
 12 13  1  0
 13 14  2  0
 14 15  1  0
 15 16  2  0
 14 17  1  0
 17 18  1  0
 18 19  1  0
 19 20  1  0
 19 21  2  0
 17 22  1  0
 22 23  2  0
  5 24  1  0
 24 25  2  0
 25 26  1  0
 26 27  2  0
 27 28  1  0
 28 29  2  0
 29 30  1  0
 30 31  2  0
 30 32  1  0
 32 33  2  0
 32 34  1  0
 34 35  2  0
 35 36  1  0
 36 37  2  0
 37 38  1  0
 38 39  2  0
 27  4  1  0
 39 34  1  0
 16 11  1  0
 31 26  1  0
 23 13  1  0
  1 40  1  0
  1 41  1  0
  1 42  1  0
  2 43  1  0
  2 44  1  0
  3 45  1  0
  3 46  1  0
  7 47  1  0
  7 48  1  0
  8 49  1  0
  8 50  1  0
  9 51  1  0
  9 52  1  0
 12 53  1  0
 15 54  1  0
 16 55  1  0
 18 56  1  0
 18 57  1  0
 20 58  1  0
 22 59  1  0
 23 60  1  0
 24 61  1  0
 25 62  1  0
 28 63  1  0
 29 64  1  0
 31 65  1  0
 35 66  1  0
 36 67  1  0
 37 68  1  0
 38 69  1  0
 39 70  1  0
M  END
$$$$
