
     RDKit          3D

 52 54  0  0  0  0  0  0  0  0999 V2000
    9.8748   -0.6509    0.8945 C   0  0  0  0  0  0  0  0  0  0  0  0
    8.6487   -1.2943    1.1171 O   0  0  0  0  0  0  0  0  0  0  0  0
    7.4260   -0.6887    0.8227 C   0  0  0  0  0  0  0  0  0  0  0  0
    6.2236   -1.3218    1.0419 C   0  0  0  0  0  0  0  0  0  0  0  0
    5.0384   -0.7445    0.7605 N   0  0  0  0  0  0  0  0  0  0  0  0
    5.0323    0.4781    0.2541 C   0  0  0  0  0  0  0  0  0  0  0  0
    3.7772    1.1908   -0.0858 C   0  0  0  0  0  0  0  0  0  0  0  0
    3.8148    2.3453   -0.5625 O   0  0  0  0  0  0  0  0  0  0  0  0
    2.5250    0.5660    0.1282 N   0  0  0  0  0  0  0  0  0  0  0  0
    1.2499    1.1194   -0.1465 C   0  0  0  0  0  0  0  0  0  0  0  0
    1.0021    2.3501   -0.6636 C   0  0  0  0  0  0  0  0  0  0  0  0
   -0.2694    2.7963   -0.8939 C   0  0  0  0  0  0  0  0  0  0  0  0
   -1.3534    1.9656   -0.5899 C   0  0  0  0  0  0  0  0  0  0  0  0
   -2.5794    2.4519   -0.8362 F   0  0  0  0  0  0  0  0  0  0  0  0
   -1.1435    0.7133   -0.0649 C   0  0  0  0  0  0  0  0  0  0  0  0
   -2.3253   -0.1675    0.2397 C   0  0  0  0  0  0  0  0  0  0  0  0
   -1.8467   -1.4720    0.8419 C   0  0  0  0  0  0  0  0  0  0  0  0
   -1.1540   -1.2597    2.0411 F   0  0  0  0  0  0  0  0  0  0  0  0
   -2.9154   -2.2712    1.1818 F   0  0  0  0  0  0  0  0  0  0  0  0
   -3.1638    0.5061    1.3090 C   0  0  0  0  0  0  0  0  0  0  0  0
   -4.8621    0.6328    0.9344 S   0  0  0  0  0  6  0  0  0  0  0  0
   -5.2021    2.0955    0.6642 O   0  0  0  0  0  0  0  0  0  0  0  0
   -5.7190    0.2688    2.1325 O   0  0  0  0  0  0  0  0  0  0  0  0
   -5.3024   -0.3693   -0.4279 C   0  0  0  0  0  0  0  0  0  0  0  0
   -6.4007    0.3614   -1.1843 C   0  0  0  0  0  0  0  0  0  0  0  0
   -5.7954   -1.7576   -0.0334 C   0  0  0  0  0  0  0  0  0  0  0  0
   -4.1632   -0.4745   -1.3720 C   0  0  0  0  0  0  0  0  0  0  0  0
   -4.4757   -0.6996   -2.7836 N   0  0  0  0  0  0  0  0  0  0  0  0
   -2.9901   -0.3746   -0.9750 N   0  0  0  0  0  0  0  0  0  0  0  0
    0.1446    0.3015    0.1513 C   0  0  0  0  0  0  0  0  0  0  0  0
    6.2159    1.1397    0.0224 C   0  0  0  0  0  0  0  0  0  0  0  0
    7.3889    0.5454    0.3104 N   0  0  0  0  0  0  0  0  0  0  0  0
   10.0395    0.0602    1.7308 H   0  0  0  0  0  0  0  0  0  0  0  0
   10.7041   -1.3598    0.7450 H   0  0  0  0  0  0  0  0  0  0  0  0
    9.7537   -0.0489   -0.0442 H   0  0  0  0  0  0  0  0  0  0  0  0
    6.2862   -2.3286    1.4610 H   0  0  0  0  0  0  0  0  0  0  0  0
    2.6183   -0.4174    0.5388 H   0  0  0  0  0  0  0  0  0  0  0  0
    1.7987    3.0112   -0.9077 H   0  0  0  0  0  0  0  0  0  0  0  0
   -0.4527    3.7778   -1.3060 H   0  0  0  0  0  0  0  0  0  0  0  0
   -1.2253   -2.0532    0.1295 H   0  0  0  0  0  0  0  0  0  0  0  0
   -2.7479    1.5321    1.5409 H   0  0  0  0  0  0  0  0  0  0  0  0
   -3.0501   -0.0454    2.2599 H   0  0  0  0  0  0  0  0  0  0  0  0
   -7.3579    0.0845   -0.6917 H   0  0  0  0  0  0  0  0  0  0  0  0
   -6.2832    1.4525   -1.1551 H   0  0  0  0  0  0  0  0  0  0  0  0
   -6.4760   -0.0307   -2.2299 H   0  0  0  0  0  0  0  0  0  0  0  0
   -5.0851   -2.4984   -0.4456 H   0  0  0  0  0  0  0  0  0  0  0  0
   -6.7721   -1.9574   -0.5277 H   0  0  0  0  0  0  0  0  0  0  0  0
   -5.8733   -1.8190    1.0676 H   0  0  0  0  0  0  0  0  0  0  0  0
   -4.4629    0.0977   -3.4440 H   0  0  0  0  0  0  0  0  0  0  0  0
   -4.7035   -1.6351   -3.1093 H   0  0  0  0  0  0  0  0  0  0  0  0
    0.3753   -0.6801    0.5542 H   0  0  0  0  0  0  0  0  0  0  0  0
    6.2134    2.1470   -0.3948 H   0  0  0  0  0  0  0  0  0  0  0  0
  1  2  1  0
  2  3  1  0
  3  4  2  0
  4  5  1  0
  5  6  2  0
  6  7  1  0
  7  8  2  0
  7  9  1  0
  9 10  1  0
 10 11  2  0
 11 12  1  0
 12 13  2  0
 13 14  1  0
 13 15  1  0
 15 16  1  0
 16 17  1  0
 17 18  1  0
 17 19  1  0
 16 20  1  0
 20 21  1  0
 21 22  2  0
 21 23  2  0
 21 24  1  0
 24 25  1  0
 24 26  1  0
 24 27  1  0
 27 28  1  0
 27 29  2  0
 15 30  2  0
  6 31  1  0
 31 32  2  0
 32  3  1  0
 30 10  1  0
 29 16  1  0
  1 33  1  0
  1 34  1  0
  1 35  1  0
  4 36  1  0
  9 37  1  0
 11 38  1  0
 12 39  1  0
 17 40  1  0
 20 41  1  0
 20 42  1  0
 25 43  1  0
 25 44  1  0
 25 45  1  0
 26 46  1  0
 26 47  1  0
 26 48  1  0
 28 49  1  0
 28 50  1  0
 30 51  1  0
 31 52  1  0
M  END
$$$$
