
     RDKit          3D

 42 44  0  0  0  0  0  0  0  0999 V2000
   -4.1646   -2.0449   -2.0446 C   0  0  0  0  0  0  0  0  0  0  0  0
   -3.0921   -1.5373   -1.2729 O   0  0  0  0  0  0  0  0  0  0  0  0
   -3.1868   -0.2727   -0.7099 C   0  0  0  0  0  0  0  0  0  0  0  0
   -4.3328    0.4905   -0.9052 C   0  0  0  0  0  0  0  0  0  0  0  0
   -4.4827    1.7524   -0.3707 C   0  0  0  0  0  0  0  0  0  0  0  0
   -3.4472    2.2833    0.3942 C   0  0  0  0  0  0  0  0  0  0  0  0
   -2.2986    1.5518    0.6060 C   0  0  0  0  0  0  0  0  0  0  0  0
   -2.1845    0.2882    0.0531 C   0  0  0  0  0  0  0  0  0  0  0  0
   -0.9463   -0.4791    0.2890 C   0  0  0  0  0  0  0  0  0  0  0  0
    0.1246   -0.2203   -0.7068 C   0  0  0  0  0  0  0  0  0  0  0  0
    1.3748   -0.1705    0.0945 C   0  0  0  0  0  0  0  0  0  0  0  0
    2.7229   -0.1426   -0.4952 C   0  0  0  0  0  0  0  0  0  0  0  0
    2.9091   -0.1620   -1.8613 C   0  0  0  0  0  0  0  0  0  0  0  0
    4.1686   -0.1361   -2.4351 C   0  0  0  0  0  0  0  0  0  0  0  0
    5.2552   -0.0896   -1.6105 C   0  0  0  0  0  0  0  0  0  0  0  0
    6.5168   -0.0638   -2.1989 O   0  0  0  0  0  0  0  0  0  0  0  0
    5.0988   -0.0693   -0.2472 C   0  0  0  0  0  0  0  0  0  0  0  0
    3.8379   -0.0954    0.3216 C   0  0  0  0  0  0  0  0  0  0  0  0
    3.6582   -0.0755    1.6977 O   0  0  0  0  0  0  0  0  0  0  0  0
    1.0525   -0.1574    1.3166 N   0  0  0  0  0  0  0  0  0  0  0  0
   -0.3142   -0.1916    1.5526 N   0  0  0  0  0  0  0  0  0  0  0  0
   -0.8713    0.0262    2.8251 C   0  0  0  0  0  0  0  0  0  0  0  0
   -0.0331    0.3101    3.9983 C   0  0  0  0  0  0  0  0  0  0  0  0
   -2.1137   -0.0265    2.9440 O   0  0  0  0  0  0  0  0  0  0  0  0
   -4.0361   -3.1264   -2.2183 H   0  0  0  0  0  0  0  0  0  0  0  0
   -5.1489   -1.9405   -1.5045 H   0  0  0  0  0  0  0  0  0  0  0  0
   -4.1907   -1.4944   -3.0203 H   0  0  0  0  0  0  0  0  0  0  0  0
   -5.1637    0.1187   -1.4928 H   0  0  0  0  0  0  0  0  0  0  0  0
   -5.3610    2.3574   -0.5107 H   0  0  0  0  0  0  0  0  0  0  0  0
   -3.5243    3.2634    0.8287 H   0  0  0  0  0  0  0  0  0  0  0  0
   -1.5275    2.0140    1.2063 H   0  0  0  0  0  0  0  0  0  0  0  0
   -1.2110   -1.5556    0.3003 H   0  0  0  0  0  0  0  0  0  0  0  0
    0.0495    0.7570   -1.2247 H   0  0  0  0  0  0  0  0  0  0  0  0
    0.1940   -1.0796   -1.4049 H   0  0  0  0  0  0  0  0  0  0  0  0
    2.0286   -0.1996   -2.5211 H   0  0  0  0  0  0  0  0  0  0  0  0
    4.2701   -0.1527   -3.5055 H   0  0  0  0  0  0  0  0  0  0  0  0
    7.2362   -0.6941   -1.8595 H   0  0  0  0  0  0  0  0  0  0  0  0
    5.9913   -0.0321    0.3727 H   0  0  0  0  0  0  0  0  0  0  0  0
    4.4262   -0.2043    2.3440 H   0  0  0  0  0  0  0  0  0  0  0  0
   -0.5040    1.0241    4.7128 H   0  0  0  0  0  0  0  0  0  0  0  0
    0.9470    0.7937    3.7151 H   0  0  0  0  0  0  0  0  0  0  0  0
    0.2727   -0.6168    4.5479 H   0  0  0  0  0  0  0  0  0  0  0  0
  1  2  1  0
  2  3  1  0
  3  4  2  0
  4  5  1  0
  5  6  2  0
  6  7  1  0
  7  8  2  0
  8  9  1  0
  9 10  1  0
 10 11  1  0
 11 12  1  0
 12 13  2  0
 13 14  1  0
 14 15  2  0
 15 16  1  0
 15 17  1  0
 17 18  2  0
 18 19  1  0
 11 20  2  0
 20 21  1  0
 21 22  1  0
 22 23  1  0
 22 24  2  0
  8  3  1  0
 21  9  1  0
 18 12  1  0
  1 25  1  0
  1 26  1  0
  1 27  1  0
  4 28  1  0
  5 29  1  0
  6 30  1  0
  7 31  1  0
  9 32  1  0
 10 33  1  0
 10 34  1  0
 13 35  1  0
 14 36  1  0
 16 37  1  0
 17 38  1  0
 19 39  1  0
 23 40  1  0
 23 41  1  0
 23 42  1  0
M  END
$$$$
