
     RDKit          3D

 48 50  0  0  0  0  0  0  0  0999 V2000
    5.2122   -0.9839   -2.9979 C   0  0  0  0  0  0  0  0  0  0  0  0
    4.3967   -0.6089   -1.9038 O   0  0  0  0  0  0  0  0  0  0  0  0
    4.7578   -1.0760   -0.6469 C   0  0  0  0  0  0  0  0  0  0  0  0
    5.8609   -1.8765   -0.4306 C   0  0  0  0  0  0  0  0  0  0  0  0
    6.1952   -2.3276    0.8405 C   0  0  0  0  0  0  0  0  0  0  0  0
    7.5953   -3.3436    1.1151 Cl  0  0  0  0  0  0  0  0  0  0  0  0
    5.3701   -1.9348    1.8699 C   0  0  0  0  0  0  0  0  0  0  0  0
    4.3030   -1.1556    1.6325 N   0  0  0  0  0  0  0  0  0  0  0  0
    3.9626   -0.7087    0.4102 C   0  0  0  0  0  0  0  0  0  0  0  0
    2.7769    0.1418    0.2346 C   0  0  0  0  0  0  0  0  0  0  0  0
    2.5102    0.5260   -0.9199 O   0  0  0  0  0  0  0  0  0  0  0  0
    1.9507    0.5297    1.2964 N   0  0  0  0  0  0  0  0  0  0  0  0
    0.7926    1.3582    1.1377 C   0  0  0  0  0  0  0  0  0  0  0  0
    0.8253    2.7227    1.2148 C   0  0  0  0  0  0  0  0  0  0  0  0
   -0.3196    3.4409    1.0520 C   0  0  0  0  0  0  0  0  0  0  0  0
   -1.5236    2.7939    0.8073 C   0  0  0  0  0  0  0  0  0  0  0  0
   -2.5988    3.5880    0.6284 F   0  0  0  0  0  0  0  0  0  0  0  0
   -1.6057    1.3990    0.7210 C   0  0  0  0  0  0  0  0  0  0  0  0
   -2.9455    0.8344    0.4972 C   0  0  2  0  0  0  0  0  0  0  0  0
   -3.8930    1.2828    1.6140 C   0  0  0  0  0  0  0  0  0  0  0  0
   -5.1655    0.7727    1.4232 F   0  0  0  0  0  0  0  0  0  0  0  0
   -2.9744   -0.6773    0.4039 C   0  0  0  0  0  0  0  0  0  0  0  0
   -3.9469   -1.2290   -0.5874 C   0  0  1  0  0  0  0  0  0  0  0  0
   -4.7262   -2.4338   -0.0707 C   0  0  0  0  0  0  0  0  0  0  0  0
   -3.8139   -3.4441    0.2473 F   0  0  0  0  0  0  0  0  0  0  0  0
   -5.5878   -2.8986   -1.0455 F   0  0  0  0  0  0  0  0  0  0  0  0
   -5.4934   -2.1170    1.0225 F   0  0  0  0  0  0  0  0  0  0  0  0
   -4.8599   -0.3080   -1.1079 O   0  0  0  0  0  0  0  0  0  0  0  0
   -4.3287    0.9298   -1.5022 C   0  0  0  0  0  0  0  0  0  0  0  0
   -4.7311    1.6184   -2.6795 N   0  0  0  0  0  0  0  0  0  0  0  0
   -3.4407    1.4220   -0.7262 N   0  0  0  0  0  0  0  0  0  0  0  0
   -0.4282    0.7384    0.8922 C   0  0  0  0  0  0  0  0  0  0  0  0
    6.2955   -0.8424   -2.7917 H   0  0  0  0  0  0  0  0  0  0  0  0
    5.0462   -2.0193   -3.3309 H   0  0  0  0  0  0  0  0  0  0  0  0
    5.0015   -0.3155   -3.8832 H   0  0  0  0  0  0  0  0  0  0  0  0
    6.4868   -2.1674   -1.2525 H   0  0  0  0  0  0  0  0  0  0  0  0
    5.6295   -2.2861    2.8637 H   0  0  0  0  0  0  0  0  0  0  0  0
    2.1999    0.1906    2.2597 H   0  0  0  0  0  0  0  0  0  0  0  0
    1.7920    3.2238    1.4101 H   0  0  0  0  0  0  0  0  0  0  0  0
   -0.2556    4.5212    1.1198 H   0  0  0  0  0  0  0  0  0  0  0  0
   -3.9373    2.3539    1.7660 H   0  0  0  0  0  0  0  0  0  0  0  0
   -3.5205    0.8249    2.5626 H   0  0  0  0  0  0  0  0  0  0  0  0
   -3.3298   -1.0449    1.4153 H   0  0  0  0  0  0  0  0  0  0  0  0
   -1.9996   -1.1489    0.2368 H   0  0  0  0  0  0  0  0  0  0  0  0
   -3.3387   -1.6242   -1.4667 H   0  0  0  0  0  0  0  0  0  0  0  0
   -5.6886    2.0015   -2.7278 H   0  0  0  0  0  0  0  0  0  0  0  0
   -4.0664    1.7251   -3.4632 H   0  0  0  0  0  0  0  0  0  0  0  0
   -0.4416   -0.3674    0.8394 H   0  0  0  0  0  0  0  0  0  0  0  0
  1  2  1  0
  2  3  1  0
  3  4  2  0
  4  5  1  0
  5  6  1  0
  5  7  2  0
  7  8  1  0
  8  9  2  0
  9 10  1  0
 10 11  2  0
 10 12  1  0
 12 13  1  0
 13 14  2  0
 14 15  1  0
 15 16  2  0
 16 17  1  0
 16 18  1  0
 18 19  1  0
 19 20  1  1
 20 21  1  0
 19 22  1  0
 22 23  1  0
 23 24  1  0
 24 25  1  0
 24 26  1  0
 24 27  1  0
 23 28  1  0
 28 29  1  0
 29 30  1  0
 29 31  2  0
 18 32  2  0
  9  3  1  0
 32 13  1  0
 31 19  1  0
  1 33  1  0
  1 34  1  0
  1 35  1  0
  4 36  1  0
  7 37  1  0
 12 38  1  0
 14 39  1  0
 15 40  1  0
 20 41  1  0
 20 42  1  0
 22 43  1  0
 22 44  1  0
 23 45  1  6
 30 46  1  0
 30 47  1  0
 32 48  1  0
M  END
$$$$
