
     RDKit          3D

 44 46  0  0  0  0  0  0  0  0999 V2000
    2.4923    0.5436   -2.4809 O   0  0  0  0  0  0  0  0  0  0  0  0
    2.2913    0.0410   -1.2874 C   0  0  0  0  0  0  0  0  0  0  0  0
    3.1910    0.4286   -0.2707 N   0  0  0  0  0  0  0  0  0  0  0  0
    4.2625    1.3420   -0.6846 C   0  0  0  0  0  0  0  0  0  0  0  0
    4.7929    2.2118    0.3851 C   0  0  0  0  0  0  0  0  0  0  0  0
    4.2933    1.9076    1.6430 O   0  0  0  0  0  0  0  0  0  0  0  0
    4.4109    0.5086    1.7875 C   0  0  0  0  0  0  0  0  0  0  0  0
    3.1092   -0.0086    1.1022 C   0  0  0  0  0  0  0  0  0  0  0  0
    1.1860   -0.8151   -1.2379 N   0  0  0  0  0  0  0  0  0  0  0  0
    0.8010   -1.4875   -0.0354 C   0  0  0  0  0  0  0  0  0  0  0  0
   -0.5692   -2.1583   -0.2698 C   0  0  0  0  0  0  0  0  0  0  0  0
   -1.4146   -1.1868   -0.8685 N   0  0  0  0  0  0  0  0  0  0  0  0
   -2.5452   -0.6130   -0.2441 C   0  0  0  0  0  0  0  0  0  0  0  0
   -2.8753   -0.8898    1.0823 C   0  0  0  0  0  0  0  0  0  0  0  0
   -3.9860   -0.3281    1.6861 C   0  0  0  0  0  0  0  0  0  0  0  0
   -4.8200    0.5322    1.0060 C   0  0  0  0  0  0  0  0  0  0  0  0
   -6.0078    1.1240    1.6742 C   0  0  0  0  0  0  0  0  0  0  0  0
   -5.8320    1.0923    3.0301 F   0  0  0  0  0  0  0  0  0  0  0  0
   -7.1866    0.5211    1.2846 F   0  0  0  0  0  0  0  0  0  0  0  0
   -6.0631    2.4711    1.2918 F   0  0  0  0  0  0  0  0  0  0  0  0
   -4.5123    0.8180   -0.3022 C   0  0  0  0  0  0  0  0  0  0  0  0
   -3.3887    0.2492   -0.9115 C   0  0  0  0  0  0  0  0  0  0  0  0
   -1.0568   -0.7759   -2.2223 C   0  0  0  0  0  0  0  0  0  0  0  0
    0.4167   -0.9997   -2.4753 C   0  0  0  0  0  0  0  0  0  0  0  0
    3.8670    1.9316   -1.5341 H   0  0  0  0  0  0  0  0  0  0  0  0
    5.0705    0.6930   -1.1146 H   0  0  0  0  0  0  0  0  0  0  0  0
    4.5544    3.2716    0.1289 H   0  0  0  0  0  0  0  0  0  0  0  0
    5.9157    2.1186    0.4974 H   0  0  0  0  0  0  0  0  0  0  0  0
    4.4411    0.2024    2.8323 H   0  0  0  0  0  0  0  0  0  0  0  0
    5.2963    0.1228    1.2554 H   0  0  0  0  0  0  0  0  0  0  0  0
    2.3237    0.5371    1.6934 H   0  0  0  0  0  0  0  0  0  0  0  0
    3.0608   -1.0829    1.2319 H   0  0  0  0  0  0  0  0  0  0  0  0
    1.4563   -2.3666    0.2115 H   0  0  0  0  0  0  0  0  0  0  0  0
    0.7138   -0.8805    0.8649 H   0  0  0  0  0  0  0  0  0  0  0  0
   -0.3593   -2.9382   -1.0622 H   0  0  0  0  0  0  0  0  0  0  0  0
   -0.9249   -2.6588    0.6238 H   0  0  0  0  0  0  0  0  0  0  0  0
   -2.2574   -1.5592    1.6719 H   0  0  0  0  0  0  0  0  0  0  0  0
   -4.2528   -0.5396    2.7259 H   0  0  0  0  0  0  0  0  0  0  0  0
   -5.1721    1.4933   -0.8262 H   0  0  0  0  0  0  0  0  0  0  0  0
   -3.2163    0.5256   -1.9522 H   0  0  0  0  0  0  0  0  0  0  0  0
   -1.6496   -1.3839   -2.9259 H   0  0  0  0  0  0  0  0  0  0  0  0
   -1.2690    0.2886   -2.4082 H   0  0  0  0  0  0  0  0  0  0  0  0
    0.7816   -0.2785   -3.2157 H   0  0  0  0  0  0  0  0  0  0  0  0
    0.6306   -2.0249   -2.8242 H   0  0  0  0  0  0  0  0  0  0  0  0
  1  2  2  0
  2  3  1  0
  3  4  1  0
  4  5  1  0
  5  6  1  0
  6  7  1  0
  7  8  1  0
  2  9  1  0
  9 10  1  0
 10 11  1  0
 11 12  1  0
 12 13  1  0
 13 14  2  0
 14 15  1  0
 15 16  2  0
 16 17  1  0
 17 18  1  0
 17 19  1  0
 17 20  1  0
 16 21  1  0
 21 22  2  0
 12 23  1  0
 23 24  1  0
  8  3  1  0
 24  9  1  0
 22 13  1  0
  4 25  1  0
  4 26  1  0
  5 27  1  0
  5 28  1  0
  7 29  1  0
  7 30  1  0
  8 31  1  0
  8 32  1  0
 10 33  1  0
 10 34  1  0
 11 35  1  0
 11 36  1  0
 14 37  1  0
 15 38  1  0
 21 39  1  0
 22 40  1  0
 23 41  1  0
 23 42  1  0
 24 43  1  0
 24 44  1  0
M  END
$$$$
