
     RDKit          3D

 52 56  0  0  0  0  0  0  0  0999 V2000
   -3.5452   -0.3866   -2.1937 O   0  0  0  0  0  0  0  0  0  0  0  0
   -2.6507    0.0259   -1.4204 C   0  0  0  0  0  0  0  0  0  0  0  0
   -2.8991    1.2472   -0.6616 C   0  0  0  0  0  0  0  0  0  0  0  0
   -2.5787    2.4971   -1.1279 C   0  0  0  0  0  0  0  0  0  0  0  0
   -2.8544    3.5824   -0.3384 C   0  0  0  0  0  0  0  0  0  0  0  0
   -2.5640    4.8593   -0.7350 F   0  0  0  0  0  0  0  0  0  0  0  0
   -3.4436    3.4611    0.9103 C   0  0  0  0  0  0  0  0  0  0  0  0
   -3.7283    4.5008    1.7109 F   0  0  0  0  0  0  0  0  0  0  0  0
   -3.7464    2.1805    1.3330 C   0  0  0  0  0  0  0  0  0  0  0  0
   -3.4919    1.0598    0.5827 C   0  0  0  0  0  0  0  0  0  0  0  0
   -3.8211   -0.2402    1.0577 N   0  0  0  0  0  0  0  0  0  0  0  0
   -4.4511   -0.4841    2.1946 N   0  0  0  0  0  0  0  0  0  0  0  0
   -4.6187   -1.8010    2.3695 C   0  0  0  0  0  0  0  0  0  0  0  0
   -4.0496   -2.4165    1.2573 C   0  0  0  0  0  0  0  0  0  0  0  0
   -3.5869   -1.3953    0.5082 N   0  0  0  0  0  0  0  0  0  0  0  0
   -1.4318   -0.6962   -1.3023 N   0  0  0  0  0  0  0  0  0  0  0  0
   -1.2335   -1.9227   -2.0895 C   0  0  0  0  0  0  0  0  0  0  0  0
   -1.1241   -3.0589   -1.0800 C   0  0  0  0  0  0  0  0  0  0  0  0
   -0.6847   -2.5661    0.1589 O   0  0  0  0  0  0  0  0  0  0  0  0
    0.3306   -1.6256   -0.0208 C   0  0  0  0  0  0  0  0  0  0  0  0
   -0.3388   -0.3166   -0.4470 C   0  0  1  0  0  0  0  0  0  0  0  0
    0.6548    0.5805   -1.1511 C   0  0  0  0  0  0  0  0  0  0  0  0
    1.7761    0.9677   -0.2604 C   0  0  0  0  0  0  0  0  0  0  0  0
    1.7347    2.0912    0.5429 C   0  0  0  0  0  0  0  0  0  0  0  0
    2.7661    2.4704    1.3760 C   0  0  0  0  0  0  0  0  0  0  0  0
    3.8835    1.6704    1.3887 C   0  0  0  0  0  0  0  0  0  0  0  0
    3.9614    0.5419    0.6013 C   0  0  0  0  0  0  0  0  0  0  0  0
    5.1462   -0.2391    0.6641 N   0  0  0  0  0  0  0  0  0  0  0  0
    5.9017   -0.5100   -0.3920 N   0  0  0  0  0  0  0  0  0  0  0  0
    6.9653   -1.2786   -0.0113 C   0  0  0  0  0  0  0  0  0  0  0  0
    6.8212   -1.4654    1.3404 C   0  0  0  0  0  0  0  0  0  0  0  0
    5.7132   -0.8264    1.7237 N   0  0  0  0  0  0  0  0  0  0  0  0
    2.9064    0.1798   -0.2319 C   0  0  0  0  0  0  0  0  0  0  0  0
   -2.1239    2.6184   -2.0866 H   0  0  0  0  0  0  0  0  0  0  0  0
   -4.2140    2.0583    2.3192 H   0  0  0  0  0  0  0  0  0  0  0  0
   -5.0976   -2.3288    3.1988 H   0  0  0  0  0  0  0  0  0  0  0  0
   -4.0058   -3.4834    1.0681 H   0  0  0  0  0  0  0  0  0  0  0  0
   -0.3307   -1.8476   -2.7188 H   0  0  0  0  0  0  0  0  0  0  0  0
   -2.0890   -2.1324   -2.7447 H   0  0  0  0  0  0  0  0  0  0  0  0
   -0.4830   -3.8692   -1.4244 H   0  0  0  0  0  0  0  0  0  0  0  0
   -2.1556   -3.4514   -0.9109 H   0  0  0  0  0  0  0  0  0  0  0  0
    0.8879   -1.5413    0.9092 H   0  0  0  0  0  0  0  0  0  0  0  0
    0.9988   -2.0145   -0.8094 H   0  0  0  0  0  0  0  0  0  0  0  0
   -0.7360    0.1444    0.4807 H   0  0  0  0  0  0  0  0  0  0  0  0
    0.1257    1.5129   -1.4230 H   0  0  0  0  0  0  0  0  0  0  0  0
    1.0106    0.0196   -2.0429 H   0  0  0  0  0  0  0  0  0  0  0  0
    0.8384    2.7007    0.5090 H   0  0  0  0  0  0  0  0  0  0  0  0
    2.7021    3.3690    2.0018 H   0  0  0  0  0  0  0  0  0  0  0  0
    4.6908    1.9759    2.0472 H   0  0  0  0  0  0  0  0  0  0  0  0
    7.7629   -1.6620   -0.6557 H   0  0  0  0  0  0  0  0  0  0  0  0
    7.4879   -2.0259    1.9589 H   0  0  0  0  0  0  0  0  0  0  0  0
    3.0116   -0.7294   -0.8455 H   0  0  0  0  0  0  0  0  0  0  0  0
  1  2  2  0
  2  3  1  0
  3  4  2  0
  4  5  1  0
  5  6  1  0
  5  7  2  0
  7  8  1  0
  7  9  1  0
  9 10  2  0
 10 11  1  0
 11 12  1  0
 12 13  2  0
 13 14  1  0
 14 15  2  0
  2 16  1  0
 16 17  1  0
 17 18  1  0
 18 19  1  0
 19 20  1  0
 20 21  1  0
 21 22  1  0
 22 23  1  0
 23 24  2  0
 24 25  1  0
 25 26  2  0
 26 27  1  0
 27 28  1  0
 28 29  1  0
 29 30  2  0
 30 31  1  0
 31 32  2  0
 27 33  2  0
 10  3  1  0
 15 11  1  0
 21 16  1  0
 33 23  1  0
 32 28  1  0
  4 34  1  0
  9 35  1  0
 13 36  1  0
 14 37  1  0
 17 38  1  0
 17 39  1  0
 18 40  1  0
 18 41  1  0
 20 42  1  0
 20 43  1  0
 21 44  1  1
 22 45  1  0
 22 46  1  0
 24 47  1  0
 25 48  1  0
 26 49  1  0
 30 50  1  0
 31 51  1  0
 33 52  1  0
M  END
$$$$
