
     RDKit          3D

 29 31  0  0  0  0  0  0  0  0999 V2000
   -1.1630    2.4080   -2.1505 O   0  0  0  0  0  0  0  0  0  0  0  0
   -0.8541    1.4849   -1.3825 C   0  0  0  0  0  0  0  0  0  0  0  0
    0.4851    1.1370   -1.1589 C   0  0  0  0  0  0  0  0  0  0  0  0
    0.8162    0.1185   -0.3110 C   0  0  0  0  0  0  0  0  0  0  0  0
    2.2002   -0.2323   -0.0874 C   0  0  0  0  0  0  0  0  0  0  0  0
    3.2301    0.4219   -0.6989 C   0  0  0  0  0  0  0  0  0  0  0  0
    4.5665    0.0852   -0.4846 C   0  0  0  0  0  0  0  0  0  0  0  0
    4.8959   -0.9374    0.3668 C   0  0  0  0  0  0  0  0  0  0  0  0
    3.8722   -1.6143    0.9973 C   0  0  0  0  0  0  0  0  0  0  0  0
    2.5532   -1.2753    0.7801 C   0  0  0  0  0  0  0  0  0  0  0  0
   -0.1726   -0.5329    0.2959 O   0  0  0  0  0  0  0  0  0  0  0  0
   -1.4346   -0.2358    0.1114 C   0  0  0  0  0  0  0  0  0  0  0  0
   -2.4490   -0.9338    0.7593 C   0  0  0  0  0  0  0  0  0  0  0  0
   -3.7794   -0.6460    0.5863 C   0  0  0  0  0  0  0  0  0  0  0  0
   -4.7379   -1.3774    1.2596 O   0  0  0  0  0  0  0  0  0  0  0  0
   -4.1634    0.3626   -0.2503 C   0  0  0  0  0  0  0  0  0  0  0  0
   -3.1876    1.0754   -0.9088 C   0  0  0  0  0  0  0  0  0  0  0  0
   -3.5616    2.1052   -1.7639 O   0  0  0  0  0  0  0  0  0  0  0  0
   -1.8316    0.7794   -0.7302 C   0  0  0  0  0  0  0  0  0  0  0  0
    1.2053    1.7278   -1.6999 H   0  0  0  0  0  0  0  0  0  0  0  0
    3.0714    1.2277   -1.3752 H   0  0  0  0  0  0  0  0  0  0  0  0
    5.3568    0.6257   -0.9866 H   0  0  0  0  0  0  0  0  0  0  0  0
    5.9425   -1.1842    0.5203 H   0  0  0  0  0  0  0  0  0  0  0  0
    4.1086   -2.4152    1.6653 H   0  0  0  0  0  0  0  0  0  0  0  0
    1.7575   -1.7938    1.2636 H   0  0  0  0  0  0  0  0  0  0  0  0
   -2.1524   -1.7306    1.4206 H   0  0  0  0  0  0  0  0  0  0  0  0
   -5.2764   -2.1167    0.7946 H   0  0  0  0  0  0  0  0  0  0  0  0
   -5.2096    0.5854   -0.3833 H   0  0  0  0  0  0  0  0  0  0  0  0
   -4.0884    2.8810   -1.3846 H   0  0  0  0  0  0  0  0  0  0  0  0
  1  2  2  0
  2  3  1  0
  3  4  2  0
  4  5  1  0
  5  6  2  0
  6  7  1  0
  7  8  2  0
  8  9  1  0
  9 10  2  0
  4 11  1  0
 11 12  1  0
 12 13  2  0
 13 14  1  0
 14 15  1  0
 14 16  2  0
 16 17  1  0
 17 18  1  0
 17 19  2  0
 19  2  1  0
 10  5  1  0
 19 12  1  0
  3 20  1  0
  6 21  1  0
  7 22  1  0
  8 23  1  0
  9 24  1  0
 10 25  1  0
 13 26  1  0
 15 27  1  0
 16 28  1  0
 18 29  1  0
M  END
$$$$
