
     RDKit          3D

 70 76  0  0  0  0  0  0  0  0999 V2000
    0.1360    1.3861   -2.9922 O   0  0  0  0  0  0  0  0  0  0  0  0
   -0.0913    1.1488   -1.7567 C   0  0  0  0  0  0  0  0  0  0  0  0
   -0.7656    2.1744   -1.0090 C   0  0  0  0  0  0  0  0  0  0  0  0
   -1.1420    3.3287   -1.5036 O   0  0  0  0  0  0  0  0  0  0  0  0
   -1.7376    4.0739   -0.5911 C   0  0  0  0  0  0  0  0  0  0  0  0
   -2.2879    5.4271   -0.7893 C   0  0  0  0  0  0  0  0  0  0  0  0
   -2.8786    6.0478    0.2989 C   0  0  0  0  0  0  0  0  0  0  0  0
   -3.4198    7.3137    0.2113 C   0  0  0  0  0  0  0  0  0  0  0  0
   -3.3608    7.9583   -0.9966 C   0  0  0  0  0  0  0  0  0  0  0  0
   -4.0460    9.5577   -1.1029 Cl  0  0  0  0  0  0  0  0  0  0  0  0
   -2.7667    7.3363   -2.0947 C   0  0  0  0  0  0  0  0  0  0  0  0
   -2.2286    6.0645   -1.9871 C   0  0  0  0  0  0  0  0  0  0  0  0
   -1.7386    3.3326    0.5735 C   0  0  0  0  0  0  0  0  0  0  0  0
   -1.1255    2.1162    0.3398 C   0  0  0  0  0  0  0  0  0  0  0  0
   -0.9756    1.1229    1.3917 C   0  0  0  0  0  0  0  0  0  0  0  0
   -0.7405   -0.2580    0.9384 C   0  0  0  0  0  0  0  0  0  0  0  0
   -1.2131   -1.1235    1.9166 C   0  0  0  0  0  0  0  0  0  0  0  0
   -1.1599   -2.4970    1.8211 C   0  0  0  0  0  0  0  0  0  0  0  0
   -1.6474   -3.3490    2.8576 N   0  0  0  0  0  0  0  0  0  0  0  0
   -1.8716   -4.7579    2.5756 C   0  0  0  0  0  0  0  0  0  0  0  0
   -3.1467   -5.2688    3.2175 C   0  0  0  0  0  0  0  0  0  0  0  0
   -3.4260   -4.7225    4.5044 N   0  0  0  0  0  0  0  0  0  0  0  0
   -3.4085   -3.2697    4.4363 C   0  0  0  0  0  0  0  0  0  0  0  0
   -1.9337   -2.9137    4.2026 C   0  0  0  0  0  0  0  0  0  0  0  0
   -0.5971   -3.0006    0.6701 C   0  0  0  0  0  0  0  0  0  0  0  0
   -0.1098   -2.1698   -0.3394 C   0  0  0  0  0  0  0  0  0  0  0  0
   -0.1925   -0.8203   -0.1804 C   0  0  0  0  0  0  0  0  0  0  0  0
    0.3610   -0.1204   -1.2761 N   0  0  0  0  0  0  0  0  0  0  0  0
    1.4829   -0.6788   -1.9949 C   0  0  0  0  0  0  0  0  0  0  0  0
    2.7380   -0.1765   -1.3034 C   0  0  0  0  0  0  0  0  0  0  0  0
    2.6384    0.7149   -0.2619 C   0  0  0  0  0  0  0  0  0  0  0  0
    3.7553    1.1814    0.4184 C   0  0  0  0  0  0  0  0  0  0  0  0
    5.0132    0.7464    0.0497 C   0  0  0  0  0  0  0  0  0  0  0  0
    5.1051   -0.1393   -0.9868 C   0  0  0  0  0  0  0  0  0  0  0  0
    3.9821   -0.6184   -1.6832 C   0  0  0  0  0  0  0  0  0  0  0  0
    4.1974   -1.5471   -2.8000 C   0  0  0  0  0  0  0  0  0  0  0  0
    3.8255   -1.2666   -4.0860 C   0  0  0  0  0  0  0  0  0  0  0  0
    4.0447   -2.2200   -5.0972 C   0  0  0  0  0  0  0  0  0  0  0  0
    4.6314   -3.4279   -4.7914 C   0  0  0  0  0  0  0  0  0  0  0  0
    4.9844   -3.6764   -3.5354 N   0  0  0  0  0  0  0  0  0  0  0  0
    4.7845   -2.7711   -2.5306 C   0  0  0  0  0  0  0  0  0  0  0  0
   -2.9287    5.5443    1.2579 H   0  0  0  0  0  0  0  0  0  0  0  0
   -3.8662    7.7387    1.1028 H   0  0  0  0  0  0  0  0  0  0  0  0
   -2.7525    7.8972   -3.0165 H   0  0  0  0  0  0  0  0  0  0  0  0
   -1.7738    5.5856   -2.8242 H   0  0  0  0  0  0  0  0  0  0  0  0
   -2.1636    3.6808    1.5114 H   0  0  0  0  0  0  0  0  0  0  0  0
   -0.1804    1.3729    2.1390 H   0  0  0  0  0  0  0  0  0  0  0  0
   -1.9297    1.1214    1.9792 H   0  0  0  0  0  0  0  0  0  0  0  0
   -1.6632   -0.7071    2.8272 H   0  0  0  0  0  0  0  0  0  0  0  0
   -2.0322   -4.8722    1.4818 H   0  0  0  0  0  0  0  0  0  0  0  0
   -0.9826   -5.3224    2.9244 H   0  0  0  0  0  0  0  0  0  0  0  0
   -4.0296   -5.1302    2.5576 H   0  0  0  0  0  0  0  0  0  0  0  0
   -3.0058   -6.3739    3.3538 H   0  0  0  0  0  0  0  0  0  0  0  0
   -2.7276   -5.0000    5.2282 H   0  0  0  0  0  0  0  0  0  0  0  0
   -4.0124   -2.9112    3.5522 H   0  0  0  0  0  0  0  0  0  0  0  0
   -3.8331   -2.7798    5.3146 H   0  0  0  0  0  0  0  0  0  0  0  0
   -1.3863   -3.5533    4.9592 H   0  0  0  0  0  0  0  0  0  0  0  0
   -1.7778   -1.8698    4.4234 H   0  0  0  0  0  0  0  0  0  0  0  0
   -0.5046   -4.0817    0.5062 H   0  0  0  0  0  0  0  0  0  0  0  0
    0.3063   -2.5711   -1.2250 H   0  0  0  0  0  0  0  0  0  0  0  0
    1.5472   -0.2162   -3.0177 H   0  0  0  0  0  0  0  0  0  0  0  0
    1.6101   -1.7519   -2.0157 H   0  0  0  0  0  0  0  0  0  0  0  0
    1.6908    1.0818    0.0625 H   0  0  0  0  0  0  0  0  0  0  0  0
    3.6930    1.8797    1.2369 H   0  0  0  0  0  0  0  0  0  0  0  0
    5.9219    1.0773    0.5461 H   0  0  0  0  0  0  0  0  0  0  0  0
    6.0748   -0.5264   -1.3323 H   0  0  0  0  0  0  0  0  0  0  0  0
    3.3818   -0.3276   -4.3671 H   0  0  0  0  0  0  0  0  0  0  0  0
    3.7661   -2.0383   -6.1226 H   0  0  0  0  0  0  0  0  0  0  0  0
    4.8063   -4.1786   -5.5777 H   0  0  0  0  0  0  0  0  0  0  0  0
    5.0835   -3.0066   -1.5224 H   0  0  0  0  0  0  0  0  0  0  0  0
  1  2  2  0
  2  3  1  0
  3  4  1  0
  4  5  1  0
  5  6  1  0
  6  7  2  0
  7  8  1  0
  8  9  2  0
  9 10  1  0
  9 11  1  0
 11 12  2  0
  5 13  2  0
 13 14  1  0
 14 15  1  0
 15 16  1  0
 16 17  2  0
 17 18  1  0
 18 19  1  0
 19 20  1  0
 20 21  1  0
 21 22  1  0
 22 23  1  0
 23 24  1  0
 18 25  2  0
 25 26  1  0
 26 27  2  0
 27 28  1  0
 28 29  1  0
 29 30  1  0
 30 31  2  0
 31 32  1  0
 32 33  2  0
 33 34  1  0
 34 35  2  0
 35 36  1  0
 36 37  2  0
 37 38  1  0
 38 39  2  0
 39 40  1  0
 40 41  2  0
 28  2  1  0
 35 30  1  0
 41 36  1  0
 14  3  2  0
 27 16  1  0
 12  6  1  0
 24 19  1  0
  7 42  1  0
  8 43  1  0
 11 44  1  0
 12 45  1  0
 13 46  1  0
 15 47  1  0
 15 48  1  0
 17 49  1  0
 20 50  1  0
 20 51  1  0
 21 52  1  0
 21 53  1  0
 22 54  1  0
 23 55  1  0
 23 56  1  0
 24 57  1  0
 24 58  1  0
 25 59  1  0
 26 60  1  0
 29 61  1  0
 29 62  1  0
 31 63  1  0
 32 64  1  0
 33 65  1  0
 34 66  1  0
 37 67  1  0
 38 68  1  0
 39 69  1  0
 41 70  1  0
M  END
$$$$
