
     RDKit          3D

 45 47  0  0  0  0  0  0  0  0999 V2000
    0.6740   -0.5167    1.4482 O   0  0  0  0  0  0  0  0  0  0  0  0
    0.9190   -1.0033    0.2821 C   0  0  0  0  0  0  0  0  0  0  0  0
   -0.0256   -0.6328   -0.6971 N   0  0  0  0  0  0  0  0  0  0  0  0
   -1.1485    0.1968   -0.4196 C   0  0  0  0  0  0  0  0  0  0  0  0
   -1.0022    1.5672   -0.5585 C   0  0  0  0  0  0  0  0  0  0  0  0
   -2.0315    2.4358   -0.3116 C   0  0  0  0  0  0  0  0  0  0  0  0
   -3.2622    1.9605    0.0888 C   0  0  0  0  0  0  0  0  0  0  0  0
   -4.6172    3.0497    0.4176 S   0  0  0  0  0  6  0  0  0  0  0  0
   -5.1042    2.9184    1.8076 O   0  0  0  0  0  0  0  0  0  0  0  0
   -4.2037    4.4482    0.0792 O   0  0  0  0  0  0  0  0  0  0  0  0
   -5.8974    2.6638   -0.6286 O   0  0  0  0  0  1  0  0  0  0  0  0
   -3.3965    0.5966    0.2236 C   0  0  0  0  0  0  0  0  0  0  0  0
   -4.6367    0.1296    0.6262 C   0  0  0  0  0  0  0  0  0  0  0  0
   -4.8028   -1.2295    0.7702 C   0  0  0  0  0  0  0  0  0  0  0  0
   -3.7621   -2.0977    0.5199 C   0  0  0  0  0  0  0  0  0  0  0  0
   -2.5215   -1.6517    0.1186 C   0  0  0  0  0  0  0  0  0  0  0  0
   -2.3657   -0.2870   -0.0227 C   0  0  0  0  0  0  0  0  0  0  0  0
    2.0921   -1.8345    0.1390 C   0  0  0  0  0  0  0  0  0  0  0  0
    1.7059   -3.2621   -0.1460 C   0  0  0  0  0  0  0  0  0  0  0  0
    0.7666   -3.3319   -1.6831 S   0  0  0  0  0  0  0  0  0  0  0  0
    3.0737   -1.3670   -0.9043 C   0  0  0  0  0  0  0  0  0  0  0  0
    3.5646    0.0002   -0.5690 C   0  0  0  0  0  0  0  0  0  0  0  0
    2.9281    1.1339   -1.0213 C   0  0  0  0  0  0  0  0  0  0  0  0
    3.4137    2.3672   -0.6889 C   0  0  0  0  0  0  0  0  0  0  0  0
    4.5273    2.5368    0.0895 C   0  0  0  0  0  0  0  0  0  0  0  0
    5.1751    1.4094    0.5497 C   0  0  0  0  0  0  0  0  0  0  0  0
    4.6959    0.1575    0.2219 C   0  0  0  0  0  0  0  0  0  0  0  0
    0.0978   -0.9619   -1.6562 H   0  0  0  0  0  0  0  0  0  0  0  0
   -0.0403    1.9485   -0.8721 H   0  0  0  0  0  0  0  0  0  0  0  0
   -1.8836    3.5024   -0.4298 H   0  0  0  0  0  0  0  0  0  0  0  0
   -5.4460    0.8216    0.8197 H   0  0  0  0  0  0  0  0  0  0  0  0
   -5.7799   -1.5824    1.0864 H   0  0  0  0  0  0  0  0  0  0  0  0
   -3.9609   -3.1591    0.6529 H   0  0  0  0  0  0  0  0  0  0  0  0
   -1.7067   -2.3359   -0.0771 H   0  0  0  0  0  0  0  0  0  0  0  0
    2.6499   -1.8560    1.1193 H   0  0  0  0  0  0  0  0  0  0  0  0
    1.1461   -3.7235    0.6965 H   0  0  0  0  0  0  0  0  0  0  0  0
    2.6153   -3.8915   -0.2925 H   0  0  0  0  0  0  0  0  0  0  0  0
   -0.2228   -4.3002   -1.5731 H   0  0  0  0  0  0  0  0  0  0  0  0
    3.9596   -2.0359   -0.8517 H   0  0  0  0  0  0  0  0  0  0  0  0
    2.6900   -1.4177   -1.9242 H   0  0  0  0  0  0  0  0  0  0  0  0
    2.0505    0.9952   -1.6348 H   0  0  0  0  0  0  0  0  0  0  0  0
    2.8862    3.2543   -1.0635 H   0  0  0  0  0  0  0  0  0  0  0  0
    4.8777    3.5381    0.3287 H   0  0  0  0  0  0  0  0  0  0  0  0
    6.0623    1.5389    1.1700 H   0  0  0  0  0  0  0  0  0  0  0  0
    5.2467   -0.6925    0.6126 H   0  0  0  0  0  0  0  0  0  0  0  0
  1  2  2  0
  2  3  1  0
  3  4  1  0
  4  5  2  0
  5  6  1  0
  6  7  2  0
  7  8  1  0
  8  9  2  0
  8 10  2  0
  8 11  1  0
  7 12  1  0
 12 13  2  0
 13 14  1  0
 14 15  2  0
 15 16  1  0
 16 17  2  0
  2 18  1  0
 18 19  1  0
 19 20  1  0
 18 21  1  0
 21 22  1  0
 22 23  2  0
 23 24  1  0
 24 25  2  0
 25 26  1  0
 26 27  2  0
 17  4  1  0
 27 22  1  0
 17 12  1  0
  3 28  1  0
  5 29  1  0
  6 30  1  0
 13 31  1  0
 14 32  1  0
 15 33  1  0
 16 34  1  0
 18 35  1  0
 19 36  1  0
 19 37  1  0
 20 38  1  0
 21 39  1  0
 21 40  1  0
 23 41  1  0
 24 42  1  0
 25 43  1  0
 26 44  1  0
 27 45  1  0
M  CHG  1  11  -1
M  END
$$$$
