
     RDKit          3D

 45 47  0  0  0  0  0  0  0  0999 V2000
    5.2132    3.6203   -0.5143 C   0  0  0  0  0  0  0  0  0  0  0  0
    4.3081    2.7929    0.1521 O   0  0  0  0  0  0  0  0  0  0  0  0
    4.4098    1.4175    0.0505 C   0  0  0  0  0  0  0  0  0  0  0  0
    5.4272    0.8515   -0.7257 C   0  0  0  0  0  0  0  0  0  0  0  0
    5.5359   -0.5180   -0.8324 C   0  0  0  0  0  0  0  0  0  0  0  0
    4.6454   -1.3333   -0.1770 C   0  0  0  0  0  0  0  0  0  0  0  0
    3.6317   -0.8117    0.5954 C   0  0  0  0  0  0  0  0  0  0  0  0
    2.7084   -1.7331    1.2752 C   0  0  0  0  0  0  0  0  0  0  0  0
    1.5593   -2.1140    0.5289 N   0  0  0  0  0  0  0  0  0  0  0  0
    1.5000   -3.2484   -0.3655 C   0  0  0  0  0  0  0  0  0  0  0  0
    0.3511   -1.3240    0.6583 C   0  0  0  0  0  0  0  0  0  0  0  0
    0.3950   -0.3506    1.4291 O   0  0  0  0  0  0  0  0  0  0  0  0
   -0.8056   -1.6385   -0.0464 N   0  0  0  0  0  0  0  0  0  0  0  0
   -2.0157   -0.9322    0.0181 C   0  0  0  0  0  0  0  0  0  0  0  0
   -2.2672    0.1822    0.7833 C   0  0  0  0  0  0  0  0  0  0  0  0
   -3.5037    0.8428    0.8014 C   0  0  0  0  0  0  0  0  0  0  0  0
   -4.5271    0.3671    0.0218 C   0  0  0  0  0  0  0  0  0  0  0  0
   -5.8488    0.9739   -0.0366 C   0  0  0  0  0  0  0  0  0  0  0  0
   -7.0469    0.3267   -0.2609 C   0  0  0  0  0  0  0  0  0  0  0  0
   -8.0421    1.2406   -0.2401 N   0  0  0  0  0  0  0  0  0  0  0  0
   -7.5161    2.4139   -0.0147 N   0  0  0  0  0  0  0  0  0  0  0  0
   -6.1668    2.2985    0.1174 C   0  0  0  0  0  0  0  0  0  0  0  0
   -4.2836   -0.7501   -0.7488 C   0  0  0  0  0  0  0  0  0  0  0  0
   -3.0874   -1.3939   -0.7700 C   0  0  0  0  0  0  0  0  0  0  0  0
    3.5376    0.5588    0.6914 C   0  0  0  0  0  0  0  0  0  0  0  0
    4.9542    4.6772   -0.4675 H   0  0  0  0  0  0  0  0  0  0  0  0
    5.3508    3.3513   -1.5855 H   0  0  0  0  0  0  0  0  0  0  0  0
    6.2202    3.5042   -0.0267 H   0  0  0  0  0  0  0  0  0  0  0  0
    6.1241    1.4962   -1.2387 H   0  0  0  0  0  0  0  0  0  0  0  0
    6.3180   -0.9589   -1.4293 H   0  0  0  0  0  0  0  0  0  0  0  0
    4.7582   -2.3901   -0.2812 H   0  0  0  0  0  0  0  0  0  0  0  0
    2.4231   -1.2711    2.2654 H   0  0  0  0  0  0  0  0  0  0  0  0
    3.2462   -2.6777    1.5715 H   0  0  0  0  0  0  0  0  0  0  0  0
    2.4313   -3.8249   -0.3670 H   0  0  0  0  0  0  0  0  0  0  0  0
    1.3131   -2.9169   -1.4167 H   0  0  0  0  0  0  0  0  0  0  0  0
    0.6173   -3.8595   -0.0650 H   0  0  0  0  0  0  0  0  0  0  0  0
   -0.7605   -2.4921   -0.6896 H   0  0  0  0  0  0  0  0  0  0  0  0
   -1.4996    0.5941    1.4113 H   0  0  0  0  0  0  0  0  0  0  0  0
   -3.6724    1.7144    1.4112 H   0  0  0  0  0  0  0  0  0  0  0  0
   -7.1464   -0.7298   -0.4226 H   0  0  0  0  0  0  0  0  0  0  0  0
   -8.0394    3.3170    0.0565 H   0  0  0  0  0  0  0  0  0  0  0  0
   -5.4619    3.0866    0.3076 H   0  0  0  0  0  0  0  0  0  0  0  0
   -5.0835   -1.1392   -1.3719 H   0  0  0  0  0  0  0  0  0  0  0  0
   -2.9532   -2.2565   -1.3865 H   0  0  0  0  0  0  0  0  0  0  0  0
    2.7489    1.0366    1.2956 H   0  0  0  0  0  0  0  0  0  0  0  0
  1  2  1  0
  2  3  1  0
  3  4  2  0
  4  5  1  0
  5  6  2  0
  6  7  1  0
  7  8  1  0
  8  9  1  0
  9 10  1  0
  9 11  1  0
 11 12  2  0
 11 13  1  0
 13 14  1  0
 14 15  2  0
 15 16  1  0
 16 17  2  0
 17 18  1  0
 18 19  1  0
 19 20  2  0
 20 21  1  0
 21 22  1  0
 17 23  1  0
 23 24  2  0
  7 25  2  0
 25  3  1  0
 24 14  1  0
 22 18  2  0
  1 26  1  0
  1 27  1  0
  1 28  1  0
  4 29  1  0
  5 30  1  0
  6 31  1  0
  8 32  1  0
  8 33  1  0
 10 34  1  0
 10 35  1  0
 10 36  1  0
 13 37  1  0
 15 38  1  0
 16 39  1  0
 19 40  1  0
 21 41  1  0
 22 42  1  0
 23 43  1  0
 24 44  1  0
 25 45  1  0
M  END
$$$$
