
     RDKit          3D

 67 71  0  0  0  0  0  0  0  0999 V2000
    5.9473   -1.5009   -2.0135 O   0  0  0  0  0  0  0  0  0  0  0  0
    6.1609   -1.2272   -0.6684 C   0  0  0  0  0  0  0  0  0  0  0  0
    4.9109   -1.0860    0.1476 C   0  0  1  0  0  0  0  0  0  0  0  0
    5.2438   -0.8947    1.6236 C   0  0  1  0  0  0  0  0  0  0  0  0
    5.8166   -2.0333    2.1666 O   0  0  0  0  0  0  0  0  0  0  0  0
    6.0751    0.3263    1.7787 C   0  0  2  0  0  0  0  0  0  0  0  0
    6.3444    0.5554    3.1398 O   0  0  0  0  0  0  0  0  0  0  0  0
    5.3911    1.5074    1.1484 C   0  0  1  0  0  0  0  0  0  0  0  0
    6.2034    2.1672    0.2171 O   0  0  0  0  0  0  0  0  0  0  0  0
    4.0715    1.1181    0.5904 C   0  0  0  0  0  0  0  0  0  0  0  0
    4.0322   -0.0470   -0.2181 N   0  0  0  0  0  0  0  0  0  0  0  0
    3.6646    0.1350   -1.5586 C   0  0  0  0  0  0  0  0  0  0  0  0
    2.2853    0.5901   -1.8684 C   0  0  0  0  0  0  0  0  0  0  0  0
    1.2394   -0.3412   -1.4128 C   0  0  0  0  0  0  0  0  0  0  0  0
    1.1553   -0.6034    0.0653 C   0  0  0  0  0  0  0  0  0  0  0  0
   -0.0132   -1.5553    0.2541 C   0  0  0  0  0  0  0  0  0  0  0  0
   -1.1638   -1.0000   -0.2270 O   0  0  0  0  0  0  0  0  0  0  0  0
   -1.5043    0.1492    0.4117 C   0  0  0  0  0  0  0  0  0  0  0  0
   -2.7909    0.7261   -0.0677 C   0  0  0  0  0  0  0  0  0  0  0  0
   -2.8651    1.8198   -0.8937 C   0  0  0  0  0  0  0  0  0  0  0  0
   -4.1102    2.3174   -1.3098 C   0  0  0  0  0  0  0  0  0  0  0  0
   -5.2873    1.7165   -0.8965 C   0  0  0  0  0  0  0  0  0  0  0  0
   -6.5247    2.2040   -1.3047 C   0  0  0  0  0  0  0  0  0  0  0  0
   -7.6553    1.5598   -0.8572 C   0  0  0  0  0  0  0  0  0  0  0  0
   -7.6078    0.4664   -0.0323 C   0  0  0  0  0  0  0  0  0  0  0  0
   -8.7210   -0.1891    0.4240 C   0  0  0  0  0  0  0  0  0  0  0  0
   -8.6279   -1.2899    1.2556 C   0  0  0  0  0  0  0  0  0  0  0  0
   -7.3964   -1.7649    1.6542 C   0  0  0  0  0  0  0  0  0  0  0  0
   -6.2772   -1.0932    1.1859 C   0  0  0  0  0  0  0  0  0  0  0  0
   -5.0519   -1.6017    1.6093 C   0  0  0  0  0  0  0  0  0  0  0  0
   -3.9350   -0.9511    1.1568 C   0  0  0  0  0  0  0  0  0  0  0  0
   -3.9616    0.1345    0.3388 C   0  0  0  0  0  0  0  0  0  0  0  0
   -5.2043    0.6264   -0.0729 C   0  0  0  0  0  0  0  0  0  0  0  0
   -6.3695    0.0011    0.3591 C   0  0  0  0  0  0  0  0  0  0  0  0
    5.9626   -2.4796   -2.1430 H   0  0  0  0  0  0  0  0  0  0  0  0
    6.8139   -2.0575   -0.2729 H   0  0  0  0  0  0  0  0  0  0  0  0
    6.8016   -0.2975   -0.6769 H   0  0  0  0  0  0  0  0  0  0  0  0
    4.4265   -2.1041    0.1183 H   0  0  0  0  0  0  0  0  0  0  0  0
    4.2482   -0.7774    2.1423 H   0  0  0  0  0  0  0  0  0  0  0  0
    6.7999   -2.0297    2.1682 H   0  0  0  0  0  0  0  0  0  0  0  0
    7.0408    0.1702    1.2360 H   0  0  0  0  0  0  0  0  0  0  0  0
    7.2237    1.0426    3.1731 H   0  0  0  0  0  0  0  0  0  0  0  0
    5.2238    2.2461    1.9851 H   0  0  0  0  0  0  0  0  0  0  0  0
    5.6725    2.9421   -0.1034 H   0  0  0  0  0  0  0  0  0  0  0  0
    3.3453    1.1013    1.4364 H   0  0  0  0  0  0  0  0  0  0  0  0
    3.7111    1.9689   -0.0665 H   0  0  0  0  0  0  0  0  0  0  0  0
    4.4038    0.8490   -2.0266 H   0  0  0  0  0  0  0  0  0  0  0  0
    3.8409   -0.8230   -2.1128 H   0  0  0  0  0  0  0  0  0  0  0  0
    2.0513    1.5970   -1.4412 H   0  0  0  0  0  0  0  0  0  0  0  0
    2.2210    0.7747   -2.9870 H   0  0  0  0  0  0  0  0  0  0  0  0
    1.3346   -1.3628   -1.9035 H   0  0  0  0  0  0  0  0  0  0  0  0
    0.2579    0.0336   -1.8068 H   0  0  0  0  0  0  0  0  0  0  0  0
    2.1001   -1.1467    0.4187 H   0  0  0  0  0  0  0  0  0  0  0  0
    1.0383    0.2907    0.6914 H   0  0  0  0  0  0  0  0  0  0  0  0
    0.2260   -2.5273   -0.2375 H   0  0  0  0  0  0  0  0  0  0  0  0
   -0.1554   -1.7255    1.3594 H   0  0  0  0  0  0  0  0  0  0  0  0
   -0.7051    0.9246    0.1893 H   0  0  0  0  0  0  0  0  0  0  0  0
   -1.4631    0.0289    1.5089 H   0  0  0  0  0  0  0  0  0  0  0  0
   -1.9563    2.2859   -1.2144 H   0  0  0  0  0  0  0  0  0  0  0  0
   -4.1865    3.1767   -1.9595 H   0  0  0  0  0  0  0  0  0  0  0  0
   -6.5743    3.0533   -1.9460 H   0  0  0  0  0  0  0  0  0  0  0  0
   -8.6438    1.9051   -1.1501 H   0  0  0  0  0  0  0  0  0  0  0  0
   -9.6855    0.2037    0.0963 H   0  0  0  0  0  0  0  0  0  0  0  0
   -9.5593   -1.7704    1.5861 H   0  0  0  0  0  0  0  0  0  0  0  0
   -7.3089   -2.6405    2.3163 H   0  0  0  0  0  0  0  0  0  0  0  0
   -5.0076   -2.4606    2.2573 H   0  0  0  0  0  0  0  0  0  0  0  0
   -2.9718   -1.3339    1.4761 H   0  0  0  0  0  0  0  0  0  0  0  0
  1  2  1  0
  2  3  1  0
  3  4  1  0
  4  5  1  0
  4  6  1  0
  6  7  1  0
  6  8  1  0
  8  9  1  0
  8 10  1  0
 10 11  1  0
 11 12  1  0
 12 13  1  0
 13 14  1  0
 14 15  1  0
 15 16  1  0
 16 17  1  0
 17 18  1  0
 18 19  1  0
 19 20  2  0
 20 21  1  0
 21 22  2  0
 22 23  1  0
 23 24  2  0
 24 25  1  0
 25 26  2  0
 26 27  1  0
 27 28  2  0
 28 29  1  0
 29 30  2  0
 30 31  1  0
 31 32  2  0
 32 33  1  0
 33 34  2  0
 11  3  1  0
 32 19  1  0
 33 22  1  0
 34 25  1  0
 34 29  1  0
  1 35  1  0
  2 36  1  0
  2 37  1  0
  3 38  1  1
  4 39  1  1
  5 40  1  0
  6 41  1  6
  7 42  1  0
  8 43  1  1
  9 44  1  0
 10 45  1  0
 10 46  1  0
 12 47  1  0
 12 48  1  0
 13 49  1  0
 13 50  1  0
 14 51  1  0
 14 52  1  0
 15 53  1  0
 15 54  1  0
 16 55  1  0
 16 56  1  0
 18 57  1  0
 18 58  1  0
 20 59  1  0
 21 60  1  0
 23 61  1  0
 24 62  1  0
 26 63  1  0
 27 64  1  0
 28 65  1  0
 30 66  1  0
 31 67  1  0
M  END
$$$$
