
     RDKit          3D

 42 45  0  0  0  0  0  0  0  0999 V2000
    0.3934    0.5236   -1.6012 C   0  0  0  0  0  0  0  0  0  0  0  0
   -0.2927    0.3937   -0.2607 C   0  0  1  0  0  0  0  0  0  0  0  0
    0.7912   -0.0175    0.7449 C   0  0  0  0  0  0  0  0  0  0  0  0
    1.8500    1.0175    0.6392 C   0  0  0  0  0  0  0  0  0  0  0  0
    1.4297    2.3326    0.6038 C   0  0  0  0  0  0  0  0  0  0  0  0
    2.5786    3.0505    0.5071 N   0  0  0  0  0  0  0  0  0  0  0  0
    3.6084    2.2190    0.4866 N   0  0  0  0  0  0  0  0  0  0  0  0
    3.1938    0.9595    0.5664 N   0  0  0  0  0  0  0  0  0  0  0  0
    3.9944   -0.2286    0.5747 C   0  0  0  0  0  0  0  0  0  0  0  0
    5.0563   -0.3714   -0.2400 N   0  0  0  0  0  0  0  0  0  0  0  0
    5.8383   -1.4484   -0.2799 C   0  0  0  0  0  0  0  0  0  0  0  0
    5.5656   -2.5066    0.5602 C   0  0  0  0  0  0  0  0  0  0  0  0
    6.3433   -3.6167    0.5429 F   0  0  0  0  0  0  0  0  0  0  0  0
    4.4787   -2.3746    1.4022 C   0  0  0  0  0  0  0  0  0  0  0  0
    3.7150   -1.2539    1.4016 N   0  0  0  0  0  0  0  0  0  0  0  0
   -0.0005    2.7348    0.6663 C   0  0  0  0  0  0  0  0  0  0  0  0
   -0.8443    1.6430    0.2037 N   0  0  0  0  0  0  0  0  0  0  0  0
   -2.2505    1.8522    0.2252 C   0  0  0  0  0  0  0  0  0  0  0  0
   -2.7664    2.9215    0.6209 O   0  0  0  0  0  0  0  0  0  0  0  0
   -3.1301    0.7794   -0.2314 C   0  0  0  0  0  0  0  0  0  0  0  0
   -3.4751    0.7422   -1.5695 C   0  0  0  0  0  0  0  0  0  0  0  0
   -4.2952   -0.2433   -2.0394 C   0  0  0  0  0  0  0  0  0  0  0  0
   -4.7712   -1.1840   -1.1985 N   0  0  0  0  0  0  0  0  0  0  0  0
   -4.4416   -1.1565    0.1039 C   0  0  0  0  0  0  0  0  0  0  0  0
   -4.9830   -2.2063    0.9992 C   0  0  0  0  0  0  0  0  0  0  0  0
   -5.7506   -1.6386    2.0162 F   0  0  0  0  0  0  0  0  0  0  0  0
   -5.8093   -3.0609    0.3154 F   0  0  0  0  0  0  0  0  0  0  0  0
   -3.9812   -2.9248    1.6118 F   0  0  0  0  0  0  0  0  0  0  0  0
   -3.6183   -0.1828    0.6229 C   0  0  0  0  0  0  0  0  0  0  0  0
   -3.2977   -0.1695    1.9305 F   0  0  0  0  0  0  0  0  0  0  0  0
    0.4437   -0.5153   -2.0282 H   0  0  0  0  0  0  0  0  0  0  0  0
    1.4042    0.9397   -1.4304 H   0  0  0  0  0  0  0  0  0  0  0  0
   -0.1450    1.2204   -2.2832 H   0  0  0  0  0  0  0  0  0  0  0  0
   -1.0968   -0.3677   -0.2715 H   0  0  0  0  0  0  0  0  0  0  0  0
    1.1510   -1.0305    0.5754 H   0  0  0  0  0  0  0  0  0  0  0  0
    0.3155    0.1173    1.7516 H   0  0  0  0  0  0  0  0  0  0  0  0
    6.6949   -1.5467   -0.9468 H   0  0  0  0  0  0  0  0  0  0  0  0
    4.2669   -3.2085    2.0617 H   0  0  0  0  0  0  0  0  0  0  0  0
   -0.2749    2.9809    1.7113 H   0  0  0  0  0  0  0  0  0  0  0  0
   -0.2225    3.6013    0.0094 H   0  0  0  0  0  0  0  0  0  0  0  0
   -3.0967    1.4974   -2.2600 H   0  0  0  0  0  0  0  0  0  0  0  0
   -4.5693   -0.2734   -3.1007 H   0  0  0  0  0  0  0  0  0  0  0  0
  1  2  1  0
  2  3  1  0
  3  4  1  0
  4  5  2  0
  5  6  1  0
  6  7  2  0
  7  8  1  0
  8  9  1  0
  9 10  2  0
 10 11  1  0
 11 12  2  0
 12 13  1  0
 12 14  1  0
 14 15  2  0
  5 16  1  0
 16 17  1  0
 17 18  1  0
 18 19  2  0
 18 20  1  0
 20 21  2  0
 21 22  1  0
 22 23  2  0
 23 24  1  0
 24 25  1  0
 25 26  1  0
 25 27  1  0
 25 28  1  0
 24 29  2  0
 29 30  1  0
 17  2  1  0
 29 20  1  0
  8  4  1  0
 15  9  1  0
  1 31  1  0
  1 32  1  0
  1 33  1  0
  2 34  1  6
  3 35  1  0
  3 36  1  0
 11 37  1  0
 14 38  1  0
 16 39  1  0
 16 40  1  0
 21 41  1  0
 22 42  1  0
M  END
$$$$
