
     RDKit          3D

 52 56  0  0  0  0  0  0  0  0999 V2000
   -2.6697   -0.3746    0.9330 C   0  0  0  0  0  0  0  0  0  0  0  0
   -3.9355    0.0786    0.3182 C   0  0  0  0  0  0  0  0  0  0  0  0
   -3.9667    0.5368   -0.9683 C   0  0  0  0  0  0  0  0  0  0  0  0
   -2.8266    0.6132   -1.7882 N   0  0  0  0  0  0  0  0  0  0  0  0
   -1.9504   -0.4295   -2.1732 C   0  0  0  0  0  0  0  0  0  0  0  0
   -2.4055   -1.4245   -3.0054 C   0  0  0  0  0  0  0  0  0  0  0  0
   -3.7981   -1.3564   -3.4352 C   0  0  0  0  0  0  0  0  0  0  0  0
   -4.9213   -1.3122   -3.7835 N   0  0  0  0  0  0  0  0  0  0  0  0
   -1.6191   -2.4600   -3.4489 C   0  0  0  0  0  0  0  0  0  0  0  0
   -0.3381   -2.4708   -3.0274 N   0  0  0  0  0  0  0  0  0  0  0  0
    0.1092   -1.5061   -2.2197 C   0  0  0  0  0  0  0  0  0  0  0  0
    1.7567   -1.2045   -1.4772 S   0  0  0  0  0  0  0  0  0  0  0  0
    1.3339    0.2507   -0.6312 C   0  0  0  0  0  0  0  0  0  0  0  0
    2.2543    1.0333    0.1988 C   0  0  0  0  0  0  0  0  0  0  0  0
    3.5001    0.6319    0.3343 C   0  0  0  0  0  0  0  0  0  0  0  0
    4.4859    1.3256    1.1254 C   0  0  0  0  0  0  0  0  0  0  0  0
    4.1706    2.3720    1.7296 O   0  0  0  0  0  0  0  0  0  0  0  0
    5.8024    0.8387    1.2267 N   0  0  0  0  0  0  0  0  0  0  0  0
    6.8964    1.4426    1.9928 C   0  0  0  0  0  0  0  0  0  0  0  0
    7.9982    0.4380    2.0224 C   0  0  0  0  0  0  0  0  0  0  0  0
    7.3352   -0.8438    1.5879 C   0  0  0  0  0  0  0  0  0  0  0  0
    6.3099   -0.3505    0.5888 C   0  0  0  0  0  0  0  0  0  0  0  0
    0.0515    0.4277   -0.9303 C   0  0  0  0  0  0  0  0  0  0  0  0
   -0.5935   -0.4432   -1.7295 C   0  0  0  0  0  0  0  0  0  0  0  0
   -5.2206    0.9387   -1.4574 C   0  0  0  0  0  0  0  0  0  0  0  0
   -6.3756    0.8948   -0.7301 C   0  0  0  0  0  0  0  0  0  0  0  0
   -6.3050    0.4247    0.5705 C   0  0  0  0  0  0  0  0  0  0  0  0
   -7.2385    0.2645    1.5137 N   0  0  0  0  0  0  0  0  0  0  0  0
   -6.6744   -0.2258    2.6142 C   0  0  0  0  0  0  0  0  0  0  0  0
   -5.3244   -0.3972    2.3969 C   0  0  0  0  0  0  0  0  0  0  0  0
   -5.1085    0.0195    1.0986 C   0  0  0  0  0  0  0  0  0  0  0  0
   -1.9594    0.4335    1.1143 H   0  0  0  0  0  0  0  0  0  0  0  0
   -2.9208   -0.7698    1.9641 H   0  0  0  0  0  0  0  0  0  0  0  0
   -2.2473   -1.2671    0.4214 H   0  0  0  0  0  0  0  0  0  0  0  0
   -2.5766    1.5760   -2.1786 H   0  0  0  0  0  0  0  0  0  0  0  0
   -2.0177   -3.2062   -4.0918 H   0  0  0  0  0  0  0  0  0  0  0  0
    1.9035    1.9075    0.6755 H   0  0  0  0  0  0  0  0  0  0  0  0
    3.7959   -0.2862   -0.1903 H   0  0  0  0  0  0  0  0  0  0  0  0
    6.5597    1.6384    3.0367 H   0  0  0  0  0  0  0  0  0  0  0  0
    7.2299    2.3865    1.5645 H   0  0  0  0  0  0  0  0  0  0  0  0
    8.8310    0.6746    1.3275 H   0  0  0  0  0  0  0  0  0  0  0  0
    8.4511    0.2970    3.0146 H   0  0  0  0  0  0  0  0  0  0  0  0
    8.0610   -1.5420    1.1221 H   0  0  0  0  0  0  0  0  0  0  0  0
    6.8764   -1.3592    2.4578 H   0  0  0  0  0  0  0  0  0  0  0  0
    5.5432   -1.1341    0.4249 H   0  0  0  0  0  0  0  0  0  0  0  0
    6.8182   -0.1602   -0.3677 H   0  0  0  0  0  0  0  0  0  0  0  0
   -0.4745    1.3259   -0.5021 H   0  0  0  0  0  0  0  0  0  0  0  0
   -5.2317    1.2967   -2.4698 H   0  0  0  0  0  0  0  0  0  0  0  0
   -7.3433    1.2077   -1.1159 H   0  0  0  0  0  0  0  0  0  0  0  0
   -8.2660    0.4936    1.3981 H   0  0  0  0  0  0  0  0  0  0  0  0
   -7.1770   -0.4674    3.5636 H   0  0  0  0  0  0  0  0  0  0  0  0
   -4.5884   -0.7771    3.0944 H   0  0  0  0  0  0  0  0  0  0  0  0
  1  2  1  0
  2  3  2  0
  3  4  1  0
  4  5  1  0
  5  6  2  0
  6  7  1  0
  7  8  3  0
  6  9  1  0
  9 10  2  0
 10 11  1  0
 11 12  1  0
 12 13  1  0
 13 14  1  0
 14 15  2  0
 15 16  1  0
 16 17  2  0
 16 18  1  0
 18 19  1  0
 19 20  1  0
 20 21  1  0
 21 22  1  0
 13 23  2  0
 23 24  1  0
  3 25  1  0
 25 26  2  0
 26 27  1  0
 27 28  1  0
 28 29  1  0
 29 30  2  0
 30 31  1  0
 31  2  1  0
 24  5  1  0
 31 27  2  0
 24 11  2  0
 22 18  1  0
  1 32  1  0
  1 33  1  0
  1 34  1  0
  4 35  1  0
  9 36  1  0
 14 37  1  0
 15 38  1  0
 19 39  1  0
 19 40  1  0
 20 41  1  0
 20 42  1  0
 21 43  1  0
 21 44  1  0
 22 45  1  0
 22 46  1  0
 23 47  1  0
 25 48  1  0
 26 49  1  0
 28 50  1  0
 29 51  1  0
 30 52  1  0
M  END
$$$$
