
     RDKit          3D

 49 51  0  0  0  0  0  0  0  0999 V2000
    2.9377   -1.2566    0.9554 C   0  0  0  0  0  0  0  0  0  0  0  0
    3.8166   -0.2984    0.2686 C   0  0  0  0  0  0  0  0  0  0  0  0
    3.2727    0.6891   -0.3341 N   0  0  0  0  0  0  0  0  0  0  0  0
    1.8847    0.8221   -0.3199 N   0  0  0  0  0  0  0  0  0  0  0  0
    1.1609    1.7102    0.5153 C   0  0  0  0  0  0  0  0  0  0  0  0
    1.8505    2.4191    1.2919 O   0  0  0  0  0  0  0  0  0  0  0  0
   -0.2850    1.8334    0.5146 C   0  0  0  0  0  0  0  0  0  0  0  0
   -0.8733    2.7318    1.3721 C   0  0  0  0  0  0  0  0  0  0  0  0
   -2.2303    2.9240    1.4488 C   0  0  0  0  0  0  0  0  0  0  0  0
   -3.0265    2.1675    0.6148 C   0  0  0  0  0  0  0  0  0  0  0  0
   -2.4876    1.2485   -0.2678 C   0  0  0  0  0  0  0  0  0  0  0  0
   -3.5492    0.3445   -1.2726 S   0  0  0  0  0  6  0  0  0  0  0  0
   -2.8965    0.0721   -2.6083 O   0  0  0  0  0  0  0  0  0  0  0  0
   -4.7736    1.1680   -1.5502 O   0  0  0  0  0  0  0  0  0  0  0  0
   -4.0549   -1.1417   -0.5716 N   0  0  0  0  0  0  0  0  0  0  0  0
   -4.7744   -0.7987    0.6424 C   0  0  0  0  0  0  0  0  0  0  0  0
   -6.1110   -0.1571    0.3570 C   0  0  0  0  0  0  0  0  0  0  0  0
   -6.6442   -0.5577   -0.8682 O   0  0  0  0  0  0  0  0  0  0  0  0
   -6.2731   -1.8732   -1.0721 C   0  0  0  0  0  0  0  0  0  0  0  0
   -4.8360   -1.9254   -1.4890 C   0  0  0  0  0  0  0  0  0  0  0  0
   -1.1061    1.0923   -0.3061 C   0  0  0  0  0  0  0  0  0  0  0  0
    5.2541   -0.4987    0.2945 C   0  0  0  0  0  0  0  0  0  0  0  0
    5.8138   -1.5589    0.9434 C   0  0  0  0  0  0  0  0  0  0  0  0
    7.1708   -1.7464    0.9668 C   0  0  0  0  0  0  0  0  0  0  0  0
    7.8693   -3.1165    1.8071 Cl  0  0  0  0  0  0  0  0  0  0  0  0
    8.0429   -0.8815    0.3410 C   0  0  0  0  0  0  0  0  0  0  0  0
    7.4843    0.1945   -0.3181 C   0  0  0  0  0  0  0  0  0  0  0  0
    6.1214    0.3839   -0.3423 C   0  0  0  0  0  0  0  0  0  0  0  0
    5.6319    1.4828   -1.0214 O   0  0  0  0  0  0  0  0  0  0  0  0
    3.2814   -2.2894    0.6669 H   0  0  0  0  0  0  0  0  0  0  0  0
    3.0737   -1.2300    2.0723 H   0  0  0  0  0  0  0  0  0  0  0  0
    1.8815   -1.1969    0.6606 H   0  0  0  0  0  0  0  0  0  0  0  0
    1.3253    0.2285   -0.9687 H   0  0  0  0  0  0  0  0  0  0  0  0
   -0.2370    3.3177    2.0197 H   0  0  0  0  0  0  0  0  0  0  0  0
   -2.6394    3.6364    2.1338 H   0  0  0  0  0  0  0  0  0  0  0  0
   -4.1142    2.2935    0.6470 H   0  0  0  0  0  0  0  0  0  0  0  0
   -4.1602   -0.0442    1.1759 H   0  0  0  0  0  0  0  0  0  0  0  0
   -4.8604   -1.6641    1.3311 H   0  0  0  0  0  0  0  0  0  0  0  0
   -6.8268   -0.5290    1.1390 H   0  0  0  0  0  0  0  0  0  0  0  0
   -6.0903    0.9446    0.4735 H   0  0  0  0  0  0  0  0  0  0  0  0
   -6.9571   -2.3635   -1.8052 H   0  0  0  0  0  0  0  0  0  0  0  0
   -6.3742   -2.4410   -0.1212 H   0  0  0  0  0  0  0  0  0  0  0  0
   -4.4451   -2.9648   -1.4812 H   0  0  0  0  0  0  0  0  0  0  0  0
   -4.7149   -1.4926   -2.5063 H   0  0  0  0  0  0  0  0  0  0  0  0
   -0.7125    0.3825   -0.9898 H   0  0  0  0  0  0  0  0  0  0  0  0
    5.2119   -2.3019    1.4702 H   0  0  0  0  0  0  0  0  0  0  0  0
    9.0998   -1.0336    0.3632 H   0  0  0  0  0  0  0  0  0  0  0  0
    8.1725    0.8698   -0.8071 H   0  0  0  0  0  0  0  0  0  0  0  0
    5.6962    2.4049   -0.6449 H   0  0  0  0  0  0  0  0  0  0  0  0
  1  2  1  0
  2  3  2  0
  3  4  1  0
  4  5  1  0
  5  6  2  0
  5  7  1  0
  7  8  2  0
  8  9  1  0
  9 10  2  0
 10 11  1  0
 11 12  1  0
 12 13  2  0
 12 14  2  0
 12 15  1  0
 15 16  1  0
 16 17  1  0
 17 18  1  0
 18 19  1  0
 19 20  1  0
 11 21  2  0
  2 22  1  0
 22 23  2  0
 23 24  1  0
 24 25  1  0
 24 26  2  0
 26 27  1  0
 27 28  2  0
 28 29  1  0
 21  7  1  0
 28 22  1  0
 20 15  1  0
  1 30  1  0
  1 31  1  0
  1 32  1  0
  4 33  1  0
  8 34  1  0
  9 35  1  0
 10 36  1  0
 16 37  1  0
 16 38  1  0
 17 39  1  0
 17 40  1  0
 19 41  1  0
 19 42  1  0
 20 43  1  0
 20 44  1  0
 21 45  1  0
 23 46  1  0
 26 47  1  0
 27 48  1  0
 29 49  1  0
M  END
$$$$
