
     RDKit          3D

 49 52  0  0  0  0  0  0  0  0999 V2000
    2.7875    0.2314   -1.5144 C   0  0  0  0  0  0  0  0  0  0  0  0
    2.2574   -0.6475   -0.4031 C   0  0  2  0  0  0  0  0  0  0  0  0
    1.3158   -1.6784   -0.8449 C   0  0  0  0  0  0  0  0  0  0  0  0
   -0.0329   -1.7230   -0.2417 C   0  0  0  0  0  0  0  0  0  0  0  0
   -0.6162   -0.4759    0.2757 C   0  0  1  0  0  0  0  0  0  0  0  0
    0.3591    0.7160    0.1951 C   0  0  1  0  0  0  0  0  0  0  0  0
   -0.1813    1.9168    0.8912 C   0  0  0  0  0  0  0  0  0  0  0  0
   -1.5182    1.7447    1.5178 C   0  0  0  0  0  0  0  0  0  0  0  0
   -2.4765    0.9291    0.7322 C   0  0  0  0  0  0  0  0  0  0  0  0
   -3.7683    1.1260    0.9351 C   0  0  0  0  0  0  0  0  0  0  0  0
   -4.6980    0.3243    0.1637 C   0  0  0  0  0  0  0  0  0  0  0  0
   -5.8256    0.7779   -0.1150 O   0  0  0  0  0  0  0  0  0  0  0  0
   -4.3127   -1.0087   -0.2834 C   0  0  0  0  0  0  0  0  0  0  0  0
   -2.8430   -1.2707   -0.3787 C   0  0  0  0  0  0  0  0  0  0  0  0
   -1.9658   -0.0850   -0.2590 C   0  0  2  0  0  0  0  0  0  0  0  0
   -1.8720    0.5935   -1.6061 C   0  0  0  0  0  0  0  0  0  0  0  0
    1.6233    0.1682    0.7113 C   0  0  2  0  0  0  0  0  0  0  0  0
    2.7150    1.0729    1.0848 C   0  0  0  0  0  0  0  0  0  0  0  0
    3.9164    0.1341    1.1037 C   0  0  0  0  0  0  0  0  0  0  0  0
    3.4806   -1.1364    0.3589 C   0  0  2  0  0  0  0  0  0  0  0  0
    4.4624   -1.3959   -0.5860 O   0  0  0  0  0  0  0  0  0  0  0  0
    3.5959    0.8566   -1.1093 H   0  0  0  0  0  0  0  0  0  0  0  0
    2.0228    0.7528   -2.0820 H   0  0  0  0  0  0  0  0  0  0  0  0
    3.2892   -0.4744   -2.2348 H   0  0  0  0  0  0  0  0  0  0  0  0
    1.2181   -1.5844   -1.9691 H   0  0  0  0  0  0  0  0  0  0  0  0
    1.8193   -2.6835   -0.7297 H   0  0  0  0  0  0  0  0  0  0  0  0
   -0.0260   -2.5422    0.5405 H   0  0  0  0  0  0  0  0  0  0  0  0
   -0.7361   -2.1475   -1.0196 H   0  0  0  0  0  0  0  0  0  0  0  0
   -0.7594   -0.6027    1.3928 H   0  0  0  0  0  0  0  0  0  0  0  0
    0.3760    0.9582   -0.9008 H   0  0  0  0  0  0  0  0  0  0  0  0
    0.5539    2.1906    1.6887 H   0  0  0  0  0  0  0  0  0  0  0  0
   -0.2370    2.8153    0.2121 H   0  0  0  0  0  0  0  0  0  0  0  0
   -1.3629    1.3155    2.5366 H   0  0  0  0  0  0  0  0  0  0  0  0
   -1.9663    2.7700    1.6562 H   0  0  0  0  0  0  0  0  0  0  0  0
   -4.0850    1.8689    1.6592 H   0  0  0  0  0  0  0  0  0  0  0  0
   -4.7728   -1.7448    0.4384 H   0  0  0  0  0  0  0  0  0  0  0  0
   -4.8640   -1.2121   -1.2471 H   0  0  0  0  0  0  0  0  0  0  0  0
   -2.6833   -1.7339   -1.3980 H   0  0  0  0  0  0  0  0  0  0  0  0
   -2.5293   -2.0609    0.3479 H   0  0  0  0  0  0  0  0  0  0  0  0
   -2.9019    0.6237   -2.0209 H   0  0  0  0  0  0  0  0  0  0  0  0
   -1.5215    1.6366   -1.5397 H   0  0  0  0  0  0  0  0  0  0  0  0
   -1.2619   -0.0060   -2.3125 H   0  0  0  0  0  0  0  0  0  0  0  0
    1.4403   -0.5442    1.5430 H   0  0  0  0  0  0  0  0  0  0  0  0
    2.8694    1.9505    0.4496 H   0  0  0  0  0  0  0  0  0  0  0  0
    2.5248    1.4497    2.1300 H   0  0  0  0  0  0  0  0  0  0  0  0
    4.7993    0.5947    0.6456 H   0  0  0  0  0  0  0  0  0  0  0  0
    4.0805   -0.1806    2.1548 H   0  0  0  0  0  0  0  0  0  0  0  0
    3.2687   -1.9617    1.0342 H   0  0  0  0  0  0  0  0  0  0  0  0
    5.0423   -0.6174   -0.7690 H   0  0  0  0  0  0  0  0  0  0  0  0
  2  1  1  6
  2  3  1  0
  3  4  1  0
  4  5  1  0
  5  6  1  0
  6  7  1  0
  7  8  1  0
  8  9  1  0
  9 10  2  0
 10 11  1  0
 11 12  2  0
 11 13  1  0
 13 14  1  0
 14 15  1  0
 15 16  1  6
  6 17  1  0
 17 18  1  0
 18 19  1  0
 19 20  1  0
 20 21  1  0
 17  2  1  0
 20  2  1  0
 15  5  1  0
 15  9  1  0
  1 22  1  0
  1 23  1  0
  1 24  1  0
  3 25  1  0
  3 26  1  0
  4 27  1  0
  4 28  1  0
  5 29  1  1
  6 30  1  6
  7 31  1  0
  7 32  1  0
  8 33  1  0
  8 34  1  0
 10 35  1  0
 13 36  1  0
 13 37  1  0
 14 38  1  0
 14 39  1  0
 16 40  1  0
 16 41  1  0
 16 42  1  0
 17 43  1  1
 18 44  1  0
 18 45  1  0
 19 46  1  0
 19 47  1  0
 20 48  1  1
 21 49  1  0
M  END
$$$$
