
     RDKit          3D

 54 59  0  0  0  0  0  0  0  0999 V2000
    7.5777    0.6360    2.2617 C   0  0  0  0  0  0  0  0  0  0  0  0
    6.4796    1.2998    1.7199 C   0  0  0  0  0  0  0  0  0  0  0  0
    5.7401    0.7803    0.6923 C   0  0  0  0  0  0  0  0  0  0  0  0
    6.1111   -0.4543    0.1828 C   0  0  0  0  0  0  0  0  0  0  0  0
    5.3557   -0.9735   -0.8588 C   0  0  0  0  0  0  0  0  0  0  0  0
    4.2216   -0.2401   -1.3854 C   0  0  0  0  0  0  0  0  0  0  0  0
    4.1911    0.6815   -2.4075 C   0  0  0  0  0  0  0  0  0  0  0  0
    2.9392    1.0889   -2.5394 N   0  0  0  0  0  0  0  0  0  0  0  0
    2.1306    0.4947   -1.6665 N   0  0  0  0  0  0  0  0  0  0  0  0
    0.8098    0.6074   -1.4513 C   0  0  0  0  0  0  0  0  0  0  0  0
    0.2181   -0.1392   -0.4643 C   0  0  0  0  0  0  0  0  0  0  0  0
   -1.2204   -0.0478   -0.1949 C   0  0  0  0  0  0  0  0  0  0  0  0
   -1.8736   -1.1684    0.2726 C   0  0  0  0  0  0  0  0  0  0  0  0
   -3.2353   -1.1150    0.5375 C   0  0  0  0  0  0  0  0  0  0  0  0
   -3.9381    0.0555    0.3347 C   0  0  0  0  0  0  0  0  0  0  0  0
   -5.3927    0.0510    0.6359 C   0  0  0  0  0  0  0  0  0  0  0  0
   -6.1068    0.3156   -0.6940 C   0  0  0  0  0  0  0  0  0  0  0  0
   -7.5631    0.5931   -0.5043 C   0  0  0  0  0  0  0  0  0  0  0  0
   -7.9455    0.2151    0.8275 N   0  0  0  0  0  0  0  0  0  0  0  0
   -7.2861    1.0685    1.7782 C   0  0  0  0  0  0  0  0  0  0  0  0
   -5.7983    1.1266    1.5888 C   0  0  0  0  0  0  0  0  0  0  0  0
   -3.2727    1.1562   -0.1295 C   0  0  0  0  0  0  0  0  0  0  0  0
   -1.9201    1.1125   -0.3954 C   0  0  0  0  0  0  0  0  0  0  0  0
    0.9918   -0.9943    0.2916 C   0  0  0  0  0  0  0  0  0  0  0  0
    2.3041   -1.0569    0.0227 N   0  0  0  0  0  0  0  0  0  0  0  0
    2.9180   -0.3340   -0.9438 C   0  0  0  0  0  0  0  0  0  0  0  0
    5.7456   -2.2089   -1.3518 C   0  0  0  0  0  0  0  0  0  0  0  0
    6.8228   -2.8407   -0.8069 C   0  0  0  0  0  0  0  0  0  0  0  0
    7.5390   -2.3176    0.2019 N   0  0  0  0  0  0  0  0  0  0  0  0
    7.1977   -1.1165    0.7154 C   0  0  0  0  0  0  0  0  0  0  0  0
    7.9436   -0.5950    1.7500 C   0  0  0  0  0  0  0  0  0  0  0  0
    8.1160    1.1066    3.0731 H   0  0  0  0  0  0  0  0  0  0  0  0
    6.2103    2.2549    2.1302 H   0  0  0  0  0  0  0  0  0  0  0  0
    4.8794    1.2870    0.2583 H   0  0  0  0  0  0  0  0  0  0  0  0
    5.0230    1.0373   -3.0202 H   0  0  0  0  0  0  0  0  0  0  0  0
    0.1997    1.2745   -2.0392 H   0  0  0  0  0  0  0  0  0  0  0  0
   -1.3524   -2.1195    0.4476 H   0  0  0  0  0  0  0  0  0  0  0  0
   -3.7684   -1.9936    0.9084 H   0  0  0  0  0  0  0  0  0  0  0  0
   -5.7290   -0.9219    0.9941 H   0  0  0  0  0  0  0  0  0  0  0  0
   -5.6336    1.2063   -1.1630 H   0  0  0  0  0  0  0  0  0  0  0  0
   -5.9999   -0.5766   -1.3641 H   0  0  0  0  0  0  0  0  0  0  0  0
   -7.7929    1.6710   -0.6255 H   0  0  0  0  0  0  0  0  0  0  0  0
   -8.2092    0.0195   -1.2127 H   0  0  0  0  0  0  0  0  0  0  0  0
   -7.8665   -0.7900    1.0327 H   0  0  0  0  0  0  0  0  0  0  0  0
   -7.7482    2.0940    1.6771 H   0  0  0  0  0  0  0  0  0  0  0  0
   -7.5688    0.7083    2.8009 H   0  0  0  0  0  0  0  0  0  0  0  0
   -5.3098    0.9974    2.5804 H   0  0  0  0  0  0  0  0  0  0  0  0
   -5.5193    2.1113    1.1229 H   0  0  0  0  0  0  0  0  0  0  0  0
   -3.8341    2.0667   -0.2842 H   0  0  0  0  0  0  0  0  0  0  0  0
   -1.3736    1.9810   -0.7660 H   0  0  0  0  0  0  0  0  0  0  0  0
    0.5297   -1.5857    1.0719 H   0  0  0  0  0  0  0  0  0  0  0  0
    5.1495   -2.6152   -2.1714 H   0  0  0  0  0  0  0  0  0  0  0  0
    7.1139   -3.8058   -1.2041 H   0  0  0  0  0  0  0  0  0  0  0  0
    8.7997   -1.0879    2.1895 H   0  0  0  0  0  0  0  0  0  0  0  0
  1  2  2  0
  2  3  1  0
  3  4  2  0
  4  5  1  0
  5  6  1  0
  6  7  1  0
  7  8  2  0
  8  9  1  0
  9 10  1  0
 10 11  2  0
 11 12  1  0
 12 13  2  0
 13 14  1  0
 14 15  2  0
 15 16  1  0
 16 17  1  0
 17 18  1  0
 18 19  1  0
 19 20  1  0
 20 21  1  0
 15 22  1  0
 22 23  2  0
 11 24  1  0
 24 25  2  0
 25 26  1  0
  5 27  2  0
 27 28  1  0
 28 29  2  0
 29 30  1  0
 30 31  2  0
 31  1  1  0
 30  4  1  0
 26  6  2  0
 26  9  1  0
 23 12  1  0
 21 16  1  0
  1 32  1  0
  2 33  1  0
  3 34  1  0
  7 35  1  0
 10 36  1  0
 13 37  1  0
 14 38  1  0
 16 39  1  0
 17 40  1  0
 17 41  1  0
 18 42  1  0
 18 43  1  0
 19 44  1  0
 20 45  1  0
 20 46  1  0
 21 47  1  0
 21 48  1  0
 22 49  1  0
 23 50  1  0
 24 51  1  0
 27 52  1  0
 28 53  1  0
 31 54  1  0
M  END
$$$$
