
     RDKit          3D

 46 47  0  0  0  0  0  0  0  0999 V2000
    3.9009   -0.2582   -1.3357 C   0  0  0  0  0  0  0  0  0  0  0  0
    3.1289    0.0011   -0.0887 N   0  0  0  0  0  0  0  0  0  0  0  0
    3.9562    1.0369    0.5650 C   0  0  0  0  0  0  0  0  0  0  0  0
    3.1748   -1.2211    0.6814 C   0  0  0  0  0  0  0  0  0  0  0  0
    2.3671   -1.2485    1.9228 C   0  0  0  0  0  0  0  0  0  0  0  0
    0.9878   -1.0855    1.7922 O   0  0  0  0  0  0  0  0  0  0  0  0
    0.2718   -0.0475    1.2870 C   0  0  0  0  0  0  0  0  0  0  0  0
    0.7918    0.9900    0.8334 O   0  0  0  0  0  0  0  0  0  0  0  0
   -1.1528    0.1857    1.1217 C   0  0  0  0  0  0  0  0  0  0  0  0
   -1.4639    1.5214    0.5329 C   0  0  0  0  0  0  0  0  0  0  0  0
   -2.3318    2.3973    1.1772 C   0  0  0  0  0  0  0  0  0  0  0  0
   -2.6828    3.6569    0.7229 C   0  0  0  0  0  0  0  0  0  0  0  0
   -2.1105    4.0533   -0.4712 C   0  0  0  0  0  0  0  0  0  0  0  0
   -1.2413    3.2380   -1.1657 C   0  0  0  0  0  0  0  0  0  0  0  0
   -0.9527    2.0071   -0.6375 C   0  0  0  0  0  0  0  0  0  0  0  0
   -1.9260   -0.8345    0.3645 C   0  0  0  0  0  0  0  0  0  0  0  0
   -3.2983   -0.4960    0.2730 O   0  0  0  0  0  0  0  0  0  0  0  0
   -1.4808   -1.1001   -1.0362 C   0  0  0  0  0  0  0  0  0  0  0  0
   -2.3115   -2.3307   -1.3861 C   0  0  0  0  0  0  0  0  0  0  0  0
   -2.5140   -3.0515   -0.0755 C   0  0  0  0  0  0  0  0  0  0  0  0
   -1.8035   -2.2328    0.9800 C   0  0  0  0  0  0  0  0  0  0  0  0
    3.3304   -0.9316   -1.9766 H   0  0  0  0  0  0  0  0  0  0  0  0
    4.1124    0.7322   -1.7596 H   0  0  0  0  0  0  0  0  0  0  0  0
    4.8547   -0.7328   -0.9908 H   0  0  0  0  0  0  0  0  0  0  0  0
    4.9245    0.6058    0.8907 H   0  0  0  0  0  0  0  0  0  0  0  0
    3.4061    1.5828    1.3468 H   0  0  0  0  0  0  0  0  0  0  0  0
    4.1830    1.7702   -0.2384 H   0  0  0  0  0  0  0  0  0  0  0  0
    2.9301   -2.0635   -0.0146 H   0  0  0  0  0  0  0  0  0  0  0  0
    4.2690   -1.3833    0.8944 H   0  0  0  0  0  0  0  0  0  0  0  0
    2.7656   -0.5886    2.7280 H   0  0  0  0  0  0  0  0  0  0  0  0
    2.4984   -2.2855    2.3561 H   0  0  0  0  0  0  0  0  0  0  0  0
   -1.6517    0.2333    2.1392 H   0  0  0  0  0  0  0  0  0  0  0  0
   -2.8036    2.1101    2.1293 H   0  0  0  0  0  0  0  0  0  0  0  0
   -3.3616    4.2805    1.2730 H   0  0  0  0  0  0  0  0  0  0  0  0
   -2.3786    5.0410   -0.8342 H   0  0  0  0  0  0  0  0  0  0  0  0
   -0.8093    3.5657   -2.0892 H   0  0  0  0  0  0  0  0  0  0  0  0
   -0.2741    1.4001   -1.1984 H   0  0  0  0  0  0  0  0  0  0  0  0
   -3.4695    0.0142   -0.5591 H   0  0  0  0  0  0  0  0  0  0  0  0
   -1.7850   -0.3358   -1.7793 H   0  0  0  0  0  0  0  0  0  0  0  0
   -0.3993   -1.3417   -1.1306 H   0  0  0  0  0  0  0  0  0  0  0  0
   -3.3067   -1.9681   -1.6944 H   0  0  0  0  0  0  0  0  0  0  0  0
   -1.8160   -2.9493   -2.1585 H   0  0  0  0  0  0  0  0  0  0  0  0
   -3.5626   -3.2161    0.1829 H   0  0  0  0  0  0  0  0  0  0  0  0
   -1.9454   -4.0168   -0.1377 H   0  0  0  0  0  0  0  0  0  0  0  0
   -0.7238   -2.4541    1.0252 H   0  0  0  0  0  0  0  0  0  0  0  0
   -2.2965   -2.2500    1.9612 H   0  0  0  0  0  0  0  0  0  0  0  0
  1  2  1  0
  2  3  1  0
  2  4  1  0
  4  5  1  0
  5  6  1  0
  6  7  1  0
  7  8  2  0
  7  9  1  0
  9 10  1  0
 10 11  2  0
 11 12  1  0
 12 13  2  0
 13 14  1  0
 14 15  2  0
  9 16  1  0
 16 17  1  0
 16 18  1  0
 18 19  1  0
 19 20  1  0
 20 21  1  0
 15 10  1  0
 21 16  1  0
  1 22  1  0
  1 23  1  0
  1 24  1  0
  3 25  1  0
  3 26  1  0
  3 27  1  0
  4 28  1  0
  4 29  1  0
  5 30  1  0
  5 31  1  0
  9 32  1  0
 11 33  1  0
 12 34  1  0
 13 35  1  0
 14 36  1  0
 15 37  1  0
 17 38  1  0
 18 39  1  0
 18 40  1  0
 19 41  1  0
 19 42  1  0
 20 43  1  0
 20 44  1  0
 21 45  1  0
 21 46  1  0
M  END
$$$$
