
     RDKit          3D

 42 43  0  0  0  0  0  0  0  0999 V2000
   -7.6756    1.5666   -0.1806 O   0  0  0  0  0  0  0  0  0  0  0  0
   -7.6127    0.2990   -0.7030 C   0  0  0  0  0  0  0  0  0  0  0  0
   -8.8696    0.0830   -0.7944 O   0  0  0  0  0  0  0  0  0  0  0  0
   -6.7756   -0.8115   -1.1593 C   0  0  0  0  0  0  0  0  0  0  0  0
   -5.2964   -0.5724   -1.0582 C   0  0  0  0  0  0  0  0  0  0  0  0
   -4.7828   -0.3012    0.3112 C   0  0  0  0  0  0  0  0  0  0  0  0
   -3.2961   -0.0949    0.1703 C   0  0  0  0  0  0  0  0  0  0  0  0
   -2.9235   -0.2087   -1.0380 O   0  0  0  0  0  0  0  0  0  0  0  0
   -2.4736    0.1913    1.3129 N   0  0  0  0  0  0  0  0  0  0  0  0
   -1.0866    0.3641    1.0424 C   0  0  0  0  0  0  0  0  0  0  0  0
   -0.3079   -0.7743    1.0976 C   0  0  0  0  0  0  0  0  0  0  0  0
    1.0463   -0.6882    0.8474 C   0  0  0  0  0  0  0  0  0  0  0  0
    1.6954    0.4864    0.5375 C   0  0  0  0  0  0  0  0  0  0  0  0
    3.1190    0.5974    0.2710 C   0  0  0  0  0  0  0  0  0  0  0  0
    3.9840   -0.3831    0.2847 C   0  0  0  0  0  0  0  0  0  0  0  0
    5.4162   -0.3060    0.0224 C   0  0  0  0  0  0  0  0  0  0  0  0
    6.2408   -1.4074    0.0633 C   0  0  0  0  0  0  0  0  0  0  0  0
    7.5924   -1.3190   -0.1869 C   0  0  0  0  0  0  0  0  0  0  0  0
    8.1947   -0.1162   -0.4933 C   0  0  0  0  0  0  0  0  0  0  0  0
    7.4024    1.0108   -0.5441 C   0  0  0  0  0  0  0  0  0  0  0  0
    6.0547    0.8734   -0.2864 C   0  0  0  0  0  0  0  0  0  0  0  0
    0.8811    1.5962    0.4934 C   0  0  0  0  0  0  0  0  0  0  0  0
   -0.4739    1.5458    0.7377 C   0  0  0  0  0  0  0  0  0  0  0  0
   -7.8826    1.7364    0.8047 H   0  0  0  0  0  0  0  0  0  0  0  0
   -7.1001   -1.7447   -0.6844 H   0  0  0  0  0  0  0  0  0  0  0  0
   -6.9884   -0.9483   -2.2499 H   0  0  0  0  0  0  0  0  0  0  0  0
   -4.8075   -1.5226   -1.4006 H   0  0  0  0  0  0  0  0  0  0  0  0
   -4.9320    0.1972   -1.7549 H   0  0  0  0  0  0  0  0  0  0  0  0
   -4.9419   -1.1050    1.0320 H   0  0  0  0  0  0  0  0  0  0  0  0
   -5.1873    0.6512    0.7192 H   0  0  0  0  0  0  0  0  0  0  0  0
   -2.9888    0.2409    2.2198 H   0  0  0  0  0  0  0  0  0  0  0  0
   -0.7473   -1.7534    1.3382 H   0  0  0  0  0  0  0  0  0  0  0  0
    1.6114   -1.6025    0.9022 H   0  0  0  0  0  0  0  0  0  0  0  0
    3.5250    1.5687    0.0376 H   0  0  0  0  0  0  0  0  0  0  0  0
    3.5914   -1.3770    0.5196 H   0  0  0  0  0  0  0  0  0  0  0  0
    5.7964   -2.3752    0.3029 H   0  0  0  0  0  0  0  0  0  0  0  0
    8.1583   -2.2424   -0.1307 H   0  0  0  0  0  0  0  0  0  0  0  0
    9.2567   -0.1011   -0.6807 H   0  0  0  0  0  0  0  0  0  0  0  0
    7.8609    1.9603   -0.7831 H   0  0  0  0  0  0  0  0  0  0  0  0
    5.5058    1.8015   -0.3463 H   0  0  0  0  0  0  0  0  0  0  0  0
    1.3265    2.5594    0.2544 H   0  0  0  0  0  0  0  0  0  0  0  0
   -1.1093    2.4255    0.7010 H   0  0  0  0  0  0  0  0  0  0  0  0
  1  2  1  0
  2  3  2  0
  2  4  1  0
  4  5  1  0
  5  6  1  0
  6  7  1  0
  7  8  2  0
  7  9  1  0
  9 10  1  0
 10 11  2  0
 11 12  1  0
 12 13  2  0
 13 14  1  0
 14 15  2  0
 15 16  1  0
 16 17  2  0
 17 18  1  0
 18 19  2  0
 19 20  1  0
 20 21  2  0
 13 22  1  0
 22 23  2  0
 23 10  1  0
 21 16  1  0
  1 24  1  0
  4 25  1  0
  4 26  1  0
  5 27  1  0
  5 28  1  0
  6 29  1  0
  6 30  1  0
  9 31  1  0
 11 32  1  0
 12 33  1  0
 14 34  1  0
 15 35  1  0
 17 36  1  0
 18 37  1  0
 19 38  1  0
 20 39  1  0
 21 40  1  0
 22 41  1  0
 23 42  1  0
M  END
$$$$
