
     RDKit          3D

 53 56  0  0  0  0  0  0  0  0999 V2000
   -5.6504   -4.0860   -1.4693 C   0  0  0  0  0  0  0  0  0  0  0  0
   -5.3665   -2.8318   -0.7989 N   0  0  0  0  0  0  0  0  0  0  0  0
   -4.0554   -2.4805   -0.3752 C   0  0  0  0  0  0  0  0  0  0  0  0
   -3.1005   -3.2723   -0.5810 O   0  0  0  0  0  0  0  0  0  0  0  0
   -3.8338   -1.1840    0.3042 C   0  0  2  0  0  0  0  0  0  0  0  0
   -4.1743    0.0617   -0.4286 C   0  0  0  0  0  0  0  0  0  0  0  0
   -2.7832   -0.2685   -0.1046 C   0  0  1  0  0  0  0  0  0  0  0  0
   -1.9822    0.3857    0.9716 C   0  0  1  0  0  0  0  0  0  0  0  0
   -1.0512   -0.6384    1.6167 C   0  0  0  0  0  0  0  0  0  0  0  0
   -1.0719    1.4364    0.3892 C   0  0  0  0  0  0  0  0  0  0  0  0
    0.2835    1.2555    0.3672 C   0  0  0  0  0  0  0  0  0  0  0  0
    1.1509    2.2041   -0.1617 C   0  0  0  0  0  0  0  0  0  0  0  0
    2.6036    2.0146   -0.1902 C   0  0  0  0  0  0  0  0  0  0  0  0
    3.1892    0.8637   -0.4535 C   0  0  0  0  0  0  0  0  0  0  0  0
    2.4095   -0.2055   -0.7138 F   0  0  0  0  0  0  0  0  0  0  0  0
    4.6328    0.6864   -0.4711 C   0  0  0  0  0  0  0  0  0  0  0  0
    5.4505    1.7188   -0.2024 N   0  0  0  0  0  0  0  0  0  0  0  0
    6.7731    1.6534   -0.1924 C   0  0  0  0  0  0  0  0  0  0  0  0
    7.3846    0.4523   -0.4743 C   0  0  0  0  0  0  0  0  0  0  0  0
    8.7982    0.3151   -0.4801 C   0  0  0  0  0  0  0  0  0  0  0  0
    9.9529    0.1836   -0.4839 N   0  0  0  0  0  0  0  0  0  0  0  0
    6.5910   -0.6429   -0.7582 C   0  0  0  0  0  0  0  0  0  0  0  0
    5.2015   -0.5331   -0.7587 C   0  0  0  0  0  0  0  0  0  0  0  0
    4.3537   -1.7382   -1.0717 C   0  0  0  0  0  0  0  0  0  0  0  0
    0.5600    3.3440   -0.6655 C   0  0  0  0  0  0  0  0  0  0  0  0
   -0.8052    3.5297   -0.6452 C   0  0  0  0  0  0  0  0  0  0  0  0
   -1.6525    2.5783   -0.1165 C   0  0  0  0  0  0  0  0  0  0  0  0
   -3.0004    2.7744   -0.1011 F   0  0  0  0  0  0  0  0  0  0  0  0
   -2.7067    0.9710    2.0480 N   0  0  0  0  0  0  0  0  0  0  0  0
   -3.6973    0.4492    2.6494 C   0  0  0  0  0  0  0  0  0  0  0  0
   -4.4072    1.0440    3.7191 N   0  0  0  0  0  0  0  0  0  0  0  0
   -4.2208   -1.1658    2.0714 S   0  0  0  0  0  0  0  0  0  0  0  0
   -6.1762   -3.9118   -2.4264 H   0  0  0  0  0  0  0  0  0  0  0  0
   -4.7358   -4.6788   -1.5600 H   0  0  0  0  0  0  0  0  0  0  0  0
   -6.3409   -4.6458   -0.7721 H   0  0  0  0  0  0  0  0  0  0  0  0
   -6.1620   -2.1663   -0.6247 H   0  0  0  0  0  0  0  0  0  0  0  0
   -4.5252   -0.1024   -1.4908 H   0  0  0  0  0  0  0  0  0  0  0  0
   -4.8038    0.7893    0.0821 H   0  0  0  0  0  0  0  0  0  0  0  0
   -2.1492   -0.6024   -0.9735 H   0  0  0  0  0  0  0  0  0  0  0  0
   -0.3631   -0.1606    2.3413 H   0  0  0  0  0  0  0  0  0  0  0  0
   -1.7066   -1.2986    2.2530 H   0  0  0  0  0  0  0  0  0  0  0  0
   -0.4815   -1.2226    0.8808 H   0  0  0  0  0  0  0  0  0  0  0  0
    0.7707    0.3593    0.7620 H   0  0  0  0  0  0  0  0  0  0  0  0
    3.2872    2.8419    0.0113 H   0  0  0  0  0  0  0  0  0  0  0  0
    7.3780    2.5363    0.0359 H   0  0  0  0  0  0  0  0  0  0  0  0
    7.0614   -1.5938   -0.9819 H   0  0  0  0  0  0  0  0  0  0  0  0
    3.7260   -2.0240   -0.2290 H   0  0  0  0  0  0  0  0  0  0  0  0
    5.0279   -2.5716   -1.3360 H   0  0  0  0  0  0  0  0  0  0  0  0
    3.7727   -1.5165   -2.0076 H   0  0  0  0  0  0  0  0  0  0  0  0
    1.2161    4.1144   -1.0906 H   0  0  0  0  0  0  0  0  0  0  0  0
   -1.2620    4.4456   -1.0514 H   0  0  0  0  0  0  0  0  0  0  0  0
   -5.3714    1.4297    3.6484 H   0  0  0  0  0  0  0  0  0  0  0  0
   -3.9379    1.1038    4.6471 H   0  0  0  0  0  0  0  0  0  0  0  0
  1  2  1  0
  2  3  1  0
  3  4  2  0
  5  3  1  6
  5  6  1  0
  6  7  1  0
  7  8  1  0
  8  9  1  1
  8 10  1  0
 10 11  2  0
 11 12  1  0
 12 13  1  0
 13 14  2  0
 14 15  1  0
 14 16  1  0
 16 17  2  0
 17 18  1  0
 18 19  2  0
 19 20  1  0
 20 21  3  0
 19 22  1  0
 22 23  2  0
 23 24  1  0
 12 25  2  0
 25 26  1  0
 26 27  2  0
 27 28  1  0
  8 29  1  0
 29 30  2  0
 30 31  1  0
 30 32  1  0
  7  5  1  0
 27 10  1  0
 32  5  1  0
 23 16  1  0
  1 33  1  0
  1 34  1  0
  1 35  1  0
  2 36  1  0
  6 37  1  0
  6 38  1  0
  7 39  1  6
  9 40  1  0
  9 41  1  0
  9 42  1  0
 11 43  1  0
 13 44  1  0
 18 45  1  0
 22 46  1  0
 24 47  1  0
 24 48  1  0
 24 49  1  0
 25 50  1  0
 26 51  1  0
 31 52  1  0
 31 53  1  0
M  END
$$$$
