
     RDKit          3D

 47 50  0  0  0  0  0  0  0  0999 V2000
   -9.6986    0.6015    0.9906 C   0  0  0  0  0  0  0  0  0  0  0  0
   -8.2936    0.4328    1.3253 N   0  0  0  0  0  0  0  0  0  0  0  0
   -7.3679    0.5438    0.2620 C   0  0  0  0  0  0  0  0  0  0  0  0
   -7.7328    0.7785   -0.9282 O   0  0  0  0  0  0  0  0  0  0  0  0
   -5.9341    0.3777    0.5686 C   0  0  0  0  0  0  0  0  0  0  0  0
   -5.5102    0.1259    1.8303 N   0  0  0  0  0  0  0  0  0  0  0  0
   -4.2206   -0.0318    2.1546 C   0  0  0  0  0  0  0  0  0  0  0  0
   -3.2898    0.0705    1.1393 C   0  0  0  0  0  0  0  0  0  0  0  0
   -3.6396    0.3258   -0.1765 C   0  0  0  0  0  0  0  0  0  0  0  0
   -2.7607    0.4384   -1.2270 O   0  0  0  0  0  0  0  0  0  0  0  0
   -1.3934    0.2991   -1.0443 C   0  0  0  0  0  0  0  0  0  0  0  0
   -0.6435   -0.8417   -1.1157 C   0  0  0  0  0  0  0  0  0  0  0  0
    0.7149   -0.7775   -0.9016 C   0  0  0  0  0  0  0  0  0  0  0  0
    1.3162    0.4051   -0.6206 C   0  0  0  0  0  0  0  0  0  0  0  0
    0.6091    1.6090   -0.5326 C   0  0  0  0  0  0  0  0  0  0  0  0
   -0.7628    1.5102   -0.7544 C   0  0  0  0  0  0  0  0  0  0  0  0
    2.6149    0.1083   -0.4736 N   0  0  0  0  0  0  0  0  0  0  0  0
    2.8528   -1.1991   -0.6488 C   0  0  0  0  0  0  0  0  0  0  0  0
    4.0618   -1.9393   -0.5867 N   0  0  0  0  0  0  0  0  0  0  0  0
    5.3465   -1.4084   -0.3082 C   0  0  0  0  0  0  0  0  0  0  0  0
    5.6405   -0.0982   -0.0529 C   0  0  0  0  0  0  0  0  0  0  0  0
    6.8812    0.4074    0.2148 C   0  0  0  0  0  0  0  0  0  0  0  0
    7.9591   -0.4499    0.2384 C   0  0  0  0  0  0  0  0  0  0  0  0
    9.5628    0.1551    0.5767 Cl  0  0  0  0  0  0  0  0  0  0  0  0
    7.7235   -1.7770   -0.0109 C   0  0  0  0  0  0  0  0  0  0  0  0
    6.4515   -2.2236   -0.2738 C   0  0  0  0  0  0  0  0  0  0  0  0
    7.1079    1.8625    0.4834 C   0  0  0  0  0  0  0  0  0  0  0  0
    7.6469    2.0931    1.7263 F   0  0  0  0  0  0  0  0  0  0  0  0
    7.9575    2.4028   -0.4641 F   0  0  0  0  0  0  0  0  0  0  0  0
    5.9047    2.5382    0.4366 F   0  0  0  0  0  0  0  0  0  0  0  0
    1.6496   -1.7377   -0.9162 N   0  0  0  0  0  0  0  0  0  0  0  0
   -5.0009    0.4821   -0.4594 C   0  0  0  0  0  0  0  0  0  0  0  0
  -10.1180    1.5162    1.4701 H   0  0  0  0  0  0  0  0  0  0  0  0
  -10.2402   -0.2577    1.4361 H   0  0  0  0  0  0  0  0  0  0  0  0
   -9.8829    0.5956   -0.0911 H   0  0  0  0  0  0  0  0  0  0  0  0
   -8.0357    0.2429    2.3055 H   0  0  0  0  0  0  0  0  0  0  0  0
   -3.9002   -0.2338    3.1759 H   0  0  0  0  0  0  0  0  0  0  0  0
   -2.2106   -0.0466    1.3245 H   0  0  0  0  0  0  0  0  0  0  0  0
   -1.1779   -1.7307   -1.3393 H   0  0  0  0  0  0  0  0  0  0  0  0
    1.1218    2.5108   -0.3102 H   0  0  0  0  0  0  0  0  0  0  0  0
   -1.2729    2.4666   -0.6767 H   0  0  0  0  0  0  0  0  0  0  0  0
    4.0202   -2.9798   -0.7607 H   0  0  0  0  0  0  0  0  0  0  0  0
    4.8501    0.6339   -0.0535 H   0  0  0  0  0  0  0  0  0  0  0  0
    8.5807   -2.4418    0.0107 H   0  0  0  0  0  0  0  0  0  0  0  0
    6.3872   -3.2994   -0.4569 H   0  0  0  0  0  0  0  0  0  0  0  0
    1.4506   -2.7406   -1.1077 H   0  0  0  0  0  0  0  0  0  0  0  0
   -5.3252    0.6807   -1.4595 H   0  0  0  0  0  0  0  0  0  0  0  0
  1  2  1  0
  2  3  1  0
  3  4  2  0
  3  5  1  0
  5  6  2  0
  6  7  1  0
  7  8  2  0
  8  9  1  0
  9 10  1  0
 10 11  1  0
 11 12  2  0
 12 13  1  0
 13 14  2  0
 14 15  1  0
 15 16  2  0
 14 17  1  0
 17 18  2  0
 18 19  1  0
 19 20  1  0
 20 21  2  0
 21 22  1  0
 22 23  2  0
 23 24  1  0
 23 25  1  0
 25 26  2  0
 22 27  1  0
 27 28  1  0
 27 29  1  0
 27 30  1  0
 18 31  1  0
  9 32  2  0
 32  5  1  0
 16 11  1  0
 26 20  1  0
 31 13  1  0
  1 33  1  0
  1 34  1  0
  1 35  1  0
  2 36  1  0
  7 37  1  0
  8 38  1  0
 12 39  1  0
 15 40  1  0
 16 41  1  0
 19 42  1  0
 21 43  1  0
 25 44  1  0
 26 45  1  0
 31 46  1  0
 32 47  1  0
M  END
$$$$
