
     RDKit          3D

 59 63  0  0  0  0  0  0  0  0999 V2000
   -7.4862   -1.3030    1.1515 N   0  0  0  0  0  0  0  0  0  0  0  0
   -6.8102   -0.1243    0.7626 C   0  0  0  0  0  0  0  0  0  0  0  0
   -7.4341    0.9648    0.8154 O   0  0  0  0  0  0  0  0  0  0  0  0
   -5.4193   -0.1261    0.3036 C   0  0  2  0  0  0  0  0  0  0  0  0
   -5.2647   -0.9974   -0.9376 C   0  0  0  0  0  0  0  0  0  0  0  0
   -3.8239   -0.9793   -1.3526 C   0  0  0  0  0  0  0  0  0  0  0  0
   -2.9209   -1.5094   -0.2607 C   0  0  0  0  0  0  0  0  0  0  0  0
   -3.1239   -0.6449    0.9794 C   0  0  0  0  0  0  0  0  0  0  0  0
   -4.5658   -0.7486    1.3833 C   0  0  0  0  0  0  0  0  0  0  0  0
   -2.6971    0.7672    0.6855 C   0  0  1  0  0  0  0  0  0  0  0  0
   -1.3218    0.7522    0.3994 O   0  0  0  0  0  0  0  0  0  0  0  0
   -0.3547    1.4226    1.0922 C   0  0  0  0  0  0  0  0  0  0  0  0
   -0.7028    2.1223    2.0784 O   0  0  0  0  0  0  0  0  0  0  0  0
    1.0330    1.3827    0.7710 N   0  0  0  0  0  0  0  0  0  0  0  0
    2.1453    2.0247    1.3982 C   0  0  0  0  0  0  0  0  0  0  0  0
    3.3792    1.2352    1.0297 C   0  0  0  0  0  0  0  0  0  0  0  0
    2.9174    0.1123    0.1261 C   0  0  2  0  0  0  0  0  0  0  0  0
    3.7451   -0.0091   -1.0628 N   0  0  0  0  0  0  0  0  0  0  0  0
    5.1395   -0.2753   -0.8840 C   0  0  0  0  0  0  0  0  0  0  0  0
    5.9879   -0.4040   -1.9643 C   0  0  0  0  0  0  0  0  0  0  0  0
    7.3370   -0.6603   -1.8286 C   0  0  0  0  0  0  0  0  0  0  0  0
    7.8705   -0.7954   -0.5640 C   0  0  0  0  0  0  0  0  0  0  0  0
    9.3258   -1.0723   -0.4022 C   0  0  0  0  0  0  0  0  0  0  0  0
    9.6341   -1.3981    0.8868 F   0  0  0  0  0  0  0  0  0  0  0  0
    9.6929   -2.1354   -1.2099 F   0  0  0  0  0  0  0  0  0  0  0  0
   10.0996    0.0159   -0.7666 F   0  0  0  0  0  0  0  0  0  0  0  0
    7.0083   -0.6637    0.5047 C   0  0  0  0  0  0  0  0  0  0  0  0
    5.6810   -0.4107    0.3397 N   0  0  0  0  0  0  0  0  0  0  0  0
    1.5680    0.6188   -0.3345 C   0  0  0  0  0  0  0  0  0  0  0  0
   -3.5202    1.2767   -0.4812 C   0  0  0  0  0  0  0  0  0  0  0  0
   -3.3648    0.4064   -1.7043 C   0  0  0  0  0  0  0  0  0  0  0  0
   -4.9609    1.2644   -0.0522 C   0  0  0  0  0  0  0  0  0  0  0  0
   -7.7890   -1.4098    2.1357 H   0  0  0  0  0  0  0  0  0  0  0  0
   -7.6899   -2.0664    0.4842 H   0  0  0  0  0  0  0  0  0  0  0  0
   -5.5882   -2.0325   -0.7429 H   0  0  0  0  0  0  0  0  0  0  0  0
   -5.8609   -0.5090   -1.7354 H   0  0  0  0  0  0  0  0  0  0  0  0
   -3.7249   -1.6017   -2.2661 H   0  0  0  0  0  0  0  0  0  0  0  0
   -3.1722   -2.5379    0.0243 H   0  0  0  0  0  0  0  0  0  0  0  0
   -1.8768   -1.3851   -0.5773 H   0  0  0  0  0  0  0  0  0  0  0  0
   -2.4753   -1.0289    1.7813 H   0  0  0  0  0  0  0  0  0  0  0  0
   -4.8232   -1.8375    1.3961 H   0  0  0  0  0  0  0  0  0  0  0  0
   -4.7783   -0.3556    2.3796 H   0  0  0  0  0  0  0  0  0  0  0  0
   -2.9577    1.3934    1.5588 H   0  0  0  0  0  0  0  0  0  0  0  0
    2.2818    3.0543    0.9838 H   0  0  0  0  0  0  0  0  0  0  0  0
    2.0350    2.1258    2.4973 H   0  0  0  0  0  0  0  0  0  0  0  0
    3.9118    0.8307    1.9116 H   0  0  0  0  0  0  0  0  0  0  0  0
    4.1224    1.8553    0.4751 H   0  0  0  0  0  0  0  0  0  0  0  0
    2.8407   -0.8534    0.6693 H   0  0  0  0  0  0  0  0  0  0  0  0
    3.3749    0.0875   -2.0251 H   0  0  0  0  0  0  0  0  0  0  0  0
    5.5502   -0.2943   -2.9618 H   0  0  0  0  0  0  0  0  0  0  0  0
    7.9992   -0.7605   -2.6826 H   0  0  0  0  0  0  0  0  0  0  0  0
    7.4409   -0.7726    1.5094 H   0  0  0  0  0  0  0  0  0  0  0  0
    0.9562   -0.2688   -0.5773 H   0  0  0  0  0  0  0  0  0  0  0  0
    1.6783    1.2154   -1.2618 H   0  0  0  0  0  0  0  0  0  0  0  0
   -3.2192    2.3258   -0.6627 H   0  0  0  0  0  0  0  0  0  0  0  0
   -3.9886    0.8281   -2.4987 H   0  0  0  0  0  0  0  0  0  0  0  0
   -2.2975    0.3410   -2.0038 H   0  0  0  0  0  0  0  0  0  0  0  0
   -5.0932    1.8893    0.8688 H   0  0  0  0  0  0  0  0  0  0  0  0
   -5.6501    1.6585   -0.8183 H   0  0  0  0  0  0  0  0  0  0  0  0
  1  2  1  0
  2  3  2  0
  4  2  1  1
  4  5  1  0
  5  6  1  0
  6  7  1  0
  7  8  1  0
  8  9  1  0
  8 10  1  0
 10 11  1  0
 11 12  1  0
 12 13  2  0
 12 14  1  0
 14 15  1  0
 15 16  1  0
 16 17  1  0
 17 18  1  0
 18 19  1  0
 19 20  2  0
 20 21  1  0
 21 22  2  0
 22 23  1  0
 23 24  1  0
 23 25  1  0
 23 26  1  0
 22 27  1  0
 27 28  2  0
 17 29  1  0
 10 30  1  0
 30 31  1  0
 30 32  1  0
  9  4  1  0
 29 14  1  0
 32  4  1  0
 31  6  1  0
 28 19  1  0
  1 33  1  0
  1 34  1  0
  5 35  1  0
  5 36  1  0
  6 37  1  0
  7 38  1  0
  7 39  1  0
  8 40  1  0
  9 41  1  0
  9 42  1  0
 10 43  1  1
 15 44  1  0
 15 45  1  0
 16 46  1  0
 16 47  1  0
 17 48  1  1
 18 49  1  0
 20 50  1  0
 21 51  1  0
 27 52  1  0
 29 53  1  0
 29 54  1  0
 30 55  1  0
 31 56  1  0
 31 57  1  0
 32 58  1  0
 32 59  1  0
M  END
$$$$
