
     RDKit          3D

 31 33  0  0  0  0  0  0  0  0999 V2000
    5.7874    0.8651    0.8328 C   0  0  0  0  0  0  0  0  0  0  0  0
    4.5461    0.5307    0.0854 C   0  0  0  0  0  0  0  0  0  0  0  0
    4.5808    0.5021   -1.3079 C   0  0  0  0  0  0  0  0  0  0  0  0
    3.4648    0.1778   -2.0262 C   0  0  0  0  0  0  0  0  0  0  0  0
    2.3028   -0.1207   -1.3660 C   0  0  0  0  0  0  0  0  0  0  0  0
    1.0963   -0.4823   -1.7898 N   0  0  0  0  0  0  0  0  0  0  0  0
    0.2591   -0.6935   -0.7808 C   0  0  0  0  0  0  0  0  0  0  0  0
   -1.4264   -1.2197   -1.0218 S   0  0  0  0  0  0  0  0  0  0  0  0
   -2.3663   -1.3771    0.4887 C   0  0  0  0  0  0  0  0  0  0  0  0
   -3.6852   -0.7355    0.2851 C   0  0  0  0  0  0  0  0  0  0  0  0
   -3.8481    0.5993    0.5261 C   0  0  0  0  0  0  0  0  0  0  0  0
   -5.0826    1.2037    0.3447 C   0  0  0  0  0  0  0  0  0  0  0  0
   -6.1376    0.4511   -0.0784 C   0  0  0  0  0  0  0  0  0  0  0  0
   -5.9738   -0.9069   -0.3242 C   0  0  0  0  0  0  0  0  0  0  0  0
   -4.7611   -1.4454   -0.1342 N   0  0  0  0  0  0  0  0  0  0  0  0
    0.9490   -0.4584    0.3414 N   0  0  0  0  0  0  0  0  0  0  0  0
    2.2097   -0.1064    0.0202 C   0  0  0  0  0  0  0  0  0  0  0  0
    3.3551    0.2252    0.7159 C   0  0  0  0  0  0  0  0  0  0  0  0
    5.8119    1.9620    0.9530 H   0  0  0  0  0  0  0  0  0  0  0  0
    5.8749    0.2883    1.7638 H   0  0  0  0  0  0  0  0  0  0  0  0
    6.6546    0.5770    0.1639 H   0  0  0  0  0  0  0  0  0  0  0  0
    5.5437    0.7492   -1.7713 H   0  0  0  0  0  0  0  0  0  0  0  0
    3.5009    0.1617   -3.0910 H   0  0  0  0  0  0  0  0  0  0  0  0
   -2.5175   -2.4658    0.7009 H   0  0  0  0  0  0  0  0  0  0  0  0
   -1.8505   -0.9389    1.3824 H   0  0  0  0  0  0  0  0  0  0  0  0
   -3.0176    1.2123    0.8631 H   0  0  0  0  0  0  0  0  0  0  0  0
   -5.2106    2.2466    0.5314 H   0  0  0  0  0  0  0  0  0  0  0  0
   -7.0928    0.9418   -0.2146 H   0  0  0  0  0  0  0  0  0  0  0  0
   -6.8421   -1.4497   -0.6546 H   0  0  0  0  0  0  0  0  0  0  0  0
    0.5659   -0.5368    1.2993 H   0  0  0  0  0  0  0  0  0  0  0  0
    3.3091    0.2433    1.8148 H   0  0  0  0  0  0  0  0  0  0  0  0
  1  2  1  0
  2  3  2  0
  3  4  1  0
  4  5  2  0
  5  6  1  0
  6  7  2  0
  7  8  1  0
  8  9  1  0
  9 10  1  0
 10 11  2  0
 11 12  1  0
 12 13  2  0
 13 14  1  0
 14 15  2  0
  7 16  1  0
 16 17  1  0
 17 18  2  0
 18  2  1  0
 17  5  1  0
 15 10  1  0
  1 19  1  0
  1 20  1  0
  1 21  1  0
  3 22  1  0
  4 23  1  0
  9 24  1  0
  9 25  1  0
 11 26  1  0
 12 27  1  0
 13 28  1  0
 14 29  1  0
 16 30  1  0
 18 31  1  0
M  END
$$$$
