
     RDKit          3D

 70 74  0  0  0  0  0  0  0  0999 V2000
    0.5633   -0.0113    0.4911 C   0  0  0  0  0  0  0  0  0  0  0  0
    0.5143    1.2787    1.2303 C   0  0  0  0  0  0  0  0  0  0  0  0
   -0.8269    1.8611    1.4948 C   0  0  0  0  0  0  0  0  0  0  0  0
   -1.6249    2.3435    0.3678 C   0  0  0  0  0  0  0  0  0  0  0  0
   -2.0098    1.5160   -0.7720 C   0  0  0  0  0  0  0  0  0  0  0  0
   -2.7493    0.3278   -0.6703 N   0  0  0  0  0  0  0  0  0  0  0  0
   -3.9307   -0.2763   -0.1910 C   0  0  0  0  0  0  0  0  0  0  0  0
   -4.9836   -0.1007   -1.1048 C   0  0  0  0  0  0  0  0  0  0  0  0
   -5.1038    0.5367   -2.4414 C   0  0  0  0  0  0  0  0  0  0  0  0
   -6.1838    1.6146   -2.2598 C   0  0  0  0  0  0  0  0  0  0  0  0
   -7.5520    0.9856   -2.1990 C   0  0  0  0  0  0  0  0  0  0  0  0
   -7.3985   -0.4478   -1.7332 C   0  0  0  0  0  0  0  0  0  0  0  0
   -6.2474   -0.6095   -0.8062 C   0  0  0  0  0  0  0  0  0  0  0  0
   -6.4546   -1.2749    0.3677 N   0  0  0  0  0  0  0  0  0  0  0  0
   -5.4705   -1.4626    1.2603 C   0  0  0  0  0  0  0  0  0  0  0  0
   -5.6029   -2.1443    2.4506 C   0  0  0  0  0  0  0  0  0  0  0  0
   -4.5314   -2.3255    3.3209 C   0  0  0  0  0  0  0  0  0  0  0  0
   -3.2959   -1.8111    2.9895 C   0  0  0  0  0  0  0  0  0  0  0  0
   -3.1699   -1.1315    1.8013 C   0  0  0  0  0  0  0  0  0  0  0  0
   -4.2341   -0.9591    0.9568 C   0  0  0  0  0  0  0  0  0  0  0  0
    1.9955   -0.5045    0.2471 C   0  0  0  0  0  0  0  0  0  0  0  0
    2.6906   -0.7165    1.5574 C   0  0  0  0  0  0  0  0  0  0  0  0
    4.1148   -1.2307    1.2933 C   0  0  0  0  0  0  0  0  0  0  0  0
    4.8201   -0.2495    0.5248 N   0  0  0  0  0  0  0  0  0  0  0  0
    6.1647   -0.5708    0.1716 C   0  0  0  0  0  0  0  0  0  0  0  0
    6.7663   -1.7608    0.5444 C   0  0  0  0  0  0  0  0  0  0  0  0
    8.0510   -2.1297    0.2384 C   0  0  0  0  0  0  0  0  0  0  0  0
    8.8027   -1.2759   -0.4834 N   0  0  0  0  0  0  0  0  0  0  0  0
    8.2945   -0.1048   -0.8825 C   0  0  0  0  0  0  0  0  0  0  0  0
    9.1126    0.7255   -1.6179 C   0  0  0  0  0  0  0  0  0  0  0  0
    8.6283    1.9421   -2.0493 C   0  0  0  0  0  0  0  0  0  0  0  0
    7.3165    2.3118   -1.7333 C   0  0  0  0  0  0  0  0  0  0  0  0
    6.5582    1.4458   -1.0028 C   0  0  0  0  0  0  0  0  0  0  0  0
    7.0095    0.2251   -0.5566 C   0  0  0  0  0  0  0  0  0  0  0  0
   -0.0334   -0.1380   -0.3926 H   0  0  0  0  0  0  0  0  0  0  0  0
    0.1467   -0.7986    1.2134 H   0  0  0  0  0  0  0  0  0  0  0  0
    1.1360    2.0187    0.6193 H   0  0  0  0  0  0  0  0  0  0  0  0
    1.1001    1.1799    2.1981 H   0  0  0  0  0  0  0  0  0  0  0  0
   -0.6653    2.7703    2.2281 H   0  0  0  0  0  0  0  0  0  0  0  0
   -1.4354    1.1912    2.1754 H   0  0  0  0  0  0  0  0  0  0  0  0
   -1.0672    3.2503   -0.1233 H   0  0  0  0  0  0  0  0  0  0  0  0
   -2.5675    2.8926    0.7575 H   0  0  0  0  0  0  0  0  0  0  0  0
   -1.1269    1.3533   -1.4598 H   0  0  0  0  0  0  0  0  0  0  0  0
   -2.6105    2.2357   -1.5218 H   0  0  0  0  0  0  0  0  0  0  0  0
   -2.3546   -0.5679   -1.0924 H   0  0  0  0  0  0  0  0  0  0  0  0
   -5.4489   -0.1970   -3.2099 H   0  0  0  0  0  0  0  0  0  0  0  0
   -4.2008    1.0713   -2.7777 H   0  0  0  0  0  0  0  0  0  0  0  0
   -5.9820    2.0761   -1.2726 H   0  0  0  0  0  0  0  0  0  0  0  0
   -6.1000    2.3907   -3.0440 H   0  0  0  0  0  0  0  0  0  0  0  0
   -8.0682    1.0427   -3.1827 H   0  0  0  0  0  0  0  0  0  0  0  0
   -8.1403    1.5240   -1.4389 H   0  0  0  0  0  0  0  0  0  0  0  0
   -7.1959   -1.0640   -2.6320 H   0  0  0  0  0  0  0  0  0  0  0  0
   -8.3213   -0.8424   -1.2800 H   0  0  0  0  0  0  0  0  0  0  0  0
   -6.5800   -2.5382    2.6877 H   0  0  0  0  0  0  0  0  0  0  0  0
   -4.7703   -2.8853    4.2343 H   0  0  0  0  0  0  0  0  0  0  0  0
   -2.4921   -1.9722    3.6861 H   0  0  0  0  0  0  0  0  0  0  0  0
   -2.2067   -0.7746    1.5567 H   0  0  0  0  0  0  0  0  0  0  0  0
    1.8807   -1.4757   -0.2803 H   0  0  0  0  0  0  0  0  0  0  0  0
    2.4776    0.2563   -0.3816 H   0  0  0  0  0  0  0  0  0  0  0  0
    2.8528    0.2659    2.0882 H   0  0  0  0  0  0  0  0  0  0  0  0
    2.1233   -1.4231    2.1958 H   0  0  0  0  0  0  0  0  0  0  0  0
    4.1075   -2.2122    0.7894 H   0  0  0  0  0  0  0  0  0  0  0  0
    4.5695   -1.3244    2.3190 H   0  0  0  0  0  0  0  0  0  0  0  0
    4.3571    0.6301    0.2590 H   0  0  0  0  0  0  0  0  0  0  0  0
    6.2007   -2.4981    1.1356 H   0  0  0  0  0  0  0  0  0  0  0  0
    8.4847   -3.0581    0.5429 H   0  0  0  0  0  0  0  0  0  0  0  0
   10.1299    0.4973   -1.8926 H   0  0  0  0  0  0  0  0  0  0  0  0
    9.2439    2.6197   -2.6294 H   0  0  0  0  0  0  0  0  0  0  0  0
    6.9551    3.2713   -2.0815 H   0  0  0  0  0  0  0  0  0  0  0  0
    5.5692    1.7899   -0.7977 H   0  0  0  0  0  0  0  0  0  0  0  0
  1  2  1  0
  2  3  1  0
  3  4  1  0
  4  5  1  0
  5  6  1  0
  6  7  1  0
  7  8  2  0
  8  9  1  0
  9 10  1  0
 10 11  1  0
 11 12  1  0
 12 13  1  0
 13 14  2  0
 14 15  1  0
 15 16  2  0
 16 17  1  0
 17 18  2  0
 18 19  1  0
 19 20  2  0
  1 21  1  0
 21 22  1  0
 22 23  1  0
 23 24  1  0
 24 25  1  0
 25 26  2  0
 26 27  1  0
 27 28  2  0
 28 29  1  0
 29 30  2  0
 30 31  1  0
 31 32  2  0
 32 33  1  0
 33 34  2  0
 20  7  1  0
 34 25  1  0
 13  8  1  0
 20 15  1  0
 34 29  1  0
  1 35  1  0
  1 36  1  0
  2 37  1  0
  2 38  1  0
  3 39  1  0
  3 40  1  0
  4 41  1  0
  4 42  1  0
  5 43  1  0
  5 44  1  0
  6 45  1  0
  9 46  1  0
  9 47  1  0
 10 48  1  0
 10 49  1  0
 11 50  1  0
 11 51  1  0
 12 52  1  0
 12 53  1  0
 16 54  1  0
 17 55  1  0
 18 56  1  0
 19 57  1  0
 21 58  1  0
 21 59  1  0
 22 60  1  0
 22 61  1  0
 23 62  1  0
 23 63  1  0
 24 64  1  0
 26 65  1  0
 27 66  1  0
 30 67  1  0
 31 68  1  0
 32 69  1  0
 33 70  1  0
M  END
$$$$
