
     RDKit          3D

 55 57  0  0  0  0  0  0  0  0999 V2000
    1.2607   -3.8655   -0.9101 C   0  0  0  0  0  0  0  0  0  0  0  0
    1.1041   -2.4988   -1.5285 C   0  0  0  0  0  0  0  0  0  0  0  0
    1.7822   -2.6230   -2.9155 C   0  0  0  0  0  0  0  0  0  0  0  0
    1.7785   -1.4151   -0.8555 C   0  0  0  0  0  0  0  0  0  0  0  0
    3.1806   -1.3370   -0.8891 C   0  0  0  0  0  0  0  0  0  0  0  0
    3.8547   -0.3685   -0.3099 N   0  0  0  0  0  0  0  0  0  0  0  0
    3.2450    0.6385    0.3706 C   0  0  0  0  0  0  0  0  0  0  0  0
    4.0685    1.6632    0.9762 C   0  0  0  0  0  0  0  0  0  0  0  0
    5.4606    1.5728    0.8323 C   0  0  0  0  0  0  0  0  0  0  0  0
    6.3268    2.4920    1.3677 C   0  0  0  0  0  0  0  0  0  0  0  0
    8.0669    2.3502    1.1691 Cl  0  0  0  0  0  0  0  0  0  0  0  0
    5.8636    3.5698    2.0870 C   0  0  0  0  0  0  0  0  0  0  0  0
    4.5041    3.6803    2.2417 C   0  0  0  0  0  0  0  0  0  0  0  0
    3.6223    2.7375    1.6921 C   0  0  0  0  0  0  0  0  0  0  0  0
    2.2918    2.9235    1.8936 F   0  0  0  0  0  0  0  0  0  0  0  0
    1.8911    0.5848    0.4174 C   0  0  0  0  0  0  0  0  0  0  0  0
    1.1289   -0.4401   -0.1923 C   0  0  0  0  0  0  0  0  0  0  0  0
   -0.2673   -0.3627   -0.1260 N   0  0  0  0  0  0  0  0  0  0  0  0
   -1.1421   -1.2313    0.5491 C   0  0  0  0  0  0  0  0  0  0  0  0
   -0.5488   -2.2272    1.3253 C   0  0  0  0  0  0  0  0  0  0  0  0
   -1.3511   -3.0994    2.0021 C   0  0  0  0  0  0  0  0  0  0  0  0
   -2.6921   -3.0023    1.9236 N   0  0  0  0  0  0  0  0  0  0  0  0
   -3.2754   -2.0508    1.1816 C   0  0  0  0  0  0  0  0  0  0  0  0
   -2.4883   -1.1443    0.4777 C   0  0  0  0  0  0  0  0  0  0  0  0
   -3.2020   -0.1369   -0.3472 C   0  0  0  0  0  0  0  0  0  0  0  0
   -2.6178    0.6586   -1.0911 O   0  0  0  0  0  0  0  0  0  0  0  0
   -4.6104   -0.0035   -0.3492 N   0  0  0  0  0  0  0  0  0  0  0  0
   -5.3001    0.9840   -1.1582 C   0  0  0  0  0  0  0  0  0  0  0  0
   -4.9180    2.3993   -0.8416 C   0  0  2  0  0  0  0  0  0  0  0  0
   -5.3433    2.6833    0.5801 C   0  0  0  0  0  0  0  0  0  0  0  0
   -5.6281    3.2778   -1.6613 O   0  0  0  0  0  0  0  0  0  0  0  0
    0.2755   -4.2404   -0.5643 H   0  0  0  0  0  0  0  0  0  0  0  0
    1.5865   -4.5759   -1.6886 H   0  0  0  0  0  0  0  0  0  0  0  0
    2.0282   -3.8944   -0.1168 H   0  0  0  0  0  0  0  0  0  0  0  0
    0.0509   -2.2941   -1.8213 H   0  0  0  0  0  0  0  0  0  0  0  0
    1.1011   -3.2247   -3.5835 H   0  0  0  0  0  0  0  0  0  0  0  0
    2.7296   -3.1535   -2.8517 H   0  0  0  0  0  0  0  0  0  0  0  0
    1.8162   -1.6197   -3.3388 H   0  0  0  0  0  0  0  0  0  0  0  0
    3.7277   -2.1075   -1.4144 H   0  0  0  0  0  0  0  0  0  0  0  0
    5.8542    0.7358    0.2716 H   0  0  0  0  0  0  0  0  0  0  0  0
    6.5435    4.2795    2.4997 H   0  0  0  0  0  0  0  0  0  0  0  0
    4.1068    4.5181    2.8032 H   0  0  0  0  0  0  0  0  0  0  0  0
    1.3298    1.3448    0.9371 H   0  0  0  0  0  0  0  0  0  0  0  0
   -0.6963    0.4309   -0.6192 H   0  0  0  0  0  0  0  0  0  0  0  0
    0.5469   -2.2902    1.3835 H   0  0  0  0  0  0  0  0  0  0  0  0
   -0.8924   -3.8819    2.6117 H   0  0  0  0  0  0  0  0  0  0  0  0
   -4.3569   -2.0208    1.1525 H   0  0  0  0  0  0  0  0  0  0  0  0
   -5.1827   -0.6223    0.2446 H   0  0  0  0  0  0  0  0  0  0  0  0
   -6.3949    0.8598   -1.0780 H   0  0  0  0  0  0  0  0  0  0  0  0
   -5.0383    0.7852   -2.2180 H   0  0  0  0  0  0  0  0  0  0  0  0
   -3.8565    2.6219   -1.0206 H   0  0  0  0  0  0  0  0  0  0  0  0
   -6.0603    3.5220    0.6096 H   0  0  0  0  0  0  0  0  0  0  0  0
   -5.7187    1.7793    1.0989 H   0  0  0  0  0  0  0  0  0  0  0  0
   -4.4687    3.0268    1.2038 H   0  0  0  0  0  0  0  0  0  0  0  0
   -5.0770    3.6119   -2.4124 H   0  0  0  0  0  0  0  0  0  0  0  0
  1  2  1  0
  2  3  1  0
  2  4  1  0
  4  5  2  0
  5  6  1  0
  6  7  2  0
  7  8  1  0
  8  9  2  0
  9 10  1  0
 10 11  1  0
 10 12  2  0
 12 13  1  0
 13 14  2  0
 14 15  1  0
  7 16  1  0
 16 17  2  0
 17 18  1  0
 18 19  1  0
 19 20  2  0
 20 21  1  0
 21 22  2  0
 22 23  1  0
 23 24  2  0
 24 25  1  0
 25 26  2  0
 25 27  1  0
 27 28  1  0
 28 29  1  0
 29 30  1  0
 29 31  1  0
 17  4  1  0
 24 19  1  0
 14  8  1  0
  1 32  1  0
  1 33  1  0
  1 34  1  0
  2 35  1  0
  3 36  1  0
  3 37  1  0
  3 38  1  0
  5 39  1  0
  9 40  1  0
 12 41  1  0
 13 42  1  0
 16 43  1  0
 18 44  1  0
 20 45  1  0
 21 46  1  0
 23 47  1  0
 27 48  1  0
 28 49  1  0
 28 50  1  0
 29 51  1  1
 30 52  1  0
 30 53  1  0
 30 54  1  0
 31 55  1  0
M  END
$$$$
