
     RDKit          3D

 51 53  0  0  0  0  0  0  0  0999 V2000
    6.8217    1.3281    0.7286 O   0  0  0  0  0  0  0  0  0  0  0  0
    7.4425    0.2698    0.5459 C   0  0  0  0  0  0  0  0  0  0  0  0
    6.8942   -1.0320    0.9232 C   0  0  0  0  0  0  0  0  0  0  0  0
    5.5090   -0.9838    1.5047 C   0  0  0  0  0  0  0  0  0  0  0  0
    4.4751   -0.4234    0.5712 C   0  0  0  0  0  0  0  0  0  0  0  0
    3.1008   -0.4058    1.2188 C   0  0  0  0  0  0  0  0  0  0  0  0
    2.1165    0.1560    0.2573 C   0  0  0  0  0  0  0  0  0  0  0  0
    1.7559    1.4930    0.1040 C   0  0  0  0  0  0  0  0  0  0  0  0
    0.8154    1.5275   -0.9029 C   0  0  0  0  0  0  0  0  0  0  0  0
    0.6124    0.2847   -1.3404 N   0  0  0  0  0  0  0  0  0  0  0  0
   -0.2966   -0.1728   -2.4001 C   0  0  0  0  0  0  0  0  0  0  0  0
   -1.6324   -0.5018   -1.8426 C   0  0  0  0  0  0  0  0  0  0  0  0
   -1.9738   -1.7424   -1.3851 C   0  0  0  0  0  0  0  0  0  0  0  0
   -3.2322   -1.9817   -0.8788 C   0  0  0  0  0  0  0  0  0  0  0  0
   -4.2205   -0.9895   -0.8024 C   0  0  0  0  0  0  0  0  0  0  0  0
   -5.5055   -1.2929   -0.2936 N   0  0  0  0  0  0  0  0  0  0  0  0
   -6.3135   -0.3119    0.3238 C   0  0  0  0  0  0  0  0  0  0  0  0
   -5.7709    0.7752    0.9692 C   0  0  0  0  0  0  0  0  0  0  0  0
   -6.5867    1.7401    1.5567 C   0  0  0  0  0  0  0  0  0  0  0  0
   -7.9619    1.6437    1.5153 C   0  0  0  0  0  0  0  0  0  0  0  0
   -8.5177    0.5663    0.8768 C   0  0  0  0  0  0  0  0  0  0  0  0
   -7.6955   -0.3750    0.3029 C   0  0  0  0  0  0  0  0  0  0  0  0
   -3.8474    0.2535   -1.2723 C   0  0  0  0  0  0  0  0  0  0  0  0
   -2.5729    0.4981   -1.7854 C   0  0  0  0  0  0  0  0  0  0  0  0
    1.3904   -0.5066   -0.6415 N   0  0  0  0  0  0  0  0  0  0  0  0
    8.7342    0.3524   -0.0549 N   0  0  0  0  0  0  0  0  0  0  0  0
    9.2240    1.5581   -0.3962 O   0  0  0  0  0  0  0  0  0  0  0  0
    7.5543   -1.4573    1.7190 H   0  0  0  0  0  0  0  0  0  0  0  0
    6.9288   -1.7811    0.0991 H   0  0  0  0  0  0  0  0  0  0  0  0
    5.1603   -1.9970    1.8297 H   0  0  0  0  0  0  0  0  0  0  0  0
    5.5168   -0.3204    2.4079 H   0  0  0  0  0  0  0  0  0  0  0  0
    4.7046    0.5855    0.2367 H   0  0  0  0  0  0  0  0  0  0  0  0
    4.4597   -1.0790   -0.3287 H   0  0  0  0  0  0  0  0  0  0  0  0
    2.8479   -1.4733    1.4437 H   0  0  0  0  0  0  0  0  0  0  0  0
    3.0874    0.1930    2.1418 H   0  0  0  0  0  0  0  0  0  0  0  0
    2.1647    2.3033    0.6870 H   0  0  0  0  0  0  0  0  0  0  0  0
    0.3378    2.4265   -1.2593 H   0  0  0  0  0  0  0  0  0  0  0  0
   -0.4190    0.6315   -3.1529 H   0  0  0  0  0  0  0  0  0  0  0  0
    0.1268   -1.0420   -2.9455 H   0  0  0  0  0  0  0  0  0  0  0  0
   -1.2202   -2.5241   -1.4365 H   0  0  0  0  0  0  0  0  0  0  0  0
   -3.4970   -2.9724   -0.5162 H   0  0  0  0  0  0  0  0  0  0  0  0
   -5.8831   -2.2612   -0.3672 H   0  0  0  0  0  0  0  0  0  0  0  0
   -4.7107    0.9005    1.0482 H   0  0  0  0  0  0  0  0  0  0  0  0
   -6.1119    2.5753    2.0513 H   0  0  0  0  0  0  0  0  0  0  0  0
   -8.5428    2.4308    1.9936 H   0  0  0  0  0  0  0  0  0  0  0  0
   -9.5906    0.4762    0.8358 H   0  0  0  0  0  0  0  0  0  0  0  0
   -8.1321   -1.2365   -0.2078 H   0  0  0  0  0  0  0  0  0  0  0  0
   -4.5578    1.0682   -1.2613 H   0  0  0  0  0  0  0  0  0  0  0  0
   -2.3271    1.5006   -2.1445 H   0  0  0  0  0  0  0  0  0  0  0  0
    9.3252   -0.4836   -0.2455 H   0  0  0  0  0  0  0  0  0  0  0  0
   10.0135    1.8095    0.1524 H   0  0  0  0  0  0  0  0  0  0  0  0
  1  2  2  0
  2  3  1  0
  3  4  1  0
  4  5  1  0
  5  6  1  0
  6  7  1  0
  7  8  1  0
  8  9  2  0
  9 10  1  0
 10 11  1  0
 11 12  1  0
 12 13  2  0
 13 14  1  0
 14 15  2  0
 15 16  1  0
 16 17  1  0
 17 18  2  0
 18 19  1  0
 19 20  2  0
 20 21  1  0
 21 22  2  0
 15 23  1  0
 23 24  2  0
 10 25  1  0
  2 26  1  0
 26 27  1  0
 25  7  2  0
 24 12  1  0
 22 17  1  0
  3 28  1  0
  3 29  1  0
  4 30  1  0
  4 31  1  0
  5 32  1  0
  5 33  1  0
  6 34  1  0
  6 35  1  0
  8 36  1  0
  9 37  1  0
 11 38  1  0
 11 39  1  0
 13 40  1  0
 14 41  1  0
 16 42  1  0
 18 43  1  0
 19 44  1  0
 20 45  1  0
 21 46  1  0
 22 47  1  0
 23 48  1  0
 24 49  1  0
 26 50  1  0
 27 51  1  0
M  END
$$$$
