
     RDKit          3D

 52 57  0  0  0  0  0  0  0  0999 V2000
    3.2964    3.2255   -1.1820 C   0  0  0  0  0  0  0  0  0  0  0  0
    3.1487    1.8286   -0.6383 C   0  0  0  0  0  0  0  0  0  0  0  0
    1.9237    1.3736   -0.1982 C   0  0  0  0  0  0  0  0  0  0  0  0
    1.7359    0.1020    0.3083 C   0  0  0  0  0  0  0  0  0  0  0  0
    0.4530   -0.3663    0.7514 N   0  0  0  0  0  0  0  0  0  0  0  0
    0.2432   -1.6208    1.3533 C   0  0  0  0  0  0  0  0  0  0  0  0
    1.0731   -2.5586    1.6411 O   0  0  0  0  0  0  0  0  0  0  0  0
   -1.1868   -1.7435    1.6444 C   0  0  0  0  0  0  0  0  0  0  0  0
   -1.8098   -0.6014    1.2292 C   0  0  0  0  0  0  0  0  0  0  0  0
   -3.1751   -0.7391    1.5216 C   0  0  0  0  0  0  0  0  0  0  0  0
   -4.2797    0.1892    1.2517 C   0  0  0  0  0  0  0  0  0  0  0  0
   -5.4290   -0.4509    0.4576 C   0  0  0  0  0  0  0  0  0  0  0  0
   -4.6191    0.5785   -0.1916 C   0  0  0  0  0  0  0  0  0  0  0  0
   -3.2957   -1.9662    2.1020 N   0  0  0  0  0  0  0  0  0  0  0  0
   -2.1312   -2.5614    2.1766 N   0  0  0  0  0  0  0  0  0  0  0  0
   -1.8536   -3.8838    2.7326 C   0  0  0  0  0  0  0  0  0  0  0  0
   -0.8009    0.2910    0.6754 C   0  0  0  0  0  0  0  0  0  0  0  0
   -1.1149    0.8924   -0.6284 C   0  0  0  0  0  0  0  0  0  0  0  0
   -0.8699    0.2321   -1.8174 C   0  0  0  0  0  0  0  0  0  0  0  0
   -1.1902    0.8403   -3.0266 C   0  0  0  0  0  0  0  0  0  0  0  0
   -1.7511    2.0954   -3.0835 C   0  0  0  0  0  0  0  0  0  0  0  0
   -2.1497    2.8499   -4.6121 Cl  0  0  0  0  0  0  0  0  0  0  0  0
   -2.0022    2.7678   -1.9097 C   0  0  0  0  0  0  0  0  0  0  0  0
   -1.6777    2.1481   -0.7251 C   0  0  0  0  0  0  0  0  0  0  0  0
    2.8522   -0.6928    0.3494 C   0  0  0  0  0  0  0  0  0  0  0  0
    4.0823   -0.2663   -0.0813 N   0  0  0  0  0  0  0  0  0  0  0  0
    5.2997   -0.8629   -0.1352 C   0  0  0  0  0  0  0  0  0  0  0  0
    5.5758   -2.2448    0.3082 C   0  0  0  0  0  0  0  0  0  0  0  0
    6.1523    0.0437   -0.6570 N   0  0  0  0  0  0  0  0  0  0  0  0
    5.5052    1.1638   -0.9219 N   0  0  0  0  0  0  0  0  0  0  0  0
    4.2215    0.9730   -0.5653 C   0  0  0  0  0  0  0  0  0  0  0  0
    2.3379    3.5374   -1.6881 H   0  0  0  0  0  0  0  0  0  0  0  0
    3.5965    3.9366   -0.4062 H   0  0  0  0  0  0  0  0  0  0  0  0
    4.0604    3.2337   -1.9873 H   0  0  0  0  0  0  0  0  0  0  0  0
    1.0937    2.0377   -0.2487 H   0  0  0  0  0  0  0  0  0  0  0  0
   -4.6139    0.8895    2.0447 H   0  0  0  0  0  0  0  0  0  0  0  0
   -5.3173   -1.4824    0.1069 H   0  0  0  0  0  0  0  0  0  0  0  0
   -6.4585   -0.1881    0.7721 H   0  0  0  0  0  0  0  0  0  0  0  0
   -3.8697    0.3186   -0.9403 H   0  0  0  0  0  0  0  0  0  0  0  0
   -4.9933    1.6372   -0.3035 H   0  0  0  0  0  0  0  0  0  0  0  0
   -1.8421   -4.6633    1.9450 H   0  0  0  0  0  0  0  0  0  0  0  0
   -0.9051   -3.8581    3.3102 H   0  0  0  0  0  0  0  0  0  0  0  0
   -2.6649   -4.1106    3.4692 H   0  0  0  0  0  0  0  0  0  0  0  0
   -0.7103    1.1707    1.4002 H   0  0  0  0  0  0  0  0  0  0  0  0
   -0.4351   -0.7431   -1.8004 H   0  0  0  0  0  0  0  0  0  0  0  0
   -1.0046    0.3354   -3.9775 H   0  0  0  0  0  0  0  0  0  0  0  0
   -2.4522    3.7780   -1.9208 H   0  0  0  0  0  0  0  0  0  0  0  0
   -1.8680    2.6630    0.2216 H   0  0  0  0  0  0  0  0  0  0  0  0
    2.8529   -1.7022    0.7150 H   0  0  0  0  0  0  0  0  0  0  0  0
    5.5654   -2.3275    1.4105 H   0  0  0  0  0  0  0  0  0  0  0  0
    4.8385   -2.9569   -0.1199 H   0  0  0  0  0  0  0  0  0  0  0  0
    6.5635   -2.5418   -0.1317 H   0  0  0  0  0  0  0  0  0  0  0  0
  1  2  1  0
  2  3  2  0
  3  4  1  0
  4  5  1  0
  5  6  1  0
  6  7  2  0
  6  8  1  0
  8  9  2  0
  9 10  1  0
 10 11  1  0
 11 12  1  0
 12 13  1  0
 10 14  2  0
 14 15  1  0
 15 16  1  0
  9 17  1  0
 17 18  1  0
 18 19  2  0
 19 20  1  0
 20 21  2  0
 21 22  1  0
 21 23  1  0
 23 24  2  0
  4 25  2  0
 25 26  1  0
 26 27  1  0
 27 28  1  0
 27 29  2  0
 29 30  1  0
 30 31  2  0
 31  2  1  0
 17  5  1  0
 24 18  1  0
 31 26  1  0
 15  8  1  0
 13 11  1  0
  1 32  1  0
  1 33  1  0
  1 34  1  0
  3 35  1  0
 11 36  1  0
 12 37  1  0
 12 38  1  0
 13 39  1  0
 13 40  1  0
 16 41  1  0
 16 42  1  0
 16 43  1  0
 17 44  1  0
 19 45  1  0
 20 46  1  0
 23 47  1  0
 24 48  1  0
 25 49  1  0
 28 50  1  0
 28 51  1  0
 28 52  1  0
M  END
$$$$
