
     RDKit          3D

 40 44  0  0  0  0  0  0  0  0999 V2000
    5.7738    3.1542   -0.5394 N   0  0  0  0  0  0  0  0  0  0  0  0
    4.8785    2.0728   -0.4648 C   0  0  0  0  0  0  0  0  0  0  0  0
    5.2269    0.8388    0.0517 C   0  0  0  0  0  0  0  0  0  0  0  0
    4.3215   -0.2026    0.1101 C   0  0  0  0  0  0  0  0  0  0  0  0
    3.0213   -0.0395   -0.3529 C   0  0  0  0  0  0  0  0  0  0  0  0
    2.0264   -1.1037   -0.3141 C   0  0  0  0  0  0  0  0  0  0  0  0
    2.4361   -2.4105   -0.4506 C   0  0  0  0  0  0  0  0  0  0  0  0
    1.5834   -3.4493   -0.4254 N   0  0  0  0  0  0  0  0  0  0  0  0
    0.2699   -3.2325   -0.2615 C   0  0  0  0  0  0  0  0  0  0  0  0
   -0.8174   -4.0436   -0.1925 N   0  0  0  0  0  0  0  0  0  0  0  0
   -1.9255   -3.3307   -0.0169 C   0  0  0  0  0  0  0  0  0  0  0  0
   -1.5276   -2.0096    0.0278 C   0  0  0  0  0  0  0  0  0  0  0  0
   -2.4510   -0.9013    0.2040 C   0  0  0  0  0  0  0  0  0  0  0  0
   -3.4081   -1.0119    1.2104 C   0  0  0  0  0  0  0  0  0  0  0  0
   -4.2938    0.0101    1.4010 C   0  0  0  0  0  0  0  0  0  0  0  0
   -4.2404    1.1494    0.5985 C   0  0  0  0  0  0  0  0  0  0  0  0
   -4.9761    2.2639    0.5816 N   0  0  0  0  0  0  0  0  0  0  0  0
   -4.5633    3.1125   -0.3801 C   0  0  0  0  0  0  0  0  0  0  0  0
   -3.4998    2.4987   -1.0130 C   0  0  0  0  0  0  0  0  0  0  0  0
   -3.3051    1.2750   -0.3966 C   0  0  0  0  0  0  0  0  0  0  0  0
   -2.4193    0.2334   -0.5744 C   0  0  0  0  0  0  0  0  0  0  0  0
   -0.1721   -1.9386   -0.1224 C   0  0  0  0  0  0  0  0  0  0  0  0
    0.6852   -0.8424   -0.1440 C   0  0  0  0  0  0  0  0  0  0  0  0
    2.7102    1.2061   -0.8615 C   0  0  0  0  0  0  0  0  0  0  0  0
    3.6175    2.2123   -0.9077 N   0  0  0  0  0  0  0  0  0  0  0  0
    6.1385    3.6223    0.3299 H   0  0  0  0  0  0  0  0  0  0  0  0
    6.0855    3.5036   -1.4518 H   0  0  0  0  0  0  0  0  0  0  0  0
    6.2460    0.7083    0.4155 H   0  0  0  0  0  0  0  0  0  0  0  0
    4.5697   -1.1655    0.5057 H   0  0  0  0  0  0  0  0  0  0  0  0
    3.4858   -2.6437   -0.5856 H   0  0  0  0  0  0  0  0  0  0  0  0
   -0.7862   -5.0755   -0.2666 H   0  0  0  0  0  0  0  0  0  0  0  0
   -2.9271   -3.7445    0.0695 H   0  0  0  0  0  0  0  0  0  0  0  0
   -3.4282   -1.9196    1.8282 H   0  0  0  0  0  0  0  0  0  0  0  0
   -5.0305   -0.0971    2.1898 H   0  0  0  0  0  0  0  0  0  0  0  0
   -5.7728    2.4140    1.2601 H   0  0  0  0  0  0  0  0  0  0  0  0
   -4.9884    4.0912   -0.6106 H   0  0  0  0  0  0  0  0  0  0  0  0
   -2.9026    2.8825   -1.8484 H   0  0  0  0  0  0  0  0  0  0  0  0
   -1.6711    0.2970   -1.3499 H   0  0  0  0  0  0  0  0  0  0  0  0
    0.3136    0.1834   -0.0296 H   0  0  0  0  0  0  0  0  0  0  0  0
    1.7166    1.4323   -1.2491 H   0  0  0  0  0  0  0  0  0  0  0  0
  1  2  1  0
  2  3  2  0
  3  4  1  0
  4  5  2  0
  5  6  1  0
  6  7  2  0
  7  8  1  0
  8  9  2  0
  9 10  1  0
 10 11  1  0
 11 12  2  0
 12 13  1  0
 13 14  2  0
 14 15  1  0
 15 16  2  0
 16 17  1  0
 17 18  1  0
 18 19  2  0
 19 20  1  0
 20 21  2  0
 12 22  1  0
 22 23  2  0
  5 24  1  0
 24 25  2  0
 25  2  1  0
 23  6  1  0
 22  9  1  0
 21 13  1  0
 20 16  1  0
  1 26  1  0
  1 27  1  0
  3 28  1  0
  4 29  1  0
  7 30  1  0
 10 31  1  0
 11 32  1  0
 14 33  1  0
 15 34  1  0
 17 35  1  0
 18 36  1  0
 19 37  1  0
 21 38  1  0
 23 39  1  0
 24 40  1  0
M  END
$$$$
