
     RDKit          3D

 31 33  0  0  0  0  0  0  0  0999 V2000
   -1.9785    3.1144    2.1990 C   0  0  0  0  0  0  0  0  0  0  0  0
   -1.7235    1.9104    1.3608 C   0  0  0  0  0  0  0  0  0  0  0  0
   -0.5979    1.1650    1.4668 N   0  0  0  0  0  0  0  0  0  0  0  0
   -0.6955    0.1689    0.5740 C   0  0  0  0  0  0  0  0  0  0  0  0
   -1.9010    0.3236   -0.0757 C   0  0  0  0  0  0  0  0  0  0  0  0
   -2.5220    1.4029    0.4223 N   0  0  0  0  0  0  0  0  0  0  0  0
   -2.2381   -0.6049   -1.0669 C   0  0  0  0  0  0  0  0  0  0  0  0
   -3.3318   -0.4796   -1.6689 O   0  0  0  0  0  0  0  0  0  0  0  0
   -1.4208   -1.6186   -1.3834 N   0  0  0  0  0  0  0  0  0  0  0  0
   -1.7817   -2.5926   -2.4278 C   0  0  0  0  0  0  0  0  0  0  0  0
   -0.2578   -1.7207   -0.7173 C   0  0  0  0  0  0  0  0  0  0  0  0
    0.5080   -2.6862   -1.0270 O   0  0  0  0  0  0  0  0  0  0  0  0
    0.1108   -0.8548    0.2420 N   0  0  0  0  0  0  0  0  0  0  0  0
    1.3714   -1.0032    0.9326 C   0  0  0  0  0  0  0  0  0  0  0  0
    2.4519   -0.2724    0.2468 C   0  0  0  0  0  0  0  0  0  0  0  0
    3.2979   -0.7109   -0.7335 C   0  0  0  0  0  0  0  0  0  0  0  0
    4.1246    0.3605   -1.0334 C   0  0  0  0  0  0  0  0  0  0  0  0
    3.7319    1.3963   -0.2134 C   0  0  0  0  0  0  0  0  0  0  0  0
    2.7415    0.9889    0.5304 O   0  0  0  0  0  0  0  0  0  0  0  0
   -1.0776    3.7292    2.3275 H   0  0  0  0  0  0  0  0  0  0  0  0
   -2.2839    2.7629    3.2014 H   0  0  0  0  0  0  0  0  0  0  0  0
   -2.8371    3.6751    1.7703 H   0  0  0  0  0  0  0  0  0  0  0  0
   -3.4425    1.7518    0.1184 H   0  0  0  0  0  0  0  0  0  0  0  0
   -0.8241   -3.0310   -2.7645 H   0  0  0  0  0  0  0  0  0  0  0  0
   -2.3482   -2.1093   -3.2376 H   0  0  0  0  0  0  0  0  0  0  0  0
   -2.3507   -3.3838   -1.8945 H   0  0  0  0  0  0  0  0  0  0  0  0
    1.2310   -0.6135    1.9639 H   0  0  0  0  0  0  0  0  0  0  0  0
    1.6660   -2.0732    0.9985 H   0  0  0  0  0  0  0  0  0  0  0  0
    3.2865   -1.6976   -1.1556 H   0  0  0  0  0  0  0  0  0  0  0  0
    4.9075    0.3260   -1.7777 H   0  0  0  0  0  0  0  0  0  0  0  0
    4.1839    2.3762   -0.2045 H   0  0  0  0  0  0  0  0  0  0  0  0
  1  2  1  0
  2  3  2  0
  3  4  1  0
  4  5  2  0
  5  6  1  0
  5  7  1  0
  7  8  2  0
  7  9  1  0
  9 10  1  0
  9 11  1  0
 11 12  2  0
 11 13  1  0
 13 14  1  0
 14 15  1  0
 15 16  2  0
 16 17  1  0
 17 18  2  0
 18 19  1  0
  6  2  1  0
 19 15  1  0
 13  4  1  0
  1 20  1  0
  1 21  1  0
  1 22  1  0
  6 23  1  0
 10 24  1  0
 10 25  1  0
 10 26  1  0
 14 27  1  0
 14 28  1  0
 16 29  1  0
 17 30  1  0
 18 31  1  0
M  END
$$$$
