
     RDKit          3D

 48 51  0  0  0  0  0  0  0  0999 V2000
   -3.0413    4.8359    1.2635 C   0  0  0  0  0  0  0  0  0  0  0  0
   -1.6718    3.9692    0.4909 S   0  0  0  0  0  0  0  0  0  0  0  0
   -1.8731    2.1992    0.6834 C   0  0  0  0  0  0  0  0  0  0  0  0
   -2.9598    1.7142    1.3448 C   0  0  0  0  0  0  0  0  0  0  0  0
   -3.1100    0.3494    1.4906 C   0  0  0  0  0  0  0  0  0  0  0  0
   -2.1541   -0.4928    0.9619 C   0  0  0  0  0  0  0  0  0  0  0  0
   -1.0346   -0.0372    0.2826 C   0  0  0  0  0  0  0  0  0  0  0  0
   -0.9322    1.3348    0.1645 C   0  0  0  0  0  0  0  0  0  0  0  0
    0.1017   -0.6773   -0.3614 C   0  0  0  0  0  0  0  0  0  0  0  0
    1.2209    0.2601   -0.3314 N   0  0  0  0  0  0  0  0  0  0  0  0
    2.2936   -0.1362   -1.2255 C   0  0  0  0  0  0  0  0  0  0  0  0
    3.1463    1.1258   -1.4168 C   0  0  0  0  0  0  0  0  0  0  0  0
    3.5950    1.6175   -0.1530 N   0  0  0  0  0  0  0  0  0  0  0  0
    3.1221    2.9292    0.1873 C   0  0  0  0  0  0  0  0  0  0  0  0
    3.2744    0.7108    0.9232 C   0  0  0  0  0  0  0  0  0  0  0  0
    1.7985    0.3762    0.9892 C   0  0  0  0  0  0  0  0  0  0  0  0
    0.4776   -2.0400    0.0677 C   0  0  0  0  0  0  0  0  0  0  0  0
   -0.5360   -3.0376   -0.4021 C   0  0  0  0  0  0  0  0  0  0  0  0
   -0.0350   -3.8781   -1.3899 C   0  0  0  0  0  0  0  0  0  0  0  0
   -0.8932   -4.8335   -1.8830 C   0  0  0  0  0  0  0  0  0  0  0  0
   -2.2011   -4.9792   -1.4389 C   0  0  0  0  0  0  0  0  0  0  0  0
   -2.6843   -4.1383   -0.4588 C   0  0  0  0  0  0  0  0  0  0  0  0
   -1.8396   -3.1888    0.0347 C   0  0  0  0  0  0  0  0  0  0  0  0
   -2.6142   -2.1713    1.2958 S   0  0  0  0  0  0  0  0  0  0  0  0
   -2.8324    5.9330    1.2102 H   0  0  0  0  0  0  0  0  0  0  0  0
   -3.9957    4.6952    0.6791 H   0  0  0  0  0  0  0  0  0  0  0  0
   -3.1800    4.5911    2.3327 H   0  0  0  0  0  0  0  0  0  0  0  0
   -3.7150    2.3819    1.7624 H   0  0  0  0  0  0  0  0  0  0  0  0
   -3.9883    0.0102    2.0230 H   0  0  0  0  0  0  0  0  0  0  0  0
   -0.0981    1.7848   -0.3488 H   0  0  0  0  0  0  0  0  0  0  0  0
   -0.1583   -0.7478   -1.4627 H   0  0  0  0  0  0  0  0  0  0  0  0
    2.8948   -0.9117   -0.7161 H   0  0  0  0  0  0  0  0  0  0  0  0
    1.8934   -0.4691   -2.1844 H   0  0  0  0  0  0  0  0  0  0  0  0
    2.4800    1.9189   -1.8592 H   0  0  0  0  0  0  0  0  0  0  0  0
    3.9534    0.9567   -2.1570 H   0  0  0  0  0  0  0  0  0  0  0  0
    2.8813    3.5532   -0.6990 H   0  0  0  0  0  0  0  0  0  0  0  0
    2.2823    2.9354    0.8956 H   0  0  0  0  0  0  0  0  0  0  0  0
    3.9789    3.4435    0.7137 H   0  0  0  0  0  0  0  0  0  0  0  0
    3.9251   -0.1636    0.8762 H   0  0  0  0  0  0  0  0  0  0  0  0
    3.5178    1.2298    1.8911 H   0  0  0  0  0  0  0  0  0  0  0  0
    1.6913   -0.5185    1.5999 H   0  0  0  0  0  0  0  0  0  0  0  0
    1.2972    1.2176    1.5066 H   0  0  0  0  0  0  0  0  0  0  0  0
    0.4340   -2.1072    1.1954 H   0  0  0  0  0  0  0  0  0  0  0  0
    1.4624   -2.2958   -0.3216 H   0  0  0  0  0  0  0  0  0  0  0  0
    0.9724   -3.7865   -1.7507 H   0  0  0  0  0  0  0  0  0  0  0  0
   -0.5862   -5.5419   -2.6645 H   0  0  0  0  0  0  0  0  0  0  0  0
   -2.8754   -5.7289   -1.8254 H   0  0  0  0  0  0  0  0  0  0  0  0
   -3.6847   -4.1923   -0.0668 H   0  0  0  0  0  0  0  0  0  0  0  0
  1  2  1  0
  2  3  1  0
  3  4  2  0
  4  5  1  0
  5  6  2  0
  6  7  1  0
  7  8  2  0
  7  9  1  0
  9 10  1  0
 10 11  1  0
 11 12  1  0
 12 13  1  0
 13 14  1  0
 13 15  1  0
 15 16  1  0
  9 17  1  0
 17 18  1  0
 18 19  2  0
 19 20  1  0
 20 21  2  0
 21 22  1  0
 22 23  2  0
 23 24  1  0
  8  3  1  0
 16 10  1  0
 23 18  1  0
 24  6  1  0
  1 25  1  0
  1 26  1  0
  1 27  1  0
  4 28  1  0
  5 29  1  0
  8 30  1  0
  9 31  1  0
 11 32  1  0
 11 33  1  0
 12 34  1  0
 12 35  1  0
 14 36  1  0
 14 37  1  0
 14 38  1  0
 15 39  1  0
 15 40  1  0
 16 41  1  0
 16 42  1  0
 17 43  1  0
 17 44  1  0
 19 45  1  0
 20 46  1  0
 21 47  1  0
 22 48  1  0
M  END
$$$$
