
     RDKit          3D

 63 66  0  0  0  0  0  0  0  0999 V2000
    0.7398    7.2248    0.1243 C   0  0  0  0  0  0  0  0  0  0  0  0
    0.6740    5.9677   -0.4726 O   0  0  0  0  0  0  0  0  0  0  0  0
   -0.4081    5.1058   -0.3518 C   0  0  0  0  0  0  0  0  0  0  0  0
   -1.5144    5.4606    0.3916 C   0  0  0  0  0  0  0  0  0  0  0  0
   -2.5699    4.5611    0.4799 C   0  0  0  0  0  0  0  0  0  0  0  0
   -2.5328    3.3473   -0.1477 C   0  0  0  0  0  0  0  0  0  0  0  0
   -1.4324    2.9835   -0.8922 C   0  0  0  0  0  0  0  0  0  0  0  0
   -1.3513    1.6857   -1.5893 C   0  0  0  0  0  0  0  0  0  0  0  0
   -0.7922    0.6214   -0.8009 N   0  0  0  0  0  0  0  0  0  0  0  0
   -1.7022   -0.1511    0.0227 C   0  0  0  0  0  0  0  0  0  0  0  0
   -2.2548   -1.3507   -0.7168 C   0  0  0  0  0  0  0  0  0  0  0  0
   -3.1476   -2.0521    0.1894 N   0  0  0  0  0  0  0  0  0  0  0  0
   -3.6665   -3.1943   -0.5311 C   0  0  0  0  0  0  0  0  0  0  0  0
   -4.6748   -3.9761    0.2344 C   0  0  0  0  0  0  0  0  0  0  0  0
   -5.2196   -3.2243    1.4348 C   0  0  0  0  0  0  0  0  0  0  0  0
   -5.4529   -1.7960    0.9950 C   0  0  0  0  0  0  0  0  0  0  0  0
   -4.1699   -1.1209    0.5771 C   0  0  0  0  0  0  0  0  0  0  0  0
    0.5986    0.3689   -0.8560 C   0  0  0  0  0  0  0  0  0  0  0  0
    1.3111    1.0773   -1.5907 O   0  0  0  0  0  0  0  0  0  0  0  0
    1.1936   -0.6518   -0.1106 N   0  0  0  0  0  0  0  0  0  0  0  0
    2.5504   -1.0206   -0.0595 C   0  0  0  0  0  0  0  0  0  0  0  0
    2.9493   -2.0861    0.7560 C   0  0  0  0  0  0  0  0  0  0  0  0
    4.2523   -2.5129    0.8668 C   0  0  0  0  0  0  0  0  0  0  0  0
    5.2365   -1.8896    0.1601 C   0  0  0  0  0  0  0  0  0  0  0  0
    6.6013   -2.3800    0.3123 C   0  0  0  0  0  0  0  0  0  0  0  0
    7.6298   -2.3832   -0.6118 C   0  0  0  0  0  0  0  0  0  0  0  0
    8.7221   -2.9303   -0.0516 N   0  0  0  0  0  0  0  0  0  0  0  0
    8.4070   -3.2664    1.1875 N   0  0  0  0  0  0  0  0  0  0  0  0
    7.1384   -2.9570    1.4612 C   0  0  0  0  0  0  0  0  0  0  0  0
    4.9087   -0.8352   -0.6595 C   0  0  0  0  0  0  0  0  0  0  0  0
    3.5721   -0.4158   -0.7578 C   0  0  0  0  0  0  0  0  0  0  0  0
   -0.3900    3.8680   -0.9817 C   0  0  0  0  0  0  0  0  0  0  0  0
    1.4243    7.8512   -0.5168 H   0  0  0  0  0  0  0  0  0  0  0  0
    1.1381    7.1911    1.1713 H   0  0  0  0  0  0  0  0  0  0  0  0
   -0.2449    7.7235    0.0743 H   0  0  0  0  0  0  0  0  0  0  0  0
   -1.5770    6.4227    0.9062 H   0  0  0  0  0  0  0  0  0  0  0  0
   -3.4575    4.8327    1.0697 H   0  0  0  0  0  0  0  0  0  0  0  0
   -3.3967    2.7064   -0.0323 H   0  0  0  0  0  0  0  0  0  0  0  0
   -0.7888    1.7962   -2.5622 H   0  0  0  0  0  0  0  0  0  0  0  0
   -2.3989    1.4511   -1.9238 H   0  0  0  0  0  0  0  0  0  0  0  0
   -2.5599    0.5092    0.2765 H   0  0  0  0  0  0  0  0  0  0  0  0
   -1.2618   -0.4778    0.9624 H   0  0  0  0  0  0  0  0  0  0  0  0
   -2.8939   -0.9556   -1.5341 H   0  0  0  0  0  0  0  0  0  0  0  0
   -1.4560   -2.0216   -1.0747 H   0  0  0  0  0  0  0  0  0  0  0  0
   -2.7896   -3.8543   -0.7521 H   0  0  0  0  0  0  0  0  0  0  0  0
   -4.0636   -2.8870   -1.5191 H   0  0  0  0  0  0  0  0  0  0  0  0
   -4.2908   -4.9671    0.5640 H   0  0  0  0  0  0  0  0  0  0  0  0
   -5.5488   -4.1702   -0.4251 H   0  0  0  0  0  0  0  0  0  0  0  0
   -4.5498   -3.2767    2.3120 H   0  0  0  0  0  0  0  0  0  0  0  0
   -6.2120   -3.6620    1.6693 H   0  0  0  0  0  0  0  0  0  0  0  0
   -6.0993   -1.8343    0.0879 H   0  0  0  0  0  0  0  0  0  0  0  0
   -6.0138   -1.2000    1.7437 H   0  0  0  0  0  0  0  0  0  0  0  0
   -3.7963   -0.5763    1.4812 H   0  0  0  0  0  0  0  0  0  0  0  0
   -4.3203   -0.4026   -0.2520 H   0  0  0  0  0  0  0  0  0  0  0  0
    0.5311   -1.2172    0.4882 H   0  0  0  0  0  0  0  0  0  0  0  0
    2.1600   -2.5771    1.3154 H   0  0  0  0  0  0  0  0  0  0  0  0
    4.4462   -3.3584    1.5369 H   0  0  0  0  0  0  0  0  0  0  0  0
    7.5723   -2.0053   -1.6313 H   0  0  0  0  0  0  0  0  0  0  0  0
    9.0719   -3.7198    1.8696 H   0  0  0  0  0  0  0  0  0  0  0  0
    6.6100   -3.1163    2.3928 H   0  0  0  0  0  0  0  0  0  0  0  0
    5.6871   -0.3502   -1.2117 H   0  0  0  0  0  0  0  0  0  0  0  0
    3.3738    0.4143   -1.4143 H   0  0  0  0  0  0  0  0  0  0  0  0
    0.4991    3.6538   -1.5497 H   0  0  0  0  0  0  0  0  0  0  0  0
  1  2  1  0
  2  3  1  0
  3  4  2  0
  4  5  1  0
  5  6  2  0
  6  7  1  0
  7  8  1  0
  8  9  1  0
  9 10  1  0
 10 11  1  0
 11 12  1  0
 12 13  1  0
 13 14  1  0
 14 15  1  0
 15 16  1  0
 16 17  1  0
  9 18  1  0
 18 19  2  0
 18 20  1  0
 20 21  1  0
 21 22  2  0
 22 23  1  0
 23 24  2  0
 24 25  1  0
 25 26  1  0
 26 27  2  0
 27 28  1  0
 28 29  1  0
 24 30  1  0
 30 31  2  0
  7 32  2  0
 32  3  1  0
 17 12  1  0
 31 21  1  0
 29 25  2  0
  1 33  1  0
  1 34  1  0
  1 35  1  0
  4 36  1  0
  5 37  1  0
  6 38  1  0
  8 39  1  0
  8 40  1  0
 10 41  1  0
 10 42  1  0
 11 43  1  0
 11 44  1  0
 13 45  1  0
 13 46  1  0
 14 47  1  0
 14 48  1  0
 15 49  1  0
 15 50  1  0
 16 51  1  0
 16 52  1  0
 17 53  1  0
 17 54  1  0
 20 55  1  0
 22 56  1  0
 23 57  1  0
 26 58  1  0
 28 59  1  0
 29 60  1  0
 30 61  1  0
 31 62  1  0
 32 63  1  0
M  END
$$$$
