
     RDKit          3D

 59 61  0  0  0  0  0  0  0  0999 V2000
   -0.9717   -1.5435    2.8170 C   0  0  0  0  0  0  0  0  0  0  0  0
   -1.1308   -2.0457    1.3594 C   0  0  0  0  0  0  0  0  0  0  0  0
   -1.8306   -3.3975    1.4914 C   0  0  0  0  0  0  0  0  0  0  0  0
   -2.0358   -1.0825    0.6974 C   0  0  0  0  0  0  0  0  0  0  0  0
   -3.3960   -1.2296    0.9985 C   0  0  0  0  0  0  0  0  0  0  0  0
   -4.3338   -0.4097    0.5310 N   0  0  0  0  0  0  0  0  0  0  0  0
   -4.0093    0.6207   -0.2700 C   0  0  0  0  0  0  0  0  0  0  0  0
   -5.0427    1.5249   -0.7842 C   0  0  0  0  0  0  0  0  0  0  0  0
   -4.7820    2.5894   -1.6010 C   0  0  0  0  0  0  0  0  0  0  0  0
   -5.7949    3.4313   -2.0726 C   0  0  0  0  0  0  0  0  0  0  0  0
   -5.4128    4.7803   -3.1152 Cl  0  0  0  0  0  0  0  0  0  0  0  0
   -7.0937    3.1777   -1.7011 C   0  0  0  0  0  0  0  0  0  0  0  0
   -7.3356    2.0924   -0.8717 C   0  0  0  0  0  0  0  0  0  0  0  0
   -6.3468    1.2667   -0.4085 C   0  0  0  0  0  0  0  0  0  0  0  0
   -6.6184    0.2051    0.4077 F   0  0  0  0  0  0  0  0  0  0  0  0
   -2.6838    0.8005   -0.5916 C   0  0  0  0  0  0  0  0  0  0  0  0
   -1.6809   -0.0501   -0.1123 C   0  0  0  0  0  0  0  0  0  0  0  0
   -0.2940    0.1750   -0.4518 N   0  0  0  0  0  0  0  0  0  0  0  0
    0.3818   -0.7646   -1.2636 C   0  0  0  0  0  0  0  0  0  0  0  0
   -0.3503   -1.8407   -1.7964 C   0  0  0  0  0  0  0  0  0  0  0  0
    0.3039   -2.7370   -2.5861 C   0  0  0  0  0  0  0  0  0  0  0  0
    1.6171   -2.6158   -2.8627 N   0  0  0  0  0  0  0  0  0  0  0  0
    2.3389   -1.6005   -2.3677 C   0  0  0  0  0  0  0  0  0  0  0  0
    1.7128   -0.6585   -1.5543 C   0  0  0  0  0  0  0  0  0  0  0  0
    2.5618    0.4098   -1.0074 C   0  0  0  0  0  0  0  0  0  0  0  0
    2.1150    1.2272   -0.1336 O   0  0  0  0  0  0  0  0  0  0  0  0
    3.8958    0.5368   -1.4569 N   0  0  0  0  0  0  0  0  0  0  0  0
    4.7201    1.6079   -0.8838 C   0  0  0  0  0  0  0  0  0  0  0  0
    4.8662    1.3889    0.5959 C   0  0  0  0  0  0  0  0  0  0  0  0
    5.5009    0.0922    0.7648 N   0  0  0  0  0  0  0  0  0  0  0  0
    5.7309   -0.2892    2.4308 S   0  0  0  0  0  6  0  0  0  0  0  0
    6.7845    0.8751    3.2208 C   0  0  0  0  0  0  0  0  0  0  0  0
    6.3419   -1.6774    2.4747 O   0  0  0  0  0  0  0  0  0  0  0  0
    4.4291   -0.3632    3.1448 O   0  0  0  0  0  0  0  0  0  0  0  0
   -0.6436   -0.4998    2.8245 H   0  0  0  0  0  0  0  0  0  0  0  0
   -0.3364   -2.2384    3.3690 H   0  0  0  0  0  0  0  0  0  0  0  0
   -1.9967   -1.5975    3.2453 H   0  0  0  0  0  0  0  0  0  0  0  0
   -0.1365   -2.1396    0.9366 H   0  0  0  0  0  0  0  0  0  0  0  0
   -1.1071   -4.2347    1.4638 H   0  0  0  0  0  0  0  0  0  0  0  0
   -2.5006   -3.5200    0.6152 H   0  0  0  0  0  0  0  0  0  0  0  0
   -2.4352   -3.4380    2.4222 H   0  0  0  0  0  0  0  0  0  0  0  0
   -3.7225   -2.0564    1.6506 H   0  0  0  0  0  0  0  0  0  0  0  0
   -3.7811    2.8301   -1.9205 H   0  0  0  0  0  0  0  0  0  0  0  0
   -7.9190    3.7749   -2.0203 H   0  0  0  0  0  0  0  0  0  0  0  0
   -8.3572    1.8960   -0.5818 H   0  0  0  0  0  0  0  0  0  0  0  0
   -2.3994    1.6215   -1.2336 H   0  0  0  0  0  0  0  0  0  0  0  0
    0.0970    1.0352   -0.0705 H   0  0  0  0  0  0  0  0  0  0  0  0
   -1.3867   -1.9248   -1.5700 H   0  0  0  0  0  0  0  0  0  0  0  0
   -0.1971   -3.5962   -3.0346 H   0  0  0  0  0  0  0  0  0  0  0  0
    3.3856   -1.5179   -2.5903 H   0  0  0  0  0  0  0  0  0  0  0  0
    4.3729   -0.0482   -2.1669 H   0  0  0  0  0  0  0  0  0  0  0  0
    4.2723    2.6020   -1.1100 H   0  0  0  0  0  0  0  0  0  0  0  0
    5.7369    1.6069   -1.3141 H   0  0  0  0  0  0  0  0  0  0  0  0
    5.5321    2.2109    0.9579 H   0  0  0  0  0  0  0  0  0  0  0  0
    3.9439    1.3911    1.1718 H   0  0  0  0  0  0  0  0  0  0  0  0
    6.3673   -0.0105    0.2256 H   0  0  0  0  0  0  0  0  0  0  0  0
    6.1737    1.5498    3.8282 H   0  0  0  0  0  0  0  0  0  0  0  0
    7.5264    0.3245    3.8548 H   0  0  0  0  0  0  0  0  0  0  0  0
    7.3543    1.4828    2.4847 H   0  0  0  0  0  0  0  0  0  0  0  0
  1  2  1  0
  2  3  1  0
  2  4  1  0
  4  5  2  0
  5  6  1  0
  6  7  2  0
  7  8  1  0
  8  9  2  0
  9 10  1  0
 10 11  1  0
 10 12  2  0
 12 13  1  0
 13 14  2  0
 14 15  1  0
  7 16  1  0
 16 17  2  0
 17 18  1  0
 18 19  1  0
 19 20  2  0
 20 21  1  0
 21 22  2  0
 22 23  1  0
 23 24  2  0
 24 25  1  0
 25 26  2  0
 25 27  1  0
 27 28  1  0
 28 29  1  0
 29 30  1  0
 30 31  1  0
 31 32  1  0
 31 33  2  0
 31 34  2  0
 17  4  1  0
 24 19  1  0
 14  8  1  0
  1 35  1  0
  1 36  1  0
  1 37  1  0
  2 38  1  0
  3 39  1  0
  3 40  1  0
  3 41  1  0
  5 42  1  0
  9 43  1  0
 12 44  1  0
 13 45  1  0
 16 46  1  0
 18 47  1  0
 20 48  1  0
 21 49  1  0
 23 50  1  0
 27 51  1  0
 28 52  1  0
 28 53  1  0
 29 54  1  0
 29 55  1  0
 30 56  1  0
 32 57  1  0
 32 58  1  0
 32 59  1  0
M  END
$$$$
