
     RDKit          3D

 81 87  0  0  0  0  0  0  0  0999 V2000
   -7.8193    4.2397   -1.6723 C   0  0  0  0  0  0  0  0  0  0  0  0
   -7.7508    3.7003   -0.3815 O   0  0  0  0  0  0  0  0  0  0  0  0
   -7.2684    2.3868   -0.2276 C   0  0  0  0  0  0  0  0  0  0  0  0
   -7.1786    1.8048    1.0167 C   0  0  0  0  0  0  0  0  0  0  0  0
   -6.7102    0.5269    1.1773 C   0  0  0  0  0  0  0  0  0  0  0  0
   -6.3098   -0.2203    0.0685 C   0  0  0  0  0  0  0  0  0  0  0  0
   -5.8261   -1.5514    0.2747 N   0  0  0  0  0  0  0  0  0  0  0  0
   -6.3526   -2.6620   -0.1998 N   0  0  0  0  0  0  0  0  0  0  0  0
   -5.6627   -3.7392    0.1729 C   0  0  0  0  0  0  0  0  0  0  0  0
   -5.9483   -5.1645   -0.1583 C   0  0  0  0  0  0  0  0  0  0  0  0
   -6.0522   -5.3889   -1.6442 C   0  0  0  0  0  0  0  0  0  0  0  0
   -7.2186   -5.5778    0.5583 C   0  0  0  0  0  0  0  0  0  0  0  0
   -4.6214   -3.3018    0.9382 C   0  0  0  0  0  0  0  0  0  0  0  0
   -4.7423   -1.9301    0.9896 C   0  0  0  0  0  0  0  0  0  0  0  0
   -3.8585   -1.0765    1.6948 N   0  0  0  0  0  0  0  0  0  0  0  0
   -2.6929   -0.5448    1.0653 C   0  0  0  0  0  0  0  0  0  0  0  0
   -2.4051   -0.8178   -0.1364 O   0  0  0  0  0  0  0  0  0  0  0  0
   -1.8008    0.3156    1.7565 N   0  0  0  0  0  0  0  0  0  0  0  0
   -0.6256    0.8739    1.1867 C   0  0  0  0  0  0  0  0  0  0  0  0
    0.5993    0.2795    1.2467 C   0  0  0  0  0  0  0  0  0  0  0  0
    1.6772    0.9213    0.6547 C   0  0  0  0  0  0  0  0  0  0  0  0
    1.5597    2.1173    0.0180 C   0  0  0  0  0  0  0  0  0  0  0  0
    2.5706    2.8103   -0.5868 O   0  0  0  0  0  0  0  0  0  0  0  0
    3.9059    2.5165   -0.7024 C   0  0  0  0  0  0  0  0  0  0  0  0
    4.7014    3.4465   -1.4062 C   0  0  0  0  0  0  0  0  0  0  0  0
    6.0236    3.1786   -1.5339 C   0  0  0  0  0  0  0  0  0  0  0  0
    6.5252    2.0640   -1.0001 N   0  0  0  0  0  0  0  0  0  0  0  0
    5.8192    1.1564   -0.3281 C   0  0  0  0  0  0  0  0  0  0  0  0
    6.3734   -0.0029    0.2250 N   0  0  0  0  0  0  0  0  0  0  0  0
    7.7270   -0.3459    0.2076 C   0  0  0  0  0  0  0  0  0  0  0  0
    8.0839   -1.6442    0.6227 C   0  0  0  0  0  0  0  0  0  0  0  0
    9.3767   -2.0576    0.6505 C   0  0  0  0  0  0  0  0  0  0  0  0
    9.7279   -3.4255    1.0919 C   0  0  0  0  0  0  0  0  0  0  0  0
   10.3851   -1.2066    0.2684 C   0  0  0  0  0  0  0  0  0  0  0  0
   11.7247   -1.3781    0.2083 N   0  0  0  0  0  0  0  0  0  0  0  0
   12.2128   -0.2311   -0.2297 N   0  0  0  0  0  0  0  0  0  0  0  0
   11.2550    0.6736   -0.4558 C   0  0  0  0  0  0  0  0  0  0  0  0
   10.0639    0.0597   -0.1387 C   0  0  0  0  0  0  0  0  0  0  0  0
    8.7365    0.5050   -0.1741 C   0  0  0  0  0  0  0  0  0  0  0  0
    4.4811    1.4271   -0.1987 N   0  0  0  0  0  0  0  0  0  0  0  0
    0.3000    2.7440   -0.0526 C   0  0  0  0  0  0  0  0  0  0  0  0
    0.1630    3.9557   -0.6932 C   0  0  0  0  0  0  0  0  0  0  0  0
   -1.0809    4.5340   -0.7399 C   0  0  0  0  0  0  0  0  0  0  0  0
   -2.1537    3.9015   -0.1536 C   0  0  0  0  0  0  0  0  0  0  0  0
   -2.0320    2.6934    0.4882 C   0  0  0  0  0  0  0  0  0  0  0  0
   -0.7628    2.0961    0.5396 C   0  0  0  0  0  0  0  0  0  0  0  0
   -6.3981    0.3582   -1.1773 C   0  0  0  0  0  0  0  0  0  0  0  0
   -6.8706    1.6418   -1.3176 C   0  0  0  0  0  0  0  0  0  0  0  0
   -8.3769    3.5767   -2.3660 H   0  0  0  0  0  0  0  0  0  0  0  0
   -6.7657    4.3805   -2.0477 H   0  0  0  0  0  0  0  0  0  0  0  0
   -8.3353    5.2332   -1.6299 H   0  0  0  0  0  0  0  0  0  0  0  0
   -7.4873    2.3697    1.9060 H   0  0  0  0  0  0  0  0  0  0  0  0
   -6.6316    0.0469    2.1658 H   0  0  0  0  0  0  0  0  0  0  0  0
   -5.1464   -5.8191    0.2372 H   0  0  0  0  0  0  0  0  0  0  0  0
   -6.7729   -4.6792   -2.1139 H   0  0  0  0  0  0  0  0  0  0  0  0
   -5.0326   -5.3085   -2.0687 H   0  0  0  0  0  0  0  0  0  0  0  0
   -6.4220   -6.4217   -1.8008 H   0  0  0  0  0  0  0  0  0  0  0  0
   -7.8646   -4.6758    0.5954 H   0  0  0  0  0  0  0  0  0  0  0  0
   -6.9694   -5.8780    1.5941 H   0  0  0  0  0  0  0  0  0  0  0  0
   -7.7604   -6.3865    0.0433 H   0  0  0  0  0  0  0  0  0  0  0  0
   -3.8462   -3.9166    1.4157 H   0  0  0  0  0  0  0  0  0  0  0  0
   -4.0311   -0.8107    2.6830 H   0  0  0  0  0  0  0  0  0  0  0  0
   -2.0208    0.5538    2.7442 H   0  0  0  0  0  0  0  0  0  0  0  0
    0.6838   -0.6728    1.7545 H   0  0  0  0  0  0  0  0  0  0  0  0
    2.6602    0.4372    0.7069 H   0  0  0  0  0  0  0  0  0  0  0  0
    4.2076    4.3269   -1.8065 H   0  0  0  0  0  0  0  0  0  0  0  0
    6.6461    3.8993   -2.0811 H   0  0  0  0  0  0  0  0  0  0  0  0
    5.6903   -0.6630    0.6953 H   0  0  0  0  0  0  0  0  0  0  0  0
    7.3054   -2.3257    0.9258 H   0  0  0  0  0  0  0  0  0  0  0  0
    8.8495   -3.8681    1.6085 H   0  0  0  0  0  0  0  0  0  0  0  0
   10.0192   -4.0030    0.1901 H   0  0  0  0  0  0  0  0  0  0  0  0
   10.5599   -3.4164    1.8356 H   0  0  0  0  0  0  0  0  0  0  0  0
   12.2529   -2.2457    0.4604 H   0  0  0  0  0  0  0  0  0  0  0  0
   11.3738    1.6967   -0.8187 H   0  0  0  0  0  0  0  0  0  0  0  0
    8.5826    1.5075   -0.4963 H   0  0  0  0  0  0  0  0  0  0  0  0
    1.0365    4.4005   -1.1310 H   0  0  0  0  0  0  0  0  0  0  0  0
   -1.1935    5.5007   -1.2503 H   0  0  0  0  0  0  0  0  0  0  0  0
   -3.1373    4.3814   -0.2030 H   0  0  0  0  0  0  0  0  0  0  0  0
   -2.8801    2.1905    0.9528 H   0  0  0  0  0  0  0  0  0  0  0  0
   -6.0962   -0.1957   -2.0479 H   0  0  0  0  0  0  0  0  0  0  0  0
   -6.9487    2.1238   -2.3036 H   0  0  0  0  0  0  0  0  0  0  0  0
  1  2  1  0
  2  3  1  0
  3  4  2  0
  4  5  1  0
  5  6  2  0
  6  7  1  0
  7  8  1  0
  8  9  2  0
  9 10  1  0
 10 11  1  0
 10 12  1  0
  9 13  1  0
 13 14  2  0
 14 15  1  0
 15 16  1  0
 16 17  2  0
 16 18  1  0
 18 19  1  0
 19 20  2  0
 20 21  1  0
 21 22  2  0
 22 23  1  0
 23 24  1  0
 24 25  2  0
 25 26  1  0
 26 27  2  0
 27 28  1  0
 28 29  1  0
 29 30  1  0
 30 31  2  0
 31 32  1  0
 32 33  1  0
 32 34  2  0
 34 35  1  0
 35 36  1  0
 36 37  2  0
 37 38  1  0
 38 39  2  0
 28 40  2  0
 22 41  1  0
 41 42  2  0
 42 43  1  0
 43 44  2  0
 44 45  1  0
 45 46  2  0
  6 47  1  0
 47 48  2  0
 48  3  1  0
 14  7  1  0
 46 19  1  0
 40 24  1  0
 46 41  1  0
 39 30  1  0
 38 34  1  0
  1 49  1  0
  1 50  1  0
  1 51  1  0
  4 52  1  0
  5 53  1  0
 10 54  1  0
 11 55  1  0
 11 56  1  0
 11 57  1  0
 12 58  1  0
 12 59  1  0
 12 60  1  0
 13 61  1  0
 15 62  1  0
 18 63  1  0
 20 64  1  0
 21 65  1  0
 25 66  1  0
 26 67  1  0
 29 68  1  0
 31 69  1  0
 33 70  1  0
 33 71  1  0
 33 72  1  0
 35 73  1  0
 37 74  1  0
 39 75  1  0
 42 76  1  0
 43 77  1  0
 44 78  1  0
 45 79  1  0
 47 80  1  0
 48 81  1  0
M  END
$$$$
