
     RDKit          3D

 48 50  0  0  0  0  0  0  0  0999 V2000
    7.6770   -2.2481    1.6585 C   0  0  0  0  0  0  0  0  0  0  0  0
    7.1785   -1.1980    0.7937 N   0  0  0  0  0  0  0  0  0  0  0  0
    5.8732   -0.8495    0.3880 C   0  0  0  0  0  0  0  0  0  0  0  0
    4.9635   -1.5756    0.8555 O   0  0  0  0  0  0  0  0  0  0  0  0
    5.6976    0.2904   -0.5127 C   0  0  0  0  0  0  0  0  0  0  0  0
    6.7375    1.0002   -0.9540 N   0  0  0  0  0  0  0  0  0  0  0  0
    6.5119    2.0495   -1.7898 C   0  0  0  0  0  0  0  0  0  0  0  0
    5.2089    2.3670   -2.1713 C   0  0  0  0  0  0  0  0  0  0  0  0
    4.1264    1.6154   -1.7020 C   0  0  0  0  0  0  0  0  0  0  0  0
    2.8909    2.0204   -2.1442 O   0  0  0  0  0  0  0  0  0  0  0  0
    1.6800    1.4385   -1.8196 C   0  0  0  0  0  0  0  0  0  0  0  0
    1.2319    0.4251   -2.6403 C   0  0  0  0  0  0  0  0  0  0  0  0
    0.0382   -0.2208   -2.4054 C   0  0  0  0  0  0  0  0  0  0  0  0
   -0.7736    0.1059   -1.3425 C   0  0  0  0  0  0  0  0  0  0  0  0
   -1.9842   -0.6106   -1.1768 N   0  0  0  0  0  0  0  0  0  0  0  0
   -2.9716   -0.4640   -0.1795 C   0  0  0  0  0  0  0  0  0  0  0  0
   -2.8347    0.3847    0.7068 O   0  0  0  0  0  0  0  0  0  0  0  0
   -4.1581   -1.2413   -0.1056 N   0  0  0  0  0  0  0  0  0  0  0  0
   -5.0815   -0.9994    0.9505 C   0  0  0  0  0  0  0  0  0  0  0  0
   -6.0238   -0.0368    0.5715 C   0  0  0  0  0  0  0  0  0  0  0  0
   -7.0191    0.3415    1.4706 C   0  0  0  0  0  0  0  0  0  0  0  0
   -7.1035   -0.2143    2.7434 C   0  0  0  0  0  0  0  0  0  0  0  0
   -8.3496    0.2548    3.8781 Cl  0  0  0  0  0  0  0  0  0  0  0  0
   -6.1474   -1.1635    3.0721 C   0  0  0  0  0  0  0  0  0  0  0  0
   -5.1635   -1.5465    2.2017 C   0  0  0  0  0  0  0  0  0  0  0  0
   -8.0441    1.3557    1.1253 C   0  0  0  0  0  0  0  0  0  0  0  0
   -9.3294    0.8070    1.2006 F   0  0  0  0  0  0  0  0  0  0  0  0
   -7.9857    2.4068    2.0189 F   0  0  0  0  0  0  0  0  0  0  0  0
   -7.8315    1.8653   -0.1396 F   0  0  0  0  0  0  0  0  0  0  0  0
   -0.3026    1.1101   -0.5515 C   0  0  0  0  0  0  0  0  0  0  0  0
    0.8786    1.7741   -0.7547 C   0  0  0  0  0  0  0  0  0  0  0  0
    4.3765    0.5471   -0.8490 C   0  0  0  0  0  0  0  0  0  0  0  0
    6.8216   -2.8032    2.1149 H   0  0  0  0  0  0  0  0  0  0  0  0
    8.2265   -1.7854    2.4991 H   0  0  0  0  0  0  0  0  0  0  0  0
    8.3095   -2.9698    1.0887 H   0  0  0  0  0  0  0  0  0  0  0  0
    7.9965   -0.6506    0.4550 H   0  0  0  0  0  0  0  0  0  0  0  0
    7.3669    2.6361   -2.1550 H   0  0  0  0  0  0  0  0  0  0  0  0
    5.0956    3.2104   -2.8360 H   0  0  0  0  0  0  0  0  0  0  0  0
    1.8018    0.1014   -3.4978 H   0  0  0  0  0  0  0  0  0  0  0  0
   -0.2747   -1.0241   -3.0914 H   0  0  0  0  0  0  0  0  0  0  0  0
   -2.2357   -1.3645   -1.8557 H   0  0  0  0  0  0  0  0  0  0  0  0
   -4.3269   -1.9808   -0.8366 H   0  0  0  0  0  0  0  0  0  0  0  0
   -6.0780    0.4731   -0.3753 H   0  0  0  0  0  0  0  0  0  0  0  0
   -6.1683   -1.6250    4.0463 H   0  0  0  0  0  0  0  0  0  0  0  0
   -4.3872   -2.2765    2.3858 H   0  0  0  0  0  0  0  0  0  0  0  0
   -0.8601    1.4301    0.2911 H   0  0  0  0  0  0  0  0  0  0  0  0
    1.2267    2.5657   -0.1120 H   0  0  0  0  0  0  0  0  0  0  0  0
    3.5192    0.0039   -0.5176 H   0  0  0  0  0  0  0  0  0  0  0  0
  1  2  1  0
  2  3  1  0
  3  4  2  0
  3  5  1  0
  5  6  2  0
  6  7  1  0
  7  8  2  0
  8  9  1  0
  9 10  1  0
 10 11  1  0
 11 12  2  0
 12 13  1  0
 13 14  2  0
 14 15  1  0
 15 16  1  0
 16 17  2  0
 16 18  1  0
 18 19  1  0
 19 20  2  0
 20 21  1  0
 21 22  2  0
 22 23  1  0
 22 24  1  0
 24 25  2  0
 21 26  1  0
 26 27  1  0
 26 28  1  0
 26 29  1  0
 14 30  1  0
 30 31  2  0
  9 32  2  0
 32  5  1  0
 31 11  1  0
 25 19  1  0
  1 33  1  0
  1 34  1  0
  1 35  1  0
  2 36  1  0
  7 37  1  0
  8 38  1  0
 12 39  1  0
 13 40  1  0
 15 41  1  0
 18 42  1  0
 20 43  1  0
 24 44  1  0
 25 45  1  0
 30 46  1  0
 31 47  1  0
 32 48  1  0
M  END
$$$$
