
     RDKit          3D

 66 69  0  0  0  0  0  0  0  0999 V2000
    0.6474   -2.2423    0.1143 C   0  0  0  0  0  0  0  0  0  0  0  0
    0.8161   -0.8391    0.6133 C   0  0  1  0  0  0  0  0  0  0  0  0
    1.9681   -0.2312   -0.0299 C   0  0  0  0  0  0  0  0  0  0  0  0
    2.0330    0.5586   -1.1398 C   0  0  0  0  0  0  0  0  0  0  0  0
    3.2470    1.0464   -1.6632 C   0  0  0  0  0  0  0  0  0  0  0  0
    4.4347    0.7338   -1.0698 C   0  0  0  0  0  0  0  0  0  0  0  0
    5.7360    1.2139   -1.5808 C   0  0  0  0  0  0  0  0  0  0  0  0
    6.8475    0.4201   -1.4419 C   0  0  0  0  0  0  0  0  0  0  0  0
    8.0875    0.8581   -1.9062 C   0  0  0  0  0  0  0  0  0  0  0  0
    8.2229    2.0825   -2.5113 C   0  0  0  0  0  0  0  0  0  0  0  0
    9.3242    2.5095   -2.9444 O   0  0  0  0  0  0  0  0  0  0  0  0
    7.1013    2.8361   -2.6251 N   0  0  0  0  0  0  0  0  0  0  0  0
    7.2526    4.1397   -3.2550 C   0  0  0  0  0  0  0  0  0  0  0  0
    5.8936    2.4436   -2.1870 C   0  0  0  0  0  0  0  0  0  0  0  0
    4.4104   -0.0585    0.0523 C   0  0  0  0  0  0  0  0  0  0  0  0
    3.2220   -0.5170    0.5418 C   0  0  0  0  0  0  0  0  0  0  0  0
   -0.4288   -0.1439    0.6559 N   0  0  0  0  0  0  0  0  0  0  0  0
   -1.3296    0.0952   -0.4392 C   0  0  0  0  0  0  0  0  0  0  0  0
   -2.7049    0.4553   -0.0007 C   0  0  0  0  0  0  0  0  0  0  0  0
   -3.1867   -0.2238    1.2311 C   0  0  2  0  0  0  0  0  0  0  0  0
   -3.0752   -1.6691    1.3338 C   0  0  0  0  0  0  0  0  0  0  0  0
   -3.7189   -2.6328    0.4639 C   0  0  0  0  0  0  0  0  0  0  0  0
   -3.4297   -2.6180   -1.0141 C   0  0  0  0  0  0  0  0  0  0  0  0
   -5.2486   -2.5179    0.5803 C   0  0  0  0  0  0  0  0  0  0  0  0
   -3.3929   -3.9705    0.9023 C   0  0  0  0  0  0  0  0  0  0  0  0
   -3.0913   -5.1381    1.2710 N   0  0  0  0  0  0  0  0  0  0  0  0
   -4.4809    0.3710    1.7123 C   0  0  0  0  0  0  0  0  0  0  0  0
   -5.0336   -0.1857    2.8542 C   0  0  0  0  0  0  0  0  0  0  0  0
   -6.2169    0.3772    3.3499 C   0  0  0  0  0  0  0  0  0  0  0  0
   -6.8355    1.4294    2.7607 C   0  0  0  0  0  0  0  0  0  0  0  0
   -6.2766    1.9762    1.6230 C   0  0  0  0  0  0  0  0  0  0  0  0
   -5.1071    1.4103    1.1421 C   0  0  0  0  0  0  0  0  0  0  0  0
   -2.2784    0.2963    2.2609 O   0  0  0  0  0  0  0  0  0  0  0  0
   -0.9103    0.3258    1.9357 C   0  0  0  0  0  0  0  0  0  0  0  0
   -0.0617    0.7650    2.7539 O   0  0  0  0  0  0  0  0  0  0  0  0
    0.1452   -2.2826   -0.8749 H   0  0  0  0  0  0  0  0  0  0  0  0
    0.1263   -2.8309    0.8912 H   0  0  0  0  0  0  0  0  0  0  0  0
    1.6720   -2.6873    0.0626 H   0  0  0  0  0  0  0  0  0  0  0  0
    1.1535   -0.9568    1.7089 H   0  0  0  0  0  0  0  0  0  0  0  0
    1.1283    0.8235   -1.6545 H   0  0  0  0  0  0  0  0  0  0  0  0
    3.2440    1.6698   -2.5396 H   0  0  0  0  0  0  0  0  0  0  0  0
    6.7642   -0.5569   -0.9736 H   0  0  0  0  0  0  0  0  0  0  0  0
    8.9623    0.2471   -1.7954 H   0  0  0  0  0  0  0  0  0  0  0  0
    6.2683    4.5218   -3.6089 H   0  0  0  0  0  0  0  0  0  0  0  0
    7.9598    4.0471   -4.1104 H   0  0  0  0  0  0  0  0  0  0  0  0
    7.6710    4.8481   -2.5079 H   0  0  0  0  0  0  0  0  0  0  0  0
    5.0126    3.0803   -2.3023 H   0  0  0  0  0  0  0  0  0  0  0  0
    5.3701   -0.2842    0.5173 H   0  0  0  0  0  0  0  0  0  0  0  0
    3.2835   -1.1393    1.4387 H   0  0  0  0  0  0  0  0  0  0  0  0
   -1.3073   -0.7075   -1.2008 H   0  0  0  0  0  0  0  0  0  0  0  0
   -0.9460    0.9978   -0.9933 H   0  0  0  0  0  0  0  0  0  0  0  0
   -2.6286    1.5571    0.3066 H   0  0  0  0  0  0  0  0  0  0  0  0
   -3.4429    0.5069   -0.8222 H   0  0  0  0  0  0  0  0  0  0  0  0
   -3.3273   -1.9780    2.4089 H   0  0  0  0  0  0  0  0  0  0  0  0
   -1.9426   -1.8860    1.3558 H   0  0  0  0  0  0  0  0  0  0  0  0
   -4.0993   -3.4430   -1.4242 H   0  0  0  0  0  0  0  0  0  0  0  0
   -2.4004   -3.0263   -1.1796 H   0  0  0  0  0  0  0  0  0  0  0  0
   -3.6939   -1.7348   -1.5652 H   0  0  0  0  0  0  0  0  0  0  0  0
   -5.6152   -1.5365    0.2160 H   0  0  0  0  0  0  0  0  0  0  0  0
   -5.7296   -3.2834   -0.0895 H   0  0  0  0  0  0  0  0  0  0  0  0
   -5.5906   -2.7715    1.6082 H   0  0  0  0  0  0  0  0  0  0  0  0
   -4.6142   -1.0159    3.4040 H   0  0  0  0  0  0  0  0  0  0  0  0
   -6.6671   -0.0579    4.2583 H   0  0  0  0  0  0  0  0  0  0  0  0
   -7.7574    1.8640    3.1634 H   0  0  0  0  0  0  0  0  0  0  0  0
   -6.7486    2.8099    1.1441 H   0  0  0  0  0  0  0  0  0  0  0  0
   -4.6872    1.8498    0.2473 H   0  0  0  0  0  0  0  0  0  0  0  0
  1  2  1  0
  2  3  1  0
  3  4  2  0
  4  5  1  0
  5  6  2  0
  6  7  1  0
  7  8  1  0
  8  9  2  0
  9 10  1  0
 10 11  2  0
 10 12  1  0
 12 13  1  0
 12 14  1  0
  6 15  1  0
 15 16  2  0
  2 17  1  0
 17 18  1  0
 18 19  1  0
 19 20  1  0
 20 21  1  6
 21 22  1  0
 22 23  1  0
 22 24  1  0
 22 25  1  0
 25 26  3  0
 20 27  1  0
 27 28  2  0
 28 29  1  0
 29 30  2  0
 30 31  1  0
 31 32  2  0
 20 33  1  0
 33 34  1  0
 34 35  2  0
 16  3  1  0
 34 17  1  0
 14  7  2  0
 32 27  1  0
  1 36  1  0
  1 37  1  0
  1 38  1  0
  2 39  1  1
  4 40  1  0
  5 41  1  0
  8 42  1  0
  9 43  1  0
 13 44  1  0
 13 45  1  0
 13 46  1  0
 14 47  1  0
 15 48  1  0
 16 49  1  0
 18 50  1  0
 18 51  1  0
 19 52  1  0
 19 53  1  0
 21 54  1  0
 21 55  1  0
 23 56  1  0
 23 57  1  0
 23 58  1  0
 24 59  1  0
 24 60  1  0
 24 61  1  0
 28 62  1  0
 29 63  1  0
 30 64  1  0
 31 65  1  0
 32 66  1  0
M  END
$$$$
