
     RDKit          3D

 51 53  0  0  0  0  0  0  0  0999 V2000
    6.7156    1.7872    1.1794 C   0  0  0  0  0  0  0  0  0  0  0  0
    5.5105    1.1802    0.5796 C   0  0  0  0  0  0  0  0  0  0  0  0
    4.2641    1.2356    1.1727 C   0  0  0  0  0  0  0  0  0  0  0  0
    3.1709    0.6533    0.5671 C   0  0  0  0  0  0  0  0  0  0  0  0
    3.2908    0.0012   -0.6442 C   0  0  0  0  0  0  0  0  0  0  0  0
    2.1994   -0.6169   -1.3203 N   0  0  0  0  0  0  0  0  0  0  0  0
    0.9055   -0.7252   -0.7179 C   0  0  0  0  0  0  0  0  0  0  0  0
   -0.1731   -0.0201   -1.2598 C   0  0  0  0  0  0  0  0  0  0  0  0
   -1.4354   -0.0779   -0.7316 C   0  0  0  0  0  0  0  0  0  0  0  0
   -2.4719    0.6741   -1.3468 N   0  0  0  0  0  0  0  0  0  0  0  0
   -3.8268    0.7051   -0.8860 C   0  0  2  0  0  0  0  0  0  0  0  0
   -3.8546    1.2479    0.5289 C   0  0  0  0  0  0  0  0  0  0  0  0
   -5.0810    0.8310    1.2756 C   0  0  0  0  0  0  0  0  0  0  0  0
   -6.2686    0.6519    0.3724 C   0  0  0  0  0  0  0  0  0  0  0  0
   -6.0471   -0.2714   -0.7784 C   0  0  0  0  0  0  0  0  0  0  0  0
   -4.5650   -0.5985   -1.0038 C   0  0  2  0  0  0  0  0  0  0  0  0
   -4.2059   -1.5905   -0.0465 N   0  0  0  0  0  0  0  0  0  0  0  0
   -1.6304   -0.8452    0.3474 N   0  0  0  0  0  0  0  0  0  0  0  0
   -0.6258   -1.5074    0.8564 N   0  0  0  0  0  0  0  0  0  0  0  0
    0.6462   -1.4964    0.3848 C   0  0  0  0  0  0  0  0  0  0  0  0
    1.6754   -2.3322    0.9921 C   0  0  0  0  0  0  0  0  0  0  0  0
    1.3854   -3.0289    2.1955 N   0  0  0  0  0  0  0  0  0  0  0  0
    2.7989   -2.4481    0.4805 O   0  0  0  0  0  0  0  0  0  0  0  0
    4.5208   -0.0273   -1.1826 N   0  0  0  0  0  0  0  0  0  0  0  0
    5.6060    0.5216   -0.6332 C   0  0  0  0  0  0  0  0  0  0  0  0
    6.9344    0.4383   -1.3085 C   0  0  0  0  0  0  0  0  0  0  0  0
    6.3702    2.4258    2.0411 H   0  0  0  0  0  0  0  0  0  0  0  0
    7.3890    1.0243    1.6259 H   0  0  0  0  0  0  0  0  0  0  0  0
    7.2990    2.3755    0.4478 H   0  0  0  0  0  0  0  0  0  0  0  0
    4.1949    1.7546    2.1262 H   0  0  0  0  0  0  0  0  0  0  0  0
    2.1945    0.6965    1.0336 H   0  0  0  0  0  0  0  0  0  0  0  0
    2.3207   -1.0027   -2.2655 H   0  0  0  0  0  0  0  0  0  0  0  0
    0.0383    0.5938   -2.1444 H   0  0  0  0  0  0  0  0  0  0  0  0
   -2.2253    1.2382   -2.1895 H   0  0  0  0  0  0  0  0  0  0  0  0
   -4.3955    1.4399   -1.4920 H   0  0  0  0  0  0  0  0  0  0  0  0
   -2.9770    0.9368    1.1288 H   0  0  0  0  0  0  0  0  0  0  0  0
   -3.8219    2.3703    0.5255 H   0  0  0  0  0  0  0  0  0  0  0  0
   -5.3418    1.6384    1.9932 H   0  0  0  0  0  0  0  0  0  0  0  0
   -4.9025   -0.0682    1.9219 H   0  0  0  0  0  0  0  0  0  0  0  0
   -6.5239    1.6680   -0.0407 H   0  0  0  0  0  0  0  0  0  0  0  0
   -7.1427    0.3736    1.0023 H   0  0  0  0  0  0  0  0  0  0  0  0
   -6.5406   -1.2405   -0.5369 H   0  0  0  0  0  0  0  0  0  0  0  0
   -6.5029    0.0825   -1.7280 H   0  0  0  0  0  0  0  0  0  0  0  0
   -4.4918   -0.9298   -2.0589 H   0  0  0  0  0  0  0  0  0  0  0  0
   -5.0226   -1.9857    0.4846 H   0  0  0  0  0  0  0  0  0  0  0  0
   -3.8319   -2.4230   -0.5933 H   0  0  0  0  0  0  0  0  0  0  0  0
    2.1353   -3.5688    2.6720 H   0  0  0  0  0  0  0  0  0  0  0  0
    0.4470   -3.0387    2.6505 H   0  0  0  0  0  0  0  0  0  0  0  0
    7.0943   -0.5401   -1.7708 H   0  0  0  0  0  0  0  0  0  0  0  0
    7.0696    1.2244   -2.0669 H   0  0  0  0  0  0  0  0  0  0  0  0
    7.7294    0.6136   -0.5271 H   0  0  0  0  0  0  0  0  0  0  0  0
  1  2  1  0
  2  3  2  0
  3  4  1  0
  4  5  2  0
  5  6  1  0
  6  7  1  0
  7  8  2  0
  8  9  1  0
  9 10  1  0
 10 11  1  0
 11 12  1  0
 12 13  1  0
 13 14  1  0
 14 15  1  0
 15 16  1  0
 16 17  1  0
  9 18  2  0
 18 19  1  0
 19 20  2  0
 20 21  1  0
 21 22  1  0
 21 23  2  0
  5 24  1  0
 24 25  2  0
 25 26  1  0
 25  2  1  0
 20  7  1  0
 16 11  1  0
  1 27  1  0
  1 28  1  0
  1 29  1  0
  3 30  1  0
  4 31  1  0
  6 32  1  0
  8 33  1  0
 10 34  1  0
 11 35  1  6
 12 36  1  0
 12 37  1  0
 13 38  1  0
 13 39  1  0
 14 40  1  0
 14 41  1  0
 15 42  1  0
 15 43  1  0
 16 44  1  6
 17 45  1  0
 17 46  1  0
 22 47  1  0
 22 48  1  0
 26 49  1  0
 26 50  1  0
 26 51  1  0
M  END
$$$$
