
     RDKit          3D

 83 86  0  0  0  0  0  0  0  0999 V2000
   -9.9185   -0.6050   -2.0406 C   0  0  0  0  0  0  0  0  0  0  0  0
  -10.1671   -0.7487   -0.5604 C   0  0  0  0  0  0  0  0  0  0  0  0
   -9.0666   -0.3550    0.2087 N   0  0  0  0  0  0  0  0  0  0  0  0
   -8.6751    0.9911    0.2762 C   0  0  0  0  0  0  0  0  0  0  0  0
   -8.8036    1.6073    1.6506 C   0  0  0  0  0  0  0  0  0  0  0  0
   -9.5117    1.8246   -0.6789 C   0  0  0  0  0  0  0  0  0  0  0  0
   -7.2386    1.1662   -0.1775 C   0  0  0  0  0  0  0  0  0  0  0  0
   -6.2658    0.2955    0.5843 C   0  0  0  0  0  0  0  0  0  0  0  0
   -5.3840   -0.3001   -0.2976 O   0  0  0  0  0  0  0  0  0  0  0  0
   -4.0151   -0.1751   -0.2751 C   0  0  0  0  0  0  0  0  0  0  0  0
   -3.2764   -0.8527   -1.2678 C   0  0  0  0  0  0  0  0  0  0  0  0
   -1.9131   -0.7423   -1.2632 C   0  0  0  0  0  0  0  0  0  0  0  0
   -1.2473    0.0040   -0.3265 C   0  0  0  0  0  0  0  0  0  0  0  0
    0.2322    0.1050   -0.3426 C   0  0  0  0  0  0  0  0  0  0  0  0
    0.8462   -0.5004   -1.2370 O   0  0  0  0  0  0  0  0  0  0  0  0
    0.9394    0.8516    0.6085 N   0  0  0  0  0  0  0  0  0  0  0  0
    2.3346    1.0306    0.7075 C   0  0  0  0  0  0  0  0  0  0  0  0
    3.2807    0.5189   -0.1391 C   0  0  0  0  0  0  0  0  0  0  0  0
    4.6463    0.7580    0.0621 C   0  0  0  0  0  0  0  0  0  0  0  0
    5.1320    1.5082    1.1019 C   0  0  0  0  0  0  0  0  0  0  0  0
    6.4982    1.7818    1.3512 N   0  0  0  0  0  0  0  0  0  0  0  0
    7.5983    1.3617    0.5814 C   0  0  0  0  0  0  0  0  0  0  0  0
    7.4330    0.6830   -0.4341 O   0  0  0  0  0  0  0  0  0  0  0  0
    8.9496    1.6965    0.9335 N   0  0  0  0  0  0  0  0  0  0  0  0
   10.0634    1.2781    0.1593 C   0  0  0  0  0  0  0  0  0  0  0  0
   10.7823    0.0974    0.3056 C   0  0  0  0  0  0  0  0  0  0  0  0
   11.7862    0.0941   -0.6511 C   0  0  0  0  0  0  0  0  0  0  0  0
   12.7842   -1.0143   -0.8228 C   0  0  0  0  0  0  0  0  0  0  0  0
   13.7440   -0.6972   -1.9247 C   0  0  0  0  0  0  0  0  0  0  0  0
   13.4268   -1.2573    0.5045 C   0  0  0  0  0  0  0  0  0  0  0  0
   11.9615   -2.2478   -1.1816 C   0  0  0  0  0  0  0  0  0  0  0  0
   11.6604    1.2059   -1.3156 O   0  0  0  0  0  0  0  0  0  0  0  0
   10.6651    1.9182   -0.8673 N   0  0  0  0  0  0  0  0  0  0  0  0
    4.1624    2.0306    1.9663 C   0  0  0  0  0  0  0  0  0  0  0  0
    2.8234    1.7944    1.7663 C   0  0  0  0  0  0  0  0  0  0  0  0
   -1.9739    0.6329    0.5993 N   0  0  0  0  0  0  0  0  0  0  0  0
   -3.3118    0.5621    0.6454 C   0  0  0  0  0  0  0  0  0  0  0  0
   -7.0117   -0.7475    1.3904 C   0  0  0  0  0  0  0  0  0  0  0  0
   -8.1842   -1.3501    0.6863 C   0  0  0  0  0  0  0  0  0  0  0  0
   -8.8326   -2.3267    1.6478 C   0  0  0  0  0  0  0  0  0  0  0  0
   -7.6800   -2.1741   -0.4790 C   0  0  0  0  0  0  0  0  0  0  0  0
  -10.1773   -1.5515   -2.5998 H   0  0  0  0  0  0  0  0  0  0  0  0
  -10.5485    0.1790   -2.5230 H   0  0  0  0  0  0  0  0  0  0  0  0
   -8.8550   -0.4123   -2.2764 H   0  0  0  0  0  0  0  0  0  0  0  0
  -11.1398   -0.2908   -0.2706 H   0  0  0  0  0  0  0  0  0  0  0  0
  -10.3446   -1.8559   -0.3918 H   0  0  0  0  0  0  0  0  0  0  0  0
   -9.3095    0.9266    2.3669 H   0  0  0  0  0  0  0  0  0  0  0  0
   -9.4546    2.4983    1.5684 H   0  0  0  0  0  0  0  0  0  0  0  0
   -7.8265    1.9816    1.9989 H   0  0  0  0  0  0  0  0  0  0  0  0
  -10.5827    1.6251   -0.6246 H   0  0  0  0  0  0  0  0  0  0  0  0
   -9.0822    1.8799   -1.6983 H   0  0  0  0  0  0  0  0  0  0  0  0
   -9.4027    2.8874   -0.2933 H   0  0  0  0  0  0  0  0  0  0  0  0
   -7.1356    0.9204   -1.2555 H   0  0  0  0  0  0  0  0  0  0  0  0
   -6.9381    2.2304   -0.0941 H   0  0  0  0  0  0  0  0  0  0  0  0
   -5.7921    0.9639    1.3400 H   0  0  0  0  0  0  0  0  0  0  0  0
   -3.8202   -1.4326   -1.9927 H   0  0  0  0  0  0  0  0  0  0  0  0
   -1.3207   -1.2546   -2.0181 H   0  0  0  0  0  0  0  0  0  0  0  0
    0.3331    1.3376    1.3370 H   0  0  0  0  0  0  0  0  0  0  0  0
    2.9570   -0.0777   -0.9740 H   0  0  0  0  0  0  0  0  0  0  0  0
    5.3028    0.3197   -0.6461 H   0  0  0  0  0  0  0  0  0  0  0  0
    6.7121    2.3719    2.2211 H   0  0  0  0  0  0  0  0  0  0  0  0
    9.0895    2.2628    1.7818 H   0  0  0  0  0  0  0  0  0  0  0  0
   10.5874   -0.6702    1.0345 H   0  0  0  0  0  0  0  0  0  0  0  0
   13.2204   -0.6580   -2.8780 H   0  0  0  0  0  0  0  0  0  0  0  0
   14.2995    0.2248   -1.6691 H   0  0  0  0  0  0  0  0  0  0  0  0
   14.5054   -1.5128   -1.9501 H   0  0  0  0  0  0  0  0  0  0  0  0
   12.6096   -1.5697    1.2082 H   0  0  0  0  0  0  0  0  0  0  0  0
   14.1304   -2.1220    0.4291 H   0  0  0  0  0  0  0  0  0  0  0  0
   13.8867   -0.3702    0.9454 H   0  0  0  0  0  0  0  0  0  0  0  0
   11.0339   -1.9343   -1.7089 H   0  0  0  0  0  0  0  0  0  0  0  0
   12.4995   -2.9139   -1.8866 H   0  0  0  0  0  0  0  0  0  0  0  0
   11.6478   -2.7433   -0.2489 H   0  0  0  0  0  0  0  0  0  0  0  0
    4.5122    2.6278    2.7975 H   0  0  0  0  0  0  0  0  0  0  0  0
    2.0997    2.2281    2.4750 H   0  0  0  0  0  0  0  0  0  0  0  0
   -3.8643    1.1049    1.4380 H   0  0  0  0  0  0  0  0  0  0  0  0
   -7.2638   -0.3106    2.3733 H   0  0  0  0  0  0  0  0  0  0  0  0
   -6.2545   -1.5589    1.6023 H   0  0  0  0  0  0  0  0  0  0  0  0
   -8.5375   -2.0838    2.7090 H   0  0  0  0  0  0  0  0  0  0  0  0
   -8.4511   -3.3521    1.4729 H   0  0  0  0  0  0  0  0  0  0  0  0
   -9.9302   -2.3665    1.5395 H   0  0  0  0  0  0  0  0  0  0  0  0
   -7.0337   -3.0058   -0.0910 H   0  0  0  0  0  0  0  0  0  0  0  0
   -8.5439   -2.6335   -1.0427 H   0  0  0  0  0  0  0  0  0  0  0  0
   -7.0911   -1.5921   -1.2016 H   0  0  0  0  0  0  0  0  0  0  0  0
  1  2  1  0
  2  3  1  0
  3  4  1  0
  4  5  1  0
  4  6  1  0
  4  7  1  0
  7  8  1  0
  8  9  1  0
  9 10  1  0
 10 11  2  0
 11 12  1  0
 12 13  2  0
 13 14  1  0
 14 15  2  0
 14 16  1  0
 16 17  1  0
 17 18  2  0
 18 19  1  0
 19 20  2  0
 20 21  1  0
 21 22  1  0
 22 23  2  0
 22 24  1  0
 24 25  1  0
 25 26  1  0
 26 27  2  0
 27 28  1  0
 28 29  1  0
 28 30  1  0
 28 31  1  0
 27 32  1  0
 32 33  1  0
 20 34  1  0
 34 35  2  0
 13 36  1  0
 36 37  2  0
  8 38  1  0
 38 39  1  0
 39 40  1  0
 39 41  1  0
 39  3  1  0
 37 10  1  0
 35 17  1  0
 33 25  2  0
  1 42  1  0
  1 43  1  0
  1 44  1  0
  2 45  1  0
  2 46  1  0
  5 47  1  0
  5 48  1  0
  5 49  1  0
  6 50  1  0
  6 51  1  0
  6 52  1  0
  7 53  1  0
  7 54  1  0
  8 55  1  0
 11 56  1  0
 12 57  1  0
 16 58  1  0
 18 59  1  0
 19 60  1  0
 21 61  1  0
 24 62  1  0
 26 63  1  0
 29 64  1  0
 29 65  1  0
 29 66  1  0
 30 67  1  0
 30 68  1  0
 30 69  1  0
 31 70  1  0
 31 71  1  0
 31 72  1  0
 34 73  1  0
 35 74  1  0
 37 75  1  0
 38 76  1  0
 38 77  1  0
 40 78  1  0
 40 79  1  0
 40 80  1  0
 41 81  1  0
 41 82  1  0
 41 83  1  0
M  END
$$$$
