
     RDKit          3D

 40 40  0  0  0  0  0  0  0  0999 V2000
    0.0022   -3.5182   -0.9602 C   0  0  0  0  0  0  0  0  0  0  0  0
   -0.4848   -2.3460   -0.3354 O   0  0  0  0  0  0  0  0  0  0  0  0
    0.4490   -1.4079    0.0855 C   0  0  0  0  0  0  0  0  0  0  0  0
    1.8037   -1.5950   -0.0905 C   0  0  0  0  0  0  0  0  0  0  0  0
    2.7425   -0.6463    0.3354 C   0  0  0  0  0  0  0  0  0  0  0  0
    4.0847   -1.0043    0.0982 O   0  0  0  0  0  0  0  0  0  0  0  0
    2.3533    0.5117    0.9416 C   0  0  0  0  0  0  0  0  0  0  0  0
    3.2273    1.6088    1.2940 C   0  0  0  0  0  0  0  0  0  0  0  0
    4.1277    2.1984    0.5888 C   0  0  0  0  0  0  0  0  0  0  0  0
    4.4232    1.8607   -0.7692 C   0  0  0  0  0  0  0  0  0  0  0  0
    3.8987    1.0484   -1.5403 O   0  0  0  0  0  0  0  0  0  0  0  0
    5.5055    2.5712   -1.3503 O   0  0  0  0  0  0  0  0  0  0  0  0
    0.9595    0.6745    1.1105 C   0  0  0  0  0  0  0  0  0  0  0  0
    0.0372   -0.2424    0.7024 C   0  0  0  0  0  0  0  0  0  0  0  0
   -1.4311   -0.0643    0.8838 C   0  0  1  0  0  0  0  0  0  0  0  0
   -1.7332    0.6559    2.0335 O   0  0  0  0  0  0  0  0  0  0  0  0
   -2.0669    0.6310   -0.2840 C   0  0  0  0  0  0  0  0  0  0  0  0
   -3.5431    0.7612   -0.0032 C   0  0  0  0  0  0  0  0  0  0  0  0
   -4.2653    1.4612   -1.1486 C   0  0  0  0  0  0  0  0  0  0  0  0
   -4.2196   -0.5823    0.1710 C   0  0  0  0  0  0  0  0  0  0  0  0
   -0.8003   -4.1721   -1.3293 H   0  0  0  0  0  0  0  0  0  0  0  0
    0.6882   -4.0898   -0.2877 H   0  0  0  0  0  0  0  0  0  0  0  0
    0.6428   -3.1815   -1.8108 H   0  0  0  0  0  0  0  0  0  0  0  0
    2.1269   -2.5103   -0.5749 H   0  0  0  0  0  0  0  0  0  0  0  0
    4.4217   -1.8547    0.5411 H   0  0  0  0  0  0  0  0  0  0  0  0
    3.1155    2.0203    2.3383 H   0  0  0  0  0  0  0  0  0  0  0  0
    4.6868    3.0191    1.1104 H   0  0  0  0  0  0  0  0  0  0  0  0
    6.0251    2.1235   -2.1181 H   0  0  0  0  0  0  0  0  0  0  0  0
    0.6278    1.5736    1.5873 H   0  0  0  0  0  0  0  0  0  0  0  0
   -1.9278   -1.0715    0.9688 H   0  0  0  0  0  0  0  0  0  0  0  0
   -1.5224    0.1245    2.8622 H   0  0  0  0  0  0  0  0  0  0  0  0
   -1.6724    1.6460   -0.4403 H   0  0  0  0  0  0  0  0  0  0  0  0
   -1.9711    0.0647   -1.2349 H   0  0  0  0  0  0  0  0  0  0  0  0
   -3.7518    1.3639    0.9078 H   0  0  0  0  0  0  0  0  0  0  0  0
   -4.5159    2.5130   -0.8996 H   0  0  0  0  0  0  0  0  0  0  0  0
   -5.2244    0.9616   -1.4001 H   0  0  0  0  0  0  0  0  0  0  0  0
   -3.5936    1.5242   -2.0537 H   0  0  0  0  0  0  0  0  0  0  0  0
   -5.3187   -0.3772    0.1571 H   0  0  0  0  0  0  0  0  0  0  0  0
   -3.9487   -1.2603   -0.6830 H   0  0  0  0  0  0  0  0  0  0  0  0
   -3.9583   -0.9933    1.1488 H   0  0  0  0  0  0  0  0  0  0  0  0
  1  2  1  0
  2  3  1  0
  3  4  2  0
  4  5  1  0
  5  6  1  0
  5  7  2  0
  7  8  1  0
  8  9  2  0
  9 10  1  0
 10 11  2  0
 10 12  1  0
  7 13  1  0
 13 14  2  0
 14 15  1  0
 15 16  1  0
 15 17  1  0
 17 18  1  0
 18 19  1  0
 18 20  1  0
 14  3  1  0
  1 21  1  0
  1 22  1  0
  1 23  1  0
  4 24  1  0
  6 25  1  0
  8 26  1  0
  9 27  1  0
 12 28  1  0
 13 29  1  0
 15 30  1  1
 16 31  1  0
 17 32  1  0
 17 33  1  0
 18 34  1  0
 19 35  1  0
 19 36  1  0
 19 37  1  0
 20 38  1  0
 20 39  1  0
 20 40  1  0
M  END
$$$$
