
     RDKit          3D

 53 55  0  0  0  0  0  0  0  0999 V2000
   -3.6511    2.3324    0.7458 C   0  0  0  0  0  0  0  0  0  0  0  0
   -3.1620    1.8746   -0.5145 N   0  0  0  0  0  0  0  0  0  0  0  0
   -2.1203    0.9063   -0.4586 C   0  0  0  0  0  0  0  0  0  0  0  0
   -2.5538   -0.4301    0.0775 C   0  0  0  0  0  0  0  0  0  0  0  0
   -1.3155   -1.3509    0.0716 C   0  0  1  0  0  0  0  0  0  0  0  0
   -0.3704   -0.7445    0.8924 O   0  0  0  0  0  0  0  0  0  0  0  0
    0.8910   -0.3471    0.5789 C   0  0  0  0  0  0  0  0  0  0  0  0
    1.4006   -0.5145   -0.6709 C   0  0  0  0  0  0  0  0  0  0  0  0
    2.6863   -0.1043   -0.9723 C   0  0  0  0  0  0  0  0  0  0  0  0
    3.4674    0.4793   -0.0096 C   0  0  0  0  0  0  0  0  0  0  0  0
    4.8192    0.9151   -0.3002 C   0  0  0  0  0  0  0  0  0  0  0  0
    5.5975    0.2366   -1.2354 C   0  0  0  0  0  0  0  0  0  0  0  0
    6.8792    0.6238   -1.5307 C   0  0  0  0  0  0  0  0  0  0  0  0
    7.4480    1.7086   -0.9066 C   0  0  0  0  0  0  0  0  0  0  0  0
    6.6947    2.4100    0.0355 C   0  0  0  0  0  0  0  0  0  0  0  0
    5.4061    1.9978    0.3135 C   0  0  0  0  0  0  0  0  0  0  0  0
    2.9652    0.6574    1.2674 C   0  0  0  0  0  0  0  0  0  0  0  0
    1.6909    0.2467    1.5513 C   0  0  0  0  0  0  0  0  0  0  0  0
   -1.7488   -2.6133    0.7295 C   0  0  0  0  0  0  0  0  0  0  0  0
   -1.8567   -3.7543   -0.0128 C   0  0  0  0  0  0  0  0  0  0  0  0
   -2.2613   -4.9378    0.6018 C   0  0  0  0  0  0  0  0  0  0  0  0
   -2.5470   -4.9428    1.9477 C   0  0  0  0  0  0  0  0  0  0  0  0
   -2.9414   -6.1076    2.5351 F   0  0  0  0  0  0  0  0  0  0  0  0
   -2.4388   -3.7884    2.7035 C   0  0  0  0  0  0  0  0  0  0  0  0
   -2.0310   -2.6113    2.0663 C   0  0  0  0  0  0  0  0  0  0  0  0
   -4.1702    1.6275   -1.4962 C   0  0  0  0  0  0  0  0  0  0  0  0
   -4.7792    2.9120   -1.8965 C   0  0  0  0  0  0  0  0  0  0  0  0
   -5.6984    2.9330   -2.7452 O   0  0  0  0  0  0  0  0  0  0  0  0
   -4.3510    4.1025   -1.3484 O   0  0  0  0  0  0  0  0  0  0  0  0
   -4.7461    2.1043    0.8919 H   0  0  0  0  0  0  0  0  0  0  0  0
   -3.1024    1.9694    1.6157 H   0  0  0  0  0  0  0  0  0  0  0  0
   -3.5868    3.4463    0.7599 H   0  0  0  0  0  0  0  0  0  0  0  0
   -1.6898    0.7862   -1.4704 H   0  0  0  0  0  0  0  0  0  0  0  0
   -1.3017    1.3204    0.1773 H   0  0  0  0  0  0  0  0  0  0  0  0
   -2.9010   -0.3630    1.1072 H   0  0  0  0  0  0  0  0  0  0  0  0
   -3.2865   -0.8844   -0.6240 H   0  0  0  0  0  0  0  0  0  0  0  0
   -0.9919   -1.5311   -0.9709 H   0  0  0  0  0  0  0  0  0  0  0  0
    0.8281   -0.9701   -1.4720 H   0  0  0  0  0  0  0  0  0  0  0  0
    3.0971   -0.2340   -1.9611 H   0  0  0  0  0  0  0  0  0  0  0  0
    5.1522   -0.6264   -1.7361 H   0  0  0  0  0  0  0  0  0  0  0  0
    7.4723    0.0905   -2.2559 H   0  0  0  0  0  0  0  0  0  0  0  0
    8.4588    2.0336   -1.1230 H   0  0  0  0  0  0  0  0  0  0  0  0
    7.1434    3.2477    0.5124 H   0  0  0  0  0  0  0  0  0  0  0  0
    4.8151    2.5374    1.0433 H   0  0  0  0  0  0  0  0  0  0  0  0
    3.5843    1.1152    2.0129 H   0  0  0  0  0  0  0  0  0  0  0  0
    1.2684    0.3724    2.5439 H   0  0  0  0  0  0  0  0  0  0  0  0
   -1.6377   -3.7744   -1.0701 H   0  0  0  0  0  0  0  0  0  0  0  0
   -2.3376   -5.8246   -0.0128 H   0  0  0  0  0  0  0  0  0  0  0  0
   -2.6702   -3.8282    3.7552 H   0  0  0  0  0  0  0  0  0  0  0  0
   -1.9468   -1.7091    2.6562 H   0  0  0  0  0  0  0  0  0  0  0  0
   -3.6639    1.2133   -2.3946 H   0  0  0  0  0  0  0  0  0  0  0  0
   -4.9287    0.8768   -1.1958 H   0  0  0  0  0  0  0  0  0  0  0  0
   -4.9779    4.9151   -1.2385 H   0  0  0  0  0  0  0  0  0  0  0  0
  1  2  1  0
  2  3  1  0
  3  4  1  0
  4  5  1  0
  5  6  1  0
  6  7  1  0
  7  8  2  0
  8  9  1  0
  9 10  2  0
 10 11  1  0
 11 12  2  0
 12 13  1  0
 13 14  2  0
 14 15  1  0
 15 16  2  0
 10 17  1  0
 17 18  2  0
  5 19  1  0
 19 20  2  0
 20 21  1  0
 21 22  2  0
 22 23  1  0
 22 24  1  0
 24 25  2  0
  2 26  1  0
 26 27  1  0
 27 28  2  0
 27 29  1  0
 18  7  1  0
 25 19  1  0
 16 11  1  0
  1 30  1  0
  1 31  1  0
  1 32  1  0
  3 33  1  0
  3 34  1  0
  4 35  1  0
  4 36  1  0
  5 37  1  6
  8 38  1  0
  9 39  1  0
 12 40  1  0
 13 41  1  0
 14 42  1  0
 15 43  1  0
 16 44  1  0
 17 45  1  0
 18 46  1  0
 20 47  1  0
 21 48  1  0
 24 49  1  0
 25 50  1  0
 26 51  1  0
 26 52  1  0
 29 53  1  0
M  END
$$$$
