
     RDKit          3D

 56 59  0  0  0  0  0  0  0  0999 V2000
    5.9520   -1.1609   -1.5272 C   0  0  0  0  0  0  0  0  0  0  0  0
    5.0347   -0.7921   -0.3865 C   0  0  0  0  0  0  0  0  0  0  0  0
    4.3394   -2.0575    0.0683 C   0  0  0  0  0  0  0  0  0  0  0  0
    5.8825   -0.2904    0.7587 C   0  0  0  0  0  0  0  0  0  0  0  0
    4.0585    0.2314   -0.8462 C   0  0  0  0  0  0  0  0  0  0  0  0
    4.1052    0.6497   -2.0415 O   0  0  0  0  0  0  0  0  0  0  0  0
    3.0696    0.7575    0.0195 N   0  0  0  0  0  0  0  0  0  0  0  0
    2.1562    1.7468   -0.4912 C   0  0  0  0  0  0  0  0  0  0  0  0
    1.1732    2.2091    0.5097 C   0  0  0  0  0  0  0  0  0  0  0  0
    1.3427    3.2680    1.3646 C   0  0  0  0  0  0  0  0  0  0  0  0
    0.2199    3.3443    2.0965 N   0  0  0  0  0  0  0  0  0  0  0  0
   -0.6108    2.3644    1.7037 C   0  0  0  0  0  0  0  0  0  0  0  0
   -1.8801    2.0047    2.1268 C   0  0  0  0  0  0  0  0  0  0  0  0
   -2.4988    0.9132    1.5054 C   0  0  0  0  0  0  0  0  0  0  0  0
   -1.8775    0.2080    0.5021 C   0  0  0  0  0  0  0  0  0  0  0  0
   -2.5182   -0.9340   -0.1645 C   0  0  0  0  0  0  0  0  0  0  0  0
   -3.5905   -0.8424   -1.0303 C   0  0  0  0  0  0  0  0  0  0  0  0
   -4.3361    0.3356   -1.4856 C   0  0  0  0  0  0  0  0  0  0  0  0
   -5.2174    0.9688   -0.6464 C   0  0  0  0  0  0  0  0  0  0  0  0
   -5.9023    2.0678   -1.0710 C   0  0  0  0  0  0  0  0  0  0  0  0
   -5.7104    2.5435   -2.3432 C   0  0  0  0  0  0  0  0  0  0  0  0
   -6.4078    3.6496   -2.7496 F   0  0  0  0  0  0  0  0  0  0  0  0
   -4.8378    1.9473   -3.2292 C   0  0  0  0  0  0  0  0  0  0  0  0
   -4.1615    0.8310   -2.7546 C   0  0  0  0  0  0  0  0  0  0  0  0
   -3.8341   -2.1374   -1.3992 N   0  0  0  0  0  0  0  0  0  0  0  0
   -2.9519   -2.9372   -0.7819 C   0  0  0  0  0  0  0  0  0  0  0  0
   -2.1219   -2.2154   -0.0077 N   0  0  0  0  0  0  0  0  0  0  0  0
   -1.0404   -2.7247    0.8136 C   0  0  0  0  0  0  0  0  0  0  0  0
   -1.5426   -3.0720    2.2093 C   0  0  0  0  0  0  0  0  0  0  0  0
   -2.0649   -1.9545    2.8256 F   0  0  0  0  0  0  0  0  0  0  0  0
   -0.5480   -3.5589    3.0043 F   0  0  0  0  0  0  0  0  0  0  0  0
   -0.6457    0.6115    0.1409 N   0  0  0  0  0  0  0  0  0  0  0  0
   -0.0334    1.6547    0.7226 N   0  0  0  0  0  0  0  0  0  0  0  0
    5.4700   -1.9248   -2.1957 H   0  0  0  0  0  0  0  0  0  0  0  0
    6.2450   -0.2847   -2.1329 H   0  0  0  0  0  0  0  0  0  0  0  0
    6.8851   -1.5763   -1.0716 H   0  0  0  0  0  0  0  0  0  0  0  0
    3.8991   -2.6098   -0.7967 H   0  0  0  0  0  0  0  0  0  0  0  0
    3.5287   -1.8769    0.7818 H   0  0  0  0  0  0  0  0  0  0  0  0
    5.1063   -2.6941    0.5562 H   0  0  0  0  0  0  0  0  0  0  0  0
    6.2349    0.7287    0.4738 H   0  0  0  0  0  0  0  0  0  0  0  0
    5.3226   -0.2496    1.7106 H   0  0  0  0  0  0  0  0  0  0  0  0
    6.7707   -0.9587    0.8071 H   0  0  0  0  0  0  0  0  0  0  0  0
    3.0546    0.3957    0.9950 H   0  0  0  0  0  0  0  0  0  0  0  0
    2.7083    2.6251   -0.9141 H   0  0  0  0  0  0  0  0  0  0  0  0
    1.5693    1.3437   -1.3578 H   0  0  0  0  0  0  0  0  0  0  0  0
    2.2007    3.9438    1.4666 H   0  0  0  0  0  0  0  0  0  0  0  0
   -2.3889    2.5428    2.9144 H   0  0  0  0  0  0  0  0  0  0  0  0
   -3.4813    0.5928    1.8029 H   0  0  0  0  0  0  0  0  0  0  0  0
   -5.3669    0.5711    0.3775 H   0  0  0  0  0  0  0  0  0  0  0  0
   -6.5861    2.5294   -0.3621 H   0  0  0  0  0  0  0  0  0  0  0  0
   -4.6899    2.3282   -4.2343 H   0  0  0  0  0  0  0  0  0  0  0  0
   -3.4757    0.3730   -3.4679 H   0  0  0  0  0  0  0  0  0  0  0  0
   -2.8574   -4.0282   -0.8475 H   0  0  0  0  0  0  0  0  0  0  0  0
   -0.5625   -3.6196    0.3667 H   0  0  0  0  0  0  0  0  0  0  0  0
   -0.2670   -1.9245    0.9622 H   0  0  0  0  0  0  0  0  0  0  0  0
   -2.3216   -3.8563    2.0907 H   0  0  0  0  0  0  0  0  0  0  0  0
  1  2  1  0
  2  3  1  0
  2  4  1  0
  2  5  1  0
  5  6  2  0
  5  7  1  0
  7  8  1  0
  8  9  1  0
  9 10  2  0
 10 11  1  0
 11 12  2  0
 12 13  1  0
 13 14  2  0
 14 15  1  0
 15 16  1  0
 16 17  2  0
 17 18  1  0
 18 19  2  0
 19 20  1  0
 20 21  2  0
 21 22  1  0
 21 23  1  0
 23 24  2  0
 17 25  1  0
 25 26  2  0
 26 27  1  0
 27 28  1  0
 28 29  1  0
 29 30  1  0
 29 31  1  0
 15 32  2  0
 32 33  1  0
 33  9  1  0
 33 12  1  0
 27 16  1  0
 24 18  1  0
  1 34  1  0
  1 35  1  0
  1 36  1  0
  3 37  1  0
  3 38  1  0
  3 39  1  0
  4 40  1  0
  4 41  1  0
  4 42  1  0
  7 43  1  0
  8 44  1  0
  8 45  1  0
 10 46  1  0
 13 47  1  0
 14 48  1  0
 19 49  1  0
 20 50  1  0
 23 51  1  0
 24 52  1  0
 26 53  1  0
 28 54  1  0
 28 55  1  0
 29 56  1  0
M  END
$$$$
