
     RDKit          3D

 46 50  0  0  0  0  0  0  0  0999 V2000
    0.3096   -0.5820   -1.7153 C   0  0  2  0  0  0  0  0  0  0  0  0
    1.5987   -0.2311   -1.1800 O   0  0  0  0  0  0  0  0  0  0  0  0
    1.4601    0.0795    0.1638 C   0  0  0  0  0  0  0  0  0  0  0  0
    2.3803    0.2080    1.2074 C   0  0  0  0  0  0  0  0  0  0  0  0
    3.6230    0.0503    1.1098 O   0  0  0  0  0  0  0  0  0  0  0  0
    4.9095   -0.1088    1.0273 C   0  0  0  0  0  0  0  0  0  0  0  0
    5.3986   -0.4757   -0.3982 C   0  0  0  0  0  0  0  0  0  0  0  0
    1.8105    0.5376    2.4231 C   0  0  0  0  0  0  0  0  0  0  0  0
    0.4454    0.7351    2.6414 C   0  0  0  0  0  0  0  0  0  0  0  0
   -0.4211    0.5976    1.5832 C   0  0  0  0  0  0  0  0  0  0  0  0
    0.1181    0.2758    0.3878 C   0  0  0  0  0  0  0  0  0  0  0  0
   -0.6961    0.0945   -0.8457 C   0  0  1  0  0  0  0  0  0  0  0  0
   -1.1489    1.4321   -1.3627 C   0  0  0  0  0  0  0  0  0  0  0  0
   -2.6525    1.5721   -1.3736 C   0  0  0  0  0  0  0  0  0  0  0  0
   -3.3096    1.0469   -0.2566 N   0  0  0  0  0  0  0  0  0  0  0  0
   -4.4538    1.7054    0.2530 C   0  0  0  0  0  0  0  0  0  0  0  0
   -2.6407    0.1206    0.5764 C   0  0  2  0  0  0  0  0  0  0  0  0
   -1.8862    0.7783    1.6800 C   0  0  0  0  0  0  0  0  0  0  0  0
   -1.8293   -0.7467   -0.3566 C   0  0  2  0  0  0  0  0  0  0  0  0
   -1.2526   -1.9313    0.3110 C   0  0  0  0  0  0  0  0  0  0  0  0
   -0.3073   -2.5896   -0.3565 C   0  0  0  0  0  0  0  0  0  0  0  0
    0.0649   -2.0623   -1.6989 C   0  0  2  0  0  0  0  0  0  0  0  0
    1.1614   -2.7600   -2.2210 O   0  0  0  0  0  0  0  0  0  0  0  0
    0.2805   -0.2393   -2.7644 H   0  0  0  0  0  0  0  0  0  0  0  0
    5.4677    0.8459    1.3228 H   0  0  0  0  0  0  0  0  0  0  0  0
    5.3289   -0.9123    1.7308 H   0  0  0  0  0  0  0  0  0  0  0  0
    5.1787   -1.5544   -0.5770 H   0  0  0  0  0  0  0  0  0  0  0  0
    4.8208    0.1679   -1.0943 H   0  0  0  0  0  0  0  0  0  0  0  0
    6.4847   -0.2393   -0.4509 H   0  0  0  0  0  0  0  0  0  0  0  0
    2.4435    0.6644    3.3163 H   0  0  0  0  0  0  0  0  0  0  0  0
    0.0552    0.9921    3.6163 H   0  0  0  0  0  0  0  0  0  0  0  0
   -0.7449    1.6839   -2.3638 H   0  0  0  0  0  0  0  0  0  0  0  0
   -0.7864    2.2338   -0.6842 H   0  0  0  0  0  0  0  0  0  0  0  0
   -3.0020    1.0314   -2.2930 H   0  0  0  0  0  0  0  0  0  0  0  0
   -2.8873    2.6388   -1.5460 H   0  0  0  0  0  0  0  0  0  0  0  0
   -4.4983    1.6544    1.3507 H   0  0  0  0  0  0  0  0  0  0  0  0
   -5.3606    1.1779   -0.1482 H   0  0  0  0  0  0  0  0  0  0  0  0
   -4.5146    2.7524   -0.1062 H   0  0  0  0  0  0  0  0  0  0  0  0
   -3.4129   -0.5561    1.0313 H   0  0  0  0  0  0  0  0  0  0  0  0
   -2.1959    0.4354    2.6905 H   0  0  0  0  0  0  0  0  0  0  0  0
   -2.0865    1.8747    1.6518 H   0  0  0  0  0  0  0  0  0  0  0  0
   -2.4859   -1.0610   -1.1658 H   0  0  0  0  0  0  0  0  0  0  0  0
   -1.6108   -2.2194    1.3016 H   0  0  0  0  0  0  0  0  0  0  0  0
    0.1088   -3.4653    0.1539 H   0  0  0  0  0  0  0  0  0  0  0  0
   -0.7786   -2.2394   -2.4166 H   0  0  0  0  0  0  0  0  0  0  0  0
    1.5140   -3.4128   -1.5680 H   0  0  0  0  0  0  0  0  0  0  0  0
  1  2  1  0
  2  3  1  0
  3  4  2  0
  4  5  1  0
  5  6  1  0
  6  7  1  0
  4  8  1  0
  8  9  2  0
  9 10  1  0
 10 11  2  0
 11 12  1  0
 12 13  1  6
 13 14  1  0
 14 15  1  0
 15 16  1  0
 15 17  1  0
 17 18  1  0
 17 19  1  0
 19 20  1  0
 20 21  2  0
 21 22  1  0
 22 23  1  0
 12  1  1  0
 19 12  1  0
 22  1  1  0
 11  3  1  0
 18 10  1  0
  1 24  1  6
  6 25  1  0
  6 26  1  0
  7 27  1  0
  7 28  1  0
  7 29  1  0
  8 30  1  0
  9 31  1  0
 13 32  1  0
 13 33  1  0
 14 34  1  0
 14 35  1  0
 16 36  1  0
 16 37  1  0
 16 38  1  0
 17 39  1  1
 18 40  1  0
 18 41  1  0
 19 42  1  6
 20 43  1  0
 21 44  1  0
 22 45  1  6
 23 46  1  0
M  END
$$$$
