
     RDKit          3D

125128  0  0  0  0  0  0  0  0999 V2000
    9.8425    0.6939    0.1758 C   0  0  0  0  0  0  0  0  0  0  0  0
    9.3159   -0.6898    0.4535 C   0  0  0  0  0  0  0  0  0  0  0  0
    8.6946   -1.2002   -0.8131 C   0  0  1  0  0  0  0  0  0  0  0  0
    8.2046   -2.4940   -0.5711 O   0  0  0  0  0  0  0  0  0  0  0  0
    8.8793   -3.4281   -1.3494 C   0  0  0  0  0  0  0  0  0  0  0  0
    7.5351   -0.3812   -1.3165 C   0  0  1  0  0  0  0  0  0  0  0  0
    7.0692   -1.0214   -2.6284 C   0  0  0  0  0  0  0  0  0  0  0  0
    6.3641   -0.4081   -0.3601 C   0  0  0  0  0  0  0  0  0  0  0  0
    6.5993   -1.2214    0.5128 O   0  0  0  0  0  0  0  0  0  0  0  0
    5.2592    0.5452   -0.7314 C   0  0  0  0  0  0  0  0  0  0  0  0
    4.0920    0.3597    0.2053 C   0  0  0  0  0  0  0  0  0  0  0  0
    3.4989   -1.0157    0.1078 C   0  0  2  0  0  0  0  0  0  0  0  0
    2.9885   -1.2721   -1.2702 C   0  0  0  0  0  0  0  0  0  0  0  0
    2.6576   -1.4466    1.2437 C   0  0  2  0  0  0  0  0  0  0  0  0
    1.4595   -0.6927    1.6118 C   0  0  0  0  0  0  0  0  0  0  0  0
    0.3424   -0.5206    0.6627 C   0  0  2  0  0  0  0  0  0  0  0  0
   -0.6629    0.2169    1.3259 O   0  0  0  0  0  0  0  0  0  0  0  0
   -1.2178    1.4131    1.0397 C   0  0  0  0  0  0  0  0  0  0  0  0
   -0.8925    2.1222    0.0409 O   0  0  0  0  0  0  0  0  0  0  0  0
   -2.2186    1.6630    2.1041 C   0  0  0  0  0  0  0  0  0  0  0  0
   -2.9386    2.9536    2.0323 C   0  0  1  0  0  0  0  0  0  0  0  0
   -1.9801    3.9928    2.1236 O   0  0  0  0  0  0  0  0  0  0  0  0
   -3.6550    3.1477    0.7540 C   0  0  0  0  0  0  0  0  0  0  0  0
   -4.6637    2.0962    0.3821 C   0  0  2  0  0  0  0  0  0  0  0  0
   -4.1572    0.8517    0.1403 O   0  0  0  0  0  0  0  0  0  0  0  0
   -5.5321    2.6526   -0.7127 C   0  0  0  0  0  0  0  0  0  0  0  0
   -6.5112    1.6796   -1.2238 C   0  0  0  0  0  0  0  0  0  0  0  0
   -6.3942    0.5383   -0.7877 O   0  0  0  0  0  0  0  0  0  0  0  0
   -7.5743    2.0405   -2.2034 C   0  0  2  0  0  0  0  0  0  0  0  0
   -7.0615    2.7415   -3.4263 C   0  0  0  0  0  0  0  0  0  0  0  0
   -8.7491    2.7297   -1.5461 C   0  0  2  0  0  0  0  0  0  0  0  0
   -8.3052    3.8677   -0.9280 O   0  0  0  0  0  0  0  0  0  0  0  0
   -8.8787    5.0482   -1.3440 C   0  0  0  0  0  0  0  0  0  0  0  0
   -9.4079    1.7506   -0.6190 C   0  0  0  0  0  0  0  0  0  0  0  0
  -10.3274    1.8321    0.4305 C   0  0  0  0  0  0  0  0  0  0  0  0
  -10.5133    0.5789    0.8578 O   0  0  0  0  0  0  0  0  0  0  0  0
   -9.7681   -0.2200    0.1316 C   0  0  0  0  0  0  0  0  0  0  0  0
   -9.0622    0.4406   -0.7977 N   0  0  0  0  0  0  0  0  0  0  0  0
   -9.6756   -1.6622    0.2701 C   0  0  0  0  0  0  0  0  0  0  0  0
  -10.4533   -2.7639    0.5415 C   0  0  0  0  0  0  0  0  0  0  0  0
   -9.6624   -3.8279    0.4994 O   0  0  0  0  0  0  0  0  0  0  0  0
   -8.4394   -3.4434    0.2176 C   0  0  0  0  0  0  0  0  0  0  0  0
   -8.4010   -2.1102    0.0675 N   0  0  0  0  0  0  0  0  0  0  0  0
   -7.2332   -4.2102    0.0610 C   0  0  0  0  0  0  0  0  0  0  0  0
   -6.9134   -5.3934   -0.5453 C   0  0  0  0  0  0  0  0  0  0  0  0
   -5.6113   -5.6185   -0.3661 O   0  0  0  0  0  0  0  0  0  0  0  0
   -5.1365   -4.6123    0.3269 C   0  0  0  0  0  0  0  0  0  0  0  0
   -6.1268   -3.7174    0.6078 N   0  0  0  0  0  0  0  0  0  0  0  0
   -3.7498   -4.3985    0.7786 C   0  0  0  0  0  0  0  0  0  0  0  0
   -2.6202   -3.8965    0.2307 C   0  0  0  0  0  0  0  0  0  0  0  0
   -1.4299   -3.8848    1.0989 C   0  0  0  0  0  0  0  0  0  0  0  0
   -0.8381   -2.5663    1.4158 C   0  0  0  0  0  0  0  0  0  0  0  0
   -0.3022   -1.8244    0.2264 C   0  0  1  0  0  0  0  0  0  0  0  0
   -1.4675   -1.4485   -0.6625 C   0  0  0  0  0  0  0  0  0  0  0  0
    3.5125   -1.4092    2.3882 O   0  0  0  0  0  0  0  0  0  0  0  0
    3.7352   -2.7155    2.8263 C   0  0  0  0  0  0  0  0  0  0  0  0
    9.6075    1.9174    0.6732 C   0  0  0  0  0  0  0  0  0  0  0  0
   10.3729    2.9633    0.0751 N   0  0  0  0  0  0  0  0  0  0  0  0
   11.8122    2.7396    0.1022 C   0  0  0  0  0  0  0  0  0  0  0  0
    9.6774    4.1135   -0.4855 C   0  0  0  0  0  0  0  0  0  0  0  0
    8.9469    4.7545    0.5090 O   0  0  0  0  0  0  0  0  0  0  0  0
   10.5702    0.5518   -0.6249 H   0  0  0  0  0  0  0  0  0  0  0  0
   10.1581   -1.3734    0.7169 H   0  0  0  0  0  0  0  0  0  0  0  0
    8.6200   -0.6635    1.2772 H   0  0  0  0  0  0  0  0  0  0  0  0
    9.4973   -1.2192   -1.5733 H   0  0  0  0  0  0  0  0  0  0  0  0
    8.7828   -3.2530   -2.4271 H   0  0  0  0  0  0  0  0  0  0  0  0
    9.9561   -3.4654   -1.0674 H   0  0  0  0  0  0  0  0  0  0  0  0
    8.4640   -4.4300   -1.0884 H   0  0  0  0  0  0  0  0  0  0  0  0
    7.8504    0.6472   -1.5134 H   0  0  0  0  0  0  0  0  0  0  0  0
    6.7180   -2.0501   -2.3770 H   0  0  0  0  0  0  0  0  0  0  0  0
    7.9820   -1.1478   -3.2521 H   0  0  0  0  0  0  0  0  0  0  0  0
    6.3271   -0.3870   -3.1080 H   0  0  0  0  0  0  0  0  0  0  0  0
    5.6116    1.5905   -0.6646 H   0  0  0  0  0  0  0  0  0  0  0  0
    4.9547    0.3917   -1.7896 H   0  0  0  0  0  0  0  0  0  0  0  0
    4.4613    0.5947    1.2229 H   0  0  0  0  0  0  0  0  0  0  0  0
    3.2986    1.0852   -0.1144 H   0  0  0  0  0  0  0  0  0  0  0  0
    4.4250   -1.7089    0.1793 H   0  0  0  0  0  0  0  0  0  0  0  0
    2.4360   -0.3940   -1.6657 H   0  0  0  0  0  0  0  0  0  0  0  0
    3.8970   -1.3330   -1.9528 H   0  0  0  0  0  0  0  0  0  0  0  0
    2.4984   -2.2374   -1.4013 H   0  0  0  0  0  0  0  0  0  0  0  0
    2.4876   -2.5508    1.1232 H   0  0  0  0  0  0  0  0  0  0  0  0
    1.8081    0.3639    1.8725 H   0  0  0  0  0  0  0  0  0  0  0  0
    1.0672   -1.0421    2.6162 H   0  0  0  0  0  0  0  0  0  0  0  0
    0.6305    0.0631   -0.2110 H   0  0  0  0  0  0  0  0  0  0  0  0
   -2.9665    0.8233    2.1444 H   0  0  0  0  0  0  0  0  0  0  0  0
   -1.7172    1.6418    3.1150 H   0  0  0  0  0  0  0  0  0  0  0  0
   -3.6000    3.0183    2.9280 H   0  0  0  0  0  0  0  0  0  0  0  0
   -1.7544    4.3303    1.2064 H   0  0  0  0  0  0  0  0  0  0  0  0
   -4.1818    4.1532    0.7625 H   0  0  0  0  0  0  0  0  0  0  0  0
   -2.9237    3.2562   -0.0791 H   0  0  0  0  0  0  0  0  0  0  0  0
   -5.2881    1.9738    1.3353 H   0  0  0  0  0  0  0  0  0  0  0  0
   -4.6193    0.1040    0.6175 H   0  0  0  0  0  0  0  0  0  0  0  0
   -6.0162    3.5912   -0.3468 H   0  0  0  0  0  0  0  0  0  0  0  0
   -4.8833    2.9840   -1.5488 H   0  0  0  0  0  0  0  0  0  0  0  0
   -7.9241    1.0230   -2.5963 H   0  0  0  0  0  0  0  0  0  0  0  0
   -6.1161    2.2787   -3.7759 H   0  0  0  0  0  0  0  0  0  0  0  0
   -7.7850    2.6654   -4.2717 H   0  0  0  0  0  0  0  0  0  0  0  0
   -6.8561    3.8212   -3.2892 H   0  0  0  0  0  0  0  0  0  0  0  0
   -9.5061    3.0105   -2.3084 H   0  0  0  0  0  0  0  0  0  0  0  0
   -9.9794    5.1110   -1.2039 H   0  0  0  0  0  0  0  0  0  0  0  0
   -8.3661    5.8542   -0.7359 H   0  0  0  0  0  0  0  0  0  0  0  0
   -8.5713    5.2357   -2.3935 H   0  0  0  0  0  0  0  0  0  0  0  0
  -10.7620    2.7465    0.7776 H   0  0  0  0  0  0  0  0  0  0  0  0
  -11.4871   -2.5312    0.7210 H   0  0  0  0  0  0  0  0  0  0  0  0
   -7.6880   -5.9751   -1.0644 H   0  0  0  0  0  0  0  0  0  0  0  0
   -3.7846   -4.7802    1.8200 H   0  0  0  0  0  0  0  0  0  0  0  0
   -2.9785   -3.6485   -0.7536 H   0  0  0  0  0  0  0  0  0  0  0  0
   -1.6764   -4.3838    2.0815 H   0  0  0  0  0  0  0  0  0  0  0  0
   -0.6387   -4.5552    0.6740 H   0  0  0  0  0  0  0  0  0  0  0  0
   -0.1082   -2.6233    2.2504 H   0  0  0  0  0  0  0  0  0  0  0  0
   -1.6687   -1.9254    1.8242 H   0  0  0  0  0  0  0  0  0  0  0  0
    0.3678   -2.4530   -0.4005 H   0  0  0  0  0  0  0  0  0  0  0  0
   -1.4816   -2.0461   -1.6004 H   0  0  0  0  0  0  0  0  0  0  0  0
   -2.3824   -1.4648   -0.0751 H   0  0  0  0  0  0  0  0  0  0  0  0
   -1.3246   -0.3807   -0.9861 H   0  0  0  0  0  0  0  0  0  0  0  0
    2.7717   -3.1612    3.0879 H   0  0  0  0  0  0  0  0  0  0  0  0
    4.3366   -2.6317    3.7492 H   0  0  0  0  0  0  0  0  0  0  0  0
    4.3254   -3.3106    2.1162 H   0  0  0  0  0  0  0  0  0  0  0  0
    8.8474    1.7822    1.4503 H   0  0  0  0  0  0  0  0  0  0  0  0
   12.1612    2.3084    1.0505 H   0  0  0  0  0  0  0  0  0  0  0  0
   12.3631    3.6884   -0.1325 H   0  0  0  0  0  0  0  0  0  0  0  0
   12.0539    2.0058   -0.6964 H   0  0  0  0  0  0  0  0  0  0  0  0
    8.9673    3.8189   -1.3018 H   0  0  0  0  0  0  0  0  0  0  0  0
   10.4039    4.8163   -0.9690 H   0  0  0  0  0  0  0  0  0  0  0  0
    8.0001    4.8666    0.2509 H   0  0  0  0  0  0  0  0  0  0  0  0
  1  2  1  0
  2  3  1  0
  3  4  1  0
  4  5  1  0
  3  6  1  0
  6  7  1  0
  6  8  1  0
  8  9  2  0
  8 10  1  0
 10 11  1  0
 11 12  1  0
 12 13  1  0
 12 14  1  0
 14 15  1  0
 15 16  1  0
 16 17  1  0
 17 18  1  0
 18 19  2  0
 18 20  1  0
 20 21  1  0
 21 22  1  0
 21 23  1  0
 23 24  1  0
 24 25  1  0
 24 26  1  0
 26 27  1  0
 27 28  2  0
 27 29  1  0
 29 30  1  0
 29 31  1  0
 31 32  1  0
 32 33  1  0
 31 34  1  0
 34 35  2  0
 35 36  1  0
 36 37  1  0
 37 38  2  0
 37 39  1  0
 39 40  2  0
 40 41  1  0
 41 42  1  0
 42 43  2  0
 42 44  1  0
 44 45  2  0
 45 46  1  0
 46 47  1  0
 47 48  2  0
 47 49  1  0
 49 50  2  0
 50 51  1  0
 51 52  1  0
 52 53  1  0
 53 54  1  0
 14 55  1  0
 55 56  1  0
  1 57  2  0
 57 58  1  0
 58 59  1  0
 58 60  1  0
 60 61  1  0
 53 16  1  0
 38 34  1  0
 43 39  1  0
 48 44  1  0
  1 62  1  0
  2 63  1  0
  2 64  1  0
  3 65  1  6
  5 66  1  0
  5 67  1  0
  5 68  1  0
  6 69  1  6
  7 70  1  0
  7 71  1  0
  7 72  1  0
 10 73  1  0
 10 74  1  0
 11 75  1  0
 11 76  1  0
 12 77  1  6
 13 78  1  0
 13 79  1  0
 13 80  1  0
 14 81  1  6
 15 82  1  0
 15 83  1  0
 16 84  1  6
 20 85  1  0
 20 86  1  0
 21 87  1  1
 22 88  1  0
 23 89  1  0
 23 90  1  0
 24 91  1  1
 25 92  1  0
 26 93  1  0
 26 94  1  0
 29 95  1  6
 30 96  1  0
 30 97  1  0
 30 98  1  0
 31 99  1  6
 33100  1  0
 33101  1  0
 33102  1  0
 35103  1  0
 40104  1  0
 45105  1  0
 49106  1  0
 50107  1  0
 51108  1  0
 51109  1  0
 52110  1  0
 52111  1  0
 53112  1  6
 54113  1  0
 54114  1  0
 54115  1  0
 56116  1  0
 56117  1  0
 56118  1  0
 57119  1  0
 59120  1  0
 59121  1  0
 59122  1  0
 60123  1  0
 60124  1  0
 61125  1  0
M  END
$$$$
