
     RDKit          3D

 31 33  0  0  0  0  0  0  0  0999 V2000
    2.8887   -2.3268   -1.3913 O   0  0  0  0  0  0  0  0  0  0  0  0
    3.5411   -1.4227   -0.8437 C   0  0  0  0  0  0  0  0  0  0  0  0
    4.9208   -1.4021   -0.7691 C   0  0  0  0  0  0  0  0  0  0  0  0
    5.6070   -0.3767   -0.1505 C   0  0  0  0  0  0  0  0  0  0  0  0
    4.8986    0.5905    0.3714 O   0  0  0  0  0  0  0  0  0  0  0  0
    3.5796    0.6312    0.3347 C   0  0  0  0  0  0  0  0  0  0  0  0
    2.8835    1.6936    0.9117 C   0  0  0  0  0  0  0  0  0  0  0  0
    1.5060    1.7154    0.8616 C   0  0  0  0  0  0  0  0  0  0  0  0
    0.7595    0.7080    0.2505 C   0  0  0  0  0  0  0  0  0  0  0  0
   -0.6235    0.7548    0.2145 O   0  0  0  0  0  0  0  0  0  0  0  0
   -1.3176   -0.2834   -0.4119 C   0  0  0  0  0  0  0  0  0  0  0  0
   -2.7742   -0.1196   -0.3842 C   0  0  0  0  0  0  0  0  0  0  0  0
   -3.4150    0.5502   -1.4053 C   0  0  0  0  0  0  0  0  0  0  0  0
   -4.7743    0.7153   -1.4007 C   0  0  0  0  0  0  0  0  0  0  0  0
   -5.5125    0.1949   -0.3438 C   0  0  0  0  0  0  0  0  0  0  0  0
   -6.8561    0.3662   -0.3532 F   0  0  0  0  0  0  0  0  0  0  0  0
   -4.9072   -0.4816    0.6964 C   0  0  0  0  0  0  0  0  0  0  0  0
   -3.5473   -0.6231    0.6509 C   0  0  0  0  0  0  0  0  0  0  0  0
    1.4553   -0.3254   -0.3099 C   0  0  0  0  0  0  0  0  0  0  0  0
    2.8345   -0.3610   -0.2676 C   0  0  0  0  0  0  0  0  0  0  0  0
    5.4863   -2.2181   -1.2109 H   0  0  0  0  0  0  0  0  0  0  0  0
    6.6901   -0.4166   -0.1241 H   0  0  0  0  0  0  0  0  0  0  0  0
    3.4633    2.4826    1.3901 H   0  0  0  0  0  0  0  0  0  0  0  0
    0.9889    2.5340    1.3070 H   0  0  0  0  0  0  0  0  0  0  0  0
   -1.0757   -1.2275    0.1367 H   0  0  0  0  0  0  0  0  0  0  0  0
   -0.9511   -0.3554   -1.4602 H   0  0  0  0  0  0  0  0  0  0  0  0
   -2.8231    0.9399   -2.2051 H   0  0  0  0  0  0  0  0  0  0  0  0
   -5.2510    1.2426   -2.2104 H   0  0  0  0  0  0  0  0  0  0  0  0
   -5.5444   -0.8584    1.4836 H   0  0  0  0  0  0  0  0  0  0  0  0
   -3.0838   -1.1603    1.4806 H   0  0  0  0  0  0  0  0  0  0  0  0
    0.9536   -1.1605   -0.8111 H   0  0  0  0  0  0  0  0  0  0  0  0
  1  2  2  0
  2  3  1  0
  3  4  2  0
  4  5  1  0
  5  6  1  0
  6  7  2  0
  7  8  1  0
  8  9  2  0
  9 10  1  0
 10 11  1  0
 11 12  1  0
 12 13  2  0
 13 14  1  0
 14 15  2  0
 15 16  1  0
 15 17  1  0
 17 18  2  0
  9 19  1  0
 19 20  2  0
 20  2  1  0
 20  6  1  0
 18 12  1  0
  3 21  1  0
  4 22  1  0
  7 23  1  0
  8 24  1  0
 11 25  1  0
 11 26  1  0
 13 27  1  0
 14 28  1  0
 17 29  1  0
 18 30  1  0
 19 31  1  0
M  END
$$$$
