
     RDKit          3D

 42 45  0  0  0  0  0  0  0  0999 V2000
   -3.4176    2.8797   -1.7055 N   0  0  0  0  0  0  0  0  0  0  0  0
   -3.6019    1.7218   -0.8719 C   0  0  0  0  0  0  0  0  0  0  0  0
   -2.5928    1.0737   -0.3963 N   0  0  0  0  0  0  0  0  0  0  0  0
   -2.8711   -0.0769    0.4330 C   0  0  2  0  0  0  0  0  0  0  0  0
   -3.1996    0.4555    1.8037 C   0  0  0  0  0  0  0  0  0  0  0  0
   -2.1215    1.1676    2.2936 F   0  0  0  0  0  0  0  0  0  0  0  0
   -1.6423   -0.9171    0.5847 C   0  0  0  0  0  0  0  0  0  0  0  0
   -0.4341   -0.5990    0.0026 C   0  0  0  0  0  0  0  0  0  0  0  0
    0.6841   -1.4141    0.1756 C   0  0  0  0  0  0  0  0  0  0  0  0
    1.9355   -1.0864   -0.4262 N   0  0  0  0  0  0  0  0  0  0  0  0
    2.9022   -0.2880    0.2295 C   0  0  0  0  0  0  0  0  0  0  0  0
    2.5653    0.1120    1.3952 O   0  0  0  0  0  0  0  0  0  0  0  0
    4.1896    0.0913   -0.3028 C   0  0  0  0  0  0  0  0  0  0  0  0
    5.0800    0.8531    0.3551 N   0  0  0  0  0  0  0  0  0  0  0  0
    6.1616    1.0454   -0.3519 N   0  0  0  0  0  0  0  0  0  0  0  0
    7.2953    1.8286    0.1024 C   0  0  0  0  0  0  0  0  0  0  0  0
    7.0156    3.1609   -0.1595 F   0  0  0  0  0  0  0  0  0  0  0  0
    7.4351    1.6837    1.4818 F   0  0  0  0  0  0  0  0  0  0  0  0
    6.0431    0.4139   -1.5288 C   0  0  0  0  0  0  0  0  0  0  0  0
    4.7846   -0.1985   -1.5048 C   0  0  0  0  0  0  0  0  0  0  0  0
    4.1057   -1.1638   -2.7968 Cl  0  0  0  0  0  0  0  0  0  0  0  0
    0.5166   -2.5406    0.9506 C   0  0  0  0  0  0  0  0  0  0  0  0
   -0.6503   -2.8740    1.5295 N   0  0  0  0  0  0  0  0  0  0  0  0
   -1.7272   -2.0536    1.3402 C   0  0  0  0  0  0  0  0  0  0  0  0
   -2.8618   -2.4638    1.9554 F   0  0  0  0  0  0  0  0  0  0  0  0
   -3.9240   -0.9066   -0.1772 C   0  0  1  0  0  0  0  0  0  0  0  0
   -5.2657   -1.0990    0.4098 C   0  0  0  0  0  0  0  0  0  0  0  0
   -5.1000   -0.1557   -0.7236 C   0  0  1  0  0  0  0  0  0  0  0  0
   -4.8522    1.2255   -0.5245 O   0  0  0  0  0  0  0  0  0  0  0  0
   -3.5251    3.8082   -1.2640 H   0  0  0  0  0  0  0  0  0  0  0  0
   -3.1855    2.8322   -2.7138 H   0  0  0  0  0  0  0  0  0  0  0  0
   -4.0624    1.1490    1.7994 H   0  0  0  0  0  0  0  0  0  0  0  0
   -3.4310   -0.3317    2.5442 H   0  0  0  0  0  0  0  0  0  0  0  0
   -0.3701    0.2864   -0.5854 H   0  0  0  0  0  0  0  0  0  0  0  0
    2.1089   -1.4601   -1.3712 H   0  0  0  0  0  0  0  0  0  0  0  0
    8.2175    1.5348   -0.4323 H   0  0  0  0  0  0  0  0  0  0  0  0
    6.7694    0.3898   -2.3184 H   0  0  0  0  0  0  0  0  0  0  0  0
    1.4084   -3.1727    1.0771 H   0  0  0  0  0  0  0  0  0  0  0  0
   -3.5448   -1.6970   -0.8874 H   0  0  0  0  0  0  0  0  0  0  0  0
   -5.7782   -2.0498    0.1512 H   0  0  0  0  0  0  0  0  0  0  0  0
   -5.5220   -0.7439    1.4238 H   0  0  0  0  0  0  0  0  0  0  0  0
   -5.5375   -0.4209   -1.7111 H   0  0  0  0  0  0  0  0  0  0  0  0
  1  2  1  0
  2  3  2  0
  3  4  1  0
  4  5  1  1
  5  6  1  0
  4  7  1  0
  7  8  2  0
  8  9  1  0
  9 10  1  0
 10 11  1  0
 11 12  2  0
 11 13  1  0
 13 14  2  0
 14 15  1  0
 15 16  1  0
 16 17  1  0
 16 18  1  0
 15 19  1  0
 19 20  2  0
 20 21  1  0
  9 22  2  0
 22 23  1  0
 23 24  2  0
 24 25  1  0
  4 26  1  0
 26 27  1  0
 27 28  1  0
 28 29  1  0
 29  2  1  0
 24  7  1  0
 28 26  1  0
 20 13  1  0
  1 30  1  0
  1 31  1  0
  5 32  1  0
  5 33  1  0
  8 34  1  0
 10 35  1  0
 16 36  1  0
 19 37  1  0
 22 38  1  0
 26 39  1  6
 27 40  1  0
 27 41  1  0
 28 42  1  6
M  END
$$$$
