
     RDKit          3D

 53 55  0  0  0  0  0  0  0  0999 V2000
   -4.6252   -0.5065   -2.9190 C   0  0  0  0  0  0  0  0  0  0  0  0
   -4.3513    0.6487   -1.9549 C   0  0  0  0  0  0  0  0  0  0  0  0
   -2.9376    0.5400   -1.5218 C   0  0  0  0  0  0  0  0  0  0  0  0
   -2.1109    0.5149   -2.4942 O   0  0  0  0  0  0  0  0  0  0  0  0
   -2.5050    0.4666   -0.1663 N   0  0  0  0  0  0  0  0  0  0  0  0
   -1.1058    0.4258    0.0982 C   0  0  0  0  0  0  0  0  0  0  0  0
   -0.5886    1.4779    1.0034 C   0  0  0  0  0  0  0  0  0  0  0  0
    0.9087    1.3521    1.1114 C   0  0  0  0  0  0  0  0  0  0  0  0
    1.4954    0.1092    0.8523 N   0  0  0  0  0  0  0  0  0  0  0  0
    2.8621    0.2297    0.4836 C   0  0  0  0  0  0  0  0  0  0  0  0
    3.5210   -1.0852    0.1470 C   0  0  0  0  0  0  0  0  0  0  0  0
    4.9580   -0.8152   -0.2172 C   0  0  0  0  0  0  0  0  0  0  0  0
    5.9023   -0.8568    0.7937 C   0  0  0  0  0  0  0  0  0  0  0  0
    7.2656   -0.6205    0.5831 C   0  0  0  0  0  0  0  0  0  0  0  0
    7.6470   -0.3308   -0.7314 C   0  0  0  0  0  0  0  0  0  0  0  0
    6.7147   -0.2902   -1.7260 C   0  0  0  0  0  0  0  0  0  0  0  0
    5.3878   -0.5238   -1.5041 C   0  0  0  0  0  0  0  0  0  0  0  0
    0.7867   -1.0201    0.4472 C   0  0  0  0  0  0  0  0  0  0  0  0
   -0.6907   -0.9098    0.7441 C   0  0  0  0  0  0  0  0  0  0  0  0
   -3.5567    0.4553    0.7952 C   0  0  0  0  0  0  0  0  0  0  0  0
   -4.0700    1.6095    1.3483 C   0  0  0  0  0  0  0  0  0  0  0  0
   -5.0861    1.4312    2.2682 C   0  0  0  0  0  0  0  0  0  0  0  0
   -5.5594    0.1784    2.6126 C   0  0  0  0  0  0  0  0  0  0  0  0
   -5.0193   -0.9487    2.0354 C   0  0  0  0  0  0  0  0  0  0  0  0
   -4.0022   -0.8213    1.1112 C   0  0  0  0  0  0  0  0  0  0  0  0
   -3.6843   -1.0675   -3.1392 H   0  0  0  0  0  0  0  0  0  0  0  0
   -5.3066   -1.2471   -2.4073 H   0  0  0  0  0  0  0  0  0  0  0  0
   -5.1291   -0.1753   -3.8512 H   0  0  0  0  0  0  0  0  0  0  0  0
   -5.0871    0.6152   -1.1582 H   0  0  0  0  0  0  0  0  0  0  0  0
   -4.5017    1.5813   -2.5556 H   0  0  0  0  0  0  0  0  0  0  0  0
   -0.5757    0.4897   -0.8831 H   0  0  0  0  0  0  0  0  0  0  0  0
   -0.9069    2.5072    0.7356 H   0  0  0  0  0  0  0  0  0  0  0  0
   -0.9792    1.2634    2.0350 H   0  0  0  0  0  0  0  0  0  0  0  0
    1.2762    1.7949    2.0782 H   0  0  0  0  0  0  0  0  0  0  0  0
    1.3105    2.0769    0.3355 H   0  0  0  0  0  0  0  0  0  0  0  0
    3.4866    0.6803    1.2978 H   0  0  0  0  0  0  0  0  0  0  0  0
    3.0130    0.8943   -0.4147 H   0  0  0  0  0  0  0  0  0  0  0  0
    3.5183   -1.7911    0.9872 H   0  0  0  0  0  0  0  0  0  0  0  0
    3.0573   -1.5004   -0.7883 H   0  0  0  0  0  0  0  0  0  0  0  0
    5.6720   -1.0728    1.8194 H   0  0  0  0  0  0  0  0  0  0  0  0
    7.9886   -0.6584    1.3856 H   0  0  0  0  0  0  0  0  0  0  0  0
    8.6983   -0.1425   -0.9265 H   0  0  0  0  0  0  0  0  0  0  0  0
    7.0209   -0.0647   -2.7392 H   0  0  0  0  0  0  0  0  0  0  0  0
    4.6186   -0.4998   -2.2639 H   0  0  0  0  0  0  0  0  0  0  0  0
    1.1044   -1.9755    0.9445 H   0  0  0  0  0  0  0  0  0  0  0  0
    0.8538   -1.1736   -0.6760 H   0  0  0  0  0  0  0  0  0  0  0  0
   -0.8018   -0.8102    1.8403 H   0  0  0  0  0  0  0  0  0  0  0  0
   -1.2803   -1.7394    0.3072 H   0  0  0  0  0  0  0  0  0  0  0  0
   -3.6677    2.5640    1.0452 H   0  0  0  0  0  0  0  0  0  0  0  0
   -5.5245    2.3277    2.7316 H   0  0  0  0  0  0  0  0  0  0  0  0
   -6.3588    0.0579    3.3371 H   0  0  0  0  0  0  0  0  0  0  0  0
   -5.4146   -1.9107    2.3315 H   0  0  0  0  0  0  0  0  0  0  0  0
   -3.6405   -1.7339    0.7168 H   0  0  0  0  0  0  0  0  0  0  0  0
  1  2  1  0
  2  3  1  0
  3  4  2  0
  3  5  1  0
  5  6  1  0
  6  7  1  0
  7  8  1  0
  8  9  1  0
  9 10  1  0
 10 11  1  0
 11 12  1  0
 12 13  2  0
 13 14  1  0
 14 15  2  0
 15 16  1  0
 16 17  2  0
  9 18  1  0
 18 19  1  0
  5 20  1  0
 20 21  2  0
 21 22  1  0
 22 23  2  0
 23 24  1  0
 24 25  2  0
 19  6  1  0
 25 20  1  0
 17 12  1  0
  1 26  1  0
  1 27  1  0
  1 28  1  0
  2 29  1  0
  2 30  1  0
  6 31  1  0
  7 32  1  0
  7 33  1  0
  8 34  1  0
  8 35  1  0
 10 36  1  0
 10 37  1  0
 11 38  1  0
 11 39  1  0
 13 40  1  0
 14 41  1  0
 15 42  1  0
 16 43  1  0
 17 44  1  0
 18 45  1  0
 18 46  1  0
 19 47  1  0
 19 48  1  0
 21 49  1  0
 22 50  1  0
 23 51  1  0
 24 52  1  0
 25 53  1  0
M  END
$$$$
