
     RDKit          3D

 40 42  0  0  0  0  0  0  0  0999 V2000
   -4.3151   -2.5817    1.6276 C   0  0  0  0  0  0  0  0  0  0  0  0
   -3.4423   -1.4849    1.1112 C   0  0  0  0  0  0  0  0  0  0  0  0
   -2.5233   -1.7307    0.1276 C   0  0  0  0  0  0  0  0  0  0  0  0
   -1.7136   -0.7305   -0.3568 C   0  0  0  0  0  0  0  0  0  0  0  0
   -1.8113    0.5453    0.1404 C   0  0  0  0  0  0  0  0  0  0  0  0
   -0.9801    1.6460   -0.3336 C   0  0  0  0  0  0  0  0  0  0  0  0
   -1.5028    2.8999   -0.6186 C   0  0  0  0  0  0  0  0  0  0  0  0
   -0.4362    3.6686   -1.0340 C   0  0  0  0  0  0  0  0  0  0  0  0
   -0.4891    5.0928   -1.4515 C   0  0  0  0  0  0  0  0  0  0  0  0
   -0.0424    5.2604   -2.7563 F   0  0  0  0  0  0  0  0  0  0  0  0
   -1.7823    5.5747   -1.4192 F   0  0  0  0  0  0  0  0  0  0  0  0
    0.3099    5.8855   -0.6353 F   0  0  0  0  0  0  0  0  0  0  0  0
    0.6398    2.8943   -0.9887 N   0  0  0  0  0  0  0  0  0  0  0  0
    0.3441    1.6740   -0.5718 N   0  0  0  0  0  0  0  0  0  0  0  0
    1.2361    0.5796   -0.3986 C   0  0  0  0  0  0  0  0  0  0  0  0
    1.7713   -0.0881   -1.4762 C   0  0  0  0  0  0  0  0  0  0  0  0
    2.6319   -1.1436   -1.2619 C   0  0  0  0  0  0  0  0  0  0  0  0
    2.9851   -1.5658    0.0031 C   0  0  0  0  0  0  0  0  0  0  0  0
    4.0681   -2.8938    0.2935 S   0  0  0  0  0  6  0  0  0  0  0  0
    5.6927   -2.3257    0.3833 N   0  0  0  0  0  0  0  0  0  0  0  0
    3.9113   -3.9496   -0.7839 O   0  0  0  0  0  0  0  0  0  0  0  0
    3.7197   -3.5035    1.6208 O   0  0  0  0  0  0  0  0  0  0  0  0
    2.4504   -0.8986    1.0806 C   0  0  0  0  0  0  0  0  0  0  0  0
    1.5895    0.1573    0.8706 C   0  0  0  0  0  0  0  0  0  0  0  0
   -2.7368    0.7888    1.1297 C   0  0  0  0  0  0  0  0  0  0  0  0
   -3.5552   -0.2088    1.6236 C   0  0  0  0  0  0  0  0  0  0  0  0
   -4.5656   -2.3804    2.6760 H   0  0  0  0  0  0  0  0  0  0  0  0
   -3.7571   -3.5345    1.5074 H   0  0  0  0  0  0  0  0  0  0  0  0
   -5.2291   -2.6108    1.0073 H   0  0  0  0  0  0  0  0  0  0  0  0
   -2.4567   -2.7609   -0.2618 H   0  0  0  0  0  0  0  0  0  0  0  0
   -0.9868   -0.9235   -1.1344 H   0  0  0  0  0  0  0  0  0  0  0  0
   -2.5503    3.2049   -0.5283 H   0  0  0  0  0  0  0  0  0  0  0  0
    1.5272    0.2021   -2.5103 H   0  0  0  0  0  0  0  0  0  0  0  0
    3.0565   -1.6734   -2.1162 H   0  0  0  0  0  0  0  0  0  0  0  0
    5.7985   -1.3363    0.0968 H   0  0  0  0  0  0  0  0  0  0  0  0
    6.3696   -2.9693   -0.0704 H   0  0  0  0  0  0  0  0  0  0  0  0
    2.7231   -1.2243    2.0684 H   0  0  0  0  0  0  0  0  0  0  0  0
    1.2011    0.6431    1.7763 H   0  0  0  0  0  0  0  0  0  0  0  0
   -2.8719    1.7819    1.5751 H   0  0  0  0  0  0  0  0  0  0  0  0
   -4.2779    0.0195    2.4081 H   0  0  0  0  0  0  0  0  0  0  0  0
  1  2  1  0
  2  3  2  0
  3  4  1  0
  4  5  2  0
  5  6  1  0
  6  7  2  0
  7  8  1  0
  8  9  1  0
  9 10  1  0
  9 11  1  0
  9 12  1  0
  8 13  2  0
 13 14  1  0
 14 15  1  0
 15 16  2  0
 16 17  1  0
 17 18  2  0
 18 19  1  0
 19 20  1  0
 19 21  2  0
 19 22  2  0
 18 23  1  0
 23 24  2  0
  5 25  1  0
 25 26  2  0
 26  2  1  0
 14  6  1  0
 24 15  1  0
  1 27  1  0
  1 28  1  0
  1 29  1  0
  3 30  1  0
  4 31  1  0
  7 32  1  0
 16 33  1  0
 17 34  1  0
 20 35  1  0
 20 36  1  0
 23 37  1  0
 24 38  1  0
 25 39  1  0
 26 40  1  0
M  END
$$$$
