
     RDKit          3D

 45 48  0  0  0  0  0  0  0  0999 V2000
    4.2156    1.4837   -0.2297 C   0  0  0  0  0  0  0  0  0  0  0  0
    2.8573    0.7765   -0.4181 C   0  0  0  0  0  0  0  0  0  0  0  0
    2.8750   -0.4310    0.4488 C   0  0  1  0  0  0  0  0  0  0  0  0
    3.0604    0.0549    1.8957 C   0  0  0  0  0  0  0  0  0  0  0  0
    1.9773    0.8970    2.2099 O   0  0  0  0  0  0  0  0  0  0  0  0
    1.7516   -1.2870    0.4066 N   0  0  0  0  0  0  0  0  0  0  0  0
    1.8410   -2.6073    0.7644 C   0  0  0  0  0  0  0  0  0  0  0  0
    0.6262   -3.1518    0.6170 N   0  0  0  0  0  0  0  0  0  0  0  0
   -0.2485   -2.2276    0.1750 C   0  0  0  0  0  0  0  0  0  0  0  0
   -1.6684   -2.3914   -0.1214 C   0  0  0  0  0  0  0  0  0  0  0  0
   -2.1584   -2.2353   -1.4042 C   0  0  0  0  0  0  0  0  0  0  0  0
   -3.4987   -2.3876   -1.6918 C   0  0  0  0  0  0  0  0  0  0  0  0
   -4.4136   -2.7036   -0.7102 C   0  0  0  0  0  0  0  0  0  0  0  0
   -5.7432   -2.8549   -0.9964 F   0  0  0  0  0  0  0  0  0  0  0  0
   -3.9361   -2.8620    0.5740 C   0  0  0  0  0  0  0  0  0  0  0  0
   -2.5872   -2.7085    0.8630 C   0  0  0  0  0  0  0  0  0  0  0  0
    0.4972   -1.0502    0.0507 C   0  0  0  0  0  0  0  0  0  0  0  0
   -0.0821    0.1993   -0.4030 C   0  0  0  0  0  0  0  0  0  0  0  0
   -0.0848    0.4827   -1.7479 C   0  0  0  0  0  0  0  0  0  0  0  0
   -0.6352    1.6546   -2.1985 C   0  0  0  0  0  0  0  0  0  0  0  0
   -1.1800    2.5338   -1.2865 C   0  0  0  0  0  0  0  0  0  0  0  0
   -1.7817    3.7500   -1.4665 N   0  0  0  0  0  0  0  0  0  0  0  0
   -2.1515    4.2262   -0.2667 C   0  0  0  0  0  0  0  0  0  0  0  0
   -1.7660    3.2834    0.6401 C   0  0  0  0  0  0  0  0  0  0  0  0
   -1.9509    3.3521    2.0678 C   0  0  0  0  0  0  0  0  0  0  0  0
   -2.1015    3.4189    3.2084 N   0  0  0  0  0  0  0  0  0  0  0  0
   -1.1640    2.2352    0.0041 N   0  0  0  0  0  0  0  0  0  0  0  0
   -0.6308    1.1019    0.4311 N   0  0  0  0  0  0  0  0  0  0  0  0
    4.9640    0.6538   -0.1838 H   0  0  0  0  0  0  0  0  0  0  0  0
    4.2245    2.1200    0.6531 H   0  0  0  0  0  0  0  0  0  0  0  0
    4.4739    2.0794   -1.1297 H   0  0  0  0  0  0  0  0  0  0  0  0
    2.8256    0.5140   -1.4869 H   0  0  0  0  0  0  0  0  0  0  0  0
    2.0526    1.4634   -0.0853 H   0  0  0  0  0  0  0  0  0  0  0  0
    3.8004   -1.0244    0.1736 H   0  0  0  0  0  0  0  0  0  0  0  0
    4.0072    0.5829    2.0156 H   0  0  0  0  0  0  0  0  0  0  0  0
    3.0284   -0.7774    2.6092 H   0  0  0  0  0  0  0  0  0  0  0  0
    1.2170    0.3022    2.4799 H   0  0  0  0  0  0  0  0  0  0  0  0
    2.7013   -3.1604    1.1085 H   0  0  0  0  0  0  0  0  0  0  0  0
   -1.5055   -1.9869   -2.2347 H   0  0  0  0  0  0  0  0  0  0  0  0
   -3.8855   -2.2626   -2.7128 H   0  0  0  0  0  0  0  0  0  0  0  0
   -4.6498   -3.1094    1.3482 H   0  0  0  0  0  0  0  0  0  0  0  0
   -2.2070   -2.8332    1.8780 H   0  0  0  0  0  0  0  0  0  0  0  0
    0.3446   -0.2054   -2.4909 H   0  0  0  0  0  0  0  0  0  0  0  0
   -0.6557    1.9149   -3.2659 H   0  0  0  0  0  0  0  0  0  0  0  0
   -2.6548    5.1768   -0.0916 H   0  0  0  0  0  0  0  0  0  0  0  0
  1  2  1  0
  2  3  1  0
  3  4  1  0
  4  5  1  0
  3  6  1  0
  6  7  1  0
  7  8  2  0
  8  9  1  0
  9 10  1  0
 10 11  2  0
 11 12  1  0
 12 13  2  0
 13 14  1  0
 13 15  1  0
 15 16  2  0
  9 17  2  0
 17 18  1  0
 18 19  1  0
 19 20  2  0
 20 21  1  0
 21 22  2  0
 22 23  1  0
 23 24  2  0
 24 25  1  0
 25 26  3  0
 24 27  1  0
 27 28  1  0
 17  6  1  0
 28 18  2  0
 16 10  1  0
 27 21  1  0
  1 29  1  0
  1 30  1  0
  1 31  1  0
  2 32  1  0
  2 33  1  0
  3 34  1  6
  4 35  1  0
  4 36  1  0
  5 37  1  0
  7 38  1  0
 11 39  1  0
 12 40  1  0
 15 41  1  0
 16 42  1  0
 19 43  1  0
 20 44  1  0
 23 45  1  0
M  END
$$$$
