
     RDKit          3D

 68 71  0  0  0  0  0  0  0  0999 V2000
    0.3527    0.1959    2.2562 O   0  0  0  0  0  0  0  0  0  0  0  0
    0.6223    0.8954    1.2665 C   0  0  0  0  0  0  0  0  0  0  0  0
   -0.2736    1.7856    0.8086 O   0  0  0  0  0  0  0  0  0  0  0  0
   -1.5240    2.1660    1.1330 C   0  0  0  0  0  0  0  0  0  0  0  0
   -2.6422    1.2377    0.7637 C   0  0  0  0  0  0  0  0  0  0  0  0
   -2.5012   -0.1012    1.3823 C   0  0  0  0  0  0  0  0  0  0  0  0
   -3.6444   -1.0266    1.0629 C   0  0  0  0  0  0  0  0  0  0  0  0
   -4.7221   -1.0348    1.9271 C   0  0  0  0  0  0  0  0  0  0  0  0
   -5.7518   -1.9036    1.6377 C   0  0  0  0  0  0  0  0  0  0  0  0
   -5.6973   -2.7163    0.5404 C   0  0  0  0  0  0  0  0  0  0  0  0
   -6.7321   -3.6107    0.2228 O   0  0  0  0  0  0  0  0  0  0  0  0
   -4.6047   -2.6780   -0.2981 C   0  0  0  0  0  0  0  0  0  0  0  0
   -3.5439   -1.8149   -0.0412 C   0  0  0  0  0  0  0  0  0  0  0  0
   -2.6521    1.0989   -0.7028 N   0  0  0  0  0  0  0  0  0  0  0  0
   -4.0279    1.7659   -1.4345 S   0  0  0  0  0  6  0  0  0  0  0  0
   -4.1194    3.2524   -1.1289 O   0  0  0  0  0  0  0  0  0  0  0  0
   -3.8345    1.7044   -2.9441 O   0  0  0  0  0  0  0  0  0  0  0  0
   -5.5405    1.0723   -0.9885 C   0  0  0  0  0  0  0  0  0  0  0  0
   -6.2493    1.5224    0.0918 C   0  0  0  0  0  0  0  0  0  0  0  0
   -7.4733    0.9579    0.4096 C   0  0  0  0  0  0  0  0  0  0  0  0
   -7.9646   -0.0620   -0.3778 C   0  0  0  0  0  0  0  0  0  0  0  0
   -7.2509   -0.5272   -1.4792 C   0  0  0  0  0  0  0  0  0  0  0  0
   -6.0531    0.0391   -1.7737 C   0  0  0  0  0  0  0  0  0  0  0  0
    1.9245    0.7357    0.6103 C   0  0  0  0  0  0  0  0  0  0  0  0
    2.2660    1.4888   -0.4884 C   0  0  0  0  0  0  0  0  0  0  0  0
    3.4894    1.3262   -1.0892 C   0  0  0  0  0  0  0  0  0  0  0  0
    3.8307    2.0998   -2.2114 O   0  0  0  0  0  0  0  0  0  0  0  0
    4.4405    0.4155   -0.6418 C   0  0  0  0  0  0  0  0  0  0  0  0
    5.6495    0.2304   -1.3886 C   0  0  0  0  0  0  0  0  0  0  0  0
    5.6036    0.5877   -2.6438 O   0  0  0  0  0  0  0  0  0  0  0  0
    6.9198   -0.2981   -0.9958 C   0  0  0  0  0  0  0  0  0  0  0  0
    7.5656   -1.1347   -1.9353 C   0  0  0  0  0  0  0  0  0  0  0  0
    6.9321   -1.4070   -3.1558 O   0  0  0  0  0  0  0  0  0  0  0  0
    8.7872   -1.6636   -1.6475 C   0  0  0  0  0  0  0  0  0  0  0  0
    9.4045   -1.3920   -0.4458 C   0  0  0  0  0  0  0  0  0  0  0  0
    8.7637   -0.5723    0.4569 C   0  0  0  0  0  0  0  0  0  0  0  0
    7.4992    0.0012    0.2004 C   0  0  0  0  0  0  0  0  0  0  0  0
    7.0631    1.0011    1.1618 C   0  0  0  0  0  0  0  0  0  0  0  0
    6.1272    1.7794    0.8972 O   0  0  0  0  0  0  0  0  0  0  0  0
    7.6724    1.1264    2.4123 O   0  0  0  0  0  0  0  0  0  0  0  0
    4.0641   -0.3229    0.4601 C   0  0  0  0  0  0  0  0  0  0  0  0
    4.9221   -1.2637    0.9924 O   0  0  0  0  0  0  0  0  0  0  0  0
    2.8413   -0.1640    1.0659 C   0  0  0  0  0  0  0  0  0  0  0  0
   -1.7341    3.1792    0.6649 H   0  0  0  0  0  0  0  0  0  0  0  0
   -1.6721    2.3582    2.2459 H   0  0  0  0  0  0  0  0  0  0  0  0
   -3.6275    1.6949    1.0169 H   0  0  0  0  0  0  0  0  0  0  0  0
   -2.3434   -0.0091    2.4678 H   0  0  0  0  0  0  0  0  0  0  0  0
   -1.5943   -0.6278    0.9534 H   0  0  0  0  0  0  0  0  0  0  0  0
   -4.7572   -0.3891    2.7918 H   0  0  0  0  0  0  0  0  0  0  0  0
   -6.6421   -1.9772    2.2652 H   0  0  0  0  0  0  0  0  0  0  0  0
   -6.8334   -3.9609   -0.7194 H   0  0  0  0  0  0  0  0  0  0  0  0
   -4.5754   -3.3303   -1.1677 H   0  0  0  0  0  0  0  0  0  0  0  0
   -2.6781   -1.7688   -0.6856 H   0  0  0  0  0  0  0  0  0  0  0  0
   -1.8012    1.4999   -1.1268 H   0  0  0  0  0  0  0  0  0  0  0  0
   -5.9045    2.3138    0.7263 H   0  0  0  0  0  0  0  0  0  0  0  0
   -8.0288    1.3306    1.2794 H   0  0  0  0  0  0  0  0  0  0  0  0
   -8.9337   -0.5116   -0.1294 H   0  0  0  0  0  0  0  0  0  0  0  0
   -7.6918   -1.3283   -2.0542 H   0  0  0  0  0  0  0  0  0  0  0  0
   -5.5080   -0.3297   -2.6298 H   0  0  0  0  0  0  0  0  0  0  0  0
    1.5359    2.2007   -0.8467 H   0  0  0  0  0  0  0  0  0  0  0  0
    3.4825    3.0633   -2.2300 H   0  0  0  0  0  0  0  0  0  0  0  0
    6.2340   -2.1312   -3.2101 H   0  0  0  0  0  0  0  0  0  0  0  0
    9.3237   -2.3145   -2.3415 H   0  0  0  0  0  0  0  0  0  0  0  0
   10.3765   -1.8021   -0.1889 H   0  0  0  0  0  0  0  0  0  0  0  0
    9.2258   -0.3440    1.4076 H   0  0  0  0  0  0  0  0  0  0  0  0
    7.0539    1.3834    3.1961 H   0  0  0  0  0  0  0  0  0  0  0  0
    4.5885   -2.2266    1.0054 H   0  0  0  0  0  0  0  0  0  0  0  0
    2.5663   -0.7654    1.9447 H   0  0  0  0  0  0  0  0  0  0  0  0
  1  2  2  0
  2  3  1  0
  3  4  1  0
  4  5  1  0
  5  6  1  0
  6  7  1  0
  7  8  2  0
  8  9  1  0
  9 10  2  0
 10 11  1  0
 10 12  1  0
 12 13  2  0
  5 14  1  0
 14 15  1  0
 15 16  2  0
 15 17  2  0
 15 18  1  0
 18 19  2  0
 19 20  1  0
 20 21  2  0
 21 22  1  0
 22 23  2  0
  2 24  1  0
 24 25  2  0
 25 26  1  0
 26 27  1  0
 26 28  2  0
 28 29  1  0
 29 30  2  0
 29 31  1  0
 31 32  2  0
 32 33  1  0
 32 34  1  0
 34 35  2  0
 35 36  1  0
 36 37  2  0
 37 38  1  0
 38 39  2  0
 38 40  1  0
 28 41  1  0
 41 42  1  0
 41 43  2  0
 13  7  1  0
 23 18  1  0
 43 24  1  0
 37 31  1  0
  4 44  1  0
  4 45  1  0
  5 46  1  0
  6 47  1  0
  6 48  1  0
  8 49  1  0
  9 50  1  0
 11 51  1  0
 12 52  1  0
 13 53  1  0
 14 54  1  0
 19 55  1  0
 20 56  1  0
 21 57  1  0
 22 58  1  0
 23 59  1  0
 25 60  1  0
 27 61  1  0
 33 62  1  0
 34 63  1  0
 35 64  1  0
 36 65  1  0
 40 66  1  0
 42 67  1  0
 43 68  1  0
M  END
$$$$
