
     RDKit          3D

 46 50  0  0  0  0  0  0  0  0999 V2000
   -1.5670   -2.1519   -2.7293 N   0  0  0  0  0  0  0  0  0  0  0  0
   -1.6743   -0.8737   -2.0843 C   0  0  0  0  0  0  0  0  0  0  0  0
   -2.1028   -0.7297   -0.9201 N   0  0  0  0  0  0  0  0  0  0  0  0
   -2.2721    0.4550   -0.1367 C   0  0  0  0  0  0  0  0  0  0  0  0
   -2.0973    1.6975   -0.9717 C   0  0  0  0  0  0  0  0  0  0  0  0
   -2.0069    1.4609   -2.4131 C   0  0  0  0  0  0  0  0  0  0  0  0
   -1.2828    0.2869   -2.7826 O   0  0  0  0  0  0  0  0  0  0  0  0
   -1.2123    0.3921    0.9053 C   0  0  0  0  0  0  0  0  0  0  0  0
    0.1333    0.4449    0.4871 C   0  0  0  0  0  0  0  0  0  0  0  0
    1.1422    0.3942    1.4102 C   0  0  0  0  0  0  0  0  0  0  0  0
    2.4947    0.4475    0.9867 N   0  0  0  0  0  0  0  0  0  0  0  0
    3.1755   -0.7473    0.6907 C   0  0  0  0  0  0  0  0  0  0  0  0
    2.5937   -1.8765    0.7977 O   0  0  0  0  0  0  0  0  0  0  0  0
    4.5635   -0.7282    0.2537 C   0  0  0  0  0  0  0  0  0  0  0  0
    5.2436   -1.8896   -0.0400 C   0  0  0  0  0  0  0  0  0  0  0  0
    6.5773   -1.8488   -0.4583 C   0  0  0  0  0  0  0  0  0  0  0  0
    7.1459   -0.6066   -0.5534 C   0  0  0  0  0  0  0  0  0  0  0  0
    8.8208   -0.4967   -1.0748 Cl  0  0  0  0  0  0  0  0  0  0  0  0
    6.4780    0.5514   -0.2638 C   0  0  0  0  0  0  0  0  0  0  0  0
    5.1880    0.4541    0.1369 N   0  0  0  0  0  0  0  0  0  0  0  0
    0.8505    0.2906    2.7639 C   0  0  0  0  0  0  0  0  0  0  0  0
   -0.4574    0.2387    3.1786 C   0  0  0  0  0  0  0  0  0  0  0  0
   -1.5036    0.2911    2.2225 C   0  0  0  0  0  0  0  0  0  0  0  0
   -2.8137    0.2330    2.7144 O   0  0  0  0  0  0  0  0  0  0  0  0
   -3.8398    0.2833    1.7823 C   0  0  0  0  0  0  0  0  0  0  0  0
   -5.1400    0.2209    2.3177 C   0  0  0  0  0  0  0  0  0  0  0  0
   -6.1664    0.2640    1.4685 N   0  0  0  0  0  0  0  0  0  0  0  0
   -5.9799    0.3638    0.1376 C   0  0  0  0  0  0  0  0  0  0  0  0
   -7.3599    0.4169   -0.9409 Cl  0  0  0  0  0  0  0  0  0  0  0  0
   -4.7362    0.4255   -0.4020 C   0  0  0  0  0  0  0  0  0  0  0  0
   -3.6147    0.3843    0.4491 C   0  0  0  0  0  0  0  0  0  0  0  0
   -2.0656   -2.3373   -3.6143 H   0  0  0  0  0  0  0  0  0  0  0  0
   -0.9862   -2.8942   -2.3057 H   0  0  0  0  0  0  0  0  0  0  0  0
   -3.0189    2.3261   -0.7872 H   0  0  0  0  0  0  0  0  0  0  0  0
   -1.2739    2.3381   -0.5666 H   0  0  0  0  0  0  0  0  0  0  0  0
   -2.9684    1.4170   -2.9775 H   0  0  0  0  0  0  0  0  0  0  0  0
   -1.4302    2.2812   -2.9544 H   0  0  0  0  0  0  0  0  0  0  0  0
    0.2952    0.5258   -0.5750 H   0  0  0  0  0  0  0  0  0  0  0  0
    3.0113    1.3463    0.8847 H   0  0  0  0  0  0  0  0  0  0  0  0
    4.7188   -2.8280    0.0619 H   0  0  0  0  0  0  0  0  0  0  0  0
    7.0861   -2.7624   -0.6811 H   0  0  0  0  0  0  0  0  0  0  0  0
    6.9878    1.4894   -0.3610 H   0  0  0  0  0  0  0  0  0  0  0  0
    1.6330    0.2481    3.5239 H   0  0  0  0  0  0  0  0  0  0  0  0
   -0.7375    0.1581    4.2195 H   0  0  0  0  0  0  0  0  0  0  0  0
   -5.3087    0.1412    3.3751 H   0  0  0  0  0  0  0  0  0  0  0  0
   -4.5225    0.5030   -1.4496 H   0  0  0  0  0  0  0  0  0  0  0  0
  1  2  1  0
  2  3  2  0
  3  4  1  0
  4  5  1  0
  5  6  1  0
  6  7  1  0
  4  8  1  0
  8  9  2  0
  9 10  1  0
 10 11  1  0
 11 12  1  0
 12 13  2  0
 12 14  1  0
 14 15  2  0
 15 16  1  0
 16 17  2  0
 17 18  1  0
 17 19  1  0
 19 20  2  0
 10 21  2  0
 21 22  1  0
 22 23  2  0
 23 24  1  0
 24 25  1  0
 25 26  2  0
 26 27  1  0
 27 28  2  0
 28 29  1  0
 28 30  1  0
 30 31  2  0
  7  2  1  0
 23  8  1  0
 31 25  1  0
 31  4  1  0
 20 14  1  0
  1 32  1  0
  1 33  1  0
  5 34  1  0
  5 35  1  0
  6 36  1  0
  6 37  1  0
  9 38  1  0
 11 39  1  0
 15 40  1  0
 16 41  1  0
 19 42  1  0
 21 43  1  0
 22 44  1  0
 26 45  1  0
 30 46  1  0
M  END
$$$$
