
     RDKit          3D

 55 58  0  0  0  0  0  0  0  0999 V2000
    8.3742    0.2896    1.3618 C   0  0  0  0  0  0  0  0  0  0  0  0
    7.6116   -0.3561    0.3697 O   0  0  0  0  0  0  0  0  0  0  0  0
    6.2383   -0.2267    0.4114 C   0  0  0  0  0  0  0  0  0  0  0  0
    5.5689    0.4925    1.3797 C   0  0  0  0  0  0  0  0  0  0  0  0
    4.1728    0.6136    1.3969 C   0  0  0  0  0  0  0  0  0  0  0  0
    3.5288    1.3233    2.3101 N   0  0  0  0  0  0  0  0  0  0  0  0
    2.2045    1.4365    2.2767 C   0  0  0  0  0  0  0  0  0  0  0  0
    1.4615    0.8370    1.3165 C   0  0  0  0  0  0  0  0  0  0  0  0
    2.0707    0.0830    0.3352 C   0  0  0  0  0  0  0  0  0  0  0  0
    1.3770   -0.5604   -0.6995 O   0  0  0  0  0  0  0  0  0  0  0  0
    0.0218   -0.2794   -0.7882 C   0  0  0  0  0  0  0  0  0  0  0  0
   -1.0148   -0.9288   -0.1988 C   0  0  0  0  0  0  0  0  0  0  0  0
   -2.3504   -0.5386   -0.3667 C   0  0  0  0  0  0  0  0  0  0  0  0
   -2.6694    0.5405   -1.1506 C   0  0  0  0  0  0  0  0  0  0  0  0
   -3.9638    0.9511   -1.3173 C   0  0  0  0  0  0  0  0  0  0  0  0
   -5.0904    0.3289   -0.6561 C   0  0  0  0  0  0  0  0  0  0  0  0
   -6.0972    0.0801   -1.3971 O   0  0  0  0  0  0  0  0  0  0  0  0
   -5.1976   -0.0175    0.6874 N   0  0  0  0  0  0  0  0  0  0  0  0
   -6.3492   -0.6206    1.3273 C   0  0  0  0  0  0  0  0  0  0  0  0
   -6.5510   -2.0706    0.9390 C   0  0  0  0  0  0  0  0  0  0  0  0
   -6.4346   -0.4492    2.7863 C   0  0  0  0  0  0  0  0  0  0  0  0
   -4.1698    2.0738   -2.1387 C   0  0  0  0  0  0  0  0  0  0  0  0
   -3.1779    2.7664   -2.7636 C   0  0  0  0  0  0  0  0  0  0  0  0
   -1.8934    2.3286   -2.5706 C   0  0  0  0  0  0  0  0  0  0  0  0
   -1.6262    1.2315   -1.7749 C   0  0  0  0  0  0  0  0  0  0  0  0
   -0.3401    0.8196   -1.5886 C   0  0  0  0  0  0  0  0  0  0  0  0
    3.4693   -0.0210    0.3952 C   0  0  0  0  0  0  0  0  0  0  0  0
    4.1011   -0.7519   -0.5928 C   0  0  0  0  0  0  0  0  0  0  0  0
    5.4899   -0.8454   -0.5716 C   0  0  0  0  0  0  0  0  0  0  0  0
    6.1776   -1.5640   -1.5331 O   0  0  0  0  0  0  0  0  0  0  0  0
    5.5748   -2.2630   -2.6011 C   0  0  0  0  0  0  0  0  0  0  0  0
    8.1403   -0.0588    2.3825 H   0  0  0  0  0  0  0  0  0  0  0  0
    9.4776    0.0825    1.2284 H   0  0  0  0  0  0  0  0  0  0  0  0
    8.1963    1.4048    1.3576 H   0  0  0  0  0  0  0  0  0  0  0  0
    6.1323    0.9955    2.1734 H   0  0  0  0  0  0  0  0  0  0  0  0
    1.7014    2.0271    3.0452 H   0  0  0  0  0  0  0  0  0  0  0  0
    0.3898    0.9269    1.2924 H   0  0  0  0  0  0  0  0  0  0  0  0
   -0.7860   -1.7926    0.4391 H   0  0  0  0  0  0  0  0  0  0  0  0
   -3.1387   -1.1202    0.0936 H   0  0  0  0  0  0  0  0  0  0  0  0
   -4.3970    0.1772    1.3354 H   0  0  0  0  0  0  0  0  0  0  0  0
   -7.2333   -0.0977    0.8259 H   0  0  0  0  0  0  0  0  0  0  0  0
   -7.3587   -2.4674    1.6129 H   0  0  0  0  0  0  0  0  0  0  0  0
   -6.9923   -2.1512   -0.0814 H   0  0  0  0  0  0  0  0  0  0  0  0
   -5.6611   -2.6775    1.1048 H   0  0  0  0  0  0  0  0  0  0  0  0
   -5.7979    0.3811    3.1835 H   0  0  0  0  0  0  0  0  0  0  0  0
   -6.1770   -1.4170    3.2854 H   0  0  0  0  0  0  0  0  0  0  0  0
   -7.4953   -0.1797    3.0577 H   0  0  0  0  0  0  0  0  0  0  0  0
   -5.2016    2.3756   -2.2687 H   0  0  0  0  0  0  0  0  0  0  0  0
   -3.3693    3.6348   -3.4020 H   0  0  0  0  0  0  0  0  0  0  0  0
   -1.0935    2.8614   -3.0558 H   0  0  0  0  0  0  0  0  0  0  0  0
    0.4520    1.3707   -2.0844 H   0  0  0  0  0  0  0  0  0  0  0  0
    3.5081   -1.2266   -1.3449 H   0  0  0  0  0  0  0  0  0  0  0  0
    4.6551   -1.7749   -2.9750 H   0  0  0  0  0  0  0  0  0  0  0  0
    5.2731   -3.2986   -2.3063 H   0  0  0  0  0  0  0  0  0  0  0  0
    6.2586   -2.3255   -3.4831 H   0  0  0  0  0  0  0  0  0  0  0  0
  1  2  1  0
  2  3  1  0
  3  4  2  0
  4  5  1  0
  5  6  2  0
  6  7  1  0
  7  8  2  0
  8  9  1  0
  9 10  1  0
 10 11  1  0
 11 12  2  0
 12 13  1  0
 13 14  2  0
 14 15  1  0
 15 16  1  0
 16 17  2  0
 16 18  1  0
 18 19  1  0
 19 20  1  0
 19 21  1  0
 15 22  2  0
 22 23  1  0
 23 24  2  0
 24 25  1  0
 25 26  2  0
  9 27  2  0
 27 28  1  0
 28 29  2  0
 29 30  1  0
 30 31  1  0
 29  3  1  0
 27  5  1  0
 26 11  1  0
 25 14  1  0
  1 32  1  0
  1 33  1  0
  1 34  1  0
  4 35  1  0
  7 36  1  0
  8 37  1  0
 12 38  1  0
 13 39  1  0
 18 40  1  0
 19 41  1  0
 20 42  1  0
 20 43  1  0
 20 44  1  0
 21 45  1  0
 21 46  1  0
 21 47  1  0
 22 48  1  0
 23 49  1  0
 24 50  1  0
 26 51  1  0
 28 52  1  0
 31 53  1  0
 31 54  1  0
 31 55  1  0
M  END
$$$$
