
     RDKit          3D

115120  0  0  0  0  0  0  0  0999 V2000
    8.9260    3.4127   -2.0971 C   0  0  0  0  0  0  0  0  0  0  0  0
    9.1399    2.4107   -1.1389 O   0  0  0  0  0  0  0  0  0  0  0  0
    8.1668    1.5234   -0.7310 C   0  0  0  0  0  0  0  0  0  0  0  0
    6.8832    1.6195   -1.3024 C   0  0  0  0  0  0  0  0  0  0  0  0
    5.8475    0.7859   -0.9676 C   0  0  0  0  0  0  0  0  0  0  0  0
    4.5527    0.8857   -1.5462 N   0  0  0  0  0  0  0  0  0  0  0  0
    3.5436   -0.0349   -1.1687 C   0  0  0  0  0  0  0  0  0  0  0  0
    2.7091    0.2336   -0.1044 C   0  0  0  0  0  0  0  0  0  0  0  0
    1.7183   -0.6662    0.2865 C   0  0  0  0  0  0  0  0  0  0  0  0
    0.8916   -0.3730    1.3598 O   0  0  0  0  0  0  0  0  0  0  0  0
   -0.3401    0.2148    1.2511 C   0  0  0  0  0  0  0  0  0  0  0  0
   -0.7970    0.5292   -0.0210 C   0  0  0  0  0  0  0  0  0  0  0  0
   -2.0261    1.1136   -0.1235 C   0  0  0  0  0  0  0  0  0  0  0  0
   -2.8091    1.3932    0.9914 C   0  0  0  0  0  0  0  0  0  0  0  0
   -4.0807    1.9940    0.8045 N   0  0  0  0  0  0  0  0  0  0  0  0
   -5.2704    1.2175    0.6329 C   0  0  0  0  0  0  0  0  0  0  0  0
   -5.1095   -0.0202    0.6759 O   0  0  0  0  0  0  0  0  0  0  0  0
   -6.5313    1.7631    0.4289 N   0  0  0  0  0  0  0  0  0  0  0  0
   -7.7279    1.0424    0.2400 C   0  0  0  0  0  0  0  0  0  0  0  0
   -8.9037    1.4746    0.8693 C   0  0  0  0  0  0  0  0  0  0  0  0
  -10.1129    0.8512    0.7297 C   0  0  0  0  0  0  0  0  0  0  0  0
  -11.3103    1.3854    1.4295 C   0  0  0  0  0  0  0  0  0  0  0  0
  -11.5130    0.7854    2.7838 C   0  0  0  0  0  0  0  0  0  0  0  0
  -11.2090    2.8982    1.6049 C   0  0  0  0  0  0  0  0  0  0  0  0
  -12.5298    1.1545    0.5310 C   0  0  0  0  0  0  0  0  0  0  0  0
  -10.1549   -0.2573   -0.0751 C   0  0  0  0  0  0  0  0  0  0  0  0
   -9.0293   -0.7643   -0.7461 C   0  0  0  0  0  0  0  0  0  0  0  0
   -9.1925   -1.9120   -1.5531 N   0  0  0  0  0  0  0  0  0  0  0  0
   -9.0036   -3.1966   -0.8594 C   0  0  0  0  0  0  0  0  0  0  0  0
   -7.5914   -3.6956   -0.9423 C   0  0  0  0  0  0  0  0  0  0  0  0
   -7.2491   -3.8697   -2.2840 O   0  0  0  0  0  0  0  0  0  0  0  0
   -9.6074   -1.9186   -3.1987 S   0  0  0  0  0  6  0  0  0  0  0  0
  -11.2387   -1.1460   -3.3113 C   0  0  0  0  0  0  0  0  0  0  0  0
   -9.7888   -3.3405   -3.6755 O   0  0  0  0  0  0  0  0  0  0  0  0
   -8.6487   -1.2399   -4.0935 O   0  0  0  0  0  0  0  0  0  0  0  0
   -7.8521   -0.0952   -0.5652 C   0  0  0  0  0  0  0  0  0  0  0  0
   -6.7079   -0.5285   -1.1833 O   0  0  0  0  0  0  0  0  0  0  0  0
   -6.2987   -0.0244   -2.4232 C   0  0  0  0  0  0  0  0  0  0  0  0
   -2.3118    1.0611    2.2583 C   0  0  0  0  0  0  0  0  0  0  0  0
   -3.0857    1.3360    3.3696 C   0  0  0  0  0  0  0  0  0  0  0  0
   -2.6416    1.0276    4.6387 C   0  0  0  0  0  0  0  0  0  0  0  0
   -1.3850    0.4284    4.7626 C   0  0  0  0  0  0  0  0  0  0  0  0
   -0.6184    0.1568    3.6499 C   0  0  0  0  0  0  0  0  0  0  0  0
   -1.0732    0.4702    2.3834 C   0  0  0  0  0  0  0  0  0  0  0  0
    1.6002   -1.8377   -0.4302 C   0  0  0  0  0  0  0  0  0  0  0  0
    2.4462   -2.0846   -1.4914 C   0  0  0  0  0  0  0  0  0  0  0  0
    3.3870   -1.1906   -1.8334 N   0  0  0  0  0  0  0  0  0  0  0  0
    6.1087   -0.1863   -0.0192 C   0  0  0  0  0  0  0  0  0  0  0  0
    7.3534   -0.2888    0.5433 C   0  0  0  0  0  0  0  0  0  0  0  0
    8.4168    0.5623    0.2039 C   0  0  0  0  0  0  0  0  0  0  0  0
    9.7030    0.3846    0.8462 C   0  0  0  0  0  0  0  0  0  0  0  0
    9.7576   -0.5768    1.7103 O   0  0  0  0  0  0  0  0  0  0  0  0
   10.8706    1.1362    0.6288 N   0  0  0  0  0  0  0  0  0  0  0  0
   12.0994    0.8606    1.3310 C   0  0  0  0  0  0  0  0  0  0  0  0
   12.6380   -0.5052    1.0750 C   0  0  0  0  0  0  0  0  0  0  0  0
   12.9210   -0.7574   -0.3001 N   0  0  0  0  0  0  0  0  0  0  0  0
   13.9907   -0.0366   -0.8830 C   0  0  0  0  0  0  0  0  0  0  0  0
   15.3215   -0.4685   -0.3659 C   0  0  0  0  0  0  0  0  0  0  0  0
   15.3558   -2.2442   -0.2177 S   0  0  0  0  0  4  0  0  0  0  0  0
   16.0589   -2.7436    1.0118 O   0  0  0  0  0  0  0  0  0  0  0  0
   13.8119   -3.0316   -0.5763 C   0  0  0  0  0  0  0  0  0  0  0  0
   12.6734   -2.0696   -0.7743 C   0  0  0  0  0  0  0  0  0  0  0  0
    8.4633    3.0020   -3.0292 H   0  0  0  0  0  0  0  0  0  0  0  0
    9.9246    3.8697   -2.3565 H   0  0  0  0  0  0  0  0  0  0  0  0
    8.3185    4.2736   -1.6958 H   0  0  0  0  0  0  0  0  0  0  0  0
    6.7244    2.4040   -2.0461 H   0  0  0  0  0  0  0  0  0  0  0  0
    4.3197    1.6175   -2.2418 H   0  0  0  0  0  0  0  0  0  0  0  0
    2.8615    1.1731    0.4107 H   0  0  0  0  0  0  0  0  0  0  0  0
   -0.2187    0.3282   -0.9148 H   0  0  0  0  0  0  0  0  0  0  0  0
   -2.4597    1.3920   -1.0877 H   0  0  0  0  0  0  0  0  0  0  0  0
   -4.1367    3.0268    0.7964 H   0  0  0  0  0  0  0  0  0  0  0  0
   -6.6237    2.8250    0.4134 H   0  0  0  0  0  0  0  0  0  0  0  0
   -8.8377    2.3696    1.5107 H   0  0  0  0  0  0  0  0  0  0  0  0
  -12.0442    1.5286    3.4161 H   0  0  0  0  0  0  0  0  0  0  0  0
  -10.5378    0.6003    3.2523 H   0  0  0  0  0  0  0  0  0  0  0  0
  -12.1658   -0.1144    2.7662 H   0  0  0  0  0  0  0  0  0  0  0  0
  -10.8856    3.1674    2.6274 H   0  0  0  0  0  0  0  0  0  0  0  0
  -10.5313    3.2882    0.8108 H   0  0  0  0  0  0  0  0  0  0  0  0
  -12.2330    3.3511    1.4962 H   0  0  0  0  0  0  0  0  0  0  0  0
  -12.1552    1.0973   -0.5087 H   0  0  0  0  0  0  0  0  0  0  0  0
  -12.9938    0.1958    0.7739 H   0  0  0  0  0  0  0  0  0  0  0  0
  -13.2438    2.0185    0.6380 H   0  0  0  0  0  0  0  0  0  0  0  0
  -11.0962   -0.7917   -0.2197 H   0  0  0  0  0  0  0  0  0  0  0  0
   -9.2751   -3.1170    0.2062 H   0  0  0  0  0  0  0  0  0  0  0  0
   -9.7191   -3.9124   -1.3151 H   0  0  0  0  0  0  0  0  0  0  0  0
   -7.5154   -4.7390   -0.5014 H   0  0  0  0  0  0  0  0  0  0  0  0
   -6.8635   -3.1098   -0.3729 H   0  0  0  0  0  0  0  0  0  0  0  0
   -7.4440   -4.8095   -2.5985 H   0  0  0  0  0  0  0  0  0  0  0  0
  -11.0525   -0.0549   -3.1679 H   0  0  0  0  0  0  0  0  0  0  0  0
  -11.8190   -1.5563   -2.4607 H   0  0  0  0  0  0  0  0  0  0  0  0
  -11.6991   -1.3868   -4.2904 H   0  0  0  0  0  0  0  0  0  0  0  0
   -6.1099   -0.8675   -3.1389 H   0  0  0  0  0  0  0  0  0  0  0  0
   -7.0504    0.6267   -2.8708 H   0  0  0  0  0  0  0  0  0  0  0  0
   -5.3518    0.5660   -2.3435 H   0  0  0  0  0  0  0  0  0  0  0  0
   -4.0534    1.8041    3.1903 H   0  0  0  0  0  0  0  0  0  0  0  0
   -3.2473    1.2433    5.5113 H   0  0  0  0  0  0  0  0  0  0  0  0
   -0.9856    0.1643    5.7404 H   0  0  0  0  0  0  0  0  0  0  0  0
    0.3710   -0.3136    3.7296 H   0  0  0  0  0  0  0  0  0  0  0  0
    0.8285   -2.5542   -0.1362 H   0  0  0  0  0  0  0  0  0  0  0  0
    2.2958   -3.0288   -2.0129 H   0  0  0  0  0  0  0  0  0  0  0  0
    5.2994   -0.8498    0.2525 H   0  0  0  0  0  0  0  0  0  0  0  0
    7.5087   -1.0500    1.2687 H   0  0  0  0  0  0  0  0  0  0  0  0
   10.8747    1.9105   -0.0466 H   0  0  0  0  0  0  0  0  0  0  0  0
   11.9025    0.9438    2.4439 H   0  0  0  0  0  0  0  0  0  0  0  0
   12.8618    1.6555    1.1423 H   0  0  0  0  0  0  0  0  0  0  0  0
   11.8936   -1.2588    1.3931 H   0  0  0  0  0  0  0  0  0  0  0  0
   13.5256   -0.6649    1.7374 H   0  0  0  0  0  0  0  0  0  0  0  0
   13.9820   -0.2522   -1.9880 H   0  0  0  0  0  0  0  0  0  0  0  0
   13.8356    1.0731   -0.7873 H   0  0  0  0  0  0  0  0  0  0  0  0
   15.6511    0.0365    0.5507 H   0  0  0  0  0  0  0  0  0  0  0  0
   16.0817   -0.2085   -1.1628 H   0  0  0  0  0  0  0  0  0  0  0  0
   13.5946   -3.8369    0.1672 H   0  0  0  0  0  0  0  0  0  0  0  0
   13.9239   -3.5923   -1.5508 H   0  0  0  0  0  0  0  0  0  0  0  0
   11.8073   -2.4889   -0.2323 H   0  0  0  0  0  0  0  0  0  0  0  0
   12.3564   -2.0020   -1.8520 H   0  0  0  0  0  0  0  0  0  0  0  0
  1  2  1  0
  2  3  1  0
  3  4  2  0
  4  5  1  0
  5  6  1  0
  6  7  1  0
  7  8  2  0
  8  9  1  0
  9 10  1  0
 10 11  1  0
 11 12  2  0
 12 13  1  0
 13 14  2  0
 14 15  1  0
 15 16  1  0
 16 17  2  0
 16 18  1  0
 18 19  1  0
 19 20  2  0
 20 21  1  0
 21 22  1  0
 22 23  1  0
 22 24  1  0
 22 25  1  0
 21 26  2  0
 26 27  1  0
 27 28  1  0
 28 29  1  0
 29 30  1  0
 30 31  1  0
 28 32  1  0
 32 33  1  0
 32 34  2  0
 32 35  2  0
 27 36  2  0
 36 37  1  0
 37 38  1  0
 14 39  1  0
 39 40  2  0
 40 41  1  0
 41 42  2  0
 42 43  1  0
 43 44  2  0
  9 45  2  0
 45 46  1  0
 46 47  2  0
  5 48  2  0
 48 49  1  0
 49 50  2  0
 50 51  1  0
 51 52  2  0
 51 53  1  0
 53 54  1  0
 54 55  1  0
 55 56  1  0
 56 57  1  0
 57 58  1  0
 58 59  1  0
 59 60  2  0
 59 61  1  0
 61 62  1  0
 50  3  1  0
 62 56  1  0
 47  7  1  0
 44 11  1  0
 36 19  1  0
 44 39  1  0
  1 63  1  0
  1 64  1  0
  1 65  1  0
  4 66  1  0
  6 67  1  0
  8 68  1  0
 12 69  1  0
 13 70  1  0
 15 71  1  0
 18 72  1  0
 20 73  1  0
 23 74  1  0
 23 75  1  0
 23 76  1  0
 24 77  1  0
 24 78  1  0
 24 79  1  0
 25 80  1  0
 25 81  1  0
 25 82  1  0
 26 83  1  0
 29 84  1  0
 29 85  1  0
 30 86  1  0
 30 87  1  0
 31 88  1  0
 33 89  1  0
 33 90  1  0
 33 91  1  0
 38 92  1  0
 38 93  1  0
 38 94  1  0
 40 95  1  0
 41 96  1  0
 42 97  1  0
 43 98  1  0
 45 99  1  0
 46100  1  0
 48101  1  0
 49102  1  0
 53103  1  0
 54104  1  0
 54105  1  0
 55106  1  0
 55107  1  0
 57108  1  0
 57109  1  0
 58110  1  0
 58111  1  0
 61112  1  0
 61113  1  0
 62114  1  0
 62115  1  0
M  END
$$$$
