
     RDKit          3D

 64 67  0  0  0  0  0  0  0  0999 V2000
    8.7797   -3.4476   -0.7617 C   0  0  0  0  0  0  0  0  0  0  0  0
    7.5612   -2.5975   -0.8195 C   0  0  0  0  0  0  0  0  0  0  0  0
    7.5983   -1.2673   -0.4597 C   0  0  0  0  0  0  0  0  0  0  0  0
    6.4892   -0.5105   -0.5167 N   0  0  0  0  0  0  0  0  0  0  0  0
    5.2843   -1.0070   -0.9269 C   0  0  0  0  0  0  0  0  0  0  0  0
    4.1123   -0.1434   -0.9703 C   0  0  0  0  0  0  0  0  0  0  0  0
    4.2188    1.1906   -0.5934 C   0  0  0  0  0  0  0  0  0  0  0  0
    3.1372    2.0590   -0.6144 C   0  0  0  0  0  0  0  0  0  0  0  0
    1.8995    1.6124   -1.0189 C   0  0  0  0  0  0  0  0  0  0  0  0
    0.7583    2.5405   -1.0398 C   0  0  2  0  0  0  0  0  0  0  0  0
    1.1287    3.7959   -0.2690 C   0  0  0  0  0  0  0  0  0  0  0  0
   -0.4399    2.0320   -0.4766 N   0  0  0  0  0  0  0  0  0  0  0  0
   -0.5498    1.5753    0.8927 C   0  0  0  0  0  0  0  0  0  0  0  0
   -1.1748    0.2086    0.8587 C   0  0  0  0  0  0  0  0  0  0  0  0
   -2.6598    0.3765    0.4767 C   0  0  2  0  0  0  0  0  0  0  0  0
   -3.3652    0.6300    1.7590 C   0  0  0  0  0  0  0  0  0  0  0  0
   -4.8234    0.8349    1.7500 C   0  0  0  0  0  0  0  0  0  0  0  0
   -5.6811   -0.2701    1.2521 C   0  0  0  0  0  0  0  0  0  0  0  0
   -5.2311    1.1154    3.2097 C   0  0  0  0  0  0  0  0  0  0  0  0
   -5.1979    2.0240    1.0752 O   0  0  0  0  0  0  0  0  0  0  0  0
   -3.1134   -0.8026   -0.2828 C   0  0  0  0  0  0  0  0  0  0  0  0
   -3.9826   -0.6479   -1.3312 C   0  0  0  0  0  0  0  0  0  0  0  0
   -4.4160   -1.7427   -2.0526 C   0  0  0  0  0  0  0  0  0  0  0  0
   -3.9626   -2.9934   -1.7043 C   0  0  0  0  0  0  0  0  0  0  0  0
   -3.0852   -3.1842   -0.6519 C   0  0  0  0  0  0  0  0  0  0  0  0
   -2.6687   -2.0541    0.0547 C   0  0  0  0  0  0  0  0  0  0  0  0
   -2.7551    1.4754   -0.4079 O   0  0  0  0  0  0  0  0  0  0  0  0
   -1.6822    1.9145   -1.1894 C   0  0  0  0  0  0  0  0  0  0  0  0
   -1.7610    2.1893   -2.4032 O   0  0  0  0  0  0  0  0  0  0  0  0
    1.7950    0.2894   -1.3925 C   0  0  0  0  0  0  0  0  0  0  0  0
    2.8804   -0.5951   -1.3748 C   0  0  0  0  0  0  0  0  0  0  0  0
    5.2632   -2.3302   -1.2811 C   0  0  0  0  0  0  0  0  0  0  0  0
    6.3861   -3.1071   -1.2262 N   0  0  0  0  0  0  0  0  0  0  0  0
    8.6580   -4.2827   -1.4567 H   0  0  0  0  0  0  0  0  0  0  0  0
    9.6839   -2.8723   -1.0820 H   0  0  0  0  0  0  0  0  0  0  0  0
    8.9870   -3.8302    0.2556 H   0  0  0  0  0  0  0  0  0  0  0  0
    8.5586   -0.8725   -0.1330 H   0  0  0  0  0  0  0  0  0  0  0  0
    5.2074    1.5184   -0.2779 H   0  0  0  0  0  0  0  0  0  0  0  0
    3.2923    3.1000   -0.3042 H   0  0  0  0  0  0  0  0  0  0  0  0
    0.6255    2.8478   -2.1203 H   0  0  0  0  0  0  0  0  0  0  0  0
    1.8400    4.4366   -0.7876 H   0  0  0  0  0  0  0  0  0  0  0  0
    1.5707    3.4972    0.7010 H   0  0  0  0  0  0  0  0  0  0  0  0
    0.2131    4.4337   -0.0979 H   0  0  0  0  0  0  0  0  0  0  0  0
   -1.2416    2.3162    1.3844 H   0  0  0  0  0  0  0  0  0  0  0  0
    0.4267    1.5846    1.4184 H   0  0  0  0  0  0  0  0  0  0  0  0
   -0.6673   -0.4218    0.1292 H   0  0  0  0  0  0  0  0  0  0  0  0
   -1.0896   -0.2080    1.8826 H   0  0  0  0  0  0  0  0  0  0  0  0
   -2.9081    1.5603    2.2035 H   0  0  0  0  0  0  0  0  0  0  0  0
   -3.1407   -0.1664    2.5307 H   0  0  0  0  0  0  0  0  0  0  0  0
   -6.5579   -0.4388    1.9620 H   0  0  0  0  0  0  0  0  0  0  0  0
   -6.2189    0.0248    0.3043 H   0  0  0  0  0  0  0  0  0  0  0  0
   -5.2226   -1.2529    1.1644 H   0  0  0  0  0  0  0  0  0  0  0  0
   -5.1483    0.1406    3.7319 H   0  0  0  0  0  0  0  0  0  0  0  0
   -4.5884    1.9017    3.6367 H   0  0  0  0  0  0  0  0  0  0  0  0
   -6.3188    1.3978    3.2187 H   0  0  0  0  0  0  0  0  0  0  0  0
   -6.1056    2.3117    1.3272 H   0  0  0  0  0  0  0  0  0  0  0  0
   -4.3493    0.3594   -1.6137 H   0  0  0  0  0  0  0  0  0  0  0  0
   -5.1060   -1.5803   -2.8781 H   0  0  0  0  0  0  0  0  0  0  0  0
   -4.3036   -3.8699   -2.2746 H   0  0  0  0  0  0  0  0  0  0  0  0
   -2.7314   -4.1839   -0.3842 H   0  0  0  0  0  0  0  0  0  0  0  0
   -1.9859   -2.1987    0.8743 H   0  0  0  0  0  0  0  0  0  0  0  0
    0.8126   -0.0412   -1.7092 H   0  0  0  0  0  0  0  0  0  0  0  0
    2.7196   -1.6058   -1.6789 H   0  0  0  0  0  0  0  0  0  0  0  0
    4.3461   -2.7684   -1.6093 H   0  0  0  0  0  0  0  0  0  0  0  0
  1  2  1  0
  2  3  2  0
  3  4  1  0
  4  5  2  0
  5  6  1  0
  6  7  2  0
  7  8  1  0
  8  9  2  0
  9 10  1  0
 10 11  1  0
 10 12  1  0
 12 13  1  0
 13 14  1  0
 14 15  1  0
 15 16  1  1
 16 17  1  0
 17 18  1  0
 17 19  1  0
 17 20  1  0
 15 21  1  0
 21 22  2  0
 22 23  1  0
 23 24  2  0
 24 25  1  0
 25 26  2  0
 15 27  1  0
 27 28  1  0
 28 29  2  0
  9 30  1  0
 30 31  2  0
  5 32  1  0
 32 33  2  0
 33  2  1  0
 31  6  1  0
 28 12  1  0
 26 21  1  0
  1 34  1  0
  1 35  1  0
  1 36  1  0
  3 37  1  0
  7 38  1  0
  8 39  1  0
 10 40  1  6
 11 41  1  0
 11 42  1  0
 11 43  1  0
 13 44  1  0
 13 45  1  0
 14 46  1  0
 14 47  1  0
 16 48  1  0
 16 49  1  0
 18 50  1  0
 18 51  1  0
 18 52  1  0
 19 53  1  0
 19 54  1  0
 19 55  1  0
 20 56  1  0
 22 57  1  0
 23 58  1  0
 24 59  1  0
 25 60  1  0
 26 61  1  0
 30 62  1  0
 31 63  1  0
 32 64  1  0
M  END
$$$$
