
     RDKit          3D

 58 60  0  0  0  0  0  0  0  0999 V2000
   -4.3144   -2.3037    0.1207 C   0  0  0  0  0  0  0  0  0  0  0  0
   -4.5212   -1.3235   -0.9667 C   0  0  0  0  0  0  0  0  0  0  0  0
   -3.6875   -0.1524   -0.9794 N   0  0  0  0  0  0  0  0  0  0  0  0
   -2.5107   -0.0908   -1.7308 C   0  0  0  0  0  0  0  0  0  0  0  0
   -1.1668   -0.3854   -1.2200 C   0  0  0  0  0  0  0  0  0  0  0  0
   -0.2307   -0.1955   -2.2804 O   0  0  0  0  0  0  0  0  0  0  0  0
   -0.7554    0.5537   -0.1098 C   0  0  0  0  0  0  0  0  0  0  0  0
    0.5490    0.3802    0.4234 N   0  0  0  0  0  0  0  0  0  0  0  0
    1.7922    0.5389   -0.2286 C   0  0  0  0  0  0  0  0  0  0  0  0
    1.8176    0.8861   -1.4247 O   0  0  0  0  0  0  0  0  0  0  0  0
    3.0695    0.3122    0.4371 C   0  0  0  0  0  0  0  0  0  0  0  0
    3.2201   -0.0726    1.7441 C   0  0  0  0  0  0  0  0  0  0  0  0
    4.5462   -0.1691    1.9430 N   0  0  0  0  0  0  0  0  0  0  0  0
    5.2135    0.1359    0.8287 N   0  0  0  0  0  0  0  0  0  0  0  0
    6.6300    0.1300    0.6991 C   0  0  0  0  0  0  0  0  0  0  0  0
    7.3178    0.9930   -0.1273 C   0  0  0  0  0  0  0  0  0  0  0  0
    8.6965    0.9660   -0.2373 C   0  0  0  0  0  0  0  0  0  0  0  0
    9.4251    0.0525    0.4962 C   0  0  0  0  0  0  0  0  0  0  0  0
   10.7871    0.0169    0.3968 F   0  0  0  0  0  0  0  0  0  0  0  0
    8.7620   -0.8275    1.3351 C   0  0  0  0  0  0  0  0  0  0  0  0
    7.3674   -0.7783    1.4272 C   0  0  0  0  0  0  0  0  0  0  0  0
    4.3309    0.4358   -0.1124 C   0  0  0  0  0  0  0  0  0  0  0  0
    4.6224    0.8139   -1.4372 N   0  0  0  0  0  0  0  0  0  0  0  0
   -0.8853   -1.7754   -0.7298 C   0  0  0  0  0  0  0  0  0  0  0  0
   -1.1067   -2.7284   -1.6970 F   0  0  0  0  0  0  0  0  0  0  0  0
    0.5509   -1.7961   -0.6186 F   0  0  0  0  0  0  0  0  0  0  0  0
   -1.2954   -2.0744    0.5182 F   0  0  0  0  0  0  0  0  0  0  0  0
   -4.1421    0.9894   -0.2684 C   0  0  0  0  0  0  0  0  0  0  0  0
   -3.4641    2.0558   -0.2249 O   0  0  0  0  0  0  0  0  0  0  0  0
   -5.3970    1.0462    0.4560 C   0  0  0  0  0  0  0  0  0  0  0  0
   -5.5619    0.8509    1.7915 C   0  0  0  0  0  0  0  0  0  0  0  0
   -4.1528    0.5137    2.7741 Cl  0  0  0  0  0  0  0  0  0  0  0  0
   -6.7917    0.9194    2.4326 C   0  0  0  0  0  0  0  0  0  0  0  0
   -7.9266    1.1993    1.7058 C   0  0  0  0  0  0  0  0  0  0  0  0
   -7.7933    1.4033    0.3504 C   0  0  0  0  0  0  0  0  0  0  0  0
   -6.5534    1.3314   -0.2786 C   0  0  0  0  0  0  0  0  0  0  0  0
   -6.4258    1.6211   -1.9903 Cl  0  0  0  0  0  0  0  0  0  0  0  0
   -3.9128   -1.8406    1.0208 H   0  0  0  0  0  0  0  0  0  0  0  0
   -5.3196   -2.7664    0.3493 H   0  0  0  0  0  0  0  0  0  0  0  0
   -3.6390   -3.1253   -0.2643 H   0  0  0  0  0  0  0  0  0  0  0  0
   -5.6196   -1.0407   -1.0719 H   0  0  0  0  0  0  0  0  0  0  0  0
   -4.3210   -1.8302   -1.9676 H   0  0  0  0  0  0  0  0  0  0  0  0
   -2.6103   -0.6754   -2.7218 H   0  0  0  0  0  0  0  0  0  0  0  0
   -2.4651    0.9772   -2.1596 H   0  0  0  0  0  0  0  0  0  0  0  0
   -0.2188   -1.0311   -2.8118 H   0  0  0  0  0  0  0  0  0  0  0  0
   -0.7903    1.5983   -0.5371 H   0  0  0  0  0  0  0  0  0  0  0  0
   -1.4806    0.5279    0.7355 H   0  0  0  0  0  0  0  0  0  0  0  0
    0.6489    0.0905    1.4506 H   0  0  0  0  0  0  0  0  0  0  0  0
    2.4764   -0.2723    2.5043 H   0  0  0  0  0  0  0  0  0  0  0  0
    6.7474    1.6986   -0.6942 H   0  0  0  0  0  0  0  0  0  0  0  0
    9.2449    1.6383   -0.8810 H   0  0  0  0  0  0  0  0  0  0  0  0
    9.3570   -1.5199    1.8875 H   0  0  0  0  0  0  0  0  0  0  0  0
    6.8870   -1.4710    2.0838 H   0  0  0  0  0  0  0  0  0  0  0  0
    4.2281    1.6907   -1.8376 H   0  0  0  0  0  0  0  0  0  0  0  0
    5.2339    0.2367   -2.0496 H   0  0  0  0  0  0  0  0  0  0  0  0
   -6.8732    0.7580    3.4869 H   0  0  0  0  0  0  0  0  0  0  0  0
   -8.9168    1.2602    2.1916 H   0  0  0  0  0  0  0  0  0  0  0  0
   -8.6720    1.6238   -0.2352 H   0  0  0  0  0  0  0  0  0  0  0  0
  1  2  1  0
  2  3  1  0
  3  4  1  0
  4  5  1  0
  5  6  1  0
  5  7  1  0
  7  8  1  0
  8  9  1  0
  9 10  2  0
  9 11  1  0
 11 12  1  0
 12 13  2  0
 13 14  1  0
 14 15  1  0
 15 16  2  0
 16 17  1  0
 17 18  2  0
 18 19  1  0
 18 20  1  0
 20 21  2  0
 14 22  1  0
 22 23  1  0
  5 24  1  0
 24 25  1  0
 24 26  1  0
 24 27  1  0
  3 28  1  0
 28 29  2  0
 28 30  1  0
 30 31  2  0
 31 32  1  0
 31 33  1  0
 33 34  2  0
 34 35  1  0
 35 36  2  0
 36 37  1  0
 22 11  2  0
 36 30  1  0
 21 15  1  0
  1 38  1  0
  1 39  1  0
  1 40  1  0
  2 41  1  0
  2 42  1  0
  4 43  1  0
  4 44  1  0
  6 45  1  0
  7 46  1  0
  7 47  1  0
  8 48  1  0
 12 49  1  0
 16 50  1  0
 17 51  1  0
 20 52  1  0
 21 53  1  0
 23 54  1  0
 23 55  1  0
 33 56  1  0
 34 57  1  0
 35 58  1  0
M  END
$$$$
