
     RDKit          3D

177177  0  0  0  0  0  0  0  0999 V2000
   11.4044    7.3612    1.9039 C   0  0  0  0  0  0  0  0  0  0  0  0
   11.6048    6.2993    1.0481 O   0  0  0  0  0  0  0  0  0  0  0  0
   10.4147    5.7159    0.7252 C   0  0  0  0  0  0  0  0  0  0  0  0
    9.6155    5.1624    1.8611 C   0  0  2  0  0  0  0  0  0  0  0  0
   10.2881    4.1636    2.6169 N   0  0  0  0  0  0  0  0  0  0  0  0
    9.4390    3.6464    3.6495 C   0  0  0  0  0  0  0  0  0  0  0  0
   11.0268    3.1937    1.8856 C   0  0  0  0  0  0  0  0  0  0  0  0
    8.3121    4.6710    1.3531 C   0  0  0  0  0  0  0  0  0  0  0  0
    7.8510    5.5239    0.5127 O   0  0  0  0  0  0  0  0  0  0  0  0
    7.6110    3.5122    1.6488 O   0  0  0  0  0  0  0  0  0  0  0  0
    6.4018    3.1674    1.0692 C   0  0  2  0  0  0  0  0  0  0  0  0
    5.1690    3.2523    1.9445 C   0  0  0  0  0  0  0  0  0  0  0  0
    3.9904    2.7777    1.0850 C   0  0  0  0  0  0  0  0  0  0  0  0
    3.1468    1.8119    1.2490 C   0  0  0  0  0  0  0  0  0  0  0  0
    2.0676    0.8631    1.1009 C   0  0  0  0  0  0  0  0  0  0  0  0
    1.5350    1.2795   -0.0851 C   0  0  0  0  0  0  0  0  0  0  0  0
    0.6150    1.3136   -1.2807 C   0  0  0  0  0  0  0  0  0  0  0  0
    0.1030    1.6997   -2.3627 O   0  0  0  0  0  0  0  0  0  0  0  0
   -0.1588    0.1867   -1.0215 O   0  0  0  0  0  0  0  0  0  0  0  0
   -1.1842   -0.3246   -1.8122 C   0  0  1  0  0  0  0  0  0  0  0  0
   -0.4961   -1.4447   -2.6484 C   0  0  0  0  0  0  0  0  0  0  0  0
    0.1656   -2.4468   -1.8100 C   0  0  0  0  0  0  0  0  0  0  0  0
   -0.1286   -3.7653   -1.8125 C   0  0  0  0  0  0  0  0  0  0  0  0
    0.2488   -5.0644   -1.1793 C   0  0  2  0  0  0  0  0  0  0  0  0
   -0.8691   -5.5272   -0.5121 O   0  0  0  0  0  0  0  0  0  0  0  0
   -1.3187   -6.7499   -1.0061 C   0  0  0  0  0  0  0  0  0  0  0  0
    1.4260   -4.8730   -0.2247 C   0  0  0  0  0  0  0  0  0  0  0  0
    2.6274   -4.3447   -0.9186 C   0  0  2  0  0  0  0  0  0  0  0  0
    3.1131   -5.3713   -1.9481 C   0  0  0  0  0  0  0  0  0  0  0  0
    3.7373   -3.9082    0.0044 C   0  0  0  0  0  0  0  0  0  0  0  0
    4.8584   -3.3055   -0.8107 C   0  0  0  0  0  0  0  0  0  0  0  0
    6.1328   -3.6188   -0.9431 C   0  0  0  0  0  0  0  0  0  0  0  0
    6.8509   -4.7264   -0.2701 C   0  0  0  0  0  0  0  0  0  0  0  0
    7.0069   -2.8769   -1.8604 C   0  0  1  0  0  0  0  0  0  0  0  0
    6.2266   -2.0998   -2.7466 O   0  0  0  0  0  0  0  0  0  0  0  0
    6.3009   -2.5573   -4.0514 C   0  0  0  0  0  0  0  0  0  0  0  0
    8.1125   -2.0891   -1.2767 C   0  0  0  0  0  0  0  0  0  0  0  0
    7.8219   -0.7711   -0.6580 C   0  0  0  0  0  0  0  0  0  0  0  0
    6.8404   -0.6355    0.4215 C   0  0  1  0  0  0  0  0  0  0  0  0
    7.0581   -1.6646    1.5403 C   0  0  0  0  0  0  0  0  0  0  0  0
    6.9085    0.7431    1.0615 C   0  0  1  0  0  0  0  0  0  0  0  0
    8.2646    0.8810    1.4456 O   0  0  0  0  0  0  0  0  0  0  0  0
    6.4565    1.8601    0.2479 C   0  0  2  0  0  0  0  0  0  0  0  0
    7.3084    2.2014   -0.9360 C   0  0  0  0  0  0  0  0  0  0  0  0
   -2.3487   -0.8052   -1.0924 C   0  0  1  0  0  0  0  0  0  0  0  0
   -1.9756   -1.8704   -0.0679 C   0  0  0  0  0  0  0  0  0  0  0  0
   -3.1645    0.2428   -0.4041 C   0  0  1  0  0  0  0  0  0  0  0  0
   -2.2850    0.8523    0.5263 O   0  0  0  0  0  0  0  0  0  0  0  0
   -3.6487    1.3163   -1.3013 C   0  0  1  0  0  0  0  0  0  0  0  0
   -4.4430    0.6481   -2.4488 C   0  0  0  0  0  0  0  0  0  0  0  0
   -4.7131    2.1594   -0.5266 C   0  0  0  0  0  0  0  0  0  0  0  0
   -5.8519    1.2217   -0.1624 C   0  0  0  0  0  0  0  0  0  0  0  0
   -7.0017    1.9129    0.4447 C   0  0  1  0  0  0  0  0  0  0  0  0
   -7.6637    2.8432   -0.2274 O   0  0  0  0  0  0  0  0  0  0  0  0
   -8.2355    3.8077   -0.7574 C   0  0  0  0  0  0  0  0  0  0  0  0
   -7.6315    4.1908    0.2506 O   0  0  0  0  0  0  0  0  0  0  0  0
   -9.0855    4.2778   -1.8513 C   0  0  2  0  0  0  0  0  0  0  0  0
  -10.4216    4.7510   -1.2831 C   0  0  0  0  0  0  0  0  0  0  0  0
   -9.3522    3.2212   -2.7789 N   0  0  0  0  0  0  0  0  0  0  0  0
  -10.0726    2.1376   -2.1886 C   0  0  0  0  0  0  0  0  0  0  0  0
   -9.8507    3.6752   -4.0367 C   0  0  0  0  0  0  0  0  0  0  0  0
   -7.9539    1.0266    1.2813 C   0  0  2  0  0  0  0  0  0  0  0  0
   -7.1923    0.5008    2.4823 C   0  0  0  0  0  0  0  0  0  0  0  0
   -8.5326   -0.1195    0.4879 C   0  0  2  0  0  0  0  0  0  0  0  0
   -9.5140   -0.6875    1.4295 O   0  0  0  0  0  0  0  0  0  0  0  0
  -10.8403   -0.7733    1.0571 C   0  0  0  0  0  0  0  0  0  0  0  0
  -11.9578   -1.3341    1.8365 C   0  0  0  0  0  0  0  0  0  0  0  0
  -11.0783   -0.3074   -0.0898 O   0  0  0  0  0  0  0  0  0  0  0  0
   -7.6307   -1.3289    0.3237 C   0  0  2  0  0  0  0  0  0  0  0  0
   -8.3932   -2.3584   -0.5610 C   0  0  0  0  0  0  0  0  0  0  0  0
   -7.5072   -2.0940    1.6355 C   0  0  0  0  0  0  0  0  0  0  0  0
   -6.6086   -2.5990    2.4813 C   0  0  0  0  0  0  0  0  0  0  0  0
   -7.1842   -3.2619    3.6388 N   0  0  0  0  0  0  0  0  0  0  0  0
   -6.9940   -2.8825    5.0192 C   0  0  0  0  0  0  0  0  0  0  0  0
   -8.0143   -4.3693    3.3724 C   0  0  0  0  0  0  0  0  0  0  0  0
   -8.2635   -4.8629    2.2295 O   0  0  0  0  0  0  0  0  0  0  0  0
   10.7397    8.1586    1.4740 H   0  0  0  0  0  0  0  0  0  0  0  0
   11.0635    6.9949    2.8907 H   0  0  0  0  0  0  0  0  0  0  0  0
   12.3988    7.8772    1.9907 H   0  0  0  0  0  0  0  0  0  0  0  0
   10.5112    4.9364   -0.0818 H   0  0  0  0  0  0  0  0  0  0  0  0
    9.7807    6.5104    0.2297 H   0  0  0  0  0  0  0  0  0  0  0  0
    9.3530    5.9845    2.5862 H   0  0  0  0  0  0  0  0  0  0  0  0
    8.5795    4.3460    3.8373 H   0  0  0  0  0  0  0  0  0  0  0  0
    8.9817    2.6687    3.3899 H   0  0  0  0  0  0  0  0  0  0  0  0
    9.9855    3.5816    4.6260 H   0  0  0  0  0  0  0  0  0  0  0  0
   10.4528    2.4652    1.3081 H   0  0  0  0  0  0  0  0  0  0  0  0
   11.7562    3.7506    1.2452 H   0  0  0  0  0  0  0  0  0  0  0  0
   11.5940    2.5876    2.6519 H   0  0  0  0  0  0  0  0  0  0  0  0
    6.2064    3.9718    0.2817 H   0  0  0  0  0  0  0  0  0  0  0  0
    4.9621    4.3258    2.1176 H   0  0  0  0  0  0  0  0  0  0  0  0
    5.1730    2.6107    2.8183 H   0  0  0  0  0  0  0  0  0  0  0  0
    3.9174    3.4128    0.1960 H   0  0  0  0  0  0  0  0  0  0  0  0
    3.4602    1.3881    2.2302 H   0  0  0  0  0  0  0  0  0  0  0  0
    1.6417    0.0393    1.5965 H   0  0  0  0  0  0  0  0  0  0  0  0
    1.8335    2.1060   -0.7356 H   0  0  0  0  0  0  0  0  0  0  0  0
   -1.4376    0.3880   -2.6687 H   0  0  0  0  0  0  0  0  0  0  0  0
   -1.3232   -1.9604   -3.2211 H   0  0  0  0  0  0  0  0  0  0  0  0
    0.1541   -1.0096   -3.4255 H   0  0  0  0  0  0  0  0  0  0  0  0
    0.8450   -1.7257   -1.3130 H   0  0  0  0  0  0  0  0  0  0  0  0
   -0.9393   -3.9999   -2.5286 H   0  0  0  0  0  0  0  0  0  0  0  0
    0.5035   -5.7920   -1.9729 H   0  0  0  0  0  0  0  0  0  0  0  0
   -1.5788   -6.6560   -2.0591 H   0  0  0  0  0  0  0  0  0  0  0  0
   -0.5602   -7.5186   -0.7710 H   0  0  0  0  0  0  0  0  0  0  0  0
   -2.2334   -7.0332   -0.4465 H   0  0  0  0  0  0  0  0  0  0  0  0
    1.6302   -5.9076    0.1659 H   0  0  0  0  0  0  0  0  0  0  0  0
    1.1836   -4.2245    0.6173 H   0  0  0  0  0  0  0  0  0  0  0  0
    2.3646   -3.4452   -1.5442 H   0  0  0  0  0  0  0  0  0  0  0  0
    4.1314   -5.0621   -2.2999 H   0  0  0  0  0  0  0  0  0  0  0  0
    3.1070   -6.3819   -1.5289 H   0  0  0  0  0  0  0  0  0  0  0  0
    2.4447   -5.3357   -2.8071 H   0  0  0  0  0  0  0  0  0  0  0  0
    4.1450   -4.7889    0.5269 H   0  0  0  0  0  0  0  0  0  0  0  0
    3.3919   -3.1609    0.7236 H   0  0  0  0  0  0  0  0  0  0  0  0
    4.3628   -2.4811   -1.2992 H   0  0  0  0  0  0  0  0  0  0  0  0
    7.1418   -5.4189   -1.1265 H   0  0  0  0  0  0  0  0  0  0  0  0
    7.7669   -4.4637    0.2463 H   0  0  0  0  0  0  0  0  0  0  0  0
    6.1640   -5.2588    0.4316 H   0  0  0  0  0  0  0  0  0  0  0  0
    7.4547   -3.6574   -2.5514 H   0  0  0  0  0  0  0  0  0  0  0  0
    5.6632   -1.9477   -4.7342 H   0  0  0  0  0  0  0  0  0  0  0  0
    7.3460   -2.3912   -4.4582 H   0  0  0  0  0  0  0  0  0  0  0  0
    6.0539   -3.6046   -4.1821 H   0  0  0  0  0  0  0  0  0  0  0  0
    8.8300   -1.8841   -2.1455 H   0  0  0  0  0  0  0  0  0  0  0  0
    8.7272   -2.7563   -0.6180 H   0  0  0  0  0  0  0  0  0  0  0  0
    7.4818   -0.1444   -1.5524 H   0  0  0  0  0  0  0  0  0  0  0  0
    8.7973   -0.3024   -0.3122 H   0  0  0  0  0  0  0  0  0  0  0  0
    5.8105   -0.7586    0.0475 H   0  0  0  0  0  0  0  0  0  0  0  0
    7.3953   -1.2108    2.4783 H   0  0  0  0  0  0  0  0  0  0  0  0
    6.1128   -2.2225    1.6525 H   0  0  0  0  0  0  0  0  0  0  0  0
    7.8213   -2.3612    1.1511 H   0  0  0  0  0  0  0  0  0  0  0  0
    6.3912    0.6971    2.0747 H   0  0  0  0  0  0  0  0  0  0  0  0
    8.4801    0.4739    2.2936 H   0  0  0  0  0  0  0  0  0  0  0  0
    5.4094    1.7458   -0.1320 H   0  0  0  0  0  0  0  0  0  0  0  0
    6.8422    1.9488   -1.9213 H   0  0  0  0  0  0  0  0  0  0  0  0
    7.3758    3.3512   -1.0341 H   0  0  0  0  0  0  0  0  0  0  0  0
    8.3430    1.8936   -0.9061 H   0  0  0  0  0  0  0  0  0  0  0  0
   -3.0679   -1.3547   -1.8469 H   0  0  0  0  0  0  0  0  0  0  0  0
   -0.9219   -1.8440    0.2456 H   0  0  0  0  0  0  0  0  0  0  0  0
   -2.3467   -2.8670   -0.3312 H   0  0  0  0  0  0  0  0  0  0  0  0
   -2.5312   -1.6452    0.9109 H   0  0  0  0  0  0  0  0  0  0  0  0
   -3.9721   -0.2819    0.0910 H   0  0  0  0  0  0  0  0  0  0  0  0
   -2.8272    1.1113    1.3142 H   0  0  0  0  0  0  0  0  0  0  0  0
   -2.9489    2.0147   -1.7134 H   0  0  0  0  0  0  0  0  0  0  0  0
   -3.7565    0.6003   -3.3136 H   0  0  0  0  0  0  0  0  0  0  0  0
   -4.7648   -0.3499   -2.1600 H   0  0  0  0  0  0  0  0  0  0  0  0
   -5.2661    1.3206   -2.7619 H   0  0  0  0  0  0  0  0  0  0  0  0
   -4.9931    3.0521   -1.0629 H   0  0  0  0  0  0  0  0  0  0  0  0
   -4.2015    2.4389    0.4124 H   0  0  0  0  0  0  0  0  0  0  0  0
   -5.4433    0.5508    0.5907 H   0  0  0  0  0  0  0  0  0  0  0  0
   -6.1240    0.6155   -1.0622 H   0  0  0  0  0  0  0  0  0  0  0  0
   -6.4973    2.4933    1.3271 H   0  0  0  0  0  0  0  0  0  0  0  0
   -8.5717    5.1231   -2.3622 H   0  0  0  0  0  0  0  0  0  0  0  0
  -11.2559    4.2420   -1.8530 H   0  0  0  0  0  0  0  0  0  0  0  0
  -10.5359    5.8692   -1.3912 H   0  0  0  0  0  0  0  0  0  0  0  0
  -10.4523    4.4883   -0.2192 H   0  0  0  0  0  0  0  0  0  0  0  0
   -9.5898    1.1448   -2.4597 H   0  0  0  0  0  0  0  0  0  0  0  0
  -10.1647    2.1837   -1.1013 H   0  0  0  0  0  0  0  0  0  0  0  0
  -11.1051    2.1169   -2.6219 H   0  0  0  0  0  0  0  0  0  0  0  0
   -9.0979    3.3944   -4.8222 H   0  0  0  0  0  0  0  0  0  0  0  0
   -9.9387    4.7776   -4.0393 H   0  0  0  0  0  0  0  0  0  0  0  0
  -10.8172    3.1734   -4.2751 H   0  0  0  0  0  0  0  0  0  0  0  0
   -8.7434    1.7040    1.6463 H   0  0  0  0  0  0  0  0  0  0  0  0
   -7.8409   -0.1449    3.1073 H   0  0  0  0  0  0  0  0  0  0  0  0
   -6.1936    0.1682    2.2879 H   0  0  0  0  0  0  0  0  0  0  0  0
   -7.0659    1.4295    3.1390 H   0  0  0  0  0  0  0  0  0  0  0  0
   -9.0516    0.1047   -0.4051 H   0  0  0  0  0  0  0  0  0  0  0  0
  -11.6509   -2.3661    2.1868 H   0  0  0  0  0  0  0  0  0  0  0  0
  -12.1885   -0.7334    2.7130 H   0  0  0  0  0  0  0  0  0  0  0  0
  -12.8599   -1.4858    1.1967 H   0  0  0  0  0  0  0  0  0  0  0  0
   -6.6763   -1.2424   -0.0976 H   0  0  0  0  0  0  0  0  0  0  0  0
   -9.4173   -2.4511   -0.1849 H   0  0  0  0  0  0  0  0  0  0  0  0
   -8.3845   -1.9424   -1.5891 H   0  0  0  0  0  0  0  0  0  0  0  0
   -7.8646   -3.3388   -0.4781 H   0  0  0  0  0  0  0  0  0  0  0  0
   -8.5614   -2.2318    1.9122 H   0  0  0  0  0  0  0  0  0  0  0  0
   -5.6514   -2.3319    1.9886 H   0  0  0  0  0  0  0  0  0  0  0  0
   -7.9468   -2.5627    5.5020 H   0  0  0  0  0  0  0  0  0  0  0  0
   -6.5641   -3.7016    5.6258 H   0  0  0  0  0  0  0  0  0  0  0  0
   -6.3347   -1.9691    5.0820 H   0  0  0  0  0  0  0  0  0  0  0  0
   -8.2986   -4.8744    2.4517 H   0  0  0  0  0  0  0  0  0  0  0  0
  1  2  1  0
  2  3  1  0
  3  4  1  0
  4  5  1  0
  5  6  1  0
  5  7  1  0
  4  8  1  0
  8  9  2  0
  8 10  1  0
 10 11  1  0
 11 12  1  0
 12 13  1  0
 13 14  2  0
 14 15  1  0
 15 16  2  0
 16 17  1  0
 17 18  2  0
 17 19  1  0
 19 20  1  0
 20 21  1  0
 21 22  1  0
 22 23  2  0
 23 24  1  0
 24 25  1  0
 25 26  1  0
 24 27  1  0
 27 28  1  0
 28 29  1  0
 28 30  1  0
 30 31  1  0
 31 32  2  0
 32 33  1  0
 32 34  1  0
 34 35  1  0
 35 36  1  0
 34 37  1  0
 37 38  1  0
 38 39  1  0
 39 40  1  0
 39 41  1  0
 41 42  1  0
 41 43  1  0
 43 44  1  0
 20 45  1  0
 45 46  1  0
 45 47  1  0
 47 48  1  0
 47 49  1  0
 49 50  1  0
 49 51  1  0
 51 52  1  0
 52 53  1  0
 53 54  1  0
 54 55  1  0
 55 56  2  0
 55 57  1  0
 57 58  1  0
 57 59  1  0
 59 60  1  0
 59 61  1  0
 53 62  1  0
 62 63  1  0
 62 64  1  0
 64 65  1  0
 65 66  1  0
 66 67  1  0
 66 68  2  0
 64 69  1  0
 69 70  1  0
 69 71  1  0
 71 72  2  0
 72 73  1  0
 73 74  1  0
 73 75  1  0
 75 76  2  0
 43 11  1  0
  1 77  1  0
  1 78  1  0
  1 79  1  0
  3 80  1  0
  3 81  1  0
  4 82  1  1
  6 83  1  0
  6 84  1  0
  6 85  1  0
  7 86  1  0
  7 87  1  0
  7 88  1  0
 11 89  1  6
 12 90  1  0
 12 91  1  0
 13 92  1  0
 14 93  1  0
 15 94  1  0
 16 95  1  0
 20 96  1  6
 21 97  1  0
 21 98  1  0
 22 99  1  0
 23100  1  0
 24101  1  6
 26102  1  0
 26103  1  0
 26104  1  0
 27105  1  0
 27106  1  0
 28107  1  6
 29108  1  0
 29109  1  0
 29110  1  0
 30111  1  0
 30112  1  0
 31113  1  0
 33114  1  0
 33115  1  0
 33116  1  0
 34117  1  6
 36118  1  0
 36119  1  0
 36120  1  0
 37121  1  0
 37122  1  0
 38123  1  0
 38124  1  0
 39125  1  6
 40126  1  0
 40127  1  0
 40128  1  0
 41129  1  1
 42130  1  0
 43131  1  6
 44132  1  0
 44133  1  0
 44134  1  0
 45135  1  6
 46136  1  0
 46137  1  0
 46138  1  0
 47139  1  1
 48140  1  0
 49141  1  6
 50142  1  0
 50143  1  0
 50144  1  0
 51145  1  0
 51146  1  0
 52147  1  0
 52148  1  0
 53149  1  1
 57150  1  6
 58151  1  0
 58152  1  0
 58153  1  0
 60154  1  0
 60155  1  0
 60156  1  0
 61157  1  0
 61158  1  0
 61159  1  0
 62160  1  1
 63161  1  0
 63162  1  0
 63163  1  0
 64164  1  6
 67165  1  0
 67166  1  0
 67167  1  0
 69168  1  6
 70169  1  0
 70170  1  0
 70171  1  0
 71172  1  0
 72173  1  0
 74174  1  0
 74175  1  0
 74176  1  0
 75177  1  0
M  END
$$$$
