
     RDKit          3D

 48 51  0  0  0  0  0  0  0  0999 V2000
   -3.4718   -0.2810   -1.4393 C   0  0  1  0  0  0  0  0  0  0  0  0
   -3.4261    0.4464   -2.7422 C   0  0  0  0  0  0  0  0  0  0  0  0
   -2.3445   -0.0113   -3.4808 O   0  0  0  0  0  0  0  0  0  0  0  0
   -2.2449   -0.0272   -0.7288 N   0  0  0  0  0  0  0  0  0  0  0  0
   -1.2366   -0.9397   -0.3638 C   0  0  0  0  0  0  0  0  0  0  0  0
   -1.4043   -2.1393   -0.6884 O   0  0  0  0  0  0  0  0  0  0  0  0
   -0.0424   -0.5322    0.3592 C   0  0  0  0  0  0  0  0  0  0  0  0
    0.9751   -1.3822    0.7432 C   0  0  0  0  0  0  0  0  0  0  0  0
    1.9309   -0.6132    1.4067 C   0  0  0  0  0  0  0  0  0  0  0  0
    1.4574    0.6726    1.4000 C   0  0  0  0  0  0  0  0  0  0  0  0
    0.2702    0.7008    0.7658 N   0  0  0  0  0  0  0  0  0  0  0  0
    3.1328   -1.2739    1.9266 C   0  0  0  0  0  0  0  0  0  0  0  0
    3.0427   -2.2482    2.8774 N   0  0  0  0  0  0  0  0  0  0  0  0
    4.2437   -2.6842    3.1805 N   0  0  0  0  0  0  0  0  0  0  0  0
    5.1526   -2.0050    2.4343 C   0  0  0  0  0  0  0  0  0  0  0  0
    4.4850   -1.0983    1.6235 C   0  0  0  0  0  0  0  0  0  0  0  0
    4.9364   -0.1243    0.6368 C   0  0  0  0  0  0  0  0  0  0  0  0
    4.4452   -0.4241   -0.6283 C   0  0  0  0  0  0  0  0  0  0  0  0
    4.7343    0.3535   -1.7347 C   0  0  0  0  0  0  0  0  0  0  0  0
    5.5399    1.4635   -1.5635 C   0  0  0  0  0  0  0  0  0  0  0  0
    6.0305    1.7660   -0.3098 C   0  0  0  0  0  0  0  0  0  0  0  0
    7.0594    3.1567   -0.0085 Cl  0  0  0  0  0  0  0  0  0  0  0  0
    5.7389    0.9878    0.7878 C   0  0  0  0  0  0  0  0  0  0  0  0
   -4.6923   -0.0012   -0.6607 C   0  0  0  0  0  0  0  0  0  0  0  0
   -4.8696    1.1394    0.1024 C   0  0  0  0  0  0  0  0  0  0  0  0
   -6.0271    1.3638    0.8172 C   0  0  0  0  0  0  0  0  0  0  0  0
   -6.2729    2.8058    1.7925 Cl  0  0  0  0  0  0  0  0  0  0  0  0
   -7.0745    0.4641    0.8124 C   0  0  0  0  0  0  0  0  0  0  0  0
   -8.2240    0.6180    1.4818 F   0  0  0  0  0  0  0  0  0  0  0  0
   -6.9301   -0.6787    0.0645 C   0  0  0  0  0  0  0  0  0  0  0  0
   -5.7627   -0.8823   -0.6430 C   0  0  0  0  0  0  0  0  0  0  0  0
   -3.4814   -1.3873   -1.6640 H   0  0  0  0  0  0  0  0  0  0  0  0
   -4.3873    0.3639   -3.3123 H   0  0  0  0  0  0  0  0  0  0  0  0
   -3.2054    1.5320   -2.5388 H   0  0  0  0  0  0  0  0  0  0  0  0
   -2.0566    0.6248   -4.1840 H   0  0  0  0  0  0  0  0  0  0  0  0
   -2.1489    1.0013   -0.4765 H   0  0  0  0  0  0  0  0  0  0  0  0
    0.9764   -2.4627    0.5352 H   0  0  0  0  0  0  0  0  0  0  0  0
    2.0463    1.4512    1.8677 H   0  0  0  0  0  0  0  0  0  0  0  0
   -0.2888    1.5851    0.6355 H   0  0  0  0  0  0  0  0  0  0  0  0
    4.5363   -3.4309    3.8737 H   0  0  0  0  0  0  0  0  0  0  0  0
    6.2392   -2.0783    2.3977 H   0  0  0  0  0  0  0  0  0  0  0  0
    3.7980   -1.2728   -0.8966 H   0  0  0  0  0  0  0  0  0  0  0  0
    4.3746    0.1582   -2.7360 H   0  0  0  0  0  0  0  0  0  0  0  0
    5.7873    2.0947   -2.4042 H   0  0  0  0  0  0  0  0  0  0  0  0
    6.0618    1.1228    1.8110 H   0  0  0  0  0  0  0  0  0  0  0  0
   -4.0681    1.8664    0.1289 H   0  0  0  0  0  0  0  0  0  0  0  0
   -7.6927   -1.4677   -0.0182 H   0  0  0  0  0  0  0  0  0  0  0  0
   -5.6418   -1.7887   -1.2394 H   0  0  0  0  0  0  0  0  0  0  0  0
  1  2  1  0
  2  3  1  0
  1  4  1  0
  4  5  1  0
  5  6  2  0
  5  7  1  0
  7  8  2  0
  8  9  1  0
  9 10  2  0
 10 11  1  0
  9 12  1  0
 12 13  2  0
 13 14  1  0
 14 15  1  0
 15 16  2  0
 16 17  1  0
 17 18  2  0
 18 19  1  0
 19 20  2  0
 20 21  1  0
 21 22  1  0
 21 23  2  0
  1 24  1  0
 24 25  2  0
 25 26  1  0
 26 27  1  0
 26 28  2  0
 28 29  1  0
 28 30  1  0
 30 31  2  0
 11  7  1  0
 16 12  1  0
 23 17  1  0
 31 24  1  0
  1 32  1  6
  2 33  1  0
  2 34  1  0
  3 35  1  0
  4 36  1  0
  8 37  1  0
 10 38  1  0
 11 39  1  0
 14 40  1  0
 15 41  1  0
 18 42  1  0
 19 43  1  0
 20 44  1  0
 23 45  1  0
 25 46  1  0
 30 47  1  0
 31 48  1  0
M  END
$$$$
