
     RDKit          3D

 58 61  0  0  0  0  0  0  0  0999 V2000
    5.4077    2.5786   -1.8101 C   0  0  0  0  0  0  0  0  0  0  0  0
    4.4206    1.6967   -1.3801 O   0  0  0  0  0  0  0  0  0  0  0  0
    4.6682    0.5003   -0.7240 C   0  0  0  0  0  0  0  0  0  0  0  0
    5.9686    0.1474   -0.4750 C   0  0  0  0  0  0  0  0  0  0  0  0
    6.2093   -1.0548    0.1824 C   0  0  0  0  0  0  0  0  0  0  0  0
    7.5716   -1.4772    0.4891 C   0  0  0  0  0  0  0  0  0  0  0  0
    8.7323   -0.6152    0.1212 C   0  0  0  0  0  0  0  0  0  0  0  0
    7.8185   -2.5639    1.0659 O   0  0  0  0  0  0  0  0  0  0  0  0
    5.1802   -1.8775    0.5767 C   0  0  0  0  0  0  0  0  0  0  0  0
    3.8693   -1.4697    0.2969 C   0  0  0  0  0  0  0  0  0  0  0  0
    3.5726   -0.3011   -0.3426 C   0  0  0  0  0  0  0  0  0  0  0  0
    2.3367    0.1617   -0.6376 O   0  0  0  0  0  0  0  0  0  0  0  0
    1.0874   -0.3879   -0.3252 C   0  0  0  0  0  0  0  0  0  0  0  0
    0.8142   -0.4152    1.1498 C   0  0  0  0  0  0  0  0  0  0  0  0
   -0.4603   -1.0158    1.5705 C   0  0  0  0  0  0  0  0  0  0  0  0
   -1.6959   -0.5198    1.1885 N   0  0  0  0  0  0  0  0  0  0  0  0
   -2.2161   -0.6264   -0.0947 C   0  0  0  0  0  0  0  0  0  0  0  0
   -2.5522    0.7128   -0.6818 C   0  0  0  0  0  0  0  0  0  0  0  0
   -3.6394    1.3286    0.1923 C   0  0  0  0  0  0  0  0  0  0  0  0
   -4.7622    0.3853    0.3906 C   0  0  0  0  0  0  0  0  0  0  0  0
   -4.9172   -0.5346    1.3721 N   0  0  0  0  0  0  0  0  0  0  0  0
   -6.0368   -1.1694    1.2180 O   0  0  0  0  0  0  0  0  0  0  0  0
   -6.6914   -0.7346    0.1570 C   0  0  0  0  0  0  0  0  0  0  0  0
   -7.9185   -1.1027   -0.4052 C   0  0  0  0  0  0  0  0  0  0  0  0
   -8.3810   -0.4740   -1.5404 C   0  0  0  0  0  0  0  0  0  0  0  0
   -9.5653   -0.7939   -2.1214 F   0  0  0  0  0  0  0  0  0  0  0  0
   -7.5842    0.5133   -2.0763 C   0  0  0  0  0  0  0  0  0  0  0  0
   -6.3758    0.8728   -1.5200 C   0  0  0  0  0  0  0  0  0  0  0  0
   -5.8967    0.2544   -0.3831 C   0  0  0  0  0  0  0  0  0  0  0  0
   -2.9717    1.5868    1.5302 C   0  0  0  0  0  0  0  0  0  0  0  0
   -2.3189    0.3922    2.0984 C   0  0  0  0  0  0  0  0  0  0  0  0
    5.7926    2.2302   -2.8007 H   0  0  0  0  0  0  0  0  0  0  0  0
    4.9903    3.5984   -1.9697 H   0  0  0  0  0  0  0  0  0  0  0  0
    6.2543    2.6885   -1.1005 H   0  0  0  0  0  0  0  0  0  0  0  0
    6.8107    0.7561   -0.7635 H   0  0  0  0  0  0  0  0  0  0  0  0
    8.7105   -0.4300   -0.9584 H   0  0  0  0  0  0  0  0  0  0  0  0
    8.5843    0.3597    0.6592 H   0  0  0  0  0  0  0  0  0  0  0  0
    9.6931   -1.0851    0.4218 H   0  0  0  0  0  0  0  0  0  0  0  0
    5.4241   -2.7936    1.0816 H   0  0  0  0  0  0  0  0  0  0  0  0
    3.1129   -2.1807    0.6102 H   0  0  0  0  0  0  0  0  0  0  0  0
    0.2768    0.1271   -0.8949 H   0  0  0  0  0  0  0  0  0  0  0  0
    1.0463   -1.4651   -0.6572 H   0  0  0  0  0  0  0  0  0  0  0  0
    1.6723   -0.8864    1.6677 H   0  0  0  0  0  0  0  0  0  0  0  0
    0.8749    0.6874    1.4516 H   0  0  0  0  0  0  0  0  0  0  0  0
   -0.4299   -2.1202    1.2607 H   0  0  0  0  0  0  0  0  0  0  0  0
   -0.4295   -1.1268    2.7094 H   0  0  0  0  0  0  0  0  0  0  0  0
   -3.1917   -1.2426   -0.0248 H   0  0  0  0  0  0  0  0  0  0  0  0
   -1.5577   -1.1942   -0.7671 H   0  0  0  0  0  0  0  0  0  0  0  0
   -1.6799    1.3871   -0.5597 H   0  0  0  0  0  0  0  0  0  0  0  0
   -2.8820    0.6462   -1.7384 H   0  0  0  0  0  0  0  0  0  0  0  0
   -3.9406    2.2777   -0.2540 H   0  0  0  0  0  0  0  0  0  0  0  0
   -8.5140   -1.8782    0.0414 H   0  0  0  0  0  0  0  0  0  0  0  0
   -7.9258    1.0226   -2.9664 H   0  0  0  0  0  0  0  0  0  0  0  0
   -5.7492    1.6575   -1.9515 H   0  0  0  0  0  0  0  0  0  0  0  0
   -3.7754    1.9470    2.2129 H   0  0  0  0  0  0  0  0  0  0  0  0
   -2.3051    2.4637    1.3786 H   0  0  0  0  0  0  0  0  0  0  0  0
   -1.5123    0.7322    2.8158 H   0  0  0  0  0  0  0  0  0  0  0  0
   -3.0235   -0.1754    2.7347 H   0  0  0  0  0  0  0  0  0  0  0  0
  1  2  1  0
  2  3  1  0
  3  4  2  0
  4  5  1  0
  5  6  1  0
  6  7  1  0
  6  8  2  0
  5  9  2  0
  9 10  1  0
 10 11  2  0
 11 12  1  0
 12 13  1  0
 13 14  1  0
 14 15  1  0
 15 16  1  0
 16 17  1  0
 17 18  1  0
 18 19  1  0
 19 20  1  0
 20 21  2  0
 21 22  1  0
 22 23  1  0
 23 24  2  0
 24 25  1  0
 25 26  1  0
 25 27  2  0
 27 28  1  0
 28 29  2  0
 19 30  1  0
 30 31  1  0
 11  3  1  0
 31 16  1  0
 29 20  1  0
 29 23  1  0
  1 32  1  0
  1 33  1  0
  1 34  1  0
  4 35  1  0
  7 36  1  0
  7 37  1  0
  7 38  1  0
  9 39  1  0
 10 40  1  0
 13 41  1  0
 13 42  1  0
 14 43  1  0
 14 44  1  0
 15 45  1  0
 15 46  1  0
 17 47  1  0
 17 48  1  0
 18 49  1  0
 18 50  1  0
 19 51  1  0
 24 52  1  0
 27 53  1  0
 28 54  1  0
 30 55  1  0
 30 56  1  0
 31 57  1  0
 31 58  1  0
M  END
$$$$
