
     RDKit          3D

 60 59  0  0  0  0  0  0  0  0999 V2000
   -8.6413   -1.9279    0.8986 C   0  0  0  0  0  0  0  0  0  0  0  0
   -8.2338   -1.4942   -0.4939 C   0  0  0  0  0  0  0  0  0  0  0  0
   -6.9137   -0.7459   -0.4854 C   0  0  0  0  0  0  0  0  0  0  0  0
   -5.7920   -1.5645    0.0496 C   0  0  0  0  0  0  0  0  0  0  0  0
   -4.5076   -0.7541    0.0416 C   0  0  0  0  0  0  0  0  0  0  0  0
   -4.0810   -0.2860   -1.3021 C   0  0  0  0  0  0  0  0  0  0  0  0
   -2.7975    0.5042   -1.3410 C   0  0  0  0  0  0  0  0  0  0  0  0
   -2.9444    1.7247   -0.5097 C   0  0  0  0  0  0  0  0  0  0  0  0
   -1.7144    2.5988   -0.4923 C   0  0  0  0  0  0  0  0  0  0  0  0
   -0.5046    1.8720    0.0535 C   0  0  0  0  0  0  0  0  0  0  0  0
    0.6270    2.8709    0.0046 C   0  0  0  0  0  0  0  0  0  0  0  0
    1.8939    2.2660    0.5377 C   0  0  0  0  0  0  0  0  0  0  0  0
    2.2613    1.0754   -0.2995 C   0  0  0  0  0  0  0  0  0  0  0  0
    3.5401    0.4450    0.2155 C   0  0  0  0  0  0  0  0  0  0  0  0
    4.7252    1.3477    0.1903 C   0  0  0  0  0  0  0  0  0  0  0  0
    5.9426    0.6368    0.7265 C   0  0  0  0  0  0  0  0  0  0  0  0
    6.2579   -0.5647   -0.0942 C   0  0  0  0  0  0  0  0  0  0  0  0
    7.4719   -1.2835    0.4026 C   0  0  0  0  0  0  0  0  0  0  0  0
    7.7226   -0.5126    1.3655 O   0  0  0  0  0  0  0  0  0  0  0  0
    7.8797   -2.4202   -0.2681 O   0  0  0  0  0  0  0  0  0  0  0  0
    9.3430   -3.4187    0.2069 Al  0  0  0  0  0  3  0  0  0  0  0  0
   11.0502   -2.8394   -0.1302 O   0  0  0  0  0  0  0  0  0  0  0  0
    9.0949   -5.0506    1.0083 O   0  0  0  0  0  0  0  0  0  0  0  0
   -9.7337   -1.8965    0.9650 H   0  0  0  0  0  0  0  0  0  0  0  0
   -8.2247   -2.9352    1.1029 H   0  0  0  0  0  0  0  0  0  0  0  0
   -8.2220   -1.1481    1.5930 H   0  0  0  0  0  0  0  0  0  0  0  0
   -8.9963   -0.7394   -0.8263 H   0  0  0  0  0  0  0  0  0  0  0  0
   -8.2809   -2.2965   -1.2375 H   0  0  0  0  0  0  0  0  0  0  0  0
   -6.6995   -0.5361   -1.5725 H   0  0  0  0  0  0  0  0  0  0  0  0
   -7.0531    0.2050    0.0255 H   0  0  0  0  0  0  0  0  0  0  0  0
   -5.6318   -2.4393   -0.6371 H   0  0  0  0  0  0  0  0  0  0  0  0
   -5.9983   -1.9245    1.0746 H   0  0  0  0  0  0  0  0  0  0  0  0
   -3.7341   -1.4539    0.4598 H   0  0  0  0  0  0  0  0  0  0  0  0
   -4.5595    0.0666    0.7877 H   0  0  0  0  0  0  0  0  0  0  0  0
   -3.9079   -1.1781   -1.9672 H   0  0  0  0  0  0  0  0  0  0  0  0
   -4.8985    0.3030   -1.8099 H   0  0  0  0  0  0  0  0  0  0  0  0
   -1.9732   -0.1651   -1.0223 H   0  0  0  0  0  0  0  0  0  0  0  0
   -2.6455    0.7801   -2.4084 H   0  0  0  0  0  0  0  0  0  0  0  0
   -3.7700    2.3330   -0.9325 H   0  0  0  0  0  0  0  0  0  0  0  0
   -3.1263    1.4212    0.5495 H   0  0  0  0  0  0  0  0  0  0  0  0
   -1.9246    3.4707    0.1524 H   0  0  0  0  0  0  0  0  0  0  0  0
   -1.4561    2.9668   -1.5012 H   0  0  0  0  0  0  0  0  0  0  0  0
   -0.6176    1.5257    1.0799 H   0  0  0  0  0  0  0  0  0  0  0  0
   -0.2895    1.0553   -0.6875 H   0  0  0  0  0  0  0  0  0  0  0  0
    0.8436    3.1250   -1.0736 H   0  0  0  0  0  0  0  0  0  0  0  0
    0.3713    3.8259    0.4888 H   0  0  0  0  0  0  0  0  0  0  0  0
    2.7093    2.9965    0.6263 H   0  0  0  0  0  0  0  0  0  0  0  0
    1.6405    1.8966    1.5700 H   0  0  0  0  0  0  0  0  0  0  0  0
    1.4941    0.2703   -0.2244 H   0  0  0  0  0  0  0  0  0  0  0  0
    2.3707    1.3183   -1.3661 H   0  0  0  0  0  0  0  0  0  0  0  0
    3.7386   -0.4125   -0.4865 H   0  0  0  0  0  0  0  0  0  0  0  0
    3.3323    0.0454    1.2210 H   0  0  0  0  0  0  0  0  0  0  0  0
    4.5798    2.3237    0.6991 H   0  0  0  0  0  0  0  0  0  0  0  0
    4.9590    1.6403   -0.8773 H   0  0  0  0  0  0  0  0  0  0  0  0
    5.6724    0.3026    1.7658 H   0  0  0  0  0  0  0  0  0  0  0  0
    6.7765    1.3660    0.7689 H   0  0  0  0  0  0  0  0  0  0  0  0
    6.3202   -0.3526   -1.1669 H   0  0  0  0  0  0  0  0  0  0  0  0
    5.4272   -1.3145    0.0579 H   0  0  0  0  0  0  0  0  0  0  0  0
   11.1860   -1.9248    0.2109 H   0  0  0  0  0  0  0  0  0  0  0  0
    8.6419   -4.9996    1.8762 H   0  0  0  0  0  0  0  0  0  0  0  0
  1  2  1  0
  2  3  1  0
  3  4  1  0
  4  5  1  0
  5  6  1  0
  6  7  1  0
  7  8  1  0
  8  9  1  0
  9 10  1  0
 10 11  1  0
 11 12  1  0
 12 13  1  0
 13 14  1  0
 14 15  1  0
 15 16  1  0
 16 17  1  0
 17 18  1  0
 18 19  2  0
 18 20  1  0
 20 21  1  0
 21 22  1  0
 21 23  1  0
  1 24  1  0
  1 25  1  0
  1 26  1  0
  2 27  1  0
  2 28  1  0
  3 29  1  0
  3 30  1  0
  4 31  1  0
  4 32  1  0
  5 33  1  0
  5 34  1  0
  6 35  1  0
  6 36  1  0
  7 37  1  0
  7 38  1  0
  8 39  1  0
  8 40  1  0
  9 41  1  0
  9 42  1  0
 10 43  1  0
 10 44  1  0
 11 45  1  0
 11 46  1  0
 12 47  1  0
 12 48  1  0
 13 49  1  0
 13 50  1  0
 14 51  1  0
 14 52  1  0
 15 53  1  0
 15 54  1  0
 16 55  1  0
 16 56  1  0
 17 57  1  0
 17 58  1  0
 22 59  1  0
 23 60  1  0
M  END
$$$$
