
     RDKit          3D

 57 62  0  0  0  0  0  0  0  0999 V2000
    0.6954    0.5347   -0.1367 C   0  0  0  0  0  0  0  0  0  0  0  0
    0.4222   -0.8203   -0.7272 C   0  0  0  0  0  0  0  0  0  0  0  0
   -1.0046   -0.9799   -1.1432 C   0  0  0  0  0  0  0  0  0  0  0  0
   -2.0251   -0.1844   -0.6901 C   0  0  0  0  0  0  0  0  0  0  0  0
   -3.3271   -0.3760   -1.1044 C   0  0  0  0  0  0  0  0  0  0  0  0
   -4.2963    0.4770   -0.5921 C   0  0  0  0  0  0  0  0  0  0  0  0
   -5.5988    0.2896   -1.0014 C   0  0  0  0  0  0  0  0  0  0  0  0
   -6.6996    1.1425   -0.5129 C   0  0  0  0  0  0  0  0  0  0  0  0
   -7.8390    1.4673   -1.2385 C   0  0  0  0  0  0  0  0  0  0  0  0
   -8.6226    2.2571   -0.4844 N   0  0  0  0  0  0  0  0  0  0  0  0
   -8.0103    2.4369    0.6894 N   0  0  0  0  0  0  0  0  0  0  0  0
   -8.5855    3.2438    1.7463 C   0  0  0  0  0  0  0  0  0  0  0  0
   -6.8430    1.7690    0.6912 C   0  0  0  0  0  0  0  0  0  0  0  0
   -5.8451   -0.7374   -1.8951 C   0  0  0  0  0  0  0  0  0  0  0  0
   -4.8861   -1.5483   -2.3746 N   0  0  0  0  0  0  0  0  0  0  0  0
   -3.6140   -1.3887   -1.9940 C   0  0  0  0  0  0  0  0  0  0  0  0
   -2.5937   -2.2166   -2.4738 C   0  0  0  0  0  0  0  0  0  0  0  0
   -1.3048   -1.9900   -2.0331 C   0  0  0  0  0  0  0  0  0  0  0  0
   -0.3026   -2.7886   -2.4922 F   0  0  0  0  0  0  0  0  0  0  0  0
    0.8501   -1.9096    0.1136 N   0  0  0  0  0  0  0  0  0  0  0  0
    0.0783   -2.8756    0.5667 N   0  0  0  0  0  0  0  0  0  0  0  0
    0.7298   -3.7282    1.3062 N   0  0  0  0  0  0  0  0  0  0  0  0
    2.0124   -3.2978    1.3436 C   0  0  0  0  0  0  0  0  0  0  0  0
    3.1404   -3.7262    1.9192 N   0  0  0  0  0  0  0  0  0  0  0  0
    4.2903   -3.0540    1.7602 C   0  0  0  0  0  0  0  0  0  0  0  0
    4.3758   -1.9085    1.0114 C   0  0  0  0  0  0  0  0  0  0  0  0
    5.6191   -1.1689    0.8306 C   0  0  0  0  0  0  0  0  0  0  0  0
    6.8354   -1.4754    1.3468 C   0  0  0  0  0  0  0  0  0  0  0  0
    7.6996   -0.5317    0.9313 N   0  0  0  0  0  0  0  0  0  0  0  0
    7.0673    0.3481    0.1778 N   0  0  0  0  0  0  0  0  0  0  0  0
    7.7041    1.4997   -0.4352 C   0  0  0  0  0  0  0  0  0  0  0  0
    7.6231    2.6739    0.5233 C   0  0  0  0  0  0  0  0  0  0  0  0
    8.2671    2.3830    1.7195 O   0  0  0  0  0  0  0  0  0  0  0  0
    5.7885   -0.0154    0.0969 C   0  0  0  0  0  0  0  0  0  0  0  0
    3.2266   -1.4806    0.4308 N   0  0  0  0  0  0  0  0  0  0  0  0
    2.0761   -2.1478    0.5863 C   0  0  0  0  0  0  0  0  0  0  0  0
    0.4840    0.5930    0.9433 H   0  0  0  0  0  0  0  0  0  0  0  0
    0.1141    1.2734   -0.7333 H   0  0  0  0  0  0  0  0  0  0  0  0
    1.7658    0.7704   -0.3176 H   0  0  0  0  0  0  0  0  0  0  0  0
    1.0466   -0.8840   -1.6648 H   0  0  0  0  0  0  0  0  0  0  0  0
   -1.8057    0.6044    0.0017 H   0  0  0  0  0  0  0  0  0  0  0  0
   -4.0450    1.2641    0.1048 H   0  0  0  0  0  0  0  0  0  0  0  0
   -8.0559    1.1402   -2.2372 H   0  0  0  0  0  0  0  0  0  0  0  0
   -9.2975    3.9687    1.3426 H   0  0  0  0  0  0  0  0  0  0  0  0
   -7.8178    3.8016    2.3203 H   0  0  0  0  0  0  0  0  0  0  0  0
   -9.1658    2.5465    2.4024 H   0  0  0  0  0  0  0  0  0  0  0  0
   -6.1396    1.7367    1.5108 H   0  0  0  0  0  0  0  0  0  0  0  0
   -6.8986   -0.8484   -2.1933 H   0  0  0  0  0  0  0  0  0  0  0  0
   -2.8327   -3.0022   -3.1669 H   0  0  0  0  0  0  0  0  0  0  0  0
    5.1759   -3.4352    2.2421 H   0  0  0  0  0  0  0  0  0  0  0  0
    7.1197   -2.3053    1.9784 H   0  0  0  0  0  0  0  0  0  0  0  0
    8.7505    1.2938   -0.6687 H   0  0  0  0  0  0  0  0  0  0  0  0
    7.1550    1.7685   -1.3415 H   0  0  0  0  0  0  0  0  0  0  0  0
    8.1003    3.5665    0.0779 H   0  0  0  0  0  0  0  0  0  0  0  0
    6.5634    2.9407    0.7330 H   0  0  0  0  0  0  0  0  0  0  0  0
    7.6497    2.5043    2.4849 H   0  0  0  0  0  0  0  0  0  0  0  0
    5.0305    0.5295   -0.4626 H   0  0  0  0  0  0  0  0  0  0  0  0
  1  2  1  0
  2  3  1  0
  3  4  2  0
  4  5  1  0
  5  6  2  0
  6  7  1  0
  7  8  1  0
  8  9  1  0
  9 10  2  0
 10 11  1  0
 11 12  1  0
 11 13  1  0
  7 14  2  0
 14 15  1  0
 15 16  2  0
 16 17  1  0
 17 18  2  0
 18 19  1  0
  2 20  1  0
 20 21  1  0
 21 22  2  0
 22 23  1  0
 23 24  2  0
 24 25  1  0
 25 26  2  0
 26 27  1  0
 27 28  1  0
 28 29  2  0
 29 30  1  0
 30 31  1  0
 31 32  1  0
 32 33  1  0
 30 34  1  0
 26 35  1  0
 35 36  2  0
 18  3  1  0
 36 20  1  0
 16  5  1  0
 36 23  1  0
 13  8  2  0
 34 27  2  0
  1 37  1  0
  1 38  1  0
  1 39  1  0
  2 40  1  0
  4 41  1  0
  6 42  1  0
  9 43  1  0
 12 44  1  0
 12 45  1  0
 12 46  1  0
 13 47  1  0
 14 48  1  0
 17 49  1  0
 25 50  1  0
 28 51  1  0
 31 52  1  0
 31 53  1  0
 32 54  1  0
 32 55  1  0
 33 56  1  0
 34 57  1  0
M  END
$$$$
