
     RDKit          3D

 20 19  0  0  0  0  0  0  0  0999 V2000
   -1.7825   -0.0240   -1.7092 N   0  0  0  0  0  0  0  0  0  0  0  0
   -1.0484   -0.2112   -0.4799 C   0  0  1  0  0  0  0  0  0  0  0  0
   -0.0855    0.9484   -0.2673 C   0  0  0  0  0  0  0  0  0  0  0  0
    0.8110    0.6347    1.2940 S   0  0  0  0  0  0  0  0  0  0  0  0
    1.8385   -0.8356    1.0338 C   0  0  0  0  0  0  0  0  0  0  0  0
    2.8610   -0.4560    0.0184 C   0  0  0  0  0  0  0  0  0  0  0  0
    3.7682   -0.2046   -0.9819 O   0  0  0  0  0  0  0  0  0  0  0  0
    3.3006    0.5882    0.5990 O   0  0  0  0  0  0  0  0  0  0  0  0
   -2.0013   -0.2298    0.6708 C   0  0  0  0  0  0  0  0  0  0  0  0
   -3.3777    0.0287    0.5994 O   0  0  0  0  0  0  0  0  0  0  0  0
   -2.0622   -0.4286    1.9337 O   0  0  0  0  0  0  0  0  0  0  0  0
   -2.3661    0.8439   -1.6275 H   0  0  0  0  0  0  0  0  0  0  0  0
   -2.4433   -0.8515   -1.8141 H   0  0  0  0  0  0  0  0  0  0  0  0
   -0.4795   -1.1429   -0.4675 H   0  0  0  0  0  0  0  0  0  0  0  0
    0.5746    1.0335   -1.1255 H   0  0  0  0  0  0  0  0  0  0  0  0
   -0.7397    1.8579   -0.1773 H   0  0  0  0  0  0  0  0  0  0  0  0
    1.1891   -1.6654    0.6551 H   0  0  0  0  0  0  0  0  0  0  0  0
    2.3119   -1.1396    1.9745 H   0  0  0  0  0  0  0  0  0  0  0  0
    3.5452    0.3809   -1.7844 H   0  0  0  0  0  0  0  0  0  0  0  0
   -3.8137    0.8729    1.0050 H   0  0  0  0  0  0  0  0  0  0  0  0
  1  2  1  0
  2  3  1  0
  3  4  1  0
  4  5  1  0
  5  6  1  0
  6  7  1  0
  6  8  2  0
  2  9  1  0
  9 10  1  0
  9 11  2  0
  1 12  1  0
  1 13  1  0
  2 14  1  6
  3 15  1  0
  3 16  1  0
  5 17  1  0
  5 18  1  0
  7 19  1  0
 10 20  1  0
M  END
$$$$
