
     RDKit          3D

 49 52  0  0  0  0  0  0  0  0999 V2000
    8.0466    0.0587    0.7032 N   0  0  0  0  0  0  0  0  0  0  0  0
    7.1092   -0.4466   -0.2408 C   0  0  0  0  0  0  0  0  0  0  0  0
    7.5356   -1.4123   -0.9836 N   0  0  0  0  0  0  0  0  0  0  0  0
    5.7878    0.1662   -0.2720 C   0  0  0  0  0  0  0  0  0  0  0  0
    5.0891    0.1998   -1.4715 C   0  0  0  0  0  0  0  0  0  0  0  0
    3.8486    0.7764   -1.4955 C   0  0  0  0  0  0  0  0  0  0  0  0
    3.2607    1.3254   -0.3838 C   0  0  0  0  0  0  0  0  0  0  0  0
    1.9310    1.9726   -0.2912 C   0  0  0  0  0  0  0  0  0  0  0  0
    0.9629    0.9433    0.0363 N   0  0  0  0  0  0  0  0  0  0  0  0
    0.6347    0.6055    1.4109 C   0  0  0  0  0  0  0  0  0  0  0  0
   -0.7893    0.0862    1.3890 C   0  0  0  0  0  0  0  0  0  0  0  0
   -0.8062   -1.1341    0.6397 N   0  0  0  0  0  0  0  0  0  0  0  0
   -0.5904   -0.9218   -0.7761 C   0  0  0  0  0  0  0  0  0  0  0  0
    0.3085    0.2362   -1.0118 C   0  0  0  0  0  0  0  0  0  0  0  0
    0.4308    0.5249   -2.2212 O   0  0  0  0  0  0  0  0  0  0  0  0
   -2.1264   -2.1462    0.9740 S   0  0  0  0  0  0  0  0  0  0  0  0
   -2.0480   -2.5214    2.4471 O   0  0  0  0  0  0  0  0  0  0  0  0
   -2.0209   -3.3706    0.1190 O   0  0  0  0  0  0  0  0  0  0  0  0
   -3.6431   -1.4105    0.6010 C   0  0  0  0  0  0  0  0  0  0  0  0
   -4.6668   -1.7041   -0.2264 C   0  0  0  0  0  0  0  0  0  0  0  0
   -5.7804   -0.9190   -0.3218 C   0  0  0  0  0  0  0  0  0  0  0  0
   -5.7778    0.2291    0.5162 C   0  0  0  0  0  0  0  0  0  0  0  0
   -4.1455    0.0963    1.3977 S   0  0  0  0  0  0  0  0  0  0  0  0
   -6.7883    1.1867    0.6082 C   0  0  0  0  0  0  0  0  0  0  0  0
   -7.8894    0.9931   -0.1926 C   0  0  0  0  0  0  0  0  0  0  0  0
   -9.1577    2.1681   -0.0966 Cl  0  0  0  0  0  0  0  0  0  0  0  0
   -7.8896   -0.1204   -1.0040 C   0  0  0  0  0  0  0  0  0  0  0  0
   -6.9018   -1.0713   -1.1048 C   0  0  0  0  0  0  0  0  0  0  0  0
    3.9984    1.2696    0.7994 C   0  0  0  0  0  0  0  0  0  0  0  0
    5.2478    0.6991    0.8655 C   0  0  0  0  0  0  0  0  0  0  0  0
    8.9962    0.3625    0.3643 H   0  0  0  0  0  0  0  0  0  0  0  0
    8.2177    0.2876    1.7256 H   0  0  0  0  0  0  0  0  0  0  0  0
    6.9278   -1.8406   -1.6943 H   0  0  0  0  0  0  0  0  0  0  0  0
    5.5317   -0.2251   -2.3556 H   0  0  0  0  0  0  0  0  0  0  0  0
    3.2582    0.8301   -2.4061 H   0  0  0  0  0  0  0  0  0  0  0  0
    1.9420    2.7481    0.4987 H   0  0  0  0  0  0  0  0  0  0  0  0
    1.6409    2.4548   -1.2615 H   0  0  0  0  0  0  0  0  0  0  0  0
    0.7408    1.4821    2.0806 H   0  0  0  0  0  0  0  0  0  0  0  0
    1.2798   -0.2379    1.7622 H   0  0  0  0  0  0  0  0  0  0  0  0
   -1.2188   -0.0760    2.3916 H   0  0  0  0  0  0  0  0  0  0  0  0
   -1.3880    0.8748    0.8812 H   0  0  0  0  0  0  0  0  0  0  0  0
   -0.0816   -1.8202   -1.1824 H   0  0  0  0  0  0  0  0  0  0  0  0
   -1.5347   -0.7318   -1.3214 H   0  0  0  0  0  0  0  0  0  0  0  0
   -4.5169   -2.6084   -0.7955 H   0  0  0  0  0  0  0  0  0  0  0  0
   -6.6116    1.9873    1.2974 H   0  0  0  0  0  0  0  0  0  0  0  0
   -8.7669   -0.2748   -1.6423 H   0  0  0  0  0  0  0  0  0  0  0  0
   -7.0093   -1.9084   -1.7791 H   0  0  0  0  0  0  0  0  0  0  0  0
    3.5913    1.6881    1.7250 H   0  0  0  0  0  0  0  0  0  0  0  0
    5.8311    0.6491    1.7776 H   0  0  0  0  0  0  0  0  0  0  0  0
  1  2  1  0
  2  3  2  3
  2  4  1  0
  4  5  2  0
  5  6  1  0
  6  7  2  0
  7  8  1  0
  8  9  1  0
  9 10  1  0
 10 11  1  0
 11 12  1  0
 12 13  1  0
 13 14  1  0
 14 15  2  0
 12 16  1  0
 16 17  2  0
 16 18  2  0
 16 19  1  0
 19 20  2  0
 20 21  1  0
 21 22  2  0
 22 23  1  0
 22 24  1  0
 24 25  2  0
 25 26  1  0
 25 27  1  0
 27 28  2  0
  7 29  1  0
 29 30  2  0
 30  4  1  0
 14  9  1  0
 23 19  1  0
 28 21  1  0
  1 31  1  0
  1 32  1  0
  3 33  1  0
  5 34  1  0
  6 35  1  0
  8 36  1  0
  8 37  1  0
 10 38  1  0
 10 39  1  0
 11 40  1  0
 11 41  1  0
 13 42  1  0
 13 43  1  0
 20 44  1  0
 24 45  1  0
 27 46  1  0
 28 47  1  0
 29 48  1  0
 30 49  1  0
M  END
$$$$
