
     RDKit          3D

 53 55  0  0  0  0  0  0  0  0999 V2000
   -0.3126    2.3984   -1.6462 C   0  0  0  0  0  0  0  0  0  0  0  0
   -1.3774    1.4916   -1.6514 O   0  0  0  0  0  0  0  0  0  0  0  0
   -1.4663    0.4150   -0.8614 C   0  0  0  0  0  0  0  0  0  0  0  0
   -0.4997    0.0165    0.1105 C   0  0  0  0  0  0  0  0  0  0  0  0
   -0.6775   -1.0694    0.8518 C   0  0  0  0  0  0  0  0  0  0  0  0
    0.3224   -1.5452    1.8458 C   0  0  0  0  0  0  0  0  0  0  0  0
    0.7359   -2.9791    1.4970 C   0  0  0  0  0  0  0  0  0  0  0  0
    1.5188   -0.6858    1.6764 C   0  0  0  0  0  0  0  0  0  0  0  0
    2.5129    0.0110    1.5278 C   0  0  0  0  0  0  0  0  0  0  0  0
    3.6777    0.8204    1.3298 C   0  0  0  0  0  0  0  0  0  0  0  0
    3.6813    2.1774    1.5110 C   0  0  0  0  0  0  0  0  0  0  0  0
    2.4111    2.8674    1.8364 C   0  0  0  0  0  0  0  0  0  0  0  0
    4.8270    2.8984    1.3961 N   0  0  0  0  0  0  0  0  0  0  0  0
    6.0106    2.3329    1.1008 C   0  0  0  0  0  0  0  0  0  0  0  0
    7.1881    3.1277    1.0139 N   0  0  0  0  0  0  0  0  0  0  0  0
    6.0332    1.0022    0.9147 N   0  0  0  0  0  0  0  0  0  0  0  0
    4.9127    0.2397    1.0188 C   0  0  0  0  0  0  0  0  0  0  0  0
    4.9631   -1.1637    0.8168 N   0  0  0  0  0  0  0  0  0  0  0  0
   -1.8074   -1.9068    0.7604 C   0  0  0  0  0  0  0  0  0  0  0  0
   -1.9115   -2.9788    1.5516 O   0  0  0  0  0  0  0  0  0  0  0  0
   -3.0057   -3.8528    1.5188 C   0  0  0  0  0  0  0  0  0  0  0  0
   -2.7788   -1.5265   -0.2019 C   0  0  0  0  0  0  0  0  0  0  0  0
   -2.5921   -0.4240   -0.9557 C   0  0  0  0  0  0  0  0  0  0  0  0
   -3.5860   -0.0705   -1.9597 C   0  0  0  0  0  0  0  0  0  0  0  0
   -4.9296   -0.3123   -1.6119 C   0  0  0  0  0  0  0  0  0  0  0  0
   -5.9497   -0.0203   -2.4613 C   0  0  0  0  0  0  0  0  0  0  0  0
   -5.7321    0.5197   -3.6945 C   0  0  0  0  0  0  0  0  0  0  0  0
   -4.3879    0.7684   -4.0542 C   0  0  0  0  0  0  0  0  0  0  0  0
   -3.3812    0.4634   -3.1785 C   0  0  0  0  0  0  0  0  0  0  0  0
   -0.4665    3.2655   -0.9414 H   0  0  0  0  0  0  0  0  0  0  0  0
    0.6351    1.8784   -1.4187 H   0  0  0  0  0  0  0  0  0  0  0  0
   -0.1914    2.8066   -2.6956 H   0  0  0  0  0  0  0  0  0  0  0  0
    0.3737    0.6531    0.1944 H   0  0  0  0  0  0  0  0  0  0  0  0
   -0.1065   -1.5432    2.8352 H   0  0  0  0  0  0  0  0  0  0  0  0
    0.6066   -3.1893    0.4097 H   0  0  0  0  0  0  0  0  0  0  0  0
    1.8201   -3.0467    1.7050 H   0  0  0  0  0  0  0  0  0  0  0  0
    0.2241   -3.6558    2.1700 H   0  0  0  0  0  0  0  0  0  0  0  0
    2.6513    3.5657    2.6728 H   0  0  0  0  0  0  0  0  0  0  0  0
    2.1492    3.5302    0.9598 H   0  0  0  0  0  0  0  0  0  0  0  0
    1.5668    2.2100    2.0129 H   0  0  0  0  0  0  0  0  0  0  0  0
    7.2527    3.9103    0.3362 H   0  0  0  0  0  0  0  0  0  0  0  0
    7.9975    2.9326    1.6243 H   0  0  0  0  0  0  0  0  0  0  0  0
    5.2455   -1.5926   -0.0802 H   0  0  0  0  0  0  0  0  0  0  0  0
    4.7083   -1.7877    1.6089 H   0  0  0  0  0  0  0  0  0  0  0  0
   -3.9802   -3.3847    1.2798 H   0  0  0  0  0  0  0  0  0  0  0  0
   -2.8719   -4.6715    0.7770 H   0  0  0  0  0  0  0  0  0  0  0  0
   -3.1633   -4.3469    2.5077 H   0  0  0  0  0  0  0  0  0  0  0  0
   -3.6602   -2.1673   -0.2819 H   0  0  0  0  0  0  0  0  0  0  0  0
   -5.1275   -0.7641   -0.6257 H   0  0  0  0  0  0  0  0  0  0  0  0
   -6.9855   -0.2255   -2.1449 H   0  0  0  0  0  0  0  0  0  0  0  0
   -6.5273    0.7630   -4.3929 H   0  0  0  0  0  0  0  0  0  0  0  0
   -4.2053    1.1887   -5.0181 H   0  0  0  0  0  0  0  0  0  0  0  0
   -2.3445    0.6560   -3.4959 H   0  0  0  0  0  0  0  0  0  0  0  0
  1  2  1  0
  2  3  1  0
  3  4  2  0
  4  5  1  0
  5  6  1  0
  6  7  1  0
  6  8  1  0
  8  9  3  0
  9 10  1  0
 10 11  2  0
 11 12  1  0
 11 13  1  0
 13 14  2  0
 14 15  1  0
 14 16  1  0
 16 17  2  0
 17 18  1  0
  5 19  2  0
 19 20  1  0
 20 21  1  0
 19 22  1  0
 22 23  2  0
 23 24  1  0
 24 25  2  0
 25 26  1  0
 26 27  2  0
 27 28  1  0
 28 29  2  0
 23  3  1  0
 29 24  1  0
 17 10  1  0
  1 30  1  0
  1 31  1  0
  1 32  1  0
  4 33  1  0
  6 34  1  0
  7 35  1  0
  7 36  1  0
  7 37  1  0
 12 38  1  0
 12 39  1  0
 12 40  1  0
 15 41  1  0
 15 42  1  0
 18 43  1  0
 18 44  1  0
 21 45  1  0
 21 46  1  0
 21 47  1  0
 22 48  1  0
 25 49  1  0
 26 50  1  0
 27 51  1  0
 28 52  1  0
 29 53  1  0
M  END
$$$$
