
     RDKit          3D

 28 30  0  0  0  0  0  0  0  0999 V2000
    0.1942    1.7788   -1.3097 C   0  0  0  0  0  0  0  0  0  0  0  0
    0.0976    0.5933   -0.5163 N   0  0  0  0  0  0  0  0  0  0  0  0
   -0.9009   -0.3033   -0.5345 C   0  0  0  0  0  0  0  0  0  0  0  0
   -2.2087   -0.2363   -1.2340 C   0  0  0  0  0  0  0  0  0  0  0  0
   -2.7025    0.5681   -2.2136 C   0  0  0  0  0  0  0  0  0  0  0  0
   -3.9559    0.3398   -2.5814 C   0  0  0  0  0  0  0  0  0  0  0  0
   -4.7526   -0.6013   -2.0684 C   0  0  0  0  0  0  0  0  0  0  0  0
   -3.5701   -1.3315   -0.8452 S   0  0  0  0  0  0  0  0  0  0  0  0
   -0.5871   -1.3336    0.3743 C   0  0  0  0  0  0  0  0  0  0  0  0
   -1.5368   -2.7297    0.7247 Cl  0  0  0  0  0  0  0  0  0  0  0  0
    0.6588   -1.0007    0.9438 C   0  0  0  0  0  0  0  0  0  0  0  0
    1.4370   -1.6108    1.9197 C   0  0  0  0  0  0  0  0  0  0  0  0
    2.6503   -0.9827    2.3338 C   0  0  0  0  0  0  0  0  0  0  0  0
    3.4174   -1.5890    3.4518 C   0  0  0  0  0  0  0  0  0  0  0  0
    3.9800   -2.0365    4.3022 N   0  0  0  0  0  0  0  0  0  0  0  0
    2.9968    0.1717    1.7528 C   0  0  0  0  0  0  0  0  0  0  0  0
    4.1887    0.9038    2.1400 C   0  0  0  0  0  0  0  0  0  0  0  0
    5.1572    1.5145    2.4731 N   0  0  0  0  0  0  0  0  0  0  0  0
    2.2147    0.7986    0.7571 C   0  0  0  0  0  0  0  0  0  0  0  0
    1.0351    0.1636    0.3827 C   0  0  0  0  0  0  0  0  0  0  0  0
    1.2209    2.2578   -1.1348 H   0  0  0  0  0  0  0  0  0  0  0  0
   -0.5581    2.5446   -1.1143 H   0  0  0  0  0  0  0  0  0  0  0  0
    0.1723    1.5175   -2.4068 H   0  0  0  0  0  0  0  0  0  0  0  0
   -2.0643    1.3701   -2.6561 H   0  0  0  0  0  0  0  0  0  0  0  0
   -4.4456    1.0109   -3.4350 H   0  0  0  0  0  0  0  0  0  0  0  0
   -5.7855   -0.9559   -2.1537 H   0  0  0  0  0  0  0  0  0  0  0  0
    1.1525   -2.5313    2.3411 H   0  0  0  0  0  0  0  0  0  0  0  0
    2.4945    1.7094    0.3067 H   0  0  0  0  0  0  0  0  0  0  0  0
  1  2  1  0
  2  3  1  0
  3  4  1  0
  4  5  2  0
  5  6  1  0
  6  7  2  0
  7  8  1  0
  3  9  2  0
  9 10  1  0
  9 11  1  0
 11 12  2  0
 12 13  1  0
 13 14  1  0
 14 15  3  0
 13 16  2  0
 16 17  1  0
 17 18  3  0
 16 19  1  0
 19 20  2  0
 20  2  1  0
  8  4  1  0
 20 11  1  0
  1 21  1  0
  1 22  1  0
  1 23  1  0
  5 24  1  0
  6 25  1  0
  7 26  1  0
 12 27  1  0
 19 28  1  0
M  END
$$$$
