
     RDKit          3D

 40 42  0  0  0  0  0  0  0  0999 V2000
    1.9615   -4.3762   -0.8355 C   0  0  0  0  0  0  0  0  0  0  0  0
    0.8508   -3.3718   -0.7030 C   0  0  0  0  0  0  0  0  0  0  0  0
   -0.3204   -3.7754   -0.9011 O   0  0  0  0  0  0  0  0  0  0  0  0
    1.1030   -1.9943   -0.3624 C   0  0  0  0  0  0  0  0  0  0  0  0
    0.1329   -1.0471   -0.2418 C   0  0  0  0  0  0  0  0  0  0  0  0
   -1.2193   -1.3000   -0.4335 N   0  0  0  0  0  0  0  0  0  0  0  0
   -2.2223   -0.2828   -0.3125 C   0  0  0  0  0  0  0  0  0  0  0  0
   -3.2325   -0.3791    0.6131 C   0  0  0  0  0  0  0  0  0  0  0  0
   -4.2054    0.6096    0.7292 C   0  0  0  0  0  0  0  0  0  0  0  0
   -4.1562    1.7088   -0.1005 C   0  0  0  0  0  0  0  0  0  0  0  0
   -5.1805    2.7866   -0.0012 C   0  0  0  0  0  0  0  0  0  0  0  0
   -3.1537    1.8235   -1.0331 C   0  0  0  0  0  0  0  0  0  0  0  0
   -2.1859    0.8151   -1.1309 C   0  0  0  0  0  0  0  0  0  0  0  0
   -0.9294    0.9660   -2.3088 Cl  0  0  0  0  0  0  0  0  0  0  0  0
    0.4814    0.2069    0.0820 N   0  0  0  0  0  0  0  0  0  0  0  0
    1.7517    0.5527    0.2896 C   0  0  0  0  0  0  0  0  0  0  0  0
    2.0405    1.8631    0.6206 C   0  0  0  0  0  0  0  0  0  0  0  0
    0.9736    2.7989    0.7292 N   0  0  0  0  0  4  0  0  0  0  0  0
    1.1773    4.0047    0.5214 O   0  0  0  0  0  0  0  0  0  0  0  0
   -0.3010    2.4128    1.0624 O   0  0  0  0  0  1  0  0  0  0  0  0
    3.3496    2.2463    0.8408 C   0  0  0  0  0  0  0  0  0  0  0  0
    4.3545    1.3283    0.7306 C   0  0  0  0  0  0  0  0  0  0  0  0
    6.0134    1.7851    1.0034 Cl  0  0  0  0  0  0  0  0  0  0  0  0
    4.0874    0.0257    0.4036 C   0  0  0  0  0  0  0  0  0  0  0  0
    2.7686   -0.3579    0.1823 C   0  0  0  0  0  0  0  0  0  0  0  0
    2.4587   -1.6616   -0.1494 C   0  0  0  0  0  0  0  0  0  0  0  0
    3.4891   -2.5704   -0.2553 O   0  0  0  0  0  0  0  0  0  0  0  0
    2.4714   -4.5793    0.1217 H   0  0  0  0  0  0  0  0  0  0  0  0
    1.4996   -5.3566   -1.1191 H   0  0  0  0  0  0  0  0  0  0  0  0
    2.6206   -4.1266   -1.6820 H   0  0  0  0  0  0  0  0  0  0  0  0
   -1.5893   -2.2338   -0.6745 H   0  0  0  0  0  0  0  0  0  0  0  0
   -3.2698   -1.2477    1.2673 H   0  0  0  0  0  0  0  0  0  0  0  0
   -5.0040    0.5438    1.4541 H   0  0  0  0  0  0  0  0  0  0  0  0
   -5.5085    2.8845    1.0543 H   0  0  0  0  0  0  0  0  0  0  0  0
   -4.6725    3.7371   -0.2780 H   0  0  0  0  0  0  0  0  0  0  0  0
   -6.0123    2.6414   -0.7082 H   0  0  0  0  0  0  0  0  0  0  0  0
   -3.1270    2.6968   -1.6817 H   0  0  0  0  0  0  0  0  0  0  0  0
    3.5692    3.2849    1.1017 H   0  0  0  0  0  0  0  0  0  0  0  0
    4.8446   -0.7292    0.3064 H   0  0  0  0  0  0  0  0  0  0  0  0
    4.2906   -2.3327   -0.8246 H   0  0  0  0  0  0  0  0  0  0  0  0
  1  2  1  0
  2  3  2  0
  2  4  1  0
  4  5  2  0
  5  6  1  0
  6  7  1  0
  7  8  2  0
  8  9  1  0
  9 10  2  0
 10 11  1  0
 10 12  1  0
 12 13  2  0
 13 14  1  0
  5 15  1  0
 15 16  2  0
 16 17  1  0
 17 18  1  0
 18 19  2  0
 18 20  1  0
 17 21  2  0
 21 22  1  0
 22 23  1  0
 22 24  2  0
 24 25  1  0
 25 26  2  0
 26 27  1  0
 26  4  1  0
 13  7  1  0
 25 16  1  0
  1 28  1  0
  1 29  1  0
  1 30  1  0
  6 31  1  0
  8 32  1  0
  9 33  1  0
 11 34  1  0
 11 35  1  0
 11 36  1  0
 12 37  1  0
 21 38  1  0
 24 39  1  0
 27 40  1  0
M  CHG  2  18   1  20  -1
M  END
$$$$
