
     RDKit          3D

 36 37  0  0  0  0  0  0  0  0999 V2000
   -6.9591    0.3257    1.3549 N   0  0  0  0  0  0  0  0  0  0  0  0
   -6.2654   -0.6030    0.5324 C   0  0  0  0  0  0  0  0  0  0  0  0
   -6.9465   -1.6727    0.2618 N   0  0  0  0  0  0  0  0  0  0  0  0
   -4.9007   -0.3457    0.0469 C   0  0  0  0  0  0  0  0  0  0  0  0
   -4.4777    0.9549   -0.1285 C   0  0  0  0  0  0  0  0  0  0  0  0
   -3.2137    1.2552   -0.5823 C   0  0  0  0  0  0  0  0  0  0  0  0
   -2.3800    0.1950   -0.8574 C   0  0  0  0  0  0  0  0  0  0  0  0
   -1.0553    0.2389   -1.3248 N   0  0  0  0  0  0  0  0  0  0  0  0
    0.2742    0.2489   -1.0088 N   0  0  0  0  0  0  0  0  0  0  0  0
    0.9435    1.0229   -0.3089 N   0  0  0  0  0  0  0  0  0  0  0  0
    2.3657    0.8547   -0.0959 C   0  0  0  0  0  0  0  0  0  0  0  0
    2.6872   -0.4435    0.2485 C   0  0  0  0  0  0  0  0  0  0  0  0
    3.9837   -0.8393    0.4982 C   0  0  0  0  0  0  0  0  0  0  0  0
    4.9699    0.1492    0.3853 C   0  0  0  0  0  0  0  0  0  0  0  0
    4.6620    1.4498    0.0423 C   0  0  0  0  0  0  0  0  0  0  0  0
    3.3522    1.8075   -0.2006 C   0  0  0  0  0  0  0  0  0  0  0  0
    6.3954   -0.0727    0.6066 C   0  0  0  0  0  0  0  0  0  0  0  0
    6.8575   -1.3854    0.3017 N   0  0  0  0  0  0  0  0  0  0  0  0
    7.2399    0.8003    1.0414 N   0  0  0  0  0  0  0  0  0  0  0  0
   -2.7999   -1.1297   -0.6827 C   0  0  0  0  0  0  0  0  0  0  0  0
   -4.0846   -1.4197   -0.2216 C   0  0  0  0  0  0  0  0  0  0  0  0
   -7.2429    1.0748    0.6694 H   0  0  0  0  0  0  0  0  0  0  0  0
   -6.9844    0.0131    2.3425 H   0  0  0  0  0  0  0  0  0  0  0  0
   -6.4920   -2.3790   -0.3304 H   0  0  0  0  0  0  0  0  0  0  0  0
   -5.1307    1.7907    0.0850 H   0  0  0  0  0  0  0  0  0  0  0  0
   -2.7975    2.2269   -0.7496 H   0  0  0  0  0  0  0  0  0  0  0  0
   -0.9974    0.2872   -2.3717 H   0  0  0  0  0  0  0  0  0  0  0  0
    1.9601   -1.2648    0.3538 H   0  0  0  0  0  0  0  0  0  0  0  0
    4.3292   -1.8237    0.7713 H   0  0  0  0  0  0  0  0  0  0  0  0
    5.3766    2.2481   -0.0580 H   0  0  0  0  0  0  0  0  0  0  0  0
    3.0063    2.7782   -0.4694 H   0  0  0  0  0  0  0  0  0  0  0  0
    6.4630   -2.2726    0.7063 H   0  0  0  0  0  0  0  0  0  0  0  0
    7.6483   -1.3916   -0.3819 H   0  0  0  0  0  0  0  0  0  0  0  0
    6.8753    1.7633    1.2588 H   0  0  0  0  0  0  0  0  0  0  0  0
   -2.2112   -2.0209   -0.8745 H   0  0  0  0  0  0  0  0  0  0  0  0
   -4.4512   -2.4212   -0.0731 H   0  0  0  0  0  0  0  0  0  0  0  0
  1  2  1  0
  2  3  2  3
  2  4  1  0
  4  5  2  0
  5  6  1  0
  6  7  2  0
  7  8  1  0
  8  9  1  0
  9 10  2  0
 10 11  1  0
 11 12  2  0
 12 13  1  0
 13 14  2  0
 14 15  1  0
 15 16  2  0
 14 17  1  0
 17 18  1  0
 17 19  2  3
  7 20  1  0
 20 21  2  0
 21  4  1  0
 16 11  1  0
  1 22  1  0
  1 23  1  0
  3 24  1  0
  5 25  1  0
  6 26  1  0
  8 27  1  0
 12 28  1  0
 13 29  1  0
 15 30  1  0
 16 31  1  0
 18 32  1  0
 18 33  1  0
 19 34  1  0
 20 35  1  0
 21 36  1  0
M  END
$$$$
