
     RDKit          3D

 46 50  0  0  0  0  0  0  0  0999 V2000
   -2.4673   -0.2437    1.6124 C   0  0  0  0  0  0  0  0  0  0  0  0
   -2.6900   -0.6632    0.1979 C   0  0  0  0  0  0  0  0  0  0  0  0
   -3.1013    0.4488   -0.7354 C   0  0  0  0  0  0  0  0  0  0  0  0
   -4.4201    1.1268   -0.3260 C   0  0  0  0  0  0  0  0  0  0  0  0
   -3.1038    1.8387   -0.3010 C   0  0  0  0  0  0  0  0  0  0  0  0
   -1.5822   -1.4362   -0.2690 N   0  0  0  0  0  0  0  0  0  0  0  0
   -1.7355   -2.6344   -0.9162 C   0  0  0  0  0  0  0  0  0  0  0  0
   -0.5322   -3.1325   -1.2360 N   0  0  0  0  0  0  0  0  0  0  0  0
    0.3956   -2.2411   -0.7873 C   0  0  0  0  0  0  0  0  0  0  0  0
    1.8397   -2.3678   -0.9137 C   0  0  0  0  0  0  0  0  0  0  0  0
    2.7001   -2.6131    0.1344 C   0  0  0  0  0  0  0  0  0  0  0  0
    4.0831   -2.7172   -0.0559 C   0  0  0  0  0  0  0  0  0  0  0  0
    4.6279   -2.5757   -1.3118 C   0  0  0  0  0  0  0  0  0  0  0  0
    5.9739   -2.6864   -1.4386 F   0  0  0  0  0  0  0  0  0  0  0  0
    3.7832   -2.3299   -2.3739 C   0  0  0  0  0  0  0  0  0  0  0  0
    2.4176   -2.2294   -2.1707 C   0  0  0  0  0  0  0  0  0  0  0  0
   -0.2563   -1.1919   -0.1892 C   0  0  0  0  0  0  0  0  0  0  0  0
    0.3246   -0.0248    0.4222 C   0  0  0  0  0  0  0  0  0  0  0  0
    0.9980   -0.0419    1.6259 C   0  0  0  0  0  0  0  0  0  0  0  0
    1.5334    1.1212    2.1331 C   0  0  0  0  0  0  0  0  0  0  0  0
    1.3840    2.3010    1.4172 C   0  0  0  0  0  0  0  0  0  0  0  0
    1.8129    3.5695    1.6962 N   0  0  0  0  0  0  0  0  0  0  0  0
    1.4148    4.3610    0.6873 C   0  0  0  0  0  0  0  0  0  0  0  0
    0.7344    3.6022   -0.2323 C   0  0  0  0  0  0  0  0  0  0  0  0
    0.1258    3.9866   -1.4580 C   0  0  0  0  0  0  0  0  0  0  0  0
   -0.3645    4.2792   -2.4577 N   0  0  0  0  0  0  0  0  0  0  0  0
    0.7305    2.3226    0.2479 N   0  0  0  0  0  0  0  0  0  0  0  0
    0.2197    1.1827   -0.2249 C   0  0  0  0  0  0  0  0  0  0  0  0
   -1.9166   -1.0962    2.1089 H   0  0  0  0  0  0  0  0  0  0  0  0
   -1.8101    0.6311    1.7521 H   0  0  0  0  0  0  0  0  0  0  0  0
   -3.4133   -0.1561    2.1982 H   0  0  0  0  0  0  0  0  0  0  0  0
   -3.6080   -1.3356    0.2386 H   0  0  0  0  0  0  0  0  0  0  0  0
   -3.1142    0.1344   -1.7953 H   0  0  0  0  0  0  0  0  0  0  0  0
   -5.1018    1.4687   -1.1294 H   0  0  0  0  0  0  0  0  0  0  0  0
   -4.9189    0.7872    0.5919 H   0  0  0  0  0  0  0  0  0  0  0  0
   -2.9226    2.6595   -1.0438 H   0  0  0  0  0  0  0  0  0  0  0  0
   -2.7223    2.0925    0.6941 H   0  0  0  0  0  0  0  0  0  0  0  0
   -2.6886   -3.1169   -1.1416 H   0  0  0  0  0  0  0  0  0  0  0  0
    2.2722   -2.7273    1.1068 H   0  0  0  0  0  0  0  0  0  0  0  0
    4.7000   -2.9126    0.8231 H   0  0  0  0  0  0  0  0  0  0  0  0
    4.2101   -2.2181   -3.3636 H   0  0  0  0  0  0  0  0  0  0  0  0
    1.7305   -2.0348   -2.9973 H   0  0  0  0  0  0  0  0  0  0  0  0
    1.1013   -0.9642    2.1716 H   0  0  0  0  0  0  0  0  0  0  0  0
    2.0758    1.1336    3.0919 H   0  0  0  0  0  0  0  0  0  0  0  0
    1.5849    5.4285    0.5830 H   0  0  0  0  0  0  0  0  0  0  0  0
   -0.3045    1.2148   -1.1692 H   0  0  0  0  0  0  0  0  0  0  0  0
  1  2  1  0
  2  3  1  0
  3  4  1  0
  4  5  1  0
  2  6  1  0
  6  7  1  0
  7  8  2  0
  8  9  1  0
  9 10  1  0
 10 11  2  0
 11 12  1  0
 12 13  2  0
 13 14  1  0
 13 15  1  0
 15 16  2  0
  9 17  2  0
 17 18  1  0
 18 19  1  0
 19 20  2  0
 20 21  1  0
 21 22  2  0
 22 23  1  0
 23 24  2  0
 24 25  1  0
 25 26  3  0
 24 27  1  0
 27 28  1  0
  5  3  1  0
 17  6  1  0
 28 18  2  0
 16 10  1  0
 27 21  1  0
  1 29  1  0
  1 30  1  0
  1 31  1  0
  2 32  1  0
  3 33  1  0
  4 34  1  0
  4 35  1  0
  5 36  1  0
  5 37  1  0
  7 38  1  0
 11 39  1  0
 12 40  1  0
 15 41  1  0
 16 42  1  0
 19 43  1  0
 20 44  1  0
 23 45  1  0
 28 46  1  0
M  END
$$$$
