
     RDKit          3D

 50 53  0  0  0  0  0  0  0  0999 V2000
    6.3289    0.2985    1.3594 C   0  0  0  0  0  0  0  0  0  0  0  0
    5.9095    0.9308    0.0769 C   0  0  0  0  0  0  0  0  0  0  0  0
    6.8691    1.6237   -0.6784 C   0  0  0  0  0  0  0  0  0  0  0  0
    6.5085    2.2152   -1.8636 C   0  0  0  0  0  0  0  0  0  0  0  0
    7.6947    3.0828   -2.8163 Cl  0  0  0  0  0  0  0  0  0  0  0  0
    5.1913    2.0972   -2.2635 C   0  0  0  0  0  0  0  0  0  0  0  0
    4.2798    1.4168   -1.5078 N   0  0  0  0  0  0  0  0  0  0  0  0
    4.6082    0.8360   -0.3557 C   0  0  0  0  0  0  0  0  0  0  0  0
    3.6172    0.0996    0.4600 C   0  0  0  0  0  0  0  0  0  0  0  0
    3.9737   -0.4231    1.5245 O   0  0  0  0  0  0  0  0  0  0  0  0
    2.2701   -0.0200    0.0494 N   0  0  0  0  0  0  0  0  0  0  0  0
    1.2289   -0.6905    0.7286 C   0  0  0  0  0  0  0  0  0  0  0  0
    1.3192   -1.3569    1.9189 C   0  0  0  0  0  0  0  0  0  0  0  0
    0.2512   -1.9971    2.5338 C   0  0  0  0  0  0  0  0  0  0  0  0
   -0.9846   -1.9475    1.8825 C   0  0  0  0  0  0  0  0  0  0  0  0
   -2.0244   -2.5613    2.4714 F   0  0  0  0  0  0  0  0  0  0  0  0
   -1.1204   -1.2857    0.6793 C   0  0  0  0  0  0  0  0  0  0  0  0
   -2.4578   -1.2837    0.0501 C   0  0  1  0  0  0  0  0  0  0  0  0
   -2.8662   -2.7801    0.0014 C   0  0  0  0  0  0  0  0  0  0  0  0
   -3.3473   -0.6757    0.9497 N   0  0  0  0  0  0  0  0  0  0  0  0
   -4.2205    0.2020    0.9139 C   0  0  0  0  0  0  0  0  0  0  0  0
   -4.9741    0.5945    2.0759 N   0  0  0  0  0  0  0  0  0  0  0  0
   -4.5239    0.8977   -0.3571 C   0  0  0  0  0  0  0  0  0  0  0  0
   -5.5464    1.9017   -0.5201 C   0  0  0  0  0  0  0  0  0  0  0  0
   -5.7069    0.4530   -1.0879 C   0  0  0  0  0  0  0  0  0  0  0  0
   -2.9981    0.9232   -1.3191 S   0  0  0  0  0  6  0  0  0  0  0  0
   -3.2655    1.3913   -2.7153 O   0  0  0  0  0  0  0  0  0  0  0  0
   -2.0003    1.7583   -0.6035 O   0  0  0  0  0  0  0  0  0  0  0  0
   -2.5502   -0.7957   -1.3306 C   0  0  1  0  0  0  0  0  0  0  0  0
   -1.5676   -1.1247   -2.2030 F   0  0  0  0  0  0  0  0  0  0  0  0
   -0.0415   -0.6796    0.1281 C   0  0  0  0  0  0  0  0  0  0  0  0
    5.8433    0.7631    2.2389 H   0  0  0  0  0  0  0  0  0  0  0  0
    7.4263    0.5000    1.5054 H   0  0  0  0  0  0  0  0  0  0  0  0
    6.2602   -0.8088    1.3340 H   0  0  0  0  0  0  0  0  0  0  0  0
    7.8932    1.6965   -0.3348 H   0  0  0  0  0  0  0  0  0  0  0  0
    4.9235    2.5687   -3.1993 H   0  0  0  0  0  0  0  0  0  0  0  0
    2.0753    0.4707   -0.8858 H   0  0  0  0  0  0  0  0  0  0  0  0
    2.2549   -1.4088    2.4367 H   0  0  0  0  0  0  0  0  0  0  0  0
    0.3889   -2.5076    3.4768 H   0  0  0  0  0  0  0  0  0  0  0  0
   -3.5403   -2.9992    0.8439 H   0  0  0  0  0  0  0  0  0  0  0  0
   -1.9711   -3.3950    0.0254 H   0  0  0  0  0  0  0  0  0  0  0  0
   -3.4318   -2.9738   -0.9445 H   0  0  0  0  0  0  0  0  0  0  0  0
   -4.5390    0.9516    2.9389 H   0  0  0  0  0  0  0  0  0  0  0  0
   -6.0030    0.5046    2.0178 H   0  0  0  0  0  0  0  0  0  0  0  0
   -6.2116    2.1105    0.3379 H   0  0  0  0  0  0  0  0  0  0  0  0
   -5.4466    2.6883   -1.2810 H   0  0  0  0  0  0  0  0  0  0  0  0
   -5.6980    0.3959   -2.2113 H   0  0  0  0  0  0  0  0  0  0  0  0
   -6.4616   -0.1780   -0.6031 H   0  0  0  0  0  0  0  0  0  0  0  0
   -3.4809   -1.3064   -1.7667 H   0  0  0  0  0  0  0  0  0  0  0  0
   -0.1364   -0.1731   -0.7926 H   0  0  0  0  0  0  0  0  0  0  0  0
  1  2  1  0
  2  3  2  0
  3  4  1  0
  4  5  1  0
  4  6  2  0
  6  7  1  0
  7  8  2  0
  8  9  1  0
  9 10  2  0
  9 11  1  0
 11 12  1  0
 12 13  2  0
 13 14  1  0
 14 15  2  0
 15 16  1  0
 15 17  1  0
 17 18  1  0
 18 19  1  6
 18 20  1  0
 20 21  2  0
 21 22  1  0
 21 23  1  0
 23 24  1  0
 24 25  1  0
 23 26  1  0
 26 27  2  0
 26 28  2  0
 26 29  1  0
 29 30  1  0
 17 31  2  0
  8  2  1  0
 31 12  1  0
 29 18  1  0
 25 23  1  0
  1 32  1  0
  1 33  1  0
  1 34  1  0
  3 35  1  0
  6 36  1  0
 11 37  1  0
 13 38  1  0
 14 39  1  0
 19 40  1  0
 19 41  1  0
 19 42  1  0
 22 43  1  0
 22 44  1  0
 24 45  1  0
 24 46  1  0
 25 47  1  0
 25 48  1  0
 29 49  1  6
 31 50  1  0
M  END
$$$$
