
     RDKit          3D

 44 46  0  0  0  0  0  0  0  0999 V2000
    2.4668   -3.0812   -2.5876 C   0  0  0  0  0  0  0  0  0  0  0  0
    2.4830   -2.0056   -1.6660 O   0  0  0  0  0  0  0  0  0  0  0  0
    1.3274   -1.4240   -1.1900 C   0  0  0  0  0  0  0  0  0  0  0  0
    0.1061   -1.9365   -1.6524 C   0  0  0  0  0  0  0  0  0  0  0  0
   -1.0467   -1.3560   -1.1772 C   0  0  0  0  0  0  0  0  0  0  0  0
   -1.0509   -0.3151   -0.2858 C   0  0  0  0  0  0  0  0  0  0  0  0
   -2.3089    0.2927    0.2107 C   0  0  0  0  0  0  0  0  0  0  0  0
   -2.2644    1.2380    1.0212 O   0  0  0  0  0  0  0  0  0  0  0  0
   -3.5823   -0.1651   -0.2057 N   0  0  0  0  0  0  0  0  0  0  0  0
   -4.7885    0.4536    0.3010 C   0  0  0  0  0  0  0  0  0  0  0  0
   -5.3671    1.5285   -0.3472 C   0  0  0  0  0  0  0  0  0  0  0  0
   -4.7576    1.9718   -1.4691 F   0  0  0  0  0  0  0  0  0  0  0  0
   -6.5251    2.1078    0.1561 C   0  0  0  0  0  0  0  0  0  0  0  0
   -7.1246    1.6278    1.3101 C   0  0  0  0  0  0  0  0  0  0  0  0
   -6.5527    0.5615    1.9551 C   0  0  0  0  0  0  0  0  0  0  0  0
   -5.4027   -0.0092    1.4500 C   0  0  0  0  0  0  0  0  0  0  0  0
   -4.8382   -1.0625    2.0876 F   0  0  0  0  0  0  0  0  0  0  0  0
    0.1628    0.1589    0.1435 C   0  0  0  0  0  0  0  0  0  0  0  0
    1.3775   -0.3933   -0.3063 C   0  0  0  0  0  0  0  0  0  0  0  0
    2.5226    0.1422    0.1743 O   0  0  0  0  0  0  0  0  0  0  0  0
    3.8538   -0.1029   -0.0102 C   0  0  0  0  0  0  0  0  0  0  0  0
    4.4538   -0.3223    1.3985 C   0  0  0  0  0  0  0  0  0  0  0  0
    4.4471    1.1391    1.8689 C   0  0  0  0  0  0  0  0  0  0  0  0
    5.2178    1.7792    0.7343 C   0  0  0  0  0  0  0  0  0  0  0  0
    4.6174    1.1504   -0.4834 C   0  0  0  0  0  0  0  0  0  0  0  0
    3.5203   -3.3424   -2.8381 H   0  0  0  0  0  0  0  0  0  0  0  0
    1.9150   -2.8188   -3.5143 H   0  0  0  0  0  0  0  0  0  0  0  0
    1.9941   -3.9508   -2.0708 H   0  0  0  0  0  0  0  0  0  0  0  0
    0.1130   -2.7641   -2.3610 H   0  0  0  0  0  0  0  0  0  0  0  0
   -1.9714   -1.7593   -1.5404 H   0  0  0  0  0  0  0  0  0  0  0  0
   -3.6794   -0.9447   -0.8753 H   0  0  0  0  0  0  0  0  0  0  0  0
   -6.9566    2.9363   -0.3580 H   0  0  0  0  0  0  0  0  0  0  0  0
   -8.0317    2.1262    1.6531 H   0  0  0  0  0  0  0  0  0  0  0  0
   -7.0189    0.1852    2.8559 H   0  0  0  0  0  0  0  0  0  0  0  0
    0.1893    0.9922    0.8576 H   0  0  0  0  0  0  0  0  0  0  0  0
    4.1660   -0.8962   -0.6837 H   0  0  0  0  0  0  0  0  0  0  0  0
    3.7798   -0.9463    1.9841 H   0  0  0  0  0  0  0  0  0  0  0  0
    5.4756   -0.6876    1.2860 H   0  0  0  0  0  0  0  0  0  0  0  0
    3.4049    1.4765    1.8814 H   0  0  0  0  0  0  0  0  0  0  0  0
    4.9649    1.2443    2.8393 H   0  0  0  0  0  0  0  0  0  0  0  0
    6.2991    1.5129    0.8480 H   0  0  0  0  0  0  0  0  0  0  0  0
    5.1076    2.8824    0.7573 H   0  0  0  0  0  0  0  0  0  0  0  0
    5.3966    0.8997   -1.2269 H   0  0  0  0  0  0  0  0  0  0  0  0
    3.9053    1.8766   -0.9248 H   0  0  0  0  0  0  0  0  0  0  0  0
  1  2  1  0
  2  3  1  0
  3  4  2  0
  4  5  1  0
  5  6  2  0
  6  7  1  0
  7  8  2  0
  7  9  1  0
  9 10  1  0
 10 11  2  0
 11 12  1  0
 11 13  1  0
 13 14  2  0
 14 15  1  0
 15 16  2  0
 16 17  1  0
  6 18  1  0
 18 19  2  0
 19 20  1  0
 20 21  1  0
 21 22  1  0
 22 23  1  0
 23 24  1  0
 24 25  1  0
 19  3  1  0
 25 21  1  0
 16 10  1  0
  1 26  1  0
  1 27  1  0
  1 28  1  0
  4 29  1  0
  5 30  1  0
  9 31  1  0
 13 32  1  0
 14 33  1  0
 15 34  1  0
 18 35  1  0
 21 36  1  0
 22 37  1  0
 22 38  1  0
 23 39  1  0
 23 40  1  0
 24 41  1  0
 24 42  1  0
 25 43  1  0
 25 44  1  0
M  END
$$$$
