
     RDKit          3D

 45 49  0  0  0  0  0  0  0  0999 V2000
   -0.9214   -1.3018    0.3571 C   0  0  2  0  0  0  0  0  0  0  0  0
   -1.7439   -0.9323   -0.8515 C   0  0  0  0  0  0  0  0  0  0  0  0
   -2.6712    0.1781   -0.5971 C   0  0  0  0  0  0  0  0  0  0  0  0
   -2.3632    1.0607    0.4171 C   0  0  0  0  0  0  0  0  0  0  0  0
   -3.1504    2.1370    0.7505 C   0  0  0  0  0  0  0  0  0  0  0  0
   -2.5316    2.7579    1.7764 N   0  0  0  0  0  0  0  0  0  0  0  0
   -1.3904    2.0720    2.0609 C   0  0  0  0  0  0  0  0  0  0  0  0
   -1.2483    0.9987    1.2290 C   0  0  0  0  0  0  0  0  0  0  0  0
   -0.2806   -0.0983    1.0177 C   0  0  2  0  0  0  0  0  0  0  0  0
    0.7462    0.2582   -0.0230 C   0  0  2  0  0  0  0  0  0  0  0  0
    1.3480   -1.0643   -0.2567 N   0  0  0  0  0  0  0  0  0  0  0  0
    2.6871   -0.8160   -0.5705 C   0  0  0  0  0  0  0  0  0  0  0  0
    3.4701   -1.7652   -1.2576 O   0  0  0  0  0  0  0  0  0  0  0  0
    3.0681    0.3780   -0.1428 C   0  0  0  0  0  0  0  0  0  0  0  0
    4.4115    0.9234   -0.3212 C   0  0  0  0  0  0  0  0  0  0  0  0
    4.7604    2.2754    0.1895 C   0  0  0  0  0  0  0  0  0  0  0  0
    5.2554    0.2073   -0.9205 O   0  0  0  0  0  0  0  0  0  0  0  0
    1.9149    0.9918    0.5083 C   0  0  0  0  0  0  0  0  0  0  0  0
    1.9683    1.9352    1.3321 O   0  0  0  0  0  0  0  0  0  0  0  0
    0.3311   -2.0657   -0.0710 C   0  0  0  0  0  0  0  0  0  0  0  0
    0.1521   -2.7585   -1.3992 C   0  0  0  0  0  0  0  0  0  0  0  0
    0.6507   -3.0449    1.0183 C   0  0  0  0  0  0  0  0  0  0  0  0
   -4.2962    2.2846   -0.0102 C   0  0  0  0  0  0  0  0  0  0  0  0
   -4.6251    1.4128   -1.0312 C   0  0  0  0  0  0  0  0  0  0  0  0
   -3.8226    0.3350   -1.3539 C   0  0  0  0  0  0  0  0  0  0  0  0
   -1.5445   -1.8784    1.0618 H   0  0  0  0  0  0  0  0  0  0  0  0
   -1.1633   -0.7372   -1.7577 H   0  0  0  0  0  0  0  0  0  0  0  0
   -2.3896   -1.8283   -1.0761 H   0  0  0  0  0  0  0  0  0  0  0  0
   -2.9297    3.6231    2.2267 H   0  0  0  0  0  0  0  0  0  0  0  0
   -0.6879    2.3440    2.8455 H   0  0  0  0  0  0  0  0  0  0  0  0
    0.2221   -0.4307    1.9243 H   0  0  0  0  0  0  0  0  0  0  0  0
    0.3200    0.6894   -0.9301 H   0  0  0  0  0  0  0  0  0  0  0  0
    3.7117   -1.5338   -2.2328 H   0  0  0  0  0  0  0  0  0  0  0  0
    3.8526    2.8780    0.3202 H   0  0  0  0  0  0  0  0  0  0  0  0
    5.3262    2.1865    1.1405 H   0  0  0  0  0  0  0  0  0  0  0  0
    5.4573    2.7743   -0.5457 H   0  0  0  0  0  0  0  0  0  0  0  0
    0.3639   -2.0568   -2.2506 H   0  0  0  0  0  0  0  0  0  0  0  0
   -0.8248   -3.2309   -1.4871 H   0  0  0  0  0  0  0  0  0  0  0  0
    0.9463   -3.5340   -1.4520 H   0  0  0  0  0  0  0  0  0  0  0  0
   -0.0947   -3.8666    0.9615 H   0  0  0  0  0  0  0  0  0  0  0  0
    0.5961   -2.5875    2.0066 H   0  0  0  0  0  0  0  0  0  0  0  0
    1.6462   -3.5145    0.9018 H   0  0  0  0  0  0  0  0  0  0  0  0
   -4.9374    3.1341    0.2374 H   0  0  0  0  0  0  0  0  0  0  0  0
   -5.5422    1.5813   -1.5958 H   0  0  0  0  0  0  0  0  0  0  0  0
   -4.0475   -0.3715   -2.1490 H   0  0  0  0  0  0  0  0  0  0  0  0
  1  2  1  0
  2  3  1  0
  3  4  2  0
  4  5  1  0
  5  6  1  0
  6  7  1  0
  7  8  2  0
  8  9  1  0
  9 10  1  0
 10 11  1  0
 11 12  1  0
 12 13  1  0
 12 14  2  0
 14 15  1  0
 15 16  1  0
 15 17  2  0
 14 18  1  0
 18 19  2  0
 11 20  1  0
 20 21  1  0
 20 22  1  0
  5 23  2  0
 23 24  1  0
 24 25  2  0
  9  1  1  0
 18 10  1  0
 20  1  1  0
 25  3  1  0
  8  4  1  0
  1 26  1  1
  2 27  1  0
  2 28  1  0
  6 29  1  0
  7 30  1  0
  9 31  1  1
 10 32  1  6
 13 33  1  0
 16 34  1  0
 16 35  1  0
 16 36  1  0
 21 37  1  0
 21 38  1  0
 21 39  1  0
 22 40  1  0
 22 41  1  0
 22 42  1  0
 23 43  1  0
 24 44  1  0
 25 45  1  0
M  END
$$$$
