
     RDKit          3D

 52 56  0  0  0  0  0  0  0  0999 V2000
    1.6105   -1.5170   -1.1298 O   0  0  0  0  0  0  0  0  0  0  0  0
    1.1774   -0.5049   -0.4973 C   0  0  0  0  0  0  0  0  0  0  0  0
    2.1552    0.4483   -0.1025 N   0  0  0  0  0  0  0  0  0  0  0  0
    3.5508    0.2316   -0.4271 C   0  0  1  0  0  0  0  0  0  0  0  0
    4.2514    1.5214   -0.8435 C   0  0  0  0  0  0  0  0  0  0  0  0
    4.6294    0.8113    0.4027 C   0  0  2  0  0  0  0  0  0  0  0  0
    5.8869    0.0380    0.4772 C   0  0  0  0  0  0  0  0  0  0  0  0
    6.3601   -0.7118   -0.5785 C   0  0  0  0  0  0  0  0  0  0  0  0
    7.5507   -1.4327   -0.4818 C   0  0  0  0  0  0  0  0  0  0  0  0
    8.2734   -1.4017    0.6833 C   0  0  0  0  0  0  0  0  0  0  0  0
    7.8183   -0.6598    1.7475 C   0  0  0  0  0  0  0  0  0  0  0  0
    6.6227    0.0579    1.6357 C   0  0  0  0  0  0  0  0  0  0  0  0
   -0.2036   -0.3641   -0.2181 N   0  0  0  0  0  0  0  0  0  0  0  0
   -0.7711    0.7405    0.4859 C   0  0  0  0  0  0  0  0  0  0  0  0
   -2.0598    1.1181   -0.2520 C   0  0  0  0  0  0  0  0  0  0  0  0
   -3.1090    0.0602   -0.1856 C   0  0  0  0  0  0  0  0  0  0  0  0
   -3.8828    0.1159   -1.5084 C   0  0  0  0  0  0  0  0  0  0  0  0
   -4.9140    1.2433   -1.3839 C   0  0  0  0  0  0  0  0  0  0  0  0
   -5.9155    0.7212   -0.3874 C   0  0  0  0  0  0  0  0  0  0  0  0
   -7.2256    0.7492   -0.6154 N   0  0  0  0  0  0  0  0  0  0  0  0
   -8.0760    0.2613    0.3253 C   0  0  0  0  0  0  0  0  0  0  0  0
   -7.5788   -0.2569    1.5036 C   0  0  0  0  0  0  0  0  0  0  0  0
   -6.2221   -0.2818    1.7310 C   0  0  0  0  0  0  0  0  0  0  0  0
   -5.3657    0.2149    0.7722 C   0  0  0  0  0  0  0  0  0  0  0  0
   -3.9947    0.2334    0.9084 O   0  0  0  0  0  0  0  0  0  0  0  0
   -2.4625   -1.2865   -0.0019 C   0  0  0  0  0  0  0  0  0  0  0  0
   -1.1105   -1.4002   -0.6709 C   0  0  0  0  0  0  0  0  0  0  0  0
    1.8477    1.2910    0.4166 H   0  0  0  0  0  0  0  0  0  0  0  0
    3.7817   -0.6910   -0.9780 H   0  0  0  0  0  0  0  0  0  0  0  0
    3.7316    2.4752   -0.7645 H   0  0  0  0  0  0  0  0  0  0  0  0
    4.8365    1.4080   -1.7750 H   0  0  0  0  0  0  0  0  0  0  0  0
    4.3847    1.3591    1.3455 H   0  0  0  0  0  0  0  0  0  0  0  0
    5.8384   -0.7734   -1.5110 H   0  0  0  0  0  0  0  0  0  0  0  0
    7.9123   -2.0148   -1.3099 H   0  0  0  0  0  0  0  0  0  0  0  0
    9.1986   -1.9735    0.7311 H   0  0  0  0  0  0  0  0  0  0  0  0
    8.3887   -0.6319    2.6755 H   0  0  0  0  0  0  0  0  0  0  0  0
    6.3363    0.6172    2.5236 H   0  0  0  0  0  0  0  0  0  0  0  0
   -1.0234    0.4435    1.5287 H   0  0  0  0  0  0  0  0  0  0  0  0
   -0.1600    1.6443    0.5204 H   0  0  0  0  0  0  0  0  0  0  0  0
   -1.7591    1.2502   -1.3116 H   0  0  0  0  0  0  0  0  0  0  0  0
   -2.3965    2.0864    0.1714 H   0  0  0  0  0  0  0  0  0  0  0  0
   -4.4058   -0.8288   -1.6671 H   0  0  0  0  0  0  0  0  0  0  0  0
   -3.1593    0.3503   -2.3147 H   0  0  0  0  0  0  0  0  0  0  0  0
   -4.4591    2.1450   -0.9256 H   0  0  0  0  0  0  0  0  0  0  0  0
   -5.3814    1.4335   -2.3642 H   0  0  0  0  0  0  0  0  0  0  0  0
   -9.1546    0.2707    0.1675 H   0  0  0  0  0  0  0  0  0  0  0  0
   -8.2656   -0.6437    2.2478 H   0  0  0  0  0  0  0  0  0  0  0  0
   -5.7790   -0.6804    2.6451 H   0  0  0  0  0  0  0  0  0  0  0  0
   -3.0972   -2.0763   -0.4078 H   0  0  0  0  0  0  0  0  0  0  0  0
   -2.3000   -1.4838    1.0897 H   0  0  0  0  0  0  0  0  0  0  0  0
   -1.2374   -1.3624   -1.7714 H   0  0  0  0  0  0  0  0  0  0  0  0
   -0.6732   -2.3632   -0.3382 H   0  0  0  0  0  0  0  0  0  0  0  0
  1  2  2  0
  2  3  1  0
  3  4  1  0
  4  5  1  0
  5  6  1  0
  6  7  1  0
  7  8  2  0
  8  9  1  0
  9 10  2  0
 10 11  1  0
 11 12  2  0
  2 13  1  0
 13 14  1  0
 14 15  1  0
 15 16  1  0
 16 17  1  0
 17 18  1  0
 18 19  1  0
 19 20  2  0
 20 21  1  0
 21 22  2  0
 22 23  1  0
 23 24  2  0
 24 25  1  0
 16 26  1  0
 26 27  1  0
  6  4  1  0
 12  7  1  0
 27 13  1  0
 25 16  1  0
 24 19  1  0
  3 28  1  0
  4 29  1  6
  5 30  1  0
  5 31  1  0
  6 32  1  1
  8 33  1  0
  9 34  1  0
 10 35  1  0
 11 36  1  0
 12 37  1  0
 14 38  1  0
 14 39  1  0
 15 40  1  0
 15 41  1  0
 17 42  1  0
 17 43  1  0
 18 44  1  0
 18 45  1  0
 21 46  1  0
 22 47  1  0
 23 48  1  0
 26 49  1  0
 26 50  1  0
 27 51  1  0
 27 52  1  0
M  END
$$$$
