
     RDKit          3D

 39 42  0  0  0  0  0  0  0  0999 V2000
   -5.2568    1.6370   -0.1095 N   0  0  0  0  0  0  0  0  0  0  0  0
   -4.3039    1.2206   -0.7972 C   0  0  0  0  0  0  0  0  0  0  0  0
   -3.1754    0.7091   -1.6307 C   0  0  0  0  0  0  0  0  0  0  0  0
   -2.0378    0.7921   -1.1729 C   0  0  0  0  0  0  0  0  0  0  0  0
   -0.8797    0.3696   -1.9629 C   0  0  0  0  0  0  0  0  0  0  0  0
    0.4236    0.7964   -1.4529 C   0  0  0  0  0  0  0  0  0  0  0  0
    1.2216    1.7011   -2.2076 N   0  0  0  0  0  0  0  0  0  0  0  0
    2.2127    2.0998   -1.3970 C   0  0  0  0  0  0  0  0  0  0  0  0
    2.1317    1.5314   -0.1721 N   0  0  0  0  0  0  0  0  0  0  0  0
    2.7543    1.9287    1.0905 C   0  0  0  0  0  0  0  0  0  0  0  0
    2.3695    3.4295    1.2863 C   0  0  0  0  0  0  0  0  0  0  0  0
    2.8477    3.9149    2.4340 F   0  0  0  0  0  0  0  0  0  0  0  0
    0.9870    3.4069    1.1036 F   0  0  0  0  0  0  0  0  0  0  0  0
    1.0087    0.7142   -0.2545 C   0  0  0  0  0  0  0  0  0  0  0  0
    0.5826   -0.2138    0.7545 C   0  0  0  0  0  0  0  0  0  0  0  0
    0.1721    0.0496    2.0516 C   0  0  0  0  0  0  0  0  0  0  0  0
   -0.0549   -0.9572    2.9559 C   0  0  0  0  0  0  0  0  0  0  0  0
    0.1233   -2.2244    2.5588 C   0  0  0  0  0  0  0  0  0  0  0  0
    0.0184   -3.4281    3.2641 N   0  0  0  0  0  0  0  0  0  0  0  0
    0.3081   -4.3687    2.4565 C   0  0  0  0  0  0  0  0  0  0  0  0
    0.5909   -3.9750    1.2319 C   0  0  0  0  0  0  0  0  0  0  0  0
    0.7343   -4.7489    0.0376 C   0  0  0  0  0  0  0  0  0  0  0  0
    0.8371   -5.4066   -0.9915 N   0  0  0  0  0  0  0  0  0  0  0  0
    0.5081   -2.5500    1.2651 N   0  0  0  0  0  0  0  0  0  0  0  0
    0.7002   -1.5966    0.5184 N   0  0  0  0  0  0  0  0  0  0  0  0
   -1.1135   -0.1117   -3.1985 C   0  0  0  0  0  0  0  0  0  0  0  0
   -2.5015   -0.1541   -3.6640 C   0  0  0  0  0  0  0  0  0  0  0  0
   -3.5315    0.2456   -2.8884 C   0  0  0  0  0  0  0  0  0  0  0  0
   -4.8626    0.2063   -3.2112 F   0  0  0  0  0  0  0  0  0  0  0  0
   -1.7089    1.2079   -0.1829 H   0  0  0  0  0  0  0  0  0  0  0  0
    3.0284    2.8187   -1.6691 H   0  0  0  0  0  0  0  0  0  0  0  0
    2.2500    1.3775    1.9653 H   0  0  0  0  0  0  0  0  0  0  0  0
    3.8194    1.7479    1.1380 H   0  0  0  0  0  0  0  0  0  0  0  0
    2.8540    3.9265    0.3426 H   0  0  0  0  0  0  0  0  0  0  0  0
   -0.0300    1.0958    2.3166 H   0  0  0  0  0  0  0  0  0  0  0  0
   -0.4146   -0.7764    3.9609 H   0  0  0  0  0  0  0  0  0  0  0  0
    0.4386   -5.4876    2.7849 H   0  0  0  0  0  0  0  0  0  0  0  0
   -0.3865   -0.4440   -3.8892 H   0  0  0  0  0  0  0  0  0  0  0  0
   -2.6649   -0.4841   -4.6648 H   0  0  0  0  0  0  0  0  0  0  0  0
  1  2  3  0
  2  3  1  0
  3  4  2  0
  4  5  1  0
  5  6  1  0
  6  7  1  0
  7  8  2  0
  8  9  1  0
  9 10  1  0
 10 11  1  0
 11 12  1  0
 11 13  1  0
  9 14  1  0
 14 15  1  0
 15 16  1  0
 16 17  2  0
 17 18  1  0
 18 19  2  0
 19 20  1  0
 20 21  2  0
 21 22  1  0
 22 23  3  0
 21 24  1  0
 24 25  1  0
  5 26  2  0
 26 27  1  0
 27 28  2  0
 28 29  1  0
 28  3  1  0
 14  6  2  0
 25 15  2  0
 24 18  1  0
  4 30  1  0
  8 31  1  0
 10 32  1  0
 10 33  1  0
 11 34  1  0
 16 35  1  0
 17 36  1  0
 20 37  1  0
 26 38  1  0
 27 39  1  0
M  END
$$$$
