
     RDKit          3D

 39 40  0  0  0  0  0  0  0  0999 V2000
    3.8064    0.0792   -0.3583 C   0  0  1  0  0  0  0  0  0  0  0  0
    4.0429    1.3820    0.2679 C   0  0  0  0  0  0  0  0  0  0  0  0
    4.8615   -0.8308    0.0771 N   0  0  0  0  0  0  0  0  0  0  0  0
    2.4978   -0.5648   -0.2496 C   0  0  1  0  0  0  0  0  0  0  0  0
    1.9724   -0.8890    1.0944 C   0  0  0  0  0  0  0  0  0  0  0  0
    0.4582   -1.1156    0.9477 C   0  0  0  0  0  0  0  0  0  0  0  0
   -0.1113    0.3002    0.8316 C   0  0  1  0  0  0  0  0  0  0  0  0
    0.6735    1.0506   -0.1676 C   0  0  0  0  0  0  0  0  0  0  0  0
    1.4110    0.1072   -1.0654 C   0  0  0  0  0  0  0  0  0  0  0  0
   -1.5684    0.2556    0.6399 C   0  0  0  0  0  0  0  0  0  0  0  0
   -2.3571    0.8155    1.4770 O   0  0  0  0  0  0  0  0  0  0  0  0
   -2.2244   -0.3788   -0.4357 N   0  0  0  0  0  0  0  0  0  0  0  0
   -3.6551   -0.2318   -0.3168 C   0  0  0  0  0  0  0  0  0  0  0  0
   -4.2609    0.8807   -0.9107 C   0  0  0  0  0  0  0  0  0  0  0  0
   -5.6292    1.0663   -0.8245 C   0  0  0  0  0  0  0  0  0  0  0  0
   -6.4107    0.1800   -0.1666 N   0  0  0  0  0  0  0  0  0  0  0  0
   -5.8377   -0.9021    0.4134 C   0  0  0  0  0  0  0  0  0  0  0  0
   -4.4720   -1.1162    0.3451 C   0  0  0  0  0  0  0  0  0  0  0  0
    4.0113    0.1958   -1.4575 H   0  0  0  0  0  0  0  0  0  0  0  0
    3.6948    2.2539   -0.3273 H   0  0  0  0  0  0  0  0  0  0  0  0
    5.1482    1.5866    0.3836 H   0  0  0  0  0  0  0  0  0  0  0  0
    3.6550    1.5380    1.2882 H   0  0  0  0  0  0  0  0  0  0  0  0
    5.7768   -0.3467   -0.1274 H   0  0  0  0  0  0  0  0  0  0  0  0
    4.7940   -1.7480   -0.4173 H   0  0  0  0  0  0  0  0  0  0  0  0
    2.5990   -1.5726   -0.7670 H   0  0  0  0  0  0  0  0  0  0  0  0
    2.0430   -0.1258    1.8653 H   0  0  0  0  0  0  0  0  0  0  0  0
    2.4262   -1.8455    1.4653 H   0  0  0  0  0  0  0  0  0  0  0  0
    0.1902   -1.7721    0.1305 H   0  0  0  0  0  0  0  0  0  0  0  0
    0.1356   -1.5367    1.9187 H   0  0  0  0  0  0  0  0  0  0  0  0
    0.0979    0.7462    1.8504 H   0  0  0  0  0  0  0  0  0  0  0  0
    1.4647    1.6687    0.3321 H   0  0  0  0  0  0  0  0  0  0  0  0
    0.0958    1.7901   -0.7583 H   0  0  0  0  0  0  0  0  0  0  0  0
    1.8245    0.6106   -1.9635 H   0  0  0  0  0  0  0  0  0  0  0  0
    0.6821   -0.6393   -1.4904 H   0  0  0  0  0  0  0  0  0  0  0  0
   -1.6772   -0.8545   -1.1564 H   0  0  0  0  0  0  0  0  0  0  0  0
   -3.6174    1.5842   -1.4362 H   0  0  0  0  0  0  0  0  0  0  0  0
   -6.0403    1.9497   -1.3062 H   0  0  0  0  0  0  0  0  0  0  0  0
   -6.4791   -1.5973    0.9336 H   0  0  0  0  0  0  0  0  0  0  0  0
   -4.0220   -1.9733    0.8050 H   0  0  0  0  0  0  0  0  0  0  0  0
  1  2  1  0
  1  3  1  0
  1  4  1  0
  4  5  1  0
  5  6  1  0
  6  7  1  0
  7  8  1  0
  8  9  1  0
  7 10  1  0
 10 11  2  0
 10 12  1  0
 12 13  1  0
 13 14  2  0
 14 15  1  0
 15 16  2  0
 16 17  1  0
 17 18  2  0
  9  4  1  0
 18 13  1  0
  1 19  1  6
  2 20  1  0
  2 21  1  0
  2 22  1  0
  3 23  1  0
  3 24  1  0
  4 25  1  6
  5 26  1  0
  5 27  1  0
  6 28  1  0
  6 29  1  0
  7 30  1  1
  8 31  1  0
  8 32  1  0
  9 33  1  0
  9 34  1  0
 12 35  1  0
 14 36  1  0
 15 37  1  0
 17 38  1  0
 18 39  1  0
M  END
$$$$
