
     RDKit          3D

 61 63  0  0  0  0  0  0  0  0999 V2000
    5.0548    0.9563   -1.1760 C   0  0  0  0  0  0  0  0  0  0  0  0
    5.8858   -0.1635   -1.4628 N   0  0  0  0  0  0  0  0  0  0  0  0
    6.4884   -0.0348   -2.7694 C   0  0  0  0  0  0  0  0  0  0  0  0
    5.1778   -1.4151   -1.3687 C   0  0  0  0  0  0  0  0  0  0  0  0
    4.7861   -1.7596    0.0431 C   0  0  0  0  0  0  0  0  0  0  0  0
    4.0750   -3.0229    0.1150 N   0  0  0  0  0  0  0  0  0  0  0  0
    3.8235   -3.3561    1.5236 C   0  0  0  0  0  0  0  0  0  0  0  0
    2.8112   -3.0102   -0.6066 C   0  0  0  0  0  0  0  0  0  0  0  0
    1.8124   -2.0931   -0.0302 C   0  0  0  0  0  0  0  0  0  0  0  0
    0.9635   -2.5400    0.9734 C   0  0  0  0  0  0  0  0  0  0  0  0
    0.0170   -1.6953    1.5223 C   0  0  0  0  0  0  0  0  0  0  0  0
   -0.1001   -0.3758    1.0745 C   0  0  0  0  0  0  0  0  0  0  0  0
   -1.1051    0.5112    1.6748 C   0  0  0  0  0  0  0  0  0  0  0  0
   -1.8033    0.1053    2.6369 O   0  0  0  0  0  0  0  0  0  0  0  0
   -1.3583    1.8376    1.2384 N   0  0  0  0  0  0  0  0  0  0  0  0
   -2.3450    2.6688    1.8565 C   0  0  0  0  0  0  0  0  0  0  0  0
   -2.0058    3.5073    2.8992 C   0  0  0  0  0  0  0  0  0  0  0  0
   -2.9517    4.2947    3.5094 C   0  0  0  0  0  0  0  0  0  0  0  0
   -4.2500    4.2256    3.0534 C   0  0  0  0  0  0  0  0  0  0  0  0
   -5.4616    5.2109    3.8088 Cl  0  0  0  0  0  0  0  0  0  0  0  0
   -4.6042    3.3777    1.9958 C   0  0  0  0  0  0  0  0  0  0  0  0
   -3.6316    2.5928    1.3953 C   0  0  0  0  0  0  0  0  0  0  0  0
   -3.9310    1.6995    0.2782 C   0  0  0  0  0  0  0  0  0  0  0  0
   -2.9842    1.0843   -0.2508 O   0  0  0  0  0  0  0  0  0  0  0  0
   -5.2202    1.4843   -0.2436 N   0  0  0  0  0  0  0  0  0  0  0  0
   -5.5810    0.6358   -1.3278 C   0  0  0  0  0  0  0  0  0  0  0  0
   -4.7475   -0.0929   -2.0972 C   0  0  0  0  0  0  0  0  0  0  0  0
   -5.2471   -0.8896   -3.1230 C   0  0  0  0  0  0  0  0  0  0  0  0
   -6.6067   -0.9349   -3.3554 C   0  0  0  0  0  0  0  0  0  0  0  0
   -7.2918   -1.9079   -4.6224 Cl  0  0  0  0  0  0  0  0  0  0  0  0
   -7.4548   -0.1866   -2.5640 C   0  0  0  0  0  0  0  0  0  0  0  0
   -6.9167    0.5576   -1.5967 N   0  0  0  0  0  0  0  0  0  0  0  0
    0.7575    0.0223    0.0833 C   0  0  0  0  0  0  0  0  0  0  0  0
    1.7170   -0.8088   -0.4839 C   0  0  0  0  0  0  0  0  0  0  0  0
    5.6358    1.8454   -0.8154 H   0  0  0  0  0  0  0  0  0  0  0  0
    4.2638    0.7758   -0.4382 H   0  0  0  0  0  0  0  0  0  0  0  0
    4.5660    1.3055   -2.1253 H   0  0  0  0  0  0  0  0  0  0  0  0
    6.8346   -1.0293   -3.1620 H   0  0  0  0  0  0  0  0  0  0  0  0
    7.4056    0.6176   -2.7322 H   0  0  0  0  0  0  0  0  0  0  0  0
    5.7699    0.3394   -3.5238 H   0  0  0  0  0  0  0  0  0  0  0  0
    5.9123   -2.1901   -1.7561 H   0  0  0  0  0  0  0  0  0  0  0  0
    4.3631   -1.4082   -2.0943 H   0  0  0  0  0  0  0  0  0  0  0  0
    4.2941   -0.9540    0.5904 H   0  0  0  0  0  0  0  0  0  0  0  0
    5.7584   -1.9491    0.5866 H   0  0  0  0  0  0  0  0  0  0  0  0
    4.8351   -3.4015    1.9924 H   0  0  0  0  0  0  0  0  0  0  0  0
    3.2946   -4.3138    1.5302 H   0  0  0  0  0  0  0  0  0  0  0  0
    3.2799   -2.5227    1.9666 H   0  0  0  0  0  0  0  0  0  0  0  0
    2.4530   -4.0823   -0.5429 H   0  0  0  0  0  0  0  0  0  0  0  0
    3.0032   -2.8390   -1.6636 H   0  0  0  0  0  0  0  0  0  0  0  0
    1.0247   -3.5608    1.3476 H   0  0  0  0  0  0  0  0  0  0  0  0
   -0.6593   -2.0182    2.3060 H   0  0  0  0  0  0  0  0  0  0  0  0
   -0.8142    2.2200    0.4481 H   0  0  0  0  0  0  0  0  0  0  0  0
   -0.9917    3.5491    3.2414 H   0  0  0  0  0  0  0  0  0  0  0  0
   -2.6395    4.9346    4.3195 H   0  0  0  0  0  0  0  0  0  0  0  0
   -5.6279    3.3409    1.6543 H   0  0  0  0  0  0  0  0  0  0  0  0
   -5.9889    2.0282    0.2498 H   0  0  0  0  0  0  0  0  0  0  0  0
   -3.6994   -0.0764   -1.9456 H   0  0  0  0  0  0  0  0  0  0  0  0
   -4.5964   -1.4776   -3.7459 H   0  0  0  0  0  0  0  0  0  0  0  0
   -8.5215   -0.2329   -2.7576 H   0  0  0  0  0  0  0  0  0  0  0  0
    0.6967    1.0356   -0.2898 H   0  0  0  0  0  0  0  0  0  0  0  0
    2.3762   -0.4209   -1.2815 H   0  0  0  0  0  0  0  0  0  0  0  0
  1  2  1  0
  2  3  1  0
  2  4  1  0
  4  5  1  0
  5  6  1  0
  6  7  1  0
  6  8  1  0
  8  9  1  0
  9 10  2  0
 10 11  1  0
 11 12  2  0
 12 13  1  0
 13 14  2  0
 13 15  1  0
 15 16  1  0
 16 17  2  0
 17 18  1  0
 18 19  2  0
 19 20  1  0
 19 21  1  0
 21 22  2  0
 22 23  1  0
 23 24  2  0
 23 25  1  0
 25 26  1  0
 26 27  2  0
 27 28  1  0
 28 29  2  0
 29 30  1  0
 29 31  1  0
 31 32  2  0
 12 33  1  0
 33 34  2  0
 34  9  1  0
 22 16  1  0
 32 26  1  0
  1 35  1  0
  1 36  1  0
  1 37  1  0
  3 38  1  0
  3 39  1  0
  3 40  1  0
  4 41  1  0
  4 42  1  0
  5 43  1  0
  5 44  1  0
  7 45  1  0
  7 46  1  0
  7 47  1  0
  8 48  1  0
  8 49  1  0
 10 50  1  0
 11 51  1  0
 15 52  1  0
 17 53  1  0
 18 54  1  0
 21 55  1  0
 25 56  1  0
 27 57  1  0
 28 58  1  0
 31 59  1  0
 33 60  1  0
 34 61  1  0
M  END
$$$$
