
     RDKit          3D

 67 71  0  0  0  0  0  0  0  0999 V2000
   -0.2443   -1.4537   -2.6643 C   0  0  0  0  0  0  0  0  0  0  0  0
    0.4719   -0.3186   -2.0171 C   0  0  0  0  0  0  0  0  0  0  0  0
   -0.0856    1.0578   -2.2457 C   0  0  0  0  0  0  0  0  0  0  0  0
    0.9678   -0.5752   -0.6464 C   0  0  0  0  0  0  0  0  0  0  0  0
    2.2762   -0.9048   -0.2720 C   0  0  0  0  0  0  0  0  0  0  0  0
    3.3897   -1.1035   -1.1766 C   0  0  0  0  0  0  0  0  0  0  0  0
    3.5104   -1.0525   -2.5062 N   0  0  0  0  0  0  0  0  0  0  0  0
    4.7408   -1.3086   -2.8911 N   0  0  0  0  0  0  0  0  0  0  0  0
    5.4443   -1.5348   -1.7603 C   0  0  0  0  0  0  0  0  0  0  0  0
    6.8386   -1.8562   -1.6696 N   0  0  0  0  0  0  0  0  0  0  0  0
    7.4096   -2.0484   -0.3614 C   0  0  0  0  0  0  0  0  0  0  0  0
    7.2907   -0.7586    0.4165 C   0  0  0  0  0  0  0  0  0  0  0  0
    8.0463    0.3113   -0.3511 C   0  0  0  0  0  0  0  0  0  0  0  0
    7.9881    1.6507    0.3484 C   0  0  0  0  0  0  0  0  0  0  0  0
    8.5554    1.6329    1.6586 N   0  0  0  0  0  0  0  0  0  0  0  0
    4.6201   -1.4069   -0.7606 O   0  0  0  0  0  0  0  0  0  0  0  0
    2.3487   -1.0239    1.0917 C   0  0  0  0  0  0  0  0  0  0  0  0
    1.1287   -0.7802    1.5739 N   0  0  0  0  0  0  0  0  0  0  0  0
    0.7130   -0.7659    2.8381 N   0  0  0  0  0  0  0  0  0  0  0  0
   -0.5584   -0.4871    3.1649 C   0  0  0  0  0  0  0  0  0  0  0  0
   -1.4076   -0.2223    2.1756 N   0  0  0  0  0  0  0  0  0  0  0  0
   -1.0301   -0.2246    0.8459 C   0  0  0  0  0  0  0  0  0  0  0  0
   -2.0299    0.0491   -0.0943 N   0  0  0  0  0  0  0  0  0  0  0  0
   -3.1979    0.7667    0.3467 C   0  0  0  0  0  0  0  0  0  0  0  0
   -4.4484    0.2379    0.2664 C   0  0  0  0  0  0  0  0  0  0  0  0
   -5.6054    0.8833    0.6699 C   0  0  0  0  0  0  0  0  0  0  0  0
   -6.8988    0.2315    0.5231 C   0  0  0  0  0  0  0  0  0  0  0  0
   -6.9005   -1.0274    0.2219 O   0  0  0  0  0  0  0  0  0  0  0  0
   -8.1591    0.8039    0.6675 N   0  0  0  0  0  0  0  0  0  0  0  0
   -9.3899    0.0127    0.4934 C   0  0  0  0  0  0  0  0  0  0  0  0
  -10.6025    0.7097   -0.0297 C   0  0  0  0  0  0  0  0  0  0  0  0
  -10.5142    0.4310    1.4189 C   0  0  0  0  0  0  0  0  0  0  0  0
   -5.4693    2.1352    1.1825 C   0  0  0  0  0  0  0  0  0  0  0  0
   -6.5303    2.8479    1.6171 F   0  0  0  0  0  0  0  0  0  0  0  0
   -4.2001    2.7337    1.2899 C   0  0  0  0  0  0  0  0  0  0  0  0
   -3.0793    2.0435    0.8714 C   0  0  0  0  0  0  0  0  0  0  0  0
   -1.8791    2.6587    0.9944 F   0  0  0  0  0  0  0  0  0  0  0  0
    0.2639   -0.5065    0.5504 C   0  0  0  0  0  0  0  0  0  0  0  0
   -1.0752   -1.1069   -3.3445 H   0  0  0  0  0  0  0  0  0  0  0  0
    0.3821   -2.1054   -3.3068 H   0  0  0  0  0  0  0  0  0  0  0  0
   -0.6592   -2.1188   -1.8605 H   0  0  0  0  0  0  0  0  0  0  0  0
    1.4559   -0.2680   -2.6343 H   0  0  0  0  0  0  0  0  0  0  0  0
   -1.0627    1.0975   -2.7323 H   0  0  0  0  0  0  0  0  0  0  0  0
   -0.0445    1.5942   -1.2539 H   0  0  0  0  0  0  0  0  0  0  0  0
    0.5758    1.7078   -2.8975 H   0  0  0  0  0  0  0  0  0  0  0  0
    7.3822   -1.9371   -2.5624 H   0  0  0  0  0  0  0  0  0  0  0  0
    8.4770   -2.3568   -0.4211 H   0  0  0  0  0  0  0  0  0  0  0  0
    6.8390   -2.8135    0.2301 H   0  0  0  0  0  0  0  0  0  0  0  0
    6.2441   -0.4326    0.5503 H   0  0  0  0  0  0  0  0  0  0  0  0
    7.7169   -0.8904    1.4412 H   0  0  0  0  0  0  0  0  0  0  0  0
    7.5968    0.4184   -1.3577 H   0  0  0  0  0  0  0  0  0  0  0  0
    9.1110    0.0337   -0.4929 H   0  0  0  0  0  0  0  0  0  0  0  0
    8.4767    2.3979   -0.3067 H   0  0  0  0  0  0  0  0  0  0  0  0
    6.9118    1.9582    0.4341 H   0  0  0  0  0  0  0  0  0  0  0  0
    7.8685    1.8242    2.4127 H   0  0  0  0  0  0  0  0  0  0  0  0
    9.1897    0.8513    1.8374 H   0  0  0  0  0  0  0  0  0  0  0  0
    3.2078   -1.2655    1.6895 H   0  0  0  0  0  0  0  0  0  0  0  0
   -0.8882   -0.4766    4.2074 H   0  0  0  0  0  0  0  0  0  0  0  0
   -2.0258   -0.2537   -1.0484 H   0  0  0  0  0  0  0  0  0  0  0  0
   -4.5662   -0.7628   -0.1412 H   0  0  0  0  0  0  0  0  0  0  0  0
   -8.2309    1.8113    0.8949 H   0  0  0  0  0  0  0  0  0  0  0  0
   -9.2318   -1.0535    0.2540 H   0  0  0  0  0  0  0  0  0  0  0  0
  -10.4577    1.7435   -0.4239 H   0  0  0  0  0  0  0  0  0  0  0  0
  -11.3171    0.0916   -0.6079 H   0  0  0  0  0  0  0  0  0  0  0  0
  -10.3507    1.2841    2.1137 H   0  0  0  0  0  0  0  0  0  0  0  0
  -11.1451   -0.3968    1.8430 H   0  0  0  0  0  0  0  0  0  0  0  0
   -4.1536    3.7259    1.7035 H   0  0  0  0  0  0  0  0  0  0  0  0
  1  2  1  0
  2  3  1  0
  2  4  1  0
  4  5  1  0
  5  6  1  0
  6  7  2  0
  7  8  1  0
  8  9  2  0
  9 10  1  0
 10 11  1  0
 11 12  1  0
 12 13  1  0
 13 14  1  0
 14 15  1  0
  9 16  1  0
  5 17  2  0
 17 18  1  0
 18 19  1  0
 19 20  2  0
 20 21  1  0
 21 22  2  0
 22 23  1  0
 23 24  1  0
 24 25  2  0
 25 26  1  0
 26 27  1  0
 27 28  2  0
 27 29  1  0
 29 30  1  0
 30 31  1  0
 31 32  1  0
 26 33  2  0
 33 34  1  0
 33 35  1  0
 35 36  2  0
 36 37  1  0
 22 38  1  0
 38  4  2  0
 16  6  1  0
 38 18  1  0
 36 24  1  0
 32 30  1  0
  1 39  1  0
  1 40  1  0
  1 41  1  0
  2 42  1  0
  3 43  1  0
  3 44  1  0
  3 45  1  0
 10 46  1  0
 11 47  1  0
 11 48  1  0
 12 49  1  0
 12 50  1  0
 13 51  1  0
 13 52  1  0
 14 53  1  0
 14 54  1  0
 15 55  1  0
 15 56  1  0
 17 57  1  0
 20 58  1  0
 23 59  1  0
 25 60  1  0
 29 61  1  0
 30 62  1  0
 31 63  1  0
 31 64  1  0
 32 65  1  0
 32 66  1  0
 35 67  1  0
M  END
$$$$
