
     RDKit          3D

 51 55  0  0  0  0  0  0  0  0999 V2000
   -4.1303   -1.5216   -1.5696 C   0  0  0  0  0  0  0  0  0  0  0  0
   -2.9539   -1.0957   -0.8142 N   0  0  0  0  0  0  0  0  0  0  0  0
   -1.7364   -1.6084   -1.0893 C   0  0  0  0  0  0  0  0  0  0  0  0
   -1.6624   -2.4600   -2.0149 O   0  0  0  0  0  0  0  0  0  0  0  0
   -0.5843   -1.2541   -0.4196 C   0  0  0  0  0  0  0  0  0  0  0  0
   -0.6902   -0.3205    0.5900 C   0  0  0  0  0  0  0  0  0  0  0  0
    0.4119    0.1202    1.3684 N   0  0  0  0  0  0  0  0  0  0  0  0
    1.6992   -0.4364    1.1773 C   0  0  0  0  0  0  0  0  0  0  0  0
    2.6761    0.4621    0.7325 C   0  0  0  0  0  0  0  0  0  0  0  0
    3.9763    0.0611    0.5181 C   0  0  0  0  0  0  0  0  0  0  0  0
    4.9752    1.0091    0.0563 C   0  0  0  0  0  0  0  0  0  0  0  0
    4.6234    2.2129   -0.1445 O   0  0  0  0  0  0  0  0  0  0  0  0
    6.3326    0.7107   -0.1961 N   0  0  0  0  0  0  0  0  0  0  0  0
    7.2803    1.7230   -0.6609 C   0  0  0  0  0  0  0  0  0  0  0  0
    8.6790    1.5968   -0.1184 C   0  0  0  0  0  0  0  0  0  0  0  0
    8.4143    1.2935   -1.5346 C   0  0  0  0  0  0  0  0  0  0  0  0
    4.2566   -1.2624    0.7643 C   0  0  0  0  0  0  0  0  0  0  0  0
    3.3112   -2.1621    1.2023 C   0  0  0  0  0  0  0  0  0  0  0  0
    2.0294   -1.7522    1.4108 C   0  0  0  0  0  0  0  0  0  0  0  0
    0.7672   -2.8205    1.9956 Cl  0  0  0  0  0  0  0  0  0  0  0  0
   -1.9558    0.1929    0.8539 C   0  0  0  0  0  0  0  0  0  0  0  0
   -2.3525    1.1153    1.7802 C   0  0  0  0  0  0  0  0  0  0  0  0
   -3.6739    1.2712    1.6346 N   0  0  0  0  0  0  0  0  0  0  0  0
   -4.1295    0.4826    0.6511 N   0  0  0  0  0  0  0  0  0  0  0  0
   -5.5023    0.4376    0.2710 C   0  0  0  0  0  0  0  0  0  0  0  0
   -5.9818    1.0182   -0.8816 C   0  0  0  0  0  0  0  0  0  0  0  0
   -7.3218    0.9707   -1.2333 C   0  0  0  0  0  0  0  0  0  0  0  0
   -8.2326    0.3259   -0.4198 C   0  0  0  0  0  0  0  0  0  0  0  0
   -9.5452    0.2728   -0.7529 F   0  0  0  0  0  0  0  0  0  0  0  0
   -7.7785   -0.2655    0.7431 C   0  0  0  0  0  0  0  0  0  0  0  0
   -6.4353   -0.2104    1.0828 C   0  0  0  0  0  0  0  0  0  0  0  0
   -3.0787   -0.1894    0.1598 C   0  0  0  0  0  0  0  0  0  0  0  0
   -4.3016   -0.7914   -2.3665 H   0  0  0  0  0  0  0  0  0  0  0  0
   -3.8811   -2.5105   -2.0162 H   0  0  0  0  0  0  0  0  0  0  0  0
   -4.9946   -1.7025   -0.9104 H   0  0  0  0  0  0  0  0  0  0  0  0
    0.3830   -1.6756   -0.6722 H   0  0  0  0  0  0  0  0  0  0  0  0
    0.2848    0.8555    2.0858 H   0  0  0  0  0  0  0  0  0  0  0  0
    2.4411    1.4970    0.5437 H   0  0  0  0  0  0  0  0  0  0  0  0
    6.6582   -0.2648   -0.0430 H   0  0  0  0  0  0  0  0  0  0  0  0
    6.9196    2.7465   -0.8170 H   0  0  0  0  0  0  0  0  0  0  0  0
    9.2326    2.5392    0.0969 H   0  0  0  0  0  0  0  0  0  0  0  0
    8.8918    0.7916    0.6151 H   0  0  0  0  0  0  0  0  0  0  0  0
    8.7660    2.0116   -2.3265 H   0  0  0  0  0  0  0  0  0  0  0  0
    8.3412    0.2505   -1.9162 H   0  0  0  0  0  0  0  0  0  0  0  0
    5.2864   -1.6005    0.5989 H   0  0  0  0  0  0  0  0  0  0  0  0
    3.5779   -3.1805    1.3797 H   0  0  0  0  0  0  0  0  0  0  0  0
   -1.6845    1.6116    2.4908 H   0  0  0  0  0  0  0  0  0  0  0  0
   -5.2720    1.5232   -1.5199 H   0  0  0  0  0  0  0  0  0  0  0  0
   -7.7087    1.4233   -2.1359 H   0  0  0  0  0  0  0  0  0  0  0  0
   -8.5229   -0.7602    1.3524 H   0  0  0  0  0  0  0  0  0  0  0  0
   -6.1045   -0.6812    1.9986 H   0  0  0  0  0  0  0  0  0  0  0  0
  1  2  1  0
  2  3  1  0
  3  4  2  0
  3  5  1  0
  5  6  2  0
  6  7  1  0
  7  8  1  0
  8  9  2  0
  9 10  1  0
 10 11  1  0
 11 12  2  0
 11 13  1  0
 13 14  1  0
 14 15  1  0
 15 16  1  0
 10 17  2  0
 17 18  1  0
 18 19  2  0
 19 20  1  0
  6 21  1  0
 21 22  1  0
 22 23  2  0
 23 24  1  0
 24 25  1  0
 25 26  2  0
 26 27  1  0
 27 28  2  0
 28 29  1  0
 28 30  1  0
 30 31  2  0
 24 32  1  0
 32  2  1  0
 19  8  1  0
 32 21  2  0
 16 14  1  0
 31 25  1  0
  1 33  1  0
  1 34  1  0
  1 35  1  0
  5 36  1  0
  7 37  1  0
  9 38  1  0
 13 39  1  0
 14 40  1  0
 15 41  1  0
 15 42  1  0
 16 43  1  0
 16 44  1  0
 17 45  1  0
 18 46  1  0
 22 47  1  0
 26 48  1  0
 27 49  1  0
 30 50  1  0
 31 51  1  0
M  END
$$$$
