
     RDKit          3D

 62 64  0  0  0  0  0  0  0  0999 V2000
   -9.1313    2.5378   -0.3159 C   0  0  0  0  0  0  0  0  0  0  0  0
   -8.0812    2.0824   -1.1392 O   0  0  0  0  0  0  0  0  0  0  0  0
   -7.2077    1.1197   -0.6429 C   0  0  0  0  0  0  0  0  0  0  0  0
   -7.3960    0.6483    0.6236 C   0  0  0  0  0  0  0  0  0  0  0  0
   -6.5459   -0.2994    1.1282 C   0  0  0  0  0  0  0  0  0  0  0  0
   -5.4961   -0.7760    0.3471 C   0  0  0  0  0  0  0  0  0  0  0  0
   -4.6263   -1.7789    0.9301 C   0  0  0  0  0  0  0  0  0  0  0  0
   -4.8006   -2.1432    2.1427 O   0  0  0  0  0  0  0  0  0  0  0  0
   -3.5873   -2.3657    0.1865 N   0  0  0  0  0  0  0  0  0  0  0  0
   -2.7276   -3.3555    0.7735 C   0  0  0  0  0  0  0  0  0  0  0  0
   -1.6859   -2.7525    1.6388 C   0  0  0  0  0  0  0  0  0  0  0  0
   -1.8167   -2.6185    3.0008 C   0  0  0  0  0  0  0  0  0  0  0  0
   -0.7946   -2.0316    3.7148 C   0  0  0  0  0  0  0  0  0  0  0  0
    0.3729   -1.5663    3.1078 C   0  0  0  0  0  0  0  0  0  0  0  0
    0.5182   -1.6953    1.7364 C   0  0  0  0  0  0  0  0  0  0  0  0
    1.7084   -1.2344    1.0332 C   0  0  0  0  0  0  0  0  0  0  0  0
    1.7605   -1.3838   -0.2119 O   0  0  0  0  0  0  0  0  0  0  0  0
    2.7963   -0.6292    1.7081 N   0  0  0  0  0  0  0  0  0  0  0  0
    3.9343   -0.2034    0.9325 C   0  0  0  0  0  0  0  0  0  0  0  0
    4.9933   -1.0558    0.7051 C   0  0  0  0  0  0  0  0  0  0  0  0
    6.0920   -0.6713   -0.0367 C   0  0  0  0  0  0  0  0  0  0  0  0
    6.1772    0.5915   -0.5857 C   0  0  0  0  0  0  0  0  0  0  0  0
    7.3497    1.0304   -1.3900 C   0  0  0  0  0  0  0  0  0  0  0  0
    8.3777    1.6251   -0.5984 N   0  0  0  0  0  0  0  0  0  0  0  0
    7.8960    2.7940    0.0992 C   0  0  0  0  0  0  0  0  0  0  0  0
    9.4433    2.0374   -1.4954 C   0  0  0  0  0  0  0  0  0  0  0  0
    5.1199    1.4474   -0.3607 C   0  0  0  0  0  0  0  0  0  0  0  0
    4.0095    1.0598    0.3885 C   0  0  0  0  0  0  0  0  0  0  0  0
   -0.5182   -2.2861    1.0405 C   0  0  0  0  0  0  0  0  0  0  0  0
   -5.2929   -0.3146   -0.9236 C   0  0  0  0  0  0  0  0  0  0  0  0
   -6.1561    0.6428   -1.4258 C   0  0  0  0  0  0  0  0  0  0  0  0
   -6.0433    1.1700   -2.6782 O   0  0  0  0  0  0  0  0  0  0  0  0
   -5.0915    0.8767   -3.6595 C   0  0  0  0  0  0  0  0  0  0  0  0
   -9.7636    3.2705   -0.8602 H   0  0  0  0  0  0  0  0  0  0  0  0
   -8.6528    3.0380    0.5578 H   0  0  0  0  0  0  0  0  0  0  0  0
   -9.7640    1.6905    0.0648 H   0  0  0  0  0  0  0  0  0  0  0  0
   -8.2199    1.0207    1.2410 H   0  0  0  0  0  0  0  0  0  0  0  0
   -6.6898   -0.6755    2.1289 H   0  0  0  0  0  0  0  0  0  0  0  0
   -3.3893   -2.1133   -0.8275 H   0  0  0  0  0  0  0  0  0  0  0  0
   -3.3615   -4.0330    1.4176 H   0  0  0  0  0  0  0  0  0  0  0  0
   -2.2472   -4.0056   -0.0015 H   0  0  0  0  0  0  0  0  0  0  0  0
   -2.6796   -2.9599    3.5482 H   0  0  0  0  0  0  0  0  0  0  0  0
   -0.8740   -1.9147    4.7894 H   0  0  0  0  0  0  0  0  0  0  0  0
    1.1595   -1.1089    3.6965 H   0  0  0  0  0  0  0  0  0  0  0  0
    2.8105   -0.4794    2.7341 H   0  0  0  0  0  0  0  0  0  0  0  0
    4.9350   -2.0573    1.1358 H   0  0  0  0  0  0  0  0  0  0  0  0
    6.9329   -1.3381   -0.2208 H   0  0  0  0  0  0  0  0  0  0  0  0
    7.7775    0.1896   -1.9818 H   0  0  0  0  0  0  0  0  0  0  0  0
    6.9625    1.7720   -2.1206 H   0  0  0  0  0  0  0  0  0  0  0  0
    7.1426    2.4708    0.8305 H   0  0  0  0  0  0  0  0  0  0  0  0
    7.3839    3.4394   -0.6613 H   0  0  0  0  0  0  0  0  0  0  0  0
    8.7265    3.3614    0.5771 H   0  0  0  0  0  0  0  0  0  0  0  0
   10.1064    1.1513   -1.6941 H   0  0  0  0  0  0  0  0  0  0  0  0
    9.0536    2.3321   -2.4957 H   0  0  0  0  0  0  0  0  0  0  0  0
   10.0694    2.8114   -1.0151 H   0  0  0  0  0  0  0  0  0  0  0  0
    5.1636    2.4300   -0.7765 H   0  0  0  0  0  0  0  0  0  0  0  0
    3.1761    1.7244    0.5695 H   0  0  0  0  0  0  0  0  0  0  0  0
   -0.4026   -2.3872   -0.0388 H   0  0  0  0  0  0  0  0  0  0  0  0
   -4.4893   -0.6536   -1.5661 H   0  0  0  0  0  0  0  0  0  0  0  0
   -5.5651    0.7045   -4.6608 H   0  0  0  0  0  0  0  0  0  0  0  0
   -4.4257    0.0416   -3.4601 H   0  0  0  0  0  0  0  0  0  0  0  0
   -4.4256    1.7765   -3.8076 H   0  0  0  0  0  0  0  0  0  0  0  0
  1  2  1  0
  2  3  1  0
  3  4  2  0
  4  5  1  0
  5  6  2  0
  6  7  1  0
  7  8  2  0
  7  9  1  0
  9 10  1  0
 10 11  1  0
 11 12  2  0
 12 13  1  0
 13 14  2  0
 14 15  1  0
 15 16  1  0
 16 17  2  0
 16 18  1  0
 18 19  1  0
 19 20  2  0
 20 21  1  0
 21 22  2  0
 22 23  1  0
 23 24  1  0
 24 25  1  0
 24 26  1  0
 22 27  1  0
 27 28  2  0
 15 29  2  0
  6 30  1  0
 30 31  2  0
 31 32  1  0
 32 33  1  0
 31  3  1  0
 29 11  1  0
 28 19  1  0
  1 34  1  0
  1 35  1  0
  1 36  1  0
  4 37  1  0
  5 38  1  0
  9 39  1  0
 10 40  1  0
 10 41  1  0
 12 42  1  0
 13 43  1  0
 14 44  1  0
 18 45  1  0
 20 46  1  0
 21 47  1  0
 23 48  1  0
 23 49  1  0
 25 50  1  0
 25 51  1  0
 25 52  1  0
 26 53  1  0
 26 54  1  0
 26 55  1  0
 27 56  1  0
 28 57  1  0
 29 58  1  0
 30 59  1  0
 33 60  1  0
 33 61  1  0
 33 62  1  0
M  END
$$$$
