
     RDKit          3D

 53 55  0  0  0  0  0  0  0  0999 V2000
    5.8471    3.8643    0.3367 C   0  0  0  0  0  0  0  0  0  0  0  0
    5.0100    2.6167    0.4728 C   0  0  0  0  0  0  0  0  0  0  0  0
    5.0665    1.8818   -0.8565 C   0  0  0  0  0  0  0  0  0  0  0  0
    4.2603    0.6252   -0.8149 C   0  0  0  0  0  0  0  0  0  0  0  0
    2.8775    0.8711   -0.5309 N   0  0  0  0  0  0  0  0  0  0  0  0
    1.9438   -0.2207   -0.4504 C   0  0  0  0  0  0  0  0  0  0  0  0
    2.3818   -1.4616   -0.6425 N   0  0  0  0  0  0  0  0  0  0  0  0
    1.5656   -2.4964   -0.5769 C   0  0  0  0  0  0  0  0  0  0  0  0
    0.1896   -2.3052   -0.2971 C   0  0  0  0  0  0  0  0  0  0  0  0
   -0.5771   -3.5207   -0.0984 C   0  0  0  0  0  0  0  0  0  0  0  0
   -1.8102   -3.7811    0.4135 C   0  0  0  0  0  0  0  0  0  0  0  0
   -2.0461   -5.1450    0.4631 N   0  0  0  0  0  0  0  0  0  0  0  0
   -3.2556   -5.7844    0.9492 C   0  0  0  0  0  0  0  0  0  0  0  0
   -0.9462   -5.7210   -0.0213 C   0  0  0  0  0  0  0  0  0  0  0  0
   -0.0756   -4.7708   -0.3540 N   0  0  0  0  0  0  0  0  0  0  0  0
   -0.2667   -1.0348   -0.1043 C   0  0  0  0  0  0  0  0  0  0  0  0
   -1.6367   -0.7266    0.0404 N   0  0  0  0  0  0  0  0  0  0  0  0
   -2.0643    0.6309    0.3754 C   0  0  1  0  0  0  0  0  0  0  0  0
   -1.6354    1.6237   -0.6535 C   0  0  0  0  0  0  0  0  0  0  0  0
   -2.7890    2.4607   -1.1669 C   0  0  0  0  0  0  0  0  0  0  0  0
   -3.6030    3.0584   -0.0284 C   0  0  2  0  0  0  0  0  0  0  0  0
   -2.9566    4.0982    0.5990 O   0  0  0  0  0  0  0  0  0  0  0  0
   -4.0391    2.0032    0.9530 C   0  0  0  0  0  0  0  0  0  0  0  0
   -3.5634    0.6389    0.4971 C   0  0  0  0  0  0  0  0  0  0  0  0
    0.6500   -0.0201   -0.1883 N   0  0  0  0  0  0  0  0  0  0  0  0
    5.7913    4.1865   -0.7214 H   0  0  0  0  0  0  0  0  0  0  0  0
    6.9114    3.5946    0.5800 H   0  0  0  0  0  0  0  0  0  0  0  0
    5.4883    4.6902    0.9777 H   0  0  0  0  0  0  0  0  0  0  0  0
    3.9792    2.9362    0.6974 H   0  0  0  0  0  0  0  0  0  0  0  0
    5.4122    1.9232    1.2403 H   0  0  0  0  0  0  0  0  0  0  0  0
    6.1349    1.6043   -1.0175 H   0  0  0  0  0  0  0  0  0  0  0  0
    4.7067    2.5605   -1.6475 H   0  0  0  0  0  0  0  0  0  0  0  0
    4.3249    0.1525   -1.8257 H   0  0  0  0  0  0  0  0  0  0  0  0
    4.7259   -0.0742   -0.0798 H   0  0  0  0  0  0  0  0  0  0  0  0
    2.5089    1.8316   -0.3759 H   0  0  0  0  0  0  0  0  0  0  0  0
    1.9798   -3.4786   -0.7427 H   0  0  0  0  0  0  0  0  0  0  0  0
   -2.5561   -3.1250    0.7871 H   0  0  0  0  0  0  0  0  0  0  0  0
   -3.4767   -6.7107    0.3614 H   0  0  0  0  0  0  0  0  0  0  0  0
   -3.1034   -6.0713    2.0156 H   0  0  0  0  0  0  0  0  0  0  0  0
   -4.0873   -5.0420    0.8835 H   0  0  0  0  0  0  0  0  0  0  0  0
   -0.7949   -6.7775   -0.1231 H   0  0  0  0  0  0  0  0  0  0  0  0
   -2.3792   -1.3961   -0.1264 H   0  0  0  0  0  0  0  0  0  0  0  0
   -1.6651    0.9419    1.3650 H   0  0  0  0  0  0  0  0  0  0  0  0
   -0.8974    2.3385   -0.2293 H   0  0  0  0  0  0  0  0  0  0  0  0
   -1.1569    1.1675   -1.5347 H   0  0  0  0  0  0  0  0  0  0  0  0
   -2.4048    3.3231   -1.7492 H   0  0  0  0  0  0  0  0  0  0  0  0
   -3.4596    1.8831   -1.8133 H   0  0  0  0  0  0  0  0  0  0  0  0
   -4.5293    3.4699   -0.5095 H   0  0  0  0  0  0  0  0  0  0  0  0
   -3.3499    4.2324    1.4966 H   0  0  0  0  0  0  0  0  0  0  0  0
   -5.1480    1.9407    1.0547 H   0  0  0  0  0  0  0  0  0  0  0  0
   -3.6408    2.2233    1.9639 H   0  0  0  0  0  0  0  0  0  0  0  0
   -3.9866    0.4152   -0.4994 H   0  0  0  0  0  0  0  0  0  0  0  0
   -3.8541   -0.1246    1.2563 H   0  0  0  0  0  0  0  0  0  0  0  0
  1  2  1  0
  2  3  1  0
  3  4  1  0
  4  5  1  0
  5  6  1  0
  6  7  2  0
  7  8  1  0
  8  9  2  0
  9 10  1  0
 10 11  2  0
 11 12  1  0
 12 13  1  0
 12 14  1  0
 14 15  2  0
  9 16  1  0
 16 17  1  0
 17 18  1  0
 18 19  1  0
 19 20  1  0
 20 21  1  0
 21 22  1  0
 21 23  1  0
 23 24  1  0
 16 25  2  0
 25  6  1  0
 15 10  1  0
 24 18  1  0
  1 26  1  0
  1 27  1  0
  1 28  1  0
  2 29  1  0
  2 30  1  0
  3 31  1  0
  3 32  1  0
  4 33  1  0
  4 34  1  0
  5 35  1  0
  8 36  1  0
 11 37  1  0
 13 38  1  0
 13 39  1  0
 13 40  1  0
 14 41  1  0
 17 42  1  0
 18 43  1  1
 19 44  1  0
 19 45  1  0
 20 46  1  0
 20 47  1  0
 21 48  1  6
 22 49  1  0
 23 50  1  0
 23 51  1  0
 24 52  1  0
 24 53  1  0
M  END
$$$$
