
     RDKit          3D

 37 40  0  0  0  0  0  0  0  0999 V2000
   -1.2036   -0.7987    0.0977 C   0  0  1  0  0  0  0  0  0  0  0  0
   -0.1571   -1.7503   -0.3587 C   0  0  0  0  0  0  0  0  0  0  0  0
    1.1189   -1.1558   -0.7726 C   0  0  0  0  0  0  0  0  0  0  0  0
    1.4593    0.1746   -0.7767 C   0  0  0  0  0  0  0  0  0  0  0  0
    2.6931    0.6029   -1.1880 C   0  0  0  0  0  0  0  0  0  0  0  0
    3.1366    1.9048   -1.2322 O   0  0  0  0  0  0  0  0  0  0  0  0
    3.6585   -0.2841   -1.6200 C   0  0  0  0  0  0  0  0  0  0  0  0
    4.9414    0.0311   -2.0594 O   0  0  0  0  0  0  0  0  0  0  0  0
    3.3068   -1.6403   -1.6142 C   0  0  0  0  0  0  0  0  0  0  0  0
    2.0626   -2.0750   -1.1997 C   0  0  0  0  0  0  0  0  0  0  0  0
    0.4688    1.1310   -0.3315 C   0  0  0  0  0  0  0  0  0  0  0  0
    0.6950    2.4784   -0.2906 C   0  0  0  0  0  0  0  0  0  0  0  0
   -0.2446    3.3902    0.1341 C   0  0  0  0  0  0  0  0  0  0  0  0
   -1.4675    2.8483    0.5288 C   0  0  0  0  0  0  0  0  0  0  0  0
   -1.7143    1.4900    0.4944 C   0  0  0  0  0  0  0  0  0  0  0  0
   -3.0464    0.9341    0.9276 C   0  0  0  0  0  0  0  0  0  0  0  0
   -2.7427   -0.2139    1.8561 C   0  0  0  0  0  0  0  0  0  0  0  0
   -1.7522   -1.1133    1.3940 N   0  0  0  0  0  0  0  0  0  0  0  0
   -2.1312   -2.4937    1.5127 C   0  0  0  0  0  0  0  0  0  0  0  0
   -0.7332    0.5887    0.0556 C   0  0  0  0  0  0  0  0  0  0  0  0
   -2.0726   -0.8482   -0.6139 H   0  0  0  0  0  0  0  0  0  0  0  0
    0.0907   -2.4930    0.4370 H   0  0  0  0  0  0  0  0  0  0  0  0
   -0.5915   -2.3767   -1.1921 H   0  0  0  0  0  0  0  0  0  0  0  0
    3.8860    2.1554   -0.5981 H   0  0  0  0  0  0  0  0  0  0  0  0
    5.3068    0.9725   -1.9901 H   0  0  0  0  0  0  0  0  0  0  0  0
    4.0400   -2.3699   -1.9474 H   0  0  0  0  0  0  0  0  0  0  0  0
    1.8854   -3.1505   -1.2321 H   0  0  0  0  0  0  0  0  0  0  0  0
    1.6002    2.9549   -0.5758 H   0  0  0  0  0  0  0  0  0  0  0  0
   -0.1286    4.4543    0.1891 H   0  0  0  0  0  0  0  0  0  0  0  0
   -2.2404    3.5409    0.8730 H   0  0  0  0  0  0  0  0  0  0  0  0
   -3.5363    1.7168    1.5478 H   0  0  0  0  0  0  0  0  0  0  0  0
   -3.6651    0.6248    0.0857 H   0  0  0  0  0  0  0  0  0  0  0  0
   -2.5026    0.1521    2.8806 H   0  0  0  0  0  0  0  0  0  0  0  0
   -3.7041   -0.7866    1.9872 H   0  0  0  0  0  0  0  0  0  0  0  0
   -1.6101   -2.9856    2.3531 H   0  0  0  0  0  0  0  0  0  0  0  0
   -1.8686   -3.0405    0.5906 H   0  0  0  0  0  0  0  0  0  0  0  0
   -3.2374   -2.5697    1.6480 H   0  0  0  0  0  0  0  0  0  0  0  0
  1  2  1  0
  2  3  1  0
  3  4  2  0
  4  5  1  0
  5  6  1  0
  5  7  2  0
  7  8  1  0
  7  9  1  0
  9 10  2  0
  4 11  1  0
 11 12  2  0
 12 13  1  0
 13 14  2  0
 14 15  1  0
 15 16  1  0
 16 17  1  0
 17 18  1  0
 18 19  1  0
 15 20  2  0
 18  1  1  0
 20  1  1  0
 10  3  1  0
 20 11  1  0
  1 21  1  6
  2 22  1  0
  2 23  1  0
  6 24  1  0
  8 25  1  0
  9 26  1  0
 10 27  1  0
 12 28  1  0
 13 29  1  0
 14 30  1  0
 16 31  1  0
 16 32  1  0
 17 33  1  0
 17 34  1  0
 19 35  1  0
 19 36  1  0
 19 37  1  0
M  END
$$$$
