
     RDKit          3D

 56 61  0  0  0  0  0  0  0  0999 V2000
   -0.9204    1.0732    3.3346 N   0  0  0  0  0  0  0  0  0  0  0  0
   -0.9507    0.2916    2.1250 C   0  0  0  0  0  0  0  0  0  0  0  0
   -0.7123    0.8196    1.0035 N   0  0  0  0  0  0  0  0  0  0  0  0
   -0.7136    0.1358   -0.2799 C   0  0  0  0  0  0  0  0  0  0  0  0
   -0.6664   -1.3889   -0.1236 C   0  0  0  0  0  0  0  0  0  0  0  0
   -1.2787   -1.9143    1.1175 C   0  0  0  0  0  0  0  0  0  0  0  0
   -1.2473   -1.0510    2.2215 O   0  0  0  0  0  0  0  0  0  0  0  0
    0.5188    0.4725   -1.0255 C   0  0  0  0  0  0  0  0  0  0  0  0
    1.7699    0.2530   -0.4073 C   0  0  0  0  0  0  0  0  0  0  0  0
    2.9540    0.5295   -1.0312 C   0  0  0  0  0  0  0  0  0  0  0  0
    4.2455    0.3361   -0.4907 N   0  0  0  0  0  0  0  0  0  0  0  0
    4.5578   -0.1982    0.7797 C   0  0  0  0  0  0  0  0  0  0  0  0
    3.6657   -0.5540    1.5479 O   0  0  0  0  0  0  0  0  0  0  0  0
    5.9633   -0.3448    1.2208 C   0  0  0  0  0  0  0  0  0  0  0  0
    6.2744   -0.8713    2.4581 C   0  0  0  0  0  0  0  0  0  0  0  0
    7.5864   -1.0141    2.8802 C   0  0  0  0  0  0  0  0  0  0  0  0
    8.6252   -0.6272    2.0609 C   0  0  0  0  0  0  0  0  0  0  0  0
    9.9316   -0.7336    2.3994 F   0  0  0  0  0  0  0  0  0  0  0  0
    8.2746   -0.0988    0.8167 C   0  0  0  0  0  0  0  0  0  0  0  0
    6.9831    0.0269    0.4351 N   0  0  0  0  0  0  0  0  0  0  0  0
    2.8766    1.0390   -2.3071 C   0  0  0  0  0  0  0  0  0  0  0  0
    1.6957    1.2733   -2.9583 C   0  0  0  0  0  0  0  0  0  0  0  0
    0.5118    0.9728   -2.2740 C   0  0  0  0  0  0  0  0  0  0  0  0
   -0.6714    1.2187   -2.9499 O   0  0  0  0  0  0  0  0  0  0  0  0
   -1.8926    0.9362   -2.3074 C   0  0  0  0  0  0  0  0  0  0  0  0
   -3.0860    1.1892   -2.9943 C   0  0  0  0  0  0  0  0  0  0  0  0
   -2.9533    1.6951   -4.2531 F   0  0  0  0  0  0  0  0  0  0  0  0
   -4.3228    0.9491   -2.4508 C   0  0  0  0  0  0  0  0  0  0  0  0
   -4.3527    0.4372   -1.1722 C   0  0  0  0  0  0  0  0  0  0  0  0
   -5.6348    0.1536   -0.5199 C   0  0  0  0  0  0  0  0  0  0  0  0
   -6.7179    0.9345   -0.8165 C   0  0  0  0  0  0  0  0  0  0  0  0
   -7.9211    0.6464   -0.1890 C   0  0  0  0  0  0  0  0  0  0  0  0
   -7.9785   -0.3796    0.6793 N   0  0  0  0  0  0  0  0  0  0  0  0
   -6.9168   -1.1495    0.9738 C   0  0  0  0  0  0  0  0  0  0  0  0
   -6.9802   -2.1765    1.8438 F   0  0  0  0  0  0  0  0  0  0  0  0
   -5.6976   -0.8877    0.3629 C   0  0  0  0  0  0  0  0  0  0  0  0
   -3.1916    0.1845   -0.4883 C   0  0  0  0  0  0  0  0  0  0  0  0
   -1.9309    0.4294   -1.0437 C   0  0  0  0  0  0  0  0  0  0  0  0
   -1.7451    1.6893    3.5475 H   0  0  0  0  0  0  0  0  0  0  0  0
   -0.1001    1.0190    3.9684 H   0  0  0  0  0  0  0  0  0  0  0  0
    0.3925   -1.7636   -0.2523 H   0  0  0  0  0  0  0  0  0  0  0  0
   -1.2217   -1.8304   -0.9928 H   0  0  0  0  0  0  0  0  0  0  0  0
   -0.6597   -2.8151    1.4343 H   0  0  0  0  0  0  0  0  0  0  0  0
   -2.3057   -2.3598    0.9706 H   0  0  0  0  0  0  0  0  0  0  0  0
    1.7454   -0.1451    0.5881 H   0  0  0  0  0  0  0  0  0  0  0  0
    5.1043    0.6101   -1.0711 H   0  0  0  0  0  0  0  0  0  0  0  0
    5.4569   -1.1759    3.1027 H   0  0  0  0  0  0  0  0  0  0  0  0
    7.8475   -1.4244    3.8452 H   0  0  0  0  0  0  0  0  0  0  0  0
    9.0985    0.2007    0.1837 H   0  0  0  0  0  0  0  0  0  0  0  0
    3.7782    1.2754   -2.8480 H   0  0  0  0  0  0  0  0  0  0  0  0
    1.6668    1.6761   -3.9655 H   0  0  0  0  0  0  0  0  0  0  0  0
   -5.1982    1.1603   -3.0195 H   0  0  0  0  0  0  0  0  0  0  0  0
   -6.7166    1.7638   -1.5036 H   0  0  0  0  0  0  0  0  0  0  0  0
   -8.8199    1.2280   -0.3800 H   0  0  0  0  0  0  0  0  0  0  0  0
   -4.8192   -1.5030    0.5882 H   0  0  0  0  0  0  0  0  0  0  0  0
   -3.2000   -0.2127    0.5199 H   0  0  0  0  0  0  0  0  0  0  0  0
  1  2  1  0
  2  3  2  0
  3  4  1  0
  4  5  1  0
  5  6  1  0
  6  7  1  0
  4  8  1  0
  8  9  2  0
  9 10  1  0
 10 11  1  0
 11 12  1  0
 12 13  2  0
 12 14  1  0
 14 15  2  0
 15 16  1  0
 16 17  2  0
 17 18  1  0
 17 19  1  0
 19 20  2  0
 10 21  2  0
 21 22  1  0
 22 23  2  0
 23 24  1  0
 24 25  1  0
 25 26  2  0
 26 27  1  0
 26 28  1  0
 28 29  2  0
 29 30  1  0
 30 31  2  0
 31 32  1  0
 32 33  2  0
 33 34  1  0
 34 35  1  0
 34 36  2  0
 29 37  1  0
 37 38  2  0
  7  2  1  0
 23  8  1  0
 38 25  1  0
 38  4  1  0
 20 14  1  0
 36 30  1  0
  1 39  1  0
  1 40  1  0
  5 41  1  0
  5 42  1  0
  6 43  1  0
  6 44  1  0
  9 45  1  0
 11 46  1  0
 15 47  1  0
 16 48  1  0
 19 49  1  0
 21 50  1  0
 22 51  1  0
 28 52  1  0
 31 53  1  0
 32 54  1  0
 36 55  1  0
 37 56  1  0
M  END
$$$$
