
     RDKit          3D

 82 86  0  0  0  0  0  0  0  0999 V2000
    0.3824   -5.6823   -0.2603 C   0  0  0  0  0  0  0  0  0  0  0  0
   -0.3010   -4.5034   -0.5963 O   0  0  0  0  0  0  0  0  0  0  0  0
    0.1432   -3.2249   -0.3644 C   0  0  0  0  0  0  0  0  0  0  0  0
    1.3529   -2.9564    0.2474 C   0  0  0  0  0  0  0  0  0  0  0  0
    1.7570   -1.6431    0.4578 C   0  0  0  0  0  0  0  0  0  0  0  0
    3.0191   -1.4097    1.0766 N   0  0  0  0  0  0  0  0  0  0  0  0
    4.1352   -2.3631    0.9741 C   0  0  0  0  0  0  0  0  0  0  0  0
    5.2380   -1.5976    0.2597 C   0  0  0  0  0  0  0  0  0  0  0  0
    5.6680   -0.3902    1.0554 C   0  0  0  0  0  0  0  0  0  0  0  0
    6.6242    0.3581    0.3595 N   0  0  0  0  0  0  0  0  0  0  0  0
    6.2909    0.9851   -0.8323 C   0  0  0  0  0  0  0  0  0  0  0  0
    7.3605    1.1564   -1.8580 C   0  0  0  0  0  0  0  0  0  0  0  0
    8.6117    1.5058   -1.2278 N   0  0  0  0  0  0  0  0  0  0  0  0
    8.5242    2.8299   -0.6410 C   0  0  0  0  0  0  0  0  0  0  0  0
    9.0173    0.5137   -0.2478 C   0  0  0  0  0  0  0  0  0  0  0  0
    7.9615    0.3165    0.8121 C   0  0  0  0  0  0  0  0  0  0  0  0
    4.4843    0.5075    1.3721 C   0  0  0  0  0  0  0  0  0  0  0  0
    3.3046   -0.2327    1.8803 C   0  0  0  0  0  0  0  0  0  0  0  0
    0.9598   -0.5949    0.0611 C   0  0  0  0  0  0  0  0  0  0  0  0
   -0.2649   -0.8505   -0.5580 C   0  0  0  0  0  0  0  0  0  0  0  0
   -0.6324   -2.1618   -0.7496 C   0  0  0  0  0  0  0  0  0  0  0  0
   -1.8870   -2.4142   -1.3631 N   0  0  0  0  0  0  0  0  0  0  0  0
   -2.7363   -1.3808   -1.8359 C   0  0  0  0  0  0  0  0  0  0  0  0
   -2.7101   -1.0856   -3.1529 N   0  0  0  0  0  0  0  0  0  0  0  0
   -3.4867   -0.1062   -3.6724 C   0  0  0  0  0  0  0  0  0  0  0  0
   -4.3254    0.6120   -2.8545 C   0  0  0  0  0  0  0  0  0  0  0  0
   -5.3217    1.8692   -3.5402 Cl  0  0  0  0  0  0  0  0  0  0  0  0
   -4.3606    0.3120   -1.4767 C   0  0  0  0  0  0  0  0  0  0  0  0
   -5.2223    1.0595   -0.6641 N   0  0  0  0  0  0  0  0  0  0  0  0
   -5.3771    0.9818    0.7424 C   0  0  0  0  0  0  0  0  0  0  0  0
   -4.6312    0.1533    1.5490 C   0  0  0  0  0  0  0  0  0  0  0  0
   -4.7729    0.1097    2.9430 C   0  0  0  0  0  0  0  0  0  0  0  0
   -5.6866    0.9146    3.5726 C   0  0  0  0  0  0  0  0  0  0  0  0
   -6.4333    1.7413    2.7753 C   0  0  0  0  0  0  0  0  0  0  0  0
   -6.3134    1.8036    1.3899 C   0  0  0  0  0  0  0  0  0  0  0  0
   -7.3529    2.8316    0.4686 S   0  0  0  0  0  6  0  0  0  0  0  0
   -6.5815    3.8098   -0.3963 O   0  0  0  0  0  0  0  0  0  0  0  0
   -8.1512    3.6889    1.4240 O   0  0  0  0  0  0  0  0  0  0  0  0
   -8.4916    1.8975   -0.4796 C   0  0  0  0  0  0  0  0  0  0  0  0
   -9.3919    1.0376    0.4110 C   0  0  0  0  0  0  0  0  0  0  0  0
   -9.4606    2.8082   -1.2466 C   0  0  0  0  0  0  0  0  0  0  0  0
   -3.5605   -0.6680   -1.0598 N   0  0  0  0  0  0  0  0  0  0  0  0
    1.1708   -5.8588   -1.0473 H   0  0  0  0  0  0  0  0  0  0  0  0
    0.8396   -5.6662    0.7481 H   0  0  0  0  0  0  0  0  0  0  0  0
   -0.3057   -6.5500   -0.3060 H   0  0  0  0  0  0  0  0  0  0  0  0
    1.9835   -3.7701    0.5713 H   0  0  0  0  0  0  0  0  0  0  0  0
    3.8290   -3.1608    0.2862 H   0  0  0  0  0  0  0  0  0  0  0  0
    4.4042   -2.6748    1.9849 H   0  0  0  0  0  0  0  0  0  0  0  0
    4.8663   -1.3877   -0.7404 H   0  0  0  0  0  0  0  0  0  0  0  0
    6.1052   -2.2839    0.1844 H   0  0  0  0  0  0  0  0  0  0  0  0
    6.0946   -0.7506    2.0080 H   0  0  0  0  0  0  0  0  0  0  0  0
    5.8324    1.9955   -0.5890 H   0  0  0  0  0  0  0  0  0  0  0  0
    5.4323    0.4506   -1.3325 H   0  0  0  0  0  0  0  0  0  0  0  0
    7.0738    2.0404   -2.4812 H   0  0  0  0  0  0  0  0  0  0  0  0
    7.4815    0.2520   -2.4907 H   0  0  0  0  0  0  0  0  0  0  0  0
    9.1745    3.5353   -1.1881 H   0  0  0  0  0  0  0  0  0  0  0  0
    8.8693    2.7641    0.4235 H   0  0  0  0  0  0  0  0  0  0  0  0
    7.4805    3.2249   -0.6471 H   0  0  0  0  0  0  0  0  0  0  0  0
    9.2726   -0.4195   -0.7965 H   0  0  0  0  0  0  0  0  0  0  0  0
    9.9587    0.8802    0.2107 H   0  0  0  0  0  0  0  0  0  0  0  0
    8.1028    1.1466    1.5585 H   0  0  0  0  0  0  0  0  0  0  0  0
    8.1874   -0.6104    1.3582 H   0  0  0  0  0  0  0  0  0  0  0  0
    4.8342    1.1852    2.2072 H   0  0  0  0  0  0  0  0  0  0  0  0
    4.2900    1.1834    0.5184 H   0  0  0  0  0  0  0  0  0  0  0  0
    3.4310   -0.4963    2.9547 H   0  0  0  0  0  0  0  0  0  0  0  0
    2.4190    0.4290    1.8419 H   0  0  0  0  0  0  0  0  0  0  0  0
    1.2585    0.4533    0.2133 H   0  0  0  0  0  0  0  0  0  0  0  0
   -0.8962   -0.0163   -0.8724 H   0  0  0  0  0  0  0  0  0  0  0  0
   -2.2305   -3.3976   -1.4872 H   0  0  0  0  0  0  0  0  0  0  0  0
   -3.4000    0.0605   -4.7357 H   0  0  0  0  0  0  0  0  0  0  0  0
   -5.8175    1.7859   -1.1554 H   0  0  0  0  0  0  0  0  0  0  0  0
   -3.9006   -0.4946    1.1017 H   0  0  0  0  0  0  0  0  0  0  0  0
   -4.1705   -0.5542    3.5549 H   0  0  0  0  0  0  0  0  0  0  0  0
   -5.8209    0.9057    4.6485 H   0  0  0  0  0  0  0  0  0  0  0  0
   -7.1595    2.3778    3.2968 H   0  0  0  0  0  0  0  0  0  0  0  0
   -8.0102    1.2224   -1.1774 H   0  0  0  0  0  0  0  0  0  0  0  0
   -8.9842    0.0335    0.5549 H   0  0  0  0  0  0  0  0  0  0  0  0
  -10.3904    0.9041   -0.0850 H   0  0  0  0  0  0  0  0  0  0  0  0
   -9.5916    1.5893    1.3382 H   0  0  0  0  0  0  0  0  0  0  0  0
   -8.9925    3.8242   -1.3040 H   0  0  0  0  0  0  0  0  0  0  0  0
  -10.4198    2.9184   -0.7049 H   0  0  0  0  0  0  0  0  0  0  0  0
   -9.6832    2.3913   -2.2496 H   0  0  0  0  0  0  0  0  0  0  0  0
  1  2  1  0
  2  3  1  0
  3  4  2  0
  4  5  1  0
  5  6  1  0
  6  7  1  0
  7  8  1  0
  8  9  1  0
  9 10  1  0
 10 11  1  0
 11 12  1  0
 12 13  1  0
 13 14  1  0
 13 15  1  0
 15 16  1  0
  9 17  1  0
 17 18  1  0
  5 19  2  0
 19 20  1  0
 20 21  2  0
 21 22  1  0
 22 23  1  0
 23 24  2  0
 24 25  1  0
 25 26  2  0
 26 27  1  0
 26 28  1  0
 28 29  1  0
 29 30  1  0
 30 31  2  0
 31 32  1  0
 32 33  2  0
 33 34  1  0
 34 35  2  0
 35 36  1  0
 36 37  2  0
 36 38  2  0
 36 39  1  0
 39 40  1  0
 39 41  1  0
 28 42  2  0
 21  3  1  0
 42 23  1  0
 18  6  1  0
 35 30  1  0
 16 10  1  0
  1 43  1  0
  1 44  1  0
  1 45  1  0
  4 46  1  0
  7 47  1  0
  7 48  1  0
  8 49  1  0
  8 50  1  0
  9 51  1  0
 11 52  1  0
 11 53  1  0
 12 54  1  0
 12 55  1  0
 14 56  1  0
 14 57  1  0
 14 58  1  0
 15 59  1  0
 15 60  1  0
 16 61  1  0
 16 62  1  0
 17 63  1  0
 17 64  1  0
 18 65  1  0
 18 66  1  0
 19 67  1  0
 20 68  1  0
 22 69  1  0
 25 70  1  0
 29 71  1  0
 31 72  1  0
 32 73  1  0
 33 74  1  0
 34 75  1  0
 39 76  1  0
 40 77  1  0
 40 78  1  0
 40 79  1  0
 41 80  1  0
 41 81  1  0
 41 82  1  0
M  END
$$$$
