
     RDKit          3D

 56 61  0  0  0  0  0  0  0  0999 V2000
    5.3691   -2.5511   -1.0356 O   0  0  0  0  0  0  0  0  0  0  0  0
    4.6816   -1.5266   -0.6555 C   0  0  0  0  0  0  0  0  0  0  0  0
    3.2409   -1.6214   -0.7521 C   0  0  0  0  0  0  0  0  0  0  0  0
    2.5695   -1.5268   -1.9720 C   0  0  0  0  0  0  0  0  0  0  0  0
    1.2101   -1.6890   -2.0294 C   0  0  0  0  0  0  0  0  0  0  0  0
    0.4610   -1.9486   -0.9071 C   0  0  0  0  0  0  0  0  0  0  0  0
   -0.9103   -2.1360   -1.0543 N   0  0  0  0  0  0  0  0  0  0  0  0
   -1.9866   -1.4481   -0.4674 C   0  0  0  0  0  0  0  0  0  0  0  0
   -2.8258   -2.0833    0.4085 N   0  0  0  0  0  0  0  0  0  0  0  0
   -3.8555   -1.4691    0.9523 C   0  0  0  0  0  0  0  0  0  0  0  0
   -4.7720   -2.1822    1.8946 C   0  0  0  0  0  0  0  0  0  0  0  0
   -5.7612   -3.0742    1.1076 C   0  0  0  0  0  0  0  0  0  0  0  0
   -6.1966   -1.8667    2.0066 C   0  0  0  0  0  0  0  0  0  0  0  0
   -4.1063   -0.1371    0.6369 C   0  0  0  0  0  0  0  0  0  0  0  0
   -3.2910    0.5198   -0.2257 N   0  0  0  0  0  0  0  0  0  0  0  0
   -3.2873    1.7721   -0.7008 C   0  0  0  0  0  0  0  0  0  0  0  0
   -4.1895    2.8763   -0.4266 C   0  0  0  0  0  0  0  0  0  0  0  0
   -4.0329    4.1361   -0.9943 C   0  0  0  0  0  0  0  0  0  0  0  0
   -4.9942    4.9497   -0.5760 N   0  0  0  0  0  0  0  0  0  0  0  0
   -5.7703    4.2665    0.2432 N   0  0  0  0  0  0  0  0  0  0  0  0
   -5.2969    2.9733    0.3563 C   0  0  0  0  0  0  0  0  0  0  0  0
   -2.1864    1.8739   -1.5709 C   0  0  0  0  0  0  0  0  0  0  0  0
   -1.5681    0.7066   -1.5979 N   0  0  0  0  0  0  0  0  0  0  0  0
   -2.2342   -0.1312   -0.7769 C   0  0  0  0  0  0  0  0  0  0  0  0
    1.1053   -2.0414    0.2958 C   0  0  0  0  0  0  0  0  0  0  0  0
    0.2285   -2.3501    1.7587 Cl  0  0  0  0  0  0  0  0  0  0  0  0
    2.4972   -1.8776    0.3749 C   0  0  0  0  0  0  0  0  0  0  0  0
    5.3374   -0.3873   -0.1750 N   0  0  0  0  0  0  0  0  0  0  0  0
    6.7935   -0.4263   -0.1284 C   0  0  0  0  0  0  0  0  0  0  0  0
    7.4613    0.8700   -0.3927 C   0  0  0  0  0  0  0  0  0  0  0  0
    6.4898    1.8841   -0.6699 N   0  0  0  0  0  0  0  0  0  0  0  0
    5.4679    1.9957    0.3513 C   0  0  0  0  0  0  0  0  0  0  0  0
    4.5868    0.7641    0.2513 C   0  0  0  0  0  0  0  0  0  0  0  0
    3.1354   -1.3268   -2.8701 H   0  0  0  0  0  0  0  0  0  0  0  0
    0.7117   -1.6113   -2.9750 H   0  0  0  0  0  0  0  0  0  0  0  0
   -1.2259   -2.9276   -1.7223 H   0  0  0  0  0  0  0  0  0  0  0  0
   -4.2349   -2.7482    2.6894 H   0  0  0  0  0  0  0  0  0  0  0  0
   -5.8446   -2.9334    0.0288 H   0  0  0  0  0  0  0  0  0  0  0  0
   -5.9392   -4.0805    1.5217 H   0  0  0  0  0  0  0  0  0  0  0  0
   -6.7408   -2.1291    2.9362 H   0  0  0  0  0  0  0  0  0  0  0  0
   -6.5839   -0.9914    1.4337 H   0  0  0  0  0  0  0  0  0  0  0  0
   -4.9477    0.3542    1.0831 H   0  0  0  0  0  0  0  0  0  0  0  0
   -3.2545    4.4267   -1.6732 H   0  0  0  0  0  0  0  0  0  0  0  0
   -6.6090    4.6194    0.7328 H   0  0  0  0  0  0  0  0  0  0  0  0
   -5.7740    2.2294    0.9732 H   0  0  0  0  0  0  0  0  0  0  0  0
   -1.8889    2.7609   -2.1244 H   0  0  0  0  0  0  0  0  0  0  0  0
    2.9595   -1.9532    1.3403 H   0  0  0  0  0  0  0  0  0  0  0  0
    7.0732   -0.7289    0.9243 H   0  0  0  0  0  0  0  0  0  0  0  0
    7.1767   -1.2510   -0.7640 H   0  0  0  0  0  0  0  0  0  0  0  0
    8.0632    0.7299   -1.3360 H   0  0  0  0  0  0  0  0  0  0  0  0
    8.2077    1.1523    0.3791 H   0  0  0  0  0  0  0  0  0  0  0  0
    6.8947    2.8106   -0.9314 H   0  0  0  0  0  0  0  0  0  0  0  0
    4.8432    2.8601    0.0808 H   0  0  0  0  0  0  0  0  0  0  0  0
    5.8824    2.0881    1.3603 H   0  0  0  0  0  0  0  0  0  0  0  0
    3.7479    0.9181   -0.4547 H   0  0  0  0  0  0  0  0  0  0  0  0
    4.1132    0.6175    1.2541 H   0  0  0  0  0  0  0  0  0  0  0  0
  1  2  2  0
  2  3  1  0
  3  4  2  0
  4  5  1  0
  5  6  2  0
  6  7  1  0
  7  8  1  0
  8  9  2  0
  9 10  1  0
 10 11  1  0
 11 12  1  0
 12 13  1  0
 10 14  2  0
 14 15  1  0
 15 16  1  0
 16 17  1  0
 17 18  1  0
 18 19  2  0
 19 20  1  0
 20 21  1  0
 16 22  2  0
 22 23  1  0
 23 24  2  0
  6 25  1  0
 25 26  1  0
 25 27  2  0
  2 28  1  0
 28 29  1  0
 29 30  1  0
 30 31  1  0
 31 32  1  0
 32 33  1  0
 27  3  1  0
 33 28  1  0
 24  8  1  0
 13 11  1  0
 24 15  1  0
 21 17  2  0
  4 34  1  0
  5 35  1  0
  7 36  1  0
 11 37  1  0
 12 38  1  0
 12 39  1  0
 13 40  1  0
 13 41  1  0
 14 42  1  0
 18 43  1  0
 20 44  1  0
 21 45  1  0
 22 46  1  0
 27 47  1  0
 29 48  1  0
 29 49  1  0
 30 50  1  0
 30 51  1  0
 31 52  1  0
 32 53  1  0
 32 54  1  0
 33 55  1  0
 33 56  1  0
M  END
$$$$
