
     RDKit          3D

 46 48  0  0  0  0  0  0  0  0999 V2000
    3.7076   -0.3311   -1.3803 C   0  0  2  0  0  0  0  0  0  0  0  0
    4.3082    1.0415   -1.4032 C   0  0  0  0  0  0  0  0  0  0  0  0
    4.4854    1.3525    0.0627 C   0  0  0  0  0  0  0  0  0  0  0  0
    3.6137    0.3649    0.7742 C   0  0  0  0  0  0  0  0  0  0  0  0
    2.7833   -0.2500   -0.2603 N   0  0  0  0  0  0  0  0  0  0  0  0
    1.4404   -0.6537   -0.1806 C   0  0  0  0  0  0  0  0  0  0  0  0
    0.9227   -1.1694   -1.2182 O   0  0  0  0  0  0  0  0  0  0  0  0
    0.7199   -0.4580    1.0855 C   0  0  2  0  0  0  0  0  0  0  0  0
    1.2131   -1.4254    2.1638 C   0  0  0  0  0  0  0  0  0  0  0  0
    0.5877   -2.7261    1.7094 C   0  0  0  0  0  0  0  0  0  0  0  0
   -0.6089   -2.3815    0.8580 C   0  0  0  0  0  0  0  0  0  0  0  0
   -0.6682   -0.9365    0.9865 N   0  0  0  0  0  0  0  0  0  0  0  0
   -1.9000   -0.2215    1.0018 C   0  0  0  0  0  0  0  0  0  0  0  0
   -2.7692   -1.1144    0.8862 O   0  0  0  0  0  0  0  0  0  0  0  0
   -2.0441    1.1216    1.1177 O   0  0  0  0  0  0  0  0  0  0  0  0
   -3.3071    1.7295    1.1206 C   0  0  0  0  0  0  0  0  0  0  0  0
   -4.0650    1.4854   -0.1159 C   0  0  0  0  0  0  0  0  0  0  0  0
   -4.9976    0.5354   -0.4317 C   0  0  0  0  0  0  0  0  0  0  0  0
   -5.5903    0.4584   -1.6550 C   0  0  0  0  0  0  0  0  0  0  0  0
   -5.2864    1.3437   -2.6682 C   0  0  0  0  0  0  0  0  0  0  0  0
   -4.3602    2.3112   -2.3997 C   0  0  0  0  0  0  0  0  0  0  0  0
   -3.7768    2.3658   -1.1553 C   0  0  0  0  0  0  0  0  0  0  0  0
    4.7032   -1.4140   -1.1512 C   0  0  0  0  0  0  0  0  0  0  0  0
    5.5759   -2.2618   -1.0964 O   0  0  0  0  0  0  0  0  0  0  0  0
    3.1251   -0.5228   -2.3072 H   0  0  0  0  0  0  0  0  0  0  0  0
    3.5395    1.7279   -1.8153 H   0  0  0  0  0  0  0  0  0  0  0  0
    5.2523    1.0678   -1.9678 H   0  0  0  0  0  0  0  0  0  0  0  0
    5.5654    1.2566    0.3106 H   0  0  0  0  0  0  0  0  0  0  0  0
    4.1315    2.3938    0.2956 H   0  0  0  0  0  0  0  0  0  0  0  0
    4.2232   -0.4200    1.2429 H   0  0  0  0  0  0  0  0  0  0  0  0
    2.9034    0.8568    1.4741 H   0  0  0  0  0  0  0  0  0  0  0  0
    0.7809    0.5628    1.4790 H   0  0  0  0  0  0  0  0  0  0  0  0
    2.2986   -1.5112    2.1917 H   0  0  0  0  0  0  0  0  0  0  0  0
    0.8244   -1.0936    3.1383 H   0  0  0  0  0  0  0  0  0  0  0  0
    1.3579   -3.2821    1.1545 H   0  0  0  0  0  0  0  0  0  0  0  0
    0.2361   -3.3164    2.5839 H   0  0  0  0  0  0  0  0  0  0  0  0
   -1.5265   -2.8683    1.2496 H   0  0  0  0  0  0  0  0  0  0  0  0
   -0.4881   -2.7279   -0.1820 H   0  0  0  0  0  0  0  0  0  0  0  0
   -3.1534    2.8097    1.2630 H   0  0  0  0  0  0  0  0  0  0  0  0
   -3.8971    1.3509    1.9919 H   0  0  0  0  0  0  0  0  0  0  0  0
   -5.2322   -0.1456    0.3762 H   0  0  0  0  0  0  0  0  0  0  0  0
   -6.3141   -0.3384   -1.7859 H   0  0  0  0  0  0  0  0  0  0  0  0
   -5.7708    1.2598   -3.6273 H   0  0  0  0  0  0  0  0  0  0  0  0
   -4.1288    2.9971   -3.1937 H   0  0  0  0  0  0  0  0  0  0  0  0
   -3.0539    3.1774   -1.0550 H   0  0  0  0  0  0  0  0  0  0  0  0
    4.6393   -2.0007   -0.2199 H   0  0  0  0  0  0  0  0  0  0  0  0
  1  2  1  0
  2  3  1  0
  3  4  1  0
  4  5  1  0
  5  6  1  0
  6  7  2  0
  6  8  1  0
  8  9  1  0
  9 10  1  0
 10 11  1  0
 11 12  1  0
 12 13  1  0
 13 14  2  0
 13 15  1  0
 15 16  1  0
 16 17  1  0
 17 18  2  0
 18 19  1  0
 19 20  2  0
 20 21  1  0
 21 22  2  0
  1 23  1  0
 23 24  2  0
  5  1  1  0
 12  8  1  0
 22 17  1  0
  1 25  1  6
  2 26  1  0
  2 27  1  0
  3 28  1  0
  3 29  1  0
  4 30  1  0
  4 31  1  0
  8 32  1  1
  9 33  1  0
  9 34  1  0
 10 35  1  0
 10 36  1  0
 11 37  1  0
 11 38  1  0
 16 39  1  0
 16 40  1  0
 18 41  1  0
 19 42  1  0
 20 43  1  0
 21 44  1  0
 22 45  1  0
 23 46  1  0
M  END
$$$$
