
     RDKit          3D

 54 57  0  0  0  0  0  0  0  0999 V2000
    7.4370    0.1870    1.4244 O   0  0  0  0  0  0  0  0  0  0  0  0
    7.4668    0.4034    0.1937 C   0  0  0  0  0  0  0  0  0  0  0  0
    8.7586    0.8169   -0.4133 C   0  0  0  0  0  0  0  0  0  0  0  0
    8.6237    1.1049   -2.2980 Br  0  0  0  0  0  0  0  0  0  0  0  0
    6.2766    0.2436   -0.5482 N   0  0  0  0  0  0  0  0  0  0  0  0
    5.0449   -0.1615    0.0945 C   0  0  0  0  0  0  0  0  0  0  0  0
    3.9486   -0.2561   -0.8979 C   0  0  0  0  0  0  0  0  0  0  0  0
    4.2229    0.0125   -2.0904 O   0  0  0  0  0  0  0  0  0  0  0  0
    2.6252   -0.6338   -0.5466 N   0  0  0  0  0  0  0  0  0  0  0  0
    1.6117   -0.7048   -1.5603 C   0  0  0  0  0  0  0  0  0  0  0  0
    0.2492   -0.2475   -1.0356 C   0  0  0  0  0  0  0  0  0  0  0  0
   -0.1023   -0.9090    0.1875 N   0  0  0  0  0  0  0  0  0  0  0  0
   -1.3328   -0.8483    0.8673 C   0  0  0  0  0  0  0  0  0  0  0  0
   -1.4092   -1.5109    1.9782 O   0  0  0  0  0  0  0  0  0  0  0  0
   -2.5581   -0.1405    0.5103 C   0  0  0  0  0  0  0  0  0  0  0  0
   -3.5102   -0.1570    1.6994 C   0  0  0  0  0  0  0  0  0  0  0  0
   -4.8459    0.3992    1.3662 C   0  0  0  0  0  0  0  0  0  0  0  0
   -4.6875    1.8109    0.8866 C   0  0  0  0  0  0  0  0  0  0  0  0
   -3.7996    1.8033   -0.3124 C   0  0  0  0  0  0  0  0  0  0  0  0
   -4.4720    0.9798   -1.4003 C   0  0  0  0  0  0  0  0  0  0  0  0
   -4.6218   -0.4252   -0.9181 C   0  0  0  0  0  0  0  0  0  0  0  0
   -5.4963   -0.4591    0.3063 C   0  0  0  0  0  0  0  0  0  0  0  0
   -3.2554   -0.9760   -0.5786 C   0  0  0  0  0  0  0  0  0  0  0  0
   -2.4076    1.2372   -0.0180 C   0  0  0  0  0  0  0  0  0  0  0  0
    0.9757   -1.7370    0.7686 C   0  0  0  0  0  0  0  0  0  0  0  0
    2.2627   -0.9543    0.8264 C   0  0  0  0  0  0  0  0  0  0  0  0
    9.0272    1.7900    0.0778 H   0  0  0  0  0  0  0  0  0  0  0  0
    9.5632    0.0852   -0.2210 H   0  0  0  0  0  0  0  0  0  0  0  0
    6.2966    0.4230   -1.5750 H   0  0  0  0  0  0  0  0  0  0  0  0
    5.2543   -1.1699    0.5531 H   0  0  0  0  0  0  0  0  0  0  0  0
    4.7825    0.5014    0.9462 H   0  0  0  0  0  0  0  0  0  0  0  0
    1.8654    0.0219   -2.3804 H   0  0  0  0  0  0  0  0  0  0  0  0
    1.4598   -1.7324   -1.9555 H   0  0  0  0  0  0  0  0  0  0  0  0
    0.3981    0.8598   -0.8701 H   0  0  0  0  0  0  0  0  0  0  0  0
   -0.4411   -0.4645   -1.8672 H   0  0  0  0  0  0  0  0  0  0  0  0
   -3.0406    0.4800    2.4742 H   0  0  0  0  0  0  0  0  0  0  0  0
   -3.6274   -1.1916    2.0524 H   0  0  0  0  0  0  0  0  0  0  0  0
   -5.5002    0.3970    2.2426 H   0  0  0  0  0  0  0  0  0  0  0  0
   -5.6667    2.1961    0.5805 H   0  0  0  0  0  0  0  0  0  0  0  0
   -4.3197    2.4644    1.6978 H   0  0  0  0  0  0  0  0  0  0  0  0
   -3.7032    2.8397   -0.7030 H   0  0  0  0  0  0  0  0  0  0  0  0
   -5.4397    1.4519   -1.6258 H   0  0  0  0  0  0  0  0  0  0  0  0
   -3.8007    1.0020   -2.2830 H   0  0  0  0  0  0  0  0  0  0  0  0
   -5.0216   -1.0644   -1.7216 H   0  0  0  0  0  0  0  0  0  0  0  0
   -6.5111   -0.1077    0.0545 H   0  0  0  0  0  0  0  0  0  0  0  0
   -5.5676   -1.4867    0.7195 H   0  0  0  0  0  0  0  0  0  0  0  0
   -2.6608   -0.9688   -1.4899 H   0  0  0  0  0  0  0  0  0  0  0  0
   -3.3655   -2.0242   -0.2194 H   0  0  0  0  0  0  0  0  0  0  0  0
   -1.9309    1.2137   -1.0439 H   0  0  0  0  0  0  0  0  0  0  0  0
   -1.9218    1.9339    0.6621 H   0  0  0  0  0  0  0  0  0  0  0  0
    0.6794   -2.1672    1.7312 H   0  0  0  0  0  0  0  0  0  0  0  0
    1.1221   -2.5631    0.0432 H   0  0  0  0  0  0  0  0  0  0  0  0
    2.0538   -0.0228    1.4082 H   0  0  0  0  0  0  0  0  0  0  0  0
    3.0109   -1.5745    1.3255 H   0  0  0  0  0  0  0  0  0  0  0  0
  1  2  2  0
  2  3  1  0
  3  4  1  0
  2  5  1  0
  5  6  1  0
  6  7  1  0
  7  8  2  0
  7  9  1  0
  9 10  1  0
 10 11  1  0
 11 12  1  0
 12 13  1  0
 13 14  2  0
 13 15  1  0
 15 16  1  0
 16 17  1  0
 17 18  1  0
 18 19  1  0
 19 20  1  0
 20 21  1  0
 21 22  1  0
 21 23  1  0
 19 24  1  0
 12 25  1  0
 25 26  1  0
 26  9  1  0
 23 15  1  0
 24 15  1  0
 22 17  1  0
  3 27  1  0
  3 28  1  0
  5 29  1  0
  6 30  1  0
  6 31  1  0
 10 32  1  0
 10 33  1  0
 11 34  1  0
 11 35  1  0
 16 36  1  0
 16 37  1  0
 17 38  1  0
 18 39  1  0
 18 40  1  0
 19 41  1  0
 20 42  1  0
 20 43  1  0
 21 44  1  0
 22 45  1  0
 22 46  1  0
 23 47  1  0
 23 48  1  0
 24 49  1  0
 24 50  1  0
 25 51  1  0
 25 52  1  0
 26 53  1  0
 26 54  1  0
M  END
$$$$
