
     RDKit          3D

 55 58  0  0  0  0  0  0  0  0999 V2000
   -2.3824    2.4956    1.5030 C   0  0  0  0  0  0  0  0  0  0  0  0
   -3.3569    1.3595    1.1594 C   0  0  0  0  0  0  0  0  0  0  0  0
   -4.7569    1.8050    1.1759 C   0  0  0  0  0  0  0  0  0  0  0  0
   -3.0022    0.3226    2.0657 O   0  0  0  0  0  0  0  0  0  0  0  0
   -1.7345   -0.1034    1.5967 C   0  0  0  0  0  0  0  0  0  0  0  0
   -0.9171   -0.7703    2.2415 O   0  0  0  0  0  0  0  0  0  0  0  0
   -1.5436    0.3624    0.2455 N   0  0  0  0  0  0  0  0  0  0  0  0
   -0.3863    0.4535   -0.5493 C   0  0  1  0  0  0  0  0  0  0  0  0
    0.6751    1.4024   -0.0537 C   0  0  0  0  0  0  0  0  0  0  0  0
    1.6671    0.8180    0.8877 C   0  0  0  0  0  0  0  0  0  0  0  0
    2.2612   -0.4838    0.3967 C   0  0  2  0  0  0  0  0  0  0  0  0
    3.7437   -0.4535    0.3708 C   0  0  0  0  0  0  0  0  0  0  0  0
    4.4827   -1.3927    1.0480 C   0  0  0  0  0  0  0  0  0  0  0  0
    5.8291   -1.3400    1.0066 N   0  0  0  0  0  0  0  0  0  0  0  0
    6.5230   -0.4159    0.3368 C   0  0  0  0  0  0  0  0  0  0  0  0
    7.9402   -0.3969    0.3196 N   0  0  0  0  0  0  0  0  0  0  0  0
    5.7964    0.5500   -0.3598 C   0  0  0  0  0  0  0  0  0  0  0  0
    6.5506    1.5327   -1.0719 C   0  0  0  0  0  0  0  0  0  0  0  0
    7.1486    2.3441   -1.6542 N   0  0  0  0  0  0  0  0  0  0  0  0
    4.4174    0.5177   -0.3332 C   0  0  0  0  0  0  0  0  0  0  0  0
    1.7256   -0.7714   -0.9918 C   0  0  0  0  0  0  0  0  0  0  0  0
    0.2174   -0.9059   -0.8514 C   0  0  0  0  0  0  0  0  0  0  0  0
   -2.9243    0.7523   -0.1283 C   0  0  1  0  0  0  0  0  0  0  0  0
   -3.6772   -0.3943   -0.6169 C   0  0  0  0  0  0  0  0  0  0  0  0
   -3.2305   -1.0287   -1.7867 C   0  0  0  0  0  0  0  0  0  0  0  0
   -3.8614   -2.1322   -2.3093 C   0  0  0  0  0  0  0  0  0  0  0  0
   -4.9708   -2.6743   -1.7075 C   0  0  0  0  0  0  0  0  0  0  0  0
   -5.4326   -2.0764   -0.5610 C   0  0  0  0  0  0  0  0  0  0  0  0
   -4.7867   -0.9677   -0.0482 C   0  0  0  0  0  0  0  0  0  0  0  0
   -2.0357    2.9740    0.5549 H   0  0  0  0  0  0  0  0  0  0  0  0
   -1.4729    2.1161    2.0100 H   0  0  0  0  0  0  0  0  0  0  0  0
   -2.8641    3.2193    2.1836 H   0  0  0  0  0  0  0  0  0  0  0  0
   -4.7438    2.9395    1.2998 H   0  0  0  0  0  0  0  0  0  0  0  0
   -5.3893    1.4540    2.0156 H   0  0  0  0  0  0  0  0  0  0  0  0
   -5.3011    1.6815    0.2072 H   0  0  0  0  0  0  0  0  0  0  0  0
   -0.6921    0.8695   -1.5581 H   0  0  0  0  0  0  0  0  0  0  0  0
    0.2638    2.3163    0.3721 H   0  0  0  0  0  0  0  0  0  0  0  0
    1.2771    1.7496   -0.9490 H   0  0  0  0  0  0  0  0  0  0  0  0
    1.3654    0.6995    1.9235 H   0  0  0  0  0  0  0  0  0  0  0  0
    2.5329    1.5464    0.9160 H   0  0  0  0  0  0  0  0  0  0  0  0
    1.9567   -1.3416    1.0288 H   0  0  0  0  0  0  0  0  0  0  0  0
    4.0210   -2.1954    1.6297 H   0  0  0  0  0  0  0  0  0  0  0  0
    8.4635   -0.0311    1.1398 H   0  0  0  0  0  0  0  0  0  0  0  0
    8.4585   -0.7570   -0.5328 H   0  0  0  0  0  0  0  0  0  0  0  0
    3.8998    1.2941   -0.8931 H   0  0  0  0  0  0  0  0  0  0  0  0
    2.1047   -1.7605   -1.3347 H   0  0  0  0  0  0  0  0  0  0  0  0
    2.0198   -0.0113   -1.7145 H   0  0  0  0  0  0  0  0  0  0  0  0
    0.0058   -1.6116   -0.0238 H   0  0  0  0  0  0  0  0  0  0  0  0
   -0.1406   -1.3146   -1.8166 H   0  0  0  0  0  0  0  0  0  0  0  0
   -2.8954    1.5441   -0.9025 H   0  0  0  0  0  0  0  0  0  0  0  0
   -2.3666   -0.6403   -2.3021 H   0  0  0  0  0  0  0  0  0  0  0  0
   -3.5107   -2.6259   -3.2227 H   0  0  0  0  0  0  0  0  0  0  0  0
   -5.4645   -3.5422   -2.1218 H   0  0  0  0  0  0  0  0  0  0  0  0
   -6.3076   -2.5071   -0.0898 H   0  0  0  0  0  0  0  0  0  0  0  0
   -5.1994   -0.5732    0.8499 H   0  0  0  0  0  0  0  0  0  0  0  0
  1  2  1  0
  2  3  1  0
  2  4  1  0
  4  5  1  0
  5  6  2  0
  5  7  1  0
  7  8  1  0
  8  9  1  0
  9 10  1  0
 10 11  1  0
 11 12  1  0
 12 13  2  0
 13 14  1  0
 14 15  2  0
 15 16  1  0
 15 17  1  0
 17 18  1  0
 18 19  3  0
 17 20  2  0
 11 21  1  0
 21 22  1  0
  7 23  1  0
 23 24  1  0
 24 25  2  0
 25 26  1  0
 26 27  2  0
 27 28  1  0
 28 29  2  0
 23  2  1  0
 29 24  1  0
 22  8  1  0
 20 12  1  0
  1 30  1  0
  1 31  1  0
  1 32  1  0
  3 33  1  0
  3 34  1  0
  3 35  1  0
  8 36  1  6
  9 37  1  0
  9 38  1  0
 10 39  1  0
 10 40  1  0
 11 41  1  1
 13 42  1  0
 16 43  1  0
 16 44  1  0
 20 45  1  0
 21 46  1  0
 21 47  1  0
 22 48  1  0
 22 49  1  0
 23 50  1  6
 25 51  1  0
 26 52  1  0
 27 53  1  0
 28 54  1  0
 29 55  1  0
M  END
$$$$
