
     RDKit          3D

 53 55  0  0  0  0  0  0  0  0999 V2000
   -1.0050    0.2052    4.6616 O   0  0  0  0  0  0  0  0  0  0  0  0
   -1.8812    0.5092    3.8119 C   0  0  0  0  0  0  0  0  0  0  0  0
   -3.1588    0.8035    4.2417 O   0  0  0  0  0  0  0  0  0  0  0  0
   -1.5647    0.5560    2.3617 C   0  0  0  0  0  0  0  0  0  0  0  0
   -1.5075   -0.8549    1.8184 C   0  0  0  0  0  0  0  0  0  0  0  0
   -1.1787   -0.8271    0.3113 C   0  0  0  0  0  0  0  0  0  0  0  0
   -2.2236   -0.0721   -0.4115 C   0  0  0  0  0  0  0  0  0  0  0  0
   -3.3294   -0.7360   -0.8942 C   0  0  0  0  0  0  0  0  0  0  0  0
   -4.3599   -0.0848   -1.5803 C   0  0  0  0  0  0  0  0  0  0  0  0
   -4.2998    1.2563   -1.7969 C   0  0  0  0  0  0  0  0  0  0  0  0
   -5.4082    1.9171   -2.5283 C   0  0  0  0  0  0  0  0  0  0  0  0
   -5.7272    1.1236   -3.6298 F   0  0  0  0  0  0  0  0  0  0  0  0
   -6.5203    1.9929   -1.7296 F   0  0  0  0  0  0  0  0  0  0  0  0
   -5.0160    3.1394   -3.0119 F   0  0  0  0  0  0  0  0  0  0  0  0
   -3.2001    1.9274   -1.3187 C   0  0  0  0  0  0  0  0  0  0  0  0
   -2.1637    1.2896   -0.6317 C   0  0  0  0  0  0  0  0  0  0  0  0
   -1.2165   -2.2845   -0.1048 C   0  0  0  0  0  0  0  0  0  0  0  0
   -0.9070   -2.2900   -1.5844 C   0  0  0  0  0  0  0  0  0  0  0  0
    0.5760   -2.0863   -1.6867 C   0  0  0  0  0  0  0  0  0  0  0  0
    1.0369   -1.0873   -0.7718 N   0  0  0  0  0  0  0  0  0  0  0  0
    2.4648   -0.8309   -0.7737 C   0  0  0  0  0  0  0  0  0  0  0  0
    3.1618   -1.4893   -1.5510 O   0  0  0  0  0  0  0  0  0  0  0  0
    3.0477    0.1245    0.0679 N   0  0  0  0  0  0  0  0  0  0  0  0
    4.4418    0.4581    0.1483 C   0  0  0  0  0  0  0  0  0  0  0  0
    5.4217   -0.1056   -0.5952 C   0  0  0  0  0  0  0  0  0  0  0  0
    6.7321    0.2665   -0.4593 C   0  0  0  0  0  0  0  0  0  0  0  0
    7.1011    1.2322    0.4433 C   0  0  0  0  0  0  0  0  0  0  0  0
    8.8038    1.6737    0.5780 Cl  0  0  0  0  0  0  0  0  0  0  0  0
    6.1314    1.8270    1.2160 C   0  0  0  0  0  0  0  0  0  0  0  0
    4.8252    1.4461    1.0704 C   0  0  0  0  0  0  0  0  0  0  0  0
    0.2105   -0.3447    0.1181 C   0  0  0  0  0  0  0  0  0  0  0  0
   -3.5222    0.4660    5.1173 H   0  0  0  0  0  0  0  0  0  0  0  0
   -2.3250    1.1530    1.8170 H   0  0  0  0  0  0  0  0  0  0  0  0
   -0.5968    1.0553    2.2190 H   0  0  0  0  0  0  0  0  0  0  0  0
   -2.4603   -1.3812    1.9604 H   0  0  0  0  0  0  0  0  0  0  0  0
   -0.7048   -1.4294    2.3033 H   0  0  0  0  0  0  0  0  0  0  0  0
   -3.4751   -1.7875   -0.7789 H   0  0  0  0  0  0  0  0  0  0  0  0
   -5.2125   -0.6346   -1.9451 H   0  0  0  0  0  0  0  0  0  0  0  0
   -3.1308    2.9843   -1.4778 H   0  0  0  0  0  0  0  0  0  0  0  0
   -1.3319    1.8526   -0.2733 H   0  0  0  0  0  0  0  0  0  0  0  0
   -2.1043   -2.8289    0.1929 H   0  0  0  0  0  0  0  0  0  0  0  0
   -0.3550   -2.8318    0.3962 H   0  0  0  0  0  0  0  0  0  0  0  0
   -1.3956   -1.4537   -2.1315 H   0  0  0  0  0  0  0  0  0  0  0  0
   -1.2265   -3.2475   -2.0541 H   0  0  0  0  0  0  0  0  0  0  0  0
    1.0345   -3.0725   -1.3688 H   0  0  0  0  0  0  0  0  0  0  0  0
    0.9092   -1.8942   -2.7303 H   0  0  0  0  0  0  0  0  0  0  0  0
    2.3637    0.6405    0.6990 H   0  0  0  0  0  0  0  0  0  0  0  0
    5.2158   -0.8651   -1.3200 H   0  0  0  0  0  0  0  0  0  0  0  0
    7.5299   -0.1937   -1.0665 H   0  0  0  0  0  0  0  0  0  0  0  0
    6.4511    2.5785    1.9134 H   0  0  0  0  0  0  0  0  0  0  0  0
    4.0519    1.9206    1.6864 H   0  0  0  0  0  0  0  0  0  0  0  0
    0.2842    0.7481   -0.0854 H   0  0  0  0  0  0  0  0  0  0  0  0
    0.7133   -0.4331    1.1381 H   0  0  0  0  0  0  0  0  0  0  0  0
  1  2  2  0
  2  3  1  0
  2  4  1  0
  4  5  1  0
  5  6  1  0
  6  7  1  0
  7  8  2  0
  8  9  1  0
  9 10  2  0
 10 11  1  0
 11 12  1  0
 11 13  1  0
 11 14  1  0
 10 15  1  0
 15 16  2  0
  6 17  1  0
 17 18  1  0
 18 19  1  0
 19 20  1  0
 20 21  1  0
 21 22  2  0
 21 23  1  0
 23 24  1  0
 24 25  2  0
 25 26  1  0
 26 27  2  0
 27 28  1  0
 27 29  1  0
 29 30  2  0
 20 31  1  0
 31  6  1  0
 16  7  1  0
 30 24  1  0
  3 32  1  0
  4 33  1  0
  4 34  1  0
  5 35  1  0
  5 36  1  0
  8 37  1  0
  9 38  1  0
 15 39  1  0
 16 40  1  0
 17 41  1  0
 17 42  1  0
 18 43  1  0
 18 44  1  0
 19 45  1  0
 19 46  1  0
 23 47  1  0
 25 48  1  0
 26 49  1  0
 29 50  1  0
 30 51  1  0
 31 52  1  0
 31 53  1  0
M  END
$$$$
