
     RDKit          3D

 57 60  0  0  0  0  0  0  0  0999 V2000
    7.0567   -3.2982   -0.2844 C   0  0  0  0  0  0  0  0  0  0  0  0
    6.9201   -2.3838   -1.3356 O   0  0  0  0  0  0  0  0  0  0  0  0
    5.8114   -1.5652   -1.5074 C   0  0  0  0  0  0  0  0  0  0  0  0
    4.7628   -1.6235   -0.6169 C   0  0  0  0  0  0  0  0  0  0  0  0
    3.6836   -0.7987   -0.8176 C   0  0  0  0  0  0  0  0  0  0  0  0
    3.5709    0.0976   -1.8618 C   0  0  0  0  0  0  0  0  0  0  0  0
    2.4136    0.9673   -2.0359 C   0  0  0  0  0  0  0  0  0  0  0  0
    2.1700    1.2930   -3.2478 O   0  0  0  0  0  0  0  0  0  0  0  0
    1.5831    1.4374   -0.9617 C   0  0  0  0  0  0  0  0  0  0  0  0
    0.2082    1.6801   -0.9808 C   0  0  0  0  0  0  0  0  0  0  0  0
   -0.6244    1.4352   -2.1795 C   0  0  0  0  0  0  0  0  0  0  0  0
   -0.2054    2.1482    0.1957 N   0  0  0  0  0  0  0  0  0  0  0  0
   -1.5380    2.5315    0.5999 C   0  0  0  0  0  0  0  0  0  0  0  0
   -2.3475    1.4193    1.1442 C   0  0  0  0  0  0  0  0  0  0  0  0
   -2.1139    0.9561    2.4186 C   0  0  0  0  0  0  0  0  0  0  0  0
   -2.8661   -0.0772    2.9591 C   0  0  0  0  0  0  0  0  0  0  0  0
   -3.8719   -0.6518    2.1988 C   0  0  0  0  0  0  0  0  0  0  0  0
   -4.6182   -1.6726    2.7436 F   0  0  0  0  0  0  0  0  0  0  0  0
   -4.1410   -0.2220    0.9251 C   0  0  0  0  0  0  0  0  0  0  0  0
   -5.1188   -0.7361    0.1167 O   0  0  0  0  0  0  0  0  0  0  0  0
   -5.9994   -1.7663    0.3279 C   0  0  1  0  0  0  0  0  0  0  0  0
   -7.3985   -1.1906    0.6904 C   0  0  0  0  0  0  0  0  0  0  0  0
   -6.2436   -2.4570   -0.9858 C   0  0  0  0  0  0  0  0  0  0  0  0
   -7.0300   -3.4289   -1.0169 O   0  0  0  0  0  0  0  0  0  0  0  0
   -5.6207   -2.0350   -2.1297 O   0  0  0  0  0  0  0  0  0  0  0  0
   -3.3452    0.8348    0.4188 C   0  0  0  0  0  0  0  0  0  0  0  0
    0.8747    2.2360    1.0323 C   0  0  0  0  0  0  0  0  0  0  0  0
    0.9482    2.6704    2.2958 N   0  0  0  0  0  0  0  0  0  0  0  0
    2.1111    2.7095    2.9504 C   0  0  0  0  0  0  0  0  0  0  0  0
    3.2383    2.2913    2.2929 C   0  0  0  0  0  0  0  0  0  0  0  0
    3.1860    1.8430    1.0013 C   0  0  0  0  0  0  0  0  0  0  0  0
    1.9811    1.7937    0.3050 C   0  0  0  0  0  0  0  0  0  0  0  0
    4.6396    0.1278   -2.7330 C   0  0  0  0  0  0  0  0  0  0  0  0
    5.7463   -0.6926   -2.5591 C   0  0  0  0  0  0  0  0  0  0  0  0
    6.7504   -2.7931    0.6504 H   0  0  0  0  0  0  0  0  0  0  0  0
    8.1435   -3.5879   -0.2469 H   0  0  0  0  0  0  0  0  0  0  0  0
    6.4249   -4.2002   -0.4961 H   0  0  0  0  0  0  0  0  0  0  0  0
    4.8219   -2.3227    0.2177 H   0  0  0  0  0  0  0  0  0  0  0  0
    2.8511   -0.8452   -0.1109 H   0  0  0  0  0  0  0  0  0  0  0  0
   -1.6916    1.3455   -1.9588 H   0  0  0  0  0  0  0  0  0  0  0  0
   -0.2943    0.5257   -2.7277 H   0  0  0  0  0  0  0  0  0  0  0  0
   -0.5364    2.3192   -2.8772 H   0  0  0  0  0  0  0  0  0  0  0  0
   -2.0824    2.9775   -0.2698 H   0  0  0  0  0  0  0  0  0  0  0  0
   -1.4553    3.3389    1.3855 H   0  0  0  0  0  0  0  0  0  0  0  0
   -1.3481    1.3735    3.0467 H   0  0  0  0  0  0  0  0  0  0  0  0
   -2.7168   -0.4697    3.9508 H   0  0  0  0  0  0  0  0  0  0  0  0
   -5.8062   -2.4775    1.1265 H   0  0  0  0  0  0  0  0  0  0  0  0
   -7.6370   -0.4905   -0.1348 H   0  0  0  0  0  0  0  0  0  0  0  0
   -8.1022   -2.0390    0.6710 H   0  0  0  0  0  0  0  0  0  0  0  0
   -7.3335   -0.7026    1.6745 H   0  0  0  0  0  0  0  0  0  0  0  0
   -5.8724   -2.3128   -3.0662 H   0  0  0  0  0  0  0  0  0  0  0  0
   -3.5939    1.1554   -0.5974 H   0  0  0  0  0  0  0  0  0  0  0  0
    2.1726    3.0692    3.9971 H   0  0  0  0  0  0  0  0  0  0  0  0
    4.2119    2.2978    2.7626 H   0  0  0  0  0  0  0  0  0  0  0  0
    4.0706    1.5370    0.4580 H   0  0  0  0  0  0  0  0  0  0  0  0
    4.6139    0.8122   -3.5772 H   0  0  0  0  0  0  0  0  0  0  0  0
    6.5862   -0.6697   -3.2404 H   0  0  0  0  0  0  0  0  0  0  0  0
  1  2  1  0
  2  3  1  0
  3  4  2  0
  4  5  1  0
  5  6  2  0
  6  7  1  0
  7  8  2  0
  7  9  1  0
  9 10  2  0
 10 11  1  0
 10 12  1  0
 12 13  1  0
 13 14  1  0
 14 15  2  0
 15 16  1  0
 16 17  2  0
 17 18  1  0
 17 19  1  0
 19 20  1  0
 20 21  1  0
 21 22  1  0
 21 23  1  0
 23 24  2  0
 23 25  1  0
 19 26  2  0
 12 27  1  0
 27 28  2  0
 28 29  1  0
 29 30  2  0
 30 31  1  0
 31 32  2  0
  6 33  1  0
 33 34  2  0
 34  3  1  0
 32  9  1  0
 26 14  1  0
 32 27  1  0
  1 35  1  0
  1 36  1  0
  1 37  1  0
  4 38  1  0
  5 39  1  0
 11 40  1  0
 11 41  1  0
 11 42  1  0
 13 43  1  0
 13 44  1  0
 15 45  1  0
 16 46  1  0
 21 47  1  1
 22 48  1  0
 22 49  1  0
 22 50  1  0
 25 51  1  0
 26 52  1  0
 29 53  1  0
 30 54  1  0
 31 55  1  0
 33 56  1  0
 34 57  1  0
M  END
$$$$
