
     RDKit          3D

 62 66  0  0  0  0  0  0  0  0999 V2000
   -3.9045   -1.9200   -1.2818 O   0  0  0  0  0  0  0  0  0  0  0  0
   -2.8427   -2.6105   -0.4790 P   0  0  0  0  0  5  0  0  0  0  0  0
   -3.5488   -3.6495    0.6466 O   0  0  0  0  0  0  0  0  0  0  0  0
   -1.8578   -3.5820   -1.4670 O   0  0  0  0  0  0  0  0  0  0  0  0
   -1.7678   -1.4051    0.3903 C   0  0  0  0  0  0  0  0  0  0  0  0
   -2.5699   -0.7466    1.4560 C   0  0  0  0  0  0  0  0  0  0  0  0
   -3.7302   -0.0146    0.8812 C   0  0  0  0  0  0  0  0  0  0  0  0
   -3.5923    1.2960    0.4201 C   0  0  0  0  0  0  0  0  0  0  0  0
   -4.6623    1.9930   -0.0926 C   0  0  0  0  0  0  0  0  0  0  0  0
   -5.9106    1.4472   -0.1792 C   0  0  0  0  0  0  0  0  0  0  0  0
   -7.0002    2.1388   -0.6948 C   0  0  0  0  0  0  0  0  0  0  0  0
   -8.2556    1.5539   -0.7686 C   0  0  0  0  0  0  0  0  0  0  0  0
   -8.4151    0.2684   -0.3218 C   0  0  0  0  0  0  0  0  0  0  0  0
   -7.3290   -0.4129    0.1891 C   0  0  0  0  0  0  0  0  0  0  0  0
   -6.0736    0.1534    0.2698 C   0  0  0  0  0  0  0  0  0  0  0  0
   -4.9889   -0.5603    0.7924 C   0  0  0  0  0  0  0  0  0  0  0  0
   -0.5951   -2.0683    0.7521 N   0  0  0  0  0  0  0  0  0  0  0  0
    0.6720   -1.4934    0.7377 C   0  0  1  0  0  0  0  0  0  0  0  0
    1.0880   -1.1493   -0.7186 C   0  0  0  0  0  0  0  0  0  0  0  0
    2.4373   -0.5492   -0.6956 C   0  0  0  0  0  0  0  0  0  0  0  0
    2.6184    0.8095   -0.6332 C   0  0  0  0  0  0  0  0  0  0  0  0
    3.8839    1.3850   -0.6018 C   0  0  0  0  0  0  0  0  0  0  0  0
    4.9893    0.5789   -0.6341 C   0  0  0  0  0  0  0  0  0  0  0  0
    6.3246    1.1360   -0.6038 C   0  0  0  0  0  0  0  0  0  0  0  0
    6.6491    2.3574   -1.1563 C   0  0  0  0  0  0  0  0  0  0  0  0
    7.9307    2.8754   -1.1186 C   0  0  0  0  0  0  0  0  0  0  0  0
    8.9464    2.1678   -0.5122 C   0  0  0  0  0  0  0  0  0  0  0  0
    8.6328    0.9458    0.0432 C   0  0  0  0  0  0  0  0  0  0  0  0
    7.3555    0.4261    0.0074 C   0  0  0  0  0  0  0  0  0  0  0  0
    4.8367   -0.8072   -0.6980 C   0  0  0  0  0  0  0  0  0  0  0  0
    3.5605   -1.3449   -0.7276 C   0  0  0  0  0  0  0  0  0  0  0  0
    1.0025   -0.3870    1.6206 C   0  0  0  0  0  0  0  0  0  0  0  0
    2.0234   -0.3483    2.5373 N   0  0  0  0  0  0  0  0  0  0  0  0
    2.0328    0.8311    3.1289 N   0  0  0  0  0  0  0  0  0  0  0  0
    1.0647    1.5498    2.6331 N   0  0  0  0  0  0  0  0  0  0  0  0
    0.4305    0.8174    1.7128 N   0  0  0  0  0  0  0  0  0  0  0  0
   -2.8219   -4.1819    1.0913 H   0  0  0  0  0  0  0  0  0  0  0  0
   -2.3195   -4.4545   -1.5917 H   0  0  0  0  0  0  0  0  0  0  0  0
   -1.5043   -0.6499   -0.4141 H   0  0  0  0  0  0  0  0  0  0  0  0
   -2.0674   -0.0958    2.1540 H   0  0  0  0  0  0  0  0  0  0  0  0
   -2.9877   -1.6070    2.0986 H   0  0  0  0  0  0  0  0  0  0  0  0
   -2.6005    1.7268    0.4901 H   0  0  0  0  0  0  0  0  0  0  0  0
   -4.5022    2.9957   -0.4328 H   0  0  0  0  0  0  0  0  0  0  0  0
   -6.8231    3.1395   -1.0301 H   0  0  0  0  0  0  0  0  0  0  0  0
   -9.0820    2.1177   -1.1745 H   0  0  0  0  0  0  0  0  0  0  0  0
   -9.3657   -0.2138   -0.3628 H   0  0  0  0  0  0  0  0  0  0  0  0
   -7.4371   -1.4322    0.5474 H   0  0  0  0  0  0  0  0  0  0  0  0
   -5.1899   -1.5494    1.1231 H   0  0  0  0  0  0  0  0  0  0  0  0
   -0.6812   -3.0542    1.0508 H   0  0  0  0  0  0  0  0  0  0  0  0
    1.4103   -2.3292    0.9928 H   0  0  0  0  0  0  0  0  0  0  0  0
    1.0561   -2.0977   -1.3031 H   0  0  0  0  0  0  0  0  0  0  0  0
    0.3676   -0.4716   -1.1815 H   0  0  0  0  0  0  0  0  0  0  0  0
    1.7648    1.4479   -0.6152 H   0  0  0  0  0  0  0  0  0  0  0  0
    4.0105    2.4673   -0.5518 H   0  0  0  0  0  0  0  0  0  0  0  0
    5.8585    2.9142   -1.6314 H   0  0  0  0  0  0  0  0  0  0  0  0
    8.1454    3.8308   -1.5602 H   0  0  0  0  0  0  0  0  0  0  0  0
    9.9556    2.5786   -0.4842 H   0  0  0  0  0  0  0  0  0  0  0  0
    9.4247    0.3870    0.5197 H   0  0  0  0  0  0  0  0  0  0  0  0
    7.1426   -0.5278    0.4485 H   0  0  0  0  0  0  0  0  0  0  0  0
    5.7265   -1.4225   -0.7227 H   0  0  0  0  0  0  0  0  0  0  0  0
    3.4593   -2.4192   -0.7771 H   0  0  0  0  0  0  0  0  0  0  0  0
   -0.3740    1.2196    1.1935 H   0  0  0  0  0  0  0  0  0  0  0  0
  1  2  2  0
  2  3  1  0
  2  4  1  0
  2  5  1  0
  5  6  1  0
  6  7  1  0
  7  8  2  0
  8  9  1  0
  9 10  2  0
 10 11  1  0
 11 12  2  0
 12 13  1  0
 13 14  2  0
 14 15  1  0
 15 16  2  0
  5 17  1  0
 17 18  1  0
 18 19  1  0
 19 20  1  0
 20 21  2  0
 21 22  1  0
 22 23  2  0
 23 24  1  0
 24 25  2  0
 25 26  1  0
 26 27  2  0
 27 28  1  0
 28 29  2  0
 23 30  1  0
 30 31  2  0
 18 32  1  0
 32 33  2  0
 33 34  1  0
 34 35  2  0
 35 36  1  0
 16  7  1  0
 31 20  1  0
 36 32  1  0
 15 10  1  0
 29 24  1  0
  3 37  1  0
  4 38  1  0
  5 39  1  0
  6 40  1  0
  6 41  1  0
  8 42  1  0
  9 43  1  0
 11 44  1  0
 12 45  1  0
 13 46  1  0
 14 47  1  0
 16 48  1  0
 17 49  1  0
 18 50  1  1
 19 51  1  0
 19 52  1  0
 21 53  1  0
 22 54  1  0
 25 55  1  0
 26 56  1  0
 27 57  1  0
 28 58  1  0
 29 59  1  0
 30 60  1  0
 31 61  1  0
 36 62  1  0
M  END
$$$$
