
     RDKit          3D

 73 77  0  0  0  0  0  0  0  0999 V2000
   -5.5891    1.3055    1.6858 C   0  0  0  0  0  0  0  0  0  0  0  0
   -5.7328    1.7250    0.2442 C   0  0  0  0  0  0  0  0  0  0  0  0
   -4.9532    0.7380   -0.6081 C   0  0  1  0  0  0  0  0  0  0  0  0
   -3.5442    0.6909   -0.2467 C   0  0  0  0  0  0  0  0  0  0  0  0
   -2.9872    1.7627    0.1879 O   0  0  0  0  0  0  0  0  0  0  0  0
   -2.6968   -0.4356   -0.3259 N   0  0  0  0  0  0  0  0  0  0  0  0
   -1.3332   -0.3667    0.0575 C   0  0  0  0  0  0  0  0  0  0  0  0
   -1.0003   -0.6260    1.3602 C   0  0  0  0  0  0  0  0  0  0  0  0
    0.3260   -0.5542    1.7101 C   0  0  0  0  0  0  0  0  0  0  0  0
    1.2947   -0.2271    0.7626 C   0  0  0  0  0  0  0  0  0  0  0  0
    0.9725    0.0381   -0.5614 C   0  0  0  0  0  0  0  0  0  0  0  0
    1.7248    0.3856   -1.6907 C   0  0  0  0  0  0  0  0  0  0  0  0
    3.1722    0.5003   -1.6820 C   0  0  0  0  0  0  0  0  0  0  0  0
    3.8543    0.0960   -0.5614 N   0  0  0  0  0  0  0  0  0  0  0  0
    5.1725    0.1680   -0.4242 C   0  0  0  0  0  0  0  0  0  0  0  0
    5.8209   -0.2802    0.7792 N   0  0  0  0  0  0  0  0  0  0  0  0
    7.2120   -0.2262    0.9755 C   0  0  0  0  0  0  0  0  0  0  0  0
    8.2181    0.2279    0.1585 C   0  0  0  0  0  0  0  0  0  0  0  0
    9.4190    0.0777    0.7869 N   0  0  0  0  0  0  0  0  0  0  0  0
   10.7225    0.4335    0.2672 C   0  0  0  0  0  0  0  0  0  0  0  0
    9.1653   -0.4503    1.9502 N   0  0  0  0  0  0  0  0  0  0  0  0
    7.8520   -0.6553    2.1186 C   0  0  0  0  0  0  0  0  0  0  0  0
    7.2773   -1.1968    3.2380 O   0  0  0  0  0  0  0  0  0  0  0  0
    8.0392   -1.6010    4.3512 C   0  0  0  0  0  0  0  0  0  0  0  0
    5.8651    0.6705   -1.4556 N   0  0  0  0  0  0  0  0  0  0  0  0
    5.2739    1.0878   -2.5831 C   0  0  0  0  0  0  0  0  0  0  0  0
    3.8767    1.0124   -2.7290 C   0  0  0  0  0  0  0  0  0  0  0  0
    3.2495    1.5158   -3.9626 C   0  0  0  0  0  0  0  0  0  0  0  0
    0.8053    0.5089   -2.6880 C   0  0  0  0  0  0  0  0  0  0  0  0
   -0.4361    0.2518   -2.1904 N   0  0  0  0  0  0  0  0  0  0  0  0
   -0.3684   -0.0418   -0.8827 C   0  0  0  0  0  0  0  0  0  0  0  0
   -5.6741   -0.4480   -0.7992 N   0  0  0  0  0  0  0  0  0  0  0  0
   -6.8087   -0.3773   -1.6400 C   0  0  0  0  0  0  0  0  0  0  0  0
   -8.0854   -0.5965   -0.8742 C   0  0  0  0  0  0  0  0  0  0  0  0
   -7.9156   -1.1774    0.3931 N   0  0  0  0  0  0  0  0  0  0  0  0
   -8.8191   -0.8867    1.4240 C   0  0  0  0  0  0  0  0  0  0  0  0
   -6.8144   -2.0147    0.6309 C   0  0  0  0  0  0  0  0  0  0  0  0
   -5.5006   -1.5510    0.0425 C   0  0  0  0  0  0  0  0  0  0  0  0
   -5.7786    2.1498    2.3860 H   0  0  0  0  0  0  0  0  0  0  0  0
   -4.5855    0.8521    1.8599 H   0  0  0  0  0  0  0  0  0  0  0  0
   -6.3382    0.5254    1.8961 H   0  0  0  0  0  0  0  0  0  0  0  0
   -5.3138    2.7579    0.1390 H   0  0  0  0  0  0  0  0  0  0  0  0
   -6.8014    1.7267   -0.0242 H   0  0  0  0  0  0  0  0  0  0  0  0
   -4.9814    1.2353   -1.6799 H   0  0  0  0  0  0  0  0  0  0  0  0
   -3.0232   -1.3548   -0.6760 H   0  0  0  0  0  0  0  0  0  0  0  0
   -1.7643   -0.8819    2.1021 H   0  0  0  0  0  0  0  0  0  0  0  0
    0.6548   -0.7469    2.7178 H   0  0  0  0  0  0  0  0  0  0  0  0
    2.3283   -0.1818    1.0948 H   0  0  0  0  0  0  0  0  0  0  0  0
    5.2234   -0.6720    1.5616 H   0  0  0  0  0  0  0  0  0  0  0  0
    8.0986    0.6391   -0.8228 H   0  0  0  0  0  0  0  0  0  0  0  0
   11.2484    1.1388    0.9415 H   0  0  0  0  0  0  0  0  0  0  0  0
   11.3587   -0.4574    0.1156 H   0  0  0  0  0  0  0  0  0  0  0  0
   10.6372    0.9427   -0.7142 H   0  0  0  0  0  0  0  0  0  0  0  0
    8.4589   -2.6139    4.2463 H   0  0  0  0  0  0  0  0  0  0  0  0
    7.4774   -1.5215    5.3039 H   0  0  0  0  0  0  0  0  0  0  0  0
    8.9065   -0.9046    4.4308 H   0  0  0  0  0  0  0  0  0  0  0  0
    5.8100    1.4941   -3.4240 H   0  0  0  0  0  0  0  0  0  0  0  0
    2.5299    2.2911   -3.7149 H   0  0  0  0  0  0  0  0  0  0  0  0
    2.9826    0.7353   -4.6625 H   0  0  0  0  0  0  0  0  0  0  0  0
    4.0483    2.1142   -4.5520 H   0  0  0  0  0  0  0  0  0  0  0  0
    0.9645    0.7467   -3.7280 H   0  0  0  0  0  0  0  0  0  0  0  0
   -1.3262    0.2806   -2.7593 H   0  0  0  0  0  0  0  0  0  0  0  0
   -6.7867   -1.1148   -2.4845 H   0  0  0  0  0  0  0  0  0  0  0  0
   -6.8077    0.6633   -2.0911 H   0  0  0  0  0  0  0  0  0  0  0  0
   -8.8185   -1.2100   -1.4957 H   0  0  0  0  0  0  0  0  0  0  0  0
   -8.6134    0.4036   -0.7946 H   0  0  0  0  0  0  0  0  0  0  0  0
   -9.8486   -1.2017    1.1371 H   0  0  0  0  0  0  0  0  0  0  0  0
   -8.5635   -1.5368    2.3079 H   0  0  0  0  0  0  0  0  0  0  0  0
   -8.8013    0.1648    1.7894 H   0  0  0  0  0  0  0  0  0  0  0  0
   -7.0769   -3.0359    0.2195 H   0  0  0  0  0  0  0  0  0  0  0  0
   -6.6899   -2.1207    1.7382 H   0  0  0  0  0  0  0  0  0  0  0  0
   -4.7975   -1.3047    0.8704 H   0  0  0  0  0  0  0  0  0  0  0  0
   -5.0657   -2.4487   -0.4532 H   0  0  0  0  0  0  0  0  0  0  0  0
  1  2  1  0
  2  3  1  0
  3  4  1  0
  4  5  2  0
  4  6  1  0
  6  7  1  0
  7  8  2  0
  8  9  1  0
  9 10  2  0
 10 11  1  0
 11 12  1  0
 12 13  1  0
 13 14  2  0
 14 15  1  0
 15 16  1  0
 16 17  1  0
 17 18  2  0
 18 19  1  0
 19 20  1  0
 19 21  1  0
 21 22  2  0
 22 23  1  0
 23 24  1  0
 15 25  2  0
 25 26  1  0
 26 27  2  0
 27 28  1  0
 12 29  2  0
 29 30  1  0
 30 31  1  0
  3 32  1  0
 32 33  1  0
 33 34  1  0
 34 35  1  0
 35 36  1  0
 35 37  1  0
 37 38  1  0
 31  7  1  0
 38 32  1  0
 31 11  2  0
 27 13  1  0
 22 17  1  0
  1 39  1  0
  1 40  1  0
  1 41  1  0
  2 42  1  0
  2 43  1  0
  3 44  1  6
  6 45  1  0
  8 46  1  0
  9 47  1  0
 10 48  1  0
 16 49  1  0
 18 50  1  0
 20 51  1  0
 20 52  1  0
 20 53  1  0
 24 54  1  0
 24 55  1  0
 24 56  1  0
 26 57  1  0
 28 58  1  0
 28 59  1  0
 28 60  1  0
 29 61  1  0
 30 62  1  0
 33 63  1  0
 33 64  1  0
 34 65  1  0
 34 66  1  0
 36 67  1  0
 36 68  1  0
 36 69  1  0
 37 70  1  0
 37 71  1  0
 38 72  1  0
 38 73  1  0
M  END
$$$$
