
     RDKit          3D

 54 58  0  0  0  0  0  0  0  0999 V2000
   -6.0764    2.0332   -0.3708 C   0  0  0  0  0  0  0  0  0  0  0  0
   -5.3750    1.2718   -1.4801 C   0  0  2  0  0  0  0  0  0  0  0  0
   -6.1938    0.0403   -1.8122 C   0  0  0  0  0  0  0  0  0  0  0  0
   -5.5600   -0.9426   -0.9671 N   0  0  0  0  0  0  0  0  0  0  0  0
   -4.4189   -0.5721   -0.5391 C   0  0  0  0  0  0  0  0  0  0  0  0
   -3.4406   -1.3021    0.3615 C   0  0  2  0  0  0  0  0  0  0  0  0
   -3.1445   -0.5853    1.6700 C   0  0  0  0  0  0  0  0  0  0  0  0
   -2.1357   -0.7277    0.5672 C   0  0  1  0  0  0  0  0  0  0  0  0
   -0.9380   -1.5960    0.6458 C   0  0  1  0  0  0  0  0  0  0  0  0
   -0.4879   -1.7970   -0.8269 C   0  0  0  0  0  0  0  0  0  0  0  0
    0.2014   -0.8849    1.2929 C   0  0  0  0  0  0  0  0  0  0  0  0
    1.2330   -0.2777    0.5494 C   0  0  0  0  0  0  0  0  0  0  0  0
    2.2175    0.4420    1.1761 C   0  0  0  0  0  0  0  0  0  0  0  0
    3.2866    1.0860    0.4588 C   0  0  0  0  0  0  0  0  0  0  0  0
    4.1341    0.4825   -0.3179 C   0  0  0  0  0  0  0  0  0  0  0  0
    4.1017   -0.8469   -0.5400 F   0  0  0  0  0  0  0  0  0  0  0  0
    5.1910    1.2903   -0.9930 C   0  0  0  0  0  0  0  0  0  0  0  0
    6.1719    0.6702   -1.7025 C   0  0  0  0  0  0  0  0  0  0  0  0
    7.1829    1.4238   -2.3226 C   0  0  0  0  0  0  0  0  0  0  0  0
    7.1488    2.7945   -2.1922 C   0  0  0  0  0  0  0  0  0  0  0  0
    8.1726    3.6722   -2.7326 C   0  0  0  0  0  0  0  0  0  0  0  0
    8.9842    4.3852   -3.1718 N   0  0  0  0  0  0  0  0  0  0  0  0
    6.1310    3.3731   -1.4648 C   0  0  0  0  0  0  0  0  0  0  0  0
    5.1829    2.6157   -0.8854 N   0  0  0  0  0  0  0  0  0  0  0  0
    2.2317    0.5891    2.5376 C   0  0  0  0  0  0  0  0  0  0  0  0
    1.2586    0.0192    3.3087 C   0  0  0  0  0  0  0  0  0  0  0  0
    0.2810   -0.6987    2.6385 C   0  0  0  0  0  0  0  0  0  0  0  0
   -0.6567   -1.2653    3.4422 F   0  0  0  0  0  0  0  0  0  0  0  0
   -1.0646   -2.8954    1.1214 N   0  0  0  0  0  0  0  0  0  0  0  0
   -2.0648   -3.6791    1.1538 C   0  0  0  0  0  0  0  0  0  0  0  0
   -1.9172   -4.9791    1.7059 N   0  0  0  0  0  0  0  0  0  0  0  0
   -3.6079   -3.0648    0.4968 S   0  0  0  0  0  0  0  0  0  0  0  0
   -4.1687    0.7059   -1.0564 O   0  0  0  0  0  0  0  0  0  0  0  0
   -6.7133    1.3081    0.1715 H   0  0  0  0  0  0  0  0  0  0  0  0
   -6.7697    2.8000   -0.7522 H   0  0  0  0  0  0  0  0  0  0  0  0
   -5.3262    2.4342    0.3563 H   0  0  0  0  0  0  0  0  0  0  0  0
   -5.2744    1.8760   -2.3950 H   0  0  0  0  0  0  0  0  0  0  0  0
   -7.2496    0.2219   -1.6231 H   0  0  0  0  0  0  0  0  0  0  0  0
   -6.0284   -0.2772   -2.8733 H   0  0  0  0  0  0  0  0  0  0  0  0
   -3.6738    0.3800    1.8146 H   0  0  0  0  0  0  0  0  0  0  0  0
   -3.1268   -1.1850    2.5899 H   0  0  0  0  0  0  0  0  0  0  0  0
   -1.9541    0.2601    0.0357 H   0  0  0  0  0  0  0  0  0  0  0  0
    0.4836   -2.2990   -0.7764 H   0  0  0  0  0  0  0  0  0  0  0  0
   -1.2013   -2.5518   -1.2548 H   0  0  0  0  0  0  0  0  0  0  0  0
   -0.5232   -0.8621   -1.3968 H   0  0  0  0  0  0  0  0  0  0  0  0
    1.2182   -0.4040   -0.5216 H   0  0  0  0  0  0  0  0  0  0  0  0
    3.3930    2.1587    0.5678 H   0  0  0  0  0  0  0  0  0  0  0  0
    6.2669   -0.3840   -1.8505 H   0  0  0  0  0  0  0  0  0  0  0  0
    7.9636    0.9590   -2.8746 H   0  0  0  0  0  0  0  0  0  0  0  0
    6.1030    4.4696   -1.3651 H   0  0  0  0  0  0  0  0  0  0  0  0
    3.0491    1.1812    3.0225 H   0  0  0  0  0  0  0  0  0  0  0  0
    1.2611    0.1205    4.3666 H   0  0  0  0  0  0  0  0  0  0  0  0
   -1.4933   -5.1919    2.6201 H   0  0  0  0  0  0  0  0  0  0  0  0
   -2.2642   -5.7945    1.1567 H   0  0  0  0  0  0  0  0  0  0  0  0
  1  2  1  0
  2  3  1  0
  3  4  1  0
  4  5  2  0
  6  5  1  6
  6  7  1  0
  7  8  1  0
  8  9  1  0
  9 10  1  6
  9 11  1  0
 11 12  2  0
 12 13  1  0
 13 14  1  0
 14 15  2  0
 15 16  1  0
 15 17  1  0
 17 18  2  0
 18 19  1  0
 19 20  2  0
 20 21  1  0
 21 22  3  0
 20 23  1  0
 23 24  2  0
 13 25  2  0
 25 26  1  0
 26 27  2  0
 27 28  1  0
  9 29  1  0
 29 30  2  0
 30 31  1  0
 30 32  1  0
  5 33  1  0
 33  2  1  0
  8  6  1  0
 27 11  1  0
 32  6  1  0
 24 17  1  0
  1 34  1  0
  1 35  1  0
  1 36  1  0
  2 37  1  6
  3 38  1  0
  3 39  1  0
  7 40  1  0
  7 41  1  0
  8 42  1  6
 10 43  1  0
 10 44  1  0
 10 45  1  0
 12 46  1  0
 14 47  1  0
 18 48  1  0
 19 49  1  0
 23 50  1  0
 25 51  1  0
 26 52  1  0
 31 53  1  0
 31 54  1  0
M  END
$$$$
