
     RDKit          3D

 15 14  0  0  0  0  0  0  0  0999 V2000
    2.2109    0.4214    0.7642 N   0  0  0  0  0  0  0  0  0  0  0  0
    1.1915   -0.1777   -0.0663 C   0  0  0  0  0  0  0  0  0  0  0  0
    1.1762    0.0902   -1.3475 N   0  0  0  0  0  0  0  0  0  0  0  0
    0.1653   -1.0697    0.4177 N   0  0  0  0  0  0  0  0  0  0  0  0
   -1.1159   -1.0050   -0.2661 C   0  0  0  0  0  0  0  0  0  0  0  0
   -1.7146    0.3176    0.0642 C   0  0  0  0  0  0  0  0  0  0  0  0
   -2.8930    0.9551   -0.2730 O   0  0  0  0  0  0  0  0  0  0  0  0
   -0.9436    0.9498    0.8116 O   0  0  0  0  0  0  0  0  0  0  0  0
    2.7285   -0.0148    1.5567 H   0  0  0  0  0  0  0  0  0  0  0  0
    2.4191    1.4279    0.4923 H   0  0  0  0  0  0  0  0  0  0  0  0
    1.8851    0.7292   -1.7856 H   0  0  0  0  0  0  0  0  0  0  0  0
    0.4924   -1.6724    1.2343 H   0  0  0  0  0  0  0  0  0  0  0  0
   -1.7698   -1.7587    0.2163 H   0  0  0  0  0  0  0  0  0  0  0  0
   -1.0337   -1.1561   -1.3412 H   0  0  0  0  0  0  0  0  0  0  0  0
   -2.7985    1.9632   -0.4776 H   0  0  0  0  0  0  0  0  0  0  0  0
  1  2  1  0
  2  3  2  3
  2  4  1  0
  4  5  1  0
  5  6  1  0
  6  7  1  0
  6  8  2  0
  1  9  1  0
  1 10  1  0
  3 11  1  0
  4 12  1  0
  5 13  1  0
  5 14  1  0
  7 15  1  0
M  END
$$$$
