
     RDKit          3D

 58 62  0  0  0  0  0  0  0  0999 V2000
   -3.8524    0.6701   -2.8932 C   0  0  0  0  0  0  0  0  0  0  0  0
   -3.8664    0.2499   -1.4687 C   0  0  0  0  0  0  0  0  0  0  0  0
   -5.0738   -0.2075   -0.9247 C   0  0  0  0  0  0  0  0  0  0  0  0
   -5.1376   -0.5988    0.3614 N   0  0  0  0  0  0  0  0  0  0  0  0
   -6.1588   -1.0664    1.0950 C   0  0  0  0  0  0  0  0  0  0  0  0
   -7.5516   -1.3187    0.7741 C   0  0  0  0  0  0  0  0  0  0  0  0
   -8.4550   -1.8211    1.7180 C   0  0  0  0  0  0  0  0  0  0  0  0
   -9.6482   -1.9448    1.1376 N   0  0  0  0  0  0  0  0  0  0  0  0
   -9.6069   -1.5645   -0.1157 N   0  0  0  0  0  0  0  0  0  0  0  0
   -8.3138   -1.1773   -0.3439 C   0  0  0  0  0  0  0  0  0  0  0  0
   -5.5834   -1.2941    2.3588 C   0  0  0  0  0  0  0  0  0  0  0  0
   -4.2867   -0.9635    2.3249 N   0  0  0  0  0  0  0  0  0  0  0  0
   -4.0130   -0.5339    1.0897 C   0  0  0  0  0  0  0  0  0  0  0  0
   -2.7760   -0.0839    0.5951 C   0  0  0  0  0  0  0  0  0  0  0  0
   -1.6453   -0.0445    1.4345 N   0  0  0  0  0  0  0  0  0  0  0  0
   -0.3684    0.3596    1.0412 C   0  0  0  0  0  0  0  0  0  0  0  0
   -0.0293    0.7655   -0.2134 C   0  0  0  0  0  0  0  0  0  0  0  0
    1.2895    1.1529   -0.4980 C   0  0  0  0  0  0  0  0  0  0  0  0
    2.2614    1.1361    0.4588 C   0  0  0  0  0  0  0  0  0  0  0  0
    3.6177    1.5335    0.1578 C   0  0  0  0  0  0  0  0  0  0  0  0
    3.8547    2.7450   -0.0535 O   0  0  0  0  0  0  0  0  0  0  0  0
    4.6373    0.5458    0.1095 N   0  0  0  0  0  0  0  0  0  0  0  0
    4.2668   -0.8384    0.3821 C   0  0  0  0  0  0  0  0  0  0  0  0
    5.2478   -1.8205   -0.1547 C   0  0  0  0  0  0  0  0  0  0  0  0
    5.9319   -1.2274   -1.2890 N   0  0  0  0  0  0  0  0  0  0  0  0
    6.8133   -0.1532   -0.8184 C   0  0  0  0  0  0  0  0  0  0  0  0
    5.9761    0.9650   -0.2047 C   0  0  0  0  0  0  0  0  0  0  0  0
    5.9233    2.0739   -1.2533 C   0  0  0  0  0  0  0  0  0  0  0  0
    6.7126    1.5385    0.9817 C   0  0  0  0  0  0  0  0  0  0  0  0
    1.9047    0.7264    1.7138 C   0  0  0  0  0  0  0  0  0  0  0  0
    0.6251    0.3470    2.0020 C   0  0  0  0  0  0  0  0  0  0  0  0
    0.3633   -0.0450    3.2705 F   0  0  0  0  0  0  0  0  0  0  0  0
   -2.7905    0.2845   -0.6785 N   0  0  0  0  0  0  0  0  0  0  0  0
   -4.8492    0.9831   -3.2396 H   0  0  0  0  0  0  0  0  0  0  0  0
   -3.4321   -0.1114   -3.5668 H   0  0  0  0  0  0  0  0  0  0  0  0
   -3.1894    1.5731   -2.9913 H   0  0  0  0  0  0  0  0  0  0  0  0
   -5.9436   -0.2388   -1.5465 H   0  0  0  0  0  0  0  0  0  0  0  0
   -8.2667   -2.0789    2.7494 H   0  0  0  0  0  0  0  0  0  0  0  0
  -10.3850   -1.5419   -0.8411 H   0  0  0  0  0  0  0  0  0  0  0  0
   -7.9915   -0.8128   -1.3032 H   0  0  0  0  0  0  0  0  0  0  0  0
   -6.1032   -1.6769    3.2227 H   0  0  0  0  0  0  0  0  0  0  0  0
   -1.7625   -0.3486    2.4654 H   0  0  0  0  0  0  0  0  0  0  0  0
   -0.7555    0.7968   -1.0103 H   0  0  0  0  0  0  0  0  0  0  0  0
    1.4891    1.4601   -1.5014 H   0  0  0  0  0  0  0  0  0  0  0  0
    4.1634   -0.9848    1.4910 H   0  0  0  0  0  0  0  0  0  0  0  0
    3.2405   -0.9765   -0.0390 H   0  0  0  0  0  0  0  0  0  0  0  0
    5.9640   -2.1335    0.6371 H   0  0  0  0  0  0  0  0  0  0  0  0
    4.7592   -2.7588   -0.5049 H   0  0  0  0  0  0  0  0  0  0  0  0
    6.5614   -1.9527   -1.7138 H   0  0  0  0  0  0  0  0  0  0  0  0
    7.4719   -0.5957   -0.0361 H   0  0  0  0  0  0  0  0  0  0  0  0
    7.3838    0.2002   -1.7096 H   0  0  0  0  0  0  0  0  0  0  0  0
    6.8527    1.9912   -1.8955 H   0  0  0  0  0  0  0  0  0  0  0  0
    6.0123    3.0831   -0.8025 H   0  0  0  0  0  0  0  0  0  0  0  0
    5.0207    1.9716   -1.8868 H   0  0  0  0  0  0  0  0  0  0  0  0
    6.3189    2.5491    1.2108 H   0  0  0  0  0  0  0  0  0  0  0  0
    7.7802    1.6404    0.6545 H   0  0  0  0  0  0  0  0  0  0  0  0
    6.7150    0.8613    1.8627 H   0  0  0  0  0  0  0  0  0  0  0  0
    2.6773    0.7111    2.4875 H   0  0  0  0  0  0  0  0  0  0  0  0
  1  2  1  0
  2  3  2  0
  3  4  1  0
  4  5  1  0
  5  6  1  0
  6  7  1  0
  7  8  2  0
  8  9  1  0
  9 10  1  0
  5 11  2  0
 11 12  1  0
 12 13  2  0
 13 14  1  0
 14 15  1  0
 15 16  1  0
 16 17  2  0
 17 18  1  0
 18 19  2  0
 19 20  1  0
 20 21  2  0
 20 22  1  0
 22 23  1  0
 23 24  1  0
 24 25  1  0
 25 26  1  0
 26 27  1  0
 27 28  1  0
 27 29  1  0
 19 30  1  0
 30 31  2  0
 31 32  1  0
 14 33  2  0
 33  2  1  0
 13  4  1  0
 31 16  1  0
 10  6  2  0
 27 22  1  0
  1 34  1  0
  1 35  1  0
  1 36  1  0
  3 37  1  0
  7 38  1  0
  9 39  1  0
 10 40  1  0
 11 41  1  0
 15 42  1  0
 17 43  1  0
 18 44  1  0
 23 45  1  0
 23 46  1  0
 24 47  1  0
 24 48  1  0
 25 49  1  0
 26 50  1  0
 26 51  1  0
 28 52  1  0
 28 53  1  0
 28 54  1  0
 29 55  1  0
 29 56  1  0
 29 57  1  0
 30 58  1  0
M  END
$$$$
