
     RDKit          3D

 38 39  0  0  0  0  0  0  0  0999 V2000
    6.3540   -0.4219   -0.1171 C   0  0  0  0  0  0  0  0  0  0  0  0
    5.0295   -0.3073    0.3742 O   0  0  0  0  0  0  0  0  0  0  0  0
    4.0125   -0.2854   -0.5693 C   0  0  0  0  0  0  0  0  0  0  0  0
    4.2186   -0.3610   -1.8010 O   0  0  0  0  0  0  0  0  0  0  0  0
    2.6447   -0.1658   -0.0370 C   0  0  0  0  0  0  0  0  0  0  0  0
    2.1645    1.1227    0.1207 C   0  0  0  0  0  0  0  0  0  0  0  0
    2.9758    2.3222   -0.2249 C   0  0  0  0  0  0  0  0  0  0  0  0
    0.8987    1.3601    0.6104 C   0  0  0  0  0  0  0  0  0  0  0  0
    0.0703    0.3160    0.9590 C   0  0  0  0  0  0  0  0  0  0  0  0
   -1.2036    0.2973    1.4578 O   0  0  0  0  0  0  0  0  0  0  0  0
   -2.3723    0.2583    0.7143 C   0  0  0  0  0  0  0  0  0  0  0  0
   -2.8712    1.1354   -0.2260 C   0  0  0  0  0  0  0  0  0  0  0  0
   -2.0384    2.2258   -0.4367 O   0  0  0  0  0  0  0  0  0  0  0  0
   -4.0748    0.8727   -0.8367 C   0  0  0  0  0  0  0  0  0  0  0  0
   -4.4469    1.8450   -1.7596 O   0  0  0  0  0  0  0  0  0  0  0  0
   -4.8057   -0.2564   -0.5317 C   0  0  0  0  0  0  0  0  0  0  0  0
   -4.3251   -1.1475    0.4062 C   0  0  0  0  0  0  0  0  0  0  0  0
   -5.1548   -2.3447    0.6934 C   0  0  0  0  0  0  0  0  0  0  0  0
   -3.1139   -0.8877    1.0240 C   0  0  0  0  0  0  0  0  0  0  0  0
    0.5636   -0.9831    0.7965 C   0  0  0  0  0  0  0  0  0  0  0  0
    1.8456   -1.2191    0.3004 C   0  0  0  0  0  0  0  0  0  0  0  0
    2.3598   -2.4932    0.1291 O   0  0  0  0  0  0  0  0  0  0  0  0
    6.4203   -1.0520   -1.0324 H   0  0  0  0  0  0  0  0  0  0  0  0
    6.7418    0.5831   -0.3613 H   0  0  0  0  0  0  0  0  0  0  0  0
    7.0025   -0.8863    0.6578 H   0  0  0  0  0  0  0  0  0  0  0  0
    3.9931    1.9678   -0.5339 H   0  0  0  0  0  0  0  0  0  0  0  0
    2.5741    2.8516   -1.1086 H   0  0  0  0  0  0  0  0  0  0  0  0
    3.0369    2.9705    0.6711 H   0  0  0  0  0  0  0  0  0  0  0  0
    0.4278    2.3220    0.7723 H   0  0  0  0  0  0  0  0  0  0  0  0
   -2.0874    2.6332   -1.3819 H   0  0  0  0  0  0  0  0  0  0  0  0
   -4.7818    2.7293   -1.4032 H   0  0  0  0  0  0  0  0  0  0  0  0
   -5.7321   -0.3382   -1.0857 H   0  0  0  0  0  0  0  0  0  0  0  0
   -4.5039   -3.2144    0.9652 H   0  0  0  0  0  0  0  0  0  0  0  0
   -5.7157   -2.6653   -0.2162 H   0  0  0  0  0  0  0  0  0  0  0  0
   -5.9265   -2.1616    1.4789 H   0  0  0  0  0  0  0  0  0  0  0  0
   -2.8455   -1.6563    1.7365 H   0  0  0  0  0  0  0  0  0  0  0  0
    0.0257   -1.9153    1.0288 H   0  0  0  0  0  0  0  0  0  0  0  0
    2.6401   -3.0502    0.9343 H   0  0  0  0  0  0  0  0  0  0  0  0
  1  2  1  0
  2  3  1  0
  3  4  2  0
  3  5  1  0
  5  6  2  0
  6  7  1  0
  6  8  1  0
  8  9  2  0
  9 10  1  0
 10 11  1  0
 11 12  2  0
 12 13  1  0
 12 14  1  0
 14 15  1  0
 14 16  2  0
 16 17  1  0
 17 18  1  0
 17 19  2  0
  9 20  1  0
 20 21  2  0
 21 22  1  0
 21  5  1  0
 19 11  1  0
  1 23  1  0
  1 24  1  0
  1 25  1  0
  7 26  1  0
  7 27  1  0
  7 28  1  0
  8 29  1  0
 13 30  1  0
 15 31  1  0
 16 32  1  0
 18 33  1  0
 18 34  1  0
 18 35  1  0
 19 36  1  0
 20 37  1  0
 22 38  1  0
M  END
$$$$
