
     RDKit          3D

115116  0  0  0  0  0  0  0  0999 V2000
   -8.4247    1.6960    2.3201 C   0  0  0  0  0  0  0  0  0  0  0  0
   -7.5324    0.4590    2.5660 C   0  0  0  0  0  0  0  0  0  0  0  0
   -6.4298    0.5039    1.5733 C   0  0  0  0  0  0  0  0  0  0  0  0
   -5.4164   -0.6071    1.6740 C   0  0  2  0  0  0  0  0  0  0  0  0
   -4.4283   -0.3739    0.6187 N   0  0  0  0  0  0  0  0  0  0  0  0
   -3.0746   -0.0087    0.9233 C   0  0  0  0  0  0  0  0  0  0  0  0
   -2.7479    0.1087    2.1111 O   0  0  0  0  0  0  0  0  0  0  0  0
   -2.1256    0.2161   -0.2073 C   0  0  2  0  0  0  0  0  0  0  0  0
   -1.5330   -1.1203   -0.5678 C   0  0  0  0  0  0  0  0  0  0  0  0
   -0.2437   -0.7449   -1.2347 C   0  0  0  0  0  0  0  0  0  0  0  0
    0.1809    0.5191   -0.4746 C   0  0  0  0  0  0  0  0  0  0  0  0
   -1.0058    1.0490    0.1302 N   0  0  0  0  0  0  0  0  0  0  0  0
   -1.0852    2.2291    0.9232 C   0  0  0  0  0  0  0  0  0  0  0  0
   -2.2793    2.4867    1.3673 O   0  0  0  0  0  0  0  0  0  0  0  0
   -0.0338    3.1523    1.2872 C   0  0  1  0  0  0  0  0  0  0  0  0
    1.2607    2.9451    0.7203 N   0  0  0  0  0  0  0  0  0  0  0  0
    1.8310    3.6780   -0.3717 C   0  0  0  0  0  0  0  0  0  0  0  0
    1.0671    4.5538   -0.8720 O   0  0  0  0  0  0  0  0  0  0  0  0
    3.2074    3.4463   -0.8880 C   0  0  1  0  0  0  0  0  0  0  0  0
    3.7739    2.5777    0.1146 N   0  0  0  0  0  0  0  0  0  0  0  0
    4.3755    1.3564    0.1174 C   0  0  0  0  0  0  0  0  0  0  0  0
    4.5355    0.7121   -0.9148 O   0  0  0  0  0  0  0  0  0  0  0  0
    4.8672    0.7559    1.4119 C   0  0  2  0  0  0  0  0  0  0  0  0
    5.5387    1.7313    2.2992 C   0  0  0  0  0  0  0  0  0  0  0  0
    6.7188    2.3298    1.6504 C   0  0  0  0  0  0  0  0  0  0  0  0
    7.1072    1.9545    0.5460 O   0  0  0  0  0  0  0  0  0  0  0  0
    7.4375    3.3626    2.2923 O   0  0  0  0  0  0  0  0  0  0  0  0
    5.6860   -0.3886    1.1242 N   0  0  0  0  0  0  0  0  0  0  0  0
    5.2566   -1.7375    1.1873 C   0  0  0  0  0  0  0  0  0  0  0  0
    4.0954   -2.0219    1.5121 O   0  0  0  0  0  0  0  0  0  0  0  0
    6.2145   -2.8302    0.8550 C   0  0  2  0  0  0  0  0  0  0  0  0
    7.0658   -2.5400   -0.3102 C   0  0  0  0  0  0  0  0  0  0  0  0
    7.9907   -3.6671   -0.5766 C   0  0  0  0  0  0  0  0  0  0  0  0
    8.0528   -4.7127    0.1093 O   0  0  0  0  0  0  0  0  0  0  0  0
    8.8899   -3.6187   -1.6660 O   0  0  0  0  0  0  0  0  0  0  0  0
    5.6247   -4.1307    0.7978 N   0  0  0  0  0  0  0  0  0  0  0  0
    4.4134   -4.4607    0.1381 C   0  0  0  0  0  0  0  0  0  0  0  0
    3.8909   -5.8747    0.1593 C   0  0  0  0  0  0  0  0  0  0  0  0
    3.7927   -3.5531   -0.4596 O   0  0  0  0  0  0  0  0  0  0  0  0
    3.1249    2.8862   -2.2707 C   0  0  1  0  0  0  0  0  0  0  0  0
    2.1622    3.9266   -2.9875 C   0  0  0  0  0  0  0  0  0  0  0  0
    4.3407    3.1006   -3.1369 C   0  0  0  0  0  0  0  0  0  0  0  0
    5.6641    2.6375   -2.8177 C   0  0  0  0  0  0  0  0  0  0  0  0
   -0.5039    4.6248    1.1611 C   0  0  0  0  0  0  0  0  0  0  0  0
    0.6019    5.5272    1.5971 C   0  0  0  0  0  0  0  0  0  0  0  0
   -1.6258    4.7679    2.1982 C   0  0  0  0  0  0  0  0  0  0  0  0
   -6.0739   -1.9050    1.5960 C   0  0  0  0  0  0  0  0  0  0  0  0
   -6.9332   -2.2587    2.4611 O   0  0  0  0  0  0  0  0  0  0  0  0
   -5.7920   -2.8570    0.5408 C   0  0  0  0  0  0  0  0  0  0  0  0
   -4.9281   -2.6719   -0.3660 O   0  0  0  0  0  0  0  0  0  0  0  0
   -6.5157   -4.1001    0.4803 N   0  0  0  0  0  0  0  0  0  0  0  0
   -6.3044   -5.0907   -0.5307 C   0  0  0  0  0  0  0  0  0  0  0  0
   -6.9406   -4.6742   -1.7938 C   0  0  0  0  0  0  0  0  0  0  0  0
   -6.3178   -4.0224   -2.8323 C   0  0  0  0  0  0  0  0  0  0  0  0
   -7.0023   -3.6479   -3.9945 C   0  0  0  0  0  0  0  0  0  0  0  0
   -8.3396   -3.9369   -4.1105 C   0  0  0  0  0  0  0  0  0  0  0  0
   -8.9797   -4.5871   -3.0856 C   0  0  0  0  0  0  0  0  0  0  0  0
   -8.2977   -4.9547   -1.9386 C   0  0  0  0  0  0  0  0  0  0  0  0
   -9.1367    1.8142    3.1460 H   0  0  0  0  0  0  0  0  0  0  0  0
   -7.7661    2.5821    2.2925 H   0  0  0  0  0  0  0  0  0  0  0  0
   -8.9372    1.5729    1.3515 H   0  0  0  0  0  0  0  0  0  0  0  0
   -7.1784    0.5429    3.6098 H   0  0  0  0  0  0  0  0  0  0  0  0
   -8.1988   -0.4274    2.5005 H   0  0  0  0  0  0  0  0  0  0  0  0
   -6.8193    0.4900    0.5227 H   0  0  0  0  0  0  0  0  0  0  0  0
   -5.8827    1.4723    1.7028 H   0  0  0  0  0  0  0  0  0  0  0  0
   -4.9164   -0.4662    2.6795 H   0  0  0  0  0  0  0  0  0  0  0  0
   -4.6764   -0.4490   -0.3848 H   0  0  0  0  0  0  0  0  0  0  0  0
   -2.6921    0.5968   -1.0837 H   0  0  0  0  0  0  0  0  0  0  0  0
   -2.2083   -1.7137   -1.2062 H   0  0  0  0  0  0  0  0  0  0  0  0
   -1.2786   -1.6341    0.3825 H   0  0  0  0  0  0  0  0  0  0  0  0
    0.4691   -1.5696   -1.0728 H   0  0  0  0  0  0  0  0  0  0  0  0
   -0.4431   -0.5165   -2.2862 H   0  0  0  0  0  0  0  0  0  0  0  0
    0.6761    1.2199   -1.1760 H   0  0  0  0  0  0  0  0  0  0  0  0
    0.9411    0.1730    0.2641 H   0  0  0  0  0  0  0  0  0  0  0  0
    0.1355    3.1085    2.4148 H   0  0  0  0  0  0  0  0  0  0  0  0
    1.8831    2.1793    1.1272 H   0  0  0  0  0  0  0  0  0  0  0  0
    3.7793    4.3628   -0.9660 H   0  0  0  0  0  0  0  0  0  0  0  0
    3.6916    3.0539    1.0939 H   0  0  0  0  0  0  0  0  0  0  0  0
    3.9247    0.3345    1.8788 H   0  0  0  0  0  0  0  0  0  0  0  0
    4.8444    2.5070    2.7060 H   0  0  0  0  0  0  0  0  0  0  0  0
    5.8641    1.1733    3.2287 H   0  0  0  0  0  0  0  0  0  0  0  0
    8.4441    3.4023    2.2109 H   0  0  0  0  0  0  0  0  0  0  0  0
    6.7086   -0.2732    0.8395 H   0  0  0  0  0  0  0  0  0  0  0  0
    6.8772   -2.8493    1.7911 H   0  0  0  0  0  0  0  0  0  0  0  0
    6.4073   -2.4717   -1.2168 H   0  0  0  0  0  0  0  0  0  0  0  0
    7.7137   -1.6419   -0.2215 H   0  0  0  0  0  0  0  0  0  0  0  0
    9.6825   -4.2476   -1.7191 H   0  0  0  0  0  0  0  0  0  0  0  0
    6.0937   -4.9561    1.2800 H   0  0  0  0  0  0  0  0  0  0  0  0
    2.9867   -5.9686   -0.4599 H   0  0  0  0  0  0  0  0  0  0  0  0
    3.8098   -6.2815    1.1656 H   0  0  0  0  0  0  0  0  0  0  0  0
    4.6844   -6.4608   -0.3943 H   0  0  0  0  0  0  0  0  0  0  0  0
    2.6364    1.9480   -2.3960 H   0  0  0  0  0  0  0  0  0  0  0  0
    2.3749    3.9075   -4.0824 H   0  0  0  0  0  0  0  0  0  0  0  0
    2.3768    4.9352   -2.6556 H   0  0  0  0  0  0  0  0  0  0  0  0
    1.1331    3.6519   -2.8640 H   0  0  0  0  0  0  0  0  0  0  0  0
    4.0614    2.6929   -4.1671 H   0  0  0  0  0  0  0  0  0  0  0  0
    4.4362    4.2182   -3.3943 H   0  0  0  0  0  0  0  0  0  0  0  0
    5.8623    1.5597   -3.1027 H   0  0  0  0  0  0  0  0  0  0  0  0
    6.0369    2.7708   -1.7951 H   0  0  0  0  0  0  0  0  0  0  0  0
    6.4689    3.1662   -3.4424 H   0  0  0  0  0  0  0  0  0  0  0  0
   -0.9501    4.8347    0.1917 H   0  0  0  0  0  0  0  0  0  0  0  0
    0.5941    6.4502    0.9768 H   0  0  0  0  0  0  0  0  0  0  0  0
    0.4004    5.9165    2.6506 H   0  0  0  0  0  0  0  0  0  0  0  0
    1.5950    5.0548    1.7009 H   0  0  0  0  0  0  0  0  0  0  0  0
   -1.5260    5.7476    2.7226 H   0  0  0  0  0  0  0  0  0  0  0  0
   -1.5420    3.9844    2.9740 H   0  0  0  0  0  0  0  0  0  0  0  0
   -2.6159    4.7336    1.7148 H   0  0  0  0  0  0  0  0  0  0  0  0
   -7.2432   -4.2732    1.2362 H   0  0  0  0  0  0  0  0  0  0  0  0
   -6.7698   -6.0525   -0.2013 H   0  0  0  0  0  0  0  0  0  0  0  0
   -5.2295   -5.2901   -0.7175 H   0  0  0  0  0  0  0  0  0  0  0  0
   -5.2822   -3.8000   -2.7646 H   0  0  0  0  0  0  0  0  0  0  0  0
   -6.4588   -3.1301   -4.7883 H   0  0  0  0  0  0  0  0  0  0  0  0
   -8.8338   -3.6299   -5.0253 H   0  0  0  0  0  0  0  0  0  0  0  0
  -10.0409   -4.7919   -3.2335 H   0  0  0  0  0  0  0  0  0  0  0  0
   -8.8207   -5.4597   -1.1541 H   0  0  0  0  0  0  0  0  0  0  0  0
  1  2  1  0
  2  3  1  0
  3  4  1  0
  4  5  1  0
  5  6  1  0
  6  7  2  0
  6  8  1  0
  8  9  1  0
  9 10  1  0
 10 11  1  0
 11 12  1  0
 12 13  1  0
 13 14  2  0
 13 15  1  0
 15 16  1  0
 16 17  1  0
 17 18  2  0
 17 19  1  0
 19 20  1  0
 20 21  1  0
 21 22  2  0
 21 23  1  0
 23 24  1  0
 24 25  1  0
 25 26  2  0
 25 27  1  0
 23 28  1  0
 28 29  1  0
 29 30  2  0
 29 31  1  0
 31 32  1  0
 32 33  1  0
 33 34  2  0
 33 35  1  0
 31 36  1  0
 36 37  1  0
 37 38  1  0
 37 39  2  0
 19 40  1  0
 40 41  1  0
 40 42  1  0
 42 43  1  0
 15 44  1  0
 44 45  1  0
 44 46  1  0
  4 47  1  0
 47 48  2  0
 47 49  1  0
 49 50  2  0
 49 51  1  0
 51 52  1  0
 52 53  1  0
 53 54  2  0
 54 55  1  0
 55 56  2  0
 56 57  1  0
 57 58  2  0
 12  8  1  0
 58 53  1  0
  1 59  1  0
  1 60  1  0
  1 61  1  0
  2 62  1  0
  2 63  1  0
  3 64  1  0
  3 65  1  0
  4 66  1  1
  5 67  1  0
  8 68  1  6
  9 69  1  0
  9 70  1  0
 10 71  1  0
 10 72  1  0
 11 73  1  0
 11 74  1  0
 15 75  1  1
 16 76  1  0
 19 77  1  6
 20 78  1  0
 23 79  1  1
 24 80  1  0
 24 81  1  0
 27 82  1  0
 28 83  1  0
 31 84  1  1
 32 85  1  0
 32 86  1  0
 35 87  1  0
 36 88  1  0
 38 89  1  0
 38 90  1  0
 38 91  1  0
 40 92  1  1
 41 93  1  0
 41 94  1  0
 41 95  1  0
 42 96  1  0
 42 97  1  0
 43 98  1  0
 43 99  1  0
 43100  1  0
 44101  1  0
 45102  1  0
 45103  1  0
 45104  1  0
 46105  1  0
 46106  1  0
 46107  1  0
 51108  1  0
 52109  1  0
 52110  1  0
 54111  1  0
 55112  1  0
 56113  1  0
 57114  1  0
 58115  1  0
M  END
$$$$
