
     RDKit          3D

 37 38  0  0  0  0  0  0  0  0999 V2000
   -2.0537   -0.0398    2.8576 C   0  0  0  0  0  0  0  0  0  0  0  0
   -1.5249    0.9467    1.8715 C   0  0  0  0  0  0  0  0  0  0  0  0
   -0.5565    0.3909    0.9643 N   0  0  0  0  0  0  0  0  0  0  0  0
    0.8148    0.4050    1.2928 C   0  0  0  0  0  0  0  0  0  0  0  0
    1.1411    0.9214    2.4045 O   0  0  0  0  0  0  0  0  0  0  0  0
    1.8315   -0.1513    0.3948 C   0  0  0  0  0  0  0  0  0  0  0  0
    2.1911   -1.4785    0.5044 C   0  0  0  0  0  0  0  0  0  0  0  0
    3.1556   -2.0396   -0.3349 C   0  0  0  0  0  0  0  0  0  0  0  0
    3.7560   -1.2619   -1.2831 C   0  0  0  0  0  0  0  0  0  0  0  0
    4.9766   -1.9576   -2.3507 Cl  0  0  0  0  0  0  0  0  0  0  0  0
    3.3796    0.0612   -1.3728 C   0  0  0  0  0  0  0  0  0  0  0  0
    4.1611    1.0375   -2.5935 Cl  0  0  0  0  0  0  0  0  0  0  0  0
    2.4249    0.6244   -0.5451 C   0  0  0  0  0  0  0  0  0  0  0  0
    2.0818    2.0583   -0.7130 C   0  0  0  0  0  0  0  0  0  0  0  0
   -0.9633   -0.1830   -0.2889 C   0  0  2  0  0  0  0  0  0  0  0  0
   -1.7535    0.8056   -1.1344 C   0  0  0  0  0  0  0  0  0  0  0  0
   -3.0639    0.1403   -1.4804 C   0  0  0  0  0  0  0  0  0  0  0  0
   -2.7123   -1.2675   -1.3905 N   0  0  0  0  0  0  0  0  0  0  0  0
   -1.9151   -1.3467   -0.1594 C   0  0  0  0  0  0  0  0  0  0  0  0
   -1.8950    0.3141    3.9174 H   0  0  0  0  0  0  0  0  0  0  0  0
   -1.5444   -1.0231    2.8134 H   0  0  0  0  0  0  0  0  0  0  0  0
   -3.1329   -0.1562    2.7200 H   0  0  0  0  0  0  0  0  0  0  0  0
   -1.1064    1.8133    2.4502 H   0  0  0  0  0  0  0  0  0  0  0  0
   -2.3953    1.4043    1.3247 H   0  0  0  0  0  0  0  0  0  0  0  0
    1.7576   -2.1483    1.2299 H   0  0  0  0  0  0  0  0  0  0  0  0
    3.4287   -3.0890   -0.2360 H   0  0  0  0  0  0  0  0  0  0  0  0
    1.1592    2.1926   -1.2999 H   0  0  0  0  0  0  0  0  0  0  0  0
    2.8923    2.5739   -1.2967 H   0  0  0  0  0  0  0  0  0  0  0  0
    2.0499    2.5923    0.2680 H   0  0  0  0  0  0  0  0  0  0  0  0
   -0.0689   -0.5479   -0.8303 H   0  0  0  0  0  0  0  0  0  0  0  0
   -1.1915    0.9380   -2.0979 H   0  0  0  0  0  0  0  0  0  0  0  0
   -1.9533    1.7510   -0.6317 H   0  0  0  0  0  0  0  0  0  0  0  0
   -3.8635    0.3934   -0.7346 H   0  0  0  0  0  0  0  0  0  0  0  0
   -3.3852    0.4094   -2.5035 H   0  0  0  0  0  0  0  0  0  0  0  0
   -2.1185   -1.4739   -2.2369 H   0  0  0  0  0  0  0  0  0  0  0  0
   -1.4022   -2.3189   -0.1804 H   0  0  0  0  0  0  0  0  0  0  0  0
   -2.6018   -1.2903    0.6813 H   0  0  0  0  0  0  0  0  0  0  0  0
  1  2  1  0
  2  3  1  0
  3  4  1  0
  4  5  2  0
  4  6  1  0
  6  7  2  0
  7  8  1  0
  8  9  2  0
  9 10  1  0
  9 11  1  0
 11 12  1  0
 11 13  2  0
 13 14  1  0
  3 15  1  0
 15 16  1  0
 16 17  1  0
 17 18  1  0
 18 19  1  0
 13  6  1  0
 19 15  1  0
  1 20  1  0
  1 21  1  0
  1 22  1  0
  2 23  1  0
  2 24  1  0
  7 25  1  0
  8 26  1  0
 14 27  1  0
 14 28  1  0
 14 29  1  0
 15 30  1  6
 16 31  1  0
 16 32  1  0
 17 33  1  0
 17 34  1  0
 18 35  1  0
 19 36  1  0
 19 37  1  0
M  END
$$$$
