
     RDKit          3D

 50 54  0  0  0  0  0  0  0  0999 V2000
    1.2095   -2.0053   -1.6822 C   0  0  1  0  0  0  0  0  0  0  0  0
    0.4104   -2.6760   -2.7740 C   0  0  0  0  0  0  0  0  0  0  0  0
   -0.9123   -1.9397   -2.6706 C   0  0  0  0  0  0  0  0  0  0  0  0
   -1.1293   -1.9885   -1.2364 N   0  0  0  0  0  0  0  0  0  0  0  0
   -2.3445   -2.2588   -0.4900 C   0  0  0  0  0  0  0  0  0  0  0  0
   -3.0166   -0.9535   -0.2659 C   0  0  0  0  0  0  0  0  0  0  0  0
   -2.7806   -0.1586    0.8383 C   0  0  0  0  0  0  0  0  0  0  0  0
   -3.4441    1.0434    0.9778 C   0  0  0  0  0  0  0  0  0  0  0  0
   -4.3432    1.4532    0.0165 C   0  0  0  0  0  0  0  0  0  0  0  0
   -5.0046    2.6622    0.1657 C   0  0  0  0  0  0  0  0  0  0  0  0
   -4.7597    3.4399    1.2669 C   0  0  0  0  0  0  0  0  0  0  0  0
   -3.8763    3.0606    2.2335 N   0  0  0  0  0  0  0  0  0  0  0  0
   -3.2405    1.8672    2.0606 C   0  0  0  0  0  0  0  0  0  0  0  0
   -2.3115    1.4361    3.0467 N   0  0  0  0  0  0  0  0  0  0  0  0
   -4.5978    0.6750   -1.0998 C   0  0  0  0  0  0  0  0  0  0  0  0
   -3.9307   -0.5212   -1.2285 C   0  0  0  0  0  0  0  0  0  0  0  0
    0.1500   -1.7044   -0.6813 C   0  0  0  0  0  0  0  0  0  0  0  0
    0.3968   -1.2599    0.4874 O   0  0  0  0  0  0  0  0  0  0  0  0
    2.1777   -2.8417   -1.0734 N   0  0  0  0  0  0  0  0  0  0  0  0
    3.7830   -2.2900   -1.0634 S   0  0  0  0  0  0  0  0  0  0  0  0
    4.5986   -3.3393   -0.3582 O   0  0  0  0  0  0  0  0  0  0  0  0
    4.3755   -2.1953   -2.4458 O   0  0  0  0  0  0  0  0  0  0  0  0
    4.0108   -0.8095   -0.2030 C   0  0  0  0  0  0  0  0  0  0  0  0
    4.7816   -0.5078    0.8799 C   0  0  0  0  0  0  0  0  0  0  0  0
    4.7893    0.7605    1.3821 C   0  0  0  0  0  0  0  0  0  0  0  0
    3.9693    1.7159    0.7256 C   0  0  0  0  0  0  0  0  0  0  0  0
    3.1846    0.6975   -0.6531 S   0  0  0  0  0  0  0  0  0  0  0  0
    3.8000    3.0385    1.0270 C   0  0  0  0  0  0  0  0  0  0  0  0
    4.5161    3.5075    2.1064 C   0  0  0  0  0  0  0  0  0  0  0  0
    5.3136    2.5848    2.7475 C   0  0  0  0  0  0  0  0  0  0  0  0
    5.4532    1.2915    2.4202 N   0  0  0  0  0  0  0  0  0  0  0  0
    1.6350   -1.0626   -2.0906 H   0  0  0  0  0  0  0  0  0  0  0  0
    0.8544   -2.5563   -3.7705 H   0  0  0  0  0  0  0  0  0  0  0  0
    0.1930   -3.7326   -2.5106 H   0  0  0  0  0  0  0  0  0  0  0  0
   -1.7188   -2.3988   -3.2604 H   0  0  0  0  0  0  0  0  0  0  0  0
   -0.7245   -0.8726   -2.9706 H   0  0  0  0  0  0  0  0  0  0  0  0
   -2.1166   -2.7426    0.4874 H   0  0  0  0  0  0  0  0  0  0  0  0
   -3.0592   -2.9104   -1.0371 H   0  0  0  0  0  0  0  0  0  0  0  0
   -2.0739   -0.4875    1.5874 H   0  0  0  0  0  0  0  0  0  0  0  0
   -5.7055    2.9381   -0.6248 H   0  0  0  0  0  0  0  0  0  0  0  0
   -5.3340    4.3635    1.2775 H   0  0  0  0  0  0  0  0  0  0  0  0
   -2.3183    0.5594    3.6248 H   0  0  0  0  0  0  0  0  0  0  0  0
   -2.1395    0.6449    3.7025 H   0  0  0  0  0  0  0  0  0  0  0  0
   -5.3007    0.9679   -1.8774 H   0  0  0  0  0  0  0  0  0  0  0  0
   -4.1315   -1.1321   -2.1061 H   0  0  0  0  0  0  0  0  0  0  0  0
    1.8965   -3.1267   -0.1332 H   0  0  0  0  0  0  0  0  0  0  0  0
    5.3693   -1.3035    1.3074 H   0  0  0  0  0  0  0  0  0  0  0  0
    3.1323    3.6053    0.4105 H   0  0  0  0  0  0  0  0  0  0  0  0
    4.4106    4.5428    2.3762 H   0  0  0  0  0  0  0  0  0  0  0  0
    5.9033    2.9196    3.6163 H   0  0  0  0  0  0  0  0  0  0  0  0
  1  2  1  0
  2  3  1  0
  3  4  1  0
  4  5  1  0
  5  6  1  0
  6  7  2  0
  7  8  1  0
  8  9  2  0
  9 10  1  0
 10 11  2  0
 11 12  1  0
 12 13  2  0
 13 14  1  0
  9 15  1  0
 15 16  2  0
  4 17  1  0
 17 18  2  0
  1 19  1  0
 19 20  1  0
 20 21  2  0
 20 22  2  0
 20 23  1  0
 23 24  2  0
 24 25  1  0
 25 26  2  0
 26 27  1  0
 26 28  1  0
 28 29  2  0
 29 30  1  0
 30 31  2  0
 17  1  1  0
 27 23  1  0
 16  6  1  0
 31 25  1  0
 13  8  1  0
  1 32  1  6
  2 33  1  0
  2 34  1  0
  3 35  1  0
  3 36  1  0
  5 37  1  0
  5 38  1  0
  7 39  1  0
 10 40  1  0
 11 41  1  0
 14 42  1  0
 14 43  1  0
 15 44  1  0
 16 45  1  0
 19 46  1  0
 24 47  1  0
 28 48  1  0
 29 49  1  0
 30 50  1  0
M  END
$$$$
