
     RDKit          3D

 37 39  0  0  0  0  0  0  0  0999 V2000
   -1.3369   -2.8903    2.4125 C   0  0  0  0  0  0  0  0  0  0  0  0
   -1.1001   -2.0515    1.2090 C   0  0  0  0  0  0  0  0  0  0  0  0
   -2.1273   -1.9209    0.3042 C   0  0  0  0  0  0  0  0  0  0  0  0
   -1.9033   -1.1434   -0.8083 C   0  0  0  0  0  0  0  0  0  0  0  0
   -2.8884   -0.9776   -1.7419 O   0  0  0  0  0  0  0  0  0  0  0  0
   -3.8330    0.0346   -1.7120 C   0  0  0  0  0  0  0  0  0  0  0  0
   -4.8047    0.1572   -2.6773 C   0  0  0  0  0  0  0  0  0  0  0  0
   -5.7175    1.1539   -2.6283 N   0  0  0  0  0  0  0  0  0  0  0  0
   -5.7262    2.0728   -1.6417 C   0  0  0  0  0  0  0  0  0  0  0  0
   -4.7582    1.9734   -0.6555 C   0  0  0  0  0  0  0  0  0  0  0  0
   -4.7785    2.9011    0.3273 F   0  0  0  0  0  0  0  0  0  0  0  0
   -3.8087    0.9538   -0.6879 C   0  0  0  0  0  0  0  0  0  0  0  0
   -0.6653   -0.5241   -0.9800 C   0  0  0  0  0  0  0  0  0  0  0  0
    0.3400   -0.6748   -0.0573 C   0  0  0  0  0  0  0  0  0  0  0  0
    1.6674   -0.0302   -0.2098 C   0  0  0  0  0  0  0  0  0  0  0  0
    1.8943    0.6815   -1.2136 O   0  0  0  0  0  0  0  0  0  0  0  0
    2.6737   -0.2036    0.7510 N   0  0  0  0  0  0  0  0  0  0  0  0
    3.9741    0.3457    0.7351 C   0  0  0  0  0  0  0  0  0  0  0  0
    4.4765    1.1523   -0.2381 C   0  0  0  0  0  0  0  0  0  0  0  0
    5.7674    1.6824   -0.2290 C   0  0  0  0  0  0  0  0  0  0  0  0
    6.5676    1.3585    0.8382 C   0  0  0  0  0  0  0  0  0  0  0  0
    8.1992    1.9823    0.9248 Cl  0  0  0  0  0  0  0  0  0  0  0  0
    6.0723    0.5355    1.8428 C   0  0  0  0  0  0  0  0  0  0  0  0
    4.8267    0.0624    1.7716 N   0  0  0  0  0  0  0  0  0  0  0  0
    0.0992   -1.4368    1.0187 N   0  0  0  0  0  0  0  0  0  0  0  0
   -0.4027   -3.3596    2.7792 H   0  0  0  0  0  0  0  0  0  0  0  0
   -1.8101   -2.3018    3.2352 H   0  0  0  0  0  0  0  0  0  0  0  0
   -2.0673   -3.6853    2.1542 H   0  0  0  0  0  0  0  0  0  0  0  0
   -3.0922   -2.4254    0.4734 H   0  0  0  0  0  0  0  0  0  0  0  0
   -4.8675   -0.5429   -3.5072 H   0  0  0  0  0  0  0  0  0  0  0  0
   -6.4777    2.8563   -1.6415 H   0  0  0  0  0  0  0  0  0  0  0  0
   -3.0899    0.9475    0.1177 H   0  0  0  0  0  0  0  0  0  0  0  0
   -0.4550    0.0945   -1.8434 H   0  0  0  0  0  0  0  0  0  0  0  0
    2.3871   -0.8350    1.5840 H   0  0  0  0  0  0  0  0  0  0  0  0
    3.8767    1.4213   -1.0806 H   0  0  0  0  0  0  0  0  0  0  0  0
    6.1370    2.3163   -1.0109 H   0  0  0  0  0  0  0  0  0  0  0  0
    6.7514    0.3201    2.6516 H   0  0  0  0  0  0  0  0  0  0  0  0
  1  2  1  0
  2  3  2  0
  3  4  1  0
  4  5  1  0
  5  6  1  0
  6  7  2  0
  7  8  1  0
  8  9  2  0
  9 10  1  0
 10 11  1  0
 10 12  2  0
  4 13  2  0
 13 14  1  0
 14 15  1  0
 15 16  2  0
 15 17  1  0
 17 18  1  0
 18 19  2  0
 19 20  1  0
 20 21  2  0
 21 22  1  0
 21 23  1  0
 23 24  2  0
 14 25  2  0
 25  2  1  0
 12  6  1  0
 24 18  1  0
  1 26  1  0
  1 27  1  0
  1 28  1  0
  3 29  1  0
  7 30  1  0
  9 31  1  0
 12 32  1  0
 13 33  1  0
 17 34  1  0
 19 35  1  0
 20 36  1  0
 23 37  1  0
M  END
$$$$
