
     RDKit          3D

 57 61  0  0  0  0  0  0  0  0999 V2000
   -8.7823    2.0520    0.7707 F   0  0  0  0  0  0  0  0  0  0  0  0
   -7.5455    1.4945    0.6523 C   0  0  0  0  0  0  0  0  0  0  0  0
   -7.1663    0.7968   -0.4876 C   0  0  0  0  0  0  0  0  0  0  0  0
   -5.9092    0.2662   -0.5353 C   0  0  0  0  0  0  0  0  0  0  0  0
   -4.9987    0.4024    0.5203 C   0  0  0  0  0  0  0  0  0  0  0  0
   -5.3736    1.0860    1.6334 C   0  0  0  0  0  0  0  0  0  0  0  0
   -6.6409    1.6322    1.7052 C   0  0  0  0  0  0  0  0  0  0  0  0
   -3.7623   -0.2477    0.2062 N   0  0  0  0  0  0  0  0  0  0  0  0
   -2.5903    0.4549    0.2433 C   0  0  0  0  0  0  0  0  0  0  0  0
   -1.6007   -0.4497   -0.1071 C   0  0  0  0  0  0  0  0  0  0  0  0
   -0.1716   -0.0710   -0.1870 C   0  0  0  0  0  0  0  0  0  0  0  0
    0.5912   -0.1724    1.0814 C   0  0  0  0  0  0  0  0  0  0  0  0
    1.6078    0.9215    1.2746 C   0  0  0  0  0  0  0  0  0  0  0  0
    2.1831    1.4814    0.1295 N   0  0  0  0  0  0  0  0  0  0  0  0
    3.5744    1.3879   -0.0761 C   0  0  0  0  0  0  0  0  0  0  0  0
    4.0896    0.0156   -0.3494 C   0  0  0  0  0  0  0  0  0  0  0  0
    5.5261    0.1328   -0.5364 N   0  0  0  0  0  0  0  0  0  0  0  0
    6.3952    0.0203    0.6270 C   0  0  0  0  0  0  0  0  0  0  0  0
    7.7686    0.3831    0.1620 C   0  0  0  0  0  0  0  0  0  0  0  0
    7.7272    0.3595   -1.2734 N   0  0  0  0  0  0  0  0  0  0  0  0
    6.3412    0.3494   -1.6622 C   0  0  0  0  0  0  0  0  0  0  0  0
    5.8737    0.5038   -2.8117 O   0  0  0  0  0  0  0  0  0  0  0  0
    1.3890    1.5660   -1.0589 C   0  0  0  0  0  0  0  0  0  0  0  0
   -0.0569    1.3491   -0.7434 C   0  0  0  0  0  0  0  0  0  0  0  0
   -2.1804   -1.6769   -0.3495 C   0  0  0  0  0  0  0  0  0  0  0  0
   -3.5459   -1.5411   -0.1497 C   0  0  0  0  0  0  0  0  0  0  0  0
   -4.4356   -2.5813   -0.3097 C   0  0  0  0  0  0  0  0  0  0  0  0
   -3.9242   -3.8175   -0.6892 C   0  0  0  0  0  0  0  0  0  0  0  0
   -2.5544   -3.9633   -0.8921 C   0  0  0  0  0  0  0  0  0  0  0  0
   -1.9245   -5.5354   -1.3742 Cl  0  0  0  0  0  0  0  0  0  0  0  0
   -1.6527   -2.9076   -0.7295 C   0  0  0  0  0  0  0  0  0  0  0  0
   -7.9141    0.7355   -1.2486 H   0  0  0  0  0  0  0  0  0  0  0  0
   -5.7261   -0.2604   -1.4828 H   0  0  0  0  0  0  0  0  0  0  0  0
   -4.5991    1.1285    2.3772 H   0  0  0  0  0  0  0  0  0  0  0  0
   -6.8767    2.1635    2.6191 H   0  0  0  0  0  0  0  0  0  0  0  0
   -2.4546    1.4903    0.4903 H   0  0  0  0  0  0  0  0  0  0  0  0
    0.3712   -0.7011   -0.9503 H   0  0  0  0  0  0  0  0  0  0  0  0
    1.0968   -1.1743    1.1982 H   0  0  0  0  0  0  0  0  0  0  0  0
   -0.1080   -0.1368    1.9447 H   0  0  0  0  0  0  0  0  0  0  0  0
    2.3960    0.5627    1.9481 H   0  0  0  0  0  0  0  0  0  0  0  0
    1.0941    1.7547    1.8389 H   0  0  0  0  0  0  0  0  0  0  0  0
    3.8323    2.0321   -0.9543 H   0  0  0  0  0  0  0  0  0  0  0  0
    4.0940    1.8370    0.7933 H   0  0  0  0  0  0  0  0  0  0  0  0
    3.8352   -0.6870    0.4412 H   0  0  0  0  0  0  0  0  0  0  0  0
    3.6366   -0.3441   -1.3117 H   0  0  0  0  0  0  0  0  0  0  0  0
    6.0833    0.7845    1.3843 H   0  0  0  0  0  0  0  0  0  0  0  0
    6.4244   -0.9880    1.0494 H   0  0  0  0  0  0  0  0  0  0  0  0
    8.5469   -0.3374    0.5158 H   0  0  0  0  0  0  0  0  0  0  0  0
    8.0780    1.3977    0.5347 H   0  0  0  0  0  0  0  0  0  0  0  0
    8.5566    0.3519   -1.8895 H   0  0  0  0  0  0  0  0  0  0  0  0
    1.5078    2.5838   -1.4824 H   0  0  0  0  0  0  0  0  0  0  0  0
    1.6819    0.8417   -1.8423 H   0  0  0  0  0  0  0  0  0  0  0  0
   -0.4725    2.0589   -0.0105 H   0  0  0  0  0  0  0  0  0  0  0  0
   -0.6857    1.3487   -1.6546 H   0  0  0  0  0  0  0  0  0  0  0  0
   -5.4970   -2.4500   -0.1487 H   0  0  0  0  0  0  0  0  0  0  0  0
   -4.5571   -4.6816   -0.8363 H   0  0  0  0  0  0  0  0  0  0  0  0
   -0.5953   -3.0022   -0.8815 H   0  0  0  0  0  0  0  0  0  0  0  0
  1  2  1  0
  2  3  2  0
  3  4  1  0
  4  5  2  0
  5  6  1  0
  6  7  2  0
  5  8  1  0
  8  9  1  0
  9 10  2  0
 10 11  1  0
 11 12  1  0
 12 13  1  0
 13 14  1  0
 14 15  1  0
 15 16  1  0
 16 17  1  0
 17 18  1  0
 18 19  1  0
 19 20  1  0
 20 21  1  0
 21 22  2  0
 14 23  1  0
 23 24  1  0
 10 25  1  0
 25 26  2  0
 26 27  1  0
 27 28  2  0
 28 29  1  0
 29 30  1  0
 29 31  2  0
  7  2  1  0
 26  8  1  0
 24 11  1  0
 31 25  1  0
 21 17  1  0
  3 32  1  0
  4 33  1  0
  6 34  1  0
  7 35  1  0
  9 36  1  0
 11 37  1  0
 12 38  1  0
 12 39  1  0
 13 40  1  0
 13 41  1  0
 15 42  1  0
 15 43  1  0
 16 44  1  0
 16 45  1  0
 18 46  1  0
 18 47  1  0
 19 48  1  0
 19 49  1  0
 20 50  1  0
 23 51  1  0
 23 52  1  0
 24 53  1  0
 24 54  1  0
 27 55  1  0
 28 56  1  0
 31 57  1  0
M  END
$$$$
