
     RDKit          3D

 51 53  0  0  0  0  0  0  0  0999 V2000
    5.1216   -1.8051    2.2300 C   0  0  0  0  0  0  0  0  0  0  0  0
    4.5253   -1.2232    0.9749 C   0  0  0  0  0  0  0  0  0  0  0  0
    3.0941   -0.9858    1.1663 C   0  0  0  0  0  0  0  0  0  0  0  0
    2.5708   -1.2799    2.2785 O   0  0  0  0  0  0  0  0  0  0  0  0
    2.2425   -0.4372    0.1652 N   0  0  0  0  0  0  0  0  0  0  0  0
    2.6747   -0.0489   -1.1506 C   0  0  0  0  0  0  0  0  0  0  0  0
    1.4677   -0.3427   -2.0229 C   0  0  0  0  0  0  0  0  0  0  0  0
    0.3282   -0.5897   -1.1058 C   0  0  2  0  0  0  0  0  0  0  0  0
   -0.9389   -0.0102   -1.4572 N   0  0  0  0  0  0  0  0  0  0  0  0
   -2.0731   -0.9355   -1.2833 C   0  0  0  0  0  0  0  0  0  0  0  0
   -2.1569   -1.4065    0.1242 C   0  0  0  0  0  0  0  0  0  0  0  0
   -1.7313   -2.6807    0.4140 C   0  0  0  0  0  0  0  0  0  0  0  0
   -1.7790   -3.1920    1.7112 C   0  0  0  0  0  0  0  0  0  0  0  0
   -1.3534   -4.4474    1.9678 F   0  0  0  0  0  0  0  0  0  0  0  0
   -2.2560   -2.4242    2.7262 C   0  0  0  0  0  0  0  0  0  0  0  0
   -2.6795   -1.1587    2.4410 C   0  0  0  0  0  0  0  0  0  0  0  0
   -2.6366   -0.6437    1.1635 C   0  0  0  0  0  0  0  0  0  0  0  0
   -3.1135    0.7565    0.8827 C   0  0  0  0  0  0  0  0  0  0  0  0
   -1.1696    1.3301   -1.8652 C   0  0  0  0  0  0  0  0  0  0  0  0
   -2.3967    1.7679   -2.3078 C   0  0  0  0  0  0  0  0  0  0  0  0
   -2.6053    3.1027   -2.6578 C   0  0  0  0  0  0  0  0  0  0  0  0
   -1.5839    4.0221   -2.5696 C   0  0  0  0  0  0  0  0  0  0  0  0
   -1.8155    5.3966   -2.9315 C   0  0  0  0  0  0  0  0  0  0  0  0
   -2.0109    6.4847   -3.2022 N   0  0  0  0  0  0  0  0  0  0  0  0
   -0.3431    3.6247   -2.1321 C   0  0  0  0  0  0  0  0  0  0  0  0
    0.9795    4.7887   -2.0109 Cl  0  0  0  0  0  0  0  0  0  0  0  0
   -0.1624    2.2997   -1.7915 C   0  0  0  0  0  0  0  0  0  0  0  0
    0.8295   -0.1654    0.2555 C   0  0  0  0  0  0  0  0  0  0  0  0
    4.3396   -1.9934    2.9976 H   0  0  0  0  0  0  0  0  0  0  0  0
    5.5725   -2.8063    2.0051 H   0  0  0  0  0  0  0  0  0  0  0  0
    5.9581   -1.1950    2.6355 H   0  0  0  0  0  0  0  0  0  0  0  0
    5.0824   -0.3339    0.6171 H   0  0  0  0  0  0  0  0  0  0  0  0
    4.6154   -1.9671    0.1297 H   0  0  0  0  0  0  0  0  0  0  0  0
    2.9502    1.0244   -1.1461 H   0  0  0  0  0  0  0  0  0  0  0  0
    3.5923   -0.5799   -1.4769 H   0  0  0  0  0  0  0  0  0  0  0  0
    1.3165    0.3426   -2.8521 H   0  0  0  0  0  0  0  0  0  0  0  0
    1.7768   -1.3152   -2.5583 H   0  0  0  0  0  0  0  0  0  0  0  0
    0.2533   -1.7181   -1.0133 H   0  0  0  0  0  0  0  0  0  0  0  0
   -1.8990   -1.8312   -1.9540 H   0  0  0  0  0  0  0  0  0  0  0  0
   -3.0367   -0.5567   -1.5515 H   0  0  0  0  0  0  0  0  0  0  0  0
   -1.3440   -3.3524   -0.3276 H   0  0  0  0  0  0  0  0  0  0  0  0
   -2.2991   -2.8130    3.7494 H   0  0  0  0  0  0  0  0  0  0  0  0
   -3.0608   -0.5319    3.2237 H   0  0  0  0  0  0  0  0  0  0  0  0
   -2.2847    1.4773    0.8461 H   0  0  0  0  0  0  0  0  0  0  0  0
   -3.7949    0.7794    0.0235 H   0  0  0  0  0  0  0  0  0  0  0  0
   -3.7360    1.0599    1.7690 H   0  0  0  0  0  0  0  0  0  0  0  0
   -3.2233    1.0867   -2.4016 H   0  0  0  0  0  0  0  0  0  0  0  0
   -3.5881    3.3806   -2.9962 H   0  0  0  0  0  0  0  0  0  0  0  0
    0.8114    2.0530   -1.4410 H   0  0  0  0  0  0  0  0  0  0  0  0
    0.4070   -0.8421    1.0629 H   0  0  0  0  0  0  0  0  0  0  0  0
    0.5631    0.8352    0.5693 H   0  0  0  0  0  0  0  0  0  0  0  0
  1  2  1  0
  2  3  1  0
  3  4  2  0
  3  5  1  0
  5  6  1  0
  6  7  1  0
  7  8  1  0
  8  9  1  0
  9 10  1  0
 10 11  1  0
 11 12  2  0
 12 13  1  0
 13 14  1  0
 13 15  2  0
 15 16  1  0
 16 17  2  0
 17 18  1  0
  9 19  1  0
 19 20  2  0
 20 21  1  0
 21 22  2  0
 22 23  1  0
 23 24  3  0
 22 25  1  0
 25 26  1  0
 25 27  2  0
  8 28  1  0
 28  5  1  0
 17 11  1  0
 27 19  1  0
  1 29  1  0
  1 30  1  0
  1 31  1  0
  2 32  1  0
  2 33  1  0
  6 34  1  0
  6 35  1  0
  7 36  1  0
  7 37  1  0
  8 38  1  1
 10 39  1  0
 10 40  1  0
 12 41  1  0
 15 42  1  0
 16 43  1  0
 18 44  1  0
 18 45  1  0
 18 46  1  0
 20 47  1  0
 21 48  1  0
 27 49  1  0
 28 50  1  0
 28 51  1  0
M  END
$$$$
