
     RDKit          3D

 46 48  0  0  0  0  0  0  0  0999 V2000
    7.2726    1.9916    0.2591 C   0  0  0  0  0  0  0  0  0  0  0  0
    6.1418    1.0084    0.4105 C   0  0  0  0  0  0  0  0  0  0  0  0
    4.8120    1.5748   -0.0889 C   0  0  0  0  0  0  0  0  0  0  0  0
    3.7792    0.4916    0.1214 C   0  0  0  0  0  0  0  0  0  0  0  0
    2.4718    0.8945   -0.3225 N   0  0  0  0  0  0  0  0  0  0  0  0
    1.3910   -0.0107   -0.1572 C   0  0  0  0  0  0  0  0  0  0  0  0
    1.5527   -1.1906    0.4447 N   0  0  0  0  0  0  0  0  0  0  0  0
    0.5497   -2.0816    0.6175 C   0  0  0  0  0  0  0  0  0  0  0  0
   -0.7115   -1.7934    0.1649 C   0  0  0  0  0  0  0  0  0  0  0  0
   -1.8225   -2.6991    0.3132 C   0  0  0  0  0  0  0  0  0  0  0  0
   -1.7021   -3.9353    0.9254 C   0  0  0  0  0  0  0  0  0  0  0  0
   -2.7826   -4.8133    1.0625 C   0  0  0  0  0  0  0  0  0  0  0  0
   -4.0070   -4.4714    0.5888 C   0  0  0  0  0  0  0  0  0  0  0  0
   -4.1181   -3.2245   -0.0258 C   0  0  0  0  0  0  0  0  0  0  0  0
   -3.0592   -2.4082   -0.1389 N   0  0  0  0  0  0  0  0  0  0  0  0
   -0.9029   -0.5732   -0.4639 C   0  0  0  0  0  0  0  0  0  0  0  0
   -2.1670   -0.1734   -0.9618 N   0  0  0  0  0  0  0  0  0  0  0  0
   -2.8719    0.9434   -0.4355 C   0  0  0  0  0  0  0  0  0  0  0  0
   -4.1352    1.2161   -0.9096 C   0  0  0  0  0  0  0  0  0  0  0  0
   -4.8666    2.3075   -0.4461 C   0  0  0  0  0  0  0  0  0  0  0  0
   -4.3363    3.1493    0.5084 C   0  0  0  0  0  0  0  0  0  0  0  0
   -5.0475    4.2611    0.9976 O   0  0  0  0  0  0  0  0  0  0  0  0
   -3.0718    2.8700    0.9788 C   0  0  0  0  0  0  0  0  0  0  0  0
   -2.3324    1.7769    0.5190 C   0  0  0  0  0  0  0  0  0  0  0  0
    0.1500    0.2773   -0.6049 N   0  0  0  0  0  0  0  0  0  0  0  0
    8.2095    1.5063   -0.1207 H   0  0  0  0  0  0  0  0  0  0  0  0
    6.9732    2.8185   -0.3962 H   0  0  0  0  0  0  0  0  0  0  0  0
    7.5341    2.3456    1.2801 H   0  0  0  0  0  0  0  0  0  0  0  0
    6.0551    0.5600    1.3974 H   0  0  0  0  0  0  0  0  0  0  0  0
    6.3664    0.1634   -0.2989 H   0  0  0  0  0  0  0  0  0  0  0  0
    4.8758    1.8486   -1.1381 H   0  0  0  0  0  0  0  0  0  0  0  0
    4.5854    2.4578    0.5659 H   0  0  0  0  0  0  0  0  0  0  0  0
    4.0987   -0.3638   -0.5447 H   0  0  0  0  0  0  0  0  0  0  0  0
    3.7904    0.1076    1.1492 H   0  0  0  0  0  0  0  0  0  0  0  0
    2.2619    1.8148   -0.7593 H   0  0  0  0  0  0  0  0  0  0  0  0
    0.7262   -3.0198    1.1066 H   0  0  0  0  0  0  0  0  0  0  0  0
   -0.7771   -4.2942    1.3301 H   0  0  0  0  0  0  0  0  0  0  0  0
   -2.6636   -5.7800    1.5480 H   0  0  0  0  0  0  0  0  0  0  0  0
   -4.8507   -5.1453    0.6915 H   0  0  0  0  0  0  0  0  0  0  0  0
   -5.1080   -2.9615   -0.4028 H   0  0  0  0  0  0  0  0  0  0  0  0
   -2.5601   -0.7405   -1.7429 H   0  0  0  0  0  0  0  0  0  0  0  0
   -4.6199    0.5991   -1.6601 H   0  0  0  0  0  0  0  0  0  0  0  0
   -5.8569    2.5321   -0.8083 H   0  0  0  0  0  0  0  0  0  0  0  0
   -5.2401    5.0742    0.3930 H   0  0  0  0  0  0  0  0  0  0  0  0
   -2.6332    3.5273    1.7347 H   0  0  0  0  0  0  0  0  0  0  0  0
   -1.3530    1.5621    0.8815 H   0  0  0  0  0  0  0  0  0  0  0  0
  1  2  1  0
  2  3  1  0
  3  4  1  0
  4  5  1  0
  5  6  1  0
  6  7  2  0
  7  8  1  0
  8  9  2  0
  9 10  1  0
 10 11  2  0
 11 12  1  0
 12 13  2  0
 13 14  1  0
 14 15  2  0
  9 16  1  0
 16 17  1  0
 17 18  1  0
 18 19  2  0
 19 20  1  0
 20 21  2  0
 21 22  1  0
 21 23  1  0
 23 24  2  0
 16 25  2  0
 25  6  1  0
 15 10  1  0
 24 18  1  0
  1 26  1  0
  1 27  1  0
  1 28  1  0
  2 29  1  0
  2 30  1  0
  3 31  1  0
  3 32  1  0
  4 33  1  0
  4 34  1  0
  5 35  1  0
  8 36  1  0
 11 37  1  0
 12 38  1  0
 13 39  1  0
 14 40  1  0
 17 41  1  0
 19 42  1  0
 20 43  1  0
 22 44  1  0
 23 45  1  0
 24 46  1  0
M  END
$$$$
