
     RDKit          3D

 92 98  0  0  0  0  0  0  0  0999 V2000
    1.6441    4.5958    1.6755 C   0  0  0  0  0  0  0  0  0  0  0  0
    0.6719    4.7693    0.5485 C   0  0  0  0  0  0  0  0  0  0  0  0
   -0.4175    3.9341    0.5095 C   0  0  0  0  0  0  0  0  0  0  0  0
   -1.3353    4.0458   -0.5013 C   0  0  0  0  0  0  0  0  0  0  0  0
   -2.5167    3.1378   -0.5391 C   0  0  0  0  0  0  0  0  0  0  0  0
   -2.0776    1.8920   -1.3206 C   0  0  1  0  0  0  0  0  0  0  0  0
   -0.9825    1.2873   -0.6333 N   0  0  0  0  0  0  0  0  0  0  0  0
    0.3021    1.0920   -1.2476 C   0  0  0  0  0  0  0  0  0  0  0  0
    0.3672    1.5074   -2.4591 O   0  0  0  0  0  0  0  0  0  0  0  0
    1.4164    0.5103   -0.6385 N   0  0  0  0  0  0  0  0  0  0  0  0
    1.4039    0.0456    0.7029 C   0  0  0  0  0  0  0  0  0  0  0  0
    2.7228   -0.4918    1.1828 C   0  0  0  0  0  0  0  0  0  0  0  0
    3.8458    0.4139    0.8027 C   0  0  0  0  0  0  0  0  0  0  0  0
    5.1415   -0.2418    0.9587 N   0  0  0  0  0  0  0  0  0  0  0  0
    5.3950   -1.3926    0.1346 C   0  0  0  0  0  0  0  0  0  0  0  0
    6.7465   -1.9523    0.2857 C   0  0  0  0  0  0  0  0  0  0  0  0
    7.1061   -3.0220   -0.4899 C   0  0  0  0  0  0  0  0  0  0  0  0
    8.3566   -3.6137   -0.4017 C   0  0  0  0  0  0  0  0  0  0  0  0
    9.2381   -3.0834    0.5041 C   0  0  0  0  0  0  0  0  0  0  0  0
    8.8879   -2.0055    1.2917 C   0  0  0  0  0  0  0  0  0  0  0  0
    9.7890   -1.4935    2.1912 F   0  0  0  0  0  0  0  0  0  0  0  0
    7.6473   -1.4322    1.1913 C   0  0  0  0  0  0  0  0  0  0  0  0
    7.3517   -0.3235    2.0083 N   0  0  0  0  0  0  0  0  0  0  0  0
    6.0663    0.2868    1.8897 C   0  0  0  0  0  0  0  0  0  0  0  0
    5.7251    1.2845    2.5883 O   0  0  0  0  0  0  0  0  0  0  0  0
    3.7499    0.9740   -0.5937 C   0  0  0  0  0  0  0  0  0  0  0  0
    2.6407    0.3666   -1.4082 C   0  0  0  0  0  0  0  0  0  0  0  0
   -3.2620    1.0998   -1.6151 C   0  0  0  0  0  0  0  0  0  0  0  0
   -4.1490    1.7691   -2.3151 O   0  0  0  0  0  0  0  0  0  0  0  0
   -3.5752   -0.2403   -1.2629 N   0  0  0  0  0  0  0  0  0  0  0  0
   -4.8573   -0.7196   -1.7323 C   0  0  0  0  0  0  0  0  0  0  0  0
   -4.8279   -2.1844   -2.0267 C   0  0  0  0  0  0  0  0  0  0  0  0
   -4.3733   -2.9549   -0.7885 C   0  0  0  0  0  0  0  0  0  0  0  0
   -5.3153   -2.7875    0.2933 N   0  0  0  0  0  0  0  0  0  0  0  0
   -6.6599   -3.1525   -0.0965 C   0  0  0  0  0  0  0  0  0  0  0  0
   -7.5532   -2.9769    1.1382 C   0  0  0  0  0  0  0  0  0  0  0  0
   -7.2679   -4.1818    2.0016 C   0  0  0  0  0  0  0  0  0  0  0  0
   -5.8145   -4.3510    2.1677 C   0  0  0  0  0  0  0  0  0  0  0  0
   -4.8928   -3.4084    1.5070 C   0  0  0  0  0  0  0  0  0  0  0  0
   -2.9920   -2.4935   -0.5186 C   0  0  0  0  0  0  0  0  0  0  0  0
   -2.7104   -1.0407   -0.4954 C   0  0  0  0  0  0  0  0  0  0  0  0
   -1.1434    5.0022   -1.4657 C   0  0  0  0  0  0  0  0  0  0  0  0
   -0.0553    5.8538   -1.4476 C   0  0  0  0  0  0  0  0  0  0  0  0
    0.4133    6.8878   -2.2385 C   0  0  0  0  0  0  0  0  0  0  0  0
    1.5398    7.3275   -1.6883 N   0  0  0  0  0  0  0  0  0  0  0  0
    1.8357    6.6451   -0.5876 N   0  0  0  0  0  0  0  0  0  0  0  0
    0.8577    5.7312   -0.4277 C   0  0  0  0  0  0  0  0  0  0  0  0
    2.1333    5.5464    1.9295 H   0  0  0  0  0  0  0  0  0  0  0  0
    1.1431    4.1268    2.5449 H   0  0  0  0  0  0  0  0  0  0  0  0
    2.4070    3.8771    1.2965 H   0  0  0  0  0  0  0  0  0  0  0  0
   -0.5810    3.1766    1.2627 H   0  0  0  0  0  0  0  0  0  0  0  0
   -2.8152    2.8378    0.4786 H   0  0  0  0  0  0  0  0  0  0  0  0
   -3.3656    3.6137   -1.0419 H   0  0  0  0  0  0  0  0  0  0  0  0
   -1.6512    2.2617   -2.3099 H   0  0  0  0  0  0  0  0  0  0  0  0
   -1.0521    0.9660    0.3782 H   0  0  0  0  0  0  0  0  0  0  0  0
    1.1293    0.8817    1.3810 H   0  0  0  0  0  0  0  0  0  0  0  0
    0.6119   -0.7395    0.7948 H   0  0  0  0  0  0  0  0  0  0  0  0
    2.8112   -1.5333    0.8465 H   0  0  0  0  0  0  0  0  0  0  0  0
    2.6647   -0.5326    2.2981 H   0  0  0  0  0  0  0  0  0  0  0  0
    3.8119    1.2867    1.5038 H   0  0  0  0  0  0  0  0  0  0  0  0
    4.6773   -2.2258    0.3569 H   0  0  0  0  0  0  0  0  0  0  0  0
    5.3066   -1.1023   -0.9521 H   0  0  0  0  0  0  0  0  0  0  0  0
    6.3902   -3.4241   -1.2012 H   0  0  0  0  0  0  0  0  0  0  0  0
    8.6492   -4.4629   -1.0141 H   0  0  0  0  0  0  0  0  0  0  0  0
   10.2258   -3.5371    0.5855 H   0  0  0  0  0  0  0  0  0  0  0  0
    8.0269    0.0825    2.7047 H   0  0  0  0  0  0  0  0  0  0  0  0
    3.5852    2.0841   -0.5763 H   0  0  0  0  0  0  0  0  0  0  0  0
    4.7257    0.8423   -1.1175 H   0  0  0  0  0  0  0  0  0  0  0  0
    2.5910    0.9643   -2.3592 H   0  0  0  0  0  0  0  0  0  0  0  0
    2.8299   -0.6653   -1.7342 H   0  0  0  0  0  0  0  0  0  0  0  0
   -5.1647   -0.1946   -2.6497 H   0  0  0  0  0  0  0  0  0  0  0  0
   -5.5770   -0.4665   -0.9168 H   0  0  0  0  0  0  0  0  0  0  0  0
   -4.0408   -2.3649   -2.8003 H   0  0  0  0  0  0  0  0  0  0  0  0
   -5.7784   -2.5079   -2.4346 H   0  0  0  0  0  0  0  0  0  0  0  0
   -4.3597   -4.0213   -1.0672 H   0  0  0  0  0  0  0  0  0  0  0  0
   -7.0742   -2.4722   -0.8665 H   0  0  0  0  0  0  0  0  0  0  0  0
   -6.7417   -4.2235   -0.3665 H   0  0  0  0  0  0  0  0  0  0  0  0
   -8.6357   -2.9542    0.8616 H   0  0  0  0  0  0  0  0  0  0  0  0
   -7.2406   -2.0800    1.6974 H   0  0  0  0  0  0  0  0  0  0  0  0
   -7.8399   -4.1518    2.9558 H   0  0  0  0  0  0  0  0  0  0  0  0
   -7.6733   -5.0590    1.4148 H   0  0  0  0  0  0  0  0  0  0  0  0
   -5.6024   -4.2749    3.2827 H   0  0  0  0  0  0  0  0  0  0  0  0
   -5.5513   -5.4353    1.9610 H   0  0  0  0  0  0  0  0  0  0  0  0
   -3.9724   -4.0185    1.2484 H   0  0  0  0  0  0  0  0  0  0  0  0
   -4.4896   -2.6154    2.1852 H   0  0  0  0  0  0  0  0  0  0  0  0
   -2.5489   -2.9222    0.4154 H   0  0  0  0  0  0  0  0  0  0  0  0
   -2.3431   -2.9693   -1.3283 H   0  0  0  0  0  0  0  0  0  0  0  0
   -1.6274   -0.9462   -0.8263 H   0  0  0  0  0  0  0  0  0  0  0  0
   -2.7541   -0.6442    0.5656 H   0  0  0  0  0  0  0  0  0  0  0  0
   -1.8603    5.1196   -2.2908 H   0  0  0  0  0  0  0  0  0  0  0  0
   -0.1037    7.2219   -3.1309 H   0  0  0  0  0  0  0  0  0  0  0  0
    2.6411    6.7397    0.0691 H   0  0  0  0  0  0  0  0  0  0  0  0
  1  2  1  0
  2  3  2  0
  3  4  1  0
  4  5  1  0
  5  6  1  0
  6  7  1  0
  7  8  1  0
  8  9  2  0
  8 10  1  0
 10 11  1  0
 11 12  1  0
 12 13  1  0
 13 14  1  0
 14 15  1  0
 15 16  1  0
 16 17  2  0
 17 18  1  0
 18 19  2  0
 19 20  1  0
 20 21  1  0
 20 22  2  0
 22 23  1  0
 23 24  1  0
 24 25  2  0
 13 26  1  0
 26 27  1  0
  6 28  1  0
 28 29  2  0
 28 30  1  0
 30 31  1  0
 31 32  1  0
 32 33  1  0
 33 34  1  0
 34 35  1  0
 35 36  1  0
 36 37  1  0
 37 38  1  0
 38 39  1  0
 33 40  1  0
 40 41  1  0
  4 42  2  0
 42 43  1  0
 43 44  1  0
 44 45  2  0
 45 46  1  0
 46 47  1  0
 47  2  1  0
 27 10  1  0
 41 30  1  0
 47 43  2  0
 24 14  1  0
 39 34  1  0
 22 16  1  0
  1 48  1  0
  1 49  1  0
  1 50  1  0
  3 51  1  0
  5 52  1  0
  5 53  1  0
  6 54  1  6
  7 55  1  0
 11 56  1  0
 11 57  1  0
 12 58  1  0
 12 59  1  0
 13 60  1  0
 15 61  1  0
 15 62  1  0
 17 63  1  0
 18 64  1  0
 19 65  1  0
 23 66  1  0
 26 67  1  0
 26 68  1  0
 27 69  1  0
 27 70  1  0
 31 71  1  0
 31 72  1  0
 32 73  1  0
 32 74  1  0
 33 75  1  0
 35 76  1  0
 35 77  1  0
 36 78  1  0
 36 79  1  0
 37 80  1  0
 37 81  1  0
 38 82  1  0
 38 83  1  0
 39 84  1  0
 39 85  1  0
 40 86  1  0
 40 87  1  0
 41 88  1  0
 41 89  1  0
 42 90  1  0
 44 91  1  0
 46 92  1  0
M  END
$$$$
