
     RDKit          3D

 56 59  0  0  0  0  0  0  0  0999 V2000
   -3.5446   -2.3387    0.9280 C   0  0  0  0  0  0  0  0  0  0  0  0
   -2.1544   -2.7131    0.6451 C   0  0  0  0  0  0  0  0  0  0  0  0
   -1.1144   -1.8275    0.5272 C   0  0  0  0  0  0  0  0  0  0  0  0
   -1.0939   -0.4337    0.6355 C   0  0  0  0  0  0  0  0  0  0  0  0
   -2.2096    0.2697    0.8947 O   0  0  0  0  0  0  0  0  0  0  0  0
   -2.4446    1.6166    1.0456 C   0  0  2  0  0  0  0  0  0  0  0  0
   -2.9993    1.9838    2.4266 C   0  0  0  0  0  0  0  0  0  0  0  0
   -3.4259    2.1860    0.0525 C   0  0  1  0  0  0  0  0  0  0  0  0
   -2.9675    2.0178   -1.3806 C   0  0  0  0  0  0  0  0  0  0  0  0
   -4.1737    1.7478   -2.1335 N   0  0  0  0  0  0  0  0  0  0  0  0
   -5.2469    1.4963   -1.2498 C   0  0  0  0  0  0  0  0  0  0  0  0
   -6.4175    1.2356   -1.6454 O   0  0  0  0  0  0  0  0  0  0  0  0
   -4.7947    1.5846    0.1627 C   0  0  0  0  0  0  0  0  0  0  0  0
    0.1222    0.1666    0.4627 C   0  0  0  0  0  0  0  0  0  0  0  0
    1.2803   -0.5529    0.1944 C   0  0  0  0  0  0  0  0  0  0  0  0
    2.5513    0.1407    0.0194 C   0  0  0  0  0  0  0  0  0  0  0  0
    2.9270    1.3093    0.6460 C   0  0  0  0  0  0  0  0  0  0  0  0
    4.1602    1.6281    0.2267 N   0  0  0  0  0  0  0  0  0  0  0  0
    4.6008    0.7125   -0.6478 N   0  0  0  0  0  0  0  0  0  0  0  0
    5.9039    0.7770   -1.2824 C   0  0  0  0  0  0  0  0  0  0  0  0
    6.3667    2.2248   -1.3885 C   0  0  0  0  0  0  0  0  0  0  0  0
    6.9551    0.0644   -0.4373 C   0  0  0  0  0  0  0  0  0  0  0  0
    5.8796    0.1876   -2.6165 C   0  0  0  0  0  0  0  0  0  0  0  0
    5.8480   -0.2636   -3.6695 N   0  0  0  0  0  0  0  0  0  0  0  0
    3.6237   -0.2006   -0.7806 C   0  0  0  0  0  0  0  0  0  0  0  0
    1.2255   -1.9279    0.0938 C   0  0  0  0  0  0  0  0  0  0  0  0
    0.0142   -2.5707    0.2623 C   0  0  0  0  0  0  0  0  0  0  0  0
   -0.3903   -3.8566    0.2325 N   0  0  0  0  0  0  0  0  0  0  0  0
   -1.6699   -3.9750    0.4558 N   0  0  0  0  0  0  0  0  0  0  0  0
   -2.5149   -5.1584    0.5142 C   0  0  0  0  0  0  0  0  0  0  0  0
   -3.9473   -1.5829    0.2230 H   0  0  0  0  0  0  0  0  0  0  0  0
   -4.2090   -3.2511    0.9254 H   0  0  0  0  0  0  0  0  0  0  0  0
   -3.6445   -1.9131    1.9478 H   0  0  0  0  0  0  0  0  0  0  0  0
   -1.5033    2.1821    0.9208 H   0  0  0  0  0  0  0  0  0  0  0  0
   -2.6215    2.9952    2.7387 H   0  0  0  0  0  0  0  0  0  0  0  0
   -2.7912    1.2004    3.1629 H   0  0  0  0  0  0  0  0  0  0  0  0
   -4.1076    2.1003    2.3925 H   0  0  0  0  0  0  0  0  0  0  0  0
   -3.5407    3.2827    0.2101 H   0  0  0  0  0  0  0  0  0  0  0  0
   -2.5384    2.9661   -1.7952 H   0  0  0  0  0  0  0  0  0  0  0  0
   -2.1929    1.2528   -1.4946 H   0  0  0  0  0  0  0  0  0  0  0  0
   -4.2343    1.7417   -3.1810 H   0  0  0  0  0  0  0  0  0  0  0  0
   -4.8115    0.6086    0.6821 H   0  0  0  0  0  0  0  0  0  0  0  0
   -5.4849    2.2463    0.7491 H   0  0  0  0  0  0  0  0  0  0  0  0
    0.2147    1.2335    0.5316 H   0  0  0  0  0  0  0  0  0  0  0  0
    2.3319    1.8659    1.3481 H   0  0  0  0  0  0  0  0  0  0  0  0
    7.3937    2.2408   -1.7828 H   0  0  0  0  0  0  0  0  0  0  0  0
    5.7166    2.7909   -2.0752 H   0  0  0  0  0  0  0  0  0  0  0  0
    6.3053    2.6881   -0.3831 H   0  0  0  0  0  0  0  0  0  0  0  0
    7.9489    0.3817   -0.8672 H   0  0  0  0  0  0  0  0  0  0  0  0
    6.8910   -1.0220   -0.5187 H   0  0  0  0  0  0  0  0  0  0  0  0
    6.9120    0.4399    0.5893 H   0  0  0  0  0  0  0  0  0  0  0  0
    3.6916   -1.0624   -1.4227 H   0  0  0  0  0  0  0  0  0  0  0  0
    2.0981   -2.5354   -0.1140 H   0  0  0  0  0  0  0  0  0  0  0  0
   -1.8838   -6.0631    0.6649 H   0  0  0  0  0  0  0  0  0  0  0  0
   -2.9916   -5.2753   -0.4890 H   0  0  0  0  0  0  0  0  0  0  0  0
   -3.2979   -5.0420    1.2796 H   0  0  0  0  0  0  0  0  0  0  0  0
  1  2  1  0
  2  3  2  0
  3  4  1  0
  4  5  1  0
  5  6  1  0
  6  7  1  0
  6  8  1  0
  8  9  1  0
  9 10  1  0
 10 11  1  0
 11 12  2  0
 11 13  1  0
  4 14  2  0
 14 15  1  0
 15 16  1  0
 16 17  1  0
 17 18  2  0
 18 19  1  0
 19 20  1  0
 20 21  1  0
 20 22  1  0
 20 23  1  0
 23 24  3  0
 19 25  1  0
 15 26  2  0
 26 27  1  0
 27 28  2  0
 28 29  1  0
 29 30  1  0
 29  2  1  0
 27  3  1  0
 13  8  1  0
 25 16  2  0
  1 31  1  0
  1 32  1  0
  1 33  1  0
  6 34  1  6
  7 35  1  0
  7 36  1  0
  7 37  1  0
  8 38  1  1
  9 39  1  0
  9 40  1  0
 10 41  1  0
 13 42  1  0
 13 43  1  0
 14 44  1  0
 17 45  1  0
 21 46  1  0
 21 47  1  0
 21 48  1  0
 22 49  1  0
 22 50  1  0
 22 51  1  0
 25 52  1  0
 26 53  1  0
 30 54  1  0
 30 55  1  0
 30 56  1  0
M  END
$$$$
