
     RDKit          3D

 24 24  0  0  0  0  0  0  0  0999 V2000
    3.1556   -0.2151    0.0924 O   0  0  0  0  0  0  0  0  0  0  0  0
    2.3050    0.7511   -0.4237 C   0  0  0  0  0  0  0  0  0  0  0  0
    0.9021    0.5853    0.1241 C   0  0  1  0  0  0  0  0  0  0  0  0
   -0.0031    1.5641   -0.3858 N   0  0  0  0  0  0  0  0  0  0  0  0
   -1.3613    1.1219   -0.4913 C   0  0  0  0  0  0  0  0  0  0  0  0
   -1.7454    0.0696    0.4972 C   0  0  2  0  0  0  0  0  0  0  0  0
   -1.9663    0.5773    1.7783 O   0  0  0  0  0  0  0  0  0  0  0  0
   -0.8061   -1.0909    0.5627 C   0  0  1  0  0  0  0  0  0  0  0  0
   -1.4090   -2.2947    0.1943 O   0  0  0  0  0  0  0  0  0  0  0  0
    0.4037   -0.7861   -0.2960 C   0  0  2  0  0  0  0  0  0  0  0  0
    1.4050   -1.7435   -0.1565 O   0  0  0  0  0  0  0  0  0  0  0  0
    3.0374   -0.2220    1.0796 H   0  0  0  0  0  0  0  0  0  0  0  0
    2.7035    1.7419   -0.1070 H   0  0  0  0  0  0  0  0  0  0  0  0
    2.3168    0.7412   -1.5350 H   0  0  0  0  0  0  0  0  0  0  0  0
    0.9457    0.6078    1.2123 H   0  0  0  0  0  0  0  0  0  0  0  0
    0.3322    1.8947   -1.3000 H   0  0  0  0  0  0  0  0  0  0  0  0
   -1.5409    0.7790   -1.5123 H   0  0  0  0  0  0  0  0  0  0  0  0
   -2.0226    2.0015   -0.3207 H   0  0  0  0  0  0  0  0  0  0  0  0
   -2.7459   -0.3359    0.1651 H   0  0  0  0  0  0  0  0  0  0  0  0
   -2.8698    0.9974    1.7999 H   0  0  0  0  0  0  0  0  0  0  0  0
   -0.4176   -1.2027    1.6093 H   0  0  0  0  0  0  0  0  0  0  0  0
   -1.7558   -2.1918   -0.7417 H   0  0  0  0  0  0  0  0  0  0  0  0
    0.0717   -0.7556   -1.3528 H   0  0  0  0  0  0  0  0  0  0  0  0
    1.0651   -2.5946   -0.4924 H   0  0  0  0  0  0  0  0  0  0  0  0
  1  2  1  0
  2  3  1  0
  3  4  1  0
  4  5  1  0
  5  6  1  0
  6  7  1  0
  6  8  1  0
  8  9  1  0
  8 10  1  0
 10 11  1  0
 10  3  1  0
  1 12  1  0
  2 13  1  0
  2 14  1  0
  3 15  1  1
  4 16  1  0
  5 17  1  0
  5 18  1  0
  6 19  1  6
  7 20  1  0
  8 21  1  1
  9 22  1  0
 10 23  1  6
 11 24  1  0
M  END
$$$$
