
     RDKit          3D

 60 63  0  0  0  0  0  0  0  0999 V2000
   -3.5361    0.9724    1.6412 C   0  0  0  0  0  0  0  0  0  0  0  0
   -2.6614   -0.0648    0.9754 C   0  0  2  0  0  0  0  0  0  0  0  0
   -1.2223    0.4449    0.9330 C   0  0  0  0  0  0  0  0  0  0  0  0
   -0.4499   -0.6365    0.3731 N   0  0  0  0  0  0  0  0  0  0  0  0
   -0.7284   -0.8765   -1.0091 C   0  0  0  0  0  0  0  0  0  0  0  0
   -2.0590   -0.3284   -1.4575 C   0  0  0  0  0  0  0  0  0  0  0  0
   -3.1186   -0.4346   -0.3912 C   0  0  1  0  0  0  0  0  0  0  0  0
   -3.5237   -1.8886   -0.3652 C   0  0  0  0  0  0  0  0  0  0  0  0
   -2.5901   -2.8385   -0.0545 O   0  0  0  0  0  0  0  0  0  0  0  0
   -4.6547   -2.4404   -0.5948 O   0  0  0  0  0  0  0  0  0  0  0  0
   -4.3493    0.3221   -0.7297 C   0  0  0  0  0  0  0  0  0  0  0  0
   -5.5074   -0.0359   -0.0277 C   0  0  0  0  0  0  0  0  0  0  0  0
   -6.7155    0.5957   -0.2585 C   0  0  0  0  0  0  0  0  0  0  0  0
   -6.8378    1.6030   -1.1857 C   0  0  0  0  0  0  0  0  0  0  0  0
   -5.7015    1.9638   -1.8834 C   0  0  0  0  0  0  0  0  0  0  0  0
   -4.4985    1.3329   -1.6518 C   0  0  0  0  0  0  0  0  0  0  0  0
    0.9385   -0.5945    0.7140 C   0  0  1  0  0  0  0  0  0  0  0  0
    1.7046   -1.7645    0.0925 C   0  0  0  0  0  0  0  0  0  0  0  0
    3.1642   -1.4983    0.4897 C   0  0  0  0  0  0  0  0  0  0  0  0
    3.6613   -0.4591   -0.4940 C   0  0  2  0  0  0  0  0  0  0  0  0
    2.6670    0.6513   -0.6286 C   0  0  0  0  0  0  0  0  0  0  0  0
    1.6316    0.6934    0.4504 C   0  0  0  0  0  0  0  0  0  0  0  0
    3.8765   -1.1609   -1.7684 C   0  0  0  0  0  0  0  0  0  0  0  0
    4.0496   -1.7097   -2.7937 N   0  0  0  0  0  0  0  0  0  0  0  0
    4.9891   -0.0013   -0.0247 C   0  0  0  0  0  0  0  0  0  0  0  0
    5.5066    0.9612   -0.8891 C   0  0  0  0  0  0  0  0  0  0  0  0
    6.7546    1.5494   -0.6591 C   0  0  0  0  0  0  0  0  0  0  0  0
    7.4657    1.1513    0.4517 C   0  0  0  0  0  0  0  0  0  0  0  0
    8.6759    1.7083    0.6929 F   0  0  0  0  0  0  0  0  0  0  0  0
    6.9537    0.1991    1.3069 C   0  0  0  0  0  0  0  0  0  0  0  0
    5.7233   -0.3765    1.0742 C   0  0  0  0  0  0  0  0  0  0  0  0
   -4.2573    0.4674    2.3051 H   0  0  0  0  0  0  0  0  0  0  0  0
   -2.8696    1.5713    2.3099 H   0  0  0  0  0  0  0  0  0  0  0  0
   -3.9753    1.6828    0.9366 H   0  0  0  0  0  0  0  0  0  0  0  0
   -2.6332   -0.9466    1.6361 H   0  0  0  0  0  0  0  0  0  0  0  0
   -1.1569    1.3405    0.2817 H   0  0  0  0  0  0  0  0  0  0  0  0
   -0.8696    0.6462    1.9437 H   0  0  0  0  0  0  0  0  0  0  0  0
   -0.7423   -1.9717   -1.1768 H   0  0  0  0  0  0  0  0  0  0  0  0
    0.0472   -0.4792   -1.7020 H   0  0  0  0  0  0  0  0  0  0  0  0
   -1.8617    0.7054   -1.8032 H   0  0  0  0  0  0  0  0  0  0  0  0
   -2.3717   -0.9066   -2.3511 H   0  0  0  0  0  0  0  0  0  0  0  0
   -2.8166   -3.6476    0.4976 H   0  0  0  0  0  0  0  0  0  0  0  0
   -5.6039   -0.7965    0.7353 H   0  0  0  0  0  0  0  0  0  0  0  0
   -7.6439    0.3610    0.2540 H   0  0  0  0  0  0  0  0  0  0  0  0
   -7.7281    2.1574   -1.4410 H   0  0  0  0  0  0  0  0  0  0  0  0
   -5.7182    2.7473   -2.6288 H   0  0  0  0  0  0  0  0  0  0  0  0
   -3.6234    1.6098   -2.1883 H   0  0  0  0  0  0  0  0  0  0  0  0
    1.0057   -0.7942    1.8139 H   0  0  0  0  0  0  0  0  0  0  0  0
    1.4075   -2.7039    0.6032 H   0  0  0  0  0  0  0  0  0  0  0  0
    1.5733   -1.7906   -0.9892 H   0  0  0  0  0  0  0  0  0  0  0  0
    3.7374   -2.4415    0.4224 H   0  0  0  0  0  0  0  0  0  0  0  0
    3.1881   -1.0427    1.4926 H   0  0  0  0  0  0  0  0  0  0  0  0
    2.2022    0.5819   -1.6341 H   0  0  0  0  0  0  0  0  0  0  0  0
    3.1827    1.6479   -0.6068 H   0  0  0  0  0  0  0  0  0  0  0  0
    0.8768    1.4497    0.1497 H   0  0  0  0  0  0  0  0  0  0  0  0
    2.1271    1.1293    1.3638 H   0  0  0  0  0  0  0  0  0  0  0  0
    5.0345    1.3569   -1.8022 H   0  0  0  0  0  0  0  0  0  0  0  0
    7.1869    2.2975   -1.3064 H   0  0  0  0  0  0  0  0  0  0  0  0
    7.4754   -0.1436    2.1895 H   0  0  0  0  0  0  0  0  0  0  0  0
    5.2187   -1.1275    1.6666 H   0  0  0  0  0  0  0  0  0  0  0  0
  1  2  1  0
  2  3  1  0
  3  4  1  0
  4  5  1  0
  5  6  1  0
  6  7  1  0
  7  8  1  1
  8  9  1  0
  8 10  2  0
  7 11  1  0
 11 12  2  0
 12 13  1  0
 13 14  2  0
 14 15  1  0
 15 16  2  0
  4 17  1  0
 17 18  1  0
 18 19  1  0
 19 20  1  0
 20 21  1  0
 21 22  1  0
 20 23  1  6
 23 24  3  0
 20 25  1  0
 25 26  2  0
 26 27  1  0
 27 28  2  0
 28 29  1  0
 28 30  1  0
 30 31  2  0
  7  2  1  0
 16 11  1  0
 22 17  1  0
 31 25  1  0
  1 32  1  0
  1 33  1  0
  1 34  1  0
  2 35  1  1
  3 36  1  0
  3 37  1  0
  5 38  1  0
  5 39  1  0
  6 40  1  0
  6 41  1  0
  9 42  1  0
 12 43  1  0
 13 44  1  0
 14 45  1  0
 15 46  1  0
 16 47  1  0
 17 48  1  1
 18 49  1  0
 18 50  1  0
 19 51  1  0
 19 52  1  0
 21 53  1  0
 21 54  1  0
 22 55  1  0
 22 56  1  0
 26 57  1  0
 27 58  1  0
 30 59  1  0
 31 60  1  0
M  END
$$$$
