
     RDKit          3D

 41 43  0  0  0  0  0  0  0  0999 V2000
   -3.4827   -0.0400    0.0519 C   0  0  0  0  0  0  0  0  0  0  0  0
   -2.2735   -0.7139   -0.5948 C   0  0  1  0  0  0  0  0  0  0  0  0
   -1.1413    0.2334   -0.7157 C   0  0  0  0  0  0  0  0  0  0  0  0
    0.0878   -0.0412   -0.1332 C   0  0  0  0  0  0  0  0  0  0  0  0
    1.1385    0.8716   -0.2671 C   0  0  0  0  0  0  0  0  0  0  0  0
    2.4782    0.6412    0.3316 C   0  0  0  0  0  0  0  0  0  0  0  0
    2.6511    1.4588    1.5244 N   0  0  0  0  0  0  0  0  0  0  0  0
    3.9279    1.2750    2.1376 C   0  0  0  0  0  0  0  0  0  0  0  0
    5.1608    1.5764    1.3808 C   0  0  0  0  0  0  0  0  0  0  0  0
    6.1088    1.8141    0.7757 N   0  0  0  0  0  0  0  0  0  0  0  0
    4.0117    1.8001    3.5706 C   0  0  0  0  0  0  0  0  0  0  0  0
    4.1227    0.3381    3.2700 C   0  0  0  0  0  0  0  0  0  0  0  0
    0.9199    2.0276   -0.9804 C   0  0  0  0  0  0  0  0  0  0  0  0
    1.9176    2.9096   -1.1160 F   0  0  0  0  0  0  0  0  0  0  0  0
   -0.3222    2.2957   -1.5643 C   0  0  0  0  0  0  0  0  0  0  0  0
   -1.3586    1.3982   -1.4336 C   0  0  0  0  0  0  0  0  0  0  0  0
   -2.5778    1.6016   -1.9749 F   0  0  0  0  0  0  0  0  0  0  0  0
   -1.8614   -1.8628    0.2517 C   0  0  0  0  0  0  0  0  0  0  0  0
   -2.9308   -2.8715    0.5496 C   0  0  0  0  0  0  0  0  0  0  0  0
   -3.9393   -3.1448   -0.9091 S   0  0  0  0  0  0  0  0  0  0  0  0
   -3.3319   -2.1245   -2.2267 C   0  0  0  0  0  0  0  0  0  0  0  0
   -3.6786   -2.5111   -3.5553 N   0  0  0  0  0  0  0  0  0  0  0  0
   -2.6249   -1.1058   -1.9489 N   0  0  0  0  0  0  0  0  0  0  0  0
   -4.4004   -0.2078   -0.5638 H   0  0  0  0  0  0  0  0  0  0  0  0
   -3.6611   -0.4482    1.0828 H   0  0  0  0  0  0  0  0  0  0  0  0
   -3.3568    1.0636    0.1129 H   0  0  0  0  0  0  0  0  0  0  0  0
    0.2948   -0.9309    0.4253 H   0  0  0  0  0  0  0  0  0  0  0  0
    2.5571   -0.4252    0.6885 H   0  0  0  0  0  0  0  0  0  0  0  0
    3.3029    0.7652   -0.3918 H   0  0  0  0  0  0  0  0  0  0  0  0
    2.5158    2.4687    1.2520 H   0  0  0  0  0  0  0  0  0  0  0  0
    3.0648    2.1552    4.0494 H   0  0  0  0  0  0  0  0  0  0  0  0
    4.8911    2.3472    3.9085 H   0  0  0  0  0  0  0  0  0  0  0  0
    5.1070   -0.1140    3.4316 H   0  0  0  0  0  0  0  0  0  0  0  0
    3.2514   -0.2870    3.5634 H   0  0  0  0  0  0  0  0  0  0  0  0
   -0.4734    3.2005   -2.1160 H   0  0  0  0  0  0  0  0  0  0  0  0
   -1.4727   -1.4144    1.2157 H   0  0  0  0  0  0  0  0  0  0  0  0
   -0.9934   -2.3575   -0.2399 H   0  0  0  0  0  0  0  0  0  0  0  0
   -3.6061   -2.4694    1.3367 H   0  0  0  0  0  0  0  0  0  0  0  0
   -2.4194   -3.7997    0.8934 H   0  0  0  0  0  0  0  0  0  0  0  0
   -4.0952   -1.8753   -4.2671 H   0  0  0  0  0  0  0  0  0  0  0  0
   -3.5084   -3.4967   -3.8465 H   0  0  0  0  0  0  0  0  0  0  0  0
  2  1  1  1
  2  3  1  0
  3  4  2  0
  4  5  1  0
  5  6  1  0
  6  7  1  0
  7  8  1  0
  8  9  1  0
  9 10  3  0
  8 11  1  0
 11 12  1  0
  5 13  2  0
 13 14  1  0
 13 15  1  0
 15 16  2  0
 16 17  1  0
  2 18  1  0
 18 19  1  0
 19 20  1  0
 20 21  1  0
 21 22  1  0
 21 23  2  0
 23  2  1  0
 16  3  1  0
 12  8  1  0
  1 24  1  0
  1 25  1  0
  1 26  1  0
  4 27  1  0
  6 28  1  0
  6 29  1  0
  7 30  1  0
 11 31  1  0
 11 32  1  0
 12 33  1  0
 12 34  1  0
 15 35  1  0
 18 36  1  0
 18 37  1  0
 19 38  1  0
 19 39  1  0
 22 40  1  0
 22 41  1  0
M  END
$$$$
