
     RDKit          3D

 45 46  0  0  0  0  0  0  0  0999 V2000
   -2.5362    1.5757    2.5156 C   0  0  0  0  0  0  0  0  0  0  0  0
   -2.5925    1.8095    1.0431 C   0  0  0  0  0  0  0  0  0  0  0  0
   -1.6888    0.9115    0.2639 C   0  0  0  0  0  0  0  0  0  0  0  0
   -0.4796    1.3846   -0.2602 C   0  0  0  0  0  0  0  0  0  0  0  0
    0.3718    0.5832   -0.9783 C   0  0  0  0  0  0  0  0  0  0  0  0
    1.6297    1.1177   -1.4969 C   0  0  0  0  0  0  0  0  0  0  0  0
    2.8318    0.8146   -0.7394 C   0  0  0  0  0  0  0  0  0  0  0  0
    3.7068   -0.1660   -1.1826 C   0  0  0  0  0  0  0  0  0  0  0  0
    4.8124   -0.4401   -0.4685 N   0  0  0  0  0  0  0  0  0  0  0  0
    5.1305    0.1962    0.6816 C   0  0  0  0  0  0  0  0  0  0  0  0
    6.3144   -0.1502    1.3765 N   0  0  0  0  0  0  0  0  0  0  0  0
    4.2849    1.1499    1.1173 N   0  0  0  0  0  0  0  0  0  0  0  0
    3.1516    1.4592    0.4224 C   0  0  0  0  0  0  0  0  0  0  0  0
    2.2862    2.4705    0.9022 N   0  0  0  0  0  0  0  0  0  0  0  0
    0.0620   -0.7390   -1.2137 C   0  0  0  0  0  0  0  0  0  0  0  0
   -1.1245   -1.2250   -0.7061 C   0  0  0  0  0  0  0  0  0  0  0  0
   -1.5334   -2.6452   -0.9126 C   0  0  0  0  0  0  0  0  0  0  0  0
   -0.4823   -3.3620   -1.7506 C   0  0  0  0  0  0  0  0  0  0  0  0
   -1.9879   -0.4150    0.0213 C   0  0  0  0  0  0  0  0  0  0  0  0
   -3.2548   -0.9612    0.5490 C   0  0  0  0  0  0  0  0  0  0  0  0
   -4.3971   -0.4842   -0.3147 C   0  0  0  0  0  0  0  0  0  0  0  0
   -1.9304    0.7212    2.8371 H   0  0  0  0  0  0  0  0  0  0  0  0
   -2.1087    2.4724    3.0545 H   0  0  0  0  0  0  0  0  0  0  0  0
   -3.5941    1.5205    2.9034 H   0  0  0  0  0  0  0  0  0  0  0  0
   -3.6420    1.7795    0.6368 H   0  0  0  0  0  0  0  0  0  0  0  0
   -2.2633    2.8676    0.8412 H   0  0  0  0  0  0  0  0  0  0  0  0
   -0.3001    2.4331   -0.0448 H   0  0  0  0  0  0  0  0  0  0  0  0
    1.5344    2.2286   -1.7026 H   0  0  0  0  0  0  0  0  0  0  0  0
    1.7494    0.6936   -2.5395 H   0  0  0  0  0  0  0  0  0  0  0  0
    3.4950   -0.7089   -2.1051 H   0  0  0  0  0  0  0  0  0  0  0  0
    6.8603   -0.9705    1.0459 H   0  0  0  0  0  0  0  0  0  0  0  0
    6.6557    0.3823    2.2009 H   0  0  0  0  0  0  0  0  0  0  0  0
    1.5751    2.2097    1.6108 H   0  0  0  0  0  0  0  0  0  0  0  0
    2.3122    3.4611    0.5937 H   0  0  0  0  0  0  0  0  0  0  0  0
    0.7156   -1.4004   -1.7794 H   0  0  0  0  0  0  0  0  0  0  0  0
   -2.4833   -2.6554   -1.4766 H   0  0  0  0  0  0  0  0  0  0  0  0
   -1.5797   -3.2009    0.0424 H   0  0  0  0  0  0  0  0  0  0  0  0
   -0.8914   -4.4040   -1.8999 H   0  0  0  0  0  0  0  0  0  0  0  0
   -0.3729   -2.9104   -2.7539 H   0  0  0  0  0  0  0  0  0  0  0  0
    0.4813   -3.4392   -1.2258 H   0  0  0  0  0  0  0  0  0  0  0  0
   -3.4008   -0.7337    1.6250 H   0  0  0  0  0  0  0  0  0  0  0  0
   -3.2110   -2.0640    0.4617 H   0  0  0  0  0  0  0  0  0  0  0  0
   -4.0369    0.1985   -1.1197 H   0  0  0  0  0  0  0  0  0  0  0  0
   -4.8755   -1.3362   -0.8687 H   0  0  0  0  0  0  0  0  0  0  0  0
   -5.1940   -0.0292    0.2930 H   0  0  0  0  0  0  0  0  0  0  0  0
  1  2  1  0
  2  3  1  0
  3  4  2  0
  4  5  1  0
  5  6  1  0
  6  7  1  0
  7  8  2  0
  8  9  1  0
  9 10  2  0
 10 11  1  0
 10 12  1  0
 12 13  2  0
 13 14  1  0
  5 15  2  0
 15 16  1  0
 16 17  1  0
 17 18  1  0
 16 19  2  0
 19 20  1  0
 20 21  1  0
 19  3  1  0
 13  7  1  0
  1 22  1  0
  1 23  1  0
  1 24  1  0
  2 25  1  0
  2 26  1  0
  4 27  1  0
  6 28  1  0
  6 29  1  0
  8 30  1  0
 11 31  1  0
 11 32  1  0
 14 33  1  0
 14 34  1  0
 15 35  1  0
 17 36  1  0
 17 37  1  0
 18 38  1  0
 18 39  1  0
 18 40  1  0
 20 41  1  0
 20 42  1  0
 21 43  1  0
 21 44  1  0
 21 45  1  0
M  END
$$$$
