
     RDKit          3D

 42 43  0  0  0  0  0  0  0  0999 V2000
   -2.2672   -3.0203   -1.2467 C   0  0  0  0  0  0  0  0  0  0  0  0
   -2.6154   -1.7055   -0.9360 O   0  0  0  0  0  0  0  0  0  0  0  0
   -1.7466   -0.8154   -0.3089 C   0  0  0  0  0  0  0  0  0  0  0  0
   -0.4595   -1.2503    0.0305 C   0  0  0  0  0  0  0  0  0  0  0  0
    0.4331   -0.4095    0.6499 C   0  0  0  0  0  0  0  0  0  0  0  0
    1.7679   -0.8698    0.9988 C   0  0  0  0  0  0  0  0  0  0  0  0
    2.7571   -0.6407   -0.0873 C   0  0  0  0  0  0  0  0  0  0  0  0
    2.4400   -0.0566   -1.2913 C   0  0  0  0  0  0  0  0  0  0  0  0
    3.3941    0.1168   -2.2270 N   0  0  0  0  0  0  0  0  0  0  0  0
    4.6738   -0.2577   -2.0488 C   0  0  0  0  0  0  0  0  0  0  0  0
    5.6564   -0.0561   -3.0667 N   0  0  0  0  0  0  0  0  0  0  0  0
    4.9842   -0.8293   -0.8707 N   0  0  0  0  0  0  0  0  0  0  0  0
    4.0655   -1.0289    0.1073 C   0  0  0  0  0  0  0  0  0  0  0  0
    4.4218   -1.6387    1.3501 N   0  0  0  0  0  0  0  0  0  0  0  0
    0.0360    0.8741    0.9316 C   0  0  0  0  0  0  0  0  0  0  0  0
   -1.2418    1.3336    0.6040 C   0  0  0  0  0  0  0  0  0  0  0  0
   -1.6096    2.6342    0.9025 O   0  0  0  0  0  0  0  0  0  0  0  0
   -0.6929    3.4923    1.5369 C   0  0  0  0  0  0  0  0  0  0  0  0
   -2.1280    0.4770   -0.0184 C   0  0  0  0  0  0  0  0  0  0  0  0
   -3.3824    0.9491   -0.3329 O   0  0  0  0  0  0  0  0  0  0  0  0
   -4.4893    0.8613    0.5451 C   0  0  0  0  0  0  0  0  0  0  0  0
   -5.7271    1.4530   -0.0538 C   0  0  0  0  0  0  0  0  0  0  0  0
   -7.0544    1.2934    1.1235 Cl  0  0  0  0  0  0  0  0  0  0  0  0
   -3.0195   -3.4041   -1.9804 H   0  0  0  0  0  0  0  0  0  0  0  0
   -1.2751   -3.0213   -1.7430 H   0  0  0  0  0  0  0  0  0  0  0  0
   -2.1836   -3.6862   -0.3627 H   0  0  0  0  0  0  0  0  0  0  0  0
   -0.1688   -2.2689   -0.2023 H   0  0  0  0  0  0  0  0  0  0  0  0
    1.8090   -1.9730    1.2183 H   0  0  0  0  0  0  0  0  0  0  0  0
    2.1605   -0.3751    1.9350 H   0  0  0  0  0  0  0  0  0  0  0  0
    1.4122    0.2470   -1.4409 H   0  0  0  0  0  0  0  0  0  0  0  0
    6.6179    0.3177   -2.8416 H   0  0  0  0  0  0  0  0  0  0  0  0
    5.4749   -0.2653   -4.0681 H   0  0  0  0  0  0  0  0  0  0  0  0
    4.7423   -2.6264    1.3658 H   0  0  0  0  0  0  0  0  0  0  0  0
    4.3588   -1.0907    2.2354 H   0  0  0  0  0  0  0  0  0  0  0  0
    0.6950    1.5951    1.4227 H   0  0  0  0  0  0  0  0  0  0  0  0
    0.2178    3.5170    0.8934 H   0  0  0  0  0  0  0  0  0  0  0  0
   -1.1094    4.4959    1.6979 H   0  0  0  0  0  0  0  0  0  0  0  0
   -0.3779    2.9915    2.4858 H   0  0  0  0  0  0  0  0  0  0  0  0
   -4.2543    1.4258    1.4707 H   0  0  0  0  0  0  0  0  0  0  0  0
   -4.6734   -0.1865    0.8008 H   0  0  0  0  0  0  0  0  0  0  0  0
   -6.0456    0.8985   -0.9738 H   0  0  0  0  0  0  0  0  0  0  0  0
   -5.5963    2.5031   -0.3715 H   0  0  0  0  0  0  0  0  0  0  0  0
  1  2  1  0
  2  3  1  0
  3  4  2  0
  4  5  1  0
  5  6  1  0
  6  7  1  0
  7  8  2  0
  8  9  1  0
  9 10  2  0
 10 11  1  0
 10 12  1  0
 12 13  2  0
 13 14  1  0
  5 15  2  0
 15 16  1  0
 16 17  1  0
 17 18  1  0
 16 19  2  0
 19 20  1  0
 20 21  1  0
 21 22  1  0
 22 23  1  0
 19  3  1  0
 13  7  1  0
  1 24  1  0
  1 25  1  0
  1 26  1  0
  4 27  1  0
  6 28  1  0
  6 29  1  0
  8 30  1  0
 11 31  1  0
 11 32  1  0
 14 33  1  0
 14 34  1  0
 15 35  1  0
 18 36  1  0
 18 37  1  0
 18 38  1  0
 21 39  1  0
 21 40  1  0
 22 41  1  0
 22 42  1  0
M  END
$$$$
