
     RDKit          3D

  8  7  0  0  0  0  0  0  0  0999 V2000
   -1.1103    0.3352    0.1131 N   0  0  0  0  0  0  0  0  0  0  0  0
   -0.0514   -0.4707   -0.4197 C   0  0  0  0  0  0  0  0  0  0  0  0
    1.1609   -0.0256    0.1658 N   0  0  0  0  0  0  0  0  0  0  0  0
   -0.3271   -1.3561   -1.2381 O   0  0  0  0  0  0  0  0  0  0  0  0
   -1.1758    1.3289   -0.2549 H   0  0  0  0  0  0  0  0  0  0  0  0
   -1.7442   -0.0805    0.8137 H   0  0  0  0  0  0  0  0  0  0  0  0
    1.4033   -0.3554    1.1438 H   0  0  0  0  0  0  0  0  0  0  0  0
    1.8445    0.6242   -0.3237 H   0  0  0  0  0  0  0  0  0  0  0  0
  1  2  1  0
  2  3  1  0
  2  4  2  0
  1  5  1  0
  1  6  1  0
  3  7  1  0
  3  8  1  0
M  END
$$$$
