
     RDKit          3D

 62 66  0  0  0  0  0  0  0  0999 V2000
   -4.8257    1.4775   -1.2117 C   0  0  0  0  0  0  0  0  0  0  0  0
   -4.5030    0.4327   -0.1080 C   0  0  1  0  0  0  0  0  0  0  0  0
   -3.2085    0.1867   -0.1224 O   0  0  0  0  0  0  0  0  0  0  0  0
   -2.2673   -0.7116   -0.3020 C   0  0  0  0  0  0  0  0  0  0  0  0
   -0.9016   -0.3407   -0.1686 C   0  0  0  0  0  0  0  0  0  0  0  0
    0.1233   -1.2053   -0.3374 C   0  0  0  0  0  0  0  0  0  0  0  0
    1.5346   -0.7771   -0.1889 C   0  0  0  0  0  0  0  0  0  0  0  0
    2.4635   -1.6843    0.2683 C   0  0  0  0  0  0  0  0  0  0  0  0
    3.7986   -1.3189    0.4218 C   0  0  0  0  0  0  0  0  0  0  0  0
    4.2066   -0.0350    0.1149 C   0  0  0  0  0  0  0  0  0  0  0  0
    5.5542    0.2731    0.3203 N   0  0  0  0  0  0  0  0  0  0  0  0
    6.0735    1.0703    1.4254 C   0  0  0  0  0  0  0  0  0  0  0  0
    7.0923    2.0159    0.8332 C   0  0  0  0  0  0  0  0  0  0  0  0
    8.2099    1.3135    0.4000 O   0  0  0  0  0  0  0  0  0  0  0  0
    7.9425   -0.0089    0.1016 C   0  0  0  0  0  0  0  0  0  0  0  0
    6.6153   -0.1957   -0.5932 C   0  0  0  0  0  0  0  0  0  0  0  0
    3.3003    0.8805   -0.3416 C   0  0  0  0  0  0  0  0  0  0  0  0
    3.6610    2.2691   -0.7219 C   0  0  0  0  0  0  0  0  0  0  0  0
    4.5941    2.2703   -1.7487 F   0  0  0  0  0  0  0  0  0  0  0  0
    2.5279    2.8804   -1.2946 F   0  0  0  0  0  0  0  0  0  0  0  0
    4.0263    3.0744    0.3055 F   0  0  0  0  0  0  0  0  0  0  0  0
    1.9589    0.4920   -0.4887 C   0  0  0  0  0  0  0  0  0  0  0  0
   -0.1750   -2.5117   -0.6549 C   0  0  0  0  0  0  0  0  0  0  0  0
   -1.4737   -2.9449   -0.8008 C   0  0  0  0  0  0  0  0  0  0  0  0
   -2.0276   -4.1358   -1.0998 N   0  0  0  0  0  0  0  0  0  0  0  0
   -3.3318   -4.0722   -1.1290 N   0  0  0  0  0  0  0  0  0  0  0  0
   -4.2814   -5.1576   -1.4166 C   0  0  0  0  0  0  0  0  0  0  0  0
   -3.6602   -2.7848   -0.8371 C   0  0  0  0  0  0  0  0  0  0  0  0
   -2.5096   -2.0567   -0.6267 C   0  0  0  0  0  0  0  0  0  0  0  0
   -5.0085    1.0456    1.2241 C   0  0  1  0  0  0  0  0  0  0  0  0
   -4.3107    2.3517    1.5103 C   0  0  0  0  0  0  0  0  0  0  0  0
   -5.1897    3.3972    1.0437 N   0  0  0  0  0  0  0  0  0  0  0  0
   -6.4576    2.8660    0.7095 C   0  0  0  0  0  0  0  0  0  0  0  0
   -7.4304    3.5077    0.2352 O   0  0  0  0  0  0  0  0  0  0  0  0
   -6.4599    1.4149    1.0100 C   0  0  0  0  0  0  0  0  0  0  0  0
   -5.9028    1.5367   -1.3769 H   0  0  0  0  0  0  0  0  0  0  0  0
   -4.3625    1.0569   -2.1358 H   0  0  0  0  0  0  0  0  0  0  0  0
   -4.3789    2.4459   -0.9797 H   0  0  0  0  0  0  0  0  0  0  0  0
   -5.2060   -0.3802   -0.3207 H   0  0  0  0  0  0  0  0  0  0  0  0
   -0.7421    0.6947    0.0804 H   0  0  0  0  0  0  0  0  0  0  0  0
    2.1503   -2.6798    0.5069 H   0  0  0  0  0  0  0  0  0  0  0  0
    4.4857   -2.0620    0.7817 H   0  0  0  0  0  0  0  0  0  0  0  0
    5.3129    1.5592    2.0293 H   0  0  0  0  0  0  0  0  0  0  0  0
    6.6201    0.3508    2.0977 H   0  0  0  0  0  0  0  0  0  0  0  0
    6.6330    2.4931   -0.0502 H   0  0  0  0  0  0  0  0  0  0  0  0
    7.3966    2.8043    1.5516 H   0  0  0  0  0  0  0  0  0  0  0  0
    8.0234   -0.6508    1.0034 H   0  0  0  0  0  0  0  0  0  0  0  0
    8.7345   -0.3581   -0.5934 H   0  0  0  0  0  0  0  0  0  0  0  0
    6.4736   -1.2774   -0.7572 H   0  0  0  0  0  0  0  0  0  0  0  0
    6.6054    0.3512   -1.5341 H   0  0  0  0  0  0  0  0  0  0  0  0
    1.2130    1.1898   -0.8467 H   0  0  0  0  0  0  0  0  0  0  0  0
    0.6355   -3.2063   -0.7911 H   0  0  0  0  0  0  0  0  0  0  0  0
   -4.4566   -5.2805   -2.4880 H   0  0  0  0  0  0  0  0  0  0  0  0
   -3.8222   -6.1203   -1.0486 H   0  0  0  0  0  0  0  0  0  0  0  0
   -5.1734   -4.9904   -0.8074 H   0  0  0  0  0  0  0  0  0  0  0  0
   -4.6557   -2.4204   -0.7850 H   0  0  0  0  0  0  0  0  0  0  0  0
   -4.8916    0.3083    2.0200 H   0  0  0  0  0  0  0  0  0  0  0  0
   -3.3034    2.4138    1.0611 H   0  0  0  0  0  0  0  0  0  0  0  0
   -4.1565    2.4769    2.6198 H   0  0  0  0  0  0  0  0  0  0  0  0
   -4.9369    4.4039    0.9604 H   0  0  0  0  0  0  0  0  0  0  0  0
   -7.0198    1.2520    1.9763 H   0  0  0  0  0  0  0  0  0  0  0  0
   -6.9366    0.8106    0.2237 H   0  0  0  0  0  0  0  0  0  0  0  0
  1  2  1  0
  2  3  1  0
  3  4  1  0
  4  5  2  0
  5  6  1  0
  6  7  1  0
  7  8  2  0
  8  9  1  0
  9 10  2  0
 10 11  1  0
 11 12  1  0
 12 13  1  0
 13 14  1  0
 14 15  1  0
 15 16  1  0
 10 17  1  0
 17 18  1  0
 18 19  1  0
 18 20  1  0
 18 21  1  0
 17 22  2  0
  6 23  2  0
 23 24  1  0
 24 25  2  0
 25 26  1  0
 26 27  1  0
 26 28  1  0
 28 29  2  0
  2 30  1  0
 30 31  1  0
 31 32  1  0
 32 33  1  0
 33 34  2  0
 33 35  1  0
 29  4  1  0
 35 30  1  0
 22  7  1  0
 29 24  1  0
 16 11  1  0
  1 36  1  0
  1 37  1  0
  1 38  1  0
  2 39  1  6
  5 40  1  0
  8 41  1  0
  9 42  1  0
 12 43  1  0
 12 44  1  0
 13 45  1  0
 13 46  1  0
 15 47  1  0
 15 48  1  0
 16 49  1  0
 16 50  1  0
 22 51  1  0
 23 52  1  0
 27 53  1  0
 27 54  1  0
 27 55  1  0
 28 56  1  0
 30 57  1  1
 31 58  1  0
 31 59  1  0
 32 60  1  0
 35 61  1  0
 35 62  1  0
M  END
$$$$
