
     RDKit          3D

 56 58  0  0  0  0  0  0  0  0999 V2000
   -1.4013   -0.2952    3.3313 C   0  0  0  0  0  0  0  0  0  0  0  0
   -1.7057   -0.2239    1.8707 C   0  0  2  0  0  0  0  0  0  0  0  0
   -2.7880   -1.2120    1.5031 C   0  0  0  0  0  0  0  0  0  0  0  0
   -3.0585   -1.3238    0.1501 N   0  0  0  0  0  0  0  0  0  0  0  0
   -4.1977   -0.9206   -0.5060 C   0  0  0  0  0  0  0  0  0  0  0  0
   -4.5599    0.4873   -0.7631 C   0  0  0  0  0  0  0  0  0  0  0  0
   -4.8019    1.4276    0.3242 C   0  0  0  0  0  0  0  0  0  0  0  0
   -4.8484    1.1812    1.7021 N   0  0  0  0  0  0  0  0  0  0  0  0
   -5.0153    2.6815    0.0297 O   0  0  0  0  0  0  0  0  0  0  0  0
   -4.2585    1.0987   -2.0987 C   0  0  0  0  0  0  0  0  0  0  0  0
   -5.6653    0.6079   -1.8493 C   0  0  0  0  0  0  0  0  0  0  0  0
   -1.8551   -1.3579   -0.6790 C   0  0  0  0  0  0  0  0  0  0  0  0
   -0.8657   -0.2985   -0.3217 C   0  0  0  0  0  0  0  0  0  0  0  0
   -0.5605   -0.3028    1.0581 N   0  0  0  0  0  0  0  0  0  0  0  0
    0.7335   -1.2639    1.5327 S   0  0  0  0  0  6  0  0  0  0  0  0
    0.9620   -1.4046    2.9846 O   0  0  0  0  0  0  0  0  0  0  0  0
    0.4841   -2.6747    1.0042 O   0  0  0  0  0  0  0  0  0  0  0  0
    2.2075   -0.7069    0.7659 C   0  0  0  0  0  0  0  0  0  0  0  0
    2.6065   -1.2412   -0.4261 C   0  0  0  0  0  0  0  0  0  0  0  0
    3.7615   -0.7738   -1.0109 C   0  0  0  0  0  0  0  0  0  0  0  0
    4.5443    0.2231   -0.4389 C   0  0  0  0  0  0  0  0  0  0  0  0
    5.7931    0.7161   -1.0825 C   0  0  2  0  0  0  0  0  0  0  0  0
    6.0337   -0.1159   -2.3249 C   0  0  0  0  0  0  0  0  0  0  0  0
    6.8259    0.6403   -0.1710 O   0  0  0  0  0  0  0  0  0  0  0  0
    5.5413    2.1710   -1.5077 C   0  0  0  0  0  0  0  0  0  0  0  0
    4.4823    2.1351   -2.3895 F   0  0  0  0  0  0  0  0  0  0  0  0
    6.7017    2.6254   -2.1008 F   0  0  0  0  0  0  0  0  0  0  0  0
    5.2124    2.9580   -0.4466 F   0  0  0  0  0  0  0  0  0  0  0  0
    4.1183    0.7463    0.7681 C   0  0  0  0  0  0  0  0  0  0  0  0
    2.9628    0.2779    1.3516 C   0  0  0  0  0  0  0  0  0  0  0  0
   -1.2412   -1.3359    3.6828 H   0  0  0  0  0  0  0  0  0  0  0  0
   -0.4951    0.2816    3.5986 H   0  0  0  0  0  0  0  0  0  0  0  0
   -2.2742    0.0882    3.9474 H   0  0  0  0  0  0  0  0  0  0  0  0
   -2.1462    0.8050    1.7034 H   0  0  0  0  0  0  0  0  0  0  0  0
   -2.3497   -2.2213    1.8409 H   0  0  0  0  0  0  0  0  0  0  0  0
   -3.6510   -1.0978    2.1500 H   0  0  0  0  0  0  0  0  0  0  0  0
   -5.0907   -1.3965    0.0245 H   0  0  0  0  0  0  0  0  0  0  0  0
   -4.2206   -1.4532   -1.5212 H   0  0  0  0  0  0  0  0  0  0  0  0
   -4.2531    1.7388    2.3444 H   0  0  0  0  0  0  0  0  0  0  0  0
   -5.4628    0.4555    2.1202 H   0  0  0  0  0  0  0  0  0  0  0  0
   -3.7476    0.5336   -2.9011 H   0  0  0  0  0  0  0  0  0  0  0  0
   -4.0327    2.1734   -2.1102 H   0  0  0  0  0  0  0  0  0  0  0  0
   -6.0373   -0.3076   -2.3197 H   0  0  0  0  0  0  0  0  0  0  0  0
   -6.3929    1.4246   -1.7699 H   0  0  0  0  0  0  0  0  0  0  0  0
   -2.1355   -1.2648   -1.7266 H   0  0  0  0  0  0  0  0  0  0  0  0
   -1.3930   -2.3520   -0.5240 H   0  0  0  0  0  0  0  0  0  0  0  0
    0.0751   -0.5032   -0.8785 H   0  0  0  0  0  0  0  0  0  0  0  0
   -1.2896    0.7159   -0.5653 H   0  0  0  0  0  0  0  0  0  0  0  0
    2.0611   -2.0183   -0.9390 H   0  0  0  0  0  0  0  0  0  0  0  0
    4.0894   -1.1873   -1.9588 H   0  0  0  0  0  0  0  0  0  0  0  0
    6.9679    0.1939   -2.8466 H   0  0  0  0  0  0  0  0  0  0  0  0
    6.0968   -1.1825   -2.1232 H   0  0  0  0  0  0  0  0  0  0  0  0
    5.2158    0.0919   -3.0366 H   0  0  0  0  0  0  0  0  0  0  0  0
    6.9306   -0.2888    0.0895 H   0  0  0  0  0  0  0  0  0  0  0  0
    4.7198    1.5176    1.2258 H   0  0  0  0  0  0  0  0  0  0  0  0
    2.6681    0.7276    2.3090 H   0  0  0  0  0  0  0  0  0  0  0  0
  1  2  1  0
  2  3  1  0
  3  4  1  0
  4  5  1  0
  5  6  1  0
  6  7  1  0
  7  8  1  0
  7  9  2  0
  6 10  1  0
 10 11  1  0
  4 12  1  0
 12 13  1  0
 13 14  1  0
 14 15  1  0
 15 16  2  0
 15 17  2  0
 15 18  1  0
 18 19  2  0
 19 20  1  0
 20 21  2  0
 21 22  1  0
 22 23  1  0
 22 24  1  1
 22 25  1  0
 25 26  1  0
 25 27  1  0
 25 28  1  0
 21 29  1  0
 29 30  2  0
 14  2  1  0
 30 18  1  0
 11  6  1  0
  1 31  1  0
  1 32  1  0
  1 33  1  0
  2 34  1  1
  3 35  1  0
  3 36  1  0
  5 37  1  0
  5 38  1  0
  8 39  1  0
  8 40  1  0
 10 41  1  0
 10 42  1  0
 11 43  1  0
 11 44  1  0
 12 45  1  0
 12 46  1  0
 13 47  1  0
 13 48  1  0
 19 49  1  0
 20 50  1  0
 23 51  1  0
 23 52  1  0
 23 53  1  0
 24 54  1  0
 29 55  1  0
 30 56  1  0
M  END
$$$$
