
     RDKit          3D

 37 39  0  0  0  0  0  0  0  0999 V2000
    3.8017    2.0773   -2.0868 O   0  0  0  0  0  0  0  0  0  0  0  0
    4.5169    1.3231   -1.3906 C   0  0  0  0  0  0  0  0  0  0  0  0
    5.8702    1.5765   -1.3088 O   0  0  0  0  0  0  0  0  0  0  0  0
    3.9250    0.1926   -0.6765 C   0  0  0  0  0  0  0  0  0  0  0  0
    4.6906   -0.6535    0.0971 C   0  0  0  0  0  0  0  0  0  0  0  0
    4.0711   -1.6918    0.7379 C   0  0  0  0  0  0  0  0  0  0  0  0
    2.7073   -1.9034    0.6236 C   0  0  0  0  0  0  0  0  0  0  0  0
    1.9094   -1.0669   -0.1494 C   0  0  0  0  0  0  0  0  0  0  0  0
    0.1861   -1.3417   -0.2884 S   0  0  0  0  0  6  0  0  0  0  0  0
   -0.1305   -2.8035   -0.2399 O   0  0  0  0  0  0  0  0  0  0  0  0
   -0.2427   -0.8280   -1.6553 O   0  0  0  0  0  0  0  0  0  0  0  0
   -0.7014   -0.5251    0.9113 N   0  0  0  0  0  0  0  0  0  0  0  0
   -0.5937    0.8844    0.9013 C   0  0  0  0  0  0  0  0  0  0  0  0
   -1.8847    1.6349    0.8671 C   0  0  0  0  0  0  0  0  0  0  0  0
   -2.9057    0.9124    0.0749 C   0  0  0  0  0  0  0  0  0  0  0  0
   -3.7597    1.5812   -0.7727 C   0  0  0  0  0  0  0  0  0  0  0  0
   -3.6567    3.4995   -0.9607 Br  0  0  0  0  0  0  0  0  0  0  0  0
   -4.6934    0.8590   -1.4884 C   0  0  0  0  0  0  0  0  0  0  0  0
   -4.7542   -0.5283   -1.3404 C   0  0  0  0  0  0  0  0  0  0  0  0
   -3.8919   -1.1794   -0.4880 C   0  0  0  0  0  0  0  0  0  0  0  0
   -2.9671   -0.4534    0.2193 C   0  0  0  0  0  0  0  0  0  0  0  0
   -1.9903   -1.0674    1.1668 C   0  0  0  0  0  0  0  0  0  0  0  0
    2.5579   -0.0293   -0.7839 C   0  0  0  0  0  0  0  0  0  0  0  0
    6.2972    2.4623   -1.5904 H   0  0  0  0  0  0  0  0  0  0  0  0
    5.7611   -0.4629    0.1689 H   0  0  0  0  0  0  0  0  0  0  0  0
    4.6999   -2.3511    1.3471 H   0  0  0  0  0  0  0  0  0  0  0  0
    2.2642   -2.7231    1.1386 H   0  0  0  0  0  0  0  0  0  0  0  0
    0.0174    1.2440    0.0237 H   0  0  0  0  0  0  0  0  0  0  0  0
   -0.0238    1.2115    1.8203 H   0  0  0  0  0  0  0  0  0  0  0  0
   -2.3334    1.7751    1.8907 H   0  0  0  0  0  0  0  0  0  0  0  0
   -1.7203    2.6712    0.4894 H   0  0  0  0  0  0  0  0  0  0  0  0
   -5.3755    1.3533   -2.1596 H   0  0  0  0  0  0  0  0  0  0  0  0
   -5.4852   -1.0567   -1.9061 H   0  0  0  0  0  0  0  0  0  0  0  0
   -3.9162   -2.2479   -0.3542 H   0  0  0  0  0  0  0  0  0  0  0  0
   -2.2805   -0.8428    2.2290 H   0  0  0  0  0  0  0  0  0  0  0  0
   -1.9464   -2.1640    1.0339 H   0  0  0  0  0  0  0  0  0  0  0  0
    1.9772    0.6620   -1.4070 H   0  0  0  0  0  0  0  0  0  0  0  0
  1  2  2  0
  2  3  1  0
  2  4  1  0
  4  5  2  0
  5  6  1  0
  6  7  2  0
  7  8  1  0
  8  9  1  0
  9 10  2  0
  9 11  2  0
  9 12  1  0
 12 13  1  0
 13 14  1  0
 14 15  1  0
 15 16  2  0
 16 17  1  0
 16 18  1  0
 18 19  2  0
 19 20  1  0
 20 21  2  0
 21 22  1  0
  8 23  2  0
 23  4  1  0
 22 12  1  0
 21 15  1  0
  3 24  1  0
  5 25  1  0
  6 26  1  0
  7 27  1  0
 13 28  1  0
 13 29  1  0
 14 30  1  0
 14 31  1  0
 18 32  1  0
 19 33  1  0
 20 34  1  0
 22 35  1  0
 22 36  1  0
 23 37  1  0
M  END
$$$$
