
     RDKit          3D

 63 69  0  0  0  0  0  0  0  0999 V2000
    0.1478   -4.0782   -2.9923 C   0  0  0  0  0  0  0  0  0  0  0  0
    1.0800   -3.1796   -2.2068 C   0  0  0  0  0  0  0  0  0  0  0  0
    0.5022   -1.8603   -1.9843 N   0  0  0  0  0  0  0  0  0  0  0  0
   -0.2562   -1.5069   -0.9285 C   0  0  0  0  0  0  0  0  0  0  0  0
   -0.6226   -0.1832   -1.0563 C   0  0  0  0  0  0  0  0  0  0  0  0
   -1.4604    0.5388   -0.0754 C   0  0  1  0  0  0  0  0  0  0  0  0
   -2.8416   -0.0508   -0.1092 C   0  0  0  0  0  0  0  0  0  0  0  0
   -3.6854   -0.0296   -1.1553 N   0  0  0  0  0  0  0  0  0  0  0  0
   -4.8158   -0.6382   -0.8440 N   0  0  0  0  0  0  0  0  0  0  0  0
   -5.9968   -0.8388   -1.6906 C   0  0  0  0  0  0  0  0  0  0  0  0
   -4.6701   -1.0486    0.4301 C   0  0  0  0  0  0  0  0  0  0  0  0
   -5.5582   -1.6712    1.0631 O   0  0  0  0  0  0  0  0  0  0  0  0
   -3.4714   -0.6807    0.8463 O   0  0  0  0  0  0  0  0  0  0  0  0
   -0.9370    0.3460    1.2373 N   0  0  0  0  0  0  0  0  0  0  0  0
    0.1559    1.1716    1.6199 C   0  0  1  0  0  0  0  0  0  0  0  0
    1.2908    0.3774    2.1772 C   0  0  0  0  0  0  0  0  0  0  0  0
    1.8115   -0.7665    1.7057 N   0  0  0  0  0  0  0  0  0  0  0  0
    2.8219   -1.1129    2.5370 C   0  0  0  0  0  0  0  0  0  0  0  0
    3.6799   -2.3064    2.4064 C   0  0  0  0  0  0  0  0  0  0  0  0
    4.6568   -2.5069    3.3356 C   0  0  0  0  0  0  0  0  0  0  0  0
    5.4676   -3.6133    3.2340 C   0  0  0  0  0  0  0  0  0  0  0  0
    5.2358   -4.4643    2.1791 C   0  0  0  0  0  0  0  0  0  0  0  0
    6.0162   -5.5838    2.0308 F   0  0  0  0  0  0  0  0  0  0  0  0
    4.2369   -4.2239    1.2619 C   0  0  0  0  0  0  0  0  0  0  0  0
    3.4618   -3.1427    1.3810 N   0  0  0  0  0  0  0  0  0  0  0  0
    2.9247   -0.1725    3.5311 C   0  0  0  0  0  0  0  0  0  0  0  0
    1.9687    0.7299    3.2801 N   0  0  0  0  0  0  0  0  0  0  0  0
    0.7070    2.0631    0.5451 C   0  0  0  0  0  0  0  0  0  0  0  0
   -0.4047    2.7350   -0.1720 C   0  0  0  0  0  0  0  0  0  0  0  0
   -1.5034    1.9651   -0.4870 C   0  0  0  0  0  0  0  0  0  0  0  0
   -2.3917    2.7585   -1.1299 N   0  0  0  0  0  0  0  0  0  0  0  0
   -1.9017    4.0056   -1.2372 C   0  0  0  0  0  0  0  0  0  0  0  0
   -2.3648    5.1837   -1.7819 C   0  0  0  0  0  0  0  0  0  0  0  0
   -1.6054    6.3315   -1.7328 C   0  0  0  0  0  0  0  0  0  0  0  0
   -0.3545    6.3657   -1.1432 C   0  0  0  0  0  0  0  0  0  0  0  0
    0.1037    5.1731   -0.5969 C   0  0  0  0  0  0  0  0  0  0  0  0
   -0.6374    4.0116   -0.6335 C   0  0  0  0  0  0  0  0  0  0  0  0
   -0.0510    0.2483   -2.2384 C   0  0  0  0  0  0  0  0  0  0  0  0
    0.6191   -0.7980   -2.7652 N   0  0  0  0  0  0  0  0  0  0  0  0
   -0.1612   -4.9755   -2.3991 H   0  0  0  0  0  0  0  0  0  0  0  0
    0.6371   -4.4377   -3.9425 H   0  0  0  0  0  0  0  0  0  0  0  0
   -0.7677   -3.5219   -3.2780 H   0  0  0  0  0  0  0  0  0  0  0  0
    2.0557   -3.0837   -2.7286 H   0  0  0  0  0  0  0  0  0  0  0  0
    1.2979   -3.6989   -1.2474 H   0  0  0  0  0  0  0  0  0  0  0  0
   -0.5072   -2.2006   -0.1302 H   0  0  0  0  0  0  0  0  0  0  0  0
   -6.5975   -1.6863   -1.3514 H   0  0  0  0  0  0  0  0  0  0  0  0
   -6.5553    0.0950   -1.8521 H   0  0  0  0  0  0  0  0  0  0  0  0
   -5.5874   -1.1363   -2.7001 H   0  0  0  0  0  0  0  0  0  0  0  0
   -0.8063   -0.6553    1.4049 H   0  0  0  0  0  0  0  0  0  0  0  0
   -0.2033    1.8561    2.4310 H   0  0  0  0  0  0  0  0  0  0  0  0
    4.8045   -1.8109    4.1508 H   0  0  0  0  0  0  0  0  0  0  0  0
    6.2596   -3.7978    3.9673 H   0  0  0  0  0  0  0  0  0  0  0  0
    4.0723   -4.9136    0.4334 H   0  0  0  0  0  0  0  0  0  0  0  0
    3.6202   -0.1517    4.3448 H   0  0  0  0  0  0  0  0  0  0  0  0
    1.7911    1.5738    3.8637 H   0  0  0  0  0  0  0  0  0  0  0  0
    1.4188    1.5730   -0.1261 H   0  0  0  0  0  0  0  0  0  0  0  0
    1.3070    2.8567    1.0819 H   0  0  0  0  0  0  0  0  0  0  0  0
   -3.3232    2.4624   -1.4947 H   0  0  0  0  0  0  0  0  0  0  0  0
   -3.3278    5.2407   -2.2586 H   0  0  0  0  0  0  0  0  0  0  0  0
   -1.9899    7.2392   -2.1658 H   0  0  0  0  0  0  0  0  0  0  0  0
    0.2592    7.2537   -1.0923 H   0  0  0  0  0  0  0  0  0  0  0  0
    1.0875    5.1271   -0.1132 H   0  0  0  0  0  0  0  0  0  0  0  0
   -0.1424    1.2450   -2.6393 H   0  0  0  0  0  0  0  0  0  0  0  0
  1  2  1  0
  2  3  1  0
  3  4  1  0
  4  5  2  0
  6  5  1  6
  6  7  1  0
  7  8  2  0
  8  9  1  0
  9 10  1  0
  9 11  1  0
 11 12  2  0
 11 13  1  0
  6 14  1  0
 14 15  1  0
 15 16  1  0
 16 17  2  0
 17 18  1  0
 18 19  1  0
 19 20  2  0
 20 21  1  0
 21 22  2  0
 22 23  1  0
 22 24  1  0
 24 25  2  0
 18 26  2  0
 26 27  1  0
 15 28  1  0
 28 29  1  0
 29 30  2  0
 30 31  1  0
 31 32  1  0
 32 33  2  0
 33 34  1  0
 34 35  2  0
 35 36  1  0
 36 37  2  0
  5 38  1  0
 38 39  2  0
 39  3  1  0
 30  6  1  0
 37 32  1  0
 13  7  1  0
 27 16  1  0
 37 29  1  0
 25 19  1  0
  1 40  1  0
  1 41  1  0
  1 42  1  0
  2 43  1  0
  2 44  1  0
  4 45  1  0
 10 46  1  0
 10 47  1  0
 10 48  1  0
 14 49  1  0
 15 50  1  1
 20 51  1  0
 21 52  1  0
 24 53  1  0
 26 54  1  0
 27 55  1  0
 28 56  1  0
 28 57  1  0
 31 58  1  0
 33 59  1  0
 34 60  1  0
 35 61  1  0
 36 62  1  0
 38 63  1  0
M  END
$$$$
