
     RDKit          3D

 78 82  0  0  0  0  0  0  0  0999 V2000
   -1.2553   -0.5684    1.7615 C   0  0  2  0  0  0  0  0  0  0  0  0
   -0.0414   -0.5213    1.0178 O   0  0  0  0  0  0  0  0  0  0  0  0
    1.0987    0.0647    1.5468 C   0  0  0  0  0  0  0  0  0  0  0  0
    1.0734    0.5655    2.6995 O   0  0  0  0  0  0  0  0  0  0  0  0
    2.5195    0.3793    1.2670 C   0  0  1  0  0  0  0  0  0  0  0  0
    2.9633    0.9538    2.5232 O   0  0  0  0  0  0  0  0  0  0  0  0
    3.3642   -0.8256    1.0999 C   0  0  0  0  0  0  0  0  0  0  0  0
    3.0321   -1.7895    0.0450 C   0  0  0  0  0  0  0  0  0  0  0  0
    3.0760   -1.4107   -1.3756 C   0  0  0  0  0  0  0  0  0  0  0  0
    4.3806   -0.9937   -1.9513 C   0  0  0  0  0  0  0  0  0  0  0  0
    4.0802   -0.6606   -3.4252 C   0  0  0  0  0  0  0  0  0  0  0  0
    5.3836   -2.1323   -2.0233 C   0  0  0  0  0  0  0  0  0  0  0  0
    4.9788    0.1131   -1.4151 O   0  0  0  0  0  0  0  0  0  0  0  0
    2.6661    1.5013    0.3119 C   0  0  0  0  0  0  0  0  0  0  0  0
    1.9849    2.6895    0.9659 C   0  0  0  0  0  0  0  0  0  0  0  0
    0.8529    2.9455    1.4641 O   0  0  0  0  0  0  0  0  0  0  0  0
    2.5420    3.9464    1.1988 O   0  0  0  0  0  0  0  0  0  0  0  0
    1.8775    5.0105    1.8070 C   0  0  0  0  0  0  0  0  0  0  0  0
   -1.5925   -1.9644    2.1690 C   0  0  0  0  0  0  0  0  0  0  0  0
   -0.9625   -2.7987    3.0705 O   0  0  0  0  0  0  0  0  0  0  0  0
   -1.3367   -4.1210    3.3251 C   0  0  0  0  0  0  0  0  0  0  0  0
   -2.6666   -2.3250    1.4933 C   0  0  0  0  0  0  0  0  0  0  0  0
   -3.1906   -1.2556    0.5633 C   0  0  2  0  0  0  0  0  0  0  0  0
   -4.6814   -1.1900    0.8059 C   0  0  0  0  0  0  0  0  0  0  0  0
   -5.1579   -2.4183    0.0512 C   0  0  0  0  0  0  0  0  0  0  0  0
   -3.9580   -2.8871   -0.7642 C   0  0  0  0  0  0  0  0  0  0  0  0
   -2.9911   -1.7820   -0.7264 N   0  0  0  0  0  0  0  0  0  0  0  0
   -3.2781   -0.9616   -1.8528 C   0  0  0  0  0  0  0  0  0  0  0  0
   -1.9604   -0.2397   -2.1726 C   0  0  0  0  0  0  0  0  0  0  0  0
   -1.9956    0.9957   -1.3349 C   0  0  0  0  0  0  0  0  0  0  0  0
   -1.7858    2.0865   -2.1505 C   0  0  0  0  0  0  0  0  0  0  0  0
   -1.7963    3.3020   -1.4959 C   0  0  0  0  0  0  0  0  0  0  0  0
   -1.9994    3.4102   -0.1403 C   0  0  0  0  0  0  0  0  0  0  0  0
   -1.9360    4.7708    0.1150 O   0  0  0  0  0  0  0  0  0  0  0  0
   -2.1142    5.5200   -1.0975 C   0  0  0  0  0  0  0  0  0  0  0  0
   -1.6137    4.5794   -2.0483 O   0  0  0  0  0  0  0  0  0  0  0  0
   -2.2054    2.2542    0.6232 C   0  0  0  0  0  0  0  0  0  0  0  0
   -2.2094    0.9808    0.0296 C   0  0  0  0  0  0  0  0  0  0  0  0
   -2.4512   -0.0712    1.0139 C   0  0  2  0  0  0  0  0  0  0  0  0
   -1.1035   -0.0509    2.7637 H   0  0  0  0  0  0  0  0  0  0  0  0
    3.3950    0.2949    3.0804 H   0  0  0  0  0  0  0  0  0  0  0  0
    3.2931   -1.3898    2.0822 H   0  0  0  0  0  0  0  0  0  0  0  0
    4.4264   -0.4811    1.0981 H   0  0  0  0  0  0  0  0  0  0  0  0
    3.5843   -2.7691    0.1442 H   0  0  0  0  0  0  0  0  0  0  0  0
    1.9537   -2.1095    0.2397 H   0  0  0  0  0  0  0  0  0  0  0  0
    2.8096   -2.3690   -1.9450 H   0  0  0  0  0  0  0  0  0  0  0  0
    2.2925   -0.7132   -1.7358 H   0  0  0  0  0  0  0  0  0  0  0  0
    3.5148   -1.4573   -3.9264 H   0  0  0  0  0  0  0  0  0  0  0  0
    3.5315    0.3158   -3.4034 H   0  0  0  0  0  0  0  0  0  0  0  0
    5.0478   -0.4451   -3.8992 H   0  0  0  0  0  0  0  0  0  0  0  0
    5.3980   -2.6815   -1.0623 H   0  0  0  0  0  0  0  0  0  0  0  0
    5.0596   -2.7919   -2.8618 H   0  0  0  0  0  0  0  0  0  0  0  0
    6.3724   -1.6680   -2.2356 H   0  0  0  0  0  0  0  0  0  0  0  0
    5.9488    0.1336   -1.5753 H   0  0  0  0  0  0  0  0  0  0  0  0
    3.7388    1.8327    0.2810 H   0  0  0  0  0  0  0  0  0  0  0  0
    2.1999    1.3539   -0.6549 H   0  0  0  0  0  0  0  0  0  0  0  0
    1.0103    5.3483    1.1948 H   0  0  0  0  0  0  0  0  0  0  0  0
    1.5792    4.7190    2.8361 H   0  0  0  0  0  0  0  0  0  0  0  0
    2.6186    5.8518    1.9278 H   0  0  0  0  0  0  0  0  0  0  0  0
   -0.6616   -4.5365    4.1023 H   0  0  0  0  0  0  0  0  0  0  0  0
   -1.2481   -4.7549    2.3951 H   0  0  0  0  0  0  0  0  0  0  0  0
   -2.3996   -4.1202    3.6803 H   0  0  0  0  0  0  0  0  0  0  0  0
   -3.1663   -3.2653    1.5505 H   0  0  0  0  0  0  0  0  0  0  0  0
   -4.8574   -1.2600    1.8967 H   0  0  0  0  0  0  0  0  0  0  0  0
   -5.1306   -0.2509    0.4509 H   0  0  0  0  0  0  0  0  0  0  0  0
   -5.4596   -3.1643    0.8234 H   0  0  0  0  0  0  0  0  0  0  0  0
   -6.0333   -2.2001   -0.5775 H   0  0  0  0  0  0  0  0  0  0  0  0
   -4.3390   -3.0280   -1.8125 H   0  0  0  0  0  0  0  0  0  0  0  0
   -3.5281   -3.8267   -0.3699 H   0  0  0  0  0  0  0  0  0  0  0  0
   -4.0510   -0.2027   -1.5905 H   0  0  0  0  0  0  0  0  0  0  0  0
   -3.6749   -1.4945   -2.7266 H   0  0  0  0  0  0  0  0  0  0  0  0
   -1.0912   -0.8411   -1.8391 H   0  0  0  0  0  0  0  0  0  0  0  0
   -1.8691   -0.0189   -3.2571 H   0  0  0  0  0  0  0  0  0  0  0  0
   -1.6334    1.9453   -3.2111 H   0  0  0  0  0  0  0  0  0  0  0  0
   -1.5429    6.4613   -1.0964 H   0  0  0  0  0  0  0  0  0  0  0  0
   -3.2012    5.6695   -1.2552 H   0  0  0  0  0  0  0  0  0  0  0  0
   -2.3630    2.4027    1.6884 H   0  0  0  0  0  0  0  0  0  0  0  0
   -3.1144    0.4092    1.8056 H   0  0  0  0  0  0  0  0  0  0  0  0
  1  2  1  0
  2  3  1  0
  3  4  2  0
  3  5  1  0
  5  6  1  1
  5  7  1  0
  7  8  1  0
  8  9  1  0
  9 10  1  0
 10 11  1  0
 10 12  1  0
 10 13  1  0
  5 14  1  0
 14 15  1  0
 15 16  2  0
 15 17  1  0
 17 18  1  0
  1 19  1  0
 19 20  1  0
 20 21  1  0
 19 22  2  0
 22 23  1  0
 23 24  1  1
 24 25  1  0
 25 26  1  0
 26 27  1  0
 27 28  1  0
 28 29  1  0
 29 30  1  0
 30 31  2  0
 31 32  1  0
 32 33  2  0
 33 34  1  0
 34 35  1  0
 35 36  1  0
 33 37  1  0
 37 38  2  0
 38 39  1  0
 39  1  1  0
 27 23  1  0
 38 30  1  0
 39 23  1  0
 36 32  1  0
  1 40  1  1
  6 41  1  0
  7 42  1  0
  7 43  1  0
  8 44  1  0
  8 45  1  0
  9 46  1  0
  9 47  1  0
 11 48  1  0
 11 49  1  0
 11 50  1  0
 12 51  1  0
 12 52  1  0
 12 53  1  0
 13 54  1  0
 14 55  1  0
 14 56  1  0
 18 57  1  0
 18 58  1  0
 18 59  1  0
 21 60  1  0
 21 61  1  0
 21 62  1  0
 22 63  1  0
 24 64  1  0
 24 65  1  0
 25 66  1  0
 25 67  1  0
 26 68  1  0
 26 69  1  0
 28 70  1  0
 28 71  1  0
 29 72  1  0
 29 73  1  0
 31 74  1  0
 35 75  1  0
 35 76  1  0
 37 77  1  0
 39 78  1  1
M  END
$$$$
