
     RDKit          3D

 76 80  0  0  0  0  0  0  0  0999 V2000
    4.9966   -2.3723    1.1096 C   0  0  1  0  0  0  0  0  0  0  0  0
    3.6285   -2.7119    0.5100 C   0  0  0  0  0  0  0  0  0  0  0  0
    2.9375   -1.5271    0.3259 O   0  0  0  0  0  0  0  0  0  0  0  0
    1.4164   -1.8996   -0.3403 P   0  0  0  0  0  0  0  0  0  0  0  0
    1.5353   -1.6040   -1.9914 O   0  0  0  0  0  1  0  0  0  0  0  0
    1.1048   -3.3807   -0.1320 O   0  0  0  0  0  0  0  0  0  0  0  0
    0.2102   -0.9897    0.4068 O   0  0  0  0  0  0  0  0  0  0  0  0
   -0.5994    0.0365   -0.6338 P   0  0  0  0  0  0  0  0  0  0  0  0
   -0.4918    1.6610   -0.1770 O   0  0  0  0  0  0  0  0  0  0  0  0
   -0.0040   -0.0745   -2.0080 O   0  0  0  0  0  0  0  0  0  0  0  0
   -2.2503   -0.3554   -0.7503 O   0  0  0  0  0  0  0  0  0  0  0  0
   -2.5185   -1.4755   -0.0023 C   0  0  0  0  0  0  0  0  0  0  0  0
   -3.9653   -1.9160   -0.0339 C   0  0  1  0  0  0  0  0  0  0  0  0
   -4.8349   -0.9412    0.4473 O   0  0  0  0  0  0  0  0  0  0  0  0
   -6.0451   -1.3117   -0.1158 C   0  0  1  0  0  0  0  0  0  0  0  0
   -7.1202   -0.4065    0.0957 N   0  0  0  0  0  4  0  0  0  0  0  0
   -8.3429   -0.9395    0.3652 C   0  0  0  0  0  0  0  0  0  0  0  0
   -9.4135   -0.1018    0.5770 C   0  0  0  0  0  0  0  0  0  0  0  0
   -9.2522    1.2740    0.5173 C   0  0  0  0  0  0  0  0  0  0  0  0
   -7.9882    1.7979    0.2392 C   0  0  0  0  0  0  0  0  0  0  0  0
   -6.9439    0.9186    0.0337 C   0  0  0  0  0  0  0  0  0  0  0  0
   -7.7157    3.2415    0.1545 C   0  0  0  0  0  0  0  0  0  0  0  0
   -8.7670    4.1269    0.3613 O   0  0  0  0  0  0  0  0  0  0  0  0
   -6.5140    3.6810   -0.1088 N   0  0  0  0  0  0  0  0  0  0  0  0
   -5.6431   -1.4365   -1.5887 C   0  0  2  0  0  0  0  0  0  0  0  0
   -6.6120   -2.0197   -2.3653 O   0  0  0  0  0  0  0  0  0  0  0  0
   -4.4120   -2.3326   -1.3949 C   0  0  2  0  0  0  0  0  0  0  0  0
   -4.8904   -3.6446   -1.3373 O   0  0  0  0  0  0  0  0  0  0  0  0
    5.6716   -1.5531    0.2421 O   0  0  0  0  0  0  0  0  0  0  0  0
    5.8355   -0.3020    0.8113 C   0  0  1  0  0  0  0  0  0  0  0  0
    5.6957    0.7551   -0.1681 N   0  0  0  0  0  0  0  0  0  0  0  0
    4.7798    1.7160   -0.3721 C   0  0  0  0  0  0  0  0  0  0  0  0
    5.1486    2.4488   -1.4564 N   0  0  0  0  0  0  0  0  0  0  0  0
    6.2983    1.9297   -1.9161 C   0  0  0  0  0  0  0  0  0  0  0  0
    7.0483    2.3318   -2.9876 C   0  0  0  0  0  0  0  0  0  0  0  0
    6.7137    3.4268   -3.8371 N   0  0  0  0  0  0  0  0  0  0  0  0
    8.1719    1.6820   -3.2884 N   0  0  0  0  0  0  0  0  0  0  0  0
    8.5241    0.6450   -2.5147 C   0  0  0  0  0  0  0  0  0  0  0  0
    7.7970    0.2330   -1.4529 N   0  0  0  0  0  0  0  0  0  0  0  0
    6.6539    0.8603   -1.1115 C   0  0  0  0  0  0  0  0  0  0  0  0
    4.8472   -0.1849    1.9536 C   0  0  2  0  0  0  0  0  0  0  0  0
    5.4341    0.6123    2.9306 O   0  0  0  0  0  0  0  0  0  0  0  0
    4.4990    1.9413    3.3683 P   0  0  0  0  0  0  0  0  0  0  0  0
    4.7475    2.3025    5.0023 O   0  0  0  0  0  0  0  0  0  0  0  0
    2.8663    1.7093    3.0156 O   0  0  0  0  0  0  0  0  0  0  0  0
    4.9573    3.1380    2.5656 O   0  0  0  0  0  0  0  0  0  0  0  0
    4.7948   -1.6492    2.3998 C   0  0  2  0  0  0  0  0  0  0  0  0
    5.8820   -1.8995    3.2319 O   0  0  0  0  0  0  0  0  0  0  0  0
    5.5425   -3.3151    1.2586 H   0  0  0  0  0  0  0  0  0  0  0  0
    3.0685   -3.4130    1.1591 H   0  0  0  0  0  0  0  0  0  0  0  0
    3.8299   -3.1517   -0.4897 H   0  0  0  0  0  0  0  0  0  0  0  0
   -0.8567    2.1855   -0.9230 H   0  0  0  0  0  0  0  0  0  0  0  0
   -1.9423   -2.3276   -0.4532 H   0  0  0  0  0  0  0  0  0  0  0  0
   -2.1460   -1.4136    1.0401 H   0  0  0  0  0  0  0  0  0  0  0  0
   -4.0344   -2.7593    0.7070 H   0  0  0  0  0  0  0  0  0  0  0  0
   -6.2709   -2.3270    0.2480 H   0  0  0  0  0  0  0  0  0  0  0  0
   -8.5387   -2.0200    0.4268 H   0  0  0  0  0  0  0  0  0  0  0  0
  -10.4094   -0.4396    0.7948 H   0  0  0  0  0  0  0  0  0  0  0  0
  -10.0505    1.9705    0.6739 H   0  0  0  0  0  0  0  0  0  0  0  0
   -5.9457    1.2678   -0.1847 H   0  0  0  0  0  0  0  0  0  0  0  0
   -8.6492    5.1400    0.2211 H   0  0  0  0  0  0  0  0  0  0  0  0
   -6.3665    4.7126   -0.1593 H   0  0  0  0  0  0  0  0  0  0  0  0
   -5.2348   -0.4824   -1.9721 H   0  0  0  0  0  0  0  0  0  0  0  0
   -6.5523   -1.5834   -3.2702 H   0  0  0  0  0  0  0  0  0  0  0  0
   -3.6580   -2.1750   -2.1885 H   0  0  0  0  0  0  0  0  0  0  0  0
   -5.0763   -3.9131   -2.2763 H   0  0  0  0  0  0  0  0  0  0  0  0
    6.8547   -0.2481    1.2469 H   0  0  0  0  0  0  0  0  0  0  0  0
    3.9180    1.8170    0.2726 H   0  0  0  0  0  0  0  0  0  0  0  0
    7.4728    4.0656   -4.1510 H   0  0  0  0  0  0  0  0  0  0  0  0
    5.8477    3.7996   -4.2694 H   0  0  0  0  0  0  0  0  0  0  0  0
    9.4204    0.0249   -2.6488 H   0  0  0  0  0  0  0  0  0  0  0  0
    3.8724    0.1770    1.6246 H   0  0  0  0  0  0  0  0  0  0  0  0
    5.1171    1.4893    5.4611 H   0  0  0  0  0  0  0  0  0  0  0  0
    2.3607    1.2578    3.7352 H   0  0  0  0  0  0  0  0  0  0  0  0
    3.8395   -1.9365    2.8350 H   0  0  0  0  0  0  0  0  0  0  0  0
    6.7163   -1.8420    2.7013 H   0  0  0  0  0  0  0  0  0  0  0  0
  1  2  1  0
  2  3  1  0
  3  4  1  0
  4  5  1  0
  4  6  2  0
  4  7  1  0
  7  8  1  0
  8  9  1  0
  8 10  2  0
  8 11  1  0
 11 12  1  0
 12 13  1  0
 13 14  1  0
 14 15  1  0
 15 16  1  0
 16 17  2  0
 17 18  1  0
 18 19  2  0
 19 20  1  0
 20 21  2  0
 20 22  1  0
 22 23  1  0
 22 24  2  3
 15 25  1  0
 25 26  1  0
 25 27  1  0
 27 28  1  0
  1 29  1  0
 29 30  1  0
 30 31  1  0
 31 32  1  0
 32 33  2  0
 33 34  1  0
 34 35  2  0
 35 36  1  0
 35 37  1  0
 37 38  2  0
 38 39  1  0
 39 40  2  0
 30 41  1  0
 41 42  1  0
 42 43  1  0
 43 44  1  0
 43 45  1  0
 43 46  2  0
 41 47  1  0
 47 48  1  0
 47  1  1  0
 27 13  1  0
 40 31  1  0
 21 16  1  0
 40 34  1  0
  1 49  1  1
  2 50  1  0
  2 51  1  0
  9 52  1  0
 12 53  1  0
 12 54  1  0
 13 55  1  1
 15 56  1  1
 17 57  1  0
 18 58  1  0
 19 59  1  0
 21 60  1  0
 23 61  1  0
 24 62  1  0
 25 63  1  6
 26 64  1  0
 27 65  1  6
 28 66  1  0
 30 67  1  1
 32 68  1  0
 36 69  1  0
 36 70  1  0
 38 71  1  0
 41 72  1  6
 44 73  1  0
 45 74  1  0
 47 75  1  1
 48 76  1  0
M  CHG  2   5  -1  16   1
M  END
$$$$
