
     RDKit          3D

 64 69  0  0  0  0  0  0  0  0999 V2000
   -2.8865   -1.9747   -0.5529 O   0  0  0  0  0  0  0  0  0  0  0  0
   -3.0587   -1.2294    0.4736 C   0  0  0  0  0  0  0  0  0  0  0  0
   -1.9955   -0.3114    0.6947 N   0  0  0  0  0  0  0  0  0  0  0  0
   -0.8200   -0.2126   -0.1339 C   0  0  0  0  0  0  0  0  0  0  0  0
   -0.5662    1.0993   -0.7774 C   0  0  0  0  0  0  0  0  0  0  0  0
    0.7960    0.9904   -1.4865 C   0  0  0  0  0  0  0  0  0  0  0  0
    0.8757   -0.2999   -2.2841 C   0  0  0  0  0  0  0  0  0  0  0  0
    1.4528   -1.3350   -1.3426 C   0  0  0  0  0  0  0  0  0  0  0  0
    1.6722   -0.5329   -0.0752 C   0  0  0  0  0  0  0  0  0  0  0  0
    0.3810   -0.5520    0.7366 C   0  0  0  0  0  0  0  0  0  0  0  0
    1.8593    0.8148   -0.5247 N   0  0  0  0  0  0  0  0  0  0  0  0
    3.1052    1.0600   -1.1974 C   0  0  0  0  0  0  0  0  0  0  0  0
    4.2845    0.8540   -0.3529 C   0  0  0  0  0  0  0  0  0  0  0  0
    4.8881   -0.3710   -0.2561 C   0  0  0  0  0  0  0  0  0  0  0  0
    5.9968   -0.5740    0.5425 C   0  0  0  0  0  0  0  0  0  0  0  0
    6.5289    0.4762    1.2758 C   0  0  0  0  0  0  0  0  0  0  0  0
    7.6516    0.2813    2.0898 C   0  0  0  0  0  0  0  0  0  0  0  0
    8.1909    1.2948    2.8189 C   0  0  0  0  0  0  0  0  0  0  0  0
    9.2714    1.1390    3.6125 F   0  0  0  0  0  0  0  0  0  0  0  0
    7.5969    2.5467    2.7385 C   0  0  0  0  0  0  0  0  0  0  0  0
    6.4942    2.7222    1.9328 C   0  0  0  0  0  0  0  0  0  0  0  0
    5.9420    1.7005    1.1917 C   0  0  0  0  0  0  0  0  0  0  0  0
    4.8199    1.8914    0.3770 C   0  0  0  0  0  0  0  0  0  0  0  0
   -4.2330   -1.3379    1.3084 C   0  0  0  0  0  0  0  0  0  0  0  0
   -4.1694   -1.7809    2.6299 C   0  0  0  0  0  0  0  0  0  0  0  0
   -5.2878   -1.8997    3.4196 C   0  0  0  0  0  0  0  0  0  0  0  0
   -6.5379   -1.5809    2.9332 C   0  0  0  0  0  0  0  0  0  0  0  0
   -6.6138   -1.1431    1.6315 C   0  0  0  0  0  0  0  0  0  0  0  0
   -5.4749   -1.0194    0.8196 C   0  0  0  0  0  0  0  0  0  0  0  0
   -5.6426   -0.5276   -0.5397 C   0  0  0  0  0  0  0  0  0  0  0  0
   -4.8855    0.5033   -1.0117 C   0  0  0  0  0  0  0  0  0  0  0  0
   -5.0831    0.9350   -2.3145 C   0  0  0  0  0  0  0  0  0  0  0  0
   -6.0147    0.3637   -3.1552 C   0  0  0  0  0  0  0  0  0  0  0  0
   -6.7843   -0.6875   -2.6697 C   0  0  0  0  0  0  0  0  0  0  0  0
   -6.5733   -1.1108   -1.3540 C   0  0  0  0  0  0  0  0  0  0  0  0
   -2.0592    0.3390    1.5073 H   0  0  0  0  0  0  0  0  0  0  0  0
   -0.8868   -1.0211   -0.8982 H   0  0  0  0  0  0  0  0  0  0  0  0
   -0.4897    1.9097   -0.0548 H   0  0  0  0  0  0  0  0  0  0  0  0
   -1.2805    1.3275   -1.6245 H   0  0  0  0  0  0  0  0  0  0  0  0
    0.9766    1.8481   -2.1342 H   0  0  0  0  0  0  0  0  0  0  0  0
    1.5454   -0.1113   -3.1534 H   0  0  0  0  0  0  0  0  0  0  0  0
   -0.0996   -0.5887   -2.7134 H   0  0  0  0  0  0  0  0  0  0  0  0
    2.3767   -1.8115   -1.7275 H   0  0  0  0  0  0  0  0  0  0  0  0
    0.7377   -2.1864   -1.1858 H   0  0  0  0  0  0  0  0  0  0  0  0
    2.4601   -0.9338    0.5591 H   0  0  0  0  0  0  0  0  0  0  0  0
    0.4621    0.1195    1.6112 H   0  0  0  0  0  0  0  0  0  0  0  0
    0.2132   -1.6068    1.0959 H   0  0  0  0  0  0  0  0  0  0  0  0
    3.2193    0.4501   -2.1408 H   0  0  0  0  0  0  0  0  0  0  0  0
    3.0335    2.1220   -1.5812 H   0  0  0  0  0  0  0  0  0  0  0  0
    4.5123   -1.2474   -0.8147 H   0  0  0  0  0  0  0  0  0  0  0  0
    6.4799   -1.5303    0.6263 H   0  0  0  0  0  0  0  0  0  0  0  0
    8.0798   -0.7156    2.1184 H   0  0  0  0  0  0  0  0  0  0  0  0
    8.0143    3.3517    3.3109 H   0  0  0  0  0  0  0  0  0  0  0  0
    6.0470    3.7047    1.8844 H   0  0  0  0  0  0  0  0  0  0  0  0
    4.4019    2.8772    0.3483 H   0  0  0  0  0  0  0  0  0  0  0  0
   -3.1979   -2.0326    3.0137 H   0  0  0  0  0  0  0  0  0  0  0  0
   -5.2353   -2.2458    4.4550 H   0  0  0  0  0  0  0  0  0  0  0  0
   -7.4087   -1.6816    3.5697 H   0  0  0  0  0  0  0  0  0  0  0  0
   -7.5651   -0.8922    1.2259 H   0  0  0  0  0  0  0  0  0  0  0  0
   -4.1371    1.0221   -0.4488 H   0  0  0  0  0  0  0  0  0  0  0  0
   -4.4891    1.7626   -2.7225 H   0  0  0  0  0  0  0  0  0  0  0  0
   -6.1820    0.6889   -4.1691 H   0  0  0  0  0  0  0  0  0  0  0  0
   -7.5310   -1.1871   -3.2608 H   0  0  0  0  0  0  0  0  0  0  0  0
   -7.1781   -1.9224   -0.9978 H   0  0  0  0  0  0  0  0  0  0  0  0
  1  2  2  0
  2  3  1  0
  3  4  1  0
  4  5  1  0
  5  6  1  0
  6  7  1  0
  7  8  1  0
  8  9  1  0
  9 10  1  0
  9 11  1  0
 11 12  1  0
 12 13  1  0
 13 14  2  0
 14 15  1  0
 15 16  2  0
 16 17  1  0
 17 18  2  0
 18 19  1  0
 18 20  1  0
 20 21  2  0
 21 22  1  0
 22 23  2  0
  2 24  1  0
 24 25  2  0
 25 26  1  0
 26 27  2  0
 27 28  1  0
 28 29  2  0
 29 30  1  0
 30 31  2  0
 31 32  1  0
 32 33  2  0
 33 34  1  0
 34 35  2  0
 10  4  1  0
 23 13  1  0
 29 24  1  0
 35 30  1  0
 11  6  1  0
 22 16  1  0
  3 36  1  0
  4 37  1  0
  5 38  1  0
  5 39  1  0
  6 40  1  0
  7 41  1  0
  7 42  1  0
  8 43  1  0
  8 44  1  0
  9 45  1  0
 10 46  1  0
 10 47  1  0
 12 48  1  0
 12 49  1  0
 14 50  1  0
 15 51  1  0
 17 52  1  0
 20 53  1  0
 21 54  1  0
 23 55  1  0
 25 56  1  0
 26 57  1  0
 27 58  1  0
 28 59  1  0
 31 60  1  0
 32 61  1  0
 33 62  1  0
 34 63  1  0
 35 64  1  0
M  END
$$$$
