
     RDKit          3D

 18 17  0  0  0  0  0  0  0  0999 V2000
    3.3371    1.0699   -0.5865 O   0  0  0  0  0  0  0  0  0  0  0  0
    2.5586   -0.0753   -0.4103 C   0  0  0  0  0  0  0  0  0  0  0  0
    1.6604    0.0006    0.8096 C   0  0  0  0  0  0  0  0  0  0  0  0
    0.7488   -1.5572    0.8929 S   0  0  0  0  0  0  0  0  0  0  0  0
   -0.5891   -1.7030   -0.7464 S   0  0  0  0  0  0  0  0  0  0  0  0
   -2.1644   -1.0006   -0.2777 C   0  0  0  0  0  0  0  0  0  0  0  0
   -2.1488    0.4876   -0.0595 C   0  0  0  0  0  0  0  0  0  0  0  0
   -3.4452    0.8732    0.3123 O   0  0  0  0  0  0  0  0  0  0  0  0
    3.9863    1.1892    0.1533 H   0  0  0  0  0  0  0  0  0  0  0  0
    1.9084   -0.2419   -1.2855 H   0  0  0  0  0  0  0  0  0  0  0  0
    3.2494   -0.9382   -0.3288 H   0  0  0  0  0  0  0  0  0  0  0  0
    0.9829    0.8563    0.7618 H   0  0  0  0  0  0  0  0  0  0  0  0
    2.3156    0.0754    1.7095 H   0  0  0  0  0  0  0  0  0  0  0  0
   -2.9011   -1.2560   -1.0970 H   0  0  0  0  0  0  0  0  0  0  0  0
   -2.5759   -1.4527    0.6624 H   0  0  0  0  0  0  0  0  0  0  0  0
   -1.9273    1.0664   -1.0073 H   0  0  0  0  0  0  0  0  0  0  0  0
   -1.3831    0.7695    0.6693 H   0  0  0  0  0  0  0  0  0  0  0  0
   -3.6127    1.8366    0.1879 H   0  0  0  0  0  0  0  0  0  0  0  0
  1  2  1  0
  2  3  1  0
  3  4  1  0
  4  5  1  0
  5  6  1  0
  6  7  1  0
  7  8  1  0
  1  9  1  0
  2 10  1  0
  2 11  1  0
  3 12  1  0
  3 13  1  0
  6 14  1  0
  6 15  1  0
  7 16  1  0
  7 17  1  0
  8 18  1  0
M  END
$$$$
