
     RDKit          3D

 58 62  0  0  0  0  0  0  0  0999 V2000
    5.8580    3.4754   -3.7036 C   0  0  0  0  0  0  0  0  0  0  0  0
    5.8850    3.4777   -2.3036 O   0  0  0  0  0  0  0  0  0  0  0  0
    5.0193    2.6383   -1.5789 C   0  0  0  0  0  0  0  0  0  0  0  0
    4.1384    1.8069   -2.2280 C   0  0  0  0  0  0  0  0  0  0  0  0
    3.2695    0.9646   -1.5268 C   0  0  0  0  0  0  0  0  0  0  0  0
    3.3214    0.9915   -0.1499 C   0  0  0  0  0  0  0  0  0  0  0  0
    2.6283    0.3124    0.8170 C   0  0  0  0  0  0  0  0  0  0  0  0
    1.6198   -0.6498    0.6069 N   0  0  0  0  0  0  0  0  0  0  0  0
    0.5094   -0.4605   -0.1302 C   0  0  0  0  0  0  0  0  0  0  0  0
    0.1824    0.5841   -0.7479 O   0  0  0  0  0  0  0  0  0  0  0  0
   -0.2564   -1.5768   -0.1331 N   0  0  0  0  0  0  0  0  0  0  0  0
   -1.5071   -1.7507   -0.8080 C   0  0  0  0  0  0  0  0  0  0  0  0
   -2.6821   -1.3663    0.0152 C   0  0  0  0  0  0  0  0  0  0  0  0
   -3.2971   -2.3038    0.8081 C   0  0  0  0  0  0  0  0  0  0  0  0
   -4.3823   -1.9018    1.5550 C   0  0  0  0  0  0  0  0  0  0  0  0
   -4.8543   -0.6152    1.5270 C   0  0  0  0  0  0  0  0  0  0  0  0
   -6.2345   -0.1245    2.4832 Cl  0  0  0  0  0  0  0  0  0  0  0  0
   -4.2453    0.3705    0.7235 C   0  0  0  0  0  0  0  0  0  0  0  0
   -4.7531    1.6479    0.7272 O   0  0  0  0  0  0  0  0  0  0  0  0
   -4.2314    2.6845   -0.0241 C   0  0  2  0  0  0  0  0  0  0  0  0
   -3.7857    3.8611    0.8397 C   0  0  0  0  0  0  0  0  0  0  0  0
   -5.2540    3.2735   -0.9562 C   0  0  0  0  0  0  0  0  0  0  0  0
   -6.4001    2.7939   -0.9507 O   0  0  0  0  0  0  0  0  0  0  0  0
   -4.8692    4.3093   -1.7643 O   0  0  0  0  0  0  0  0  0  0  0  0
   -3.1688   -0.0602   -0.0072 C   0  0  0  0  0  0  0  0  0  0  0  0
    0.3706   -2.5057    0.6161 C   0  0  0  0  0  0  0  0  0  0  0  0
    0.1045   -3.7972    0.9806 C   0  0  0  0  0  0  0  0  0  0  0  0
    0.9431   -4.5590    1.7875 C   0  0  0  0  0  0  0  0  0  0  0  0
    0.5754   -5.9599    2.1355 C   0  0  0  0  0  0  0  0  0  0  0  0
    0.2869   -5.9543    3.5081 F   0  0  0  0  0  0  0  0  0  0  0  0
   -0.5353   -6.3192    1.4262 F   0  0  0  0  0  0  0  0  0  0  0  0
    1.6238   -6.8303    1.9071 F   0  0  0  0  0  0  0  0  0  0  0  0
    2.1048   -3.9650    2.2376 C   0  0  0  0  0  0  0  0  0  0  0  0
    2.3934   -2.6485    1.8763 C   0  0  0  0  0  0  0  0  0  0  0  0
    1.5444   -1.9136    1.0741 C   0  0  0  0  0  0  0  0  0  0  0  0
    3.0894    0.7335    2.0011 N   0  0  0  0  0  0  0  0  0  0  0  0
    4.0183    1.6249    1.8174 O   0  0  0  0  0  0  0  0  0  0  0  0
    4.1940    1.8145    0.5282 C   0  0  0  0  0  0  0  0  0  0  0  0
    5.0360    2.6316   -0.2058 C   0  0  0  0  0  0  0  0  0  0  0  0
    6.7852    4.0239   -4.0424 H   0  0  0  0  0  0  0  0  0  0  0  0
    5.0168    4.0934   -4.1147 H   0  0  0  0  0  0  0  0  0  0  0  0
    5.7944    2.4806   -4.1637 H   0  0  0  0  0  0  0  0  0  0  0  0
    4.0873    1.7767   -3.3048 H   0  0  0  0  0  0  0  0  0  0  0  0
    2.5838    0.3176   -2.0598 H   0  0  0  0  0  0  0  0  0  0  0  0
   -1.5290   -1.2137   -1.7882 H   0  0  0  0  0  0  0  0  0  0  0  0
   -1.6481   -2.8369   -1.0735 H   0  0  0  0  0  0  0  0  0  0  0  0
   -2.9803   -3.3330    0.8780 H   0  0  0  0  0  0  0  0  0  0  0  0
   -4.8708   -2.6465    2.1855 H   0  0  0  0  0  0  0  0  0  0  0  0
   -3.3566    2.4522   -0.6587 H   0  0  0  0  0  0  0  0  0  0  0  0
   -4.5369    4.0969    1.6110 H   0  0  0  0  0  0  0  0  0  0  0  0
   -2.7791    3.6902    1.2653 H   0  0  0  0  0  0  0  0  0  0  0  0
   -3.7019    4.7402    0.1708 H   0  0  0  0  0  0  0  0  0  0  0  0
   -5.4928    4.6962   -2.4896 H   0  0  0  0  0  0  0  0  0  0  0  0
   -2.6493    0.6447   -0.6495 H   0  0  0  0  0  0  0  0  0  0  0  0
   -0.7997   -4.2868    0.6397 H   0  0  0  0  0  0  0  0  0  0  0  0
    2.7814   -4.5331    2.8690 H   0  0  0  0  0  0  0  0  0  0  0  0
    3.3062   -2.1831    2.2306 H   0  0  0  0  0  0  0  0  0  0  0  0
    5.7299    3.2866    0.3046 H   0  0  0  0  0  0  0  0  0  0  0  0
  1  2  1  0
  2  3  1  0
  3  4  2  0
  4  5  1  0
  5  6  2  0
  6  7  1  0
  7  8  1  0
  8  9  1  0
  9 10  2  0
  9 11  1  0
 11 12  1  0
 12 13  1  0
 13 14  2  0
 14 15  1  0
 15 16  2  0
 16 17  1  0
 16 18  1  0
 18 19  1  0
 19 20  1  0
 20 21  1  0
 20 22  1  0
 22 23  2  0
 22 24  1  0
 18 25  2  0
 11 26  1  0
 26 27  2  0
 27 28  1  0
 28 29  1  0
 29 30  1  0
 29 31  1  0
 29 32  1  0
 28 33  2  0
 33 34  1  0
 34 35  2  0
  7 36  2  0
 36 37  1  0
 37 38  1  0
 38 39  2  0
 39  3  1  0
 38  6  1  0
 35  8  1  0
 25 13  1  0
 35 26  1  0
  1 40  1  0
  1 41  1  0
  1 42  1  0
  4 43  1  0
  5 44  1  0
 12 45  1  0
 12 46  1  0
 14 47  1  0
 15 48  1  0
 20 49  1  6
 21 50  1  0
 21 51  1  0
 21 52  1  0
 24 53  1  0
 25 54  1  0
 27 55  1  0
 33 56  1  0
 34 57  1  0
 39 58  1  0
M  END
$$$$
