
     RDKit          3D

 55 59  0  0  0  0  0  0  0  0999 V2000
   -7.0866    2.8033   -0.0063 C   0  0  0  0  0  0  0  0  0  0  0  0
   -5.8362    2.9086    0.8260 C   0  0  0  0  0  0  0  0  0  0  0  0
   -5.9362    3.2059    2.0611 O   0  0  0  0  0  0  0  0  0  0  0  0
   -4.6020    2.6779    0.2256 N   0  0  0  0  0  0  0  0  0  0  0  0
   -3.3783    2.7636    0.9913 C   0  0  0  0  0  0  0  0  0  0  0  0
   -2.2606    2.2413    0.0973 C   0  0  0  0  0  0  0  0  0  0  0  0
   -2.5720    0.9189   -0.5158 C   0  0  0  0  0  0  0  0  0  0  0  0
   -2.5217   -0.1108    0.5469 C   0  0  0  0  0  0  0  0  0  0  0  0
   -3.6696   -0.5016    1.1284 N   0  0  0  0  0  0  0  0  0  0  0  0
   -3.7026   -1.4421    2.0820 C   0  0  0  0  0  0  0  0  0  0  0  0
   -2.5132   -2.0263    2.4764 C   0  0  0  0  0  0  0  0  0  0  0  0
   -1.3896   -1.6544    1.9183 N   0  0  0  0  0  0  0  0  0  0  0  0
   -1.3417   -0.6804    0.9286 C   0  0  0  0  0  0  0  0  0  0  0  0
   -0.1439   -0.3954    0.4465 O   0  0  0  0  0  0  0  0  0  0  0  0
    0.5907    0.3339   -0.3714 C   0  0  0  0  0  0  0  0  0  0  0  0
    1.3031   -0.4571   -1.5048 C   0  0  0  0  0  0  0  0  0  0  0  0
    2.5114   -0.4714   -0.7234 N   0  0  0  0  0  0  0  0  0  0  0  0
    3.7219   -1.2069   -0.7977 C   0  0  0  0  0  0  0  0  0  0  0  0
    3.8423   -2.2261   -1.7253 C   0  0  0  0  0  0  0  0  0  0  0  0
    5.0253   -2.9273   -1.7918 C   0  0  0  0  0  0  0  0  0  0  0  0
    6.0902   -2.6206   -0.9418 C   0  0  0  0  0  0  0  0  0  0  0  0
    7.2603   -3.3441   -1.0416 C   0  0  0  0  0  0  0  0  0  0  0  0
    8.3297   -3.0389   -0.1953 C   0  0  0  0  0  0  0  0  0  0  0  0
    8.2018   -2.0225    0.7248 C   0  0  0  0  0  0  0  0  0  0  0  0
    7.0114   -1.3275    0.7869 C   0  0  0  0  0  0  0  0  0  0  0  0
    5.9344   -1.5990   -0.0303 C   0  0  0  0  0  0  0  0  0  0  0  0
    4.7683   -0.9281    0.0165 N   0  0  0  0  0  0  0  0  0  0  0  0
    2.0141    0.5454    0.1663 C   0  0  0  0  0  0  0  0  0  0  0  0
   -3.9401    0.9072   -1.2005 C   0  0  0  0  0  0  0  0  0  0  0  0
   -4.4650    2.3402   -1.1676 C   0  0  0  0  0  0  0  0  0  0  0  0
   -7.0268    1.9044   -0.6300 H   0  0  0  0  0  0  0  0  0  0  0  0
   -7.9530    2.7252    0.6909 H   0  0  0  0  0  0  0  0  0  0  0  0
   -7.1703    3.7363   -0.5752 H   0  0  0  0  0  0  0  0  0  0  0  0
   -3.4176    2.2394    1.9563 H   0  0  0  0  0  0  0  0  0  0  0  0
   -3.1592    3.8380    1.1548 H   0  0  0  0  0  0  0  0  0  0  0  0
   -1.3934    2.0781    0.8025 H   0  0  0  0  0  0  0  0  0  0  0  0
   -1.9835    3.0183   -0.6143 H   0  0  0  0  0  0  0  0  0  0  0  0
   -1.8473    0.6727   -1.3068 H   0  0  0  0  0  0  0  0  0  0  0  0
   -4.5951   -1.7874    2.5766 H   0  0  0  0  0  0  0  0  0  0  0  0
   -2.5180   -2.8022    3.2591 H   0  0  0  0  0  0  0  0  0  0  0  0
    0.2349    1.2844   -0.8467 H   0  0  0  0  0  0  0  0  0  0  0  0
    1.3788    0.0816   -2.4482 H   0  0  0  0  0  0  0  0  0  0  0  0
    0.7971   -1.4322   -1.5989 H   0  0  0  0  0  0  0  0  0  0  0  0
    2.9962   -2.4378   -2.3688 H   0  0  0  0  0  0  0  0  0  0  0  0
    5.1252   -3.7316   -2.5211 H   0  0  0  0  0  0  0  0  0  0  0  0
    7.3131   -4.1335   -1.7803 H   0  0  0  0  0  0  0  0  0  0  0  0
    9.2267   -3.6391   -0.3182 H   0  0  0  0  0  0  0  0  0  0  0  0
    9.0524   -1.8167    1.3599 H   0  0  0  0  0  0  0  0  0  0  0  0
    6.9125   -0.5281    1.5112 H   0  0  0  0  0  0  0  0  0  0  0  0
    2.3564    1.5629   -0.0078 H   0  0  0  0  0  0  0  0  0  0  0  0
    2.0983    0.2741    1.2503 H   0  0  0  0  0  0  0  0  0  0  0  0
   -3.8586    0.5501   -2.2448 H   0  0  0  0  0  0  0  0  0  0  0  0
   -4.6773    0.3010   -0.6559 H   0  0  0  0  0  0  0  0  0  0  0  0
   -5.4103    2.3486   -1.7347 H   0  0  0  0  0  0  0  0  0  0  0  0
   -3.7266    3.0279   -1.6441 H   0  0  0  0  0  0  0  0  0  0  0  0
  1  2  1  0
  2  3  2  0
  2  4  1  0
  4  5  1  0
  5  6  1  0
  6  7  1  0
  7  8  1  0
  8  9  2  0
  9 10  1  0
 10 11  2  0
 11 12  1  0
 12 13  2  0
 13 14  1  0
 14 15  1  0
 15 16  1  0
 16 17  1  0
 17 18  1  0
 18 19  2  0
 19 20  1  0
 20 21  2  0
 21 22  1  0
 22 23  2  0
 23 24  1  0
 24 25  2  0
 25 26  1  0
 26 27  2  0
 17 28  1  0
  7 29  1  0
 29 30  1  0
 30  4  1  0
 13  8  1  0
 28 15  1  0
 27 18  1  0
 26 21  1  0
  1 31  1  0
  1 32  1  0
  1 33  1  0
  5 34  1  0
  5 35  1  0
  6 36  1  0
  6 37  1  0
  7 38  1  0
 10 39  1  0
 11 40  1  0
 15 41  1  0
 16 42  1  0
 16 43  1  0
 19 44  1  0
 20 45  1  0
 22 46  1  0
 23 47  1  0
 24 48  1  0
 25 49  1  0
 28 50  1  0
 28 51  1  0
 29 52  1  0
 29 53  1  0
 30 54  1  0
 30 55  1  0
M  END
$$$$
