
     RDKit          3D

 42 45  0  0  0  0  0  0  0  0999 V2000
    3.6686    3.7384   -0.5973 N   0  0  0  0  0  0  0  0  0  0  0  0
    2.2930    4.0070   -0.4605 C   0  0  0  0  0  0  0  0  0  0  0  0
    1.8964    5.1876   -0.4458 O   0  0  0  0  0  0  0  0  0  0  0  0
    1.3541    2.8816   -0.3379 C   0  0  0  0  0  0  0  0  0  0  0  0
   -0.0142    3.0720   -0.2002 C   0  0  0  0  0  0  0  0  0  0  0  0
   -0.7408    1.9562   -0.0998 N   0  0  0  0  0  0  0  0  0  0  0  0
   -0.2990    0.7044   -0.1176 C   0  0  0  0  0  0  0  0  0  0  0  0
   -1.2219   -0.3632    0.0021 N   0  0  0  0  0  0  0  0  0  0  0  0
   -2.6281   -0.1592    0.1591 C   0  0  1  0  0  0  0  0  0  0  0  0
   -3.3757   -1.5043    0.1440 C   0  0  0  0  0  0  0  0  0  0  0  0
   -4.8325   -1.2127    0.3568 C   0  0  0  0  0  0  0  0  0  0  0  0
   -5.0065   -0.4838    1.6741 C   0  0  0  0  0  0  0  0  0  0  0  0
   -4.3283    0.7741    1.5678 N   0  0  0  0  0  0  0  0  0  0  0  0
   -2.8967    0.5276    1.4863 C   0  0  0  0  0  0  0  0  0  0  0  0
    1.0918    0.4597   -0.2564 C   0  0  0  0  0  0  0  0  0  0  0  0
    1.6976   -0.7363   -0.2924 C   0  0  0  0  0  0  0  0  0  0  0  0
    3.0631   -0.7411   -0.4340 C   0  0  0  0  0  0  0  0  0  0  0  0
    4.0161   -1.9004   -0.5068 C   0  0  0  0  0  0  0  0  0  0  0  0
    3.6412   -3.1856   -0.4391 C   0  0  0  0  0  0  0  0  0  0  0  0
    4.5256   -4.1746   -0.5087 C   0  0  0  0  0  0  0  0  0  0  0  0
    6.1133   -3.2675   -0.6937 S   0  0  0  0  0  0  0  0  0  0  0  0
    5.3546   -1.6306   -0.6517 C   0  0  0  0  0  0  0  0  0  0  0  0
    3.5096    0.9810   -0.5189 S   0  0  0  0  0  0  0  0  0  0  0  0
    1.8327    1.5903   -0.3586 C   0  0  0  0  0  0  0  0  0  0  0  0
    4.2468    3.4616    0.2182 H   0  0  0  0  0  0  0  0  0  0  0  0
    4.1305    3.8134   -1.5230 H   0  0  0  0  0  0  0  0  0  0  0  0
   -0.3838    4.0677   -0.1842 H   0  0  0  0  0  0  0  0  0  0  0  0
   -0.8774   -1.3689   -0.0229 H   0  0  0  0  0  0  0  0  0  0  0  0
   -3.0456    0.4331   -0.6625 H   0  0  0  0  0  0  0  0  0  0  0  0
   -3.1976   -1.9609   -0.8497 H   0  0  0  0  0  0  0  0  0  0  0  0
   -2.9562   -2.1837    0.9121 H   0  0  0  0  0  0  0  0  0  0  0  0
   -5.1744   -0.5929   -0.5020 H   0  0  0  0  0  0  0  0  0  0  0  0
   -5.4551   -2.1122    0.3853 H   0  0  0  0  0  0  0  0  0  0  0  0
   -4.5114   -1.1036    2.4540 H   0  0  0  0  0  0  0  0  0  0  0  0
   -6.0790   -0.3932    1.8953 H   0  0  0  0  0  0  0  0  0  0  0  0
   -4.6046    1.2154    0.6548 H   0  0  0  0  0  0  0  0  0  0  0  0
   -2.5489   -0.1766    2.2734 H   0  0  0  0  0  0  0  0  0  0  0  0
   -2.3806    1.4887    1.4874 H   0  0  0  0  0  0  0  0  0  0  0  0
    1.1997   -1.7343   -0.2184 H   0  0  0  0  0  0  0  0  0  0  0  0
    2.5404   -3.4487   -0.3190 H   0  0  0  0  0  0  0  0  0  0  0  0
    4.4849   -5.2336   -0.4807 H   0  0  0  0  0  0  0  0  0  0  0  0
    5.8982   -0.6919   -0.7292 H   0  0  0  0  0  0  0  0  0  0  0  0
  1  2  1  0
  2  3  2  0
  2  4  1  0
  4  5  2  0
  5  6  1  0
  6  7  2  0
  7  8  1  0
  8  9  1  0
  9 10  1  0
 10 11  1  0
 11 12  1  0
 12 13  1  0
 13 14  1  0
  7 15  1  0
 15 16  1  0
 16 17  2  0
 17 18  1  0
 18 19  1  0
 19 20  2  0
 20 21  1  0
 21 22  1  0
 17 23  1  0
 23 24  1  0
 24  4  1  0
 14  9  1  0
 24 15  2  0
 22 18  2  0
  1 25  1  0
  1 26  1  0
  5 27  1  0
  8 28  1  0
  9 29  1  6
 10 30  1  0
 10 31  1  0
 11 32  1  0
 11 33  1  0
 12 34  1  0
 12 35  1  0
 13 36  1  0
 14 37  1  0
 14 38  1  0
 16 39  1  0
 19 40  1  0
 20 41  1  0
 22 42  1  0
M  END
$$$$
