
     RDKit          3D

 36 38  0  0  0  0  0  0  0  0999 V2000
    1.5632   -3.2332   -1.8507 C   0  0  0  0  0  0  0  0  0  0  0  0
    1.3074   -2.1774   -0.8207 C   0  0  0  0  0  0  0  0  0  0  0  0
    2.3695   -1.7391   -0.0619 C   0  0  0  0  0  0  0  0  0  0  0  0
    2.1614   -0.7540    0.9077 C   0  0  0  0  0  0  0  0  0  0  0  0
    3.2297   -0.3101    1.6741 O   0  0  0  0  0  0  0  0  0  0  0  0
    4.0128    0.7771    1.2465 C   0  0  0  0  0  0  0  0  0  0  0  0
    3.7060    1.3942    0.0594 C   0  0  0  0  0  0  0  0  0  0  0  0
    4.4542    2.4485   -0.3694 N   0  0  0  0  0  0  0  0  0  0  0  0
    5.4912    2.8857    0.3664 C   0  0  0  0  0  0  0  0  0  0  0  0
    5.7949    2.2855    1.5277 N   0  0  0  0  0  0  0  0  0  0  0  0
    5.0753    1.2331    1.9900 C   0  0  0  0  0  0  0  0  0  0  0  0
    0.8756   -0.2727    1.0459 C   0  0  0  0  0  0  0  0  0  0  0  0
   -0.1787   -0.7128    0.2874 C   0  0  0  0  0  0  0  0  0  0  0  0
   -1.5111   -0.1627    0.4841 C   0  0  0  0  0  0  0  0  0  0  0  0
   -1.7242    0.7207    1.3463 O   0  0  0  0  0  0  0  0  0  0  0  0
   -2.6154   -0.6021   -0.2878 N   0  0  0  0  0  0  0  0  0  0  0  0
   -3.9253   -0.0778   -0.1116 C   0  0  0  0  0  0  0  0  0  0  0  0
   -4.3296    1.0225   -0.8367 C   0  0  0  0  0  0  0  0  0  0  0  0
   -5.5891    1.5661   -0.7000 C   0  0  0  0  0  0  0  0  0  0  0  0
   -6.0067    2.6406   -1.3976 F   0  0  0  0  0  0  0  0  0  0  0  0
   -6.4576    0.9740    0.1974 C   0  0  0  0  0  0  0  0  0  0  0  0
   -6.0406   -0.1253    0.9159 C   0  0  0  0  0  0  0  0  0  0  0  0
   -4.8048   -0.6269    0.7553 N   0  0  0  0  0  0  0  0  0  0  0  0
    0.0756   -1.6608   -0.6304 N   0  0  0  0  0  0  0  0  0  0  0  0
    1.9394   -4.1528   -1.3918 H   0  0  0  0  0  0  0  0  0  0  0  0
    0.6842   -3.3791   -2.5053 H   0  0  0  0  0  0  0  0  0  0  0  0
    2.3742   -2.8466   -2.5157 H   0  0  0  0  0  0  0  0  0  0  0  0
    3.3556   -2.1366   -0.1975 H   0  0  0  0  0  0  0  0  0  0  0  0
    2.8822    1.0852   -0.5748 H   0  0  0  0  0  0  0  0  0  0  0  0
    6.0859    3.7204    0.0299 H   0  0  0  0  0  0  0  0  0  0  0  0
    5.3361    0.7621    2.9296 H   0  0  0  0  0  0  0  0  0  0  0  0
    0.7126    0.4835    1.7893 H   0  0  0  0  0  0  0  0  0  0  0  0
   -2.4758   -1.3486   -1.0279 H   0  0  0  0  0  0  0  0  0  0  0  0
   -3.6480    1.4836   -1.5381 H   0  0  0  0  0  0  0  0  0  0  0  0
   -7.4393    1.4018    0.3005 H   0  0  0  0  0  0  0  0  0  0  0  0
   -6.7407   -0.5666    1.6094 H   0  0  0  0  0  0  0  0  0  0  0  0
  1  2  1  0
  2  3  2  0
  3  4  1  0
  4  5  1  0
  5  6  1  0
  6  7  2  0
  7  8  1  0
  8  9  2  0
  9 10  1  0
 10 11  2  0
  4 12  2  0
 12 13  1  0
 13 14  1  0
 14 15  2  0
 14 16  1  0
 16 17  1  0
 17 18  2  0
 18 19  1  0
 19 20  1  0
 19 21  2  0
 21 22  1  0
 22 23  2  0
 13 24  2  0
 24  2  1  0
 11  6  1  0
 23 17  1  0
  1 25  1  0
  1 26  1  0
  1 27  1  0
  3 28  1  0
  7 29  1  0
  9 30  1  0
 11 31  1  0
 12 32  1  0
 16 33  1  0
 18 34  1  0
 21 35  1  0
 22 36  1  0
M  END
$$$$
