
     RDKit          3D

 18 17  0  0  0  0  0  0  0  0999 V2000
    4.4381    0.2744   -0.2323 C   0  0  0  0  0  0  0  0  0  0  0  0
    2.5311   -0.4451    0.1317 Hg  0  0  0  0  0  2  0  0  0  0  0  0
    0.5734   -1.6949    0.7148 S   0  0  0  0  0  0  0  0  0  0  0  0
   -0.8211   -0.5764    0.9390 C   0  0  0  0  0  0  0  0  0  0  0  0
   -1.2562    0.1165   -0.3167 C   0  0  1  0  0  0  0  0  0  0  0  0
   -1.6467   -0.9075   -1.2776 N   0  0  0  0  0  0  0  0  0  0  0  0
   -2.4692    0.9138    0.0202 C   0  0  0  0  0  0  0  0  0  0  0  0
   -2.6887    1.9876    0.8635 O   0  0  0  0  0  0  0  0  0  0  0  0
   -3.3872    0.4007   -0.6651 O   0  0  0  0  0  0  0  0  0  0  0  0
    4.4138    1.3634   -0.4374 H   0  0  0  0  0  0  0  0  0  0  0  0
    4.9044   -0.1916   -1.1219 H   0  0  0  0  0  0  0  0  0  0  0  0
    5.1385    0.1068    0.6170 H   0  0  0  0  0  0  0  0  0  0  0  0
   -1.6848   -1.2408    1.2291 H   0  0  0  0  0  0  0  0  0  0  0  0
   -0.6787    0.1367    1.7873 H   0  0  0  0  0  0  0  0  0  0  0  0
   -0.4495    0.7118   -0.7510 H   0  0  0  0  0  0  0  0  0  0  0  0
   -0.8617   -1.5224   -1.5268 H   0  0  0  0  0  0  0  0  0  0  0  0
   -2.3976   -1.4984   -0.8194 H   0  0  0  0  0  0  0  0  0  0  0  0
   -3.6580    2.0654    1.2058 H   0  0  0  0  0  0  0  0  0  0  0  0
  1  2  1  0
  2  3  1  0
  3  4  1  0
  4  5  1  0
  5  6  1  0
  5  7  1  0
  7  8  1  0
  7  9  2  0
  1 10  1  0
  1 11  1  0
  1 12  1  0
  4 13  1  0
  4 14  1  0
  5 15  1  6
  6 16  1  0
  6 17  1  0
  8 18  1  0
M  END
$$$$
