
     RDKit          3D

 45 48  0  0  0  0  0  0  0  0999 V2000
   -1.3256   -0.8286    2.1156 O   0  0  0  0  0  0  0  0  0  0  0  0
   -2.4265   -0.2101    1.9855 C   0  0  0  0  0  0  0  0  0  0  0  0
   -3.5651   -0.9572    2.2765 N   0  0  0  0  0  0  0  0  0  0  0  0
   -3.5403   -2.3426    2.7014 C   0  0  0  0  0  0  0  0  0  0  0  0
   -4.3564   -2.5960    3.9651 C   0  0  0  0  0  0  0  0  0  0  0  0
   -4.6627   -3.2437    2.6041 C   0  0  0  0  0  0  0  0  0  0  0  0
   -2.3700    1.1706    1.5579 C   0  0  0  0  0  0  0  0  0  0  0  0
   -1.1230    1.7193    1.2134 C   0  0  0  0  0  0  0  0  0  0  0  0
   -1.0363    3.0186    0.7950 C   0  0  0  0  0  0  0  0  0  0  0  0
    0.2077    3.6001    0.4678 N   0  0  0  0  0  0  0  0  0  0  0  0
    1.4974    2.9960    0.4523 C   0  0  0  0  0  0  0  0  0  0  0  0
    1.7496    2.1222   -0.7395 C   0  0  0  0  0  0  0  0  0  0  0  0
    2.1875    2.3964   -1.9908 C   0  0  0  0  0  0  0  0  0  0  0  0
    2.3214    1.3717   -2.7918 N   0  0  0  0  0  0  0  0  0  0  0  0
    2.1262    0.2456   -2.6122 C   0  0  0  0  0  0  0  0  0  0  0  0
    2.1533   -1.0710   -3.2114 N   0  0  0  0  0  0  0  0  0  0  0  0
    3.3665   -1.8228   -3.1791 C   0  0  0  0  0  0  0  0  0  0  0  0
    4.4949   -1.3170   -2.6006 C   0  0  0  0  0  0  0  0  0  0  0  0
    5.6503   -2.0482   -2.5804 C   0  0  0  0  0  0  0  0  0  0  0  0
    5.6722   -3.2904   -3.1425 C   0  0  0  0  0  0  0  0  0  0  0  0
    4.5256   -3.8111   -3.7334 C   0  0  0  0  0  0  0  0  0  0  0  0
    3.4178   -3.0452   -3.7231 N   0  0  0  0  0  0  0  0  0  0  0  0
    1.5437    0.3080   -0.7857 S   0  0  0  0  0  0  0  0  0  0  0  0
   -2.1852    3.8164    0.7061 C   0  0  0  0  0  0  0  0  0  0  0  0
   -2.0579    5.1194    0.2828 F   0  0  0  0  0  0  0  0  0  0  0  0
   -3.4023    3.2925    1.0393 C   0  0  0  0  0  0  0  0  0  0  0  0
   -3.4821    1.9586    1.4668 C   0  0  0  0  0  0  0  0  0  0  0  0
   -4.7203    1.5166    1.7842 F   0  0  0  0  0  0  0  0  0  0  0  0
   -4.5036   -0.5330    2.1927 H   0  0  0  0  0  0  0  0  0  0  0  0
   -2.5190   -2.7692    2.7671 H   0  0  0  0  0  0  0  0  0  0  0  0
   -5.0195   -1.7925    4.3276 H   0  0  0  0  0  0  0  0  0  0  0  0
   -3.9331   -3.2502    4.7528 H   0  0  0  0  0  0  0  0  0  0  0  0
   -5.6689   -2.9828    2.2457 H   0  0  0  0  0  0  0  0  0  0  0  0
   -4.4596   -4.3311    2.5667 H   0  0  0  0  0  0  0  0  0  0  0  0
   -0.2472    1.0745    1.3130 H   0  0  0  0  0  0  0  0  0  0  0  0
    0.2083    4.6391    0.1892 H   0  0  0  0  0  0  0  0  0  0  0  0
    1.5870    2.3832    1.3848 H   0  0  0  0  0  0  0  0  0  0  0  0
    2.3288    3.7472    0.5561 H   0  0  0  0  0  0  0  0  0  0  0  0
    2.4162    3.4281   -2.3103 H   0  0  0  0  0  0  0  0  0  0  0  0
    1.3061   -1.4827   -3.6665 H   0  0  0  0  0  0  0  0  0  0  0  0
    4.5201   -0.3217   -2.1368 H   0  0  0  0  0  0  0  0  0  0  0  0
    6.5423   -1.6487   -2.1237 H   0  0  0  0  0  0  0  0  0  0  0  0
    6.5418   -3.9343   -3.1703 H   0  0  0  0  0  0  0  0  0  0  0  0
    4.5422   -4.8013   -4.1826 H   0  0  0  0  0  0  0  0  0  0  0  0
   -4.3024    3.9123    0.9710 H   0  0  0  0  0  0  0  0  0  0  0  0
  1  2  2  0
  2  3  1  0
  3  4  1  0
  4  5  1  0
  5  6  1  0
  2  7  1  0
  7  8  2  0
  8  9  1  0
  9 10  1  0
 10 11  1  0
 11 12  1  0
 12 13  2  0
 13 14  1  0
 14 15  2  0
 15 16  1  0
 16 17  1  0
 17 18  2  0
 18 19  1  0
 19 20  2  0
 20 21  1  0
 21 22  2  0
 15 23  1  0
  9 24  2  0
 24 25  1  0
 24 26  1  0
 26 27  2  0
 27 28  1  0
  6  4  1  0
 27  7  1  0
 23 12  1  0
 22 17  1  0
  3 29  1  0
  4 30  1  0
  5 31  1  0
  5 32  1  0
  6 33  1  0
  6 34  1  0
  8 35  1  0
 10 36  1  0
 11 37  1  0
 11 38  1  0
 13 39  1  0
 16 40  1  0
 18 41  1  0
 19 42  1  0
 20 43  1  0
 21 44  1  0
 26 45  1  0
M  END
$$$$
