
     RDKit          3D

 56 59  0  0  0  0  0  0  0  0999 V2000
    8.6325    0.0158   -1.3442 C   0  0  0  0  0  0  0  0  0  0  0  0
    7.9621    0.8415   -0.3078 C   0  0  0  0  0  0  0  0  0  0  0  0
    8.6523    1.5098    0.4996 O   0  0  0  0  0  0  0  0  0  0  0  0
    6.5492    0.8930   -0.2081 N   0  0  0  0  0  0  0  0  0  0  0  0
    5.4524    0.2864   -0.9305 C   0  0  0  0  0  0  0  0  0  0  0  0
    4.5881    1.4566   -0.5122 C   0  0  0  0  0  0  0  0  0  0  0  0
    3.2223    1.0637   -0.1169 C   0  0  0  0  0  0  0  0  0  0  0  0
    2.0794    1.6457   -0.5120 N   0  0  0  0  0  0  0  0  0  0  0  0
    1.0685    1.0150    0.0481 O   0  0  0  0  0  0  0  0  0  0  0  0
    1.5003    0.0325    0.8027 C   0  0  0  0  0  0  0  0  0  0  0  0
    0.6867   -0.9369    1.6197 C   0  0  2  0  0  0  0  0  0  0  0  0
    1.5819   -2.1494    1.8166 C   0  0  0  0  0  0  0  0  0  0  0  0
    1.1638   -3.1583    0.8083 C   0  0  0  0  0  0  0  0  0  0  0  0
    0.0036   -2.5291    0.0764 C   0  0  0  0  0  0  0  0  0  0  0  0
   -0.4396   -1.4261    0.8600 N   0  0  0  0  0  0  0  0  0  0  0  0
   -1.7503   -0.8858    0.9072 C   0  0  0  0  0  0  0  0  0  0  0  0
   -2.0162    0.1010    1.6561 O   0  0  0  0  0  0  0  0  0  0  0  0
   -2.7877   -1.4944    0.0720 C   0  0  0  0  0  0  0  0  0  0  0  0
   -4.0993   -0.7675    0.1628 C   0  0  2  0  0  0  0  0  0  0  0  0
   -5.1005   -1.4613   -0.6751 N   0  0  0  0  0  0  0  0  0  0  0  0
   -3.9335    0.6468   -0.3891 C   0  0  0  0  0  0  0  0  0  0  0  0
   -5.2497    1.3644   -0.2961 C   0  0  0  0  0  0  0  0  0  0  0  0
   -6.0240    1.5637   -1.4043 C   0  0  0  0  0  0  0  0  0  0  0  0
   -7.2344    2.2225   -1.3187 C   0  0  0  0  0  0  0  0  0  0  0  0
   -7.9987    2.4157   -2.4354 F   0  0  0  0  0  0  0  0  0  0  0  0
   -7.6764    2.6899   -0.1005 C   0  0  0  0  0  0  0  0  0  0  0  0
   -8.8662    3.3349   -0.0290 F   0  0  0  0  0  0  0  0  0  0  0  0
   -6.8889    2.4832    1.0053 C   0  0  0  0  0  0  0  0  0  0  0  0
   -5.6784    1.8241    0.9183 C   0  0  0  0  0  0  0  0  0  0  0  0
   -4.9510    1.6524    2.0452 F   0  0  0  0  0  0  0  0  0  0  0  0
    2.8544    0.0648    0.6978 N   0  0  0  0  0  0  0  0  0  0  0  0
    5.5763    1.5531    0.6351 C   0  0  0  0  0  0  0  0  0  0  0  0
    9.4486   -0.5740   -0.8837 H   0  0  0  0  0  0  0  0  0  0  0  0
    7.8739   -0.7326   -1.6988 H   0  0  0  0  0  0  0  0  0  0  0  0
    8.9913    0.6784   -2.1530 H   0  0  0  0  0  0  0  0  0  0  0  0
    5.1149   -0.6963   -0.4928 H   0  0  0  0  0  0  0  0  0  0  0  0
    5.6058    0.1625   -2.0207 H   0  0  0  0  0  0  0  0  0  0  0  0
    4.6369    2.2957   -1.2289 H   0  0  0  0  0  0  0  0  0  0  0  0
    0.4313   -0.4513    2.5615 H   0  0  0  0  0  0  0  0  0  0  0  0
    1.4748   -2.5107    2.8738 H   0  0  0  0  0  0  0  0  0  0  0  0
    2.6554   -1.8952    1.6494 H   0  0  0  0  0  0  0  0  0  0  0  0
    0.8438   -4.1089    1.2969 H   0  0  0  0  0  0  0  0  0  0  0  0
    1.9865   -3.3932    0.0971 H   0  0  0  0  0  0  0  0  0  0  0  0
   -0.7723   -3.3192   -0.0568 H   0  0  0  0  0  0  0  0  0  0  0  0
    0.3316   -2.2089   -0.9369 H   0  0  0  0  0  0  0  0  0  0  0  0
   -2.4063   -1.5088   -0.9737 H   0  0  0  0  0  0  0  0  0  0  0  0
   -2.9562   -2.5626    0.3381 H   0  0  0  0  0  0  0  0  0  0  0  0
   -4.4823   -0.7119    1.1920 H   0  0  0  0  0  0  0  0  0  0  0  0
   -4.9235   -2.4793   -0.6711 H   0  0  0  0  0  0  0  0  0  0  0  0
   -6.0658   -1.2535   -0.3229 H   0  0  0  0  0  0  0  0  0  0  0  0
   -3.6821    0.5859   -1.4777 H   0  0  0  0  0  0  0  0  0  0  0  0
   -3.1340    1.2118    0.0958 H   0  0  0  0  0  0  0  0  0  0  0  0
   -5.6609    1.1913   -2.3437 H   0  0  0  0  0  0  0  0  0  0  0  0
   -7.2568    2.8577    1.9450 H   0  0  0  0  0  0  0  0  0  0  0  0
    5.2388    0.9481    1.4867 H   0  0  0  0  0  0  0  0  0  0  0  0
    5.8277    2.6071    0.8944 H   0  0  0  0  0  0  0  0  0  0  0  0
  1  2  1  0
  2  3  2  0
  2  4  1  0
  4  5  1  0
  5  6  1  0
  6  7  1  0
  7  8  2  0
  8  9  1  0
  9 10  1  0
 10 11  1  0
 11 12  1  0
 12 13  1  0
 13 14  1  0
 14 15  1  0
 15 16  1  0
 16 17  2  0
 16 18  1  0
 18 19  1  0
 19 20  1  0
 19 21  1  0
 21 22  1  0
 22 23  2  0
 23 24  1  0
 24 25  1  0
 24 26  2  0
 26 27  1  0
 26 28  1  0
 28 29  2  0
 29 30  1  0
 10 31  2  0
  6 32  1  0
 32  4  1  0
 31  7  1  0
 15 11  1  0
 29 22  1  0
  1 33  1  0
  1 34  1  0
  1 35  1  0
  5 36  1  0
  5 37  1  0
  6 38  1  0
 11 39  1  1
 12 40  1  0
 12 41  1  0
 13 42  1  0
 13 43  1  0
 14 44  1  0
 14 45  1  0
 18 46  1  0
 18 47  1  0
 19 48  1  1
 20 49  1  0
 20 50  1  0
 21 51  1  0
 21 52  1  0
 23 53  1  0
 28 54  1  0
 32 55  1  0
 32 56  1  0
M  END
$$$$
