
     RDKit          3D

 72 74  0  0  0  0  0  0  0  0999 V2000
    2.3911   -3.4706   -4.8707 C   0  0  0  0  0  0  0  0  0  0  0  0
    2.3014   -2.3096   -4.0827 O   0  0  0  0  0  0  0  0  0  0  0  0
    1.6218   -2.1484   -2.9179 C   0  0  0  0  0  0  0  0  0  0  0  0
    0.9847   -3.1447   -2.4487 O   0  0  0  0  0  0  0  0  0  0  0  0
    1.5834   -0.9113   -2.1818 N   0  0  0  0  0  0  0  0  0  0  0  0
    0.8216   -0.8162   -0.9331 C   0  0  0  0  0  0  0  0  0  0  0  0
    1.4187    0.1185    0.0483 C   0  0  0  0  0  0  0  0  0  0  0  0
    2.7895   -0.1921    0.4733 C   0  0  0  0  0  0  0  0  0  0  0  0
    3.0477   -1.0140    1.5433 C   0  0  0  0  0  0  0  0  0  0  0  0
    4.3595   -1.2749    1.9345 C   0  0  0  0  0  0  0  0  0  0  0  0
    5.4084   -0.7233    1.2661 C   0  0  0  0  0  0  0  0  0  0  0  0
    6.7885   -0.9232    1.6281 N   0  0  0  0  0  0  0  0  0  0  0  0
    7.1157   -0.7135    2.8490 C   0  0  0  0  0  0  0  0  0  0  0  0
    8.4419   -0.8834    3.3050 N   0  0  0  0  0  0  0  0  0  0  0  0
    6.1190   -0.2807    3.7636 N   0  0  0  0  0  0  0  0  0  0  0  0
    5.1253    0.1084    0.1811 C   0  0  0  0  0  0  0  0  0  0  0  0
    3.8457    0.3787   -0.2194 C   0  0  0  0  0  0  0  0  0  0  0  0
   -0.8344   -0.1985   -1.4523 P   0  0  0  0  0  5  0  0  0  0  0  0
   -0.7083    0.6651   -2.6812 O   0  0  0  0  0  0  0  0  0  0  0  0
   -1.7960   -1.5569   -1.7959 O   0  0  0  0  0  0  0  0  0  0  0  0
   -2.7178   -2.0939   -0.9102 C   0  0  0  0  0  0  0  0  0  0  0  0
   -2.5772   -2.0372    0.4584 C   0  0  0  0  0  0  0  0  0  0  0  0
   -3.5261   -2.5884    1.2870 C   0  0  0  0  0  0  0  0  0  0  0  0
   -4.6713   -3.2295    0.8074 C   0  0  0  0  0  0  0  0  0  0  0  0
   -5.5573   -3.7332    1.7883 N   0  0  0  0  0  0  0  0  0  0  0  0
   -6.7586   -4.4356    1.5439 C   0  0  0  0  0  0  0  0  0  0  0  0
   -7.6148   -4.9138    2.7073 C   0  0  0  0  0  0  0  0  0  0  0  0
   -7.1283   -4.6709    0.3777 O   0  0  0  0  0  0  0  0  0  0  0  0
   -4.8060   -3.2849   -0.5377 C   0  0  0  0  0  0  0  0  0  0  0  0
   -3.8495   -2.7286   -1.3895 C   0  0  0  0  0  0  0  0  0  0  0  0
   -1.5698    0.7370   -0.2330 O   0  0  0  0  0  0  0  0  0  0  0  0
   -1.6163    2.1262   -0.2737 C   0  0  0  0  0  0  0  0  0  0  0  0
   -1.1960    2.9139    0.7812 C   0  0  0  0  0  0  0  0  0  0  0  0
   -1.2543    4.3035    0.7153 C   0  0  0  0  0  0  0  0  0  0  0  0
   -1.7354    4.9038   -0.4171 C   0  0  0  0  0  0  0  0  0  0  0  0
   -1.8156    6.3300   -0.5188 N   0  0  0  0  0  0  0  0  0  0  0  0
   -0.7150    7.0644   -1.0126 C   0  0  0  0  0  0  0  0  0  0  0  0
   -0.7059    8.5509   -1.1594 C   0  0  0  0  0  0  0  0  0  0  0  0
    0.3371    6.4628   -1.3642 O   0  0  0  0  0  0  0  0  0  0  0  0
   -2.1596    4.1448   -1.4817 C   0  0  0  0  0  0  0  0  0  0  0  0
   -2.0955    2.7578   -1.3992 C   0  0  0  0  0  0  0  0  0  0  0  0
    3.4314   -3.7093   -5.1995 H   0  0  0  0  0  0  0  0  0  0  0  0
    1.8893   -4.3474   -4.4242 H   0  0  0  0  0  0  0  0  0  0  0  0
    1.8489   -3.2356   -5.8238 H   0  0  0  0  0  0  0  0  0  0  0  0
    2.1169   -0.1132   -2.5687 H   0  0  0  0  0  0  0  0  0  0  0  0
    0.6455   -1.8072   -0.5500 H   0  0  0  0  0  0  0  0  0  0  0  0
    1.4211    1.1510   -0.4122 H   0  0  0  0  0  0  0  0  0  0  0  0
    0.7254    0.2206    0.9175 H   0  0  0  0  0  0  0  0  0  0  0  0
    2.2224   -1.4739    2.0944 H   0  0  0  0  0  0  0  0  0  0  0  0
    4.5602   -1.9244    2.7739 H   0  0  0  0  0  0  0  0  0  0  0  0
    9.2496   -0.3716    2.8391 H   0  0  0  0  0  0  0  0  0  0  0  0
    8.6272   -1.5146    4.1044 H   0  0  0  0  0  0  0  0  0  0  0  0
    5.3674    0.4013    3.4508 H   0  0  0  0  0  0  0  0  0  0  0  0
    6.1010   -0.6247    4.7518 H   0  0  0  0  0  0  0  0  0  0  0  0
    5.9698    0.5330   -0.3285 H   0  0  0  0  0  0  0  0  0  0  0  0
    3.6565    1.0386   -1.0745 H   0  0  0  0  0  0  0  0  0  0  0  0
   -1.6988   -1.5459    0.8451 H   0  0  0  0  0  0  0  0  0  0  0  0
   -3.3445   -2.5002    2.3584 H   0  0  0  0  0  0  0  0  0  0  0  0
   -5.3439   -3.5968    2.8303 H   0  0  0  0  0  0  0  0  0  0  0  0
   -7.0526   -4.7801    3.6289 H   0  0  0  0  0  0  0  0  0  0  0  0
   -7.7478   -5.9966    2.5499 H   0  0  0  0  0  0  0  0  0  0  0  0
   -8.5740   -4.3705    2.7177 H   0  0  0  0  0  0  0  0  0  0  0  0
   -5.6646   -3.7595   -0.9750 H   0  0  0  0  0  0  0  0  0  0  0  0
   -3.9645   -2.7791   -2.4614 H   0  0  0  0  0  0  0  0  0  0  0  0
   -0.8268    2.4247    1.6475 H   0  0  0  0  0  0  0  0  0  0  0  0
   -0.9236    4.9172    1.5419 H   0  0  0  0  0  0  0  0  0  0  0  0
   -2.6874    6.8538   -0.2305 H   0  0  0  0  0  0  0  0  0  0  0  0
   -0.2348    9.0273   -0.2788 H   0  0  0  0  0  0  0  0  0  0  0  0
   -0.1265    8.7872   -2.0665 H   0  0  0  0  0  0  0  0  0  0  0  0
   -1.7606    8.9337   -1.2189 H   0  0  0  0  0  0  0  0  0  0  0  0
   -2.5377    4.6548   -2.3651 H   0  0  0  0  0  0  0  0  0  0  0  0
   -2.4367    2.2189   -2.2520 H   0  0  0  0  0  0  0  0  0  0  0  0
  1  2  1  0
  2  3  1  0
  3  4  2  0
  3  5  1  0
  5  6  1  0
  6  7  1  0
  7  8  1  0
  8  9  2  0
  9 10  1  0
 10 11  2  0
 11 12  1  0
 12 13  2  3
 13 14  1  0
 13 15  1  0
 11 16  1  0
 16 17  2  0
  6 18  1  0
 18 19  2  0
 18 20  1  0
 20 21  1  0
 21 22  2  0
 22 23  1  0
 23 24  2  0
 24 25  1  0
 25 26  1  0
 26 27  1  0
 26 28  2  0
 24 29  1  0
 29 30  2  0
 18 31  1  0
 31 32  1  0
 32 33  2  0
 33 34  1  0
 34 35  2  0
 35 36  1  0
 36 37  1  0
 37 38  1  0
 37 39  2  0
 35 40  1  0
 40 41  2  0
 17  8  1  0
 30 21  1  0
 41 32  1  0
  1 42  1  0
  1 43  1  0
  1 44  1  0
  5 45  1  0
  6 46  1  0
  7 47  1  0
  7 48  1  0
  9 49  1  0
 10 50  1  0
 14 51  1  0
 14 52  1  0
 15 53  1  0
 15 54  1  0
 16 55  1  0
 17 56  1  0
 22 57  1  0
 23 58  1  0
 25 59  1  0
 27 60  1  0
 27 61  1  0
 27 62  1  0
 29 63  1  0
 30 64  1  0
 33 65  1  0
 34 66  1  0
 36 67  1  0
 38 68  1  0
 38 69  1  0
 38 70  1  0
 40 71  1  0
 41 72  1  0
M  END
$$$$
