
     RDKit          3D

 47 49  0  0  0  0  0  0  0  0999 V2000
    5.3153   -1.8352   -2.8428 N   0  0  0  0  0  0  0  0  0  0  0  0
    5.9396   -1.5162   -1.9323 C   0  0  0  0  0  0  0  0  0  0  0  0
    6.7169   -1.0918   -0.7697 C   0  0  0  0  0  0  0  0  0  0  0  0
    8.0647   -0.8474   -0.8733 C   0  0  0  0  0  0  0  0  0  0  0  0
    8.7919   -0.4481    0.1884 N   0  0  0  0  0  0  0  0  0  0  0  0
    8.2498   -0.2651    1.4054 C   0  0  0  0  0  0  0  0  0  0  0  0
    6.8995   -0.5008    1.5467 C   0  0  0  0  0  0  0  0  0  0  0  0
    6.1420   -0.9098    0.4695 C   0  0  0  0  0  0  0  0  0  0  0  0
    4.6902   -1.1730    0.6022 C   0  0  0  0  0  0  0  0  0  0  0  0
    4.0140   -0.0867    0.0024 O   0  0  0  0  0  0  0  0  0  0  0  0
    2.6391   -0.0682   -0.0147 C   0  0  0  0  0  0  0  0  0  0  0  0
    1.9888    0.9896   -0.6054 C   0  0  0  0  0  0  0  0  0  0  0  0
    0.6457    0.9875   -0.6104 N   0  0  0  0  0  0  0  0  0  0  0  0
   -0.0583   -0.0253   -0.0506 C   0  0  0  0  0  0  0  0  0  0  0  0
   -1.4685   -0.0776   -0.0396 N   0  0  0  0  0  0  0  0  0  0  0  0
   -2.1290   -1.0997    0.7007 C   0  0  0  0  0  0  0  0  0  0  0  0
   -3.5561   -1.3248    0.3437 C   0  0  0  0  0  0  0  0  0  0  0  0
   -4.1816   -0.2093   -0.3326 N   0  0  0  0  0  0  0  0  0  0  0  0
   -5.4791    0.2718    0.0481 C   0  0  0  0  0  0  0  0  0  0  0  0
   -6.0945   -0.2729    0.9925 O   0  0  0  0  0  0  0  0  0  0  0  0
   -6.0736    1.3275   -0.6050 O   0  0  0  0  0  0  0  0  0  0  0  0
   -7.3107    1.9027   -0.3516 C   0  0  0  0  0  0  0  0  0  0  0  0
   -7.4997    2.5241    0.9884 C   0  0  0  0  0  0  0  0  0  0  0  0
   -6.5979    3.5441    1.2322 F   0  0  0  0  0  0  0  0  0  0  0  0
   -7.4463    1.6181    1.9912 F   0  0  0  0  0  0  0  0  0  0  0  0
   -8.7877    3.0917    1.0132 F   0  0  0  0  0  0  0  0  0  0  0  0
   -3.4380    0.4031   -1.4152 C   0  0  0  0  0  0  0  0  0  0  0  0
   -2.1592    0.9393   -0.8147 C   0  0  0  0  0  0  0  0  0  0  0  0
    0.6158   -1.0373    0.5151 N   0  0  0  0  0  0  0  0  0  0  0  0
    1.9506   -1.1088    0.5608 C   0  0  0  0  0  0  0  0  0  0  0  0
    8.5303   -0.9882   -1.8540 H   0  0  0  0  0  0  0  0  0  0  0  0
    8.8814    0.0613    2.2406 H   0  0  0  0  0  0  0  0  0  0  0  0
    6.4664   -0.3514    2.5377 H   0  0  0  0  0  0  0  0  0  0  0  0
    4.4039   -2.1214    0.1051 H   0  0  0  0  0  0  0  0  0  0  0  0
    4.4215   -1.2995    1.6880 H   0  0  0  0  0  0  0  0  0  0  0  0
    2.5287    1.8243   -1.0680 H   0  0  0  0  0  0  0  0  0  0  0  0
   -2.0830   -0.8625    1.7891 H   0  0  0  0  0  0  0  0  0  0  0  0
   -1.5228   -2.0412    0.5859 H   0  0  0  0  0  0  0  0  0  0  0  0
   -4.1727   -1.6879    1.1988 H   0  0  0  0  0  0  0  0  0  0  0  0
   -3.5752   -2.1723   -0.4033 H   0  0  0  0  0  0  0  0  0  0  0  0
   -8.1441    1.1862   -0.5307 H   0  0  0  0  0  0  0  0  0  0  0  0
   -7.4581    2.7177   -1.1171 H   0  0  0  0  0  0  0  0  0  0  0  0
   -3.1915   -0.3677   -2.1484 H   0  0  0  0  0  0  0  0  0  0  0  0
   -4.0162    1.2438   -1.8384 H   0  0  0  0  0  0  0  0  0  0  0  0
   -1.5253    1.3014   -1.6461 H   0  0  0  0  0  0  0  0  0  0  0  0
   -2.3907    1.8006   -0.1615 H   0  0  0  0  0  0  0  0  0  0  0  0
    2.4639   -1.9446    1.0263 H   0  0  0  0  0  0  0  0  0  0  0  0
  1  2  3  0
  2  3  1  0
  3  4  2  0
  4  5  1  0
  5  6  2  0
  6  7  1  0
  7  8  2  0
  8  9  1  0
  9 10  1  0
 10 11  1  0
 11 12  2  0
 12 13  1  0
 13 14  2  0
 14 15  1  0
 15 16  1  0
 16 17  1  0
 17 18  1  0
 18 19  1  0
 19 20  2  0
 19 21  1  0
 21 22  1  0
 22 23  1  0
 23 24  1  0
 23 25  1  0
 23 26  1  0
 18 27  1  0
 27 28  1  0
 14 29  1  0
 29 30  2  0
  8  3  1  0
 30 11  1  0
 28 15  1  0
  4 31  1  0
  6 32  1  0
  7 33  1  0
  9 34  1  0
  9 35  1  0
 12 36  1  0
 16 37  1  0
 16 38  1  0
 17 39  1  0
 17 40  1  0
 22 41  1  0
 22 42  1  0
 27 43  1  0
 27 44  1  0
 28 45  1  0
 28 46  1  0
 30 47  1  0
M  END
$$$$
