
     RDKit          3D

 47 50  0  0  0  0  0  0  0  0999 V2000
   -7.2271    0.1221   -0.2761 C   0  0  0  0  0  0  0  0  0  0  0  0
   -6.0448    0.5653   -1.0664 C   0  0  0  0  0  0  0  0  0  0  0  0
   -6.2227    1.2866   -2.2258 C   0  0  0  0  0  0  0  0  0  0  0  0
   -5.1131    1.6904   -2.9478 C   0  0  0  0  0  0  0  0  0  0  0  0
   -3.8524    1.3827   -2.5254 C   0  0  0  0  0  0  0  0  0  0  0  0
   -3.6641    0.6486   -1.3463 C   0  0  0  0  0  0  0  0  0  0  0  0
   -2.3506    0.3703   -0.9448 N   0  0  0  0  0  0  0  0  0  0  0  0
   -1.9513   -0.5687    0.0416 C   0  0  0  0  0  0  0  0  0  0  0  0
   -2.8064   -1.3556    0.6763 N   0  0  0  0  0  0  0  0  0  0  0  0
   -2.3829   -2.2309    1.6044 C   0  0  0  0  0  0  0  0  0  0  0  0
   -1.0284   -2.3089    1.8997 C   0  0  0  0  0  0  0  0  0  0  0  0
   -0.1523   -1.4968    1.2435 C   0  0  0  0  0  0  0  0  0  0  0  0
    1.2782   -1.5743    1.5509 C   0  0  0  0  0  0  0  0  0  0  0  0
    1.8281   -2.4246    2.4748 C   0  0  0  0  0  0  0  0  0  0  0  0
    3.2152   -2.4126    2.6887 C   0  0  0  0  0  0  0  0  0  0  0  0
    3.9835   -1.5680    1.9846 N   0  0  0  0  0  0  0  0  0  0  0  0
    3.4871   -0.7198    1.0714 C   0  0  0  0  0  0  0  0  0  0  0  0
    4.3446    0.1334    0.3739 N   0  0  0  0  0  0  0  0  0  0  0  0
    3.9122    1.0831   -0.6352 C   0  0  0  0  0  0  0  0  0  0  0  0
    4.9471    2.1951   -0.6754 C   0  0  0  0  0  0  0  0  0  0  0  0
    6.1623    1.7196   -1.1025 O   0  0  0  0  0  0  0  0  0  0  0  0
    6.4366    0.4315   -0.7162 C   0  0  0  0  0  0  0  0  0  0  0  0
    5.7941    0.1213    0.6297 C   0  0  0  0  0  0  0  0  0  0  0  0
    2.1338   -0.7277    0.8592 C   0  0  0  0  0  0  0  0  0  0  0  0
   -0.6139   -0.6346    0.3222 N   0  0  0  0  0  0  0  0  0  0  0  0
   -4.7675    0.2508   -0.6334 C   0  0  0  0  0  0  0  0  0  0  0  0
   -7.0072    0.2527    0.8085 H   0  0  0  0  0  0  0  0  0  0  0  0
   -7.4628   -0.9369   -0.4532 H   0  0  0  0  0  0  0  0  0  0  0  0
   -8.0661    0.7905   -0.5249 H   0  0  0  0  0  0  0  0  0  0  0  0
   -7.2280    1.5155   -2.5367 H   0  0  0  0  0  0  0  0  0  0  0  0
   -5.2865    2.2576   -3.8571 H   0  0  0  0  0  0  0  0  0  0  0  0
   -2.9937    1.7059   -3.1029 H   0  0  0  0  0  0  0  0  0  0  0  0
   -1.5844    0.9357   -1.4399 H   0  0  0  0  0  0  0  0  0  0  0  0
   -3.1202   -2.8451    2.0887 H   0  0  0  0  0  0  0  0  0  0  0  0
   -0.7245   -3.0144    2.6417 H   0  0  0  0  0  0  0  0  0  0  0  0
    1.1974   -3.1018    3.0370 H   0  0  0  0  0  0  0  0  0  0  0  0
    3.6093   -3.0982    3.4253 H   0  0  0  0  0  0  0  0  0  0  0  0
    2.9051    1.4879   -0.4552 H   0  0  0  0  0  0  0  0  0  0  0  0
    3.8935    0.5551   -1.6214 H   0  0  0  0  0  0  0  0  0  0  0  0
    4.5688    3.0267   -1.3044 H   0  0  0  0  0  0  0  0  0  0  0  0
    5.0673    2.5594    0.3659 H   0  0  0  0  0  0  0  0  0  0  0  0
    7.5496    0.3634   -0.5792 H   0  0  0  0  0  0  0  0  0  0  0  0
    6.1795   -0.3250   -1.4710 H   0  0  0  0  0  0  0  0  0  0  0  0
    6.0862    0.8655    1.3683 H   0  0  0  0  0  0  0  0  0  0  0  0
    6.0669   -0.9195    0.8731 H   0  0  0  0  0  0  0  0  0  0  0  0
    1.7181   -0.0568    0.1330 H   0  0  0  0  0  0  0  0  0  0  0  0
   -4.7138   -0.3023    0.2790 H   0  0  0  0  0  0  0  0  0  0  0  0
  1  2  1  0
  2  3  2  0
  3  4  1  0
  4  5  2  0
  5  6  1  0
  6  7  1  0
  7  8  1  0
  8  9  2  0
  9 10  1  0
 10 11  2  0
 11 12  1  0
 12 13  1  0
 13 14  2  0
 14 15  1  0
 15 16  2  0
 16 17  1  0
 17 18  1  0
 18 19  1  0
 19 20  1  0
 20 21  1  0
 21 22  1  0
 22 23  1  0
 17 24  2  0
 12 25  2  0
  6 26  2  0
 26  2  1  0
 25  8  1  0
 24 13  1  0
 23 18  1  0
  1 27  1  0
  1 28  1  0
  1 29  1  0
  3 30  1  0
  4 31  1  0
  5 32  1  0
  7 33  1  0
 10 34  1  0
 11 35  1  0
 14 36  1  0
 15 37  1  0
 19 38  1  0
 19 39  1  0
 20 40  1  0
 20 41  1  0
 22 42  1  0
 22 43  1  0
 23 44  1  0
 23 45  1  0
 24 46  1  0
 26 47  1  0
M  END
$$$$
