
     RDKit          3D

120127  0  0  0  0  0  0  0  0999 V2000
    7.8221    2.2492    3.8731 C   0  0  0  0  0  0  0  0  0  0  0  0
    8.2334    1.9669    2.4526 C   0  0  0  0  0  0  0  0  0  0  0  0
    9.4281    2.3243    2.0712 C   0  0  0  0  0  0  0  0  0  0  0  0
    9.7890    2.5366    0.6253 C   0  0  0  0  0  0  0  0  0  0  0  0
   10.7946    1.4905    0.2249 C   0  0  0  0  0  0  0  0  0  0  0  0
   10.1813    0.1306    0.3582 C   0  0  0  0  0  0  0  0  0  0  0  0
   11.0241   -0.9062    0.4744 N   0  0  0  0  0  0  0  0  0  0  0  0
   10.5470   -2.1756    0.5934 C   0  0  0  0  0  0  0  0  0  0  0  0
   11.3457   -3.1553    0.7032 O   0  0  0  0  0  0  0  0  0  0  0  0
    9.1794   -2.3471    0.5897 C   0  0  0  0  0  0  0  0  0  0  0  0
    8.3132   -1.2795    0.4709 C   0  0  0  0  0  0  0  0  0  0  0  0
    8.8348   -0.0184    0.3528 C   0  0  0  0  0  0  0  0  0  0  0  0
    7.8462    1.1097    0.2129 C   0  0  1  0  0  0  0  0  0  0  0  0
    7.2082    1.2890    1.5852 C   0  0  0  0  0  0  0  0  0  0  0  0
    8.4778    2.4082   -0.1319 C   0  0  2  0  0  0  0  0  0  0  0  0
    8.6580    2.6917   -1.5964 C   0  0  0  0  0  0  0  0  0  0  0  0
    8.5805    1.4404   -2.4375 C   0  0  0  0  0  0  0  0  0  0  0  0
    7.3065    0.6726   -2.1637 C   0  0  0  0  0  0  0  0  0  0  0  0
    6.8767    0.7419   -0.7873 N   0  0  0  0  0  0  0  0  0  0  0  0
    5.5194    0.4130   -0.5312 C   0  0  0  0  0  0  0  0  0  0  0  0
    5.0384    0.4401    0.6296 O   0  0  0  0  0  0  0  0  0  0  0  0
    4.5919    0.0171   -1.6125 C   0  0  0  0  0  0  0  0  0  0  0  0
    3.2498   -0.2860   -1.0527 N   0  0  0  0  0  0  0  0  0  0  0  0
    2.6742    0.9709   -0.5864 C   0  0  0  0  0  0  0  0  0  0  0  0
    2.4831   -0.9784   -2.0274 C   0  0  0  0  0  0  0  0  0  0  0  0
    1.2434   -1.6641   -1.6409 C   0  0  0  0  0  0  0  0  0  0  0  0
    0.2097   -0.7818   -1.0618 C   0  0  0  0  0  0  0  0  0  0  0  0
   -1.0907   -1.5980   -0.7529 C   0  0  0  0  0  0  0  0  0  0  0  0
   -0.8212   -2.6643    0.2147 C   0  0  0  0  0  0  0  0  0  0  0  0
   -1.9678   -3.4851    0.6294 C   0  0  0  0  0  0  0  0  0  0  0  0
   -2.7210   -4.3184   -0.3195 C   0  0  0  0  0  0  0  0  0  0  0  0
   -3.4521   -3.5848   -1.3720 C   0  0  0  0  0  0  0  0  0  0  0  0
   -4.4192   -2.6306   -0.8064 N   0  0  0  0  0  0  0  0  0  0  0  0
   -5.4535   -3.5032   -0.1992 C   0  0  0  0  0  0  0  0  0  0  0  0
   -4.9598   -1.8463   -1.8480 C   0  0  0  0  0  0  0  0  0  0  0  0
   -5.7938   -0.7122   -1.5473 C   0  0  0  0  0  0  0  0  0  0  0  0
   -6.3159   -0.0951   -2.5743 O   0  0  0  0  0  0  0  0  0  0  0  0
   -6.1440   -0.1533   -0.3105 N   0  0  0  0  0  0  0  0  0  0  0  0
   -5.5414   -0.6151    0.9431 C   0  0  0  0  0  0  0  0  0  0  0  0
   -5.4798    0.4839    1.9917 C   0  0  0  0  0  0  0  0  0  0  0  0
   -5.4397    1.8570    1.4123 C   0  0  0  0  0  0  0  0  0  0  0  0
   -6.5551    2.1045    0.4418 C   0  0  2  0  0  0  0  0  0  0  0  0
   -7.6521    2.9640    1.0468 C   0  0  0  0  0  0  0  0  0  0  0  0
   -8.6616    3.2004   -0.0334 C   0  0  0  0  0  0  0  0  0  0  0  0
   -8.8871    2.3213   -0.9873 C   0  0  0  0  0  0  0  0  0  0  0  0
  -10.1860    2.3249   -1.6947 C   0  0  0  0  0  0  0  0  0  0  0  0
   -7.8682    1.2883   -1.4034 C   0  0  0  0  0  0  0  0  0  0  0  0
   -7.1665    0.8729   -0.1225 C   0  0  1  0  0  0  0  0  0  0  0  0
   -8.2608    0.2953    0.7319 C   0  0  0  0  0  0  0  0  0  0  0  0
   -8.6845   -0.9609    0.3779 C   0  0  0  0  0  0  0  0  0  0  0  0
   -9.6827   -1.5569    1.1066 C   0  0  0  0  0  0  0  0  0  0  0  0
  -10.2432   -0.8727    2.1900 C   0  0  0  0  0  0  0  0  0  0  0  0
  -11.1625   -1.4519    2.8422 O   0  0  0  0  0  0  0  0  0  0  0  0
   -9.8047    0.3604    2.5116 N   0  0  0  0  0  0  0  0  0  0  0  0
   -8.8327    0.9267    1.7923 C   0  0  0  0  0  0  0  0  0  0  0  0
   -8.3751    2.2890    2.1794 C   0  0  0  0  0  0  0  0  0  0  0  0
    7.5300    3.3176    3.9862 H   0  0  0  0  0  0  0  0  0  0  0  0
    8.6208    2.0271    4.6012 H   0  0  0  0  0  0  0  0  0  0  0  0
    6.9359    1.6472    4.1738 H   0  0  0  0  0  0  0  0  0  0  0  0
   10.1850    2.4692    2.8405 H   0  0  0  0  0  0  0  0  0  0  0  0
   10.2138    3.5322    0.5113 H   0  0  0  0  0  0  0  0  0  0  0  0
   11.6162    1.5273    0.9800 H   0  0  0  0  0  0  0  0  0  0  0  0
   11.1778    1.6704   -0.7772 H   0  0  0  0  0  0  0  0  0  0  0  0
   12.0741   -0.7823    0.4766 H   0  0  0  0  0  0  0  0  0  0  0  0
    8.7680   -3.3577    0.6788 H   0  0  0  0  0  0  0  0  0  0  0  0
    7.2425   -1.4272    0.4701 H   0  0  0  0  0  0  0  0  0  0  0  0
    6.3677    2.0422    1.5244 H   0  0  0  0  0  0  0  0  0  0  0  0
    6.8579    0.3616    2.0272 H   0  0  0  0  0  0  0  0  0  0  0  0
    7.8276    3.2260    0.2784 H   0  0  0  0  0  0  0  0  0  0  0  0
    9.6521    3.1448   -1.7533 H   0  0  0  0  0  0  0  0  0  0  0  0
    7.8950    3.3881   -1.9975 H   0  0  0  0  0  0  0  0  0  0  0  0
    9.4775    0.7946   -2.3659 H   0  0  0  0  0  0  0  0  0  0  0  0
    8.5331    1.7678   -3.4972 H   0  0  0  0  0  0  0  0  0  0  0  0
    6.4952    0.9740   -2.8673 H   0  0  0  0  0  0  0  0  0  0  0  0
    7.4976   -0.3951   -2.4006 H   0  0  0  0  0  0  0  0  0  0  0  0
    4.8893   -0.8739   -2.1729 H   0  0  0  0  0  0  0  0  0  0  0  0
    4.4720    0.8701   -2.2973 H   0  0  0  0  0  0  0  0  0  0  0  0
    3.4835    1.7539   -0.6501 H   0  0  0  0  0  0  0  0  0  0  0  0
    1.8119    1.2439   -1.1944 H   0  0  0  0  0  0  0  0  0  0  0  0
    2.4434    0.8607    0.4856 H   0  0  0  0  0  0  0  0  0  0  0  0
    3.1629   -1.7536   -2.4976 H   0  0  0  0  0  0  0  0  0  0  0  0
    2.2705   -0.2933   -2.8958 H   0  0  0  0  0  0  0  0  0  0  0  0
    1.5364   -2.5019   -0.9484 H   0  0  0  0  0  0  0  0  0  0  0  0
    0.8614   -2.2331   -2.5503 H   0  0  0  0  0  0  0  0  0  0  0  0
    0.5584   -0.3616   -0.1029 H   0  0  0  0  0  0  0  0  0  0  0  0
   -0.1162   -0.0187   -1.7730 H   0  0  0  0  0  0  0  0  0  0  0  0
   -1.7674   -0.8335   -0.3150 H   0  0  0  0  0  0  0  0  0  0  0  0
   -1.4327   -1.8528   -1.7489 H   0  0  0  0  0  0  0  0  0  0  0  0
    0.0037   -3.3674   -0.1178 H   0  0  0  0  0  0  0  0  0  0  0  0
   -0.4437   -2.1462    1.1652 H   0  0  0  0  0  0  0  0  0  0  0  0
   -2.6828   -2.7409    1.1651 H   0  0  0  0  0  0  0  0  0  0  0  0
   -1.6662   -4.1229    1.5382 H   0  0  0  0  0  0  0  0  0  0  0  0
   -1.9593   -5.0223   -0.8092 H   0  0  0  0  0  0  0  0  0  0  0  0
   -3.3860   -5.0655    0.2098 H   0  0  0  0  0  0  0  0  0  0  0  0
   -2.9138   -3.2319   -2.2292 H   0  0  0  0  0  0  0  0  0  0  0  0
   -4.1754   -4.3787   -1.8518 H   0  0  0  0  0  0  0  0  0  0  0  0
   -5.4568   -4.4408   -0.7813 H   0  0  0  0  0  0  0  0  0  0  0  0
   -6.4345   -3.0343   -0.3676 H   0  0  0  0  0  0  0  0  0  0  0  0
   -5.2387   -3.7344    0.8434 H   0  0  0  0  0  0  0  0  0  0  0  0
   -5.5858   -2.5582   -2.4790 H   0  0  0  0  0  0  0  0  0  0  0  0
   -4.1662   -1.5000   -2.5726 H   0  0  0  0  0  0  0  0  0  0  0  0
   -6.2310   -1.3703    1.3648 H   0  0  0  0  0  0  0  0  0  0  0  0
   -4.5536   -1.0623    0.7981 H   0  0  0  0  0  0  0  0  0  0  0  0
   -4.4853    0.3458    2.5193 H   0  0  0  0  0  0  0  0  0  0  0  0
   -6.2209    0.3393    2.8125 H   0  0  0  0  0  0  0  0  0  0  0  0
   -5.5505    2.5862    2.2450 H   0  0  0  0  0  0  0  0  0  0  0  0
   -4.4297    2.0251    0.9754 H   0  0  0  0  0  0  0  0  0  0  0  0
   -6.1281    2.6990   -0.3974 H   0  0  0  0  0  0  0  0  0  0  0  0
   -7.1883    3.8780    1.4211 H   0  0  0  0  0  0  0  0  0  0  0  0
   -9.2097    4.1373    0.0005 H   0  0  0  0  0  0  0  0  0  0  0  0
  -10.0696    2.3752   -2.7983 H   0  0  0  0  0  0  0  0  0  0  0  0
  -10.8115    3.1906   -1.3963 H   0  0  0  0  0  0  0  0  0  0  0  0
  -10.7767    1.4180   -1.4070 H   0  0  0  0  0  0  0  0  0  0  0  0
   -8.3616    0.4795   -1.9280 H   0  0  0  0  0  0  0  0  0  0  0  0
   -7.1681    1.8542   -2.0447 H   0  0  0  0  0  0  0  0  0  0  0  0
   -8.2668   -1.5105   -0.4590 H   0  0  0  0  0  0  0  0  0  0  0  0
  -10.0567   -2.5525    0.8671 H   0  0  0  0  0  0  0  0  0  0  0  0
  -10.2683    0.8218    3.3404 H   0  0  0  0  0  0  0  0  0  0  0  0
   -9.2972    2.8959    2.3671 H   0  0  0  0  0  0  0  0  0  0  0  0
   -7.7962    2.3186    3.1053 H   0  0  0  0  0  0  0  0  0  0  0  0
  1  2  1  0
  2  3  2  0
  3  4  1  0
  4  5  1  0
  5  6  1  0
  6  7  1  0
  7  8  1  0
  8  9  2  0
  8 10  1  0
 10 11  2  0
 11 12  1  0
 12 13  1  0
 13 14  1  0
 13 15  1  0
 15 16  1  0
 16 17  1  0
 17 18  1  0
 18 19  1  0
 19 20  1  0
 20 21  2  0
 20 22  1  0
 22 23  1  0
 23 24  1  0
 23 25  1  0
 25 26  1  0
 26 27  1  0
 27 28  1  0
 28 29  1  0
 29 30  1  0
 30 31  1  0
 31 32  1  0
 32 33  1  0
 33 34  1  0
 33 35  1  0
 35 36  1  0
 36 37  2  0
 36 38  1  0
 38 39  1  0
 39 40  1  0
 40 41  1  0
 41 42  1  0
 42 43  1  0
 43 44  1  0
 44 45  2  0
 45 46  1  0
 45 47  1  0
 47 48  1  0
 48 49  1  0
 49 50  1  0
 50 51  2  0
 51 52  1  0
 52 53  2  0
 52 54  1  0
 54 55  1  0
 55 56  1  0
 14  2  1  0
 48 38  1  6
 55 49  2  0
 15  4  1  0
 48 42  1  0
 12  6  2  0
 13 19  1  6
 56 43  1  0
  1 57  1  0
  1 58  1  0
  1 59  1  0
  3 60  1  0
  4 61  1  0
  5 62  1  0
  5 63  1  0
  7 64  1  0
 10 65  1  0
 11 66  1  0
 14 67  1  0
 14 68  1  0
 15 69  1  1
 16 70  1  0
 16 71  1  0
 17 72  1  0
 17 73  1  0
 18 74  1  0
 18 75  1  0
 22 76  1  0
 22 77  1  0
 24 78  1  0
 24 79  1  0
 24 80  1  0
 25 81  1  0
 25 82  1  0
 26 83  1  0
 26 84  1  0
 27 85  1  0
 27 86  1  0
 28 87  1  0
 28 88  1  0
 29 89  1  0
 29 90  1  0
 30 91  1  0
 30 92  1  0
 31 93  1  0
 31 94  1  0
 32 95  1  0
 32 96  1  0
 34 97  1  0
 34 98  1  0
 34 99  1  0
 35100  1  0
 35101  1  0
 39102  1  0
 39103  1  0
 40104  1  0
 40105  1  0
 41106  1  0
 41107  1  0
 42108  1  6
 43109  1  0
 44110  1  0
 46111  1  0
 46112  1  0
 46113  1  0
 47114  1  0
 47115  1  0
 50116  1  0
 51117  1  0
 54118  1  0
 56119  1  0
 56120  1  0
M  END
$$$$
