
     RDKit          3D

 57 58  0  0  0  0  0  0  0  0999 V2000
   10.4740    1.7380    0.2314 C   0  0  0  0  0  0  0  0  0  0  0  0
    9.4174    1.2656    0.2761 C   0  0  0  0  0  0  0  0  0  0  0  0
    8.1682    0.7281    0.3425 C   0  0  0  0  0  0  0  0  0  0  0  0
    6.8796    0.1924    0.4247 C   0  0  0  0  0  0  0  0  0  0  0  0
    6.0523    0.2096    1.5665 N   0  0  0  0  0  0  0  0  0  0  0  0
    4.6372    0.5011    1.4614 C   0  0  0  0  0  0  0  0  0  0  0  0
    4.1765    1.2303    0.4138 C   0  0  0  0  0  0  0  0  0  0  0  0
    2.8097    1.4850    0.1212 C   0  0  0  0  0  0  0  0  0  0  0  0
    1.9465    0.8496    1.1219 C   0  0  0  0  0  0  0  0  0  0  0  0
    0.1970    1.1252    0.8267 S   0  0  0  0  0  6  0  0  0  0  0  0
   -0.2765    1.9484    1.9820 O   0  0  0  0  0  0  0  0  0  0  0  0
    0.0277    1.8645   -0.4437 O   0  0  0  0  0  0  0  0  0  0  0  0
   -0.5667   -0.4781    0.6938 C   0  0  0  0  0  0  0  0  0  0  0  0
   -2.0223   -0.3647    0.3042 C   0  0  0  0  0  0  0  0  0  0  0  0
   -2.0764    0.3707   -1.0144 C   0  0  0  0  0  0  0  0  0  0  0  0
   -2.6358    1.4900   -1.0926 O   0  0  0  0  0  0  0  0  0  0  0  0
   -1.4718   -0.2424   -2.1843 N   0  0  0  0  0  0  0  0  0  0  0  0
   -1.5987    0.4152   -3.3347 O   0  0  0  0  0  0  0  0  0  0  0  0
   -2.7897    0.4080    1.3445 C   0  0  0  0  0  0  0  0  0  0  0  0
   -3.9770   -0.2155    1.9389 C   0  0  0  0  0  0  0  0  0  0  0  0
   -4.6757   -1.3572    1.2409 C   0  0  0  0  0  0  0  0  0  0  0  0
   -4.0646   -1.6093   -0.0415 N   0  0  0  0  0  0  0  0  0  0  0  0
   -4.6741   -1.5680   -1.2933 C   0  0  0  0  0  0  0  0  0  0  0  0
   -4.0951   -1.9827   -2.3498 O   0  0  0  0  0  0  0  0  0  0  0  0
   -5.9775   -1.0424   -1.4389 O   0  0  0  0  0  0  0  0  0  0  0  0
   -6.5135   -0.9761   -2.7365 C   0  0  0  0  0  0  0  0  0  0  0  0
   -7.9115   -0.4198   -2.6088 C   0  0  0  0  0  0  0  0  0  0  0  0
   -2.5910   -1.7276    0.0429 C   0  0  0  0  0  0  0  0  0  0  0  0
    2.4110    0.1548    2.1134 C   0  0  0  0  0  0  0  0  0  0  0  0
    3.7779   -0.0498    2.3227 C   0  0  0  0  0  0  0  0  0  0  0  0
   10.5670    2.8831    0.7293 H   0  0  0  0  0  0  0  0  0  0  0  0
   11.4541    1.3788    0.8596 H   0  0  0  0  0  0  0  0  0  0  0  0
   10.9707    2.0961   -0.7573 H   0  0  0  0  0  0  0  0  0  0  0  0
    6.3096    0.3127   -0.5771 H   0  0  0  0  0  0  0  0  0  0  0  0
    7.1146   -1.0057    0.3151 H   0  0  0  0  0  0  0  0  0  0  0  0
    6.4019    0.0672    2.5347 H   0  0  0  0  0  0  0  0  0  0  0  0
    4.8655    1.7013   -0.3073 H   0  0  0  0  0  0  0  0  0  0  0  0
    2.4086    2.0408   -0.6293 H   0  0  0  0  0  0  0  0  0  0  0  0
   -0.0733   -1.0466   -0.0765 H   0  0  0  0  0  0  0  0  0  0  0  0
   -0.5697   -1.0479    1.6671 H   0  0  0  0  0  0  0  0  0  0  0  0
   -0.9556   -1.1487   -2.0109 H   0  0  0  0  0  0  0  0  0  0  0  0
   -2.1303   -0.1247   -3.9703 H   0  0  0  0  0  0  0  0  0  0  0  0
   -3.0424    1.3903    0.9060 H   0  0  0  0  0  0  0  0  0  0  0  0
   -2.0562    0.6349    2.2023 H   0  0  0  0  0  0  0  0  0  0  0  0
   -3.5604   -0.7274    2.9095 H   0  0  0  0  0  0  0  0  0  0  0  0
   -4.7160    0.4724    2.3310 H   0  0  0  0  0  0  0  0  0  0  0  0
   -5.7370   -1.2096    1.2338 H   0  0  0  0  0  0  0  0  0  0  0  0
   -4.4416   -2.3467    1.8326 H   0  0  0  0  0  0  0  0  0  0  0  0
   -6.4703   -1.8921   -3.3172 H   0  0  0  0  0  0  0  0  0  0  0  0
   -5.8542   -0.2003   -3.2540 H   0  0  0  0  0  0  0  0  0  0  0  0
   -8.6253   -1.1904   -2.3532 H   0  0  0  0  0  0  0  0  0  0  0  0
   -8.2054    0.2006   -3.4947 H   0  0  0  0  0  0  0  0  0  0  0  0
   -7.9113    0.3438   -1.7505 H   0  0  0  0  0  0  0  0  0  0  0  0
   -2.2926   -2.1271   -0.9097 H   0  0  0  0  0  0  0  0  0  0  0  0
   -2.3859   -2.4508    0.8457 H   0  0  0  0  0  0  0  0  0  0  0  0
    1.7651   -0.3424    2.8779 H   0  0  0  0  0  0  0  0  0  0  0  0
    4.1131   -0.6041    3.1356 H   0  0  0  0  0  0  0  0  0  0  0  0
  1  2  1  0
  2  3  3  0
  3  4  1  0
  4  5  1  0
  5  6  1  0
  6  7  2  0
  7  8  1  0
  8  9  2  0
  9 10  1  0
 10 11  2  0
 10 12  2  0
 10 13  1  0
 13 14  1  0
 14 15  1  0
 15 16  2  0
 15 17  1  0
 17 18  1  0
 14 19  1  0
 19 20  1  0
 20 21  1  0
 21 22  1  0
 22 23  1  0
 23 24  2  0
 23 25  1  0
 25 26  1  0
 26 27  1  0
 22 28  1  0
  9 29  1  0
 29 30  2  0
 30  6  1  0
 28 14  1  0
  1 31  1  0
  1 32  1  0
  1 33  1  0
  4 34  1  0
  4 35  1  0
  5 36  1  0
  7 37  1  0
  8 38  1  0
 13 39  1  0
 13 40  1  0
 17 41  1  0
 18 42  1  0
 19 43  1  0
 19 44  1  0
 20 45  1  0
 20 46  1  0
 21 47  1  0
 21 48  1  0
 26 49  1  0
 26 50  1  0
 27 51  1  0
 27 52  1  0
 27 53  1  0
 28 54  1  0
 28 55  1  0
 29 56  1  0
 30 57  1  0
M  END
$$$$
