
     RDKit          3D

108112  0  0  0  0  0  0  0  0999 V2000
   13.7705   -0.4984    2.7139 C   0  0  0  0  0  0  0  0  0  0  0  0
   14.3076    0.1446    1.6292 O   0  0  0  0  0  0  0  0  0  0  0  0
   13.5405    0.1389    0.4868 C   0  0  0  0  0  0  0  0  0  0  0  0
   12.2051    0.7861    0.6471 C   0  0  0  0  0  0  0  0  0  0  0  0
   11.4822    0.7552   -0.5445 O   0  0  0  0  0  0  0  0  0  0  0  0
   11.2145   -0.4670   -1.0461 C   0  0  0  0  0  0  0  0  0  0  0  0
   10.3972   -1.3935   -0.1928 C   0  0  0  0  0  0  0  0  0  0  0  0
    9.1935   -1.0882    0.1538 O   0  0  0  0  0  0  0  0  0  0  0  0
    8.5630   -0.1793    0.8433 C   0  0  0  0  0  0  0  0  0  0  0  0
    8.6110    1.2703    0.4351 C   0  0  0  0  0  0  0  0  0  0  0  0
    8.1643    1.5704   -0.8158 O   0  0  0  0  0  0  0  0  0  0  0  0
    6.9382    1.4650   -1.3821 C   0  0  0  0  0  0  0  0  0  0  0  0
    5.7760    1.0185   -0.7407 C   0  0  0  0  0  0  0  0  0  0  0  0
    4.5584    0.9203   -1.3448 C   0  0  0  0  0  0  0  0  0  0  0  0
    3.4022    0.4625   -0.6648 N   0  0  0  0  0  0  0  0  0  0  0  0
    3.2864    0.0739    0.6809 C   0  0  0  0  0  0  0  0  0  0  0  0
    4.2819    0.0877    1.5540 N   0  0  0  0  0  0  0  0  0  0  0  0
    4.1282   -0.2902    2.8227 C   0  0  0  0  0  0  0  0  0  0  0  0
    2.8929   -0.7158    3.2658 C   0  0  0  0  0  0  0  0  0  0  0  0
    1.8632   -0.7241    2.3405 C   0  0  0  0  0  0  0  0  0  0  0  0
    0.6070   -1.1538    2.7792 O   0  0  0  0  0  0  0  0  0  0  0  0
   -0.4347   -1.1127    1.8505 C   0  0  0  0  0  0  0  0  0  0  0  0
   -1.0515   -2.2591    1.4049 C   0  0  0  0  0  0  0  0  0  0  0  0
   -2.0801   -2.2455    0.4869 C   0  0  0  0  0  0  0  0  0  0  0  0
   -2.5312   -1.0426   -0.0240 C   0  0  0  0  0  0  0  0  0  0  0  0
   -3.5756   -0.9646   -0.9722 N   0  0  0  0  0  0  0  0  0  0  0  0
   -4.9156   -0.8450   -0.4937 C   0  0  0  0  0  0  0  0  0  0  0  0
   -5.1104   -0.8151    0.7466 O   0  0  0  0  0  0  0  0  0  0  0  0
   -6.0248   -0.7594   -1.3657 N   0  0  0  0  0  0  0  0  0  0  0  0
   -7.3277   -0.6419   -0.8267 C   0  0  0  0  0  0  0  0  0  0  0  0
   -8.1131   -1.7592   -0.5368 C   0  0  0  0  0  0  0  0  0  0  0  0
   -9.3796   -1.6337   -0.0172 C   0  0  0  0  0  0  0  0  0  0  0  0
  -10.2444   -2.8125    0.3039 C   0  0  0  0  0  0  0  0  0  0  0  0
   -9.5152   -4.0995   -0.0196 C   0  0  0  0  0  0  0  0  0  0  0  0
  -11.5316   -2.7541   -0.5256 C   0  0  0  0  0  0  0  0  0  0  0  0
  -10.6366   -2.8270    1.7537 C   0  0  0  0  0  0  0  0  0  0  0  0
   -9.8537   -0.3596    0.2106 C   0  0  0  0  0  0  0  0  0  0  0  0
   -9.0881    0.7769   -0.0705 C   0  0  0  0  0  0  0  0  0  0  0  0
   -9.5870    2.0775    0.1722 N   0  0  0  0  0  0  0  0  0  0  0  0
  -11.2314    2.3884    0.5759 S   0  0  0  0  0  6  0  0  0  0  0  0
  -12.3080    1.8686   -0.7421 C   0  0  0  0  0  0  0  0  0  0  0  0
  -11.5655    1.6563    1.8299 O   0  0  0  0  0  0  0  0  0  0  0  0
  -11.4460    3.8430    0.7968 O   0  0  0  0  0  0  0  0  0  0  0  0
   -7.8251    0.6196   -0.5895 C   0  0  0  0  0  0  0  0  0  0  0  0
   -7.0452    1.7128   -0.8774 O   0  0  0  0  0  0  0  0  0  0  0  0
   -7.0197    2.3839   -2.1106 C   0  0  0  0  0  0  0  0  0  0  0  0
   -1.9254    0.0965    0.4147 C   0  0  0  0  0  0  0  0  0  0  0  0
   -2.3864    1.3019   -0.0846 C   0  0  0  0  0  0  0  0  0  0  0  0
   -1.7931    2.4590    0.3619 C   0  0  0  0  0  0  0  0  0  0  0  0
   -0.7682    2.4826    1.2767 C   0  0  0  0  0  0  0  0  0  0  0  0
   -0.3023    1.2889    1.7791 C   0  0  0  0  0  0  0  0  0  0  0  0
   -0.8773    0.1158    1.3480 C   0  0  0  0  0  0  0  0  0  0  0  0
    2.0778   -0.3378    1.0968 N   0  0  0  0  0  0  0  0  0  0  0  0
    4.4793    1.2910   -2.6818 C   0  0  0  0  0  0  0  0  0  0  0  0
    5.5785    1.7350   -3.3593 C   0  0  0  0  0  0  0  0  0  0  0  0
    5.4619    2.0943   -4.6841 O   0  0  0  0  0  0  0  0  0  0  0  0
    4.2203    2.0030   -5.3303 C   0  0  0  0  0  0  0  0  0  0  0  0
    6.7924    1.8278   -2.7413 C   0  0  0  0  0  0  0  0  0  0  0  0
   14.4998   -0.4344    3.5729 H   0  0  0  0  0  0  0  0  0  0  0  0
   13.4791   -1.5358    2.5594 H   0  0  0  0  0  0  0  0  0  0  0  0
   12.8521    0.0772    3.0386 H   0  0  0  0  0  0  0  0  0  0  0  0
   14.1081    0.6632   -0.3161 H   0  0  0  0  0  0  0  0  0  0  0  0
   13.3952   -0.9119    0.0955 H   0  0  0  0  0  0  0  0  0  0  0  0
   11.6377    0.3007    1.4705 H   0  0  0  0  0  0  0  0  0  0  0  0
   12.3103    1.8538    0.9199 H   0  0  0  0  0  0  0  0  0  0  0  0
   12.1252   -0.9927   -1.4500 H   0  0  0  0  0  0  0  0  0  0  0  0
   10.5969   -0.2984   -1.9878 H   0  0  0  0  0  0  0  0  0  0  0  0
   11.0016   -1.6344    0.7618 H   0  0  0  0  0  0  0  0  0  0  0  0
   10.4613   -2.4345   -0.7114 H   0  0  0  0  0  0  0  0  0  0  0  0
    7.5148   -0.4962    1.1583 H   0  0  0  0  0  0  0  0  0  0  0  0
    9.0543   -0.1640    1.9136 H   0  0  0  0  0  0  0  0  0  0  0  0
    9.5337    1.7780    0.7815 H   0  0  0  0  0  0  0  0  0  0  0  0
    7.8151    1.7461    1.1719 H   0  0  0  0  0  0  0  0  0  0  0  0
    5.9289    0.7776    0.2930 H   0  0  0  0  0  0  0  0  0  0  0  0
    2.5211    0.4144   -1.2698 H   0  0  0  0  0  0  0  0  0  0  0  0
    4.9770   -0.2593    3.4961 H   0  0  0  0  0  0  0  0  0  0  0  0
    2.7288   -1.0265    4.2749 H   0  0  0  0  0  0  0  0  0  0  0  0
   -0.7069   -3.2032    1.7982 H   0  0  0  0  0  0  0  0  0  0  0  0
   -2.5780   -3.1330    0.1233 H   0  0  0  0  0  0  0  0  0  0  0  0
   -3.4077   -0.9906   -1.9986 H   0  0  0  0  0  0  0  0  0  0  0  0
   -5.9138   -0.7799   -2.3976 H   0  0  0  0  0  0  0  0  0  0  0  0
   -7.7112   -2.7223   -0.7266 H   0  0  0  0  0  0  0  0  0  0  0  0
   -8.6355   -4.1659    0.6834 H   0  0  0  0  0  0  0  0  0  0  0  0
  -10.1853   -4.9515    0.2367 H   0  0  0  0  0  0  0  0  0  0  0  0
   -9.1643   -4.1371   -1.0609 H   0  0  0  0  0  0  0  0  0  0  0  0
  -11.3584   -2.1431   -1.4512 H   0  0  0  0  0  0  0  0  0  0  0  0
  -12.2781   -2.1902    0.0806 H   0  0  0  0  0  0  0  0  0  0  0  0
  -11.8706   -3.7669   -0.7581 H   0  0  0  0  0  0  0  0  0  0  0  0
  -11.1900   -3.7792    1.9278 H   0  0  0  0  0  0  0  0  0  0  0  0
  -11.2461   -1.9450    2.0288 H   0  0  0  0  0  0  0  0  0  0  0  0
   -9.7240   -2.8947    2.3915 H   0  0  0  0  0  0  0  0  0  0  0  0
  -10.8363   -0.1986    0.6171 H   0  0  0  0  0  0  0  0  0  0  0  0
   -8.9313    2.8873    0.1050 H   0  0  0  0  0  0  0  0  0  0  0  0
  -12.0154    0.8841   -1.1564 H   0  0  0  0  0  0  0  0  0  0  0  0
  -12.3482    2.6331   -1.5498 H   0  0  0  0  0  0  0  0  0  0  0  0
  -13.3248    1.7693   -0.3335 H   0  0  0  0  0  0  0  0  0  0  0  0
   -5.9859    2.6391   -2.4437 H   0  0  0  0  0  0  0  0  0  0  0  0
   -7.4772    1.7516   -2.9143 H   0  0  0  0  0  0  0  0  0  0  0  0
   -7.5479    3.3763   -2.0509 H   0  0  0  0  0  0  0  0  0  0  0  0
   -3.1908    1.3138   -0.8044 H   0  0  0  0  0  0  0  0  0  0  0  0
   -2.1738    3.4031   -0.0469 H   0  0  0  0  0  0  0  0  0  0  0  0
   -0.3256    3.4434    1.6036 H   0  0  0  0  0  0  0  0  0  0  0  0
    0.4956    1.3098    2.5162 H   0  0  0  0  0  0  0  0  0  0  0  0
    3.5121    1.2188   -3.1804 H   0  0  0  0  0  0  0  0  0  0  0  0
    4.3179    2.2832   -6.4113 H   0  0  0  0  0  0  0  0  0  0  0  0
    3.4457    2.6091   -4.8388 H   0  0  0  0  0  0  0  0  0  0  0  0
    3.8254    0.9484   -5.3163 H   0  0  0  0  0  0  0  0  0  0  0  0
    7.6902    2.1714   -3.2274 H   0  0  0  0  0  0  0  0  0  0  0  0
  1  2  1  0
  2  3  1  0
  3  4  1  0
  4  5  1  0
  5  6  1  0
  6  7  1  0
  7  8  1  0
  8  9  1  0
  9 10  1  0
 10 11  1  0
 11 12  1  0
 12 13  2  0
 13 14  1  0
 14 15  1  0
 15 16  1  0
 16 17  2  0
 17 18  1  0
 18 19  2  0
 19 20  1  0
 20 21  1  0
 21 22  1  0
 22 23  2  0
 23 24  1  0
 24 25  2  0
 25 26  1  0
 26 27  1  0
 27 28  2  0
 27 29  1  0
 29 30  1  0
 30 31  2  0
 31 32  1  0
 32 33  1  0
 33 34  1  0
 33 35  1  0
 33 36  1  0
 32 37  2  0
 37 38  1  0
 38 39  1  0
 39 40  1  0
 40 41  1  0
 40 42  2  0
 40 43  2  0
 38 44  2  0
 44 45  1  0
 45 46  1  0
 25 47  1  0
 47 48  2  0
 48 49  1  0
 49 50  2  0
 50 51  1  0
 51 52  2  0
 20 53  2  0
 14 54  2  0
 54 55  1  0
 55 56  1  0
 56 57  1  0
 55 58  2  0
 58 12  1  0
 53 16  1  0
 52 22  1  0
 44 30  1  0
 52 47  1  0
  1 59  1  0
  1 60  1  0
  1 61  1  0
  3 62  1  0
  3 63  1  0
  4 64  1  0
  4 65  1  0
  6 66  1  0
  6 67  1  0
  7 68  1  0
  7 69  1  0
  9 70  1  0
  9 71  1  0
 10 72  1  0
 10 73  1  0
 13 74  1  0
 15 75  1  0
 18 76  1  0
 19 77  1  0
 23 78  1  0
 24 79  1  0
 26 80  1  0
 29 81  1  0
 31 82  1  0
 34 83  1  0
 34 84  1  0
 34 85  1  0
 35 86  1  0
 35 87  1  0
 35 88  1  0
 36 89  1  0
 36 90  1  0
 36 91  1  0
 37 92  1  0
 39 93  1  0
 41 94  1  0
 41 95  1  0
 41 96  1  0
 46 97  1  0
 46 98  1  0
 46 99  1  0
 48100  1  0
 49101  1  0
 50102  1  0
 51103  1  0
 54104  1  0
 57105  1  0
 57106  1  0
 57107  1  0
 58108  1  0
M  END
$$$$
