
     RDKit          3D

 64 69  0  0  0  0  0  0  0  0999 V2000
    8.0534    2.8145   -0.9690 C   0  0  0  0  0  0  0  0  0  0  0  0
    7.6574    2.1301    0.2452 N   0  0  0  0  0  0  0  0  0  0  0  0
    7.3538    0.7728   -0.0593 C   0  0  0  0  0  0  0  0  0  0  0  0
    6.0874    0.2767    0.5998 C   0  0  0  0  0  0  0  0  0  0  0  0
    4.9898    1.1835    0.4252 N   0  0  0  0  0  0  0  0  0  0  0  0
    3.6815    0.6880    0.2556 C   0  0  0  0  0  0  0  0  0  0  0  0
    2.6528    1.5861    0.0870 C   0  0  0  0  0  0  0  0  0  0  0  0
    1.3748    1.0981   -0.0785 C   0  0  0  0  0  0  0  0  0  0  0  0
    1.1246   -0.2703   -0.0762 C   0  0  0  0  0  0  0  0  0  0  0  0
    2.1801   -1.1395    0.0954 C   0  0  0  0  0  0  0  0  0  0  0  0
    3.4190   -0.6529    0.2555 N   0  0  0  0  0  0  0  0  0  0  0  0
    1.6313   -2.3695    0.0521 N   0  0  0  0  0  0  0  0  0  0  0  0
    0.3015   -2.2889   -0.1364 C   0  0  0  0  0  0  0  0  0  0  0  0
   -0.6114   -3.4290   -0.2334 C   0  0  0  0  0  0  0  0  0  0  0  0
   -0.5916   -4.4553    0.6927 C   0  0  0  0  0  0  0  0  0  0  0  0
   -1.4497   -5.5311    0.6054 C   0  0  0  0  0  0  0  0  0  0  0  0
   -2.3538   -5.5974   -0.4248 C   0  0  0  0  0  0  0  0  0  0  0  0
   -3.2132   -6.6301   -0.5513 F   0  0  0  0  0  0  0  0  0  0  0  0
   -2.4024   -4.5856   -1.3726 C   0  0  0  0  0  0  0  0  0  0  0  0
   -1.5220   -3.5186   -1.2508 C   0  0  0  0  0  0  0  0  0  0  0  0
   -0.0160   -0.9760   -0.2166 N   0  0  0  0  0  0  0  0  0  0  0  0
   -1.3152   -0.4324   -0.4135 C   0  0  0  0  0  0  0  0  0  0  0  0
   -1.6048    0.1381   -1.6337 C   0  0  0  0  0  0  0  0  0  0  0  0
   -2.8846    0.6663   -1.8085 C   0  0  0  0  0  0  0  0  0  0  0  0
   -3.7985    0.6235   -0.8340 N   0  0  0  0  0  0  0  0  0  0  0  0
   -3.4917    0.0634    0.3426 C   0  0  0  0  0  0  0  0  0  0  0  0
   -4.4679    0.0075    1.4102 N   0  0  0  0  0  0  0  0  0  0  0  0
   -5.7915    0.5271    1.3020 C   0  0  0  0  0  0  0  0  0  0  0  0
   -6.5717   -0.1349    0.1856 C   0  0  0  0  0  0  0  0  0  0  0  0
   -7.5596    0.8932   -0.2774 C   0  0  0  0  0  0  0  0  0  0  0  0
   -7.3440    2.1251    0.5918 C   0  0  0  0  0  0  0  0  0  0  0  0
   -5.8502    1.9865    0.9113 C   0  0  0  0  0  0  0  0  0  0  0  0
   -2.2679   -0.4454    0.5195 N   0  0  0  0  0  0  0  0  0  0  0  0
    5.2427    2.5931    0.4260 C   0  0  0  0  0  0  0  0  0  0  0  0
    6.6323    2.8417    0.9304 C   0  0  0  0  0  0  0  0  0  0  0  0
    8.2774    3.8987   -0.7710 H   0  0  0  0  0  0  0  0  0  0  0  0
    7.2907    2.7457   -1.7680 H   0  0  0  0  0  0  0  0  0  0  0  0
    9.0223    2.3920   -1.3313 H   0  0  0  0  0  0  0  0  0  0  0  0
    7.3379    0.5677   -1.1554 H   0  0  0  0  0  0  0  0  0  0  0  0
    8.1842    0.1337    0.3456 H   0  0  0  0  0  0  0  0  0  0  0  0
    6.2613    0.0249    1.6685 H   0  0  0  0  0  0  0  0  0  0  0  0
    5.8205   -0.6834    0.1036 H   0  0  0  0  0  0  0  0  0  0  0  0
    2.8654    2.6508    0.0876 H   0  0  0  0  0  0  0  0  0  0  0  0
    0.5553    1.8053   -0.2126 H   0  0  0  0  0  0  0  0  0  0  0  0
    0.1041   -4.4469    1.5228 H   0  0  0  0  0  0  0  0  0  0  0  0
   -1.4507   -6.3455    1.3198 H   0  0  0  0  0  0  0  0  0  0  0  0
   -3.1134   -4.6591   -2.1638 H   0  0  0  0  0  0  0  0  0  0  0  0
   -1.5924   -2.7396   -2.0203 H   0  0  0  0  0  0  0  0  0  0  0  0
   -0.9017    0.1939   -2.4433 H   0  0  0  0  0  0  0  0  0  0  0  0
   -3.1765    1.1340   -2.7570 H   0  0  0  0  0  0  0  0  0  0  0  0
   -4.1756   -0.4436    2.3131 H   0  0  0  0  0  0  0  0  0  0  0  0
   -6.3374    0.4374    2.2713 H   0  0  0  0  0  0  0  0  0  0  0  0
   -5.8842   -0.4661   -0.6092 H   0  0  0  0  0  0  0  0  0  0  0  0
   -7.0865   -1.0392    0.6025 H   0  0  0  0  0  0  0  0  0  0  0  0
   -8.5889    0.5210   -0.1042 H   0  0  0  0  0  0  0  0  0  0  0  0
   -7.4324    1.1804   -1.3358 H   0  0  0  0  0  0  0  0  0  0  0  0
   -7.5583    3.0567    0.0681 H   0  0  0  0  0  0  0  0  0  0  0  0
   -7.8662    2.0216    1.5714 H   0  0  0  0  0  0  0  0  0  0  0  0
   -5.5873    2.6283    1.7834 H   0  0  0  0  0  0  0  0  0  0  0  0
   -5.3113    2.2246   -0.0009 H   0  0  0  0  0  0  0  0  0  0  0  0
    5.0511    3.0033   -0.5746 H   0  0  0  0  0  0  0  0  0  0  0  0
    4.5514    3.1489    1.1188 H   0  0  0  0  0  0  0  0  0  0  0  0
    6.6606    2.5513    2.0013 H   0  0  0  0  0  0  0  0  0  0  0  0
    6.8055    3.9446    0.8663 H   0  0  0  0  0  0  0  0  0  0  0  0
  1  2  1  0
  2  3  1  0
  3  4  1  0
  4  5  1  0
  5  6  1  0
  6  7  2  0
  7  8  1  0
  8  9  2  0
  9 10  1  0
 10 11  2  0
 10 12  1  0
 12 13  2  0
 13 14  1  0
 14 15  2  0
 15 16  1  0
 16 17  2  0
 17 18  1  0
 17 19  1  0
 19 20  2  0
 13 21  1  0
 21 22  1  0
 22 23  2  0
 23 24  1  0
 24 25  2  0
 25 26  1  0
 26 27  1  0
 27 28  1  0
 28 29  1  0
 29 30  1  0
 30 31  1  0
 31 32  1  0
 26 33  2  0
  5 34  1  0
 34 35  1  0
 35  2  1  0
 11  6  1  0
 20 14  1  0
 33 22  1  0
 21  9  1  0
 32 28  1  0
  1 36  1  0
  1 37  1  0
  1 38  1  0
  3 39  1  0
  3 40  1  0
  4 41  1  0
  4 42  1  0
  7 43  1  0
  8 44  1  0
 15 45  1  0
 16 46  1  0
 19 47  1  0
 20 48  1  0
 23 49  1  0
 24 50  1  0
 27 51  1  0
 28 52  1  0
 29 53  1  0
 29 54  1  0
 30 55  1  0
 30 56  1  0
 31 57  1  0
 31 58  1  0
 32 59  1  0
 32 60  1  0
 34 61  1  0
 34 62  1  0
 35 63  1  0
 35 64  1  0
M  END
$$$$
