
     RDKit          3D

 62 68  0  0  0  0  0  0  0  0999 V2000
    8.6980   -1.0561   -0.0945 C   0  0  0  0  0  0  0  0  0  0  0  0
    7.2841   -1.2592   -0.1284 N   0  0  0  0  0  0  0  0  0  0  0  0
    6.7221   -0.3449   -1.1254 C   0  0  0  0  0  0  0  0  0  0  0  0
    5.7460    0.5278   -0.3612 C   0  0  2  0  0  0  0  0  0  0  0  0
    6.4910    0.5820    0.9875 C   0  0  0  0  0  0  0  0  0  0  0  0
    6.6146   -0.9489    1.0961 C   0  0  1  0  0  0  0  0  0  0  0  0
    5.1490   -1.3102    0.9121 C   0  0  0  0  0  0  0  0  0  0  0  0
    4.6416   -0.2959   -0.0039 N   0  0  0  0  0  0  0  0  0  0  0  0
    3.3067   -0.1564   -0.4555 C   0  0  0  0  0  0  0  0  0  0  0  0
    2.9670    0.8906   -1.2802 C   0  0  0  0  0  0  0  0  0  0  0  0
    1.6625    1.0139   -1.7154 C   0  0  0  0  0  0  0  0  0  0  0  0
    0.6549    0.1214   -1.3591 C   0  0  0  0  0  0  0  0  0  0  0  0
   -0.6870    0.3575   -1.8805 C   0  0  0  0  0  0  0  0  0  0  0  0
   -0.9424    0.6893   -3.1936 C   0  0  0  0  0  0  0  0  0  0  0  0
   -2.2173    0.9138   -3.6866 C   0  0  0  0  0  0  0  0  0  0  0  0
   -3.2387    0.7947   -2.8165 N   0  0  0  0  0  0  0  0  0  0  0  0
   -3.0155    0.4717   -1.5292 C   0  0  0  0  0  0  0  0  0  0  0  0
   -3.8458    0.2779   -0.4197 C   0  0  0  0  0  0  0  0  0  0  0  0
   -5.2823    0.4194   -0.5102 C   0  0  0  0  0  0  0  0  0  0  0  0
   -6.0532   -0.6729   -0.8097 C   0  0  0  0  0  0  0  0  0  0  0  0
   -7.4438   -0.5382   -0.8921 C   0  0  0  0  0  0  0  0  0  0  0  0
   -8.0410    0.6657   -0.6789 C   0  0  0  0  0  0  0  0  0  0  0  0
   -7.2817    1.7680   -0.3780 C   0  0  0  0  0  0  0  0  0  0  0  0
   -7.9172    2.9654   -0.1686 O   0  0  0  0  0  0  0  0  0  0  0  0
   -5.8900    1.6265   -0.2969 C   0  0  0  0  0  0  0  0  0  0  0  0
   -3.0690   -0.0472    0.6744 C   0  0  0  0  0  0  0  0  0  0  0  0
   -3.5677   -0.3267    2.0266 C   0  0  0  0  0  0  0  0  0  0  0  0
   -4.4123   -1.4045    2.2725 C   0  0  0  0  0  0  0  0  0  0  0  0
   -4.8986   -1.6959    3.5253 C   0  0  0  0  0  0  0  0  0  0  0  0
   -4.5306   -0.8936    4.5431 N   0  0  0  0  0  0  0  0  0  0  0  0
   -3.7131    0.1665    4.3638 C   0  0  0  0  0  0  0  0  0  0  0  0
   -3.2273    0.4565    3.1057 C   0  0  0  0  0  0  0  0  0  0  0  0
   -1.8010   -0.0466    0.2243 N   0  0  0  0  0  0  0  0  0  0  0  0
   -1.7699    0.2572   -1.0677 N   0  0  0  0  0  0  0  0  0  0  0  0
    1.0082   -0.9078   -0.5440 C   0  0  0  0  0  0  0  0  0  0  0  0
    2.3078   -1.0446   -0.1003 C   0  0  0  0  0  0  0  0  0  0  0  0
    9.1493   -1.9911    0.3474 H   0  0  0  0  0  0  0  0  0  0  0  0
    9.1463   -0.9247   -1.0995 H   0  0  0  0  0  0  0  0  0  0  0  0
    9.0155   -0.1855    0.5193 H   0  0  0  0  0  0  0  0  0  0  0  0
    7.4690    0.2806   -1.6086 H   0  0  0  0  0  0  0  0  0  0  0  0
    6.2059   -0.9407   -1.9160 H   0  0  0  0  0  0  0  0  0  0  0  0
    5.5714    1.4910   -0.7814 H   0  0  0  0  0  0  0  0  0  0  0  0
    7.4563    1.0759    0.9056 H   0  0  0  0  0  0  0  0  0  0  0  0
    5.8441    0.9304    1.7987 H   0  0  0  0  0  0  0  0  0  0  0  0
    7.0631   -1.2733    2.0078 H   0  0  0  0  0  0  0  0  0  0  0  0
    4.6459   -1.1080    1.8915 H   0  0  0  0  0  0  0  0  0  0  0  0
    4.9947   -2.3243    0.5424 H   0  0  0  0  0  0  0  0  0  0  0  0
    3.7266    1.6257   -1.5926 H   0  0  0  0  0  0  0  0  0  0  0  0
    1.4195    1.8412   -2.3616 H   0  0  0  0  0  0  0  0  0  0  0  0
   -0.0674    0.7720   -3.8529 H   0  0  0  0  0  0  0  0  0  0  0  0
   -2.3770    1.1726   -4.7261 H   0  0  0  0  0  0  0  0  0  0  0  0
   -5.6128   -1.6651   -0.9911 H   0  0  0  0  0  0  0  0  0  0  0  0
   -7.9940   -1.4372   -1.1331 H   0  0  0  0  0  0  0  0  0  0  0  0
   -9.1360    0.7544   -0.7466 H   0  0  0  0  0  0  0  0  0  0  0  0
   -8.1094    3.3622    0.7422 H   0  0  0  0  0  0  0  0  0  0  0  0
   -5.3454    2.5273   -0.0562 H   0  0  0  0  0  0  0  0  0  0  0  0
   -4.7084   -2.0470    1.4579 H   0  0  0  0  0  0  0  0  0  0  0  0
   -5.5640   -2.5530    3.6928 H   0  0  0  0  0  0  0  0  0  0  0  0
   -3.4534    0.7779    5.2313 H   0  0  0  0  0  0  0  0  0  0  0  0
   -2.5632    1.3095    2.9341 H   0  0  0  0  0  0  0  0  0  0  0  0
    0.2283   -1.6162   -0.2559 H   0  0  0  0  0  0  0  0  0  0  0  0
    2.5872   -1.8708    0.5523 H   0  0  0  0  0  0  0  0  0  0  0  0
  1  2  1  0
  2  3  1  0
  3  4  1  0
  4  5  1  0
  5  6  1  0
  6  7  1  0
  7  8  1  0
  8  9  1  0
  9 10  2  0
 10 11  1  0
 11 12  2  0
 12 13  1  0
 13 14  2  0
 14 15  1  0
 15 16  2  0
 16 17  1  0
 17 18  2  0
 18 19  1  0
 19 20  2  0
 20 21  1  0
 21 22  2  0
 22 23  1  0
 23 24  1  0
 23 25  2  0
 18 26  1  0
 26 27  1  0
 27 28  2  0
 28 29  1  0
 29 30  2  0
 30 31  1  0
 31 32  2  0
 26 33  2  0
 33 34  1  0
 12 35  1  0
 35 36  2  0
  6  2  1  0
 36  9  1  0
  8  4  1  0
 34 13  1  0
 34 17  1  0
 25 19  1  0
 32 27  1  0
  1 37  1  0
  1 38  1  0
  1 39  1  0
  3 40  1  0
  3 41  1  0
  4 42  1  6
  5 43  1  0
  5 44  1  0
  6 45  1  1
  7 46  1  0
  7 47  1  0
 10 48  1  0
 11 49  1  0
 14 50  1  0
 15 51  1  0
 20 52  1  0
 21 53  1  0
 22 54  1  0
 24 55  1  0
 25 56  1  0
 28 57  1  0
 29 58  1  0
 31 59  1  0
 32 60  1  0
 35 61  1  0
 36 62  1  0
M  END
$$$$
