
     RDKit          3D

 68 73  0  0  0  0  0  0  0  0999 V2000
   -7.1664   -0.9210   -1.6240 C   0  0  0  0  0  0  0  0  0  0  0  0
   -6.5947   -0.5137   -0.2248 C   0  0  1  0  0  0  0  0  0  0  0  0
   -5.3893   -0.8369   -0.0178 O   0  0  0  0  0  0  0  0  0  0  0  0
   -4.1191   -1.1799    0.2039 C   0  0  0  0  0  0  0  0  0  0  0  0
   -3.0907   -0.7756   -0.5780 C   0  0  0  0  0  0  0  0  0  0  0  0
   -1.8232   -1.1558   -0.3058 C   0  0  0  0  0  0  0  0  0  0  0  0
   -0.5612   -0.9022   -0.9297 N   0  0  0  0  0  0  0  0  0  0  0  0
   -0.3761   -0.5319   -2.2267 C   0  0  0  0  0  0  0  0  0  0  0  0
    0.9267   -0.3836   -2.4730 N   0  0  0  0  0  0  0  0  0  0  0  0
    1.6116   -0.6504   -1.3559 C   0  0  0  0  0  0  0  0  0  0  0  0
    2.9334   -0.6788   -0.9747 C   0  0  0  0  0  0  0  0  0  0  0  0
    3.3681   -1.0060    0.2895 C   0  0  0  0  0  0  0  0  0  0  0  0
    4.8100   -1.0175    0.6195 C   0  0  0  0  0  0  0  0  0  0  0  0
    5.2908   -1.9101    1.5729 C   0  0  0  0  0  0  0  0  0  0  0  0
    6.6209   -1.9433    1.8925 C   0  0  0  0  0  0  0  0  0  0  0  0
    7.4426   -1.0930    1.2612 N   0  0  0  0  0  0  0  0  0  0  0  0
    7.0044   -0.2058    0.3221 C   0  0  0  0  0  0  0  0  0  0  0  0
    7.9196    0.6499   -0.2979 N   0  0  0  0  0  0  0  0  0  0  0  0
    9.3295    0.5396   -0.0098 C   0  0  0  0  0  0  0  0  0  0  0  0
    9.8912    1.9611   -0.1599 C   0  0  0  0  0  0  0  0  0  0  0  0
    9.7987    2.2940   -1.4844 O   0  0  0  0  0  0  0  0  0  0  0  0
    8.5487    2.2707   -2.0369 C   0  0  0  0  0  0  0  0  0  0  0  0
    7.4666    1.6530   -1.2241 C   0  0  0  0  0  0  0  0  0  0  0  0
    5.6763   -0.1607   -0.0084 C   0  0  0  0  0  0  0  0  0  0  0  0
    2.4276   -1.3253    1.2373 C   0  0  0  0  0  0  0  0  0  0  0  0
    1.0807   -1.3051    0.8809 C   0  0  0  0  0  0  0  0  0  0  0  0
    0.6643   -0.9739   -0.3968 C   0  0  0  0  0  0  0  0  0  0  0  0
   -2.0036   -2.1937    1.1909 S   0  0  0  0  0  0  0  0  0  0  0  0
   -3.7989   -1.9948    1.2839 C   0  0  0  0  0  0  0  0  0  0  0  0
   -4.6274   -2.5891    2.2946 C   0  0  0  0  0  0  0  0  0  0  0  0
   -4.0355   -3.3996    3.2943 N   0  0  0  0  0  0  0  0  0  0  0  0
   -5.8643   -2.4157    2.3245 O   0  0  0  0  0  0  0  0  0  0  0  0
   -6.8255    0.9828   -0.1333 C   0  0  0  0  0  0  0  0  0  0  0  0
   -5.8724    1.8347   -0.6395 C   0  0  0  0  0  0  0  0  0  0  0  0
   -6.0365    3.2158   -0.5997 C   0  0  0  0  0  0  0  0  0  0  0  0
   -7.1749    3.7589   -0.0432 C   0  0  0  0  0  0  0  0  0  0  0  0
   -8.1243    2.9127    0.4611 C   0  0  0  0  0  0  0  0  0  0  0  0
   -7.9596    1.5203    0.4213 C   0  0  0  0  0  0  0  0  0  0  0  0
   -9.0280    0.6859    0.9999 C   0  0  0  0  0  0  0  0  0  0  0  0
   -8.6068   -0.0859    2.0768 F   0  0  0  0  0  0  0  0  0  0  0  0
   -9.6191   -0.1229    0.0299 F   0  0  0  0  0  0  0  0  0  0  0  0
  -10.0495    1.4777    1.4859 F   0  0  0  0  0  0  0  0  0  0  0  0
   -6.3276   -1.0296   -2.3273 H   0  0  0  0  0  0  0  0  0  0  0  0
   -7.8489   -0.1528   -1.9980 H   0  0  0  0  0  0  0  0  0  0  0  0
   -7.6844   -1.8793   -1.5357 H   0  0  0  0  0  0  0  0  0  0  0  0
   -7.3161   -1.0092    0.5123 H   0  0  0  0  0  0  0  0  0  0  0  0
   -3.2384   -0.1107   -1.4899 H   0  0  0  0  0  0  0  0  0  0  0  0
   -1.1625   -0.3883   -2.9246 H   0  0  0  0  0  0  0  0  0  0  0  0
    3.6905   -0.4298   -1.7055 H   0  0  0  0  0  0  0  0  0  0  0  0
    4.5830   -2.5749    2.0516 H   0  0  0  0  0  0  0  0  0  0  0  0
    6.9914   -2.6467    2.6429 H   0  0  0  0  0  0  0  0  0  0  0  0
    9.5631    0.0982    0.9595 H   0  0  0  0  0  0  0  0  0  0  0  0
    9.8095   -0.0430   -0.8248 H   0  0  0  0  0  0  0  0  0  0  0  0
   10.9755    1.8719    0.0864 H   0  0  0  0  0  0  0  0  0  0  0  0
    9.3410    2.5979    0.5360 H   0  0  0  0  0  0  0  0  0  0  0  0
    8.5591    1.8465   -3.0690 H   0  0  0  0  0  0  0  0  0  0  0  0
    8.2594    3.3576   -2.1861 H   0  0  0  0  0  0  0  0  0  0  0  0
    6.7572    1.1541   -1.9427 H   0  0  0  0  0  0  0  0  0  0  0  0
    6.8219    2.4258   -0.7093 H   0  0  0  0  0  0  0  0  0  0  0  0
    5.2511    0.5229   -0.7499 H   0  0  0  0  0  0  0  0  0  0  0  0
    2.6982   -1.5915    2.2467 H   0  0  0  0  0  0  0  0  0  0  0  0
    0.3797   -1.5658    1.6781 H   0  0  0  0  0  0  0  0  0  0  0  0
   -3.1328   -3.0806    3.7084 H   0  0  0  0  0  0  0  0  0  0  0  0
   -4.5082   -4.2852    3.5896 H   0  0  0  0  0  0  0  0  0  0  0  0
   -4.9708    1.4445   -1.0830 H   0  0  0  0  0  0  0  0  0  0  0  0
   -5.2426    3.8153   -1.0172 H   0  0  0  0  0  0  0  0  0  0  0  0
   -7.2987    4.8173   -0.0147 H   0  0  0  0  0  0  0  0  0  0  0  0
   -9.0143    3.3501    0.8953 H   0  0  0  0  0  0  0  0  0  0  0  0
  1  2  1  0
  2  3  1  0
  3  4  1  0
  4  5  1  0
  5  6  2  0
  6  7  1  0
  7  8  1  0
  8  9  2  0
  9 10  1  0
 10 11  2  0
 11 12  1  0
 12 13  1  0
 13 14  2  0
 14 15  1  0
 15 16  2  0
 16 17  1  0
 17 18  1  0
 18 19  1  0
 19 20  1  0
 20 21  1  0
 21 22  1  0
 22 23  1  0
 17 24  2  0
 12 25  2  0
 25 26  1  0
 26 27  2  0
  6 28  1  0
 28 29  1  0
 29 30  1  0
 30 31  1  0
 30 32  2  0
  2 33  1  0
 33 34  2  0
 34 35  1  0
 35 36  2  0
 36 37  1  0
 37 38  2  0
 38 39  1  0
 39 40  1  0
 39 41  1  0
 39 42  1  0
 29  4  2  0
 38 33  1  0
 27  7  1  0
 27 10  1  0
 24 13  1  0
 23 18  1  0
  1 43  1  0
  1 44  1  0
  1 45  1  0
  2 46  1  1
  5 47  1  0
  8 48  1  0
 11 49  1  0
 14 50  1  0
 15 51  1  0
 19 52  1  0
 19 53  1  0
 20 54  1  0
 20 55  1  0
 22 56  1  0
 22 57  1  0
 23 58  1  0
 23 59  1  0
 24 60  1  0
 25 61  1  0
 26 62  1  0
 31 63  1  0
 31 64  1  0
 34 65  1  0
 35 66  1  0
 36 67  1  0
 37 68  1  0
M  END
$$$$
