
     RDKit          3D

 51 55  0  0  0  0  0  0  0  0999 V2000
    8.7986   -0.2778   -0.6448 C   0  0  0  0  0  0  0  0  0  0  0  0
    7.3202   -0.2182   -0.5493 C   0  0  0  0  0  0  0  0  0  0  0  0
    6.3700   -0.4099   -1.5449 C   0  0  0  0  0  0  0  0  0  0  0  0
    5.1172   -0.2508   -0.9653 C   0  0  0  0  0  0  0  0  0  0  0  0
    3.8693   -0.3318   -1.4884 N   0  0  0  0  0  0  0  0  0  0  0  0
    2.7879   -0.1364   -0.7213 C   0  0  0  0  0  0  0  0  0  0  0  0
    3.0196    0.1473    0.6106 C   0  0  0  0  0  0  0  0  0  0  0  0
    4.2810    0.2288    1.1372 C   0  0  0  0  0  0  0  0  0  0  0  0
    5.3360    0.0252    0.3289 N   0  0  0  0  0  0  0  0  0  0  0  0
    6.6413    0.0420    0.5640 N   0  0  0  0  0  0  0  0  0  0  0  0
    1.6737    0.3119    1.2203 C   0  0  0  0  0  0  0  0  0  0  0  0
    0.8829    0.7041    0.1205 N   0  0  0  0  0  0  0  0  0  0  0  0
   -0.5226    0.7584    0.3197 C   0  0  1  0  0  0  0  0  0  0  0  0
   -1.1500    1.2115   -0.9951 C   0  0  0  0  0  0  0  0  0  0  0  0
   -2.6266    1.3395   -0.6837 C   0  0  0  0  0  0  0  0  0  0  0  0
   -3.2139   -0.0841   -0.5921 C   0  0  2  0  0  0  0  0  0  0  0  0
   -4.5814    0.0661   -0.1516 C   0  0  0  0  0  0  0  0  0  0  0  0
   -5.5799    0.2319   -1.1094 C   0  0  0  0  0  0  0  0  0  0  0  0
   -6.9084    0.3842   -0.7694 C   0  0  0  0  0  0  0  0  0  0  0  0
   -7.8820    0.5457   -1.7000 F   0  0  0  0  0  0  0  0  0  0  0  0
   -7.2903    0.3763    0.5474 C   0  0  0  0  0  0  0  0  0  0  0  0
   -6.3302    0.2151    1.5107 C   0  0  0  0  0  0  0  0  0  0  0  0
   -5.0006    0.0634    1.1530 C   0  0  0  0  0  0  0  0  0  0  0  0
   -4.0579   -0.0933    2.0813 F   0  0  0  0  0  0  0  0  0  0  0  0
   -2.3301   -1.0128    0.1278 C   0  0  1  0  0  0  0  0  0  0  0  0
   -1.7866   -1.9880   -0.8302 N   0  0  0  0  0  0  0  0  0  0  0  0
   -1.1635   -0.4565    0.8624 C   0  0  0  0  0  0  0  0  0  0  0  0
    1.3217   -0.1466   -0.9591 C   0  0  0  0  0  0  0  0  0  0  0  0
    9.1347   -1.1649   -0.0344 H   0  0  0  0  0  0  0  0  0  0  0  0
    9.2166    0.6637   -0.2198 H   0  0  0  0  0  0  0  0  0  0  0  0
    9.0496   -0.3948   -1.7112 H   0  0  0  0  0  0  0  0  0  0  0  0
    6.5933   -0.6389   -2.5700 H   0  0  0  0  0  0  0  0  0  0  0  0
    4.4856    0.4497    2.1765 H   0  0  0  0  0  0  0  0  0  0  0  0
    1.4225   -0.6841    1.6631 H   0  0  0  0  0  0  0  0  0  0  0  0
    1.6910    1.0334    2.0629 H   0  0  0  0  0  0  0  0  0  0  0  0
   -0.7035    1.6371    1.0121 H   0  0  0  0  0  0  0  0  0  0  0  0
   -0.7596    2.2050   -1.2545 H   0  0  0  0  0  0  0  0  0  0  0  0
   -0.9596    0.4977   -1.8184 H   0  0  0  0  0  0  0  0  0  0  0  0
   -2.7073    1.8112    0.3170 H   0  0  0  0  0  0  0  0  0  0  0  0
   -3.1412    1.9383   -1.4402 H   0  0  0  0  0  0  0  0  0  0  0  0
   -3.2497   -0.3825   -1.6703 H   0  0  0  0  0  0  0  0  0  0  0  0
   -5.3471    0.2476   -2.1682 H   0  0  0  0  0  0  0  0  0  0  0  0
   -8.3210    0.4917    0.8760 H   0  0  0  0  0  0  0  0  0  0  0  0
   -6.5584    0.1986    2.5750 H   0  0  0  0  0  0  0  0  0  0  0  0
   -2.9228   -1.6385    0.8302 H   0  0  0  0  0  0  0  0  0  0  0  0
   -1.5826   -2.9011   -0.3732 H   0  0  0  0  0  0  0  0  0  0  0  0
   -2.5153   -2.2070   -1.5668 H   0  0  0  0  0  0  0  0  0  0  0  0
   -1.3813   -0.2740    1.9585 H   0  0  0  0  0  0  0  0  0  0  0  0
   -0.3859   -1.2799    0.9421 H   0  0  0  0  0  0  0  0  0  0  0  0
    0.8869   -1.1526   -0.8106 H   0  0  0  0  0  0  0  0  0  0  0  0
    1.0601    0.2990   -1.9432 H   0  0  0  0  0  0  0  0  0  0  0  0
  1  2  1  0
  2  3  1  0
  3  4  2  0
  4  5  1  0
  5  6  2  0
  6  7  1  0
  7  8  2  0
  8  9  1  0
  9 10  1  0
  7 11  1  0
 11 12  1  0
 12 13  1  0
 13 14  1  0
 14 15  1  0
 15 16  1  0
 16 17  1  0
 17 18  2  0
 18 19  1  0
 19 20  1  0
 19 21  2  0
 21 22  1  0
 22 23  2  0
 23 24  1  0
 16 25  1  0
 25 26  1  0
 25 27  1  0
 12 28  1  0
 10  2  2  0
 27 13  1  0
  9  4  1  0
 23 17  1  0
 28  6  1  0
  1 29  1  0
  1 30  1  0
  1 31  1  0
  3 32  1  0
  8 33  1  0
 11 34  1  0
 11 35  1  0
 13 36  1  1
 14 37  1  0
 14 38  1  0
 15 39  1  0
 15 40  1  0
 16 41  1  6
 18 42  1  0
 21 43  1  0
 22 44  1  0
 25 45  1  1
 26 46  1  0
 26 47  1  0
 27 48  1  0
 27 49  1  0
 28 50  1  0
 28 51  1  0
M  END
$$$$
