
     RDKit          3D

 59 61  0  0  0  0  0  0  0  0999 V2000
    9.8781   -0.1684   -0.5414 C   0  0  0  0  0  0  0  0  0  0  0  0
    8.7602   -0.8974   -1.0652 N   0  0  0  0  0  0  0  0  0  0  0  0
    8.7776   -1.3501   -2.4324 C   0  0  0  0  0  0  0  0  0  0  0  0
    7.6425   -1.1744   -0.2496 C   0  0  0  0  0  0  0  0  0  0  0  0
    6.6544   -1.8182   -0.7115 O   0  0  0  0  0  0  0  0  0  0  0  0
    7.6246   -0.7048    1.1691 C   0  0  0  0  0  0  0  0  0  0  0  0
    6.3926   -1.0933    1.8212 N   0  0  0  0  0  0  0  0  0  0  0  0
    5.1522   -0.6242    1.2930 C   0  0  0  0  0  0  0  0  0  0  0  0
    5.1272    0.1228    0.2665 O   0  0  0  0  0  0  0  0  0  0  0  0
    3.8922   -0.9524    1.8645 N   0  0  0  0  0  0  0  0  0  0  0  0
    2.6526   -0.4938    1.3507 C   0  0  0  0  0  0  0  0  0  0  0  0
    2.0932    0.6687    1.7677 N   0  0  0  0  0  0  0  0  0  0  0  0
    0.9462    0.8271    1.1117 C   0  0  0  0  0  0  0  0  0  0  0  0
   -0.0141    1.8369    1.1580 C   0  0  0  0  0  0  0  0  0  0  0  0
   -1.1291    1.7618    0.3648 C   0  0  0  0  0  0  0  0  0  0  0  0
   -1.2747    0.6794   -0.4671 C   0  0  0  0  0  0  0  0  0  0  0  0
   -2.4520    0.5806   -1.3179 C   0  0  0  0  0  0  0  0  0  0  0  0
   -2.3644   -0.0469   -2.5329 C   0  0  0  0  0  0  0  0  0  0  0  0
   -3.4503   -0.1335   -3.3095 N   0  0  0  0  0  0  0  0  0  0  0  0
   -4.6484    0.3852   -2.9291 C   0  0  0  0  0  0  0  0  0  0  0  0
   -4.7778    1.0153   -1.7319 C   0  0  0  0  0  0  0  0  0  0  0  0
   -6.3020    1.6861   -1.2514 S   0  0  0  0  0  6  0  0  0  0  0  0
   -6.1195    2.9955   -0.5030 O   0  0  0  0  0  0  0  0  0  0  0  0
   -6.9934    2.1185   -2.5466 O   0  0  0  0  0  0  0  0  0  0  0  0
   -7.3565    0.6360   -0.4722 N   0  0  0  0  0  0  0  0  0  0  0  0
   -6.9911    0.0480    0.7469 C   0  0  0  0  0  0  0  0  0  0  0  0
   -6.6436    0.9861    1.8599 C   0  0  0  0  0  0  0  0  0  0  0  0
   -5.8420   -0.9075    0.5425 C   0  0  0  0  0  0  0  0  0  0  0  0
   -8.1978   -0.7938    1.2058 C   0  0  0  0  0  0  0  0  0  0  0  0
   -3.6803    1.1194   -0.9138 C   0  0  0  0  0  0  0  0  0  0  0  0
   -0.3064   -0.2856   -0.4777 C   0  0  0  0  0  0  0  0  0  0  0  0
    0.7825   -0.2223    0.2901 N   0  0  0  0  0  0  0  0  0  0  0  0
    1.8394   -1.0248    0.4488 N   0  0  0  0  0  0  0  0  0  0  0  0
   10.8357   -0.4260   -1.0534 H   0  0  0  0  0  0  0  0  0  0  0  0
    9.7255    0.9460   -0.6107 H   0  0  0  0  0  0  0  0  0  0  0  0
    9.9814   -0.3915    0.5307 H   0  0  0  0  0  0  0  0  0  0  0  0
    8.6838   -2.4568   -2.4650 H   0  0  0  0  0  0  0  0  0  0  0  0
    9.7010   -1.0349   -2.9559 H   0  0  0  0  0  0  0  0  0  0  0  0
    7.8583   -0.9575   -2.9322 H   0  0  0  0  0  0  0  0  0  0  0  0
    8.4790   -1.1631    1.7030 H   0  0  0  0  0  0  0  0  0  0  0  0
    7.7486    0.3867    1.1661 H   0  0  0  0  0  0  0  0  0  0  0  0
    6.3885   -1.7073    2.6671 H   0  0  0  0  0  0  0  0  0  0  0  0
    3.8807   -1.5644    2.7086 H   0  0  0  0  0  0  0  0  0  0  0  0
    0.1491    2.6641    1.8283 H   0  0  0  0  0  0  0  0  0  0  0  0
   -1.8986    2.5168    0.3651 H   0  0  0  0  0  0  0  0  0  0  0  0
   -1.4068   -0.4654   -2.8451 H   0  0  0  0  0  0  0  0  0  0  0  0
   -5.4588    0.2630   -3.6244 H   0  0  0  0  0  0  0  0  0  0  0  0
   -8.3372    0.9149   -0.5929 H   0  0  0  0  0  0  0  0  0  0  0  0
   -6.1412    1.8989    1.5638 H   0  0  0  0  0  0  0  0  0  0  0  0
   -5.9793    0.4691    2.6107 H   0  0  0  0  0  0  0  0  0  0  0  0
   -7.5593    1.2660    2.4205 H   0  0  0  0  0  0  0  0  0  0  0  0
   -4.9328   -0.5533    1.0721 H   0  0  0  0  0  0  0  0  0  0  0  0
   -6.1258   -1.9102    0.9081 H   0  0  0  0  0  0  0  0  0  0  0  0
   -5.6134   -0.9961   -0.5602 H   0  0  0  0  0  0  0  0  0  0  0  0
   -7.8817   -1.5586    1.9376 H   0  0  0  0  0  0  0  0  0  0  0  0
   -8.9345   -0.1306    1.7338 H   0  0  0  0  0  0  0  0  0  0  0  0
   -8.7256   -1.2408    0.3581 H   0  0  0  0  0  0  0  0  0  0  0  0
   -3.7063    1.6026    0.0448 H   0  0  0  0  0  0  0  0  0  0  0  0
   -0.4025   -1.1476   -1.1270 H   0  0  0  0  0  0  0  0  0  0  0  0
  1  2  1  0
  2  3  1  0
  2  4  1  0
  4  5  2  0
  4  6  1  0
  6  7  1  0
  7  8  1  0
  8  9  2  0
  8 10  1  0
 10 11  1  0
 11 12  1  0
 12 13  2  0
 13 14  1  0
 14 15  2  0
 15 16  1  0
 16 17  1  0
 17 18  2  0
 18 19  1  0
 19 20  2  0
 20 21  1  0
 21 22  1  0
 22 23  2  0
 22 24  2  0
 22 25  1  0
 25 26  1  0
 26 27  1  0
 26 28  1  0
 26 29  1  0
 21 30  2  0
 16 31  2  0
 31 32  1  0
 32 33  1  0
 33 11  2  0
 32 13  1  0
 30 17  1  0
  1 34  1  0
  1 35  1  0
  1 36  1  0
  3 37  1  0
  3 38  1  0
  3 39  1  0
  6 40  1  0
  6 41  1  0
  7 42  1  0
 10 43  1  0
 14 44  1  0
 15 45  1  0
 18 46  1  0
 20 47  1  0
 25 48  1  0
 27 49  1  0
 27 50  1  0
 27 51  1  0
 28 52  1  0
 28 53  1  0
 28 54  1  0
 29 55  1  0
 29 56  1  0
 29 57  1  0
 30 58  1  0
 31 59  1  0
M  END
$$$$
