
     RDKit          3D

 35 34  0  0  0  0  0  0  0  0999 V2000
   -3.8562    1.5180   -0.5119 C   0  0  0  0  0  0  0  0  0  0  0  0
   -3.8823    0.0154   -0.5149 C   0  0  0  0  0  0  0  0  0  0  0  0
   -3.3468   -0.5611    0.7720 C   0  0  0  0  0  0  0  0  0  0  0  0
   -1.9373   -0.1793    1.0591 C   0  0  0  0  0  0  0  0  0  0  0  0
   -0.9607   -0.6197    0.0061 C   0  0  0  0  0  0  0  0  0  0  0  0
    0.4151   -0.1575    0.4455 C   0  0  0  0  0  0  0  0  0  0  0  0
    1.4452   -0.5805   -0.5914 C   0  0  1  0  0  0  0  0  0  0  0  0
    2.8278   -0.1541   -0.2177 C   0  0  0  0  0  0  0  0  0  0  0  0
    2.9919    1.3372   -0.0673 C   0  0  0  0  0  0  0  0  0  0  0  0
    4.4593    1.5497    0.3118 C   0  0  0  0  0  0  0  0  0  0  0  0
    1.4481   -2.0839   -0.5398 C   0  0  0  0  0  0  0  0  0  0  0  0
    1.7931   -2.5828    0.7095 O   0  0  0  0  0  0  0  0  0  0  0  0
    1.1890   -2.9299   -1.4449 O   0  0  0  0  0  0  0  0  0  0  0  0
   -4.5552    1.9577   -1.2340 H   0  0  0  0  0  0  0  0  0  0  0  0
   -2.8277    1.8813   -0.7733 H   0  0  0  0  0  0  0  0  0  0  0  0
   -4.0805    1.8320    0.5295 H   0  0  0  0  0  0  0  0  0  0  0  0
   -3.3401   -0.3288   -1.4099 H   0  0  0  0  0  0  0  0  0  0  0  0
   -4.9405   -0.3067   -0.6046 H   0  0  0  0  0  0  0  0  0  0  0  0
   -3.5124   -1.6468    0.8525 H   0  0  0  0  0  0  0  0  0  0  0  0
   -3.9698   -0.1065    1.5904 H   0  0  0  0  0  0  0  0  0  0  0  0
   -1.8128    0.8787    1.3069 H   0  0  0  0  0  0  0  0  0  0  0  0
   -1.6438   -0.7490    1.9854 H   0  0  0  0  0  0  0  0  0  0  0  0
   -1.1426   -0.1380   -0.9782 H   0  0  0  0  0  0  0  0  0  0  0  0
   -0.9312   -1.7191   -0.0792 H   0  0  0  0  0  0  0  0  0  0  0  0
    0.3381    0.9563    0.4958 H   0  0  0  0  0  0  0  0  0  0  0  0
    0.6698   -0.5478    1.4353 H   0  0  0  0  0  0  0  0  0  0  0  0
    1.1492   -0.2263   -1.5820 H   0  0  0  0  0  0  0  0  0  0  0  0
    3.5028   -0.4756   -1.0281 H   0  0  0  0  0  0  0  0  0  0  0  0
    3.0754   -0.6395    0.7460 H   0  0  0  0  0  0  0  0  0  0  0  0
    2.4125    1.7603    0.7638 H   0  0  0  0  0  0  0  0  0  0  0  0
    2.8199    1.8302   -1.0310 H   0  0  0  0  0  0  0  0  0  0  0  0
    5.1046    0.9074   -0.3302 H   0  0  0  0  0  0  0  0  0  0  0  0
    4.5770    1.2764    1.3786 H   0  0  0  0  0  0  0  0  0  0  0  0
    4.6850    2.6125    0.2023 H   0  0  0  0  0  0  0  0  0  0  0  0
    1.8358   -3.5804    0.8640 H   0  0  0  0  0  0  0  0  0  0  0  0
  1  2  1  0
  2  3  1  0
  3  4  1  0
  4  5  1  0
  5  6  1  0
  6  7  1  0
  7  8  1  0
  8  9  1  0
  9 10  1  0
  7 11  1  0
 11 12  1  0
 11 13  2  0
  1 14  1  0
  1 15  1  0
  1 16  1  0
  2 17  1  0
  2 18  1  0
  3 19  1  0
  3 20  1  0
  4 21  1  0
  4 22  1  0
  5 23  1  0
  5 24  1  0
  6 25  1  0
  6 26  1  0
  7 27  1  6
  8 28  1  0
  8 29  1  0
  9 30  1  0
  9 31  1  0
 10 32  1  0
 10 33  1  0
 10 34  1  0
 12 35  1  0
M  END
$$$$
