
     RDKit          3D

 53 56  0  0  0  0  0  0  0  0999 V2000
   -4.1091    2.8015   -1.0704 C   0  0  0  0  0  0  0  0  0  0  0  0
   -4.4282    1.3983   -1.5227 C   0  0  0  0  0  0  0  0  0  0  0  0
   -5.9316    1.2408   -1.7299 C   0  0  0  0  0  0  0  0  0  0  0  0
   -3.8587    1.2601   -2.8134 O   0  0  0  0  0  0  0  0  0  0  0  0
   -3.8863    0.3212   -0.6306 C   0  0  1  0  0  0  0  0  0  0  0  0
   -4.2927   -1.3694   -1.2289 S   0  0  0  0  0  0  0  0  0  0  0  0
   -3.3576   -2.4716   -0.1852 C   0  0  0  0  0  0  0  0  0  0  0  0
   -3.8518   -3.7555    0.0987 N   0  0  0  0  0  0  0  0  0  0  0  0
   -2.2426   -2.0409    0.2797 N   0  0  0  0  0  0  0  0  0  0  0  0
   -1.7159   -0.7427    0.0093 C   0  0  2  0  0  0  0  0  0  0  0  0
   -1.1763   -0.6698   -1.4377 C   0  0  0  0  0  0  0  0  0  0  0  0
   -0.5214   -0.5499    0.8897 C   0  0  0  0  0  0  0  0  0  0  0  0
    0.7530   -0.2949    0.3766 C   0  0  0  0  0  0  0  0  0  0  0  0
    1.8297   -0.1247    1.2219 C   0  0  0  0  0  0  0  0  0  0  0  0
    3.1597    0.1519    0.6843 C   0  0  0  0  0  0  0  0  0  0  0  0
    4.2665   -0.3975    1.1852 C   0  0  0  0  0  0  0  0  0  0  0  0
    4.1328   -1.2386    2.2263 F   0  0  0  0  0  0  0  0  0  0  0  0
    5.5854   -0.1084    0.6412 C   0  0  0  0  0  0  0  0  0  0  0  0
    6.7059   -0.7019    1.1704 C   0  0  0  0  0  0  0  0  0  0  0  0
    7.9686   -0.4420    0.6722 C   0  0  0  0  0  0  0  0  0  0  0  0
    8.0708    0.4387   -0.3811 C   0  0  0  0  0  0  0  0  0  0  0  0
    9.4023    0.7141   -0.9211 C   0  0  0  0  0  0  0  0  0  0  0  0
   10.4521    0.9109   -1.3424 N   0  0  0  0  0  0  0  0  0  0  0  0
    6.9470    1.0231   -0.8985 C   0  0  0  0  0  0  0  0  0  0  0  0
    5.7209    0.7577   -0.3995 N   0  0  0  0  0  0  0  0  0  0  0  0
    1.6033   -0.2146    2.5786 C   0  0  0  0  0  0  0  0  0  0  0  0
    0.3555   -0.4649    3.1030 C   0  0  0  0  0  0  0  0  0  0  0  0
   -0.7296   -0.6367    2.2509 C   0  0  0  0  0  0  0  0  0  0  0  0
   -1.9452   -0.8903    2.7893 F   0  0  0  0  0  0  0  0  0  0  0  0
   -2.6497    0.4054    0.1406 C   0  0  2  0  0  0  0  0  0  0  0  0
   -3.9107    0.4587    0.8579 C   0  0  0  0  0  0  0  0  0  0  0  0
   -4.5382   -0.5523    1.5078 F   0  0  0  0  0  0  0  0  0  0  0  0
   -4.2546    1.7127    1.3949 F   0  0  0  0  0  0  0  0  0  0  0  0
   -4.7695    3.1751   -0.2613 H   0  0  0  0  0  0  0  0  0  0  0  0
   -4.3020    3.4434   -1.9906 H   0  0  0  0  0  0  0  0  0  0  0  0
   -3.0405    2.8799   -0.8872 H   0  0  0  0  0  0  0  0  0  0  0  0
   -6.1967    0.9463   -2.7633 H   0  0  0  0  0  0  0  0  0  0  0  0
   -6.3567    0.4860   -1.0460 H   0  0  0  0  0  0  0  0  0  0  0  0
   -6.4222    2.2311   -1.5507 H   0  0  0  0  0  0  0  0  0  0  0  0
   -4.3208    0.4499   -3.2002 H   0  0  0  0  0  0  0  0  0  0  0  0
   -4.5668   -4.1786   -0.5216 H   0  0  0  0  0  0  0  0  0  0  0  0
   -3.5270   -4.3143    0.9202 H   0  0  0  0  0  0  0  0  0  0  0  0
   -0.4387   -1.4462   -1.6430 H   0  0  0  0  0  0  0  0  0  0  0  0
   -0.8342    0.3752   -1.5751 H   0  0  0  0  0  0  0  0  0  0  0  0
   -2.0334   -0.7649   -2.1629 H   0  0  0  0  0  0  0  0  0  0  0  0
    0.8702   -0.2354   -0.7081 H   0  0  0  0  0  0  0  0  0  0  0  0
    3.3241    0.8311   -0.1649 H   0  0  0  0  0  0  0  0  0  0  0  0
    6.6358   -1.3937    1.9983 H   0  0  0  0  0  0  0  0  0  0  0  0
    8.8711   -0.8979    1.0738 H   0  0  0  0  0  0  0  0  0  0  0  0
    7.0103    1.7114   -1.7177 H   0  0  0  0  0  0  0  0  0  0  0  0
    2.4448   -0.0811    3.2403 H   0  0  0  0  0  0  0  0  0  0  0  0
    0.1864   -0.5359    4.1870 H   0  0  0  0  0  0  0  0  0  0  0  0
   -2.0875    1.3903    0.0345 H   0  0  0  0  0  0  0  0  0  0  0  0
  1  2  1  0
  2  3  1  0
  2  4  1  0
  5  2  1  6
  5  6  1  0
  6  7  1  0
  7  8  1  0
  7  9  2  0
  9 10  1  0
 10 11  1  6
 10 12  1  0
 12 13  2  0
 13 14  1  0
 14 15  1  0
 15 16  2  0
 16 17  1  0
 16 18  1  0
 18 19  2  0
 19 20  1  0
 20 21  2  0
 21 22  1  0
 22 23  3  0
 21 24  1  0
 24 25  2  0
 14 26  2  0
 26 27  1  0
 27 28  2  0
 28 29  1  0
 10 30  1  0
 30 31  1  0
 31 32  1  0
 31 33  1  0
 30  5  1  0
 31  5  1  0
 28 12  1  0
 25 18  1  0
  1 34  1  0
  1 35  1  0
  1 36  1  0
  3 37  1  0
  3 38  1  0
  3 39  1  0
  4 40  1  0
  8 41  1  0
  8 42  1  0
 11 43  1  0
 11 44  1  0
 11 45  1  0
 13 46  1  0
 15 47  1  0
 19 48  1  0
 20 49  1  0
 24 50  1  0
 26 51  1  0
 27 52  1  0
 30 53  1  6
M  END
$$$$
