
     RDKit          3D

 53 56  0  0  0  0  0  0  0  0999 V2000
   -7.5916    0.9854    1.3061 C   0  0  0  0  0  0  0  0  0  0  0  0
   -6.9448   -0.0725    0.4069 C   0  0  0  0  0  0  0  0  0  0  0  0
   -7.5315   -1.4302    0.5724 C   0  0  0  0  0  0  0  0  0  0  0  0
   -7.0538    0.4159   -0.9663 N   0  0  0  0  0  0  0  0  0  0  0  0
   -8.1077    0.8555   -1.5985 C   0  0  0  0  0  0  0  0  0  0  0  0
   -7.7941    1.1977   -2.8356 N   0  0  0  0  0  0  0  0  0  0  0  0
   -6.4745    0.9643   -2.9971 C   0  0  0  0  0  0  0  0  0  0  0  0
   -5.9183    0.4401   -1.7939 C   0  0  0  0  0  0  0  0  0  0  0  0
   -4.7250    0.0297   -1.5595 C   0  0  0  0  0  0  0  0  0  0  0  0
   -3.6590   -0.3243   -1.3359 C   0  0  0  0  0  0  0  0  0  0  0  0
   -2.0087   -0.8806   -1.0161 C   0  0  0  0  0  0  0  0  0  0  0  0
   -2.1408   -1.9595   -0.4621 C   0  0  0  0  0  0  0  0  0  0  0  0
   -0.7040   -2.2064    0.0876 C   0  0  0  0  0  0  0  0  0  0  0  0
    0.2049   -1.1856   -0.2116 C   0  0  0  0  0  0  0  0  0  0  0  0
    1.5440   -1.3223    0.2408 C   0  0  0  0  0  0  0  0  0  0  0  0
    1.8145   -2.3707    0.8946 O   0  0  0  0  0  0  0  0  0  0  0  0
    2.5062   -0.3595   -0.0256 C   0  0  0  0  0  0  0  0  0  0  0  0
    3.8728   -0.3987    0.4422 C   0  0  0  0  0  0  0  0  0  0  0  0
    4.6456    0.7281    0.2147 C   0  0  0  0  0  0  0  0  0  0  0  0
    5.9759    0.7467    0.6392 C   0  0  0  0  0  0  0  0  0  0  0  0
    6.5559   -0.2684    1.2631 C   0  0  0  0  0  0  0  0  0  0  0  0
    7.9318   -0.2657    1.6182 N   0  0  0  0  0  0  0  0  0  0  0  0
    9.0765    0.7600    0.8850 S   0  0  0  0  0  6  0  0  0  0  0  0
    8.7906    2.4919    1.1592 C   0  0  0  0  0  0  0  0  0  0  0  0
    9.1481    0.5174   -0.6149 O   0  0  0  0  0  0  0  0  0  0  0  0
   10.4807    0.4489    1.4101 O   0  0  0  0  0  0  0  0  0  0  0  0
    5.7793   -1.4123    1.5001 C   0  0  0  0  0  0  0  0  0  0  0  0
    4.4635   -1.4604    1.0903 C   0  0  0  0  0  0  0  0  0  0  0  0
    2.1088    0.7566   -0.7545 C   0  0  0  0  0  0  0  0  0  0  0  0
    0.8476    0.8638   -1.1596 O   0  0  0  0  0  0  0  0  0  0  0  0
   -0.0094   -0.0295   -0.9070 C   0  0  0  0  0  0  0  0  0  0  0  0
   -1.3956    0.2137   -1.4392 C   0  0  0  0  0  0  0  0  0  0  0  0
   -7.0854    1.0307    2.2894 H   0  0  0  0  0  0  0  0  0  0  0  0
   -7.4868    1.9838    0.8529 H   0  0  0  0  0  0  0  0  0  0  0  0
   -8.6663    0.7422    1.4931 H   0  0  0  0  0  0  0  0  0  0  0  0
   -5.8607   -0.1477    0.6983 H   0  0  0  0  0  0  0  0  0  0  0  0
   -6.7878   -2.0705    1.0909 H   0  0  0  0  0  0  0  0  0  0  0  0
   -7.7490   -1.9086   -0.4441 H   0  0  0  0  0  0  0  0  0  0  0  0
   -8.4546   -1.3430    1.1618 H   0  0  0  0  0  0  0  0  0  0  0  0
   -9.1228    0.9503   -1.2086 H   0  0  0  0  0  0  0  0  0  0  0  0
   -5.8693    1.1293   -3.8686 H   0  0  0  0  0  0  0  0  0  0  0  0
   -2.8190   -2.7206   -0.2414 H   0  0  0  0  0  0  0  0  0  0  0  0
   -0.5513   -3.0711    0.6059 H   0  0  0  0  0  0  0  0  0  0  0  0
    4.2705    1.6281   -0.2921 H   0  0  0  0  0  0  0  0  0  0  0  0
    6.4861    1.6688    0.3896 H   0  0  0  0  0  0  0  0  0  0  0  0
    8.2539   -0.9386    2.3656 H   0  0  0  0  0  0  0  0  0  0  0  0
    8.4167    2.6793    2.1900 H   0  0  0  0  0  0  0  0  0  0  0  0
    9.8140    2.9869    1.1221 H   0  0  0  0  0  0  0  0  0  0  0  0
    8.2247    2.9434    0.3434 H   0  0  0  0  0  0  0  0  0  0  0  0
    6.2037   -2.2556    2.0047 H   0  0  0  0  0  0  0  0  0  0  0  0
    3.8744   -2.3491    1.2923 H   0  0  0  0  0  0  0  0  0  0  0  0
    2.7912    1.5444   -0.9922 H   0  0  0  0  0  0  0  0  0  0  0  0
   -1.5699    1.0484   -1.9510 H   0  0  0  0  0  0  0  0  0  0  0  0
  1  2  1  0
  2  3  1  0
  2  4  1  0
  4  5  1  0
  5  6  2  0
  6  7  1  0
  7  8  2  0
  8  9  1  0
  9 10  3  0
 10 11  1  0
 11 12  2  0
 12 13  1  0
 13 14  2  0
 14 15  1  0
 15 16  2  0
 15 17  1  0
 17 18  1  0
 18 19  2  0
 19 20  1  0
 20 21  2  0
 21 22  1  0
 22 23  1  0
 23 24  1  0
 23 25  2  0
 23 26  2  0
 21 27  1  0
 27 28  2  0
 17 29  2  0
 29 30  1  0
 30 31  1  0
 31 32  2  0
  8  4  1  0
 32 11  1  0
 31 14  1  0
 28 18  1  0
  1 33  1  0
  1 34  1  0
  1 35  1  0
  2 36  1  0
  3 37  1  0
  3 38  1  0
  3 39  1  0
  5 40  1  0
  7 41  1  0
 12 42  1  0
 13 43  1  0
 19 44  1  0
 20 45  1  0
 22 46  1  0
 24 47  1  0
 24 48  1  0
 24 49  1  0
 27 50  1  0
 28 51  1  0
 29 52  1  0
 32 53  1  0
M  END
$$$$
