
     RDKit          3D

 30 32  0  0  0  0  0  0  0  0999 V2000
    0.9756    3.1577    0.3102 N   0  0  0  0  0  0  0  0  0  0  0  0
    0.0271    2.1406    0.2014 C   0  0  0  0  0  0  0  0  0  0  0  0
   -0.8000    3.0658    0.3991 O   0  0  0  0  0  0  0  0  0  0  0  0
   -0.0340    0.7417   -0.0178 N   0  0  0  0  0  0  0  0  0  0  0  0
   -1.3589    0.1794   -0.0373 C   0  0  0  0  0  0  0  0  0  0  0  0
   -2.2695    1.0271   -0.6197 C   0  0  0  0  0  0  0  0  0  0  0  0
   -3.5780    0.6184   -0.6914 C   0  0  0  0  0  0  0  0  0  0  0  0
   -3.9142   -0.6300   -0.1730 C   0  0  0  0  0  0  0  0  0  0  0  0
   -2.9902   -1.4885    0.4161 C   0  0  0  0  0  0  0  0  0  0  0  0
   -1.6679   -1.0810    0.4915 C   0  0  0  0  0  0  0  0  0  0  0  0
   -0.8195   -2.1086    1.1341 C   0  0  0  0  0  0  0  0  0  0  0  0
    0.5162   -2.1838    1.0677 C   0  0  0  0  0  0  0  0  0  0  0  0
    1.3979   -1.2500    0.3367 C   0  0  0  0  0  0  0  0  0  0  0  0
    2.6534   -1.8006    0.1290 C   0  0  0  0  0  0  0  0  0  0  0  0
    3.6036   -1.0523   -0.5500 C   0  0  0  0  0  0  0  0  0  0  0  0
    3.3627    0.2342   -1.0395 C   0  0  0  0  0  0  0  0  0  0  0  0
    2.1186    0.7828   -0.8354 C   0  0  0  0  0  0  0  0  0  0  0  0
    1.1922    0.0409   -0.1669 C   0  0  0  0  0  0  0  0  0  0  0  0
    1.5366    3.4559    1.1356 H   0  0  0  0  0  0  0  0  0  0  0  0
    1.4476    3.8973   -0.2511 H   0  0  0  0  0  0  0  0  0  0  0  0
   -1.9259    1.9554   -1.0040 H   0  0  0  0  0  0  0  0  0  0  0  0
   -4.3105    1.2615   -1.1409 H   0  0  0  0  0  0  0  0  0  0  0  0
   -4.9488   -0.9235   -0.2434 H   0  0  0  0  0  0  0  0  0  0  0  0
   -3.2782   -2.4526    0.8105 H   0  0  0  0  0  0  0  0  0  0  0  0
   -1.3311   -2.8653    1.7084 H   0  0  0  0  0  0  0  0  0  0  0  0
    0.9941   -2.9960    1.5927 H   0  0  0  0  0  0  0  0  0  0  0  0
    2.8705   -2.7940    0.4954 H   0  0  0  0  0  0  0  0  0  0  0  0
    4.5853   -1.4892   -0.7092 H   0  0  0  0  0  0  0  0  0  0  0  0
    4.1182    0.7988   -1.5658 H   0  0  0  0  0  0  0  0  0  0  0  0
    1.8271    1.7578   -1.1826 H   0  0  0  0  0  0  0  0  0  0  0  0
  1  2  1  0
  2  3  2  0
  2  4  1  0
  4  5  1  0
  5  6  2  0
  6  7  1  0
  7  8  2  0
  8  9  1  0
  9 10  2  0
 10 11  1  0
 11 12  2  0
 12 13  1  0
 13 14  2  0
 14 15  1  0
 15 16  2  0
 16 17  1  0
 17 18  2  0
 18  4  1  0
 10  5  1  0
 18 13  1  0
  1 19  1  0
  1 20  1  0
  6 21  1  0
  7 22  1  0
  8 23  1  0
  9 24  1  0
 11 25  1  0
 12 26  1  0
 14 27  1  0
 15 28  1  0
 16 29  1  0
 17 30  1  0
M  END
$$$$
