
     RDKit          3D

 26 27  0  0  0  0  0  0  0  0999 V2000
   -1.8273   -0.6695    1.4426 C   0  0  0  0  0  0  0  0  0  0  0  0
   -0.8099   -0.5096    0.3794 C   0  0  0  0  0  0  0  0  0  0  0  0
   -1.3133   -0.9680   -0.9716 C   0  0  0  0  0  0  0  0  0  0  0  0
   -0.1570    0.8345    0.3224 C   0  0  2  0  0  0  0  0  0  0  0  0
   -1.0073    1.8375   -0.3844 C   0  0  0  0  0  0  0  0  0  0  0  0
   -0.5357    2.4393   -1.3730 O   0  0  0  0  0  0  0  0  0  0  0  0
   -2.2972    2.1239    0.0161 O   0  0  0  0  0  0  0  0  0  0  0  0
    1.1067    0.7415   -0.2937 N   0  0  0  0  0  0  0  0  0  0  0  0
    2.3167    1.1445   -0.8756 C   0  0  0  0  0  0  0  0  0  0  0  0
    2.7643    2.0608   -1.5914 O   0  0  0  0  0  0  0  0  0  0  0  0
    2.9234   -0.0882   -0.2310 C   0  0  0  0  0  0  0  0  0  0  0  0
    1.5893   -0.6202   -0.5331 C   0  0  1  0  0  0  0  0  0  0  0  0
    0.6777   -1.4810    0.7176 S   0  0  0  0  0  6  0  0  0  0  0  0
    1.1546   -1.1827    2.0842 O   0  0  0  0  0  0  0  0  0  0  0  0
    0.4718   -2.9100    0.4223 O   0  0  0  0  0  0  0  0  0  0  0  0
   -2.4737   -1.5529    1.1685 H   0  0  0  0  0  0  0  0  0  0  0  0
   -2.5162    0.2045    1.4100 H   0  0  0  0  0  0  0  0  0  0  0  0
   -1.4158   -0.8658    2.4406 H   0  0  0  0  0  0  0  0  0  0  0  0
   -1.3859   -2.0816   -0.9276 H   0  0  0  0  0  0  0  0  0  0  0  0
   -0.5759   -0.7296   -1.7558 H   0  0  0  0  0  0  0  0  0  0  0  0
   -2.3012   -0.5009   -1.1920 H   0  0  0  0  0  0  0  0  0  0  0  0
   -0.0936    1.1637    1.4111 H   0  0  0  0  0  0  0  0  0  0  0  0
   -2.6597    3.0862   -0.0368 H   0  0  0  0  0  0  0  0  0  0  0  0
    3.6980   -0.5087   -0.9192 H   0  0  0  0  0  0  0  0  0  0  0  0
    3.2275    0.0455    0.8018 H   0  0  0  0  0  0  0  0  0  0  0  0
    1.4400   -1.0132   -1.5314 H   0  0  0  0  0  0  0  0  0  0  0  0
  1  2  1  0
  2  3  1  0
  2  4  1  0
  4  5  1  0
  5  6  2  0
  5  7  1  0
  4  8  1  0
  8  9  1  0
  9 10  2  0
  9 11  1  0
 11 12  1  0
 12 13  1  0
 13 14  2  0
 13 15  2  0
 13  2  1  0
 12  8  1  0
  1 16  1  0
  1 17  1  0
  1 18  1  0
  3 19  1  0
  3 20  1  0
  3 21  1  0
  4 22  1  1
  7 23  1  0
 11 24  1  0
 11 25  1  0
 12 26  1  6
M  END
$$$$
