
     RDKit          3D

 60 64  0  0  0  0  0  0  0  0999 V2000
   -3.4165    1.8238    1.6832 C   0  0  0  0  0  0  0  0  0  0  0  0
   -3.6887    1.1200    0.3758 C   0  0  0  0  0  0  0  0  0  0  0  0
   -3.2218    1.8161   -0.7843 N   0  0  0  0  0  0  0  0  0  0  0  0
   -4.0849    2.8090   -1.4591 C   0  0  0  0  0  0  0  0  0  0  0  0
   -3.7893    4.1282   -0.8091 C   0  0  0  0  0  0  0  0  0  0  0  0
   -1.9313    1.5687   -1.3061 C   0  0  0  0  0  0  0  0  0  0  0  0
   -1.6419    2.2909   -2.3456 O   0  0  0  0  0  0  0  0  0  0  0  0
   -0.9414    0.6281   -0.8197 C   0  0  2  0  0  0  0  0  0  0  0  0
   -1.3598   -0.7935   -0.7752 C   0  0  0  0  0  0  0  0  0  0  0  0
   -0.6861   -1.6205   -0.0364 C   0  0  0  0  0  0  0  0  0  0  0  0
   -1.1076   -3.0361    0.0052 C   0  0  0  0  0  0  0  0  0  0  0  0
   -2.3866   -3.4389   -0.3078 C   0  0  0  0  0  0  0  0  0  0  0  0
   -2.7024   -4.7768   -0.2312 C   0  0  0  0  0  0  0  0  0  0  0  0
   -1.7261   -5.7009    0.1609 C   0  0  0  0  0  0  0  0  0  0  0  0
   -0.4291   -5.2902    0.4779 C   0  0  0  0  0  0  0  0  0  0  0  0
    0.7105   -5.8805    0.8735 N   0  0  0  0  0  0  0  0  0  0  0  0
    1.6765   -4.9258    1.0272 C   0  0  0  0  0  0  0  0  0  0  0  0
    1.1156   -3.6826    0.7136 C   0  0  0  0  0  0  0  0  0  0  0  0
   -0.1724   -3.9647    0.3857 C   0  0  0  0  0  0  0  0  0  0  0  0
    1.6162   -2.2893    0.6679 C   0  0  0  0  0  0  0  0  0  0  0  0
    0.5008   -1.3032    0.8061 C   0  0  1  0  0  0  0  0  0  0  0  0
    0.9061    0.0768    0.5343 N   0  0  0  0  0  0  0  0  0  0  0  0
    2.2249    0.5178    0.3475 C   0  0  0  0  0  0  0  0  0  0  0  0
    3.1936   -0.3117    0.4242 O   0  0  0  0  0  0  0  0  0  0  0  0
    2.4884    1.8843    0.0723 N   0  0  0  0  0  0  0  0  0  0  0  0
    3.8752    2.2321   -0.1015 C   0  0  0  0  0  0  0  0  0  0  0  0
    4.3852    2.1610   -1.3731 C   0  0  0  0  0  0  0  0  0  0  0  0
    5.7174    2.4946   -1.5435 C   0  0  0  0  0  0  0  0  0  0  0  0
    6.4814    2.8807   -0.4587 C   0  0  0  0  0  0  0  0  0  0  0  0
    5.9284    2.9373    0.7954 C   0  0  0  0  0  0  0  0  0  0  0  0
    4.6001    2.6111    1.0038 C   0  0  0  0  0  0  0  0  0  0  0  0
   -0.2476    0.9961    0.4773 C   0  0  0  0  0  0  0  0  0  0  0  0
   -3.0426    1.1200    2.4551 H   0  0  0  0  0  0  0  0  0  0  0  0
   -4.2899    2.3275    2.0995 H   0  0  0  0  0  0  0  0  0  0  0  0
   -2.6053    2.5901    1.5675 H   0  0  0  0  0  0  0  0  0  0  0  0
   -4.8041    1.0783    0.2864 H   0  0  0  0  0  0  0  0  0  0  0  0
   -3.2462    0.1105    0.4493 H   0  0  0  0  0  0  0  0  0  0  0  0
   -3.7772    2.8157   -2.5275 H   0  0  0  0  0  0  0  0  0  0  0  0
   -5.1365    2.5128   -1.4205 H   0  0  0  0  0  0  0  0  0  0  0  0
   -2.7735    4.1734   -0.3651 H   0  0  0  0  0  0  0  0  0  0  0  0
   -4.4929    4.3705    0.0160 H   0  0  0  0  0  0  0  0  0  0  0  0
   -3.8653    4.9682   -1.5403 H   0  0  0  0  0  0  0  0  0  0  0  0
   -0.0786    0.6181   -1.5741 H   0  0  0  0  0  0  0  0  0  0  0  0
   -2.1972   -1.1112   -1.3455 H   0  0  0  0  0  0  0  0  0  0  0  0
   -3.1237   -2.7228   -0.6052 H   0  0  0  0  0  0  0  0  0  0  0  0
   -3.6846   -5.1486   -0.4638 H   0  0  0  0  0  0  0  0  0  0  0  0
   -1.9394   -6.7594    0.2322 H   0  0  0  0  0  0  0  0  0  0  0  0
    0.8219   -6.8929    1.0313 H   0  0  0  0  0  0  0  0  0  0  0  0
    2.7019   -5.0862    1.3370 H   0  0  0  0  0  0  0  0  0  0  0  0
    2.0803   -2.1395   -0.3456 H   0  0  0  0  0  0  0  0  0  0  0  0
    2.3465   -2.1022    1.4872 H   0  0  0  0  0  0  0  0  0  0  0  0
    0.1544   -1.3588    1.8875 H   0  0  0  0  0  0  0  0  0  0  0  0
    1.7890    2.6105   -0.0106 H   0  0  0  0  0  0  0  0  0  0  0  0
    3.7613    1.8574   -2.1878 H   0  0  0  0  0  0  0  0  0  0  0  0
    6.1258    2.4414   -2.5387 H   0  0  0  0  0  0  0  0  0  0  0  0
    7.5237    3.1396   -0.6042 H   0  0  0  0  0  0  0  0  0  0  0  0
    6.4981    3.2369    1.6751 H   0  0  0  0  0  0  0  0  0  0  0  0
    4.1709    2.6597    2.0059 H   0  0  0  0  0  0  0  0  0  0  0  0
   -0.8440    0.7009    1.3853 H   0  0  0  0  0  0  0  0  0  0  0  0
    0.0411    2.0281    0.4734 H   0  0  0  0  0  0  0  0  0  0  0  0
  1  2  1  0
  2  3  1  0
  3  4  1  0
  4  5  1  0
  3  6  1  0
  6  7  2  0
  6  8  1  0
  8  9  1  0
  9 10  2  0
 10 11  1  0
 11 12  2  0
 12 13  1  0
 13 14  2  0
 14 15  1  0
 15 16  1  0
 16 17  1  0
 17 18  2  0
 18 19  1  0
 18 20  1  0
 20 21  1  0
 21 22  1  0
 22 23  1  0
 23 24  2  0
 23 25  1  0
 25 26  1  0
 26 27  2  0
 27 28  1  0
 28 29  2  0
 29 30  1  0
 30 31  2  0
 22 32  1  0
 32  8  1  0
 21 10  1  0
 31 26  1  0
 19 11  1  0
 19 15  2  0
  1 33  1  0
  1 34  1  0
  1 35  1  0
  2 36  1  0
  2 37  1  0
  4 38  1  0
  4 39  1  0
  5 40  1  0
  5 41  1  0
  5 42  1  0
  8 43  1  6
  9 44  1  0
 12 45  1  0
 13 46  1  0
 14 47  1  0
 16 48  1  0
 17 49  1  0
 20 50  1  0
 20 51  1  0
 21 52  1  1
 25 53  1  0
 27 54  1  0
 28 55  1  0
 29 56  1  0
 30 57  1  0
 31 58  1  0
 32 59  1  0
 32 60  1  0
M  END
$$$$
