
     RDKit          3D

 53 55  0  0  0  0  0  0  0  0999 V2000
    0.1347    3.5951   -0.6144 C   0  0  0  0  0  0  0  0  0  0  0  0
   -1.0853    3.2657   -0.4204 C   0  0  0  0  0  0  0  0  0  0  0  0
   -1.9798    4.5073   -0.1406 C   0  0  0  0  0  0  0  0  0  0  0  0
   -1.7823    2.0324   -0.3184 C   0  0  0  0  0  0  0  0  0  0  0  0
   -3.1775    2.0660   -0.5093 C   0  0  0  0  0  0  0  0  0  0  0  0
   -3.9573    1.0031   -0.4107 N   0  0  0  0  0  0  0  0  0  0  0  0
   -3.4294   -0.2213   -0.1102 C   0  0  0  0  0  0  0  0  0  0  0  0
   -4.3331   -1.3653   -0.0217 C   0  0  0  0  0  0  0  0  0  0  0  0
   -5.6850   -1.1578   -0.3285 C   0  0  0  0  0  0  0  0  0  0  0  0
   -6.6295   -2.1509   -0.2737 C   0  0  0  0  0  0  0  0  0  0  0  0
   -8.3074   -1.8550   -0.6638 Cl  0  0  0  0  0  0  0  0  0  0  0  0
   -6.1983   -3.3984    0.1035 C   0  0  0  0  0  0  0  0  0  0  0  0
   -4.9078   -3.6736    0.4148 C   0  0  0  0  0  0  0  0  0  0  0  0
   -3.9846   -2.6143    0.3404 C   0  0  0  0  0  0  0  0  0  0  0  0
   -2.7132   -2.9277    0.6668 F   0  0  0  0  0  0  0  0  0  0  0  0
   -2.0824   -0.3270    0.0875 C   0  0  0  0  0  0  0  0  0  0  0  0
   -1.2505    0.8170   -0.0142 C   0  0  0  0  0  0  0  0  0  0  0  0
    0.0792    0.6527    0.3718 N   0  0  0  0  0  0  0  0  0  0  0  0
    0.6452   -0.3992    1.1774 C   0  0  0  0  0  0  0  0  0  0  0  0
   -0.1559   -1.0816    2.0900 C   0  0  0  0  0  0  0  0  0  0  0  0
    0.4010   -2.1250    2.7930 C   0  0  0  0  0  0  0  0  0  0  0  0
    1.6803   -2.4818    2.6134 N   0  0  0  0  0  0  0  0  0  0  0  0
    2.4513   -1.8182    1.7310 C   0  0  0  0  0  0  0  0  0  0  0  0
    1.9633   -0.7457    0.9730 C   0  0  0  0  0  0  0  0  0  0  0  0
    2.8641   -0.1404    0.0090 C   0  0  0  0  0  0  0  0  0  0  0  0
    2.4607    0.7007   -0.8259 O   0  0  0  0  0  0  0  0  0  0  0  0
    4.2589   -0.4316   -0.0825 N   0  0  0  0  0  0  0  0  0  0  0  0
    5.0962    0.2324   -1.0960 C   0  0  2  0  0  0  0  0  0  0  0  0
    5.6959   -0.8009   -2.0172 C   0  0  0  0  0  0  0  0  0  0  0  0
    6.1908    1.0279   -0.4099 C   0  0  0  0  0  0  0  0  0  0  0  0
    7.0055    0.2047    0.3658 O   0  0  0  0  0  0  0  0  0  0  0  0
    0.3969    4.6793   -0.5562 H   0  0  0  0  0  0  0  0  0  0  0  0
    0.9587    3.0037   -0.8740 H   0  0  0  0  0  0  0  0  0  0  0  0
   -2.5573    4.7332   -1.0477 H   0  0  0  0  0  0  0  0  0  0  0  0
   -1.3722    5.3347    0.2335 H   0  0  0  0  0  0  0  0  0  0  0  0
   -2.6891    4.2037    0.6519 H   0  0  0  0  0  0  0  0  0  0  0  0
   -3.6426    3.0355   -0.7621 H   0  0  0  0  0  0  0  0  0  0  0  0
   -5.9964   -0.1609   -0.6239 H   0  0  0  0  0  0  0  0  0  0  0  0
   -6.9252   -4.1940    0.1530 H   0  0  0  0  0  0  0  0  0  0  0  0
   -4.5976   -4.6566    0.7063 H   0  0  0  0  0  0  0  0  0  0  0  0
   -1.5813   -1.2624    0.2504 H   0  0  0  0  0  0  0  0  0  0  0  0
    0.7580    1.3611    0.1039 H   0  0  0  0  0  0  0  0  0  0  0  0
   -1.1977   -0.7760    2.2966 H   0  0  0  0  0  0  0  0  0  0  0  0
   -0.2508   -2.6371    3.4950 H   0  0  0  0  0  0  0  0  0  0  0  0
    3.4713   -2.1470    1.6232 H   0  0  0  0  0  0  0  0  0  0  0  0
    4.6727   -1.1093    0.5727 H   0  0  0  0  0  0  0  0  0  0  0  0
    4.4840    0.9151   -1.6899 H   0  0  0  0  0  0  0  0  0  0  0  0
    6.6740   -0.5129   -2.4177 H   0  0  0  0  0  0  0  0  0  0  0  0
    4.9623   -0.9636   -2.8445 H   0  0  0  0  0  0  0  0  0  0  0  0
    5.7707   -1.7944   -1.4881 H   0  0  0  0  0  0  0  0  0  0  0  0
    6.8386    1.4674   -1.1945 H   0  0  0  0  0  0  0  0  0  0  0  0
    5.7678    1.8424    0.1816 H   0  0  0  0  0  0  0  0  0  0  0  0
    6.7873   -0.7510    0.2489 H   0  0  0  0  0  0  0  0  0  0  0  0
  1  2  2  3
  2  3  1  0
  2  4  1  0
  4  5  2  0
  5  6  1  0
  6  7  2  0
  7  8  1  0
  8  9  2  0
  9 10  1  0
 10 11  1  0
 10 12  2  0
 12 13  1  0
 13 14  2  0
 14 15  1  0
  7 16  1  0
 16 17  2  0
 17 18  1  0
 18 19  1  0
 19 20  2  0
 20 21  1  0
 21 22  2  0
 22 23  1  0
 23 24  2  0
 24 25  1  0
 25 26  2  0
 25 27  1  0
 27 28  1  0
 28 29  1  0
 28 30  1  0
 30 31  1  0
 17  4  1  0
 24 19  1  0
 14  8  1  0
  1 32  1  0
  1 33  1  0
  3 34  1  0
  3 35  1  0
  3 36  1  0
  5 37  1  0
  9 38  1  0
 12 39  1  0
 13 40  1  0
 16 41  1  0
 18 42  1  0
 20 43  1  0
 21 44  1  0
 23 45  1  0
 27 46  1  0
 28 47  1  6
 29 48  1  0
 29 49  1  0
 29 50  1  0
 30 51  1  0
 30 52  1  0
 31 53  1  0
M  END
$$$$
