
     RDKit          3D

 63 66  0  0  0  0  0  0  0  0999 V2000
   -9.6380   -1.6021   -0.5417 C   0  0  0  0  0  0  0  0  0  0  0  0
   -8.5049   -1.2177   -1.2902 O   0  0  0  0  0  0  0  0  0  0  0  0
   -7.4981   -0.4541   -0.7180 C   0  0  0  0  0  0  0  0  0  0  0  0
   -7.5201   -0.0200    0.5896 C   0  0  0  0  0  0  0  0  0  0  0  0
   -6.5061    0.7359    1.1280 C   0  0  0  0  0  0  0  0  0  0  0  0
   -5.3940    1.1062    0.3752 C   0  0  0  0  0  0  0  0  0  0  0  0
   -4.3449    1.9126    0.9967 C   0  0  0  0  0  0  0  0  0  0  0  0
   -4.5121    2.2602    2.1978 O   0  0  0  0  0  0  0  0  0  0  0  0
   -3.1617    2.3242    0.3389 N   0  0  0  0  0  0  0  0  0  0  0  0
   -2.1075    3.1165    0.9191 C   0  0  0  0  0  0  0  0  0  0  0  0
   -1.2144    2.3673    1.8301 C   0  0  0  0  0  0  0  0  0  0  0  0
   -1.4729    2.3563    3.1797 C   0  0  0  0  0  0  0  0  0  0  0  0
   -0.6057    1.6282    3.9935 C   0  0  0  0  0  0  0  0  0  0  0  0
    0.4618    0.9550    3.4402 C   0  0  0  0  0  0  0  0  0  0  0  0
    0.7287    0.9616    2.0826 C   0  0  0  0  0  0  0  0  0  0  0  0
    1.8658    0.2426    1.5226 C   0  0  0  0  0  0  0  0  0  0  0  0
    2.6080   -0.3814    2.3301 O   0  0  0  0  0  0  0  0  0  0  0  0
    2.2073    0.1837    0.1652 N   0  0  0  0  0  0  0  0  0  0  0  0
    3.3419   -0.5407   -0.3260 C   0  0  0  0  0  0  0  0  0  0  0  0
    3.2231   -1.8665   -0.6903 C   0  0  0  0  0  0  0  0  0  0  0  0
    4.2860   -2.6038   -1.1685 C   0  0  0  0  0  0  0  0  0  0  0  0
    5.5033   -2.0028   -1.2873 C   0  0  0  0  0  0  0  0  0  0  0  0
    5.6519   -0.6807   -0.9315 C   0  0  0  0  0  0  0  0  0  0  0  0
    4.5740    0.0686   -0.4460 C   0  0  0  0  0  0  0  0  0  0  0  0
    6.9954   -0.0827   -1.0859 C   0  0  0  0  0  0  0  0  0  0  0  0
    8.0320   -0.9543   -0.6470 N   0  0  0  0  0  0  0  0  0  0  0  0
    9.3040   -0.5514   -1.2383 C   0  0  0  0  0  0  0  0  0  0  0  0
    7.8383   -2.3454   -0.8462 C   0  0  0  0  0  0  0  0  0  0  0  0
    6.7205   -2.6980   -1.7883 C   0  0  0  0  0  0  0  0  0  0  0  0
   -0.1267    1.6796    1.2798 C   0  0  0  0  0  0  0  0  0  0  0  0
   -5.3686    0.6745   -0.9310 C   0  0  0  0  0  0  0  0  0  0  0  0
   -6.3990   -0.0880   -1.4616 C   0  0  0  0  0  0  0  0  0  0  0  0
   -6.3232   -0.4957   -2.7807 O   0  0  0  0  0  0  0  0  0  0  0  0
   -5.2174   -0.1481   -3.5880 C   0  0  0  0  0  0  0  0  0  0  0  0
  -10.2648   -0.7101   -0.4072 H   0  0  0  0  0  0  0  0  0  0  0  0
  -10.1932   -2.4367   -1.0314 H   0  0  0  0  0  0  0  0  0  0  0  0
   -9.3354   -1.9638    0.4688 H   0  0  0  0  0  0  0  0  0  0  0  0
   -8.3885   -0.3081    1.1794 H   0  0  0  0  0  0  0  0  0  0  0  0
   -6.5694    1.0501    2.1538 H   0  0  0  0  0  0  0  0  0  0  0  0
   -3.0784    1.9997   -0.6746 H   0  0  0  0  0  0  0  0  0  0  0  0
   -2.5033    3.9989    1.4940 H   0  0  0  0  0  0  0  0  0  0  0  0
   -1.5289    3.5765    0.0770 H   0  0  0  0  0  0  0  0  0  0  0  0
   -2.3014    2.8831    3.6289 H   0  0  0  0  0  0  0  0  0  0  0  0
   -0.8122    1.6216    5.0556 H   0  0  0  0  0  0  0  0  0  0  0  0
    1.1429    0.3856    4.0618 H   0  0  0  0  0  0  0  0  0  0  0  0
    1.6145    0.6867   -0.5281 H   0  0  0  0  0  0  0  0  0  0  0  0
    2.2486   -2.3081   -0.5836 H   0  0  0  0  0  0  0  0  0  0  0  0
    4.1581   -3.6398   -1.4448 H   0  0  0  0  0  0  0  0  0  0  0  0
    4.7286    1.1001   -0.1775 H   0  0  0  0  0  0  0  0  0  0  0  0
    7.0714    0.9055   -0.5812 H   0  0  0  0  0  0  0  0  0  0  0  0
    7.1623    0.1259   -2.1806 H   0  0  0  0  0  0  0  0  0  0  0  0
   10.1322   -0.8589   -0.5677 H   0  0  0  0  0  0  0  0  0  0  0  0
    9.3488   -1.0572   -2.2366 H   0  0  0  0  0  0  0  0  0  0  0  0
    9.3016    0.5517   -1.3858 H   0  0  0  0  0  0  0  0  0  0  0  0
    8.7664   -2.8302   -1.2376 H   0  0  0  0  0  0  0  0  0  0  0  0
    7.6730   -2.8210    0.1587 H   0  0  0  0  0  0  0  0  0  0  0  0
    6.9989   -2.4265   -2.8071 H   0  0  0  0  0  0  0  0  0  0  0  0
    6.5517   -3.8032   -1.6963 H   0  0  0  0  0  0  0  0  0  0  0  0
    0.0402    1.7170    0.1977 H   0  0  0  0  0  0  0  0  0  0  0  0
   -4.5095    0.9473   -1.5526 H   0  0  0  0  0  0  0  0  0  0  0  0
   -5.2038    0.9569   -3.6579 H   0  0  0  0  0  0  0  0  0  0  0  0
   -4.2799   -0.5710   -3.1663 H   0  0  0  0  0  0  0  0  0  0  0  0
   -5.3973   -0.6121   -4.5926 H   0  0  0  0  0  0  0  0  0  0  0  0
  1  2  1  0
  2  3  1  0
  3  4  2  0
  4  5  1  0
  5  6  2  0
  6  7  1  0
  7  8  2  0
  7  9  1  0
  9 10  1  0
 10 11  1  0
 11 12  2  0
 12 13  1  0
 13 14  2  0
 14 15  1  0
 15 16  1  0
 16 17  2  0
 16 18  1  0
 18 19  1  0
 19 20  2  0
 20 21  1  0
 21 22  2  0
 22 23  1  0
 23 24  2  0
 23 25  1  0
 25 26  1  0
 26 27  1  0
 26 28  1  0
 28 29  1  0
 15 30  2  0
  6 31  1  0
 31 32  2  0
 32 33  1  0
 33 34  1  0
 32  3  1  0
 30 11  1  0
 24 19  1  0
 29 22  1  0
  1 35  1  0
  1 36  1  0
  1 37  1  0
  4 38  1  0
  5 39  1  0
  9 40  1  0
 10 41  1  0
 10 42  1  0
 12 43  1  0
 13 44  1  0
 14 45  1  0
 18 46  1  0
 20 47  1  0
 21 48  1  0
 24 49  1  0
 25 50  1  0
 25 51  1  0
 27 52  1  0
 27 53  1  0
 27 54  1  0
 28 55  1  0
 28 56  1  0
 29 57  1  0
 29 58  1  0
 30 59  1  0
 31 60  1  0
 34 61  1  0
 34 62  1  0
 34 63  1  0
M  END
$$$$
