
     RDKit          3D

 56 60  0  0  0  0  0  0  0  0999 V2000
    8.1474    1.9224    2.0275 O   0  0  0  0  0  0  0  0  0  0  0  0
    7.4187    1.7783    1.0208 C   0  0  0  0  0  0  0  0  0  0  0  0
    7.5735    2.6533   -0.0364 O   0  0  0  0  0  0  0  0  0  0  0  0
    6.3990    0.7114    0.9145 C   0  0  0  0  0  0  0  0  0  0  0  0
    6.6674   -0.2183   -0.2758 C   0  0  0  0  0  0  0  0  0  0  0  0
    5.6577   -1.3371   -0.1444 C   0  0  0  0  0  0  0  0  0  0  0  0
    4.2420   -0.7945   -0.1026 C   0  0  0  0  0  0  0  0  0  0  0  0
    3.4943   -1.3606   -1.2789 C   0  0  0  0  0  0  0  0  0  0  0  0
    2.0403   -1.5210   -1.0705 C   0  0  0  0  0  0  0  0  0  0  0  0
    1.4757   -0.8568    0.0522 N   0  0  0  0  0  0  0  0  0  0  0  0
    0.0519   -0.5995    0.0901 C   0  0  0  0  0  0  0  0  0  0  0  0
   -0.5548    0.1230    1.0648 C   0  0  0  0  0  0  0  0  0  0  0  0
   -1.9300    0.3153    1.0320 C   0  0  0  0  0  0  0  0  0  0  0  0
   -2.6891   -0.2143    0.0277 C   0  0  0  0  0  0  0  0  0  0  0  0
   -4.1368   -0.0238   -0.0196 C   0  0  0  0  0  0  0  0  0  0  0  0
   -4.9043    0.6632    0.8643 N   0  0  0  0  0  0  0  0  0  0  0  0
   -6.2083    0.6043    0.4703 C   0  0  0  0  0  0  0  0  0  0  0  0
   -7.3908    1.1126    0.9831 C   0  0  0  0  0  0  0  0  0  0  0  0
   -8.6144    0.9061    0.3812 C   0  0  0  0  0  0  0  0  0  0  0  0
   -9.8865    1.4507    0.9301 C   0  0  0  0  0  0  0  0  0  0  0  0
  -10.7895    1.7849   -0.0460 F   0  0  0  0  0  0  0  0  0  0  0  0
   -9.6288    2.5744    1.7002 F   0  0  0  0  0  0  0  0  0  0  0  0
  -10.4350    0.5171    1.8203 F   0  0  0  0  0  0  0  0  0  0  0  0
   -8.6424    0.1503   -0.7943 C   0  0  0  0  0  0  0  0  0  0  0  0
   -7.4650   -0.3473   -1.2921 C   0  0  0  0  0  0  0  0  0  0  0  0
   -6.2323   -0.1370   -0.6821 C   0  0  0  0  0  0  0  0  0  0  0  0
   -4.9705   -0.5072   -0.9614 N   0  0  0  0  0  0  0  0  0  0  0  0
   -2.0285   -0.9406   -0.9405 C   0  0  0  0  0  0  0  0  0  0  0  0
   -0.6991   -1.1252   -0.9066 N   0  0  0  0  0  0  0  0  0  0  0  0
    2.2351   -0.4080    1.1939 C   0  0  0  0  0  0  0  0  0  0  0  0
    3.5370   -1.1756    1.1836 C   0  0  0  0  0  0  0  0  0  0  0  0
    4.2495    0.5780   -0.2007 O   0  0  0  0  0  0  0  0  0  0  0  0
    5.0086    1.2434    0.7245 C   0  0  0  0  0  0  0  0  0  0  0  0
    8.4699    3.1410   -0.1166 H   0  0  0  0  0  0  0  0  0  0  0  0
    6.5102    0.0695    1.8111 H   0  0  0  0  0  0  0  0  0  0  0  0
    6.5786    0.3574   -1.1965 H   0  0  0  0  0  0  0  0  0  0  0  0
    7.6786   -0.6417   -0.1461 H   0  0  0  0  0  0  0  0  0  0  0  0
    5.8143   -2.0084   -1.0198 H   0  0  0  0  0  0  0  0  0  0  0  0
    5.9213   -1.9155    0.7644 H   0  0  0  0  0  0  0  0  0  0  0  0
    3.9743   -2.3429   -1.5463 H   0  0  0  0  0  0  0  0  0  0  0  0
    3.6857   -0.6940   -2.1438 H   0  0  0  0  0  0  0  0  0  0  0  0
    1.7949   -2.6115   -1.0083 H   0  0  0  0  0  0  0  0  0  0  0  0
    1.4670   -1.1590   -1.9762 H   0  0  0  0  0  0  0  0  0  0  0  0
    0.0490    0.5514    1.8687 H   0  0  0  0  0  0  0  0  0  0  0  0
   -2.3999    0.8870    1.8052 H   0  0  0  0  0  0  0  0  0  0  0  0
   -7.3693    1.6927    1.8845 H   0  0  0  0  0  0  0  0  0  0  0  0
   -9.5951   -0.0209   -1.2793 H   0  0  0  0  0  0  0  0  0  0  0  0
   -7.4482   -0.9376   -2.2009 H   0  0  0  0  0  0  0  0  0  0  0  0
   -4.6638   -1.0804   -1.7781 H   0  0  0  0  0  0  0  0  0  0  0  0
   -2.6406   -1.3642   -1.7456 H   0  0  0  0  0  0  0  0  0  0  0  0
    2.3630    0.6836    1.0716 H   0  0  0  0  0  0  0  0  0  0  0  0
    1.6966   -0.5495    2.1543 H   0  0  0  0  0  0  0  0  0  0  0  0
    3.2742   -2.2573    1.1115 H   0  0  0  0  0  0  0  0  0  0  0  0
    4.1622   -0.9646    2.0720 H   0  0  0  0  0  0  0  0  0  0  0  0
    5.1242    2.2970    0.3335 H   0  0  0  0  0  0  0  0  0  0  0  0
    4.5610    1.3463    1.7297 H   0  0  0  0  0  0  0  0  0  0  0  0
  1  2  2  0
  2  3  1  0
  2  4  1  0
  4  5  1  0
  5  6  1  0
  6  7  1  0
  7  8  1  0
  8  9  1  0
  9 10  1  0
 10 11  1  0
 11 12  2  0
 12 13  1  0
 13 14  2  0
 14 15  1  0
 15 16  2  0
 16 17  1  0
 17 18  2  0
 18 19  1  0
 19 20  1  0
 20 21  1  0
 20 22  1  0
 20 23  1  0
 19 24  2  0
 24 25  1  0
 25 26  2  0
 26 27  1  0
 14 28  1  0
 28 29  2  0
 10 30  1  0
 30 31  1  0
  7 32  1  0
 32 33  1  0
 33  4  1  0
 31  7  1  0
 29 11  1  0
 27 15  1  0
 26 17  1  0
  3 34  1  0
  4 35  1  0
  5 36  1  0
  5 37  1  0
  6 38  1  0
  6 39  1  0
  8 40  1  0
  8 41  1  0
  9 42  1  0
  9 43  1  0
 12 44  1  0
 13 45  1  0
 18 46  1  0
 24 47  1  0
 25 48  1  0
 27 49  1  0
 28 50  1  0
 30 51  1  0
 30 52  1  0
 31 53  1  0
 31 54  1  0
 33 55  1  0
 33 56  1  0
M  END
$$$$
