
     RDKit          3D

 45 48  0  0  0  0  0  0  0  0999 V2000
   -0.8049   -0.8074    2.7334 C   0  0  0  0  0  0  0  0  0  0  0  0
    0.4007   -0.5086    1.9180 C   0  0  0  0  0  0  0  0  0  0  0  0
    1.6590   -0.7470    2.4545 C   0  0  0  0  0  0  0  0  0  0  0  0
    2.7879   -0.4796    1.7776 N   0  0  0  0  0  0  0  0  0  0  0  0
    2.7975    0.0397    0.5272 C   0  0  0  0  0  0  0  0  0  0  0  0
    4.0454    0.3146   -0.1703 C   0  0  0  0  0  0  0  0  0  0  0  0
    4.1443    0.8381   -1.4333 C   0  0  0  0  0  0  0  0  0  0  0  0
    5.3573    1.0799   -2.0503 C   0  0  0  0  0  0  0  0  0  0  0  0
    5.4609    1.7487   -3.6630 Cl  0  0  0  0  0  0  0  0  0  0  0  0
    6.5221    0.7865   -1.3774 C   0  0  0  0  0  0  0  0  0  0  0  0
    6.4638    0.2591   -0.1061 C   0  0  0  0  0  0  0  0  0  0  0  0
    5.2402    0.0284    0.4843 C   0  0  0  0  0  0  0  0  0  0  0  0
    5.2047   -0.4955    1.7464 F   0  0  0  0  0  0  0  0  0  0  0  0
    1.5678    0.2879   -0.0349 C   0  0  0  0  0  0  0  0  0  0  0  0
    0.3751    0.0182    0.6484 C   0  0  0  0  0  0  0  0  0  0  0  0
   -0.8914    0.3124    0.0607 N   0  0  0  0  0  0  0  0  0  0  0  0
   -1.7671   -0.7557   -0.2305 C   0  0  0  0  0  0  0  0  0  0  0  0
   -1.3545   -2.0722   -0.0031 C   0  0  0  0  0  0  0  0  0  0  0  0
   -2.1889   -3.1088   -0.2279 C   0  0  0  0  0  0  0  0  0  0  0  0
   -3.4236   -2.9131   -0.6711 N   0  0  0  0  0  0  0  0  0  0  0  0
   -3.8843   -1.6792   -0.9116 C   0  0  0  0  0  0  0  0  0  0  0  0
   -5.1045   -1.1990   -1.3648 C   0  0  0  0  0  0  0  0  0  0  0  0
   -5.0214    0.1242   -1.4208 N   0  0  0  0  0  0  0  0  0  0  0  0
   -3.7899    0.5154   -1.0199 N   0  0  0  0  0  0  0  0  0  0  0  0
   -3.3649    1.8970   -1.0047 C   0  0  0  0  0  0  0  0  0  0  0  0
   -3.5786    2.4422    0.3550 C   0  0  0  0  0  0  0  0  0  0  0  0
   -4.1198    1.6257    1.3751 N   0  0  0  0  0  0  0  0  0  0  0  0
   -3.2604    3.6609    0.5696 O   0  0  0  0  0  0  0  0  0  0  0  0
   -3.0701   -0.5684   -0.6992 C   0  0  0  0  0  0  0  0  0  0  0  0
   -1.6873   -0.3258    2.2893 H   0  0  0  0  0  0  0  0  0  0  0  0
   -0.9472   -1.8981    2.8671 H   0  0  0  0  0  0  0  0  0  0  0  0
   -0.7055   -0.3569    3.7643 H   0  0  0  0  0  0  0  0  0  0  0  0
    1.6930   -1.1645    3.4585 H   0  0  0  0  0  0  0  0  0  0  0  0
    3.2425    1.0740   -1.9754 H   0  0  0  0  0  0  0  0  0  0  0  0
    7.4605    0.9769   -1.8627 H   0  0  0  0  0  0  0  0  0  0  0  0
    7.3977    0.0427    0.3880 H   0  0  0  0  0  0  0  0  0  0  0  0
    1.5117    0.7003   -1.0261 H   0  0  0  0  0  0  0  0  0  0  0  0
   -1.0976    1.2768   -0.1087 H   0  0  0  0  0  0  0  0  0  0  0  0
   -0.3256   -2.2187    0.3446 H   0  0  0  0  0  0  0  0  0  0  0  0
   -1.7962   -4.1254   -0.0258 H   0  0  0  0  0  0  0  0  0  0  0  0
   -5.9346   -1.8698   -1.6092 H   0  0  0  0  0  0  0  0  0  0  0  0
   -2.3862    2.1242   -1.3730 H   0  0  0  0  0  0  0  0  0  0  0  0
   -4.1284    2.4516   -1.6934 H   0  0  0  0  0  0  0  0  0  0  0  0
   -4.8723    2.0239    1.9897 H   0  0  0  0  0  0  0  0  0  0  0  0
   -3.8268    0.6446    1.5689 H   0  0  0  0  0  0  0  0  0  0  0  0
  1  2  1  0
  2  3  2  0
  3  4  1  0
  4  5  2  0
  5  6  1  0
  6  7  2  0
  7  8  1  0
  8  9  1  0
  8 10  2  0
 10 11  1  0
 11 12  2  0
 12 13  1  0
  5 14  1  0
 14 15  2  0
 15 16  1  0
 16 17  1  0
 17 18  2  0
 18 19  1  0
 19 20  2  0
 20 21  1  0
 21 22  1  0
 22 23  2  0
 23 24  1  0
 24 25  1  0
 25 26  1  0
 26 27  1  0
 26 28  2  0
 24 29  1  0
 15  2  1  0
 29 17  1  0
 12  6  1  0
 29 21  2  0
  1 30  1  0
  1 31  1  0
  1 32  1  0
  3 33  1  0
  7 34  1  0
 10 35  1  0
 11 36  1  0
 14 37  1  0
 16 38  1  0
 18 39  1  0
 19 40  1  0
 22 41  1  0
 25 42  1  0
 25 43  1  0
 27 44  1  0
 27 45  1  0
M  END
$$$$
