
     RDKit          3D

 32 34  0  0  0  0  0  0  0  0999 V2000
   -0.3414   -3.5523   -2.2728 O   0  0  0  0  0  1  0  0  0  0  0  0
   -1.5728   -3.1216   -1.8483 N   0  0  0  0  0  4  0  0  0  0  0  0
   -2.5430   -3.8969   -2.0733 O   0  0  0  0  0  0  0  0  0  0  0  0
   -1.7789   -1.8802   -1.1903 C   0  0  0  0  0  0  0  0  0  0  0  0
   -0.6612   -1.0982   -0.9856 C   0  0  0  0  0  0  0  0  0  0  0  0
   -0.9029    0.1198   -0.3289 C   0  0  0  0  0  0  0  0  0  0  0  0
   -2.1700    0.5438    0.0938 C   0  0  0  0  0  0  0  0  0  0  0  0
   -2.4796    1.8195    0.7073 N   0  0  0  0  0  0  0  0  0  0  0  0
   -1.7117    3.0035    0.3520 C   0  0  0  0  0  0  0  0  0  0  0  0
   -2.3035    3.9943    0.9056 O   0  0  0  0  0  0  0  0  0  0  0  0
   -0.4856    3.1327   -0.4741 C   0  0  0  0  0  0  0  0  0  0  0  0
    0.4799    2.0988   -0.2181 N   0  0  0  0  0  0  0  0  0  0  0  0
    0.3750    0.8114   -0.1395 C   0  0  0  0  0  0  0  0  0  0  0  0
    1.5721    0.0578    0.1434 C   0  0  0  0  0  0  0  0  0  0  0  0
    2.7483    0.8266    0.0997 C   0  0  0  0  0  0  0  0  0  0  0  0
    4.0104    0.3698    0.3999 C   0  0  0  0  0  0  0  0  0  0  0  0
    4.1866   -0.9361    0.7783 C   0  0  0  0  0  0  0  0  0  0  0  0
    3.0742   -1.7450    0.8432 C   0  0  0  0  0  0  0  0  0  0  0  0
    1.8450   -1.2210    0.5305 C   0  0  0  0  0  0  0  0  0  0  0  0
   -3.2627   -0.2966   -0.1444 C   0  0  0  0  0  0  0  0  0  0  0  0
   -3.0464   -1.4950   -0.7824 C   0  0  0  0  0  0  0  0  0  0  0  0
    0.3380   -1.3341   -1.3228 H   0  0  0  0  0  0  0  0  0  0  0  0
   -3.2681    1.7234    1.3602 H   0  0  0  0  0  0  0  0  0  0  0  0
   -0.0699    4.1345   -0.2936 H   0  0  0  0  0  0  0  0  0  0  0  0
   -0.7906    3.0699   -1.5271 H   0  0  0  0  0  0  0  0  0  0  0  0
    2.7544    1.8912   -0.1880 H   0  0  0  0  0  0  0  0  0  0  0  0
    4.8928    0.9736    0.3598 H   0  0  0  0  0  0  0  0  0  0  0  0
    5.1177   -1.3964    1.0322 H   0  0  0  0  0  0  0  0  0  0  0  0
    3.1114   -2.7855    1.1304 H   0  0  0  0  0  0  0  0  0  0  0  0
    0.9803   -1.8313    0.6369 H   0  0  0  0  0  0  0  0  0  0  0  0
   -4.1869    0.1202    0.2208 H   0  0  0  0  0  0  0  0  0  0  0  0
   -3.9108   -2.1007   -0.9401 H   0  0  0  0  0  0  0  0  0  0  0  0
  1  2  1  0
  2  3  2  0
  2  4  1  0
  4  5  2  0
  5  6  1  0
  6  7  2  0
  7  8  1  0
  8  9  1  0
  9 10  2  0
  9 11  1  0
 11 12  1  0
 12 13  2  0
 13 14  1  0
 14 15  2  0
 15 16  1  0
 16 17  2  0
 17 18  1  0
 18 19  2  0
  7 20  1  0
 20 21  2  0
 21  4  1  0
 13  6  1  0
 19 14  1  0
  5 22  1  0
  8 23  1  0
 11 24  1  0
 11 25  1  0
 15 26  1  0
 16 27  1  0
 17 28  1  0
 18 29  1  0
 19 30  1  0
 20 31  1  0
 21 32  1  0
M  CHG  2   1  -1   2   1
M  END
$$$$
