
     RDKit          3D

 38 40  0  0  0  0  0  0  0  0999 V2000
    6.7335   -1.9498    0.5034 O   0  0  0  0  0  0  0  0  0  0  0  0
    5.5411   -1.2814    0.3935 C   0  0  0  0  0  0  0  0  0  0  0  0
    5.6337   -0.0233    0.4672 O   0  0  0  0  0  0  0  0  0  0  0  0
    4.2201   -1.9216    0.2032 C   0  0  0  0  0  0  0  0  0  0  0  0
    3.2266   -0.9378    0.1329 O   0  0  0  0  0  0  0  0  0  0  0  0
    1.8879   -1.1708   -0.0392 C   0  0  0  0  0  0  0  0  0  0  0  0
    1.5077   -2.3580   -0.1439 O   0  0  0  0  0  0  0  0  0  0  0  0
    0.9494   -0.0628   -0.0967 C   0  0  0  0  0  0  0  0  0  0  0  0
   -0.3837   -0.2950   -0.2682 C   0  0  0  0  0  0  0  0  0  0  0  0
   -1.3380    0.6992   -0.3332 C   0  0  0  0  0  0  0  0  0  0  0  0
   -2.6904    0.2146   -0.5195 C   0  0  0  0  0  0  0  0  0  0  0  0
   -3.7477    0.8900   -0.6127 O   0  0  0  0  0  0  0  0  0  0  0  0
   -2.8214   -1.1977   -0.6054 N   0  0  0  0  0  0  0  0  0  0  0  0
   -3.9570   -2.0501   -0.7839 C   0  0  0  0  0  0  0  0  0  0  0  0
   -4.5528   -2.4419    0.5253 C   0  0  0  0  0  0  0  0  0  0  0  0
   -4.1671   -2.1037    1.8175 O   0  0  0  0  0  0  0  0  0  0  0  0
   -5.5703   -3.1991    0.5339 O   0  0  0  0  0  0  0  0  0  0  0  0
   -1.2259   -1.8442   -0.4463 S   0  0  0  0  0  0  0  0  0  0  0  0
   -1.0748   -2.6925    0.7629 O   0  0  0  0  0  0  0  0  0  0  0  0
   -0.8622   -2.5328   -1.7109 O   0  0  0  0  0  0  0  0  0  0  0  0
   -0.8889    1.9960   -0.2148 C   0  0  0  0  0  0  0  0  0  0  0  0
   -1.6936    3.1150   -0.2556 C   0  0  0  0  0  0  0  0  0  0  0  0
   -1.2275    4.4065   -0.1355 C   0  0  0  0  0  0  0  0  0  0  0  0
    0.1171    4.6301    0.0369 C   0  0  0  0  0  0  0  0  0  0  0  0
    0.9347    3.5217    0.0798 C   0  0  0  0  0  0  0  0  0  0  0  0
    0.4385    2.2170   -0.0446 C   0  0  0  0  0  0  0  0  0  0  0  0
    1.4006    1.2313    0.0218 C   0  0  0  0  0  0  0  0  0  0  0  0
    7.6306   -1.4958    0.6342 H   0  0  0  0  0  0  0  0  0  0  0  0
    3.9511   -2.5724    1.0695 H   0  0  0  0  0  0  0  0  0  0  0  0
    4.2403   -2.5761   -0.6982 H   0  0  0  0  0  0  0  0  0  0  0  0
   -3.7266   -2.9331   -1.4029 H   0  0  0  0  0  0  0  0  0  0  0  0
   -4.7369   -1.4732   -1.3589 H   0  0  0  0  0  0  0  0  0  0  0  0
   -4.0273   -2.7890    2.5481 H   0  0  0  0  0  0  0  0  0  0  0  0
   -2.7575    2.9858   -0.3897 H   0  0  0  0  0  0  0  0  0  0  0  0
   -1.9162    5.2437   -0.1764 H   0  0  0  0  0  0  0  0  0  0  0  0
    0.5040    5.6326    0.1332 H   0  0  0  0  0  0  0  0  0  0  0  0
    1.9878    3.7151    0.2158 H   0  0  0  0  0  0  0  0  0  0  0  0
    2.4608    1.4033    0.1575 H   0  0  0  0  0  0  0  0  0  0  0  0
  1  2  1  0
  2  3  2  0
  2  4  1  0
  4  5  1  0
  5  6  1  0
  6  7  2  0
  6  8  1  0
  8  9  2  0
  9 10  1  0
 10 11  1  0
 11 12  2  0
 11 13  1  0
 13 14  1  0
 14 15  1  0
 15 16  1  0
 15 17  2  0
 13 18  1  0
 18 19  2  0
 18 20  2  0
 10 21  2  0
 21 22  1  0
 22 23  2  0
 23 24  1  0
 24 25  2  0
 25 26  1  0
 26 27  2  0
 27  8  1  0
 18  9  1  0
 26 21  1  0
  1 28  1  0
  4 29  1  0
  4 30  1  0
 14 31  1  0
 14 32  1  0
 16 33  1  0
 22 34  1  0
 23 35  1  0
 24 36  1  0
 25 37  1  0
 27 38  1  0
M  END
$$$$
