
     RDKit          3D

 69 71  0  0  0  0  0  0  0  0999 V2000
    6.9310    2.5251   -1.4366 C   0  0  0  0  0  0  0  0  0  0  0  0
    7.1511    1.4963   -0.4239 N   0  0  0  0  0  0  0  0  0  0  0  0
    8.0983    1.9869    0.5566 C   0  0  0  0  0  0  0  0  0  0  0  0
    5.8382    1.2700    0.1893 C   0  0  0  0  0  0  0  0  0  0  0  0
    4.9340    0.6193   -0.8443 C   0  0  0  0  0  0  0  0  0  0  0  0
    3.6214    0.3616   -0.3286 N   0  0  0  0  0  0  0  0  0  0  0  0
    2.6053    1.3850   -0.4602 C   0  0  0  0  0  0  0  0  0  0  0  0
    1.3666    0.8719   -1.1208 C   0  0  0  0  0  0  0  0  0  0  0  0
    0.6284   -0.0916   -0.2617 N   0  0  0  0  0  0  0  0  0  0  0  0
   -0.5890   -0.4477   -0.7652 C   0  0  0  0  0  0  0  0  0  0  0  0
   -0.9241    0.1716   -1.8733 O   0  0  0  0  0  0  0  0  0  0  0  0
   -1.5977   -1.4109   -0.2708 C   0  0  0  0  0  0  0  0  0  0  0  0
   -1.3493   -2.4647    0.5172 C   0  0  0  0  0  0  0  0  0  0  0  0
   -2.3648   -3.3205    0.8604 C   0  0  0  0  0  0  0  0  0  0  0  0
   -2.3950   -4.5419    1.7007 C   0  0  0  0  0  0  0  0  0  0  0  0
   -1.0360   -4.8241    2.2548 C   0  0  0  0  0  0  0  0  0  0  0  0
   -3.4432   -4.3993    2.7805 C   0  0  0  0  0  0  0  0  0  0  0  0
   -2.8051   -5.7626    0.8682 C   0  0  0  0  0  0  0  0  0  0  0  0
   -3.7802   -2.5979    0.0135 S   0  0  0  0  0  0  0  0  0  0  0  0
   -2.9046   -1.2559   -0.6996 C   0  0  0  0  0  0  0  0  0  0  0  0
   -3.4991   -0.2668   -1.5197 N   0  0  0  0  0  0  0  0  0  0  0  0
   -4.0414    0.9509   -1.0350 C   0  0  0  0  0  0  0  0  0  0  0  0
   -3.9927    1.1680    0.1912 O   0  0  0  0  0  0  0  0  0  0  0  0
   -4.6360    1.9332   -1.8847 N   0  0  0  0  0  0  0  0  0  0  0  0
   -5.1485    3.1223   -1.3287 C   0  0  0  0  0  0  0  0  0  0  0  0
   -4.3493    4.2322   -1.1985 C   0  0  0  0  0  0  0  0  0  0  0  0
   -4.8425    5.4192   -0.6480 C   0  0  0  0  0  0  0  0  0  0  0  0
   -6.1505    5.4852   -0.2266 C   0  0  0  0  0  0  0  0  0  0  0  0
   -6.9610    4.3796   -0.3518 C   0  0  0  0  0  0  0  0  0  0  0  0
   -8.6135    4.4963    0.1927 Cl  0  0  0  0  0  0  0  0  0  0  0  0
   -6.4521    3.2052   -0.9029 C   0  0  0  0  0  0  0  0  0  0  0  0
   -7.4928    1.8225   -1.0511 Cl  0  0  0  0  0  0  0  0  0  0  0  0
    1.1230   -0.5403    0.9966 C   0  0  0  0  0  0  0  0  0  0  0  0
    2.2327   -1.5626    0.8292 C   0  0  0  0  0  0  0  0  0  0  0  0
    3.4544   -0.9061    0.2783 C   0  0  0  0  0  0  0  0  0  0  0  0
    4.4910   -1.5906    0.3702 O   0  0  0  0  0  0  0  0  0  0  0  0
    6.6658    2.0084   -2.3804 H   0  0  0  0  0  0  0  0  0  0  0  0
    7.8496    3.1196   -1.5760 H   0  0  0  0  0  0  0  0  0  0  0  0
    6.1096    3.1828   -1.1042 H   0  0  0  0  0  0  0  0  0  0  0  0
    7.6099    2.7180    1.2571 H   0  0  0  0  0  0  0  0  0  0  0  0
    8.8748    2.5886    0.0264 H   0  0  0  0  0  0  0  0  0  0  0  0
    8.6075    1.1823    1.1167 H   0  0  0  0  0  0  0  0  0  0  0  0
    5.9979    0.5988    1.0564 H   0  0  0  0  0  0  0  0  0  0  0  0
    5.4105    2.2158    0.5600 H   0  0  0  0  0  0  0  0  0  0  0  0
    5.4188   -0.3348   -1.1376 H   0  0  0  0  0  0  0  0  0  0  0  0
    4.8367    1.2582   -1.7294 H   0  0  0  0  0  0  0  0  0  0  0  0
    2.9959    2.2283   -1.1089 H   0  0  0  0  0  0  0  0  0  0  0  0
    2.3400    1.8600    0.5167 H   0  0  0  0  0  0  0  0  0  0  0  0
    1.7039    0.2652   -2.0113 H   0  0  0  0  0  0  0  0  0  0  0  0
    0.7181    1.6732   -1.4724 H   0  0  0  0  0  0  0  0  0  0  0  0
   -0.3388   -2.7634    0.9214 H   0  0  0  0  0  0  0  0  0  0  0  0
   -0.5681   -3.9294    2.7201 H   0  0  0  0  0  0  0  0  0  0  0  0
   -0.3711   -5.2242    1.4682 H   0  0  0  0  0  0  0  0  0  0  0  0
   -1.1528   -5.6423    3.0116 H   0  0  0  0  0  0  0  0  0  0  0  0
   -3.8520   -5.4044    3.0207 H   0  0  0  0  0  0  0  0  0  0  0  0
   -2.9402   -3.9641    3.6784 H   0  0  0  0  0  0  0  0  0  0  0  0
   -4.2200   -3.7013    2.4072 H   0  0  0  0  0  0  0  0  0  0  0  0
   -2.3516   -6.6364    1.3493 H   0  0  0  0  0  0  0  0  0  0  0  0
   -2.5069   -5.6382   -0.1927 H   0  0  0  0  0  0  0  0  0  0  0  0
   -3.9104   -5.9053    0.8913 H   0  0  0  0  0  0  0  0  0  0  0  0
   -3.5445   -0.4397   -2.5461 H   0  0  0  0  0  0  0  0  0  0  0  0
   -4.6888    1.7635   -2.9184 H   0  0  0  0  0  0  0  0  0  0  0  0
   -3.3183    4.1821   -1.5306 H   0  0  0  0  0  0  0  0  0  0  0  0
   -4.2273    6.2954   -0.5400 H   0  0  0  0  0  0  0  0  0  0  0  0
   -6.5496    6.4107    0.2067 H   0  0  0  0  0  0  0  0  0  0  0  0
    0.3724   -0.9182    1.6790 H   0  0  0  0  0  0  0  0  0  0  0  0
    1.5736    0.3431    1.5754 H   0  0  0  0  0  0  0  0  0  0  0  0
    1.8595   -2.3553    0.1637 H   0  0  0  0  0  0  0  0  0  0  0  0
    2.4889   -1.9556    1.8164 H   0  0  0  0  0  0  0  0  0  0  0  0
  1  2  1  0
  2  3  1  0
  2  4  1  0
  4  5  1  0
  5  6  1  0
  6  7  1  0
  7  8  1  0
  8  9  1  0
  9 10  1  0
 10 11  2  0
 10 12  1  0
 12 13  1  0
 13 14  2  0
 14 15  1  0
 15 16  1  0
 15 17  1  0
 15 18  1  0
 14 19  1  0
 19 20  1  0
 20 21  1  0
 21 22  1  0
 22 23  2  0
 22 24  1  0
 24 25  1  0
 25 26  2  0
 26 27  1  0
 27 28  2  0
 28 29  1  0
 29 30  1  0
 29 31  2  0
 31 32  1  0
  9 33  1  0
 33 34  1  0
 34 35  1  0
 35 36  2  0
 35  6  1  0
 20 12  2  0
 31 25  1  0
  1 37  1  0
  1 38  1  0
  1 39  1  0
  3 40  1  0
  3 41  1  0
  3 42  1  0
  4 43  1  0
  4 44  1  0
  5 45  1  0
  5 46  1  0
  7 47  1  0
  7 48  1  0
  8 49  1  0
  8 50  1  0
 13 51  1  0
 16 52  1  0
 16 53  1  0
 16 54  1  0
 17 55  1  0
 17 56  1  0
 17 57  1  0
 18 58  1  0
 18 59  1  0
 18 60  1  0
 21 61  1  0
 24 62  1  0
 26 63  1  0
 27 64  1  0
 28 65  1  0
 33 66  1  0
 33 67  1  0
 34 68  1  0
 34 69  1  0
M  END
$$$$
