
     RDKit          3D

 39 41  0  0  0  0  0  0  0  0999 V2000
    6.3871    1.2283    0.3677 C   0  0  0  0  0  0  0  0  0  0  0  0
    5.0250    0.6943    0.0634 C   0  0  0  0  0  0  0  0  0  0  0  0
    4.0974    1.4309   -0.6401 C   0  0  0  0  0  0  0  0  0  0  0  0
    2.8337    0.9668   -0.9366 C   0  0  0  0  0  0  0  0  0  0  0  0
    2.4525   -0.2948   -0.5201 C   0  0  0  0  0  0  0  0  0  0  0  0
    1.1059   -0.8517   -0.8079 C   0  0  0  0  0  0  0  0  0  0  0  0
    0.1910   -0.5229    0.2416 N   0  0  0  0  0  0  0  0  0  0  0  0
   -1.1790   -0.9582    0.1801 C   0  0  0  0  0  0  0  0  0  0  0  0
   -2.1402   -0.0839   -0.0029 C   0  0  0  0  0  0  0  0  0  0  0  0
   -1.8251    1.3558   -0.1475 C   0  0  0  0  0  0  0  0  0  0  0  0
   -0.6466    1.7226   -0.0937 O   0  0  0  0  0  0  0  0  0  0  0  0
   -2.8581    2.2876   -0.3433 N   0  0  0  0  0  0  0  0  0  0  0  0
   -4.2077    1.8926   -0.4079 C   0  0  0  0  0  0  0  0  0  0  0  0
   -5.1216    2.7462   -0.5845 O   0  0  0  0  0  0  0  0  0  0  0  0
   -4.5278    0.4815   -0.2671 C   0  0  0  0  0  0  0  0  0  0  0  0
   -5.8679    0.1470   -0.3381 C   0  0  0  0  0  0  0  0  0  0  0  0
   -6.2282   -1.1758   -0.2110 C   0  0  0  0  0  0  0  0  0  0  0  0
   -5.2700   -2.1414   -0.0175 C   0  0  0  0  0  0  0  0  0  0  0  0
   -5.8178   -4.1546    0.1759 I   0  0  0  0  0  0  0  0  0  0  0  0
   -3.9226   -1.7724    0.0500 C   0  0  0  0  0  0  0  0  0  0  0  0
   -3.5326   -0.4615   -0.0731 C   0  0  0  0  0  0  0  0  0  0  0  0
    3.3742   -1.0402    0.1851 C   0  0  0  0  0  0  0  0  0  0  0  0
    4.6387   -0.5725    0.4802 C   0  0  0  0  0  0  0  0  0  0  0  0
    5.5674   -1.3171    1.1878 O   0  0  0  0  0  0  0  0  0  0  0  0
    6.4119    2.2888    0.0959 H   0  0  0  0  0  0  0  0  0  0  0  0
    6.4887    1.1819    1.4838 H   0  0  0  0  0  0  0  0  0  0  0  0
    7.1665    0.6203   -0.1355 H   0  0  0  0  0  0  0  0  0  0  0  0
    4.3850    2.4185   -0.9705 H   0  0  0  0  0  0  0  0  0  0  0  0
    2.1013    1.5426   -1.4895 H   0  0  0  0  0  0  0  0  0  0  0  0
    1.1636   -1.9748   -0.9025 H   0  0  0  0  0  0  0  0  0  0  0  0
    0.7894   -0.4993   -1.8121 H   0  0  0  0  0  0  0  0  0  0  0  0
    0.4635    0.0321    1.0785 H   0  0  0  0  0  0  0  0  0  0  0  0
   -1.3925   -1.9925    0.2850 H   0  0  0  0  0  0  0  0  0  0  0  0
   -2.6267    3.3057   -0.4448 H   0  0  0  0  0  0  0  0  0  0  0  0
   -6.6162    0.9026   -0.4894 H   0  0  0  0  0  0  0  0  0  0  0  0
   -7.2778   -1.5057   -0.2586 H   0  0  0  0  0  0  0  0  0  0  0  0
   -3.2135   -2.5818    0.2045 H   0  0  0  0  0  0  0  0  0  0  0  0
    3.0819   -2.0220    0.5109 H   0  0  0  0  0  0  0  0  0  0  0  0
    6.5471   -1.3227    1.0252 H   0  0  0  0  0  0  0  0  0  0  0  0
  1  2  1  0
  2  3  2  0
  3  4  1  0
  4  5  2  0
  5  6  1  0
  6  7  1  0
  7  8  1  0
  8  9  2  3
  9 10  1  0
 10 11  2  0
 10 12  1  0
 12 13  1  0
 13 14  2  0
 13 15  1  0
 15 16  2  0
 16 17  1  0
 17 18  2  0
 18 19  1  0
 18 20  1  0
 20 21  2  0
  5 22  1  0
 22 23  2  0
 23 24  1  0
 23  2  1  0
 21  9  1  0
 21 15  1  0
  1 25  1  0
  1 26  1  0
  1 27  1  0
  3 28  1  0
  4 29  1  0
  6 30  1  0
  6 31  1  0
  7 32  1  0
  8 33  1  0
 12 34  1  0
 16 35  1  0
 17 36  1  0
 20 37  1  0
 22 38  1  0
 24 39  1  0
M  END
$$$$
