
     RDKit          3D

 37 39  0  0  0  0  0  0  0  0999 V2000
   -5.2820    2.1602   -0.3761 O   0  0  0  0  0  0  0  0  0  0  0  0
   -5.4255    0.9324   -0.4819 C   0  0  0  0  0  0  0  0  0  0  0  0
   -6.6049    0.4115   -0.9930 O   0  0  0  0  0  0  0  0  0  0  0  0
   -4.3227    0.0463   -0.0554 C   0  0  0  0  0  0  0  0  0  0  0  0
   -4.5102   -1.3126   -0.1844 C   0  0  0  0  0  0  0  0  0  0  0  0
   -3.4925   -2.1493    0.2086 C   0  0  0  0  0  0  0  0  0  0  0  0
   -2.3198   -1.6185    0.7173 C   0  0  0  0  0  0  0  0  0  0  0  0
   -2.1316   -0.2618    0.8465 C   0  0  0  0  0  0  0  0  0  0  0  0
   -0.6491    0.3212    1.4863 S   0  0  0  0  0  6  0  0  0  0  0  0
   -0.0445   -0.7533    2.3810 O   0  0  0  0  0  0  0  0  0  0  0  0
   -0.7777    1.5568    2.3106 O   0  0  0  0  0  0  0  0  0  0  0  0
    0.5461    0.6026    0.2427 N   0  0  0  0  0  0  0  0  0  0  0  0
    0.7780   -0.6747   -0.3689 C   0  0  0  0  0  0  0  0  0  0  0  0
    1.8231   -0.6630   -1.4337 C   0  0  0  0  0  0  0  0  0  0  0  0
    3.0598   -0.0857   -0.8707 C   0  0  0  0  0  0  0  0  0  0  0  0
    4.3140   -0.4206   -1.3818 C   0  0  0  0  0  0  0  0  0  0  0  0
    5.4456    0.1187   -0.8535 C   0  0  0  0  0  0  0  0  0  0  0  0
    5.3811    1.0076    0.1975 C   0  0  0  0  0  0  0  0  0  0  0  0
    6.8647    1.6753    0.8439 Cl  0  0  0  0  0  0  0  0  0  0  0  0
    4.1399    1.3243    0.6861 C   0  0  0  0  0  0  0  0  0  0  0  0
    2.9717    0.7895    0.1666 C   0  0  0  0  0  0  0  0  0  0  0  0
    1.7026    1.2214    0.7930 C   0  0  0  0  0  0  0  0  0  0  0  0
   -3.1540    0.5709    0.4515 C   0  0  0  0  0  0  0  0  0  0  0  0
   -7.2815    1.0075   -1.4456 H   0  0  0  0  0  0  0  0  0  0  0  0
   -5.4396   -1.7159   -0.5869 H   0  0  0  0  0  0  0  0  0  0  0  0
   -3.6358   -3.2092    0.1092 H   0  0  0  0  0  0  0  0  0  0  0  0
   -1.5606   -2.3451    1.0066 H   0  0  0  0  0  0  0  0  0  0  0  0
   -0.2022   -0.9935   -0.8228 H   0  0  0  0  0  0  0  0  0  0  0  0
    1.1029   -1.3883    0.4191 H   0  0  0  0  0  0  0  0  0  0  0  0
    1.4856   -0.1378   -2.3645 H   0  0  0  0  0  0  0  0  0  0  0  0
    2.0622   -1.7413   -1.6670 H   0  0  0  0  0  0  0  0  0  0  0  0
    4.3478   -1.1181   -2.2051 H   0  0  0  0  0  0  0  0  0  0  0  0
    6.3942   -0.1685   -1.2800 H   0  0  0  0  0  0  0  0  0  0  0  0
    4.1054    2.0322    1.5216 H   0  0  0  0  0  0  0  0  0  0  0  0
    1.7704    0.9944    1.8654 H   0  0  0  0  0  0  0  0  0  0  0  0
    1.6277    2.3315    0.5985 H   0  0  0  0  0  0  0  0  0  0  0  0
   -3.0884    1.6527    0.5193 H   0  0  0  0  0  0  0  0  0  0  0  0
  1  2  2  0
  2  3  1  0
  2  4  1  0
  4  5  2  0
  5  6  1  0
  6  7  2  0
  7  8  1  0
  8  9  1  0
  9 10  2  0
  9 11  2  0
  9 12  1  0
 12 13  1  0
 13 14  1  0
 14 15  1  0
 15 16  2  0
 16 17  1  0
 17 18  2  0
 18 19  1  0
 18 20  1  0
 20 21  2  0
 21 22  1  0
  8 23  2  0
 23  4  1  0
 22 12  1  0
 21 15  1  0
  3 24  1  0
  5 25  1  0
  6 26  1  0
  7 27  1  0
 13 28  1  0
 13 29  1  0
 14 30  1  0
 14 31  1  0
 16 32  1  0
 17 33  1  0
 20 34  1  0
 22 35  1  0
 22 36  1  0
 23 37  1  0
M  END
$$$$
