
     RDKit          3D

 39 41  0  0  0  0  0  0  0  0999 V2000
   -1.5251   -2.2689   -2.4070 N   0  0  0  0  0  0  0  0  0  0  0  0
   -1.2222   -1.3077   -1.3828 C   0  0  0  0  0  0  0  0  0  0  0  0
   -0.0356   -0.8192   -1.0425 N   0  0  0  0  0  0  0  0  0  0  0  0
   -0.1266    0.0626   -0.0389 C   0  0  0  0  0  0  0  0  0  0  0  0
    0.8937    0.7954    0.6040 N   0  0  0  0  0  0  0  0  0  0  0  0
    2.2652    0.7658    0.3314 C   0  0  0  0  0  0  0  0  0  0  0  0
    2.8096   -0.0195   -0.6431 C   0  0  0  0  0  0  0  0  0  0  0  0
    4.1943   -0.0250   -0.8909 C   0  0  0  0  0  0  0  0  0  0  0  0
    5.0440    0.7621   -0.1578 C   0  0  0  0  0  0  0  0  0  0  0  0
    6.7736    0.7649   -0.4566 S   0  0  0  0  0  6  0  0  0  0  0  0
    7.5835   -0.4150    0.4898 N   0  0  0  0  0  0  0  0  0  0  0  0
    7.2704    2.1410   -0.0913 O   0  0  0  0  0  0  0  0  0  0  0  0
    7.0333    0.5308   -1.8961 O   0  0  0  0  0  0  0  0  0  0  0  0
    4.4994    1.5564    0.8269 C   0  0  0  0  0  0  0  0  0  0  0  0
    3.1458    1.5557    1.0623 C   0  0  0  0  0  0  0  0  0  0  0  0
   -1.4539    0.0932    0.2271 N   0  0  0  0  0  0  0  0  0  0  0  0
   -2.1324   -0.7104   -0.5548 N   0  0  0  0  0  0  0  0  0  0  0  0
   -3.5201   -0.9967   -0.6345 C   0  0  0  0  0  0  0  0  0  0  0  0
   -3.9203   -1.8769   -1.5079 O   0  0  0  0  0  0  0  0  0  0  0  0
   -4.5871   -0.4333    0.1446 C   0  0  0  0  0  0  0  0  0  0  0  0
   -5.8460   -1.0539    0.1842 C   0  0  0  0  0  0  0  0  0  0  0  0
   -5.9751   -2.2117   -0.5217 F   0  0  0  0  0  0  0  0  0  0  0  0
   -6.9067   -0.5341    0.8988 C   0  0  0  0  0  0  0  0  0  0  0  0
   -6.7643    0.6239    1.6053 C   0  0  0  0  0  0  0  0  0  0  0  0
   -5.5492    1.2426    1.5796 C   0  0  0  0  0  0  0  0  0  0  0  0
   -4.4704    0.7187    0.8552 C   0  0  0  0  0  0  0  0  0  0  0  0
   -3.3376    1.4219    0.8859 F   0  0  0  0  0  0  0  0  0  0  0  0
   -1.4617   -2.0109   -3.4200 H   0  0  0  0  0  0  0  0  0  0  0  0
   -1.8145   -3.2421   -2.1970 H   0  0  0  0  0  0  0  0  0  0  0  0
    0.5552    1.4397    1.3848 H   0  0  0  0  0  0  0  0  0  0  0  0
    2.2191   -0.6665   -1.2645 H   0  0  0  0  0  0  0  0  0  0  0  0
    4.6088   -0.6503   -1.6635 H   0  0  0  0  0  0  0  0  0  0  0  0
    7.5164   -1.3581    0.0617 H   0  0  0  0  0  0  0  0  0  0  0  0
    7.1904   -0.4001    1.4666 H   0  0  0  0  0  0  0  0  0  0  0  0
    5.1748    2.1751    1.4019 H   0  0  0  0  0  0  0  0  0  0  0  0
    2.7718    2.2128    1.8635 H   0  0  0  0  0  0  0  0  0  0  0  0
   -7.8670   -1.0523    0.8996 H   0  0  0  0  0  0  0  0  0  0  0  0
   -7.6035    1.0358    2.1716 H   0  0  0  0  0  0  0  0  0  0  0  0
   -5.4299    2.1542    2.1332 H   0  0  0  0  0  0  0  0  0  0  0  0
  1  2  1  0
  2  3  2  0
  3  4  1  0
  4  5  1  0
  5  6  1  0
  6  7  2  0
  7  8  1  0
  8  9  2  0
  9 10  1  0
 10 11  1  0
 10 12  2  0
 10 13  2  0
  9 14  1  0
 14 15  2  0
  4 16  2  0
 16 17  1  0
 17 18  1  0
 18 19  2  0
 18 20  1  0
 20 21  2  0
 21 22  1  0
 21 23  1  0
 23 24  2  0
 24 25  1  0
 25 26  2  0
 26 27  1  0
 17  2  1  0
 26 20  1  0
 15  6  1  0
  1 28  1  0
  1 29  1  0
  5 30  1  0
  7 31  1  0
  8 32  1  0
 11 33  1  0
 11 34  1  0
 14 35  1  0
 15 36  1  0
 23 37  1  0
 24 38  1  0
 25 39  1  0
M  END
$$$$
