
     RDKit          3D

 56 58  0  0  0  0  0  0  0  0999 V2000
    0.1715   -0.6736   -1.8674 C   0  0  2  0  0  0  0  0  0  0  0  0
    0.6206    0.7003   -2.3252 C   0  0  0  0  0  0  0  0  0  0  0  0
   -0.3316    1.6348   -1.6058 C   0  0  0  0  0  0  0  0  0  0  0  0
   -0.6746    0.7931   -0.3940 C   0  0  0  0  0  0  0  0  0  0  0  0
   -1.0010   -0.4887   -1.0370 N   0  0  0  0  0  0  0  0  0  0  0  0
   -2.0766   -1.4172   -0.9951 C   0  0  0  0  0  0  0  0  0  0  0  0
   -2.0804   -2.4849   -1.6867 O   0  0  0  0  0  0  0  0  0  0  0  0
   -3.3341   -1.4384   -0.2547 C   0  0  0  0  0  0  0  0  0  0  0  0
   -3.5276   -0.2674    0.6116 N   0  0  0  0  0  0  0  0  0  0  0  0
   -4.8133   -0.4148    1.3161 C   0  0  0  0  0  0  0  0  0  0  0  0
   -5.8728   -0.4976    0.2131 C   0  0  0  0  0  0  0  0  0  0  0  0
   -7.0745    0.2048    0.8058 C   0  0  0  0  0  0  0  0  0  0  0  0
   -6.4994    1.2946    1.6636 C   0  0  0  0  0  0  0  0  0  0  0  0
   -5.1080    0.8540    2.0642 C   0  0  0  0  0  0  0  0  0  0  0  0
    1.1958   -1.3463   -1.0051 C   0  0  0  0  0  0  0  0  0  0  0  0
    0.9015   -1.6104    0.1887 O   0  0  0  0  0  0  0  0  0  0  0  0
    2.4729   -1.6771   -1.5309 N   0  0  0  0  0  0  0  0  0  0  0  0
    3.5696   -2.3241   -0.8363 C   0  0  0  0  0  0  0  0  0  0  0  0
    4.2029   -1.3159    0.0387 C   0  0  0  0  0  0  0  0  0  0  0  0
    5.2252   -0.5908   -0.5840 C   0  0  0  0  0  0  0  0  0  0  0  0
    5.9354    0.3908    0.0692 C   0  0  0  0  0  0  0  0  0  0  0  0
    5.6394    0.6789    1.3817 C   0  0  0  0  0  0  0  0  0  0  0  0
    4.6335   -0.0309    2.0032 C   0  0  0  0  0  0  0  0  0  0  0  0
    3.9212   -1.0134    1.3526 C   0  0  0  0  0  0  0  0  0  0  0  0
    6.3860    1.7187    2.0842 C   0  0  0  0  0  0  0  0  0  0  0  0
    6.6123    1.6661    3.4998 N   0  0  0  0  0  0  0  0  0  0  0  0
    6.8236    2.6847    1.3289 N   0  0  0  0  0  0  0  0  0  0  0  0
   -0.1036   -1.3152   -2.7210 H   0  0  0  0  0  0  0  0  0  0  0  0
    0.6194    0.8286   -3.4149 H   0  0  0  0  0  0  0  0  0  0  0  0
    1.6286    0.8653   -1.8694 H   0  0  0  0  0  0  0  0  0  0  0  0
    0.1537    2.5916   -1.3333 H   0  0  0  0  0  0  0  0  0  0  0  0
   -1.2008    1.7818   -2.2794 H   0  0  0  0  0  0  0  0  0  0  0  0
   -1.4711    1.1890    0.2272 H   0  0  0  0  0  0  0  0  0  0  0  0
    0.2919    0.6947    0.1724 H   0  0  0  0  0  0  0  0  0  0  0  0
   -3.4777   -2.3765    0.3591 H   0  0  0  0  0  0  0  0  0  0  0  0
   -4.2116   -1.4388   -0.9588 H   0  0  0  0  0  0  0  0  0  0  0  0
   -3.7390    0.5133   -0.0844 H   0  0  0  0  0  0  0  0  0  0  0  0
   -4.8147   -1.3132    1.9520 H   0  0  0  0  0  0  0  0  0  0  0  0
   -5.5564    0.0704   -0.6946 H   0  0  0  0  0  0  0  0  0  0  0  0
   -6.0638   -1.5266   -0.0927 H   0  0  0  0  0  0  0  0  0  0  0  0
   -7.7166   -0.4819    1.3931 H   0  0  0  0  0  0  0  0  0  0  0  0
   -7.6438    0.6552   -0.0341 H   0  0  0  0  0  0  0  0  0  0  0  0
   -7.1766    1.4296    2.5476 H   0  0  0  0  0  0  0  0  0  0  0  0
   -6.4385    2.2175    1.0535 H   0  0  0  0  0  0  0  0  0  0  0  0
   -5.1083    0.7217    3.1795 H   0  0  0  0  0  0  0  0  0  0  0  0
   -4.3902    1.6478    1.8104 H   0  0  0  0  0  0  0  0  0  0  0  0
    2.6310   -1.4176   -2.5451 H   0  0  0  0  0  0  0  0  0  0  0  0
    3.1095   -3.1113   -0.1723 H   0  0  0  0  0  0  0  0  0  0  0  0
    4.2664   -2.7709   -1.5470 H   0  0  0  0  0  0  0  0  0  0  0  0
    5.5261   -0.7467   -1.6052 H   0  0  0  0  0  0  0  0  0  0  0  0
    6.7325    0.9568   -0.4137 H   0  0  0  0  0  0  0  0  0  0  0  0
    4.3856    0.1768    3.0274 H   0  0  0  0  0  0  0  0  0  0  0  0
    3.1283   -1.5998    1.7837 H   0  0  0  0  0  0  0  0  0  0  0  0
    7.5300    1.1504    3.3780 H   0  0  0  0  0  0  0  0  0  0  0  0
    5.8345    2.1254    4.0364 H   0  0  0  0  0  0  0  0  0  0  0  0
    7.3578    3.4539    1.7484 H   0  0  0  0  0  0  0  0  0  0  0  0
  1  2  1  0
  2  3  1  0
  3  4  1  0
  4  5  1  0
  5  6  1  0
  6  7  2  0
  6  8  1  0
  8  9  1  0
  9 10  1  0
 10 11  1  0
 11 12  1  0
 12 13  1  0
 13 14  1  0
  1 15  1  0
 15 16  2  0
 15 17  1  0
 17 18  1  0
 18 19  1  0
 19 20  2  0
 20 21  1  0
 21 22  2  0
 22 23  1  0
 23 24  2  0
 22 25  1  0
 25 26  1  0
 25 27  2  3
  5  1  1  0
 14 10  1  0
 24 19  1  0
  1 28  1  6
  2 29  1  0
  2 30  1  0
  3 31  1  0
  3 32  1  0
  4 33  1  0
  4 34  1  0
  8 35  1  0
  8 36  1  0
  9 37  1  0
 10 38  1  0
 11 39  1  0
 11 40  1  0
 12 41  1  0
 12 42  1  0
 13 43  1  0
 13 44  1  0
 14 45  1  0
 14 46  1  0
 17 47  1  0
 18 48  1  0
 18 49  1  0
 20 50  1  0
 21 51  1  0
 23 52  1  0
 24 53  1  0
 26 54  1  0
 26 55  1  0
 27 56  1  0
M  END
$$$$
