
     RDKit          3D

 51 54  0  0  0  0  0  0  0  0999 V2000
   -5.5361   -1.1770    2.1199 C   0  0  0  0  0  0  0  0  0  0  0  0
   -5.9423   -1.8688    0.8113 C   0  0  0  0  0  0  0  0  0  0  0  0
   -5.0201   -1.4004   -0.2182 N   0  0  0  0  0  0  0  0  0  0  0  0
   -3.6437   -1.6773    0.0119 C   0  0  0  0  0  0  0  0  0  0  0  0
   -3.2721   -2.2919    1.0529 O   0  0  0  0  0  0  0  0  0  0  0  0
   -2.6921   -1.2395   -0.9690 N   0  0  0  0  0  0  0  0  0  0  0  0
   -2.9068   -0.5271   -2.2226 C   0  0  0  0  0  0  0  0  0  0  0  0
   -2.5240    0.9058   -1.9293 C   0  0  0  0  0  0  0  0  0  0  0  0
   -1.1587    0.9279   -1.2582 C   0  0  0  0  0  0  0  0  0  0  0  0
   -0.4548   -0.4035   -1.3887 C   0  0  0  0  0  0  0  0  0  0  0  0
   -1.2620   -1.5139   -0.7465 C   0  0  0  0  0  0  0  0  0  0  0  0
   -0.3951    2.0148   -1.7742 N   0  0  0  0  0  0  0  0  0  0  0  0
    0.9225    2.3554   -1.3598 C   0  0  0  0  0  0  0  0  0  0  0  0
    1.6028    1.6778   -0.4228 N   0  0  0  0  0  0  0  0  0  0  0  0
    2.8373    1.9594    0.0033 C   0  0  0  0  0  0  0  0  0  0  0  0
    3.5561    1.2202    1.0078 C   0  0  0  0  0  0  0  0  0  0  0  0
    4.1554    1.6643    2.1877 C   0  0  0  0  0  0  0  0  0  0  0  0
    4.7275    0.6156    2.8429 N   0  0  0  0  0  0  0  0  0  0  0  0
    4.5134   -0.5131    2.1109 C   0  0  0  0  0  0  0  0  0  0  0  0
    4.9139   -1.8145    2.3852 C   0  0  0  0  0  0  0  0  0  0  0  0
    4.5492   -2.7676    1.4450 C   0  0  0  0  0  0  0  0  0  0  0  0
    3.8353   -2.4573    0.3073 C   0  0  0  0  0  0  0  0  0  0  0  0
    3.4534   -1.1478    0.0684 C   0  0  0  0  0  0  0  0  0  0  0  0
    3.7995   -0.1592    0.9878 C   0  0  0  0  0  0  0  0  0  0  0  0
    3.4824    3.0397   -0.5609 C   0  0  0  0  0  0  0  0  0  0  0  0
    5.0933    3.5054   -0.0876 Cl  0  0  0  0  0  0  0  0  0  0  0  0
    2.8269    3.7784   -1.5364 C   0  0  0  0  0  0  0  0  0  0  0  0
    1.5862    3.3949   -1.8798 N   0  0  0  0  0  0  0  0  0  0  0  0
   -6.4277   -0.9009    2.7111 H   0  0  0  0  0  0  0  0  0  0  0  0
   -4.8956   -1.8907    2.7008 H   0  0  0  0  0  0  0  0  0  0  0  0
   -4.8790   -0.3023    1.9183 H   0  0  0  0  0  0  0  0  0  0  0  0
   -6.9466   -1.5040    0.5727 H   0  0  0  0  0  0  0  0  0  0  0  0
   -5.8834   -2.9649    0.9780 H   0  0  0  0  0  0  0  0  0  0  0  0
   -5.3993   -0.8882   -1.0705 H   0  0  0  0  0  0  0  0  0  0  0  0
   -3.9805   -0.6055   -2.5029 H   0  0  0  0  0  0  0  0  0  0  0  0
   -2.2608   -0.9699   -3.0057 H   0  0  0  0  0  0  0  0  0  0  0  0
   -2.4933    1.4209   -2.9200 H   0  0  0  0  0  0  0  0  0  0  0  0
   -3.3235    1.3345   -1.2966 H   0  0  0  0  0  0  0  0  0  0  0  0
   -1.3866    1.0293   -0.1641 H   0  0  0  0  0  0  0  0  0  0  0  0
   -0.2257   -0.6697   -2.4312 H   0  0  0  0  0  0  0  0  0  0  0  0
    0.5023   -0.3692   -0.8417 H   0  0  0  0  0  0  0  0  0  0  0  0
   -1.0252   -1.6883    0.3096 H   0  0  0  0  0  0  0  0  0  0  0  0
   -1.0443   -2.4486   -1.3021 H   0  0  0  0  0  0  0  0  0  0  0  0
   -0.8133    2.6393   -2.5289 H   0  0  0  0  0  0  0  0  0  0  0  0
    4.1392    2.6842    2.4868 H   0  0  0  0  0  0  0  0  0  0  0  0
    5.2452    0.6607    3.7540 H   0  0  0  0  0  0  0  0  0  0  0  0
    5.4752   -2.0828    3.2706 H   0  0  0  0  0  0  0  0  0  0  0  0
    4.8556   -3.7960    1.6436 H   0  0  0  0  0  0  0  0  0  0  0  0
    3.5659   -3.2439   -0.4173 H   0  0  0  0  0  0  0  0  0  0  0  0
    2.8881   -0.8538   -0.8152 H   0  0  0  0  0  0  0  0  0  0  0  0
    3.2661    4.6544   -2.0378 H   0  0  0  0  0  0  0  0  0  0  0  0
  1  2  1  0
  2  3  1  0
  3  4  1  0
  4  5  2  0
  4  6  1  0
  6  7  1  0
  7  8  1  0
  8  9  1  0
  9 10  1  0
 10 11  1  0
  9 12  1  0
 12 13  1  0
 13 14  2  0
 14 15  1  0
 15 16  1  0
 16 17  2  0
 17 18  1  0
 18 19  1  0
 19 20  2  0
 20 21  1  0
 21 22  2  0
 22 23  1  0
 23 24  2  0
 15 25  2  0
 25 26  1  0
 25 27  1  0
 27 28  2  0
 11  6  1  0
 28 13  1  0
 24 16  1  0
 24 19  1  0
  1 29  1  0
  1 30  1  0
  1 31  1  0
  2 32  1  0
  2 33  1  0
  3 34  1  0
  7 35  1  0
  7 36  1  0
  8 37  1  0
  8 38  1  0
  9 39  1  0
 10 40  1  0
 10 41  1  0
 11 42  1  0
 11 43  1  0
 12 44  1  0
 17 45  1  0
 18 46  1  0
 20 47  1  0
 21 48  1  0
 22 49  1  0
 23 50  1  0
 27 51  1  0
M  END
$$$$
