
     RDKit          3D

 50 51  0  0  0  0  0  0  0  0999 V2000
   -2.7667    0.1399    0.0066 C   0  0  2  0  0  0  0  0  0  0  0  0
   -2.8222   -1.0862    0.6743 N   0  0  0  0  0  0  0  0  0  0  0  0
   -2.4982   -1.2349    2.0297 C   0  0  0  0  0  0  0  0  0  0  0  0
   -2.8866   -0.1852    3.0022 C   0  0  0  0  0  0  0  0  0  0  0  0
   -2.5912    1.4943    2.3059 S   0  0  0  0  0  0  0  0  0  0  0  0
   -3.3159    1.3667    0.6510 C   0  0  0  0  0  0  0  0  0  0  0  0
   -4.8136    1.3121    0.8495 C   0  0  0  0  0  0  0  0  0  0  0  0
   -2.9305    2.5537   -0.2265 C   0  0  0  0  0  0  0  0  0  0  0  0
   -1.7241   -2.1524   -0.1970 S   0  0  0  0  0  0  0  0  0  0  0  0
   -1.8300   -3.4882    0.4626 O   0  0  0  0  0  0  0  0  0  0  0  0
   -2.1198   -2.2845   -1.6382 O   0  0  0  0  0  0  0  0  0  0  0  0
   -0.0925   -1.5881   -0.1748 C   0  0  0  0  0  0  0  0  0  0  0  0
    0.3850   -0.7374   -1.1705 C   0  0  0  0  0  0  0  0  0  0  0  0
    1.6731   -0.2637   -1.1988 C   0  0  0  0  0  0  0  0  0  0  0  0
    2.5744   -0.6227   -0.2115 C   0  0  0  0  0  0  0  0  0  0  0  0
    3.8767   -0.1703   -0.2011 O   0  0  0  0  0  0  0  0  0  0  0  0
    4.4032    0.6953   -1.1927 C   0  0  0  0  0  0  0  0  0  0  0  0
    5.7972    1.0147   -0.9412 C   0  0  0  0  0  0  0  0  0  0  0  0
    6.9515    1.2734   -0.7143 C   0  0  0  0  0  0  0  0  0  0  0  0
    8.3650    1.5748   -0.4187 C   0  0  0  0  0  0  0  0  0  0  0  0
    9.2002    0.4190   -0.7655 N   0  0  0  0  0  0  0  0  0  0  0  0
    2.1639   -1.4618    0.8011 C   0  0  0  0  0  0  0  0  0  0  0  0
    0.8581   -1.9033    0.7733 C   0  0  0  0  0  0  0  0  0  0  0  0
   -3.6357   -0.0216   -1.2406 C   0  0  0  0  0  0  0  0  0  0  0  0
   -3.6754    0.7609   -2.2073 O   0  0  0  0  0  0  0  0  0  0  0  0
   -4.5208   -1.1411   -1.4044 N   0  0  0  0  0  0  0  0  0  0  0  0
   -5.2442   -1.1993   -2.5379 O   0  0  0  0  0  0  0  0  0  0  0  0
   -1.7597    0.4221   -0.3874 H   0  0  0  0  0  0  0  0  0  0  0  0
   -1.4231   -1.4723    2.2294 H   0  0  0  0  0  0  0  0  0  0  0  0
   -3.0206   -2.1807    2.3780 H   0  0  0  0  0  0  0  0  0  0  0  0
   -2.2516   -0.2404    3.9087 H   0  0  0  0  0  0  0  0  0  0  0  0
   -3.9331   -0.2378    3.3744 H   0  0  0  0  0  0  0  0  0  0  0  0
   -4.9994    0.5990    1.6678 H   0  0  0  0  0  0  0  0  0  0  0  0
   -5.3698    1.0666   -0.0726 H   0  0  0  0  0  0  0  0  0  0  0  0
   -5.1364    2.3106    1.1963 H   0  0  0  0  0  0  0  0  0  0  0  0
   -3.7698    2.7540   -0.9159 H   0  0  0  0  0  0  0  0  0  0  0  0
   -2.7081    3.4544    0.3854 H   0  0  0  0  0  0  0  0  0  0  0  0
   -2.0160    2.2966   -0.7995 H   0  0  0  0  0  0  0  0  0  0  0  0
   -0.2064   -0.3953   -1.9825 H   0  0  0  0  0  0  0  0  0  0  0  0
    2.0601    0.3958   -1.9616 H   0  0  0  0  0  0  0  0  0  0  0  0
    4.3319    0.1898   -2.1668 H   0  0  0  0  0  0  0  0  0  0  0  0
    3.8201    1.6365   -1.2893 H   0  0  0  0  0  0  0  0  0  0  0  0
    8.6308    2.4541   -1.0395 H   0  0  0  0  0  0  0  0  0  0  0  0
    8.5283    1.7630    0.6711 H   0  0  0  0  0  0  0  0  0  0  0  0
    8.8885   -0.3816   -0.1893 H   0  0  0  0  0  0  0  0  0  0  0  0
    8.9088    0.1697   -1.7580 H   0  0  0  0  0  0  0  0  0  0  0  0
    2.8399   -1.7671    1.5941 H   0  0  0  0  0  0  0  0  0  0  0  0
    0.5755   -2.5640    1.5812 H   0  0  0  0  0  0  0  0  0  0  0  0
   -4.5918   -1.8727   -0.6488 H   0  0  0  0  0  0  0  0  0  0  0  0
   -6.1789   -1.4644   -2.3445 H   0  0  0  0  0  0  0  0  0  0  0  0
  1  2  1  0
  2  3  1  0
  3  4  1  0
  4  5  1  0
  5  6  1  0
  6  7  1  0
  6  8  1  0
  2  9  1  0
  9 10  2  0
  9 11  2  0
  9 12  1  0
 12 13  2  0
 13 14  1  0
 14 15  2  0
 15 16  1  0
 16 17  1  0
 17 18  1  0
 18 19  3  0
 19 20  1  0
 20 21  1  0
 15 22  1  0
 22 23  2  0
  1 24  1  0
 24 25  2  0
 24 26  1  0
 26 27  1  0
  6  1  1  0
 23 12  1  0
  1 28  1  6
  3 29  1  0
  3 30  1  0
  4 31  1  0
  4 32  1  0
  7 33  1  0
  7 34  1  0
  7 35  1  0
  8 36  1  0
  8 37  1  0
  8 38  1  0
 13 39  1  0
 14 40  1  0
 17 41  1  0
 17 42  1  0
 20 43  1  0
 20 44  1  0
 21 45  1  0
 21 46  1  0
 22 47  1  0
 23 48  1  0
 26 49  1  0
 27 50  1  0
M  END
$$$$
