
     RDKit          3D

 19 18  0  0  0  0  0  0  0  0999 V2000
   -0.1448   -0.9616   -1.5524 C   0  0  0  0  0  0  0  0  0  0  0  0
    0.1656   -0.6193   -0.1019 C   0  0  0  0  0  0  0  0  0  0  0  0
    0.3347   -1.8150    0.5632 O   0  0  0  0  0  0  0  0  0  0  0  0
   -1.2335    0.2421    0.5985 P   0  0  0  0  0  0  0  0  0  0  0  0
   -2.1613    1.0180   -0.5985 O   0  0  0  0  0  0  0  0  0  0  0  0
   -0.8237    1.3710    1.7758 O   0  0  0  0  0  0  0  0  0  0  0  0
   -2.1462   -0.7645    1.2879 O   0  0  0  0  0  0  0  0  0  0  0  0
    1.6964    0.3244   -0.1021 P   0  0  0  0  0  0  0  0  0  0  0  0
    1.4349    1.8906   -0.6825 O   0  0  0  0  0  0  0  0  0  0  0  0
    2.4852    0.3152    1.3773 O   0  0  0  0  0  0  0  0  0  0  0  0
    2.6259   -0.3350   -1.1142 O   0  0  0  0  0  0  0  0  0  0  0  0
    0.4514   -0.3345   -2.2641 H   0  0  0  0  0  0  0  0  0  0  0  0
    0.1238   -2.0112   -1.7975 H   0  0  0  0  0  0  0  0  0  0  0  0
   -1.2109   -0.7889   -1.7743 H   0  0  0  0  0  0  0  0  0  0  0  0
    0.6537   -1.7375    1.4870 H   0  0  0  0  0  0  0  0  0  0  0  0
   -3.0399    0.5979   -0.7217 H   0  0  0  0  0  0  0  0  0  0  0  0
   -1.6898    1.6803    2.1661 H   0  0  0  0  0  0  0  0  0  0  0  0
    0.4704    2.1065   -0.6234 H   0  0  0  0  0  0  0  0  0  0  0  0
    2.0080   -0.1785    2.0768 H   0  0  0  0  0  0  0  0  0  0  0  0
  1  2  1  0
  2  3  1  0
  2  4  1  0
  4  5  1  0
  4  6  1  0
  4  7  2  0
  2  8  1  0
  8  9  1  0
  8 10  1  0
  8 11  2  0
  1 12  1  0
  1 13  1  0
  1 14  1  0
  3 15  1  0
  5 16  1  0
  6 17  1  0
  9 18  1  0
 10 19  1  0
M  END
$$$$
