
     RDKit          3D

 44 47  0  0  0  0  0  0  0  0999 V2000
   -5.6791   -0.9012    1.3969 O   0  0  0  0  0  0  0  0  0  0  0  0
   -4.4649   -0.6857    1.1353 C   0  0  0  0  0  0  0  0  0  0  0  0
   -3.6634    0.0223    1.9508 N   0  0  0  0  0  0  0  0  0  0  0  0
   -2.3680    0.2538    1.6749 C   0  0  0  0  0  0  0  0  0  0  0  0
   -1.4678    1.1236    2.7213 S   0  0  0  0  0  0  0  0  0  0  0  0
   -1.8741   -0.2520    0.5323 N   0  0  0  0  0  0  0  0  0  0  0  0
   -0.5049   -0.0394    0.1838 C   0  0  0  0  0  0  0  0  0  0  0  0
   -0.2973    1.2008   -0.6181 C   0  0  0  0  0  0  0  0  0  0  0  0
   -1.3488    2.0404   -0.9473 C   0  0  0  0  0  0  0  0  0  0  0  0
   -1.0599    3.1677   -1.6941 C   0  0  0  0  0  0  0  0  0  0  0  0
    0.2197    3.4686   -2.1093 C   0  0  0  0  0  0  0  0  0  0  0  0
    1.2254    2.5911   -1.7487 C   0  0  0  0  0  0  0  0  0  0  0  0
    1.0048    1.4504   -1.0057 C   0  0  0  0  0  0  0  0  0  0  0  0
    2.1428    0.5591   -0.6597 C   0  0  0  0  0  0  0  0  0  0  0  0
    2.5721    0.6959    0.7085 N   0  0  0  0  0  0  0  0  0  0  0  0
    3.6754   -0.2224    0.9080 C   0  0  0  0  0  0  0  0  0  0  0  0
    3.2074   -1.6517    0.6456 C   0  0  0  0  0  0  0  0  0  0  0  0
    3.9859   -2.0911    1.8672 C   0  0  0  0  0  0  0  0  0  0  0  0
    3.9267   -0.6378    2.3399 C   0  0  0  0  0  0  0  0  0  0  0  0
   -2.6337   -0.9709   -0.3243 C   0  0  0  0  0  0  0  0  0  0  0  0
   -2.4123   -1.5962   -1.5324 C   0  0  0  0  0  0  0  0  0  0  0  0
   -3.5618   -2.2034   -1.9889 C   0  0  0  0  0  0  0  0  0  0  0  0
   -4.4897   -1.9418   -1.0449 N   0  0  0  0  0  0  0  0  0  0  0  0
   -3.9735   -1.2128   -0.0430 C   0  0  0  0  0  0  0  0  0  0  0  0
   -4.1127    0.3935    2.8354 H   0  0  0  0  0  0  0  0  0  0  0  0
   -0.1201   -0.8789   -0.4110 H   0  0  0  0  0  0  0  0  0  0  0  0
    0.0798    0.0095    1.1286 H   0  0  0  0  0  0  0  0  0  0  0  0
   -2.3535    1.8182   -0.6303 H   0  0  0  0  0  0  0  0  0  0  0  0
   -1.8591    3.8555   -1.9745 H   0  0  0  0  0  0  0  0  0  0  0  0
    0.4403    4.3614   -2.6991 H   0  0  0  0  0  0  0  0  0  0  0  0
    2.2581    2.8044   -2.0654 H   0  0  0  0  0  0  0  0  0  0  0  0
    1.8588   -0.5228   -0.8000 H   0  0  0  0  0  0  0  0  0  0  0  0
    2.9501    0.7428   -1.3913 H   0  0  0  0  0  0  0  0  0  0  0  0
    2.7634    1.6572    1.0073 H   0  0  0  0  0  0  0  0  0  0  0  0
    4.5688    0.0460    0.3384 H   0  0  0  0  0  0  0  0  0  0  0  0
    2.1235   -1.7818    0.8386 H   0  0  0  0  0  0  0  0  0  0  0  0
    3.5091   -2.0843   -0.3054 H   0  0  0  0  0  0  0  0  0  0  0  0
    3.4337   -2.7652    2.5526 H   0  0  0  0  0  0  0  0  0  0  0  0
    5.0065   -2.4584    1.6608 H   0  0  0  0  0  0  0  0  0  0  0  0
    3.0927   -0.4668    3.0336 H   0  0  0  0  0  0  0  0  0  0  0  0
    4.8649   -0.2353    2.7234 H   0  0  0  0  0  0  0  0  0  0  0  0
   -1.4732   -1.6170   -2.0625 H   0  0  0  0  0  0  0  0  0  0  0  0
   -3.7164   -2.7700   -2.8974 H   0  0  0  0  0  0  0  0  0  0  0  0
   -5.4760   -2.2753   -1.1091 H   0  0  0  0  0  0  0  0  0  0  0  0
  1  2  2  0
  2  3  1  0
  3  4  1  0
  4  5  2  0
  4  6  1  0
  6  7  1  0
  7  8  1  0
  8  9  2  0
  9 10  1  0
 10 11  2  0
 11 12  1  0
 12 13  2  0
 13 14  1  0
 14 15  1  0
 15 16  1  0
 16 17  1  0
 17 18  1  0
 18 19  1  0
  6 20  1  0
 20 21  1  0
 21 22  2  0
 22 23  1  0
 23 24  1  0
 24  2  1  0
 13  8  1  0
 19 16  1  0
 24 20  2  0
  3 25  1  0
  7 26  1  0
  7 27  1  0
  9 28  1  0
 10 29  1  0
 11 30  1  0
 12 31  1  0
 14 32  1  0
 14 33  1  0
 15 34  1  0
 16 35  1  0
 17 36  1  0
 17 37  1  0
 18 38  1  0
 18 39  1  0
 19 40  1  0
 19 41  1  0
 21 42  1  0
 22 43  1  0
 23 44  1  0
M  END
$$$$
