
     RDKit          3D

 98100  0  0  0  0  0  0  0  0999 V2000
    6.4398    1.1931    0.1252 C   0  0  0  0  0  0  0  0  0  0  0  0
    6.5266    0.0507    0.7625 C   0  0  0  0  0  0  0  0  0  0  0  0
    6.0451   -1.3002    0.7154 C   0  0  0  0  0  0  0  0  0  0  0  0
    6.6095   -2.1048    1.8268 C   0  0  0  0  0  0  0  0  0  0  0  0
    5.2458   -1.9774   -0.0672 C   0  0  0  0  0  0  0  0  0  0  0  0
    4.9022   -3.4176    0.1250 C   0  0  1  0  0  0  0  0  0  0  0  0
    4.4177   -3.5595    1.4458 O   0  0  0  0  0  0  0  0  0  0  0  0
    3.8060   -3.8594   -0.8173 C   0  0  0  0  0  0  0  0  0  0  0  0
    3.2909   -5.2039   -0.5723 C   0  0  0  0  0  0  0  0  0  0  0  0
    3.5918   -6.0618    0.2494 O   0  0  0  0  0  0  0  0  0  0  0  0
    2.1756   -5.5663   -1.5243 C   0  0  0  0  0  0  0  0  0  0  0  0
    0.9003   -5.4744   -0.7569 C   0  0  0  0  0  0  0  0  0  0  0  0
    0.9033   -4.1195   -0.5942 N   0  0  0  0  0  0  0  0  0  0  0  0
   -0.1815   -3.7858    0.0907 C   0  0  0  0  0  0  0  0  0  0  0  0
   -0.8824   -4.9270    0.3681 C   0  0  0  0  0  0  0  0  0  0  0  0
   -0.1852   -5.8906   -0.1634 O   0  0  0  0  0  0  0  0  0  0  0  0
   -0.3227   -2.3783    0.3365 C   0  0  0  0  0  0  0  0  0  0  0  0
   -0.3605   -2.0853    1.5203 O   0  0  0  0  0  0  0  0  0  0  0  0
   -0.4470   -1.0829   -0.1778 N   0  0  0  0  0  0  0  0  0  0  0  0
    0.3926   -0.6060   -1.2499 C   0  0  0  0  0  0  0  0  0  0  0  0
   -0.4558    0.4457   -1.9863 C   0  0  0  0  0  0  0  0  0  0  0  0
   -1.7678    0.4563   -1.2628 C   0  0  2  0  0  0  0  0  0  0  0  0
   -1.3078    0.0402    0.1424 C   0  0  2  0  0  0  0  0  0  0  0  0
   -0.5560    1.1414    0.7927 C   0  0  0  0  0  0  0  0  0  0  0  0
    0.1184    0.6004    1.7324 O   0  0  0  0  0  0  0  0  0  0  0  0
   -0.6309    2.4593    0.3957 O   0  0  0  0  0  0  0  0  0  0  0  0
    0.0487    3.5337    0.9678 C   0  0  2  0  0  0  0  0  0  0  0  0
   -0.9544    4.4212    1.6579 C   0  0  0  0  0  0  0  0  0  0  0  0
   -0.2918    5.6202    2.3059 C   0  0  0  0  0  0  0  0  0  0  0  0
   -2.1121    4.8345    0.8229 C   0  0  0  0  0  0  0  0  0  0  0  0
    0.9848    4.2787    0.0823 C   0  0  2  0  0  0  0  0  0  0  0  0
    0.3622    4.9121   -1.1236 C   0  0  0  0  0  0  0  0  0  0  0  0
    2.1864    3.4740   -0.2842 C   0  0  0  0  0  0  0  0  0  0  0  0
    2.6379    3.3439   -1.5387 C   0  0  0  0  0  0  0  0  0  0  0  0
    3.8287    2.5425   -1.8909 C   0  0  0  0  0  0  0  0  0  0  0  0
    4.2663    2.4185   -3.2024 O   0  0  0  0  0  0  0  0  0  0  0  0
    4.3971    1.9954   -0.9084 N   0  0  0  0  0  0  0  0  0  0  0  0
    5.5747    1.1703   -1.0636 C   0  0  0  0  0  0  0  0  0  0  0  0
   -2.7862   -0.8330   -1.8727 S   0  0  0  0  0  0  0  0  0  0  0  0
   -1.9915   -2.0961   -1.9750 O   0  0  0  0  0  0  0  0  0  0  0  0
   -3.3084   -0.4763   -3.2359 O   0  0  0  0  0  0  0  0  0  0  0  0
   -4.1904   -1.1545   -0.8258 C   0  0  0  0  0  0  0  0  0  0  0  0
   -5.0673    0.0348   -0.6757 C   0  0  0  0  0  0  0  0  0  0  0  0
   -6.2191   -0.0879    0.1259 N   0  0  0  0  0  0  0  0  0  0  0  0
   -6.0962   -0.2456    1.5139 C   0  0  0  0  0  0  0  0  0  0  0  0
   -5.5413   -1.5050    2.0573 C   0  0  0  0  0  0  0  0  0  0  0  0
   -7.3082   -0.8039   -0.4932 C   0  0  0  0  0  0  0  0  0  0  0  0
   -8.4751   -0.8535    0.4746 C   0  0  0  0  0  0  0  0  0  0  0  0
    6.8587    2.1586    0.2735 H   0  0  0  0  0  0  0  0  0  0  0  0
    7.1941    0.3667    1.5399 H   0  0  0  0  0  0  0  0  0  0  0  0
    6.6841   -3.1712    1.5542 H   0  0  0  0  0  0  0  0  0  0  0  0
    5.9367   -2.0062    2.7081 H   0  0  0  0  0  0  0  0  0  0  0  0
    7.6271   -1.7382    2.1514 H   0  0  0  0  0  0  0  0  0  0  0  0
    4.6757   -1.7420   -0.9476 H   0  0  0  0  0  0  0  0  0  0  0  0
    5.7733   -4.0892    0.0364 H   0  0  0  0  0  0  0  0  0  0  0  0
    3.4225   -3.4009    1.4462 H   0  0  0  0  0  0  0  0  0  0  0  0
    4.2627   -3.8896   -1.8555 H   0  0  0  0  0  0  0  0  0  0  0  0
    3.0225   -3.0911   -0.8252 H   0  0  0  0  0  0  0  0  0  0  0  0
    2.1760   -4.9894   -2.4294 H   0  0  0  0  0  0  0  0  0  0  0  0
    2.3029   -6.6638   -1.7735 H   0  0  0  0  0  0  0  0  0  0  0  0
   -1.7912   -4.7701    0.9279 H   0  0  0  0  0  0  0  0  0  0  0  0
    1.3311   -0.1367   -0.8914 H   0  0  0  0  0  0  0  0  0  0  0  0
    0.6688   -1.3408   -2.0021 H   0  0  0  0  0  0  0  0  0  0  0  0
    0.0425    1.4383   -1.9757 H   0  0  0  0  0  0  0  0  0  0  0  0
   -0.6384    0.1711   -3.0385 H   0  0  0  0  0  0  0  0  0  0  0  0
   -2.2774    1.4382   -1.2155 H   0  0  0  0  0  0  0  0  0  0  0  0
   -2.1984   -0.2342    0.6976 H   0  0  0  0  0  0  0  0  0  0  0  0
    0.6759    3.1054    1.8064 H   0  0  0  0  0  0  0  0  0  0  0  0
   -1.3419    3.8108    2.5208 H   0  0  0  0  0  0  0  0  0  0  0  0
    0.5671    5.2670    2.9081 H   0  0  0  0  0  0  0  0  0  0  0  0
   -0.9687    6.1391    3.0051 H   0  0  0  0  0  0  0  0  0  0  0  0
   -0.0190    6.3544    1.5316 H   0  0  0  0  0  0  0  0  0  0  0  0
   -3.0707    4.6202    1.3820 H   0  0  0  0  0  0  0  0  0  0  0  0
   -2.2186    4.2990   -0.1240 H   0  0  0  0  0  0  0  0  0  0  0  0
   -2.1196    5.9494    0.7301 H   0  0  0  0  0  0  0  0  0  0  0  0
    1.3857    5.1338    0.7004 H   0  0  0  0  0  0  0  0  0  0  0  0
    0.0732    4.1763   -1.9098 H   0  0  0  0  0  0  0  0  0  0  0  0
   -0.4028    5.6520   -0.8987 H   0  0  0  0  0  0  0  0  0  0  0  0
    1.1967    5.4982   -1.6160 H   0  0  0  0  0  0  0  0  0  0  0  0
    2.7355    2.9586    0.4986 H   0  0  0  0  0  0  0  0  0  0  0  0
    2.1225    3.8362   -2.3352 H   0  0  0  0  0  0  0  0  0  0  0  0
    4.8082    1.6037   -3.4807 H   0  0  0  0  0  0  0  0  0  0  0  0
    5.4016    0.1695   -1.4456 H   0  0  0  0  0  0  0  0  0  0  0  0
    6.2019    1.6378   -1.9331 H   0  0  0  0  0  0  0  0  0  0  0  0
   -3.8448   -1.6175    0.1252 H   0  0  0  0  0  0  0  0  0  0  0  0
   -4.7624   -1.9636   -1.3552 H   0  0  0  0  0  0  0  0  0  0  0  0
   -4.4261    0.8736   -0.3162 H   0  0  0  0  0  0  0  0  0  0  0  0
   -5.4141    0.3084   -1.7136 H   0  0  0  0  0  0  0  0  0  0  0  0
   -5.4301    0.5881    1.8960 H   0  0  0  0  0  0  0  0  0  0  0  0
   -7.0805   -0.0140    2.0222 H   0  0  0  0  0  0  0  0  0  0  0  0
   -4.4721   -1.4380    2.4022 H   0  0  0  0  0  0  0  0  0  0  0  0
   -6.0863   -1.7594    3.0217 H   0  0  0  0  0  0  0  0  0  0  0  0
   -5.6466   -2.4068    1.4469 H   0  0  0  0  0  0  0  0  0  0  0  0
   -7.0507   -1.7919   -0.8886 H   0  0  0  0  0  0  0  0  0  0  0  0
   -7.6629   -0.1909   -1.3523 H   0  0  0  0  0  0  0  0  0  0  0  0
   -8.7492    0.1525    0.8356 H   0  0  0  0  0  0  0  0  0  0  0  0
   -8.2981   -1.5011    1.3449 H   0  0  0  0  0  0  0  0  0  0  0  0
   -9.3896   -1.2707   -0.0250 H   0  0  0  0  0  0  0  0  0  0  0  0
  1  2  2  0
  2  3  1  0
  3  4  1  0
  3  5  2  0
  5  6  1  0
  6  7  1  0
  6  8  1  0
  8  9  1  0
  9 10  2  0
  9 11  1  0
 11 12  1  0
 12 13  2  0
 13 14  1  0
 14 15  2  0
 15 16  1  0
 14 17  1  0
 17 18  2  0
 17 19  1  0
 19 20  1  0
 20 21  1  0
 21 22  1  0
 22 23  1  0
 23 24  1  0
 24 25  2  0
 24 26  1  0
 26 27  1  0
 27 28  1  0
 28 29  1  0
 28 30  1  0
 27 31  1  0
 31 32  1  0
 31 33  1  0
 33 34  2  0
 34 35  1  0
 35 36  1  0
 35 37  2  0
 37 38  1  0
 22 39  1  0
 39 40  2  0
 39 41  2  0
 39 42  1  0
 42 43  1  0
 43 44  1  0
 44 45  1  0
 45 46  1  0
 44 47  1  0
 47 48  1  0
 38  1  1  0
 16 12  1  0
 23 19  1  0
  1 49  1  0
  2 50  1  0
  4 51  1  0
  4 52  1  0
  4 53  1  0
  5 54  1  0
  6 55  1  1
  7 56  1  0
  8 57  1  0
  8 58  1  0
 11 59  1  0
 11 60  1  0
 15 61  1  0
 20 62  1  0
 20 63  1  0
 21 64  1  0
 21 65  1  0
 22 66  1  1
 23 67  1  1
 27 68  1  1
 28 69  1  0
 29 70  1  0
 29 71  1  0
 29 72  1  0
 30 73  1  0
 30 74  1  0
 30 75  1  0
 31 76  1  1
 32 77  1  0
 32 78  1  0
 32 79  1  0
 33 80  1  0
 34 81  1  0
 36 82  1  0
 38 83  1  0
 38 84  1  0
 42 85  1  0
 42 86  1  0
 43 87  1  0
 43 88  1  0
 45 89  1  0
 45 90  1  0
 46 91  1  0
 46 92  1  0
 46 93  1  0
 47 94  1  0
 47 95  1  0
 48 96  1  0
 48 97  1  0
 48 98  1  0
M  END
$$$$
