
     RDKit          3D

 48 49  0  0  0  0  0  0  0  0999 V2000
   -6.2398    0.7462    0.6919 C   0  0  0  0  0  0  0  0  0  0  0  0
   -4.7573    1.0813    0.5387 C   0  0  0  0  0  0  0  0  0  0  0  0
   -4.0474   -0.1614    0.4281 N   0  0  0  0  0  0  0  0  0  0  0  0
   -4.2775   -0.9090   -0.7584 C   0  0  0  0  0  0  0  0  0  0  0  0
   -3.4725   -2.2067   -0.7089 C   0  0  0  0  0  0  0  0  0  0  0  0
   -2.6159    0.0106    0.7231 C   0  0  0  0  0  0  0  0  0  0  0  0
   -1.9381    0.8199   -0.3129 C   0  0  0  0  0  0  0  0  0  0  0  0
   -0.5151    1.1420   -0.1852 C   0  0  0  0  0  0  0  0  0  0  0  0
    0.4655    0.0366   -0.1330 C   0  0  0  0  0  0  0  0  0  0  0  0
    0.3228   -0.8864    1.0307 C   0  0  0  0  0  0  0  0  0  0  0  0
    1.8447    0.5311   -0.1736 N   0  0  0  0  0  0  0  0  0  0  0  0
    3.0107   -0.2457   -0.3307 C   0  0  0  0  0  0  0  0  0  0  0  0
    4.2638    0.3214   -0.3391 C   0  0  0  0  0  0  0  0  0  0  0  0
    4.4604    1.6707   -0.1788 C   0  0  0  0  0  0  0  0  0  0  0  0
    5.7176    2.2422   -0.1888 C   0  0  0  0  0  0  0  0  0  0  0  0
    6.8605    1.4657   -0.3644 C   0  0  0  0  0  0  0  0  0  0  0  0
    8.4736    2.1331   -0.3863 Cl  0  0  0  0  0  0  0  0  0  0  0  0
    6.6264    0.1179   -0.5219 C   0  0  0  0  0  0  0  0  0  0  0  0
    5.3778   -0.4622   -0.5135 C   0  0  0  0  0  0  0  0  0  0  0  0
    5.2812   -1.8061   -0.6817 N   0  0  0  0  0  0  0  0  0  0  0  0
    4.0871   -2.4254   -0.6844 C   0  0  0  0  0  0  0  0  0  0  0  0
    2.9589   -1.6113   -0.5050 C   0  0  0  0  0  0  0  0  0  0  0  0
   -6.2990   -0.0887    1.4337 H   0  0  0  0  0  0  0  0  0  0  0  0
   -6.7979    1.6329    1.0418 H   0  0  0  0  0  0  0  0  0  0  0  0
   -6.6215    0.3470   -0.2702 H   0  0  0  0  0  0  0  0  0  0  0  0
   -4.4405    1.5667    1.4695 H   0  0  0  0  0  0  0  0  0  0  0  0
   -4.5950    1.7779   -0.3080 H   0  0  0  0  0  0  0  0  0  0  0  0
   -4.0933   -0.3591   -1.7014 H   0  0  0  0  0  0  0  0  0  0  0  0
   -5.3456   -1.2069   -0.7563 H   0  0  0  0  0  0  0  0  0  0  0  0
   -3.5144   -2.5283    0.3490 H   0  0  0  0  0  0  0  0  0  0  0  0
   -2.4620   -2.0180   -1.0715 H   0  0  0  0  0  0  0  0  0  0  0  0
   -3.9980   -2.9733   -1.3265 H   0  0  0  0  0  0  0  0  0  0  0  0
   -2.2416   -1.0221    0.8618 H   0  0  0  0  0  0  0  0  0  0  0  0
   -2.5672    0.5252    1.6954 H   0  0  0  0  0  0  0  0  0  0  0  0
   -2.5646    1.7695   -0.4491 H   0  0  0  0  0  0  0  0  0  0  0  0
   -2.0759    0.3249   -1.3156 H   0  0  0  0  0  0  0  0  0  0  0  0
   -0.2178    1.7666   -1.0926 H   0  0  0  0  0  0  0  0  0  0  0  0
   -0.3850    1.8457    0.6866 H   0  0  0  0  0  0  0  0  0  0  0  0
    0.3528   -0.5980   -1.0603 H   0  0  0  0  0  0  0  0  0  0  0  0
    1.3523   -1.0942    1.4398 H   0  0  0  0  0  0  0  0  0  0  0  0
   -0.0922   -1.8494    0.7326 H   0  0  0  0  0  0  0  0  0  0  0  0
   -0.2639   -0.4640    1.8758 H   0  0  0  0  0  0  0  0  0  0  0  0
    1.8862    1.5621   -0.0679 H   0  0  0  0  0  0  0  0  0  0  0  0
    3.6528    2.3559   -0.0371 H   0  0  0  0  0  0  0  0  0  0  0  0
    5.9157    3.3118   -0.0642 H   0  0  0  0  0  0  0  0  0  0  0  0
    7.4740   -0.5201   -0.6604 H   0  0  0  0  0  0  0  0  0  0  0  0
    4.0155   -3.4953   -0.8192 H   0  0  0  0  0  0  0  0  0  0  0  0
    2.0387   -2.1732   -0.5269 H   0  0  0  0  0  0  0  0  0  0  0  0
  1  2  1  0
  2  3  1  0
  3  4  1  0
  4  5  1  0
  3  6  1  0
  6  7  1  0
  7  8  1  0
  8  9  1  0
  9 10  1  0
  9 11  1  0
 11 12  1  0
 12 13  2  0
 13 14  1  0
 14 15  2  0
 15 16  1  0
 16 17  1  0
 16 18  2  0
 18 19  1  0
 19 20  2  0
 20 21  1  0
 21 22  2  0
 22 12  1  0
 19 13  1  0
  1 23  1  0
  1 24  1  0
  1 25  1  0
  2 26  1  0
  2 27  1  0
  4 28  1  0
  4 29  1  0
  5 30  1  0
  5 31  1  0
  5 32  1  0
  6 33  1  0
  6 34  1  0
  7 35  1  0
  7 36  1  0
  8 37  1  0
  8 38  1  0
  9 39  1  0
 10 40  1  0
 10 41  1  0
 10 42  1  0
 11 43  1  0
 14 44  1  0
 15 45  1  0
 18 46  1  0
 21 47  1  0
 22 48  1  0
M  END
$$$$
