
     RDKit          3D

 75 78  0  0  0  0  0  0  0  0999 V2000
   13.7110   -0.2252   -0.5741 N   0  0  0  0  0  0  0  0  0  0  0  0
   12.3201   -0.1065   -0.2831 C   0  0  0  0  0  0  0  0  0  0  0  0
   11.4237   -0.9966   -0.7622 N   0  0  0  0  0  0  0  0  0  0  0  0
   10.1083   -0.8973   -0.4960 C   0  0  0  0  0  0  0  0  0  0  0  0
    9.2223   -1.6801   -0.9026 O   0  0  0  0  0  0  0  0  0  0  0  0
    9.6502    0.1102    0.2677 N   0  0  0  0  0  0  0  0  0  0  0  0
   10.5355    1.0224    0.7637 C   0  0  0  0  0  0  0  0  0  0  0  0
   11.8813    0.9280    0.4963 C   0  0  0  0  0  0  0  0  0  0  0  0
    8.2940    0.3951    0.6680 C   0  0  1  0  0  0  0  0  0  0  0  0
    7.6956    1.4069   -0.2756 C   0  0  0  0  0  0  0  0  0  0  0  0
    6.2501    0.9255   -0.3701 C   0  0  2  0  0  0  0  0  0  0  0  0
    5.4277    2.0079   -0.0374 O   0  0  0  0  0  0  0  0  0  0  0  0
    6.1956   -0.1352    0.6837 C   0  0  1  0  0  0  0  0  0  0  0  0
    5.0766   -1.1172    0.4984 C   0  0  0  0  0  0  0  0  0  0  0  0
    3.8158   -0.5496    0.5604 O   0  0  0  0  0  0  0  0  0  0  0  0
    2.5842   -1.6613    0.3516 P   0  0  0  0  0  0  0  0  0  0  0  0
    1.3171   -1.3878    1.4638 O   0  0  0  0  0  0  0  0  0  0  0  0
    3.1252   -3.0455    0.6671 O   0  0  0  0  0  0  0  0  0  0  0  0
    1.8911   -1.6145   -1.1903 O   0  0  0  0  0  0  0  0  0  0  0  0
    1.9258   -0.0699   -1.8382 P   0  0  0  0  0  0  0  0  0  0  0  0
    2.5765    0.9810   -0.6905 O   0  0  0  0  0  0  0  0  0  0  0  0
    2.8802   -0.1012   -3.0293 O   0  0  0  0  0  0  0  0  0  0  0  0
    0.4078    0.4813   -2.3317 O   0  0  0  0  0  0  0  0  0  0  0  0
   -0.6007    0.5376   -0.9795 P   0  0  0  0  0  0  0  0  0  0  0  0
    0.1690    1.2633    0.3398 O   0  0  0  0  0  0  0  0  0  0  0  0
   -0.9690   -0.9118   -0.6747 O   0  0  0  0  0  0  0  0  0  0  0  0
   -2.0122    1.4113   -1.2921 O   0  0  0  0  0  0  0  0  0  0  0  0
   -3.2605    0.4281   -1.8247 P   0  0  0  0  0  0  0  0  0  0  0  0
   -3.9770    0.9951   -3.2294 O   0  0  0  0  0  0  0  0  0  0  0  0
   -2.6702   -0.9405   -2.1699 O   0  0  0  0  0  0  0  0  0  0  0  0
   -4.3497    0.2009   -0.5742 O   0  0  0  0  0  0  0  0  0  0  0  0
   -5.6717    0.4362   -0.9379 C   0  0  0  0  0  0  0  0  0  0  0  0
   -6.6314    0.2281    0.1925 C   0  0  1  0  0  0  0  0  0  0  0  0
   -7.9238    0.4945   -0.2969 O   0  0  0  0  0  0  0  0  0  0  0  0
   -8.6981   -0.0291    0.7345 C   0  0  2  0  0  0  0  0  0  0  0  0
   -8.1375   -1.4059    0.9624 C   0  0  2  0  0  0  0  0  0  0  0  0
   -8.3381   -1.7163    2.3261 O   0  0  0  0  0  0  0  0  0  0  0  0
   -6.6653   -1.2077    0.6615 C   0  0  2  0  0  0  0  0  0  0  0  0
   -5.9494   -1.3330    1.8618 O   0  0  0  0  0  0  0  0  0  0  0  0
  -10.1025   -0.0414    0.4270 N   0  0  0  0  0  0  0  0  0  0  0  0
  -10.9924    0.1261    1.4294 C   0  0  0  0  0  0  0  0  0  0  0  0
  -12.3552    0.1251    1.2054 C   0  0  0  0  0  0  0  0  0  0  0  0
  -12.8017   -0.0541   -0.0899 C   0  0  0  0  0  0  0  0  0  0  0  0
  -14.0460   -0.0579   -0.3140 O   0  0  0  0  0  0  0  0  0  0  0  0
  -11.8715   -0.2187   -1.0656 N   0  0  0  0  0  0  0  0  0  0  0  0
  -10.5534   -0.2148   -0.8291 C   0  0  0  0  0  0  0  0  0  0  0  0
   -9.7654   -0.3739   -1.7904 O   0  0  0  0  0  0  0  0  0  0  0  0
    7.4605   -0.7230    0.6185 O   0  0  0  0  0  0  0  0  0  0  0  0
   14.2066    0.6113   -0.9381 H   0  0  0  0  0  0  0  0  0  0  0  0
   14.2884   -1.0751   -0.4579 H   0  0  0  0  0  0  0  0  0  0  0  0
   10.2681    1.8764    1.3928 H   0  0  0  0  0  0  0  0  0  0  0  0
   12.6057    1.6302    0.8716 H   0  0  0  0  0  0  0  0  0  0  0  0
    8.2506    0.7460    1.7289 H   0  0  0  0  0  0  0  0  0  0  0  0
    8.1710    1.4041   -1.2709 H   0  0  0  0  0  0  0  0  0  0  0  0
    7.7487    2.4264    0.1373 H   0  0  0  0  0  0  0  0  0  0  0  0
    6.0552    0.5774   -1.3900 H   0  0  0  0  0  0  0  0  0  0  0  0
    5.6316    2.7856   -0.6183 H   0  0  0  0  0  0  0  0  0  0  0  0
    6.0348    0.3588    1.6610 H   0  0  0  0  0  0  0  0  0  0  0  0
    5.2034   -1.9194    1.2539 H   0  0  0  0  0  0  0  0  0  0  0  0
    5.1557   -1.5705   -0.5169 H   0  0  0  0  0  0  0  0  0  0  0  0
    1.5198   -0.5325    1.9324 H   0  0  0  0  0  0  0  0  0  0  0  0
    2.5168    1.9027   -1.0657 H   0  0  0  0  0  0  0  0  0  0  0  0
   -0.5023    1.6158    0.9787 H   0  0  0  0  0  0  0  0  0  0  0  0
   -3.8975    1.9897   -3.2167 H   0  0  0  0  0  0  0  0  0  0  0  0
   -5.8352    1.4227   -1.3755 H   0  0  0  0  0  0  0  0  0  0  0  0
   -5.9264   -0.3019   -1.7246 H   0  0  0  0  0  0  0  0  0  0  0  0
   -6.4753    0.8552    1.0687 H   0  0  0  0  0  0  0  0  0  0  0  0
   -8.4578    0.5712    1.6380 H   0  0  0  0  0  0  0  0  0  0  0  0
   -8.6011   -2.1826    0.3276 H   0  0  0  0  0  0  0  0  0  0  0  0
   -7.9933   -2.6215    2.4725 H   0  0  0  0  0  0  0  0  0  0  0  0
   -6.2725   -1.9012   -0.1032 H   0  0  0  0  0  0  0  0  0  0  0  0
   -5.3454   -0.5418    1.9981 H   0  0  0  0  0  0  0  0  0  0  0  0
  -10.6230    0.2643    2.4324 H   0  0  0  0  0  0  0  0  0  0  0  0
  -13.0198    0.2664    2.0650 H   0  0  0  0  0  0  0  0  0  0  0  0
  -12.3090   -0.3463   -2.0070 H   0  0  0  0  0  0  0  0  0  0  0  0
  1  2  1  0
  2  3  2  0
  3  4  1  0
  4  5  2  0
  4  6  1  0
  6  7  1  0
  7  8  2  0
  6  9  1  0
  9 10  1  0
 10 11  1  0
 11 12  1  0
 11 13  1  0
 13 14  1  0
 14 15  1  0
 15 16  1  0
 16 17  1  0
 16 18  2  0
 16 19  1  0
 19 20  1  0
 20 21  1  0
 20 22  2  0
 20 23  1  0
 23 24  1  0
 24 25  1  0
 24 26  2  0
 24 27  1  0
 27 28  1  0
 28 29  1  0
 28 30  2  0
 28 31  1  0
 31 32  1  0
 32 33  1  0
 33 34  1  0
 34 35  1  0
 35 36  1  0
 36 37  1  0
 36 38  1  0
 38 39  1  0
 35 40  1  0
 40 41  1  0
 41 42  2  0
 42 43  1  0
 43 44  2  0
 43 45  1  0
 45 46  1  0
 46 47  2  0
 13 48  1  0
  8  2  1  0
 48  9  1  0
 38 33  1  0
 46 40  1  0
  1 49  1  0
  1 50  1  0
  7 51  1  0
  8 52  1  0
  9 53  1  1
 10 54  1  0
 10 55  1  0
 11 56  1  6
 12 57  1  0
 13 58  1  1
 14 59  1  0
 14 60  1  0
 17 61  1  0
 21 62  1  0
 25 63  1  0
 29 64  1  0
 32 65  1  0
 32 66  1  0
 33 67  1  1
 35 68  1  1
 36 69  1  6
 37 70  1  0
 38 71  1  6
 39 72  1  0
 41 73  1  0
 42 74  1  0
 45 75  1  0
M  END
$$$$
