
     RDKit          3D

 60 63  0  0  0  0  0  0  0  0999 V2000
   -8.0571    0.3844    1.5782 C   0  0  0  0  0  0  0  0  0  0  0  0
   -6.5586    0.3179    1.6867 C   0  0  0  0  0  0  0  0  0  0  0  0
   -5.9408    0.3396    2.9143 C   0  0  0  0  0  0  0  0  0  0  0  0
   -4.5684    0.2761    2.9589 C   0  0  0  0  0  0  0  0  0  0  0  0
   -3.7754    0.1904    1.8080 C   0  0  0  0  0  0  0  0  0  0  0  0
   -4.3961    0.1687    0.5834 C   0  0  0  0  0  0  0  0  0  0  0  0
   -3.6637    0.0668   -0.6554 N   0  0  0  0  0  0  0  0  0  0  0  0
   -4.2324    0.4404   -1.9345 C   0  0  0  0  0  0  0  0  0  0  0  0
   -3.2630    0.0698   -2.9403 N   0  0  0  0  0  0  0  0  0  0  0  0
   -2.3364   -0.8095   -2.3169 C   0  0  0  0  0  0  0  0  0  0  0  0
   -1.6679   -1.7316   -2.8491 O   0  0  0  0  0  0  0  0  0  0  0  0
   -2.3411   -0.3873   -0.8897 C   0  0  0  0  0  0  0  0  0  0  0  0
   -1.9295   -1.5750   -0.0621 C   0  0  0  0  0  0  0  0  0  0  0  0
   -0.5477   -1.3158    0.4640 C   0  0  0  0  0  0  0  0  0  0  0  0
    0.3851   -0.9982   -0.6066 N   0  0  0  0  0  0  0  0  0  0  0  0
    1.6977   -0.8817   -0.0117 C   0  0  0  0  0  0  0  0  0  0  0  0
    2.7599   -0.5733   -1.0473 C   0  0  2  0  0  0  0  0  0  0  0  0
    2.7909   -1.6907   -2.0680 C   0  0  0  0  0  0  0  0  0  0  0  0
    4.0801   -0.5770   -0.3906 N   0  0  0  0  0  0  0  0  0  0  0  0
    4.9285    0.5501   -0.4380 C   0  0  0  0  0  0  0  0  0  0  0  0
    4.5240    1.5691   -1.0622 O   0  0  0  0  0  0  0  0  0  0  0  0
    6.2272    0.5161    0.2204 C   0  0  0  0  0  0  0  0  0  0  0  0
    7.0693    1.6213    0.1815 C   0  0  0  0  0  0  0  0  0  0  0  0
    8.2942    1.6086    0.7942 C   0  0  0  0  0  0  0  0  0  0  0  0
    8.7256    0.4878    1.4713 C   0  0  0  0  0  0  0  0  0  0  0  0
   10.4430    0.4731    2.3288 Br  0  0  0  0  0  0  0  0  0  0  0  0
    7.9070   -0.6192    1.5227 C   0  0  0  0  0  0  0  0  0  0  0  0
    6.6615   -0.5920    0.8937 C   0  0  0  0  0  0  0  0  0  0  0  0
   -0.0186    0.1825   -1.3332 C   0  0  0  0  0  0  0  0  0  0  0  0
   -1.3043    0.7041   -0.7375 C   0  0  0  0  0  0  0  0  0  0  0  0
   -5.7782    0.2334    0.5540 C   0  0  0  0  0  0  0  0  0  0  0  0
   -8.4704   -0.6631    1.5704 H   0  0  0  0  0  0  0  0  0  0  0  0
   -8.5054    1.0220    2.3390 H   0  0  0  0  0  0  0  0  0  0  0  0
   -8.2808    0.7956    0.5708 H   0  0  0  0  0  0  0  0  0  0  0  0
   -6.5534    0.4062    3.8148 H   0  0  0  0  0  0  0  0  0  0  0  0
   -4.0656    0.2925    3.9249 H   0  0  0  0  0  0  0  0  0  0  0  0
   -2.6910    0.1523    1.8996 H   0  0  0  0  0  0  0  0  0  0  0  0
   -5.1708   -0.0985   -2.1596 H   0  0  0  0  0  0  0  0  0  0  0  0
   -4.4325    1.5347   -1.9357 H   0  0  0  0  0  0  0  0  0  0  0  0
   -3.1949    0.3504   -3.9410 H   0  0  0  0  0  0  0  0  0  0  0  0
   -1.8272   -2.4975   -0.7167 H   0  0  0  0  0  0  0  0  0  0  0  0
   -2.6004   -1.8715    0.7304 H   0  0  0  0  0  0  0  0  0  0  0  0
   -0.5005   -0.5820    1.2916 H   0  0  0  0  0  0  0  0  0  0  0  0
   -0.1734   -2.2792    0.9062 H   0  0  0  0  0  0  0  0  0  0  0  0
    1.9637   -1.8661    0.4230 H   0  0  0  0  0  0  0  0  0  0  0  0
    1.6300   -0.0912    0.7587 H   0  0  0  0  0  0  0  0  0  0  0  0
    2.6537    0.4274   -1.5068 H   0  0  0  0  0  0  0  0  0  0  0  0
    3.7348   -2.2811   -2.0270 H   0  0  0  0  0  0  0  0  0  0  0  0
    1.9772   -2.4337   -1.8471 H   0  0  0  0  0  0  0  0  0  0  0  0
    2.7112   -1.3097   -3.1066 H   0  0  0  0  0  0  0  0  0  0  0  0
    4.2976   -1.4749    0.0909 H   0  0  0  0  0  0  0  0  0  0  0  0
    6.7236    2.5032   -0.3544 H   0  0  0  0  0  0  0  0  0  0  0  0
    8.9536    2.4742    0.7635 H   0  0  0  0  0  0  0  0  0  0  0  0
    8.2089   -1.5200    2.0445 H   0  0  0  0  0  0  0  0  0  0  0  0
    6.0645   -1.4933    0.9700 H   0  0  0  0  0  0  0  0  0  0  0  0
   -0.2025   -0.0014   -2.4108 H   0  0  0  0  0  0  0  0  0  0  0  0
    0.7282    1.0047   -1.2436 H   0  0  0  0  0  0  0  0  0  0  0  0
   -1.5774    1.6034   -1.3626 H   0  0  0  0  0  0  0  0  0  0  0  0
   -1.1839    1.0640    0.2905 H   0  0  0  0  0  0  0  0  0  0  0  0
   -6.3318    0.2206   -0.3937 H   0  0  0  0  0  0  0  0  0  0  0  0
  1  2  1  0
  2  3  2  0
  3  4  1  0
  4  5  2  0
  5  6  1  0
  6  7  1  0
  7  8  1  0
  8  9  1  0
  9 10  1  0
 10 11  2  0
 10 12  1  0
 12 13  1  0
 13 14  1  0
 14 15  1  0
 15 16  1  0
 16 17  1  0
 17 18  1  0
 17 19  1  0
 19 20  1  0
 20 21  2  0
 20 22  1  0
 22 23  2  0
 23 24  1  0
 24 25  2  0
 25 26  1  0
 25 27  1  0
 27 28  2  0
 15 29  1  0
 29 30  1  0
  6 31  2  0
 31  2  1  0
 12  7  1  0
 28 22  1  0
 30 12  1  0
  1 32  1  0
  1 33  1  0
  1 34  1  0
  3 35  1  0
  4 36  1  0
  5 37  1  0
  8 38  1  0
  8 39  1  0
  9 40  1  0
 13 41  1  0
 13 42  1  0
 14 43  1  0
 14 44  1  0
 16 45  1  0
 16 46  1  0
 17 47  1  6
 18 48  1  0
 18 49  1  0
 18 50  1  0
 19 51  1  0
 23 52  1  0
 24 53  1  0
 27 54  1  0
 28 55  1  0
 29 56  1  0
 29 57  1  0
 30 58  1  0
 30 59  1  0
 31 60  1  0
M  END
$$$$
