
     RDKit          3D

 45 48  0  0  0  0  0  0  0  0999 V2000
    6.2326    1.7316   -5.2097 C   0  0  0  0  0  0  0  0  0  0  0  0
    6.1591    1.4757   -3.8424 O   0  0  0  0  0  0  0  0  0  0  0  0
    5.0345    0.9676   -3.2054 C   0  0  0  0  0  0  0  0  0  0  0  0
    4.9897    0.7245   -1.8544 C   0  0  0  0  0  0  0  0  0  0  0  0
    3.8584    0.2304   -1.3145 N   0  0  0  0  0  0  0  0  0  0  0  0
    2.7647   -0.0363   -2.0474 C   0  0  0  0  0  0  0  0  0  0  0  0
    1.5630   -0.5700   -1.4147 C   0  0  0  0  0  0  0  0  0  0  0  0
    0.5241   -0.8297   -2.0696 O   0  0  0  0  0  0  0  0  0  0  0  0
    1.5251   -0.8173   -0.0201 N   0  0  0  0  0  0  0  0  0  0  0  0
    0.4087   -1.3304    0.6772 C   0  0  0  0  0  0  0  0  0  0  0  0
    0.2069   -2.6829    0.8598 C   0  0  0  0  0  0  0  0  0  0  0  0
   -0.8768   -3.1747    1.5384 C   0  0  0  0  0  0  0  0  0  0  0  0
   -1.1007   -4.8994    1.7517 Cl  0  0  0  0  0  0  0  0  0  0  0  0
   -1.8293   -2.3313    2.0777 C   0  0  0  0  0  0  0  0  0  0  0  0
   -2.8854   -2.8622    2.7494 F   0  0  0  0  0  0  0  0  0  0  0  0
   -1.6613   -0.9793    1.9152 C   0  0  0  0  0  0  0  0  0  0  0  0
   -2.6732   -0.0188    2.4790 C   0  0  1  0  0  0  0  0  0  0  0  0
   -2.6025   -0.1666    3.9856 C   0  0  0  0  0  0  0  0  0  0  0  0
   -3.4935    0.6725    4.6220 F   0  0  0  0  0  0  0  0  0  0  0  0
   -2.1974    1.3118    2.1418 N   0  0  0  0  0  0  0  0  0  0  0  0
   -2.5095    1.8312    1.0234 C   0  0  0  0  0  0  0  0  0  0  0  0
   -2.0086    3.1519    0.7428 N   0  0  0  0  0  0  0  0  0  0  0  0
   -3.2946    1.1213    0.1530 O   0  0  0  0  0  0  0  0  0  0  0  0
   -4.3696    0.3830    0.6469 C   0  0  2  0  0  0  0  0  0  0  0  0
   -5.0966    0.7303    1.8916 C   0  0  0  0  0  0  0  0  0  0  0  0
   -4.0226   -0.2896    1.9269 C   0  0  2  0  0  0  0  0  0  0  0  0
   -0.5465   -0.4996    1.2185 C   0  0  0  0  0  0  0  0  0  0  0  0
    2.8241    0.2124   -3.4010 C   0  0  0  0  0  0  0  0  0  0  0  0
    3.9628    0.7118   -3.9567 N   0  0  0  0  0  0  0  0  0  0  0  0
    6.8344    2.6566   -5.4454 H   0  0  0  0  0  0  0  0  0  0  0  0
    5.1868    1.9889   -5.5474 H   0  0  0  0  0  0  0  0  0  0  0  0
    6.6523    0.9316   -5.8224 H   0  0  0  0  0  0  0  0  0  0  0  0
    5.8777    0.9440   -1.2751 H   0  0  0  0  0  0  0  0  0  0  0  0
    2.3872   -0.6034    0.5275 H   0  0  0  0  0  0  0  0  0  0  0  0
    0.9573   -3.3531    0.4351 H   0  0  0  0  0  0  0  0  0  0  0  0
   -2.7095   -1.2136    4.3015 H   0  0  0  0  0  0  0  0  0  0  0  0
   -1.5837    0.1590    4.2824 H   0  0  0  0  0  0  0  0  0  0  0  0
   -2.1732    3.8983    1.4276 H   0  0  0  0  0  0  0  0  0  0  0  0
   -1.5027    3.2855   -0.1433 H   0  0  0  0  0  0  0  0  0  0  0  0
   -4.9199   -0.1811   -0.1609 H   0  0  0  0  0  0  0  0  0  0  0  0
   -4.9766    1.7237    2.3607 H   0  0  0  0  0  0  0  0  0  0  0  0
   -6.1334    0.3413    1.9633 H   0  0  0  0  0  0  0  0  0  0  0  0
   -4.3360   -1.3694    1.9422 H   0  0  0  0  0  0  0  0  0  0  0  0
   -0.4099    0.5676    1.0896 H   0  0  0  0  0  0  0  0  0  0  0  0
    1.9634    0.0062   -4.0008 H   0  0  0  0  0  0  0  0  0  0  0  0
  1  2  1  0
  2  3  1  0
  3  4  2  0
  4  5  1  0
  5  6  2  0
  6  7  1  0
  7  8  2  0
  7  9  1  0
  9 10  1  0
 10 11  2  0
 11 12  1  0
 12 13  1  0
 12 14  2  0
 14 15  1  0
 14 16  1  0
 16 17  1  0
 17 18  1  1
 18 19  1  0
 17 20  1  0
 20 21  2  0
 21 22  1  0
 21 23  1  0
 23 24  1  0
 24 25  1  0
 25 26  1  0
 16 27  2  0
  6 28  1  0
 28 29  2  0
 29  3  1  0
 27 10  1  0
 26 17  1  0
 26 24  1  0
  1 30  1  0
  1 31  1  0
  1 32  1  0
  4 33  1  0
  9 34  1  0
 11 35  1  0
 18 36  1  0
 18 37  1  0
 22 38  1  0
 22 39  1  0
 24 40  1  6
 25 41  1  0
 25 42  1  0
 26 43  1  6
 27 44  1  0
 28 45  1  0
M  END
$$$$
