
     RDKit          3D

 38 41  0  0  0  0  0  0  0  0999 V2000
    7.9389    1.4424   -1.0464 N   0  0  0  0  0  0  0  0  0  0  0  0
    7.0289    0.7253   -0.5515 C   0  0  0  0  0  0  0  0  0  0  0  0
    5.9998   -0.1132    0.0011 C   0  0  0  0  0  0  0  0  0  0  0  0
    6.1696   -0.5589    1.2274 C   0  0  0  0  0  0  0  0  0  0  0  0
    5.1834   -1.3545    1.8265 N   0  0  0  0  0  0  0  0  0  0  0  0
    4.0894   -1.5967    1.0254 C   0  0  0  0  0  0  0  0  0  0  0  0
    3.9168   -1.1346   -0.2385 C   0  0  0  0  0  0  0  0  0  0  0  0
    2.7190   -1.4612   -0.9279 O   0  0  0  0  0  0  0  0  0  0  0  0
    1.6562   -0.5592   -0.7699 C   0  0  0  0  0  0  0  0  0  0  0  0
    0.3571   -0.8005   -1.0833 C   0  0  0  0  0  0  0  0  0  0  0  0
   -0.5812    0.1517   -0.8880 C   0  0  0  0  0  0  0  0  0  0  0  0
   -2.0359   -0.0304   -1.0962 C   0  0  0  0  0  0  0  0  0  0  0  0
   -2.5517    0.0684   -2.2271 O   0  0  0  0  0  0  0  0  0  0  0  0
   -2.8711   -0.3203   -0.0117 N   0  0  0  0  0  0  0  0  0  0  0  0
   -4.2724   -0.5124    0.0366 C   0  0  0  0  0  0  0  0  0  0  0  0
   -4.8451   -0.6951    1.2889 C   0  0  0  0  0  0  0  0  0  0  0  0
   -6.2104   -0.8646    1.3745 C   0  0  0  0  0  0  0  0  0  0  0  0
   -7.0025   -0.8551    0.2599 C   0  0  0  0  0  0  0  0  0  0  0  0
   -8.3535   -1.0240    0.3835 F   0  0  0  0  0  0  0  0  0  0  0  0
   -6.4242   -0.6740   -0.9853 C   0  0  0  0  0  0  0  0  0  0  0  0
   -5.0519   -0.5061   -1.0359 N   0  0  0  0  0  0  0  0  0  0  0  0
   -0.2712    1.4170   -0.3635 C   0  0  0  0  0  0  0  0  0  0  0  0
   -0.9766    2.5377   -0.0719 N   0  0  0  0  0  0  0  0  0  0  0  0
   -0.1394    3.4603    0.4227 C   0  0  0  0  0  0  0  0  0  0  0  0
    1.0710    2.8991    0.4286 N   0  0  0  0  0  0  0  0  0  0  0  0
    1.0111    1.6484   -0.0542 N   0  0  0  0  0  0  0  0  0  0  0  0
    1.9491    0.7203   -0.2401 C   0  0  0  0  0  0  0  0  0  0  0  0
    4.8679   -0.3582   -0.8421 C   0  0  0  0  0  0  0  0  0  0  0  0
    7.0956   -0.3292    1.8169 H   0  0  0  0  0  0  0  0  0  0  0  0
    3.3259   -2.2191    1.5049 H   0  0  0  0  0  0  0  0  0  0  0  0
    0.0681   -1.7672   -1.4940 H   0  0  0  0  0  0  0  0  0  0  0  0
   -2.3213   -0.4012    0.9292 H   0  0  0  0  0  0  0  0  0  0  0  0
   -4.2466   -0.6863    2.1794 H   0  0  0  0  0  0  0  0  0  0  0  0
   -6.7141   -1.0206    2.3399 H   0  0  0  0  0  0  0  0  0  0  0  0
   -6.9988   -0.6555   -1.8761 H   0  0  0  0  0  0  0  0  0  0  0  0
   -0.3974    4.4795    0.7586 H   0  0  0  0  0  0  0  0  0  0  0  0
    2.9791    0.9087    0.0034 H   0  0  0  0  0  0  0  0  0  0  0  0
    4.8384    0.0394   -1.8064 H   0  0  0  0  0  0  0  0  0  0  0  0
  1  2  3  0
  2  3  1  0
  3  4  2  0
  4  5  1  0
  5  6  2  0
  6  7  1  0
  7  8  1  0
  8  9  1  0
  9 10  1  0
 10 11  2  0
 11 12  1  0
 12 13  2  0
 12 14  1  0
 14 15  1  0
 15 16  2  0
 16 17  1  0
 17 18  2  0
 18 19  1  0
 18 20  1  0
 20 21  2  0
 11 22  1  0
 22 23  2  0
 23 24  1  0
 24 25  2  0
 25 26  1  0
 26 27  1  0
  7 28  2  0
 28  3  1  0
 27  9  2  0
 21 15  1  0
 26 22  1  0
  4 29  1  0
  6 30  1  0
 10 31  1  0
 14 32  1  0
 16 33  1  0
 17 34  1  0
 20 35  1  0
 24 36  1  0
 27 37  1  0
 28 38  1  0
M  END
$$$$
