
     RDKit          3D

 72 77  0  0  0  0  0  0  0  0999 V2000
    4.5420    3.2120   -1.2526 C   0  0  0  0  0  0  0  0  0  0  0  0
    5.7351    2.5244   -0.6834 C   0  0  0  0  0  0  0  0  0  0  0  0
    6.9982    3.0768   -0.8860 C   0  0  0  0  0  0  0  0  0  0  0  0
    8.1406    2.4875   -0.3954 C   0  0  0  0  0  0  0  0  0  0  0  0
    9.4622    3.0647   -0.6076 C   0  0  0  0  0  0  0  0  0  0  0  0
    9.5843    4.1335   -1.2549 O   0  0  0  0  0  0  0  0  0  0  0  0
   10.6104    2.4725   -0.1161 O   0  0  0  0  0  0  0  0  0  0  0  0
    7.9660    1.3169    0.3098 C   0  0  0  0  0  0  0  0  0  0  0  0
    6.7315    0.7526    0.5232 C   0  0  0  0  0  0  0  0  0  0  0  0
    5.5755    1.3586    0.0209 C   0  0  0  0  0  0  0  0  0  0  0  0
    4.2655    0.7397    0.2693 C   0  0  0  0  0  0  0  0  0  0  0  0
    3.1677    1.4104    0.7361 C   0  0  0  0  0  0  0  0  0  0  0  0
    1.9343    0.7893    0.9545 C   0  0  0  0  0  0  0  0  0  0  0  0
    1.8374   -0.5534    0.6841 C   0  0  0  0  0  0  0  0  0  0  0  0
    0.6049   -1.2247    0.8935 N   0  0  0  0  0  0  0  0  0  0  0  0
    0.2699   -2.5892    0.6743 C   0  0  0  0  0  0  0  0  0  0  0  0
    1.0278   -3.5086    0.2330 O   0  0  0  0  0  0  0  0  0  0  0  0
   -1.1126   -2.8218    1.0327 N   0  0  0  0  0  0  0  0  0  0  0  0
   -1.6445   -4.0831    1.4110 C   0  0  0  0  0  0  0  0  0  0  0  0
   -2.1622   -4.9443    0.4653 C   0  0  0  0  0  0  0  0  0  0  0  0
   -2.6799   -6.1498    0.7569 N   0  0  0  0  0  0  0  0  0  0  0  0
   -2.7077   -6.5649    2.0310 C   0  0  0  0  0  0  0  0  0  0  0  0
   -2.1988   -5.7302    3.0026 C   0  0  0  0  0  0  0  0  0  0  0  0
   -1.6807   -4.5173    2.6873 N   0  0  0  0  0  0  0  0  0  0  0  0
   -1.7416   -1.5258    0.9086 C   0  0  0  0  0  0  0  0  0  0  0  0
   -2.9768   -1.3711    1.7120 C   0  0  0  0  0  0  0  0  0  0  0  0
   -4.1971   -1.4711    0.8083 C   0  0  0  0  0  0  0  0  0  0  0  0
   -4.2280   -0.2764    0.0116 N   0  0  0  0  0  0  0  0  0  0  0  0
   -5.4102   -0.1772   -0.8053 C   0  0  0  0  0  0  0  0  0  0  0  0
   -5.3604    1.0788   -1.5879 C   0  0  0  0  0  0  0  0  0  0  0  0
   -5.0566    1.0900   -2.9113 N   0  0  0  0  0  0  0  0  0  0  0  0
   -5.0047    2.2068   -3.6425 C   0  0  0  0  0  0  0  0  0  0  0  0
   -5.2711    3.4149   -3.0337 C   0  0  0  0  0  0  0  0  0  0  0  0
   -5.5845    3.4511   -1.6903 C   0  0  0  0  0  0  0  0  0  0  0  0
   -5.6306    2.2820   -0.9608 C   0  0  0  0  0  0  0  0  0  0  0  0
   -5.9663    2.3014    0.4875 C   0  0  0  0  0  0  0  0  0  0  0  0
   -3.0410   -0.1807   -0.7810 C   0  0  0  0  0  0  0  0  0  0  0  0
   -2.0416   -1.2690   -0.5432 C   0  0  0  0  0  0  0  0  0  0  0  0
   -0.6218   -0.6510    1.3941 C   0  0  0  0  0  0  0  0  0  0  0  0
   -0.7558    0.3613    2.0890 O   0  0  0  0  0  0  0  0  0  0  0  0
    2.9349   -1.2307    0.2162 C   0  0  0  0  0  0  0  0  0  0  0  0
    4.1689   -0.6093   -0.0025 C   0  0  0  0  0  0  0  0  0  0  0  0
    4.7976    3.6104   -2.2811 H   0  0  0  0  0  0  0  0  0  0  0  0
    3.6950    2.5142   -1.3974 H   0  0  0  0  0  0  0  0  0  0  0  0
    4.2173    4.0109   -0.5807 H   0  0  0  0  0  0  0  0  0  0  0  0
    7.0935    3.9980   -1.4457 H   0  0  0  0  0  0  0  0  0  0  0  0
   11.4090    3.0288    0.2172 H   0  0  0  0  0  0  0  0  0  0  0  0
    8.8709    0.8390    0.7051 H   0  0  0  0  0  0  0  0  0  0  0  0
    6.6088   -0.1707    1.0811 H   0  0  0  0  0  0  0  0  0  0  0  0
    3.2620    2.4599    0.9479 H   0  0  0  0  0  0  0  0  0  0  0  0
    1.1445    1.4010    1.3173 H   0  0  0  0  0  0  0  0  0  0  0  0
   -2.1229   -4.5714   -0.5684 H   0  0  0  0  0  0  0  0  0  0  0  0
   -3.1158   -7.5324    2.3232 H   0  0  0  0  0  0  0  0  0  0  0  0
   -2.1906   -6.0064    4.0581 H   0  0  0  0  0  0  0  0  0  0  0  0
   -3.0546   -2.0260    2.5962 H   0  0  0  0  0  0  0  0  0  0  0  0
   -2.9918   -0.3167    2.1119 H   0  0  0  0  0  0  0  0  0  0  0  0
   -5.1322   -1.5114    1.3900 H   0  0  0  0  0  0  0  0  0  0  0  0
   -4.1726   -2.3397    0.1468 H   0  0  0  0  0  0  0  0  0  0  0  0
   -6.3411   -0.2873   -0.2525 H   0  0  0  0  0  0  0  0  0  0  0  0
   -5.3526   -1.0261   -1.5473 H   0  0  0  0  0  0  0  0  0  0  0  0
   -4.7521    2.1464   -4.7110 H   0  0  0  0  0  0  0  0  0  0  0  0
   -5.2244    4.3107   -3.6420 H   0  0  0  0  0  0  0  0  0  0  0  0
   -5.7934    4.4142   -1.2205 H   0  0  0  0  0  0  0  0  0  0  0  0
   -5.0543    1.9576    1.0251 H   0  0  0  0  0  0  0  0  0  0  0  0
   -6.1398    3.3507    0.8080 H   0  0  0  0  0  0  0  0  0  0  0  0
   -6.8583    1.6953    0.7143 H   0  0  0  0  0  0  0  0  0  0  0  0
   -2.5158    0.7990   -0.6290 H   0  0  0  0  0  0  0  0  0  0  0  0
   -3.3118   -0.2098   -1.8573 H   0  0  0  0  0  0  0  0  0  0  0  0
   -1.0802   -0.9334   -1.0147 H   0  0  0  0  0  0  0  0  0  0  0  0
   -2.3065   -2.2116   -1.0664 H   0  0  0  0  0  0  0  0  0  0  0  0
    2.9230   -2.2823   -0.0137 H   0  0  0  0  0  0  0  0  0  0  0  0
    5.0066   -1.1861   -0.3727 H   0  0  0  0  0  0  0  0  0  0  0  0
  1  2  1  0
  2  3  2  0
  3  4  1  0
  4  5  1  0
  5  6  2  0
  5  7  1  0
  4  8  2  0
  8  9  1  0
  9 10  2  0
 10 11  1  0
 11 12  2  0
 12 13  1  0
 13 14  2  0
 14 15  1  0
 15 16  1  0
 16 17  2  0
 16 18  1  0
 18 19  1  0
 19 20  2  0
 20 21  1  0
 21 22  2  0
 22 23  1  0
 23 24  2  0
 18 25  1  0
 25 26  1  0
 26 27  1  0
 27 28  1  0
 28 29  1  0
 29 30  1  0
 30 31  2  0
 31 32  1  0
 32 33  2  0
 33 34  1  0
 34 35  2  0
 35 36  1  0
 28 37  1  0
 37 38  1  0
 25 39  1  0
 39 40  2  0
 14 41  1  0
 41 42  2  0
 10  2  1  0
 42 11  1  0
 39 15  1  0
 24 19  1  0
 38 25  1  0
 35 30  1  0
  1 43  1  0
  1 44  1  0
  1 45  1  0
  3 46  1  0
  7 47  1  0
  8 48  1  0
  9 49  1  0
 12 50  1  0
 13 51  1  0
 20 52  1  0
 22 53  1  0
 23 54  1  0
 26 55  1  0
 26 56  1  0
 27 57  1  0
 27 58  1  0
 29 59  1  0
 29 60  1  0
 32 61  1  0
 33 62  1  0
 34 63  1  0
 36 64  1  0
 36 65  1  0
 36 66  1  0
 37 67  1  0
 37 68  1  0
 38 69  1  0
 38 70  1  0
 41 71  1  0
 42 72  1  0
M  END
$$$$
