
     RDKit          3D

 37 39  0  0  0  0  0  0  0  0999 V2000
   -1.3784    0.5418   -1.4272 O   0  0  0  0  0  0  0  0  0  0  0  0
   -1.2690   -0.3539   -0.5615 C   0  0  0  0  0  0  0  0  0  0  0  0
   -2.4428   -0.8462    0.0736 N   0  0  0  0  0  0  0  0  0  0  0  0
   -3.7451   -0.3395   -0.2559 C   0  0  0  0  0  0  0  0  0  0  0  0
   -4.2826    0.7293    0.4135 C   0  0  0  0  0  0  0  0  0  0  0  0
   -5.5323    1.1920    0.0754 C   0  0  0  0  0  0  0  0  0  0  0  0
   -6.2733    0.6087   -0.9287 C   0  0  0  0  0  0  0  0  0  0  0  0
   -5.7019   -0.4352   -1.5538 N   0  0  0  0  0  0  0  0  0  0  0  0
   -4.4855   -0.9203   -1.2572 C   0  0  0  0  0  0  0  0  0  0  0  0
    0.0270   -0.9197   -0.1731 C   0  0  2  0  0  0  0  0  0  0  0  0
    0.4410   -0.2947    1.2588 C   0  0  0  0  0  0  0  0  0  0  0  0
    1.9465   -0.0093    1.2116 C   0  0  0  0  0  0  0  0  0  0  0  0
    2.4365    0.9747    0.2060 C   0  0  2  0  0  0  0  0  0  0  0  0
    1.2046    1.1173   -0.7731 C   0  0  0  0  0  0  0  0  0  0  0  0
    1.1501   -0.3812   -0.8277 N   0  0  0  0  0  0  0  0  0  0  0  0
    2.3836   -0.6679   -1.3823 C   0  0  0  0  0  0  0  0  0  0  0  0
    2.6360   -1.5502   -2.2058 O   0  0  0  0  0  0  0  0  0  0  0  0
    3.3248    0.3017   -0.7749 N   0  0  0  0  0  0  0  0  0  0  0  0
    4.5799    0.4273   -1.1095 O   0  0  0  0  0  0  0  0  0  0  0  0
    5.5378   -0.5692   -0.1862 S   0  0  0  0  0  6  0  0  0  0  0  0
    4.8320   -1.8621    0.0259 O   0  0  0  0  0  0  0  0  0  0  0  0
    6.8719   -0.7922   -0.8682 O   0  0  0  0  0  0  0  0  0  0  0  0
    5.8837    0.2109    1.2730 O   0  0  0  0  0  0  0  0  0  0  0  0
   -2.4332   -1.5943    0.8072 H   0  0  0  0  0  0  0  0  0  0  0  0
   -3.7082    1.1937    1.2033 H   0  0  0  0  0  0  0  0  0  0  0  0
   -5.9911    2.0381    0.5848 H   0  0  0  0  0  0  0  0  0  0  0  0
   -7.2716    0.9735   -1.2033 H   0  0  0  0  0  0  0  0  0  0  0  0
   -4.0882   -1.7805   -1.8177 H   0  0  0  0  0  0  0  0  0  0  0  0
   -0.0540   -1.9909   -0.0592 H   0  0  0  0  0  0  0  0  0  0  0  0
   -0.1773    0.5615    1.4508 H   0  0  0  0  0  0  0  0  0  0  0  0
    0.2795   -1.0880    1.9787 H   0  0  0  0  0  0  0  0  0  0  0  0
    2.1935    0.3358    2.2254 H   0  0  0  0  0  0  0  0  0  0  0  0
    2.4053   -1.0246    1.0178 H   0  0  0  0  0  0  0  0  0  0  0  0
    2.7903    1.9241    0.5422 H   0  0  0  0  0  0  0  0  0  0  0  0
    1.5933    1.5550   -1.6659 H   0  0  0  0  0  0  0  0  0  0  0  0
    0.3672    1.5553   -0.2641 H   0  0  0  0  0  0  0  0  0  0  0  0
    5.9500    1.1792    1.0450 H   0  0  0  0  0  0  0  0  0  0  0  0
  1  2  2  0
  2  3  1  0
  3  4  1  0
  4  5  2  0
  5  6  1  0
  6  7  2  0
  7  8  1  0
  8  9  2  0
  2 10  1  0
 10 11  1  0
 11 12  1  0
 12 13  1  0
 13 14  1  0
 14 15  1  0
 15 16  1  0
 16 17  2  0
 16 18  1  0
 18 19  1  0
 19 20  1  0
 20 21  2  0
 20 22  2  0
 20 23  1  0
  9  4  1  0
 15 10  1  0
 18 13  1  0
  3 24  1  0
  5 25  1  0
  6 26  1  0
  7 27  1  0
  9 28  1  0
 10 29  1  1
 11 30  1  0
 11 31  1  0
 12 32  1  0
 12 33  1  0
 13 34  1  1
 14 35  1  0
 14 36  1  0
 23 37  1  0
M  END
$$$$
