
     RDKit          3D

 15 14  0  0  0  0  0  0  0  0999 V2000
   -2.6427    1.4485   -0.1738 O   0  0  0  0  0  0  0  0  0  0  0  0
   -1.5190    0.9145    0.4421 C   0  0  0  0  0  0  0  0  0  0  0  0
   -0.9506    1.4161    1.4460 O   0  0  0  0  0  0  0  0  0  0  0  0
   -0.9697   -0.3132   -0.1241 C   0  0  0  0  0  0  0  0  0  0  0  0
   -1.5677   -0.8433   -1.1824 C   0  0  0  0  0  0  0  0  0  0  0  0
    0.1501   -0.9506    0.3954 O   0  0  0  0  0  0  0  0  0  0  0  0
    1.7401   -0.3649    0.2797 P   0  0  0  0  0  0  0  0  0  0  0  0
    2.4587   -0.5930    1.8061 O   0  0  0  0  0  0  0  0  0  0  0  0
    1.8252    1.2588   -0.1370 O   0  0  0  0  0  0  0  0  0  0  0  0
    2.5522   -1.1789   -0.7150 O   0  0  0  0  0  0  0  0  0  0  0  0
   -2.9961    2.3498    0.1585 H   0  0  0  0  0  0  0  0  0  0  0  0
   -2.1088   -1.2145   -2.0428 H   0  0  0  0  0  0  0  0  0  0  0  0
   -1.2000   -1.7537   -1.6409 H   0  0  0  0  0  0  0  0  0  0  0  0
    2.4724   -1.5936    1.9386 H   0  0  0  0  0  0  0  0  0  0  0  0
    2.7560    1.4182   -0.4504 H   0  0  0  0  0  0  0  0  0  0  0  0
  1  2  1  0
  2  3  2  0
  2  4  1  0
  4  5  2  0
  4  6  1  0
  6  7  1  0
  7  8  1  0
  7  9  1  0
  7 10  2  0
  1 11  1  0
  5 12  1  0
  5 13  1  0
  8 14  1  0
  9 15  1  0
M  END
$$$$
