
     RDKit          3D

 44 46  0  0  0  0  0  0  0  0999 V2000
   -4.7241   -2.2910   -1.0448 N   0  0  0  0  0  0  0  0  0  0  0  0
   -3.8949   -1.2795   -0.5131 C   0  0  0  0  0  0  0  0  0  0  0  0
   -3.4796   -0.2515   -1.1112 N   0  0  0  0  0  0  0  0  0  0  0  0
   -2.6575    0.8066   -0.6769 C   0  0  2  0  0  0  0  0  0  0  0  0
   -3.2726    2.1387   -0.9665 C   0  0  0  0  0  0  0  0  0  0  0  0
   -3.5151    2.3650   -2.2843 F   0  0  0  0  0  0  0  0  0  0  0  0
   -1.3549    0.6919   -1.4196 C   0  0  0  0  0  0  0  0  0  0  0  0
   -0.1953    0.6200   -0.7336 N   0  0  0  0  0  0  0  0  0  0  0  0
    0.9796    0.5589   -1.3551 C   0  0  0  0  0  0  0  0  0  0  0  0
    2.2208    0.4819   -0.6071 N   0  0  0  0  0  0  0  0  0  0  0  0
    2.7722   -0.7761   -0.2443 C   0  0  0  0  0  0  0  0  0  0  0  0
    2.1218   -1.8048   -0.6095 O   0  0  0  0  0  0  0  0  0  0  0  0
    4.0065   -0.9165    0.5012 C   0  0  0  0  0  0  0  0  0  0  0  0
    4.7661    0.0914    0.9328 N   0  0  0  0  0  0  0  0  0  0  0  0
    5.8266   -0.3536    1.5813 N   0  0  0  0  0  0  0  0  0  0  0  0
    6.8172    0.5377    2.1546 C   0  0  0  0  0  0  0  0  0  0  0  0
    6.9848    1.6092    1.2716 F   0  0  0  0  0  0  0  0  0  0  0  0
    8.0233   -0.1050    2.3294 F   0  0  0  0  0  0  0  0  0  0  0  0
    5.7791   -1.6936    1.5860 C   0  0  0  0  0  0  0  0  0  0  0  0
    4.6253   -2.0781    0.9020 C   0  0  0  0  0  0  0  0  0  0  0  0
    4.1115   -3.7298    0.6341 Cl  0  0  0  0  0  0  0  0  0  0  0  0
    1.0465    0.5674   -2.7242 C   0  0  0  0  0  0  0  0  0  0  0  0
   -0.0962    0.6381   -3.4655 C   0  0  0  0  0  0  0  0  0  0  0  0
   -1.3153    0.7002   -2.7828 C   0  0  0  0  0  0  0  0  0  0  0  0
   -2.4357    0.7243   -3.5635 F   0  0  0  0  0  0  0  0  0  0  0  0
   -2.3390    0.7151    0.8284 C   0  0  0  0  0  0  0  0  0  0  0  0
   -3.1297   -0.2752    1.5758 C   0  0  1  0  0  0  0  0  0  0  0  0
   -4.3693    0.2428    2.2568 C   0  0  0  0  0  0  0  0  0  0  0  0
   -4.0818    1.2270    3.1827 F   0  0  0  0  0  0  0  0  0  0  0  0
   -4.8732   -0.8414    2.9933 F   0  0  0  0  0  0  0  0  0  0  0  0
   -5.3700    0.6143    1.4100 F   0  0  0  0  0  0  0  0  0  0  0  0
   -3.4818   -1.4236    0.8275 O   0  0  0  0  0  0  0  0  0  0  0  0
   -4.4539   -3.2825   -0.8595 H   0  0  0  0  0  0  0  0  0  0  0  0
   -5.5829   -2.1142   -1.6067 H   0  0  0  0  0  0  0  0  0  0  0  0
   -4.2905    2.2164   -0.4613 H   0  0  0  0  0  0  0  0  0  0  0  0
   -2.6303    2.9854   -0.6106 H   0  0  0  0  0  0  0  0  0  0  0  0
    2.7385    1.3313   -0.3172 H   0  0  0  0  0  0  0  0  0  0  0  0
    6.4592    0.9252    3.1226 H   0  0  0  0  0  0  0  0  0  0  0  0
    6.5166   -2.3292    2.0451 H   0  0  0  0  0  0  0  0  0  0  0  0
    2.0433    0.5157   -3.1831 H   0  0  0  0  0  0  0  0  0  0  0  0
   -0.0666    0.6462   -4.5555 H   0  0  0  0  0  0  0  0  0  0  0  0
   -1.2403    0.5432    0.9437 H   0  0  0  0  0  0  0  0  0  0  0  0
   -2.5105    1.7222    1.2529 H   0  0  0  0  0  0  0  0  0  0  0  0
   -2.4779   -0.6704    2.4121 H   0  0  0  0  0  0  0  0  0  0  0  0
  1  2  1  0
  2  3  2  0
  3  4  1  0
  4  5  1  1
  5  6  1  0
  4  7  1  0
  7  8  2  0
  8  9  1  0
  9 10  1  0
 10 11  1  0
 11 12  2  0
 11 13  1  0
 13 14  2  0
 14 15  1  0
 15 16  1  0
 16 17  1  0
 16 18  1  0
 15 19  1  0
 19 20  2  0
 20 21  1  0
  9 22  2  0
 22 23  1  0
 23 24  2  0
 24 25  1  0
  4 26  1  0
 26 27  1  0
 27 28  1  0
 28 29  1  0
 28 30  1  0
 28 31  1  0
 27 32  1  0
 32  2  1  0
 24  7  1  0
 20 13  1  0
  1 33  1  0
  1 34  1  0
  5 35  1  0
  5 36  1  0
 10 37  1  0
 16 38  1  0
 19 39  1  0
 22 40  1  0
 23 41  1  0
 26 42  1  0
 26 43  1  0
 27 44  1  1
M  END
$$$$
