
     RDKit          3D

 51 55  0  0  0  0  0  0  0  0999 V2000
   -5.5476   -3.0669   -1.3008 C   0  0  0  0  0  0  0  0  0  0  0  0
   -5.4340   -1.6344   -0.8551 C   0  0  0  0  0  0  0  0  0  0  0  0
   -4.4856   -1.1029   -0.1341 N   0  0  0  0  0  0  0  0  0  0  0  0
   -4.3241   -0.0341    0.2482 C   0  0  0  0  0  0  0  0  0  0  0  0
   -3.4394    0.8783    1.0330 C   0  0  0  0  0  0  0  0  0  0  0  0
   -3.7481    1.4356    2.2257 N   0  0  0  0  0  0  0  0  0  0  0  0
   -2.7273    2.1892    2.6105 N   0  0  0  0  0  0  0  0  0  0  0  0
   -1.7469    2.1336    1.6807 C   0  0  0  0  0  0  0  0  0  0  0  0
   -2.2194    1.3225    0.7342 N   0  0  0  0  0  0  0  0  0  0  0  0
   -1.3702    1.0464   -0.4104 C   0  0  0  0  0  0  0  0  0  0  0  0
    0.0659    0.8423    0.0321 C   0  0  0  0  0  0  0  0  0  0  0  0
    0.5057    1.8514    0.9424 N   0  0  0  0  0  0  0  0  0  0  0  0
    1.8931    1.9555    1.2271 C   0  0  0  0  0  0  0  0  0  0  0  0
    2.3049    2.8272    2.0335 O   0  0  0  0  0  0  0  0  0  0  0  0
    2.8882    1.0916    0.6233 C   0  0  0  0  0  0  0  0  0  0  0  0
    3.6714    1.5149   -0.4597 C   0  0  0  0  0  0  0  0  0  0  0  0
    4.6048    0.6467   -0.9845 C   0  0  0  0  0  0  0  0  0  0  0  0
    4.8008   -0.6187   -0.4908 C   0  0  0  0  0  0  0  0  0  0  0  0
    5.7966   -1.5019   -1.0838 C   0  0  0  0  0  0  0  0  0  0  0  0
    6.2005   -2.7296   -0.7726 C   0  0  0  0  0  0  0  0  0  0  0  0
    7.1647   -3.3292   -1.4932 C   0  0  0  0  0  0  0  0  0  0  0  0
    7.7025   -2.6250   -2.5453 C   0  0  0  0  0  0  0  0  0  0  0  0
    6.7698   -1.0761   -2.4562 S   0  0  0  0  0  0  0  0  0  0  0  0
    4.0480   -1.0319    0.5535 C   0  0  0  0  0  0  0  0  0  0  0  0
    3.0990   -0.1757    1.1014 C   0  0  0  0  0  0  0  0  0  0  0  0
   -0.4152    2.7609    1.5395 C   0  0  2  0  0  0  0  0  0  0  0  0
    0.0543    3.3434    2.8605 C   0  0  0  0  0  0  0  0  0  0  0  0
   -5.8916    0.8044   -0.4875 S   0  0  0  0  0  0  0  0  0  0  0  0
   -6.4363   -0.7034   -1.2206 C   0  0  0  0  0  0  0  0  0  0  0  0
   -7.6651   -0.9570   -2.0343 C   0  0  0  0  0  0  0  0  0  0  0  0
   -4.5571   -3.5349   -1.4674 H   0  0  0  0  0  0  0  0  0  0  0  0
   -6.0688   -3.1234   -2.2901 H   0  0  0  0  0  0  0  0  0  0  0  0
   -6.1851   -3.5974   -0.5804 H   0  0  0  0  0  0  0  0  0  0  0  0
   -1.4246    1.8519   -1.1361 H   0  0  0  0  0  0  0  0  0  0  0  0
   -1.6860    0.0821   -0.8576 H   0  0  0  0  0  0  0  0  0  0  0  0
    0.1741   -0.1815    0.4709 H   0  0  0  0  0  0  0  0  0  0  0  0
    0.6862    0.8548   -0.8878 H   0  0  0  0  0  0  0  0  0  0  0  0
    3.5034    2.5179   -0.8384 H   0  0  0  0  0  0  0  0  0  0  0  0
    5.2015    1.0018   -1.8277 H   0  0  0  0  0  0  0  0  0  0  0  0
    5.7308   -3.2621    0.0987 H   0  0  0  0  0  0  0  0  0  0  0  0
    7.5629   -4.3602   -1.2960 H   0  0  0  0  0  0  0  0  0  0  0  0
    8.4821   -2.8634   -3.2821 H   0  0  0  0  0  0  0  0  0  0  0  0
    4.1681   -2.0113    0.9710 H   0  0  0  0  0  0  0  0  0  0  0  0
    2.5227   -0.5583    1.9366 H   0  0  0  0  0  0  0  0  0  0  0  0
   -0.4855    3.6678    0.8522 H   0  0  0  0  0  0  0  0  0  0  0  0
    0.6174    4.2508    2.6656 H   0  0  0  0  0  0  0  0  0  0  0  0
    0.5213    2.5958    3.5149 H   0  0  0  0  0  0  0  0  0  0  0  0
   -0.8958    3.6422    3.4036 H   0  0  0  0  0  0  0  0  0  0  0  0
   -8.3014   -0.0277   -2.0574 H   0  0  0  0  0  0  0  0  0  0  0  0
   -7.3817   -1.2610   -3.0711 H   0  0  0  0  0  0  0  0  0  0  0  0
   -8.3039   -1.7409   -1.5795 H   0  0  0  0  0  0  0  0  0  0  0  0
  1  2  1  0
  2  3  1  0
  3  4  2  0
  4  5  1  0
  5  6  2  0
  6  7  1  0
  7  8  2  0
  8  9  1  0
  9 10  1  0
 10 11  1  0
 11 12  1  0
 12 13  1  0
 13 14  2  0
 13 15  1  0
 15 16  2  0
 16 17  1  0
 17 18  2  0
 18 19  1  0
 19 20  2  0
 20 21  1  0
 21 22  2  0
 22 23  1  0
 18 24  1  0
 24 25  2  0
 12 26  1  0
 26 27  1  0
  4 28  1  0
 28 29  1  0
 29 30  1  0
 29  2  2  0
  9  5  1  0
 25 15  1  0
 26  8  1  0
 23 19  1  0
  1 31  1  0
  1 32  1  0
  1 33  1  0
 10 34  1  0
 10 35  1  0
 11 36  1  0
 11 37  1  0
 16 38  1  0
 17 39  1  0
 20 40  1  0
 21 41  1  0
 22 42  1  0
 24 43  1  0
 25 44  1  0
 26 45  1  6
 27 46  1  0
 27 47  1  0
 27 48  1  0
 30 49  1  0
 30 50  1  0
 30 51  1  0
M  END
$$$$
