
     RDKit          3D

 40 42  0  0  0  0  0  0  0  0999 V2000
   -2.8172   -0.5125   -1.5730 O   0  0  0  0  0  0  0  0  0  0  0  0
   -3.2729   -0.1708   -0.4447 C   0  0  0  0  0  0  0  0  0  0  0  0
   -2.5645    0.8077    0.2960 N   0  0  0  0  0  0  0  0  0  0  0  0
   -1.3651    1.4131   -0.1870 C   0  0  0  0  0  0  0  0  0  0  0  0
   -1.3149    2.5518   -0.9398 C   0  0  0  0  0  0  0  0  0  0  0  0
   -0.1147    3.0717   -1.3667 C   0  0  0  0  0  0  0  0  0  0  0  0
    1.0724    2.4305   -1.0287 C   0  0  0  0  0  0  0  0  0  0  0  0
    1.0728    1.2980   -0.2835 C   0  0  0  0  0  0  0  0  0  0  0  0
    2.2186    0.5636    0.1188 N   0  0  0  0  0  0  0  0  0  0  0  0
    3.5654    0.8688   -0.1771 C   0  0  0  0  0  0  0  0  0  0  0  0
    3.8110    1.8867   -0.8642 O   0  0  0  0  0  0  0  0  0  0  0  0
    4.6907    0.0294    0.2957 C   0  0  0  0  0  0  0  0  0  0  0  0
    4.5313   -1.0895    1.0432 C   0  0  0  0  0  0  0  0  0  0  0  0
    5.6684   -1.8076    1.4354 C   0  0  0  0  0  0  0  0  0  0  0  0
    6.9415   -1.4206    1.0908 C   0  0  0  0  0  0  0  0  0  0  0  0
    7.0574   -0.2768    0.3301 C   0  0  0  0  0  0  0  0  0  0  0  0
    5.9668    0.4502   -0.0713 C   0  0  0  0  0  0  0  0  0  0  0  0
   -0.1678    0.8056    0.1281 C   0  0  0  0  0  0  0  0  0  0  0  0
   -4.4875   -0.7866    0.0397 C   0  0  0  0  0  0  0  0  0  0  0  0
   -5.1252   -1.7390   -0.7454 C   0  0  0  0  0  0  0  0  0  0  0  0
   -6.2833   -2.3463   -0.3167 C   0  0  0  0  0  0  0  0  0  0  0  0
   -6.8650   -2.0468    0.8975 C   0  0  0  0  0  0  0  0  0  0  0  0
   -6.2473   -1.1041    1.6914 C   0  0  0  0  0  0  0  0  0  0  0  0
   -5.0795   -0.5023    1.2416 C   0  0  0  0  0  0  0  0  0  0  0  0
   -2.9602    1.0739    1.2254 H   0  0  0  0  0  0  0  0  0  0  0  0
   -2.2196    3.0578   -1.2088 H   0  0  0  0  0  0  0  0  0  0  0  0
   -0.1428    3.9725   -1.9574 H   0  0  0  0  0  0  0  0  0  0  0  0
    1.9683    2.8787   -1.3868 H   0  0  0  0  0  0  0  0  0  0  0  0
    2.1044   -0.3211    0.7090 H   0  0  0  0  0  0  0  0  0  0  0  0
    3.5571   -1.4449    1.3458 H   0  0  0  0  0  0  0  0  0  0  0  0
    5.5589   -2.6992    2.0297 H   0  0  0  0  0  0  0  0  0  0  0  0
    7.8311   -1.9494    1.3760 H   0  0  0  0  0  0  0  0  0  0  0  0
    8.0501    0.0623    0.0369 H   0  0  0  0  0  0  0  0  0  0  0  0
    6.1208    1.3528   -0.6760 H   0  0  0  0  0  0  0  0  0  0  0  0
   -0.1624   -0.0964    0.7212 H   0  0  0  0  0  0  0  0  0  0  0  0
   -4.6857   -1.9910   -1.7053 H   0  0  0  0  0  0  0  0  0  0  0  0
   -6.7999   -3.1017   -0.9259 H   0  0  0  0  0  0  0  0  0  0  0  0
   -7.7771   -2.5256    1.2345 H   0  0  0  0  0  0  0  0  0  0  0  0
   -6.7026   -0.8683    2.6441 H   0  0  0  0  0  0  0  0  0  0  0  0
   -4.6316    0.2253    1.8900 H   0  0  0  0  0  0  0  0  0  0  0  0
  1  2  2  0
  2  3  1  0
  3  4  1  0
  4  5  2  0
  5  6  1  0
  6  7  2  0
  7  8  1  0
  8  9  1  0
  9 10  1  0
 10 11  2  0
 10 12  1  0
 12 13  2  0
 13 14  1  0
 14 15  2  0
 15 16  1  0
 16 17  2  0
  8 18  2  0
  2 19  1  0
 19 20  2  0
 20 21  1  0
 21 22  2  0
 22 23  1  0
 23 24  2  0
 18  4  1  0
 24 19  1  0
 17 12  1  0
  3 25  1  0
  5 26  1  0
  6 27  1  0
  7 28  1  0
  9 29  1  0
 13 30  1  0
 14 31  1  0
 15 32  1  0
 16 33  1  0
 17 34  1  0
 18 35  1  0
 20 36  1  0
 21 37  1  0
 22 38  1  0
 23 39  1  0
 24 40  1  0
M  END
$$$$
