
     RDKit          3D

 52 56  0  0  0  0  0  0  0  0999 V2000
   -7.7205    3.0774   -0.2403 C   0  0  0  0  0  0  0  0  0  0  0  0
   -6.3550    2.4610   -0.1692 C   0  0  0  0  0  0  0  0  0  0  0  0
   -5.2316    3.1146    0.2726 C   0  0  0  0  0  0  0  0  0  0  0  0
   -4.2299    2.2233    0.1790 N   0  0  0  0  0  0  0  0  0  0  0  0
   -4.7076    1.0591   -0.3020 C   0  0  0  0  0  0  0  0  0  0  0  0
   -3.8855   -0.1408   -0.5335 C   0  0  2  0  0  0  0  0  0  0  0  0
   -3.7158   -1.0906    0.6207 C   0  0  0  0  0  0  0  0  0  0  0  0
   -2.5793   -0.2673    0.0932 C   0  0  1  0  0  0  0  0  0  0  0  0
   -1.4811   -0.8413   -0.7272 C   0  0  1  0  0  0  0  0  0  0  0  0
   -1.0226    0.2239   -1.7216 C   0  0  0  0  0  0  0  0  0  0  0  0
   -0.3218   -1.1361    0.1410 C   0  0  0  0  0  0  0  0  0  0  0  0
    0.8833   -0.4301    0.0401 C   0  0  0  0  0  0  0  0  0  0  0  0
    1.9578   -0.7153    0.8546 C   0  0  0  0  0  0  0  0  0  0  0  0
    3.2275    0.0298    0.7583 C   0  0  0  0  0  0  0  0  0  0  0  0
    4.3946   -0.5571    0.7848 C   0  0  0  0  0  0  0  0  0  0  0  0
    4.3713   -1.9173    0.9056 F   0  0  0  0  0  0  0  0  0  0  0  0
    5.6905    0.1003    0.7106 C   0  0  0  0  0  0  0  0  0  0  0  0
    6.8347   -0.6799    0.7231 C   0  0  0  0  0  0  0  0  0  0  0  0
    8.0954   -0.1507    0.6657 C   0  0  0  0  0  0  0  0  0  0  0  0
    8.2159    1.2291    0.5920 C   0  0  0  0  0  0  0  0  0  0  0  0
    9.5519    1.7420    0.5327 C   0  0  0  0  0  0  0  0  0  0  0  0
   10.6482    2.1815    0.4947 N   0  0  0  0  0  0  0  0  0  0  0  0
    7.0993    2.0133    0.5784 C   0  0  0  0  0  0  0  0  0  0  0  0
    5.8612    1.4296    0.6379 N   0  0  0  0  0  0  0  0  0  0  0  0
    1.8707   -1.7153    1.8018 C   0  0  0  0  0  0  0  0  0  0  0  0
    0.6849   -2.4232    1.9141 C   0  0  0  0  0  0  0  0  0  0  0  0
   -0.3836   -2.1303    1.0940 C   0  0  0  0  0  0  0  0  0  0  0  0
   -1.5082   -2.8962    1.2891 F   0  0  0  0  0  0  0  0  0  0  0  0
   -1.8087   -2.0106   -1.4712 N   0  0  0  0  0  0  0  0  0  0  0  0
   -2.8497   -2.2307   -2.1819 C   0  0  0  0  0  0  0  0  0  0  0  0
   -3.1223   -3.4110   -2.8992 N   0  0  0  0  0  0  0  0  0  0  0  0
   -4.0104   -0.8368   -2.1960 S   0  0  0  0  0  0  0  0  0  0  0  0
   -5.9914    1.2572   -0.4942 O   0  0  0  0  0  0  0  0  0  0  0  0
   -8.4355    2.3406    0.1357 H   0  0  0  0  0  0  0  0  0  0  0  0
   -7.7616    4.0171    0.3404 H   0  0  0  0  0  0  0  0  0  0  0  0
   -7.9964    3.3306   -1.2822 H   0  0  0  0  0  0  0  0  0  0  0  0
   -5.1888    4.1326    0.6183 H   0  0  0  0  0  0  0  0  0  0  0  0
   -4.1658   -0.8655    1.5942 H   0  0  0  0  0  0  0  0  0  0  0  0
   -3.8732   -2.1451    0.3206 H   0  0  0  0  0  0  0  0  0  0  0  0
   -2.2622    0.5311    0.7862 H   0  0  0  0  0  0  0  0  0  0  0  0
   -0.1459   -0.1756   -2.3081 H   0  0  0  0  0  0  0  0  0  0  0  0
   -1.8236    0.3898   -2.4501 H   0  0  0  0  0  0  0  0  0  0  0  0
   -0.8165    1.1820   -1.2305 H   0  0  0  0  0  0  0  0  0  0  0  0
    0.9762    0.3710   -0.7057 H   0  0  0  0  0  0  0  0  0  0  0  0
    3.1916    1.1020    0.6614 H   0  0  0  0  0  0  0  0  0  0  0  0
    6.7394   -1.7559    0.7796 H   0  0  0  0  0  0  0  0  0  0  0  0
    8.9793   -0.7987    0.6778 H   0  0  0  0  0  0  0  0  0  0  0  0
    7.2071    3.1037    0.5190 H   0  0  0  0  0  0  0  0  0  0  0  0
    2.7227   -1.9058    2.4244 H   0  0  0  0  0  0  0  0  0  0  0  0
    0.6634   -3.2051    2.6778 H   0  0  0  0  0  0  0  0  0  0  0  0
   -3.4433   -4.2592   -2.3753 H   0  0  0  0  0  0  0  0  0  0  0  0
   -3.0294   -3.5105   -3.9314 H   0  0  0  0  0  0  0  0  0  0  0  0
  1  2  1  0
  2  3  2  0
  3  4  1  0
  4  5  2  0
  6  5  1  1
  6  7  1  0
  7  8  1  0
  8  9  1  0
  9 10  1  6
  9 11  1  0
 11 12  2  0
 12 13  1  0
 13 14  1  0
 14 15  2  0
 15 16  1  0
 15 17  1  0
 17 18  2  0
 18 19  1  0
 19 20  2  0
 20 21  1  0
 21 22  3  0
 20 23  1  0
 23 24  2  0
 13 25  2  0
 25 26  1  0
 26 27  2  0
 27 28  1  0
  9 29  1  0
 29 30  2  0
 30 31  1  0
 30 32  1  0
  5 33  1  0
 33  2  1  0
  8  6  1  0
 27 11  1  0
 32  6  1  0
 24 17  1  0
  1 34  1  0
  1 35  1  0
  1 36  1  0
  3 37  1  0
  7 38  1  0
  7 39  1  0
  8 40  1  1
 10 41  1  0
 10 42  1  0
 10 43  1  0
 12 44  1  0
 14 45  1  0
 18 46  1  0
 19 47  1  0
 23 48  1  0
 25 49  1  0
 26 50  1  0
 31 51  1  0
 31 52  1  0
M  END
$$$$
