
     RDKit          3D

 54 58  0  0  0  0  0  0  0  0999 V2000
    6.6776   -3.5533   -0.2653 C   0  0  0  0  0  0  0  0  0  0  0  0
    6.0681   -2.3944   -0.8944 N   0  0  0  0  0  0  0  0  0  0  0  0
    5.0759   -1.6760   -0.1675 C   0  0  0  0  0  0  0  0  0  0  0  0
    4.7146   -2.0138    0.9956 O   0  0  0  0  0  0  0  0  0  0  0  0
    4.4255   -0.5209   -0.7166 N   0  0  0  0  0  0  0  0  0  0  0  0
    3.4351    0.1978    0.0067 C   0  0  0  0  0  0  0  0  0  0  0  0
    3.6255    1.2638    0.8620 C   0  0  0  0  0  0  0  0  0  0  0  0
    2.4155    1.6609    1.3485 N   0  0  0  0  0  0  0  0  0  0  0  0
    2.1953    2.7509    2.2775 C   0  0  0  0  0  0  0  0  0  0  0  0
    1.4379    0.8765    0.8288 C   0  0  0  0  0  0  0  0  0  0  0  0
    2.0729   -0.0214    0.0041 C   0  0  0  0  0  0  0  0  0  0  0  0
    0.9816   -0.8456   -0.5334 C   0  0  0  0  0  0  0  0  0  0  0  0
    1.2321   -1.7823   -1.3396 O   0  0  0  0  0  0  0  0  0  0  0  0
   -0.2697   -0.4247   -0.0218 N   0  0  0  0  0  0  0  0  0  0  0  0
   -1.5580   -1.0014   -0.3289 C   0  0  0  0  0  0  0  0  0  0  0  0
   -1.7547   -2.0556   -1.1728 C   0  0  0  0  0  0  0  0  0  0  0  0
   -3.0223   -2.5553   -1.4192 C   0  0  0  0  0  0  0  0  0  0  0  0
   -3.2350   -3.6934   -2.3301 C   0  0  0  0  0  0  0  0  0  0  0  0
   -4.0862   -1.9533   -0.7836 C   0  0  0  0  0  0  0  0  0  0  0  0
   -5.4053   -2.2083   -0.8214 N   0  0  0  0  0  0  0  0  0  0  0  0
   -6.0418   -1.3549   -0.0343 N   0  0  0  0  0  0  0  0  0  0  0  0
   -5.1020   -0.5559    0.5019 C   0  0  0  0  0  0  0  0  0  0  0  0
   -5.3159    0.5690    1.4577 C   0  0  0  0  0  0  0  0  0  0  0  0
   -4.6540    0.3834    2.6353 F   0  0  0  0  0  0  0  0  0  0  0  0
   -4.9753    1.7765    0.8650 F   0  0  0  0  0  0  0  0  0  0  0  0
   -3.8761   -0.9210    0.0405 N   0  0  0  0  0  0  0  0  0  0  0  0
   -2.6462   -0.4621    0.2582 N   0  0  0  0  0  0  0  0  0  0  0  0
   -0.0189    0.6835    0.8603 C   0  0  0  0  0  0  0  0  0  0  0  0
   -0.7626    1.9129    0.4180 C   0  0  0  0  0  0  0  0  0  0  0  0
   -1.4568    2.7079    1.3070 C   0  0  0  0  0  0  0  0  0  0  0  0
   -2.1405    3.8412    0.8891 C   0  0  0  0  0  0  0  0  0  0  0  0
   -2.1432    4.2040   -0.4359 C   0  0  0  0  0  0  0  0  0  0  0  0
   -3.0033    5.6357   -0.9836 Cl  0  0  0  0  0  0  0  0  0  0  0  0
   -1.4577    3.4258   -1.3383 C   0  0  0  0  0  0  0  0  0  0  0  0
   -0.7727    2.2877   -0.9101 C   0  0  0  0  0  0  0  0  0  0  0  0
    7.5513   -3.8369   -0.8785 H   0  0  0  0  0  0  0  0  0  0  0  0
    5.9504   -4.3918   -0.1532 H   0  0  0  0  0  0  0  0  0  0  0  0
    7.0873   -3.2908    0.7438 H   0  0  0  0  0  0  0  0  0  0  0  0
    6.3375   -2.0815   -1.8533 H   0  0  0  0  0  0  0  0  0  0  0  0
    4.7269   -0.2396   -1.6861 H   0  0  0  0  0  0  0  0  0  0  0  0
    4.5879    1.6922    1.0897 H   0  0  0  0  0  0  0  0  0  0  0  0
    2.0275    2.2840    3.2791 H   0  0  0  0  0  0  0  0  0  0  0  0
    1.3092    3.3487    1.9725 H   0  0  0  0  0  0  0  0  0  0  0  0
    3.1169    3.3515    2.3536 H   0  0  0  0  0  0  0  0  0  0  0  0
   -0.9060   -2.5069   -1.6559 H   0  0  0  0  0  0  0  0  0  0  0  0
   -4.2654   -4.0753   -2.2141 H   0  0  0  0  0  0  0  0  0  0  0  0
   -2.4750   -4.4711   -2.1144 H   0  0  0  0  0  0  0  0  0  0  0  0
   -3.1174   -3.4105   -3.4061 H   0  0  0  0  0  0  0  0  0  0  0  0
   -6.4171    0.6427    1.6629 H   0  0  0  0  0  0  0  0  0  0  0  0
   -0.3024    0.4596    1.9089 H   0  0  0  0  0  0  0  0  0  0  0  0
   -1.4700    2.4420    2.3614 H   0  0  0  0  0  0  0  0  0  0  0  0
   -2.6884    4.4733    1.5738 H   0  0  0  0  0  0  0  0  0  0  0  0
   -1.4659    3.7198   -2.3789 H   0  0  0  0  0  0  0  0  0  0  0  0
   -0.2464    1.7066   -1.6641 H   0  0  0  0  0  0  0  0  0  0  0  0
  1  2  1  0
  2  3  1  0
  3  4  2  0
  3  5  1  0
  5  6  1  0
  6  7  2  0
  7  8  1  0
  8  9  1  0
  8 10  1  0
 10 11  2  0
 11 12  1  0
 12 13  2  0
 12 14  1  0
 14 15  1  0
 15 16  1  0
 16 17  2  0
 17 18  1  0
 17 19  1  0
 19 20  2  0
 20 21  1  0
 21 22  2  0
 22 23  1  0
 23 24  1  0
 23 25  1  0
 22 26  1  0
 26 27  1  0
 14 28  1  0
 28 29  1  0
 29 30  2  0
 30 31  1  0
 31 32  2  0
 32 33  1  0
 32 34  1  0
 34 35  2  0
 11  6  1  0
 27 15  2  0
 35 29  1  0
 28 10  1  0
 26 19  1  0
  1 36  1  0
  1 37  1  0
  1 38  1  0
  2 39  1  0
  5 40  1  0
  7 41  1  0
  9 42  1  0
  9 43  1  0
  9 44  1  0
 16 45  1  0
 18 46  1  0
 18 47  1  0
 18 48  1  0
 23 49  1  0
 28 50  1  0
 30 51  1  0
 31 52  1  0
 34 53  1  0
 35 54  1  0
M  END
$$$$
