
     RDKit          3D

 40 43  0  0  0  0  0  0  0  0999 V2000
    6.9800    1.5941   -0.6521 C   0  0  0  0  0  0  0  0  0  0  0  0
    6.0482    0.5233   -0.0951 C   0  0  0  0  0  0  0  0  0  0  0  0
    6.5052   -0.2109    1.0664 N   0  0  0  0  0  0  0  0  0  0  0  0
    5.1186   -1.3397    1.3677 S   0  0  0  0  0  0  0  0  0  0  0  0
    4.1430   -0.7402   -0.0088 C   0  0  0  0  0  0  0  0  0  0  0  0
    2.8248   -1.2308   -0.3874 C   0  0  0  0  0  0  0  0  0  0  0  0
    2.5402   -2.2628   -1.2004 N   0  0  0  0  0  0  0  0  0  0  0  0
    1.2333   -2.3843   -1.2860 N   0  0  0  0  0  0  0  0  0  0  0  0
    0.6714   -1.4086   -0.5104 C   0  0  0  0  0  0  0  0  0  0  0  0
    1.6585   -0.7135    0.0300 N   0  0  0  0  0  0  0  0  0  0  0  0
    1.2637    0.4006    0.8906 C   0  0  0  0  0  0  0  0  0  0  0  0
    0.1997    1.1740    0.1314 C   0  0  0  0  0  0  0  0  0  0  0  0
   -1.0139    0.3270   -0.0312 N   0  0  0  0  0  0  0  0  0  0  0  0
   -2.2121    1.0107    0.0027 C   0  0  0  0  0  0  0  0  0  0  0  0
   -2.0518    2.3153    0.1752 O   0  0  0  0  0  0  0  0  0  0  0  0
   -3.5891    0.6254   -0.1068 C   0  0  0  0  0  0  0  0  0  0  0  0
   -4.0552   -0.6482   -0.2772 C   0  0  0  0  0  0  0  0  0  0  0  0
   -5.4268   -0.9718   -0.3790 C   0  0  0  0  0  0  0  0  0  0  0  0
   -6.3636    0.0243   -0.3061 C   0  0  0  0  0  0  0  0  0  0  0  0
   -5.9280    1.3148   -0.1350 C   0  0  0  0  0  0  0  0  0  0  0  0
   -4.5891    1.6141   -0.0377 C   0  0  0  0  0  0  0  0  0  0  0  0
   -0.7609   -1.0581   -0.1923 C   0  0  2  0  0  0  0  0  0  0  0  0
   -1.0370   -1.8143    1.1162 C   0  0  0  0  0  0  0  0  0  0  0  0
    4.9143    0.1836   -0.5137 N   0  0  0  0  0  0  0  0  0  0  0  0
    7.4727    2.1221    0.1634 H   0  0  0  0  0  0  0  0  0  0  0  0
    7.6654    1.1074   -1.3597 H   0  0  0  0  0  0  0  0  0  0  0  0
    6.3295    2.3058   -1.2043 H   0  0  0  0  0  0  0  0  0  0  0  0
    0.9121    0.0901    1.8763 H   0  0  0  0  0  0  0  0  0  0  0  0
    2.1306    1.0542    0.9999 H   0  0  0  0  0  0  0  0  0  0  0  0
   -0.0204    2.1034    0.6540 H   0  0  0  0  0  0  0  0  0  0  0  0
    0.5672    1.3570   -0.8904 H   0  0  0  0  0  0  0  0  0  0  0  0
   -3.3510   -1.4614   -0.3360 H   0  0  0  0  0  0  0  0  0  0  0  0
   -5.6994   -2.0176   -0.5148 H   0  0  0  0  0  0  0  0  0  0  0  0
   -7.4028   -0.2549   -0.3874 H   0  0  0  0  0  0  0  0  0  0  0  0
   -6.6654    2.0847   -0.0794 H   0  0  0  0  0  0  0  0  0  0  0  0
   -4.2807    2.6588    0.0988 H   0  0  0  0  0  0  0  0  0  0  0  0
   -1.3117   -1.5255   -1.0609 H   0  0  0  0  0  0  0  0  0  0  0  0
   -0.1036   -2.0643    1.6565 H   0  0  0  0  0  0  0  0  0  0  0  0
   -1.6960   -1.1755    1.7435 H   0  0  0  0  0  0  0  0  0  0  0  0
   -1.6197   -2.7084    0.8382 H   0  0  0  0  0  0  0  0  0  0  0  0
  1  2  1  0
  2  3  2  0
  3  4  1  0
  4  5  1  0
  5  6  1  0
  6  7  2  0
  7  8  1  0
  8  9  2  0
  9 10  1  0
 10 11  1  0
 11 12  1  0
 12 13  1  0
 13 14  1  0
 14 15  2  0
 14 16  1  0
 16 17  2  0
 17 18  1  0
 18 19  2  0
 19 20  1  0
 20 21  2  0
 13 22  1  0
 22 23  1  0
  5 24  2  0
 24  2  1  0
 10  6  1  0
 21 16  1  0
 22  9  1  0
  1 25  1  0
  1 26  1  0
  1 27  1  0
 11 28  1  0
 11 29  1  0
 12 30  1  0
 12 31  1  0
 17 32  1  0
 18 33  1  0
 19 34  1  0
 20 35  1  0
 21 36  1  0
 22 37  1  6
 23 38  1  0
 23 39  1  0
 23 40  1  0
M  END
$$$$
