
     RDKit          3D

 46 50  0  0  0  0  0  0  0  0999 V2000
    8.5829    1.8210    0.3482 N   0  0  0  0  0  0  0  0  0  0  0  0
    7.5436    1.3109    0.1511 C   0  0  0  0  0  0  0  0  0  0  0  0
    6.2641    0.7085   -0.0901 C   0  0  0  0  0  0  0  0  0  0  0  0
    5.1353    1.0774    0.6142 C   0  0  0  0  0  0  0  0  0  0  0  0
    3.9282    0.5232    0.3993 N   0  0  0  0  0  0  0  0  0  0  0  0
    3.7632   -0.4375   -0.5332 C   0  0  0  0  0  0  0  0  0  0  0  0
    2.4837   -0.9821   -0.7179 C   0  0  0  0  0  0  0  0  0  0  0  0
    1.4261   -0.4915    0.0650 N   0  0  0  0  0  0  0  0  0  0  0  0
    0.1128   -1.0161    0.0056 C   0  0  0  0  0  0  0  0  0  0  0  0
   -0.1729   -2.2763   -0.4413 C   0  0  0  0  0  0  0  0  0  0  0  0
   -1.4808   -2.7200   -0.4918 C   0  0  0  0  0  0  0  0  0  0  0  0
   -2.5149   -1.8725   -0.0821 C   0  0  0  0  0  0  0  0  0  0  0  0
   -4.1218   -2.5268   -0.2353 Cl  0  0  0  0  0  0  0  0  0  0  0  0
   -2.2131   -0.6093    0.3664 C   0  0  0  0  0  0  0  0  0  0  0  0
   -3.3252    0.2817    0.8378 C   0  0  2  0  0  0  0  0  0  0  0  0
   -4.0157   -0.3762    1.9932 C   0  0  0  0  0  0  0  0  0  0  0  0
   -5.0677    0.4351    2.4686 F   0  0  0  0  0  0  0  0  0  0  0  0
   -3.1759   -0.5038    3.0925 F   0  0  0  0  0  0  0  0  0  0  0  0
   -4.2271    0.4060   -0.2722 N   0  0  0  0  0  0  0  0  0  0  0  0
   -4.2527    1.3478   -1.1213 C   0  0  0  0  0  0  0  0  0  0  0  0
   -5.2232    1.3223   -2.1783 N   0  0  0  0  0  0  0  0  0  0  0  0
   -3.3409    2.3672   -0.9953 O   0  0  0  0  0  0  0  0  0  0  0  0
   -2.8199    2.6930    0.2654 C   0  0  1  0  0  0  0  0  0  0  0  0
   -3.8287    2.7003    1.4072 C   0  0  0  0  0  0  0  0  0  0  0  0
   -2.7612    1.6339    1.2492 C   0  0  1  0  0  0  0  0  0  0  0  0
   -0.9225   -0.1882    0.4090 C   0  0  0  0  0  0  0  0  0  0  0  0
    2.3898   -1.9317   -1.6602 N   0  0  0  0  0  0  0  0  0  0  0  0
    3.3983   -2.3855   -2.4162 C   0  0  0  0  0  0  0  0  0  0  0  0
    4.6429   -1.8385   -2.2189 C   0  0  0  0  0  0  0  0  0  0  0  0
    5.7303   -2.2379   -2.9426 F   0  0  0  0  0  0  0  0  0  0  0  0
    4.8387   -0.8526   -1.2691 C   0  0  0  0  0  0  0  0  0  0  0  0
    6.0806   -0.2814   -1.0469 C   0  0  0  0  0  0  0  0  0  0  0  0
    5.2763    1.8606    1.3724 H   0  0  0  0  0  0  0  0  0  0  0  0
    1.6294    0.3050    0.7254 H   0  0  0  0  0  0  0  0  0  0  0  0
    0.6042   -2.9821   -0.7620 H   0  0  0  0  0  0  0  0  0  0  0  0
   -1.6761   -3.7136   -0.8468 H   0  0  0  0  0  0  0  0  0  0  0  0
   -4.4681   -1.3413    1.8247 H   0  0  0  0  0  0  0  0  0  0  0  0
   -5.1640    0.5689   -2.8825 H   0  0  0  0  0  0  0  0  0  0  0  0
   -5.9656    2.0347   -2.2419 H   0  0  0  0  0  0  0  0  0  0  0  0
   -2.0308    3.4695    0.2438 H   0  0  0  0  0  0  0  0  0  0  0  0
   -3.6776    3.5257    2.1217 H   0  0  0  0  0  0  0  0  0  0  0  0
   -4.8738    2.4685    1.1615 H   0  0  0  0  0  0  0  0  0  0  0  0
   -1.9989    1.6855    2.0328 H   0  0  0  0  0  0  0  0  0  0  0  0
   -0.7022    0.7897    0.7554 H   0  0  0  0  0  0  0  0  0  0  0  0
    3.2700   -3.1581   -3.1672 H   0  0  0  0  0  0  0  0  0  0  0  0
    6.9208   -0.6131   -1.6288 H   0  0  0  0  0  0  0  0  0  0  0  0
  1  2  3  0
  2  3  1  0
  3  4  2  0
  4  5  1  0
  5  6  2  0
  6  7  1  0
  7  8  1  0
  8  9  1  0
  9 10  2  0
 10 11  1  0
 11 12  2  0
 12 13  1  0
 12 14  1  0
 14 15  1  0
 15 16  1  1
 16 17  1  0
 16 18  1  0
 15 19  1  0
 19 20  2  0
 20 21  1  0
 20 22  1  0
 22 23  1  0
 23 24  1  0
 24 25  1  0
 14 26  2  0
  7 27  2  0
 27 28  1  0
 28 29  2  0
 29 30  1  0
 29 31  1  0
 31 32  2  0
 32  3  1  0
 31  6  1  0
 26  9  1  0
 25 15  1  0
 25 23  1  0
  4 33  1  0
  8 34  1  0
 10 35  1  0
 11 36  1  0
 16 37  1  0
 21 38  1  0
 21 39  1  0
 23 40  1  6
 24 41  1  0
 24 42  1  0
 25 43  1  1
 26 44  1  0
 28 45  1  0
 32 46  1  0
M  END
$$$$
