
     RDKit          3D

 28 30  0  0  0  0  0  0  0  0999 V2000
    4.6465    1.9008    1.0615 F   0  0  0  0  0  0  0  0  0  0  0  0
    3.6198    1.1025    0.6706 C   0  0  0  0  0  0  0  0  0  0  0  0
    2.6853    0.7495    1.6459 C   0  0  0  0  0  0  0  0  0  0  0  0
    1.6182   -0.0576    1.3176 C   0  0  0  0  0  0  0  0  0  0  0  0
    1.4337   -0.5391    0.0418 C   0  0  0  0  0  0  0  0  0  0  0  0
    2.3694   -0.1868   -0.9387 C   0  0  0  0  0  0  0  0  0  0  0  0
    3.4450    0.6294   -0.5994 C   0  0  0  0  0  0  0  0  0  0  0  0
    0.3933   -1.3978   -0.5045 C   0  0  0  0  0  0  0  0  0  0  0  0
    0.5998   -2.6026   -1.0736 N   0  0  0  0  0  0  0  0  0  0  0  0
   -0.5867   -3.0979   -1.4670 N   0  0  0  0  0  0  0  0  0  0  0  0
   -1.5470   -2.1978   -1.1435 C   0  0  0  0  0  0  0  0  0  0  0  0
   -0.9494   -1.1007   -0.5265 C   0  0  0  0  0  0  0  0  0  0  0  0
   -1.7088    0.0454   -0.0436 C   0  0  0  0  0  0  0  0  0  0  0  0
   -2.2384    0.9237   -0.9648 C   0  0  0  0  0  0  0  0  0  0  0  0
   -2.9806    2.0352   -0.5978 C   0  0  0  0  0  0  0  0  0  0  0  0
   -3.2197    2.3079    0.7079 N   0  0  0  0  0  0  0  0  0  0  0  0
   -2.7123    1.4630    1.6320 C   0  0  0  0  0  0  0  0  0  0  0  0
   -1.9738    0.3554    1.2951 C   0  0  0  0  0  0  0  0  0  0  0  0
    2.7179    1.0667    2.6992 H   0  0  0  0  0  0  0  0  0  0  0  0
    0.8313   -0.3938    2.0055 H   0  0  0  0  0  0  0  0  0  0  0  0
    2.4369   -0.4396   -1.9957 H   0  0  0  0  0  0  0  0  0  0  0  0
    4.2352    0.9688   -1.2717 H   0  0  0  0  0  0  0  0  0  0  0  0
   -0.5247   -4.0325   -1.9211 H   0  0  0  0  0  0  0  0  0  0  0  0
   -2.5781   -2.4399   -1.3935 H   0  0  0  0  0  0  0  0  0  0  0  0
   -2.1308    0.8385   -2.0367 H   0  0  0  0  0  0  0  0  0  0  0  0
   -3.4187    2.7562   -1.2964 H   0  0  0  0  0  0  0  0  0  0  0  0
   -2.9072    1.6842    2.6723 H   0  0  0  0  0  0  0  0  0  0  0  0
   -1.5561   -0.3411    2.0250 H   0  0  0  0  0  0  0  0  0  0  0  0
  1  2  1  0
  2  3  2  0
  3  4  1  0
  4  5  2  0
  5  6  1  0
  6  7  2  0
  5  8  1  0
  8  9  2  0
  9 10  1  0
 10 11  1  0
 11 12  2  0
 12 13  1  0
 13 14  2  0
 14 15  1  0
 15 16  2  0
 16 17  1  0
 17 18  2  0
  7  2  1  0
 12  8  1  0
 18 13  1  0
  3 19  1  0
  4 20  1  0
  6 21  1  0
  7 22  1  0
 10 23  1  0
 11 24  1  0
 14 25  1  0
 15 26  1  0
 17 27  1  0
 18 28  1  0
M  END
$$$$
