
     RDKit          3D

 42 44  0  0  0  0  0  0  0  0999 V2000
    5.2563   -0.8149    3.7264 C   0  0  0  0  0  0  0  0  0  0  0  0
    4.4811    0.2354    3.0082 C   0  0  0  0  0  0  0  0  0  0  0  0
    3.1365   -0.1915    2.5931 C   0  0  0  0  0  0  0  0  0  0  0  0
    2.7533   -1.3516    2.8773 O   0  0  0  0  0  0  0  0  0  0  0  0
    2.2583    0.6664    1.8811 N   0  0  0  0  0  0  0  0  0  0  0  0
    0.9333    0.2460    1.4718 C   0  0  0  0  0  0  0  0  0  0  0  0
   -0.1446    1.1038    2.0464 C   0  0  0  0  0  0  0  0  0  0  0  0
   -1.4509    1.0704    1.3347 C   0  0  0  0  0  0  0  0  0  0  0  0
   -1.5096   -0.1833    0.4483 C   0  0  0  0  0  0  0  0  0  0  0  0
   -0.4226   -0.0197   -0.5306 C   0  0  0  0  0  0  0  0  0  0  0  0
   -0.6108   -0.0820   -1.8685 C   0  0  0  0  0  0  0  0  0  0  0  0
   -1.9366   -0.2628   -2.4864 C   0  0  0  0  0  0  0  0  0  0  0  0
   -2.1587   -1.2546   -3.4157 C   0  0  0  0  0  0  0  0  0  0  0  0
   -3.4115   -1.4129   -4.0171 C   0  0  0  0  0  0  0  0  0  0  0  0
   -4.4626   -0.5819   -3.6990 C   0  0  0  0  0  0  0  0  0  0  0  0
   -5.7593   -0.7441   -4.3230 C   0  0  0  0  0  0  0  0  0  0  0  0
   -6.8013   -0.8552   -4.8188 N   0  0  0  0  0  0  0  0  0  0  0  0
   -4.2353    0.4083   -2.7690 C   0  0  0  0  0  0  0  0  0  0  0  0
   -2.9942    0.5626   -2.1755 C   0  0  0  0  0  0  0  0  0  0  0  0
    0.4941    0.0658   -2.6921 C   0  0  0  0  0  0  0  0  0  0  0  0
    1.7124    0.2659   -2.1889 N   0  0  0  0  0  0  0  0  0  0  0  0
    1.9076    0.3305   -0.8553 C   0  0  0  0  0  0  0  0  0  0  0  0
    0.8394    0.1878   -0.0186 C   0  0  0  0  0  0  0  0  0  0  0  0
    5.6968   -0.3743    4.6399 H   0  0  0  0  0  0  0  0  0  0  0  0
    4.6619   -1.6888    4.0562 H   0  0  0  0  0  0  0  0  0  0  0  0
    6.1146   -1.1781    3.0959 H   0  0  0  0  0  0  0  0  0  0  0  0
    5.0418    0.5227    2.0884 H   0  0  0  0  0  0  0  0  0  0  0  0
    4.4096    1.1491    3.6260 H   0  0  0  0  0  0  0  0  0  0  0  0
    2.6191    1.6272    1.6647 H   0  0  0  0  0  0  0  0  0  0  0  0
    0.7880   -0.8014    1.8230 H   0  0  0  0  0  0  0  0  0  0  0  0
   -0.2817    0.7940    3.1147 H   0  0  0  0  0  0  0  0  0  0  0  0
    0.2062    2.1753    2.0658 H   0  0  0  0  0  0  0  0  0  0  0  0
   -2.3126    1.0330    2.0464 H   0  0  0  0  0  0  0  0  0  0  0  0
   -1.5279    1.9333    0.6571 H   0  0  0  0  0  0  0  0  0  0  0  0
   -2.4945   -0.3970    0.0557 H   0  0  0  0  0  0  0  0  0  0  0  0
   -1.1457   -0.9986    1.1497 H   0  0  0  0  0  0  0  0  0  0  0  0
   -1.3408   -1.9185   -3.6773 H   0  0  0  0  0  0  0  0  0  0  0  0
   -3.5925   -2.2018   -4.7590 H   0  0  0  0  0  0  0  0  0  0  0  0
   -5.0841    1.0572   -2.5327 H   0  0  0  0  0  0  0  0  0  0  0  0
   -2.8574    1.3716   -1.4470 H   0  0  0  0  0  0  0  0  0  0  0  0
    0.3268    0.0122   -3.7542 H   0  0  0  0  0  0  0  0  0  0  0  0
    2.8983    0.4948   -0.4276 H   0  0  0  0  0  0  0  0  0  0  0  0
  1  2  1  0
  2  3  1  0
  3  4  2  0
  3  5  1  0
  5  6  1  0
  6  7  1  0
  7  8  1  0
  8  9  1  0
  9 10  1  0
 10 11  2  0
 11 12  1  0
 12 13  2  0
 13 14  1  0
 14 15  2  0
 15 16  1  0
 16 17  3  0
 15 18  1  0
 18 19  2  0
 11 20  1  0
 20 21  2  0
 21 22  1  0
 22 23  2  0
 23  6  1  0
 23 10  1  0
 19 12  1  0
  1 24  1  0
  1 25  1  0
  1 26  1  0
  2 27  1  0
  2 28  1  0
  5 29  1  0
  6 30  1  0
  7 31  1  0
  7 32  1  0
  8 33  1  0
  8 34  1  0
  9 35  1  0
  9 36  1  0
 13 37  1  0
 14 38  1  0
 18 39  1  0
 19 40  1  0
 20 41  1  0
 22 42  1  0
M  END
$$$$
