
     RDKit          3D

 46 49  0  0  0  0  0  0  0  0999 V2000
   -4.6404   -3.4362   -0.4605 O   0  0  0  0  0  0  0  0  0  0  0  0
   -4.6461   -2.1421    0.0639 C   0  0  0  0  0  0  0  0  0  0  0  0
   -5.6957   -1.3904    0.2629 N   0  0  0  0  0  0  0  0  0  0  0  0
   -5.2483   -0.1396    0.8157 C   0  0  0  0  0  0  0  0  0  0  0  0
   -6.0298    0.9389    1.1750 C   0  0  0  0  0  0  0  0  0  0  0  0
   -5.4193    2.0531    1.6897 C   0  0  0  0  0  0  0  0  0  0  0  0
   -4.0383    2.0783    1.8397 C   0  0  0  0  0  0  0  0  0  0  0  0
   -3.3162    0.9603    1.4583 C   0  0  0  0  0  0  0  0  0  0  0  0
   -3.8548   -0.1821    0.9394 C   0  0  0  0  0  0  0  0  0  0  0  0
   -3.3438   -1.4912    0.4592 C   0  0  0  0  0  0  0  0  0  0  0  0
   -2.5319   -1.4215   -0.7830 C   0  0  0  0  0  0  0  0  0  0  0  0
   -1.2061   -0.8279   -0.6852 C   0  0  0  0  0  0  0  0  0  0  0  0
   -0.1862   -1.7385   -0.3844 C   0  0  0  0  0  0  0  0  0  0  0  0
    1.1272   -1.3557   -0.2546 C   0  0  0  0  0  0  0  0  0  0  0  0
    1.5054   -0.0390   -0.4170 C   0  0  0  0  0  0  0  0  0  0  0  0
    0.5059    0.8641   -0.7136 C   0  0  0  0  0  0  0  0  0  0  0  0
   -0.8135    0.4869   -0.8452 C   0  0  0  0  0  0  0  0  0  0  0  0
    2.8270    0.4684   -0.3061 N   0  0  0  0  0  0  0  0  0  0  0  0
    3.2601    1.8257   -0.4797 C   0  0  0  0  0  0  0  0  0  0  0  0
    4.6462    1.9295   -1.0853 C   0  0  0  0  0  0  0  0  0  0  0  0
    5.6167    1.0794   -0.4577 N   0  0  0  0  0  0  0  0  0  0  0  0
    5.1041    0.1275    0.4781 C   0  0  0  0  0  0  0  0  0  0  0  0
    3.8299   -0.5423    0.0248 C   0  0  0  0  0  0  0  0  0  0  0  0
    6.9295    1.3699   -0.9118 C   0  0  0  0  0  0  0  0  0  0  0  0
    6.7460    2.3180   -1.7427 O   0  0  0  0  0  0  0  0  0  0  0  0
   -5.5468   -3.9031   -0.5639 H   0  0  0  0  0  0  0  0  0  0  0  0
   -7.0984    0.9212    1.0597 H   0  0  0  0  0  0  0  0  0  0  0  0
   -6.0153    2.9053    1.9757 H   0  0  0  0  0  0  0  0  0  0  0  0
   -3.5808    2.9665    2.2470 H   0  0  0  0  0  0  0  0  0  0  0  0
   -2.2626    1.0439    1.5996 H   0  0  0  0  0  0  0  0  0  0  0  0
   -2.9429   -2.1184    1.2573 H   0  0  0  0  0  0  0  0  0  0  0  0
   -3.1160   -0.7771   -1.5049 H   0  0  0  0  0  0  0  0  0  0  0  0
   -2.5097   -2.4139   -1.2744 H   0  0  0  0  0  0  0  0  0  0  0  0
   -0.3643   -2.7959   -0.2354 H   0  0  0  0  0  0  0  0  0  0  0  0
    1.9104   -2.0640   -0.0223 H   0  0  0  0  0  0  0  0  0  0  0  0
    0.6152    1.9275   -0.8735 H   0  0  0  0  0  0  0  0  0  0  0  0
   -1.6451    1.1484   -1.0771 H   0  0  0  0  0  0  0  0  0  0  0  0
    2.5795    2.3832   -1.1558 H   0  0  0  0  0  0  0  0  0  0  0  0
    3.2479    2.3173    0.5085 H   0  0  0  0  0  0  0  0  0  0  0  0
    4.5706    1.6638   -2.1624 H   0  0  0  0  0  0  0  0  0  0  0  0
    4.9709    2.9840   -0.9547 H   0  0  0  0  0  0  0  0  0  0  0  0
    4.9189    0.5927    1.4591 H   0  0  0  0  0  0  0  0  0  0  0  0
    5.8499   -0.6945    0.6032 H   0  0  0  0  0  0  0  0  0  0  0  0
    3.9639   -1.1937   -0.8483 H   0  0  0  0  0  0  0  0  0  0  0  0
    3.4874   -1.1548    0.8937 H   0  0  0  0  0  0  0  0  0  0  0  0
    7.8395    0.8909   -0.6110 H   0  0  0  0  0  0  0  0  0  0  0  0
  1  2  1  0
  2  3  2  0
  3  4  1  0
  4  5  2  0
  5  6  1  0
  6  7  2  0
  7  8  1  0
  8  9  2  0
  9 10  1  0
 10 11  1  0
 11 12  1  0
 12 13  2  0
 13 14  1  0
 14 15  2  0
 15 16  1  0
 16 17  2  0
 15 18  1  0
 18 19  1  0
 19 20  1  0
 20 21  1  0
 21 22  1  0
 22 23  1  0
 21 24  1  0
 24 25  2  0
 10  2  1  0
 17 12  1  0
 23 18  1  0
  9  4  1  0
  1 26  1  0
  5 27  1  0
  6 28  1  0
  7 29  1  0
  8 30  1  0
 10 31  1  0
 11 32  1  0
 11 33  1  0
 13 34  1  0
 14 35  1  0
 16 36  1  0
 17 37  1  0
 19 38  1  0
 19 39  1  0
 20 40  1  0
 20 41  1  0
 22 42  1  0
 22 43  1  0
 23 44  1  0
 23 45  1  0
 24 46  1  0
M  END
$$$$
