
     RDKit          3D

 41 44  0  0  0  0  0  0  0  0999 V2000
    7.6636   -0.5091   -1.0151 N   0  0  0  0  0  0  0  0  0  0  0  0
    6.5127   -0.4744   -1.2887 C   0  0  0  0  0  0  0  0  0  0  0  0
    5.0781   -0.4378   -1.6552 C   0  0  0  0  0  0  0  0  0  0  0  0
    4.8392   -0.2058   -3.0201 C   0  0  0  0  0  0  0  0  0  0  0  0
    3.0774   -0.2182   -3.1343 S   0  0  0  0  0  0  0  0  0  0  0  0
    2.7707   -0.5362   -1.3293 C   0  0  0  0  0  0  0  0  0  0  0  0
    1.4896   -0.6285   -0.8745 N   0  0  0  0  0  0  0  0  0  0  0  0
    0.7112    0.4979   -0.3843 C   0  0  0  0  0  0  0  0  0  0  0  0
    1.4084    1.5740   -0.4540 O   0  0  0  0  0  0  0  0  0  0  0  0
   -0.5858    0.4604    0.0970 C   0  0  0  0  0  0  0  0  0  0  0  0
   -1.8455    0.4515    0.5693 N   0  0  0  0  0  0  0  0  0  0  0  0
   -2.0715    0.2525    2.0077 C   0  0  0  0  0  0  0  0  0  0  0  0
   -1.1130    0.6484    2.7266 O   0  0  0  0  0  0  0  0  0  0  0  0
   -3.3065   -0.3532    2.5306 C   0  0  0  0  0  0  0  0  0  0  0  0
   -4.5070    0.3310    1.8879 C   0  0  0  0  0  0  0  0  0  0  0  0
   -4.2866    0.5661    0.4458 C   0  0  0  0  0  0  0  0  0  0  0  0
   -5.4526    0.7334   -0.3102 C   0  0  0  0  0  0  0  0  0  0  0  0
   -5.4137    0.9410   -1.6776 C   0  0  0  0  0  0  0  0  0  0  0  0
   -4.1797    0.9802   -2.2914 C   0  0  0  0  0  0  0  0  0  0  0  0
   -3.0335    0.8143   -1.5372 C   0  0  0  0  0  0  0  0  0  0  0  0
   -3.0502    0.6066   -0.1711 C   0  0  0  0  0  0  0  0  0  0  0  0
    4.0137   -0.5934   -0.8693 C   0  0  0  0  0  0  0  0  0  0  0  0
    4.1177   -0.8466    0.6064 C   0  0  0  0  0  0  0  0  0  0  0  0
    3.0711   -1.0139    1.4665 N   0  0  0  0  0  0  0  0  0  0  0  0
    3.5029   -1.2175    2.6956 N   0  0  0  0  0  0  0  0  0  0  0  0
    4.8388   -1.1890    2.6730 C   0  0  0  0  0  0  0  0  0  0  0  0
    5.1946   -0.9568    1.3618 N   0  0  0  0  0  0  0  0  0  0  0  0
    5.5055   -0.0513   -3.8440 H   0  0  0  0  0  0  0  0  0  0  0  0
    0.9877   -1.5351   -0.8539 H   0  0  0  0  0  0  0  0  0  0  0  0
   -1.0052   -0.3146   -0.9434 H   0  0  0  0  0  0  0  0  0  0  0  0
   -0.9147    1.4687   -0.7496 H   0  0  0  0  0  0  0  0  0  0  0  0
   -3.3618   -0.2159    3.6117 H   0  0  0  0  0  0  0  0  0  0  0  0
   -3.3680   -1.4369    2.2185 H   0  0  0  0  0  0  0  0  0  0  0  0
   -5.3567   -0.3968    2.0361 H   0  0  0  0  0  0  0  0  0  0  0  0
   -4.7017    1.2457    2.4565 H   0  0  0  0  0  0  0  0  0  0  0  0
   -6.4227    0.7072    0.1439 H   0  0  0  0  0  0  0  0  0  0  0  0
   -6.2892    1.0739   -2.2911 H   0  0  0  0  0  0  0  0  0  0  0  0
   -4.1083    1.1402   -3.3585 H   0  0  0  0  0  0  0  0  0  0  0  0
   -2.1060    0.8467   -2.0631 H   0  0  0  0  0  0  0  0  0  0  0  0
    5.5062   -1.3179    3.4936 H   0  0  0  0  0  0  0  0  0  0  0  0
    6.1910   -0.8908    1.0872 H   0  0  0  0  0  0  0  0  0  0  0  0
  1  2  3  0
  2  3  1  0
  3  4  2  0
  4  5  1  0
  5  6  1  0
  6  7  1  0
  7  8  1  0
  8  9  2  0
  8 10  1  0
 10 11  1  0
 11 12  1  0
 12 13  2  0
 12 14  1  0
 14 15  1  0
 15 16  1  0
 16 17  2  0
 17 18  1  0
 18 19  2  0
 19 20  1  0
 20 21  2  0
  6 22  2  0
 22 23  1  0
 23 24  2  0
 24 25  1  0
 25 26  2  0
 26 27  1  0
 22  3  1  0
 27 23  1  0
 21 11  1  0
 21 16  1  0
  4 28  1  0
  7 29  1  0
 10 30  1  0
 10 31  1  0
 14 32  1  0
 14 33  1  0
 15 34  1  0
 15 35  1  0
 17 36  1  0
 18 37  1  0
 19 38  1  0
 20 39  1  0
 26 40  1  0
 27 41  1  0
M  END
$$$$
