
     RDKit          3D

 42 44  0  0  0  0  0  0  0  0999 V2000
    7.8608   -0.6229    1.3327 N   0  0  0  0  0  0  0  0  0  0  0  0
    6.5482   -0.9127    0.8794 C   0  0  0  0  0  0  0  0  0  0  0  0
    6.1277   -2.0942    0.8303 O   0  0  0  0  0  0  0  0  0  0  0  0
    5.6764    0.1791    0.4648 C   0  0  0  0  0  0  0  0  0  0  0  0
    6.0905    1.5000    0.4992 C   0  0  0  0  0  0  0  0  0  0  0  0
    5.3146    2.5233    0.1257 N   0  0  0  0  0  0  0  0  0  0  0  0
    4.0649    2.2768   -0.3086 C   0  0  0  0  0  0  0  0  0  0  0  0
    3.5580    0.9945   -0.3802 C   0  0  0  0  0  0  0  0  0  0  0  0
    2.2618    0.7901   -0.8351 O   0  0  0  0  0  0  0  0  0  0  0  0
    1.7719   -0.5240   -0.8978 C   0  0  0  0  0  0  0  0  0  0  0  0
    0.3803   -0.5585   -1.4026 C   0  0  0  0  0  0  0  0  0  0  0  0
    0.1383   -0.6732   -2.7535 C   0  0  0  0  0  0  0  0  0  0  0  0
   -1.1530   -0.7063   -3.2344 C   0  0  0  0  0  0  0  0  0  0  0  0
   -2.1899   -0.6210   -2.3209 C   0  0  0  0  0  0  0  0  0  0  0  0
   -2.0131   -0.5059   -0.9703 C   0  0  0  0  0  0  0  0  0  0  0  0
   -3.0374   -0.4149    0.0098 N   0  0  0  0  0  0  0  0  0  0  0  0
   -4.4236   -0.4247   -0.2072 C   0  0  0  0  0  0  0  0  0  0  0  0
   -4.8573   -0.5231   -1.3819 O   0  0  0  0  0  0  0  0  0  0  0  0
   -5.4362   -0.3271    0.8510 C   0  0  0  0  0  0  0  0  0  0  0  0
   -6.7812   -0.3448    0.5467 C   0  0  0  0  0  0  0  0  0  0  0  0
   -7.7869   -0.2577    1.4844 C   0  0  0  0  0  0  0  0  0  0  0  0
   -7.4305   -0.1482    2.7800 N   0  0  0  0  0  0  0  0  0  0  0  0
   -6.1352   -0.1273    3.1168 C   0  0  0  0  0  0  0  0  0  0  0  0
   -5.1027   -0.2151    2.1747 C   0  0  0  0  0  0  0  0  0  0  0  0
   -0.6710   -0.4775   -0.5399 C   0  0  0  0  0  0  0  0  0  0  0  0
    4.3876   -0.0337    0.0133 C   0  0  0  0  0  0  0  0  0  0  0  0
    8.6318   -1.2516    1.0220 H   0  0  0  0  0  0  0  0  0  0  0  0
    8.1207    0.1716    1.9548 H   0  0  0  0  0  0  0  0  0  0  0  0
    7.1182    1.6474    0.8612 H   0  0  0  0  0  0  0  0  0  0  0  0
    3.4012    3.0993   -0.6234 H   0  0  0  0  0  0  0  0  0  0  0  0
    2.4236   -1.1345   -1.5806 H   0  0  0  0  0  0  0  0  0  0  0  0
    1.7551   -1.0069    0.1075 H   0  0  0  0  0  0  0  0  0  0  0  0
    0.9697   -0.7402   -3.4697 H   0  0  0  0  0  0  0  0  0  0  0  0
   -1.3758   -0.7961   -4.2937 H   0  0  0  0  0  0  0  0  0  0  0  0
   -3.1810   -0.6502   -2.7341 H   0  0  0  0  0  0  0  0  0  0  0  0
   -2.7577   -0.3279    1.0419 H   0  0  0  0  0  0  0  0  0  0  0  0
   -7.0556   -0.4328   -0.4933 H   0  0  0  0  0  0  0  0  0  0  0  0
   -8.8404   -0.2763    1.1906 H   0  0  0  0  0  0  0  0  0  0  0  0
   -5.8556   -0.0403    4.1468 H   0  0  0  0  0  0  0  0  0  0  0  0
   -4.0669   -0.1934    2.5015 H   0  0  0  0  0  0  0  0  0  0  0  0
   -0.4749   -0.3873    0.5221 H   0  0  0  0  0  0  0  0  0  0  0  0
    4.0241   -1.0443   -0.0300 H   0  0  0  0  0  0  0  0  0  0  0  0
  1  2  1  0
  2  3  2  0
  2  4  1  0
  4  5  2  0
  5  6  1  0
  6  7  2  0
  7  8  1  0
  8  9  1  0
  9 10  1  0
 10 11  1  0
 11 12  2  0
 12 13  1  0
 13 14  2  0
 14 15  1  0
 15 16  1  0
 16 17  1  0
 17 18  2  0
 17 19  1  0
 19 20  2  0
 20 21  1  0
 21 22  2  0
 22 23  1  0
 23 24  2  0
 15 25  2  0
  8 26  2  0
 26  4  1  0
 25 11  1  0
 24 19  1  0
  1 27  1  0
  1 28  1  0
  5 29  1  0
  7 30  1  0
 10 31  1  0
 10 32  1  0
 12 33  1  0
 13 34  1  0
 14 35  1  0
 16 36  1  0
 20 37  1  0
 21 38  1  0
 23 39  1  0
 24 40  1  0
 25 41  1  0
 26 42  1  0
M  END
$$$$
