
     RDKit          3D

 56 60  0  0  0  0  0  0  0  0999 V2000
    0.8799    1.6048   -1.8505 N   0  0  0  0  0  0  0  0  0  0  0  0
    2.0642    0.8820   -1.4349 C   0  0  0  0  0  0  0  0  0  0  0  0
    3.1873    1.1255   -2.1117 N   0  0  0  0  0  0  0  0  0  0  0  0
    4.3741    0.5812   -1.8633 C   0  0  0  0  0  0  0  0  0  0  0  0
    4.4203   -0.3089   -0.8086 C   0  0  0  0  0  0  0  0  0  0  0  0
    5.6537   -0.9575   -0.4497 C   0  0  0  0  0  0  0  0  0  0  0  0
    5.8982   -2.2721   -0.1447 C   0  0  0  0  0  0  0  0  0  0  0  0
    7.2037   -2.3788    0.1208 N   0  0  0  0  0  0  0  0  0  0  0  0
    7.8288   -1.2377    0.0128 N   0  0  0  0  0  0  0  0  0  0  0  0
    9.2196   -0.8838    0.2035 C   0  0  0  0  0  0  0  0  0  0  0  0
    9.4567   -0.4900    1.6329 C   0  0  0  0  0  0  0  0  0  0  0  0
    8.6473    0.6102    1.9392 O   0  0  0  0  0  0  0  0  0  0  0  0
    6.8928   -0.3291   -0.3416 C   0  0  0  0  0  0  0  0  0  0  0  0
    3.2560   -0.5897   -0.0732 C   0  0  0  0  0  0  0  0  0  0  0  0
    2.9719   -1.6096    1.2776 S   0  0  0  0  0  0  0  0  0  0  0  0
    1.2093   -1.2506    1.4561 C   0  0  0  0  0  0  0  0  0  0  0  0
    0.9967   -0.3466    0.4206 C   0  0  0  0  0  0  0  0  0  0  0  0
   -0.4126    0.1210    0.2492 C   0  0  0  0  0  0  0  0  0  0  0  0
   -1.0598   -0.1490   -0.9326 C   0  0  0  0  0  0  0  0  0  0  0  0
   -2.3732    0.2650   -1.1777 C   0  0  0  0  0  0  0  0  0  0  0  0
   -3.0086    0.9600   -0.1876 C   0  0  0  0  0  0  0  0  0  0  0  0
   -4.3329    1.4049   -0.3733 N   0  0  0  0  0  0  0  0  0  0  0  0
   -5.4929    0.6864   -0.0452 C   0  0  0  0  0  0  0  0  0  0  0  0
   -5.3592   -0.4608    0.4617 O   0  0  0  0  0  0  0  0  0  0  0  0
   -6.8162    1.1985   -0.2606 N   0  0  0  0  0  0  0  0  0  0  0  0
   -7.9859    0.4865    0.0647 C   0  0  0  0  0  0  0  0  0  0  0  0
   -8.5584   -0.3383   -0.8672 C   0  0  0  0  0  0  0  0  0  0  0  0
   -9.7117   -1.0312   -0.5258 C   0  0  0  0  0  0  0  0  0  0  0  0
  -10.2516   -0.8797    0.7241 C   0  0  0  0  0  0  0  0  0  0  0  0
   -9.6959   -0.0597    1.6731 C   0  0  0  0  0  0  0  0  0  0  0  0
  -10.2336    0.0875    2.9097 F   0  0  0  0  0  0  0  0  0  0  0  0
   -8.5408    0.6251    1.3100 C   0  0  0  0  0  0  0  0  0  0  0  0
   -2.3608    1.2283    0.9921 C   0  0  0  0  0  0  0  0  0  0  0  0
   -1.0526    0.8119    1.2265 C   0  0  0  0  0  0  0  0  0  0  0  0
    2.0317   -0.0122   -0.3505 C   0  0  0  0  0  0  0  0  0  0  0  0
    0.4711    1.4363   -2.7852 H   0  0  0  0  0  0  0  0  0  0  0  0
    0.4132    2.3057   -1.2359 H   0  0  0  0  0  0  0  0  0  0  0  0
    5.2367    0.8253   -2.4521 H   0  0  0  0  0  0  0  0  0  0  0  0
    5.1902   -3.0640   -0.1212 H   0  0  0  0  0  0  0  0  0  0  0  0
    9.4952   -0.0011   -0.4282 H   0  0  0  0  0  0  0  0  0  0  0  0
    9.8974   -1.7528   -0.0411 H   0  0  0  0  0  0  0  0  0  0  0  0
   10.5180   -0.1446    1.7459 H   0  0  0  0  0  0  0  0  0  0  0  0
    9.2693   -1.2928    2.3536 H   0  0  0  0  0  0  0  0  0  0  0  0
    8.7670    1.2495    1.1933 H   0  0  0  0  0  0  0  0  0  0  0  0
    7.0403    0.7179   -0.5204 H   0  0  0  0  0  0  0  0  0  0  0  0
    0.5590   -1.6971    2.2329 H   0  0  0  0  0  0  0  0  0  0  0  0
   -0.5785   -0.7141   -1.7386 H   0  0  0  0  0  0  0  0  0  0  0  0
   -2.8678    0.0470   -2.1079 H   0  0  0  0  0  0  0  0  0  0  0  0
   -4.4587    2.3583   -0.7944 H   0  0  0  0  0  0  0  0  0  0  0  0
   -6.8813    2.1436   -0.6785 H   0  0  0  0  0  0  0  0  0  0  0  0
   -8.1640   -0.4891   -1.8723 H   0  0  0  0  0  0  0  0  0  0  0  0
  -10.1594   -1.6732   -1.2476 H   0  0  0  0  0  0  0  0  0  0  0  0
  -11.1575   -1.4229    0.9948 H   0  0  0  0  0  0  0  0  0  0  0  0
   -8.1208    1.2659    2.0755 H   0  0  0  0  0  0  0  0  0  0  0  0
   -2.8515    1.7797    1.7901 H   0  0  0  0  0  0  0  0  0  0  0  0
   -0.5637    1.0288    2.1493 H   0  0  0  0  0  0  0  0  0  0  0  0
  1  2  1  0
  2  3  2  0
  3  4  1  0
  4  5  2  0
  5  6  1  0
  6  7  1  0
  7  8  2  0
  8  9  1  0
  9 10  1  0
 10 11  1  0
 11 12  1  0
  9 13  1  0
  5 14  1  0
 14 15  1  0
 15 16  1  0
 16 17  2  0
 17 18  1  0
 18 19  2  0
 19 20  1  0
 20 21  2  0
 21 22  1  0
 22 23  1  0
 23 24  2  0
 23 25  1  0
 25 26  1  0
 26 27  2  0
 27 28  1  0
 28 29  2  0
 29 30  1  0
 30 31  1  0
 30 32  2  0
 21 33  1  0
 33 34  2  0
 17 35  1  0
 35  2  1  0
 13  6  2  0
 35 14  2  0
 34 18  1  0
 32 26  1  0
  1 36  1  0
  1 37  1  0
  4 38  1  0
  7 39  1  0
 10 40  1  0
 10 41  1  0
 11 42  1  0
 11 43  1  0
 12 44  1  0
 13 45  1  0
 16 46  1  0
 19 47  1  0
 20 48  1  0
 22 49  1  0
 25 50  1  0
 27 51  1  0
 28 52  1  0
 29 53  1  0
 32 54  1  0
 33 55  1  0
 34 56  1  0
M  END
$$$$
