
     RDKit          3D

 63 64  0  0  0  0  0  0  0  0999 V2000
   -7.0943    0.0624   -1.0638 C   0  0  0  0  0  0  0  0  0  0  0  0
   -6.4382    0.2801    0.2873 C   0  0  0  0  0  0  0  0  0  0  0  0
   -6.0015    1.7459    0.3104 C   0  0  0  0  0  0  0  0  0  0  0  0
   -7.4641    0.1451    1.2932 N   0  0  0  0  0  0  0  0  0  0  0  0
   -7.4351   -0.6575    2.2749 C   0  0  0  0  0  0  0  0  0  0  0  0
   -8.5614   -0.6389    3.1704 N   0  0  0  0  0  0  0  0  0  0  0  0
   -6.3319   -1.5126    2.4465 N   0  0  0  0  0  0  0  0  0  0  0  0
   -5.3284   -1.4928    1.6035 C   0  0  0  0  0  0  0  0  0  0  0  0
   -4.2638   -2.4043    1.8770 N   0  0  0  0  0  0  0  0  0  0  0  0
   -5.3260   -0.6117    0.4982 N   0  0  0  0  0  0  0  0  0  0  0  0
   -4.3087   -0.5960   -0.3502 O   0  0  0  0  0  0  0  0  0  0  0  0
   -3.1160   -0.1615    0.2064 C   0  0  0  0  0  0  0  0  0  0  0  0
   -1.9890   -0.1744   -0.8312 C   0  0  0  0  0  0  0  0  0  0  0  0
   -2.3174    0.7187   -1.9735 C   0  0  0  0  0  0  0  0  0  0  0  0
   -1.3014    0.7371   -3.0515 C   0  0  0  0  0  0  0  0  0  0  0  0
   -0.0677    1.1085   -2.8412 O   0  0  0  0  0  0  0  0  0  0  0  0
    1.0825    0.8272   -2.2453 C   0  0  0  0  0  0  0  0  0  0  0  0
    2.1614    1.7386   -2.3721 C   0  0  0  0  0  0  0  0  0  0  0  0
    3.3704    1.5077   -1.7905 C   0  0  0  0  0  0  0  0  0  0  0  0
    3.6330    0.3704   -1.0359 C   0  0  0  0  0  0  0  0  0  0  0  0
    4.9599    0.1990   -0.4441 C   0  0  0  0  0  0  0  0  0  0  0  0
    5.3512   -0.8026    0.2807 C   0  0  0  0  0  0  0  0  0  0  0  0
    6.5708   -1.1416    0.9303 C   0  0  0  0  0  0  0  0  0  0  0  0
    6.4477   -2.3215    1.5564 O   0  0  0  0  0  0  0  0  0  0  0  0
    7.8517   -0.5402    1.0666 C   0  0  0  0  0  0  0  0  0  0  0  0
    8.2220    0.6560    0.5654 C   0  0  0  0  0  0  0  0  0  0  0  0
    9.5001    1.2070    0.7160 C   0  0  0  0  0  0  0  0  0  0  0  0
   10.4420    0.4894    1.4177 C   0  0  0  0  0  0  0  0  0  0  0  0
   10.0953   -0.7318    1.9404 C   0  0  0  0  0  0  0  0  0  0  0  0
    8.8460   -1.2325    1.7732 C   0  0  0  0  0  0  0  0  0  0  0  0
    2.6082   -0.5098   -0.9078 C   0  0  0  0  0  0  0  0  0  0  0  0
    1.3622   -0.2922   -1.4959 C   0  0  0  0  0  0  0  0  0  0  0  0
    0.6874    0.0000    0.0000 Cl  0  0  0  0  0  0  0  0  0  0  0  0
   -8.0905    0.5066   -1.0237 H   0  0  0  0  0  0  0  0  0  0  0  0
   -6.4744    0.4886   -1.8944 H   0  0  0  0  0  0  0  0  0  0  0  0
   -7.1212   -1.0414   -1.2651 H   0  0  0  0  0  0  0  0  0  0  0  0
   -6.9137    2.3171   -0.0315 H   0  0  0  0  0  0  0  0  0  0  0  0
   -5.7458    2.0019    1.3596 H   0  0  0  0  0  0  0  0  0  0  0  0
   -5.2120    1.9612   -0.4125 H   0  0  0  0  0  0  0  0  0  0  0  0
   -8.5679    0.0555    3.9681 H   0  0  0  0  0  0  0  0  0  0  0  0
   -9.3687   -1.2689    3.0777 H   0  0  0  0  0  0  0  0  0  0  0  0
   -3.6499   -2.2587    2.7075 H   0  0  0  0  0  0  0  0  0  0  0  0
   -4.0945   -3.2229    1.2455 H   0  0  0  0  0  0  0  0  0  0  0  0
   -3.2552    0.9020    0.4867 H   0  0  0  0  0  0  0  0  0  0  0  0
   -2.7874   -0.7086    1.0876 H   0  0  0  0  0  0  0  0  0  0  0  0
   -1.0781    0.2173   -0.2849 H   0  0  0  0  0  0  0  0  0  0  0  0
   -1.7554   -1.1719   -1.1788 H   0  0  0  0  0  0  0  0  0  0  0  0
   -2.5379    1.7747   -1.6223 H   0  0  0  0  0  0  0  0  0  0  0  0
   -3.3291    0.4254   -2.4194 H   0  0  0  0  0  0  0  0  0  0  0  0
   -1.7176    1.3260   -3.9563 H   0  0  0  0  0  0  0  0  0  0  0  0
   -1.2753   -0.3640   -3.4575 H   0  0  0  0  0  0  0  0  0  0  0  0
    1.9409    2.6181   -2.9620 H   0  0  0  0  0  0  0  0  0  0  0  0
    4.1824    2.2344   -1.9095 H   0  0  0  0  0  0  0  0  0  0  0  0
    5.6786    0.9730   -0.6311 H   0  0  0  0  0  0  0  0  0  0  0  0
    4.5229   -1.5625    0.4128 H   0  0  0  0  0  0  0  0  0  0  0  0
    7.5515    1.2734    0.0170 H   0  0  0  0  0  0  0  0  0  0  0  0
    9.7262    2.1697    0.2876 H   0  0  0  0  0  0  0  0  0  0  0  0
   11.4337    0.8597    1.5646 H   0  0  0  0  0  0  0  0  0  0  0  0
   10.8108   -1.3317    2.5024 H   0  0  0  0  0  0  0  0  0  0  0  0
    8.6044   -2.2065    2.2016 H   0  0  0  0  0  0  0  0  0  0  0  0
    2.7639   -1.4197   -0.3243 H   0  0  0  0  0  0  0  0  0  0  0  0
    0.5998   -1.0708   -1.3565 H   0  0  0  0  0  0  0  0  0  0  0  0
   -0.6874    0.0000    0.0000 H   0  0  0  0  0  0  0  0  0  0  0  0
  1  2  1  0
  2  3  1  0
  2  4  1  0
  4  5  2  0
  5  6  1  0
  5  7  1  0
  7  8  2  0
  8  9  1  0
  8 10  1  0
 10 11  1  0
 11 12  1  0
 12 13  1  0
 13 14  1  0
 14 15  1  0
 15 16  1  0
 16 17  1  0
 17 18  2  0
 18 19  1  0
 19 20  2  0
 20 21  1  0
 21 22  2  0
 22 23  1  0
 23 24  2  0
 23 25  1  0
 25 26  2  0
 26 27  1  0
 27 28  2  0
 28 29  1  0
 29 30  2  0
 20 31  1  0
 31 32  2  0
 10  2  1  0
 32 17  1  0
 30 25  1  0
  1 34  1  0
  1 35  1  0
  1 36  1  0
  3 37  1  0
  3 38  1  0
  3 39  1  0
  6 40  1  0
  6 41  1  0
  9 42  1  0
  9 43  1  0
 12 44  1  0
 12 45  1  0
 13 46  1  0
 13 47  1  0
 14 48  1  0
 14 49  1  0
 15 50  1  0
 15 51  1  0
 18 52  1  0
 19 53  1  0
 21 54  1  0
 22 55  1  0
 26 56  1  0
 27 57  1  0
 28 58  1  0
 29 59  1  0
 30 60  1  0
 31 61  1  0
 32 62  1  0
 33 63  1  0
M  END
$$$$
