
     RDKit          3D

 78 85  0  0  0  0  0  0  0  0999 V2000
   -5.9890    3.7912    3.1442 C   0  0  0  0  0  0  0  0  0  0  0  0
   -5.8211    2.9305    2.2116 O   0  0  0  0  0  0  0  0  0  0  0  0
   -5.5792    2.0741    1.2859 C   0  0  0  0  0  0  0  0  0  0  0  0
   -4.2914    1.6952    0.9085 C   0  0  0  0  0  0  0  0  0  0  0  0
   -3.9857    0.7885   -0.0697 C   0  0  0  0  0  0  0  0  0  0  0  0
   -2.6113    0.4634   -0.4160 C   0  0  0  0  0  0  0  0  0  0  0  0
   -2.0179   -0.7019    0.2853 C   0  0  0  0  0  0  0  0  0  0  0  0
   -2.5999   -1.2659    1.3719 C   0  0  0  0  0  0  0  0  0  0  0  0
   -2.0473   -2.3954    1.9956 C   0  0  0  0  0  0  0  0  0  0  0  0
   -0.8904   -2.9162    1.4678 C   0  0  0  0  0  0  0  0  0  0  0  0
   -0.3219   -2.3257    0.3688 C   0  0  0  0  0  0  0  0  0  0  0  0
   -0.8771   -1.2158   -0.2313 C   0  0  0  0  0  0  0  0  0  0  0  0
   -0.1206   -0.6574   -1.4253 C   0  0  0  0  0  0  0  0  0  0  0  0
    1.0518   -0.4287   -1.0554 O   0  0  0  0  0  0  0  0  0  0  0  0
    2.2101   -0.2027   -0.6901 C   0  0  0  0  0  0  0  0  0  0  0  0
    2.8350    1.0065   -0.9958 O   0  0  0  0  0  0  0  0  0  0  0  0
    4.1831    0.9724   -0.9313 C   0  0  0  0  0  0  0  0  0  0  0  0
    4.8701   -0.1706   -1.6474 C   0  0  0  0  0  0  0  0  0  0  0  0
    6.2113    0.2670   -1.8125 O   0  0  0  0  0  0  0  0  0  0  0  0
    6.5808    0.7969   -0.5690 C   0  0  0  0  0  0  0  0  0  0  0  0
    8.0231    0.6355   -0.3052 C   0  0  0  0  0  0  0  0  0  0  0  0
    8.7056    0.2134    0.7727 C   0  0  0  0  0  0  0  0  0  0  0  0
   10.0448    0.1727    0.7366 C   0  0  0  0  0  0  0  0  0  0  0  0
   10.6825    0.5666   -0.4100 C   0  0  0  0  0  0  0  0  0  0  0  0
    9.2724    1.0077   -1.4579 S   0  0  0  0  0  0  0  0  0  0  0  0
    5.8775    0.2482    0.4904 O   0  0  0  0  0  0  0  0  0  0  0  0
    4.6103    0.8709    0.5163 C   0  0  0  0  0  0  0  0  0  0  0  0
    3.6413    0.1790    1.3832 C   0  0  0  0  0  0  0  0  0  0  0  0
    4.3514   -0.8748    2.0190 O   0  0  0  0  0  0  0  0  0  0  0  0
    2.4148   -0.3771    0.8119 C   0  0  0  0  0  0  0  0  0  0  0  0
    1.3074    0.2561    1.4079 O   0  0  0  0  0  0  0  0  0  0  0  0
   -0.9342    0.3663   -2.1418 C   0  0  0  0  0  0  0  0  0  0  0  0
   -0.9707    0.2644   -3.6428 C   0  0  0  0  0  0  0  0  0  0  0  0
   -2.3397    0.4683   -4.0326 O   0  0  0  0  0  0  0  0  0  0  0  0
   -3.0236    0.8769   -2.8788 C   0  0  0  0  0  0  0  0  0  0  0  0
   -3.9475    1.7184   -2.7854 O   0  0  0  0  0  0  0  0  0  0  0  0
   -2.3865    0.0802   -1.8477 C   0  0  0  0  0  0  0  0  0  0  0  0
   -0.5531   -4.0237    2.2624 O   0  0  0  0  0  0  0  0  0  0  0  0
   -1.6937   -4.4238    3.0171 C   0  0  0  0  0  0  0  0  0  0  0  0
   -2.4030   -3.1764    3.0927 O   0  0  0  0  0  0  0  0  0  0  0  0
   -5.0708    0.2124   -0.7241 C   0  0  0  0  0  0  0  0  0  0  0  0
   -6.3593    0.5138   -0.4312 C   0  0  0  0  0  0  0  0  0  0  0  0
   -7.4699   -0.0388   -1.0612 O   0  0  0  0  0  0  0  0  0  0  0  0
   -7.4053   -0.9849   -2.0865 C   0  0  0  0  0  0  0  0  0  0  0  0
   -6.6049    1.4281    0.5559 C   0  0  0  0  0  0  0  0  0  0  0  0
   -7.9119    1.7989    0.9228 O   0  0  0  0  0  0  0  0  0  0  0  0
   -6.4278    4.8118    2.8680 H   0  0  0  0  0  0  0  0  0  0  0  0
   -5.0265    4.0921    3.6837 H   0  0  0  0  0  0  0  0  0  0  0  0
   -6.6598    3.4826    4.0317 H   0  0  0  0  0  0  0  0  0  0  0  0
   -3.4905    2.1771    1.4536 H   0  0  0  0  0  0  0  0  0  0  0  0
   -1.9838    1.3435   -0.1417 H   0  0  0  0  0  0  0  0  0  0  0  0
   -3.5118   -0.8967    1.8294 H   0  0  0  0  0  0  0  0  0  0  0  0
    0.6052   -2.7828   -0.0122 H   0  0  0  0  0  0  0  0  0  0  0  0
   -0.1567   -1.5636   -2.1263 H   0  0  0  0  0  0  0  0  0  0  0  0
    2.9381   -0.9657   -1.1307 H   0  0  0  0  0  0  0  0  0  0  0  0
    4.5683    1.9097   -1.4075 H   0  0  0  0  0  0  0  0  0  0  0  0
    4.9743   -1.0371   -0.9276 H   0  0  0  0  0  0  0  0  0  0  0  0
    4.4155   -0.4680   -2.5883 H   0  0  0  0  0  0  0  0  0  0  0  0
    6.4228    1.9154   -0.6429 H   0  0  0  0  0  0  0  0  0  0  0  0
    8.1326   -0.1004    1.6904 H   0  0  0  0  0  0  0  0  0  0  0  0
   10.6844   -0.1676    1.5982 H   0  0  0  0  0  0  0  0  0  0  0  0
   11.7314    0.6310   -0.6980 H   0  0  0  0  0  0  0  0  0  0  0  0
    4.8160    1.9240    0.8567 H   0  0  0  0  0  0  0  0  0  0  0  0
    3.4102    0.8703    2.2511 H   0  0  0  0  0  0  0  0  0  0  0  0
    4.0676   -1.7526    1.6346 H   0  0  0  0  0  0  0  0  0  0  0  0
    2.3049   -1.4688    1.0685 H   0  0  0  0  0  0  0  0  0  0  0  0
    1.0937   -0.2201    2.2312 H   0  0  0  0  0  0  0  0  0  0  0  0
   -0.7428    1.4054   -1.7923 H   0  0  0  0  0  0  0  0  0  0  0  0
   -0.6046   -0.7160   -4.0018 H   0  0  0  0  0  0  0  0  0  0  0  0
   -0.4397    1.0828   -4.1693 H   0  0  0  0  0  0  0  0  0  0  0  0
   -2.6272   -0.9910   -2.0079 H   0  0  0  0  0  0  0  0  0  0  0  0
   -2.2181   -5.1686    2.3962 H   0  0  0  0  0  0  0  0  0  0  0  0
   -1.4048   -4.7796    4.0144 H   0  0  0  0  0  0  0  0  0  0  0  0
   -4.8849   -0.5097   -1.4990 H   0  0  0  0  0  0  0  0  0  0  0  0
   -8.3070   -1.6288   -2.1438 H   0  0  0  0  0  0  0  0  0  0  0  0
   -6.5058   -1.6057   -2.0645 H   0  0  0  0  0  0  0  0  0  0  0  0
   -7.3764   -0.4081   -3.0530 H   0  0  0  0  0  0  0  0  0  0  0  0
   -8.4431    1.1016    1.4198 H   0  0  0  0  0  0  0  0  0  0  0  0
  1  2  1  0
  2  3  1  0
  3  4  2  0
  4  5  1  0
  5  6  1  0
  6  7  1  0
  7  8  2  0
  8  9  1  0
  9 10  2  0
 10 11  1  0
 11 12  2  0
 12 13  1  0
 13 14  1  0
 14 15  1  0
 15 16  1  0
 16 17  1  0
 17 18  1  0
 18 19  1  0
 19 20  1  0
 20 21  1  0
 21 22  2  0
 22 23  1  0
 23 24  2  0
 24 25  1  0
 20 26  1  0
 26 27  1  0
 27 28  1  0
 28 29  1  0
 28 30  1  0
 30 31  1  0
 13 32  1  0
 32 33  1  0
 33 34  1  0
 34 35  1  0
 35 36  2  0
 35 37  1  0
 10 38  1  0
 38 39  1  0
 39 40  1  0
  5 41  2  0
 41 42  1  0
 42 43  1  0
 43 44  1  0
 42 45  2  0
 45 46  1  0
 45  3  1  0
 37  6  1  0
 12  7  1  0
 30 15  1  0
 37 32  1  0
 40  9  1  0
 27 17  1  0
 25 21  1  0
  1 47  1  0
  1 48  1  0
  1 49  1  0
  4 50  1  0
  6 51  1  0
  8 52  1  0
 11 53  1  0
 13 54  1  0
 15 55  1  0
 17 56  1  0
 18 57  1  0
 18 58  1  0
 20 59  1  0
 22 60  1  0
 23 61  1  0
 24 62  1  0
 27 63  1  0
 28 64  1  0
 29 65  1  0
 30 66  1  0
 31 67  1  0
 32 68  1  0
 33 69  1  0
 33 70  1  0
 37 71  1  0
 39 72  1  0
 39 73  1  0
 41 74  1  0
 44 75  1  0
 44 76  1  0
 44 77  1  0
 46 78  1  0
M  END
$$$$
