
     RDKit          3D

 56 59  0  0  0  0  0  0  0  0999 V2000
   -9.8745   -0.4300    2.3753 C   0  0  0  0  0  0  0  0  0  0  0  0
   -9.7420    0.0503    1.2839 C   0  0  0  0  0  0  0  0  0  0  0  0
   -9.5533    0.6518   -0.1222 C   0  0  0  0  0  0  0  0  0  0  0  0
   -8.3403    0.4047   -0.4873 O   0  0  0  0  0  0  0  0  0  0  0  0
   -7.1199    0.1627   -0.8715 C   0  0  0  0  0  0  0  0  0  0  0  0
   -6.3289   -0.4463    0.1392 C   0  0  0  0  0  0  0  0  0  0  0  0
   -5.0931   -0.7574   -0.0767 N   0  0  0  0  0  0  0  0  0  0  0  0
   -4.4461   -0.5391   -1.2599 C   0  0  0  0  0  0  0  0  0  0  0  0
   -3.0667   -0.9069   -1.3297 C   0  0  0  0  0  0  0  0  0  0  0  0
   -2.4562   -1.3668   -0.1730 F   0  0  0  0  0  0  0  0  0  0  0  0
   -2.2609   -0.8945   -2.3695 C   0  0  0  0  0  0  0  0  0  0  0  0
   -0.8688   -1.3146   -2.2106 C   0  0  0  0  0  0  0  0  0  0  0  0
   -0.2321   -2.1805   -3.0434 C   0  0  0  0  0  0  0  0  0  0  0  0
    1.0546   -2.5757   -2.8136 N   0  0  0  0  0  0  0  0  0  0  0  0
    1.7750   -2.1460   -1.7670 C   0  0  0  0  0  0  0  0  0  0  0  0
    3.0473   -2.6218   -1.5497 F   0  0  0  0  0  0  0  0  0  0  0  0
    1.1707   -1.2595   -0.8929 C   0  0  0  0  0  0  0  0  0  0  0  0
    1.9314   -0.7303    0.2714 C   0  0  1  0  0  0  0  0  0  0  0  0
    0.7757   -0.1581    1.2044 C   0  0  0  0  0  0  0  0  0  0  0  0
    2.4074   -1.7829    1.1284 N   0  0  0  0  0  0  0  0  0  0  0  0
    3.5688   -2.1143    1.4440 C   0  0  0  0  0  0  0  0  0  0  0  0
    3.8248   -3.2169    2.3334 N   0  0  0  0  0  0  0  0  0  0  0  0
    4.9201   -1.1779    0.7517 S   0  0  0  0  0  0  0  0  0  0  0  0
    4.2070    0.3807    0.1938 C   0  0  1  0  0  0  0  0  0  0  0  0
    4.8813    1.5664    0.8519 C   0  0  0  0  0  0  0  0  0  0  0  0
    4.3333    2.1116    1.8253 O   0  0  0  0  0  0  0  0  0  0  0  0
    6.1249    2.0780    0.3906 N   0  0  0  0  0  0  0  0  0  0  0  0
    6.8403    3.1848    0.9211 C   0  0  0  0  0  0  0  0  0  0  0  0
    7.2630    3.1144    2.3429 C   0  0  0  0  0  0  0  0  0  0  0  0
    7.9470    4.3130    2.6115 F   0  0  0  0  0  0  0  0  0  0  0  0
    6.2028    3.1049    3.2136 F   0  0  0  0  0  0  0  0  0  0  0  0
    3.6788    0.5070   -1.1881 C   0  0  0  0  0  0  0  0  0  0  0  0
    2.7594    0.4300    0.0179 C   0  0  1  0  0  0  0  0  0  0  0  0
   -0.1369   -0.8489   -1.1139 C   0  0  0  0  0  0  0  0  0  0  0  0
   -5.2023    0.0457   -2.2359 C   0  0  0  0  0  0  0  0  0  0  0  0
   -6.4879    0.3804   -2.0401 N   0  0  0  0  0  0  0  0  0  0  0  0
   -9.9826   -0.8315    3.3297 H   0  0  0  0  0  0  0  0  0  0  0  0
  -10.4185    0.2596   -0.7291 H   0  0  0  0  0  0  0  0  0  0  0  0
   -9.8059    1.7341    0.0853 H   0  0  0  0  0  0  0  0  0  0  0  0
   -6.7863   -0.6413    1.0944 H   0  0  0  0  0  0  0  0  0  0  0  0
   -2.6291   -0.5816   -3.3099 H   0  0  0  0  0  0  0  0  0  0  0  0
   -0.7816   -2.5592   -3.9176 H   0  0  0  0  0  0  0  0  0  0  0  0
    1.3061    0.0491    2.1814 H   0  0  0  0  0  0  0  0  0  0  0  0
    0.5146    0.8305    0.7946 H   0  0  0  0  0  0  0  0  0  0  0  0
   -0.0210   -0.8879    1.2805 H   0  0  0  0  0  0  0  0  0  0  0  0
    3.2270   -4.0653    2.2865 H   0  0  0  0  0  0  0  0  0  0  0  0
    4.6290   -3.1132    3.0145 H   0  0  0  0  0  0  0  0  0  0  0  0
    6.5110    1.5211   -0.4376 H   0  0  0  0  0  0  0  0  0  0  0  0
    6.3598    4.1870    0.7386 H   0  0  0  0  0  0  0  0  0  0  0  0
    7.7864    3.2698    0.2824 H   0  0  0  0  0  0  0  0  0  0  0  0
    7.9996    2.3141    2.5579 H   0  0  0  0  0  0  0  0  0  0  0  0
    3.8912    1.5230   -1.6369 H   0  0  0  0  0  0  0  0  0  0  0  0
    3.7563   -0.2621   -1.9359 H   0  0  0  0  0  0  0  0  0  0  0  0
    2.3185    1.4815    0.2316 H   0  0  0  0  0  0  0  0  0  0  0  0
   -0.6498   -0.1387   -0.4630 H   0  0  0  0  0  0  0  0  0  0  0  0
   -4.7282    0.2380   -3.2027 H   0  0  0  0  0  0  0  0  0  0  0  0
  1  2  3  0
  2  3  1  0
  3  4  1  0
  4  5  1  0
  5  6  2  0
  6  7  1  0
  7  8  2  0
  8  9  1  0
  9 10  1  0
  9 11  2  0
 11 12  1  0
 12 13  2  0
 13 14  1  0
 14 15  2  0
 15 16  1  0
 15 17  1  0
 17 18  1  0
 18 19  1  1
 18 20  1  0
 20 21  2  0
 21 22  1  0
 21 23  1  0
 23 24  1  0
 24 25  1  1
 25 26  2  0
 25 27  1  0
 27 28  1  0
 28 29  1  0
 29 30  1  0
 29 31  1  0
 24 32  1  0
 32 33  1  0
 17 34  2  0
  8 35  1  0
 35 36  2  0
 36  5  1  0
 34 12  1  0
 33 18  1  0
 33 24  1  0
  1 37  1  0
  3 38  1  0
  3 39  1  0
  6 40  1  0
 11 41  1  0
 13 42  1  0
 19 43  1  0
 19 44  1  0
 19 45  1  0
 22 46  1  0
 22 47  1  0
 27 48  1  0
 28 49  1  0
 28 50  1  0
 29 51  1  0
 32 52  1  0
 32 53  1  0
 33 54  1  1
 34 55  1  0
 35 56  1  0
M  END
$$$$
