
     RDKit          3D

 57 61  0  0  0  0  0  0  0  0999 V2000
   -3.6134    2.8296    2.6864 C   0  0  0  0  0  0  0  0  0  0  0  0
   -3.6234    1.9740    1.4696 C   0  0  0  0  0  0  0  0  0  0  0  0
   -4.1122    2.4626    0.2762 C   0  0  0  0  0  0  0  0  0  0  0  0
   -4.1198    1.6769   -0.8492 C   0  0  0  0  0  0  0  0  0  0  0  0
   -3.6490    0.3626   -0.8775 C   0  0  0  0  0  0  0  0  0  0  0  0
   -3.6929   -0.3929   -2.0791 N   0  0  0  0  0  0  0  0  0  0  0  0
   -3.9354   -1.6634   -2.3126 N   0  0  0  0  0  0  0  0  0  0  0  0
   -3.8905   -1.9600   -3.6087 C   0  0  0  0  0  0  0  0  0  0  0  0
   -3.5968   -0.7940   -4.2518 C   0  0  0  0  0  0  0  0  0  0  0  0
   -3.4800    0.1607   -3.2786 N   0  0  0  0  0  0  0  0  0  0  0  0
   -3.1589   -0.1272    0.3198 C   0  0  0  0  0  0  0  0  0  0  0  0
   -2.6540   -1.4812    0.3627 C   0  0  0  0  0  0  0  0  0  0  0  0
   -3.5338   -2.3883    0.1491 O   0  0  0  0  0  0  0  0  0  0  0  0
   -1.3386   -1.9057    0.6053 N   0  0  0  0  0  0  0  0  0  0  0  0
   -1.0644   -3.3506    0.5743 C   0  0  0  0  0  0  0  0  0  0  0  0
   -0.1742   -3.7782    1.7123 C   0  0  0  0  0  0  0  0  0  0  0  0
    0.9522   -3.0020    1.8358 O   0  0  0  0  0  0  0  0  0  0  0  0
    1.0341   -1.9948    0.8746 C   0  0  0  0  0  0  0  0  0  0  0  0
   -0.2000   -1.0774    0.9093 C   0  0  1  0  0  0  0  0  0  0  0  0
    0.0158   -0.0410   -0.1673 C   0  0  0  0  0  0  0  0  0  0  0  0
    1.2033    0.8038    0.2149 C   0  0  0  0  0  0  0  0  0  0  0  0
    0.9961    1.9071    1.0373 C   0  0  0  0  0  0  0  0  0  0  0  0
    2.0300    2.7065    1.4100 C   0  0  0  0  0  0  0  0  0  0  0  0
    3.3252    2.4197    0.9621 C   0  0  0  0  0  0  0  0  0  0  0  0
    3.5566    1.3343    0.1478 C   0  0  0  0  0  0  0  0  0  0  0  0
    4.8867    1.0044   -0.3196 C   0  0  0  0  0  0  0  0  0  0  0  0
    5.9542    1.7557   -0.0091 N   0  0  0  0  0  0  0  0  0  0  0  0
    7.1872    1.4480   -0.4289 C   0  0  0  0  0  0  0  0  0  0  0  0
    7.4419    0.3380   -1.2083 C   0  0  0  0  0  0  0  0  0  0  0  0
    6.3360   -0.4403   -1.5295 C   0  0  0  0  0  0  0  0  0  0  0  0
    5.1152   -0.0975   -1.0892 N   0  0  0  0  0  0  0  0  0  0  0  0
    2.4816    0.5508   -0.2065 C   0  0  0  0  0  0  0  0  0  0  0  0
   -3.1545    0.6825    1.4663 C   0  0  0  0  0  0  0  0  0  0  0  0
   -2.6840    0.1932    2.6387 F   0  0  0  0  0  0  0  0  0  0  0  0
   -3.2416    2.2345    3.5366 H   0  0  0  0  0  0  0  0  0  0  0  0
   -4.6397    3.1755    2.9581 H   0  0  0  0  0  0  0  0  0  0  0  0
   -3.0249    3.7555    2.5163 H   0  0  0  0  0  0  0  0  0  0  0  0
   -4.4886    3.4873    0.2694 H   0  0  0  0  0  0  0  0  0  0  0  0
   -4.5105    2.0642   -1.8062 H   0  0  0  0  0  0  0  0  0  0  0  0
   -4.0475   -2.9145   -4.1130 H   0  0  0  0  0  0  0  0  0  0  0  0
   -3.4773   -0.6289   -5.3149 H   0  0  0  0  0  0  0  0  0  0  0  0
   -2.0157   -3.9234    0.6761 H   0  0  0  0  0  0  0  0  0  0  0  0
   -0.5662   -3.5290   -0.3963 H   0  0  0  0  0  0  0  0  0  0  0  0
    0.0636   -4.8520    1.5762 H   0  0  0  0  0  0  0  0  0  0  0  0
   -0.7367   -3.6953    2.6754 H   0  0  0  0  0  0  0  0  0  0  0  0
    1.9626   -1.4402    1.0960 H   0  0  0  0  0  0  0  0  0  0  0  0
    1.1006   -2.3824   -0.1592 H   0  0  0  0  0  0  0  0  0  0  0  0
   -0.2471   -0.6043    1.9156 H   0  0  0  0  0  0  0  0  0  0  0  0
   -0.8522    0.6047   -0.2731 H   0  0  0  0  0  0  0  0  0  0  0  0
    0.2671   -0.6108   -1.0983 H   0  0  0  0  0  0  0  0  0  0  0  0
   -0.0417    2.0840    1.3603 H   0  0  0  0  0  0  0  0  0  0  0  0
    1.8666    3.5672    2.0549 H   0  0  0  0  0  0  0  0  0  0  0  0
    4.1782    3.0270    1.2331 H   0  0  0  0  0  0  0  0  0  0  0  0
    8.0513    2.0730   -0.1700 H   0  0  0  0  0  0  0  0  0  0  0  0
    8.4013    0.0372   -1.5757 H   0  0  0  0  0  0  0  0  0  0  0  0
    6.4950   -1.3321   -2.1480 H   0  0  0  0  0  0  0  0  0  0  0  0
    2.6634   -0.3131   -0.8646 H   0  0  0  0  0  0  0  0  0  0  0  0
  1  2  1  0
  2  3  2  0
  3  4  1  0
  4  5  2  0
  5  6  1  0
  6  7  1  0
  7  8  2  0
  8  9  1  0
  9 10  2  0
  5 11  1  0
 11 12  1  0
 12 13  2  0
 12 14  1  0
 14 15  1  0
 15 16  1  0
 16 17  1  0
 17 18  1  0
 18 19  1  0
 19 20  1  0
 20 21  1  0
 21 22  2  0
 22 23  1  0
 23 24  2  0
 24 25  1  0
 25 26  1  0
 26 27  2  0
 27 28  1  0
 28 29  2  0
 29 30  1  0
 30 31  2  0
 25 32  2  0
 11 33  2  0
 33 34  1  0
 33  2  1  0
 10  6  1  0
 19 14  1  0
 32 21  1  0
 31 26  1  0
  1 35  1  0
  1 36  1  0
  1 37  1  0
  3 38  1  0
  4 39  1  0
  8 40  1  0
  9 41  1  0
 15 42  1  0
 15 43  1  0
 16 44  1  0
 16 45  1  0
 18 46  1  0
 18 47  1  0
 19 48  1  1
 20 49  1  0
 20 50  1  0
 22 51  1  0
 23 52  1  0
 24 53  1  0
 28 54  1  0
 29 55  1  0
 30 56  1  0
 32 57  1  0
M  END
$$$$
