
     RDKit          3D

 56 58  0  0  0  0  0  0  0  0999 V2000
   -2.0935   -1.8523    2.2377 C   0  0  0  0  0  0  0  0  0  0  0  0
   -1.3939   -0.5442    1.9359 C   0  0  2  0  0  0  0  0  0  0  0  0
   -2.3686    0.5708    1.6612 C   0  0  0  0  0  0  0  0  0  0  0  0
   -2.9854    0.5292    0.3870 N   0  0  0  0  0  0  0  0  0  0  0  0
   -4.3217    0.0195    0.4656 C   0  0  0  0  0  0  0  0  0  0  0  0
   -5.0214   -0.0431   -0.8760 C   0  0  0  0  0  0  0  0  0  0  0  0
   -5.1539    1.2704   -1.5585 C   0  0  0  0  0  0  0  0  0  0  0  0
   -4.6531    2.4592   -0.9625 N   0  0  0  0  0  0  0  0  0  0  0  0
   -5.7108    1.3611   -2.6767 O   0  0  0  0  0  0  0  0  0  0  0  0
   -6.3469   -0.7847   -0.8058 C   0  0  0  0  0  0  0  0  0  0  0  0
   -5.1879   -1.3036   -1.6056 C   0  0  0  0  0  0  0  0  0  0  0  0
   -2.2214    0.0011   -0.6735 C   0  0  0  0  0  0  0  0  0  0  0  0
   -0.7776   -0.2415   -0.3874 C   0  0  0  0  0  0  0  0  0  0  0  0
   -0.4326   -0.5937    0.9173 N   0  0  0  0  0  0  0  0  0  0  0  0
    0.8650   -1.6556    1.1143 S   0  0  0  0  0  6  0  0  0  0  0  0
    0.5603   -2.9225    0.3256 O   0  0  0  0  0  0  0  0  0  0  0  0
    1.1237   -2.0675    2.5109 O   0  0  0  0  0  0  0  0  0  0  0  0
    2.3068   -0.8889    0.4508 C   0  0  0  0  0  0  0  0  0  0  0  0
    2.6482   -1.0621   -0.8718 C   0  0  0  0  0  0  0  0  0  0  0  0
    3.7648   -0.4773   -1.4181 C   0  0  0  0  0  0  0  0  0  0  0  0
    4.6221    0.3323   -0.6534 C   0  0  0  0  0  0  0  0  0  0  0  0
    5.8169    0.9423   -1.2882 C   0  0  1  0  0  0  0  0  0  0  0  0
    7.0301    0.0159   -1.1600 C   0  0  0  0  0  0  0  0  0  0  0  0
    5.6253    1.0889   -2.6752 O   0  0  0  0  0  0  0  0  0  0  0  0
    6.2097    2.2763   -0.7542 C   0  0  0  0  0  0  0  0  0  0  0  0
    5.1328    3.1537   -0.9405 F   0  0  0  0  0  0  0  0  0  0  0  0
    7.2223    2.7444   -1.6230 F   0  0  0  0  0  0  0  0  0  0  0  0
    6.6581    2.2639    0.5334 F   0  0  0  0  0  0  0  0  0  0  0  0
    4.2658    0.4936    0.6636 C   0  0  0  0  0  0  0  0  0  0  0  0
    3.1277   -0.1025    1.2203 C   0  0  0  0  0  0  0  0  0  0  0  0
   -2.9498   -1.6541    2.9032 H   0  0  0  0  0  0  0  0  0  0  0  0
   -2.3481   -2.3993    1.3192 H   0  0  0  0  0  0  0  0  0  0  0  0
   -1.3709   -2.4729    2.8412 H   0  0  0  0  0  0  0  0  0  0  0  0
   -0.8734   -0.2585    2.8994 H   0  0  0  0  0  0  0  0  0  0  0  0
   -1.8212    1.5306    1.7524 H   0  0  0  0  0  0  0  0  0  0  0  0
   -3.1617    0.5486    2.4575 H   0  0  0  0  0  0  0  0  0  0  0  0
   -4.9700    0.6767    1.1121 H   0  0  0  0  0  0  0  0  0  0  0  0
   -4.2648   -1.0136    0.9131 H   0  0  0  0  0  0  0  0  0  0  0  0
   -4.8736    2.6503    0.0370 H   0  0  0  0  0  0  0  0  0  0  0  0
   -4.0740    3.1391   -1.5031 H   0  0  0  0  0  0  0  0  0  0  0  0
   -7.2309   -0.3867   -1.3398 H   0  0  0  0  0  0  0  0  0  0  0  0
   -6.6140   -1.3427    0.1087 H   0  0  0  0  0  0  0  0  0  0  0  0
   -5.3015   -1.2221   -2.7207 H   0  0  0  0  0  0  0  0  0  0  0  0
   -4.6900   -2.2329   -1.2837 H   0  0  0  0  0  0  0  0  0  0  0  0
   -2.6973   -0.9245   -1.0583 H   0  0  0  0  0  0  0  0  0  0  0  0
   -2.2706    0.7247   -1.5351 H   0  0  0  0  0  0  0  0  0  0  0  0
   -0.1775    0.6694   -0.6897 H   0  0  0  0  0  0  0  0  0  0  0  0
   -0.4293   -1.0385   -1.0958 H   0  0  0  0  0  0  0  0  0  0  0  0
    1.9745   -1.6946   -1.4606 H   0  0  0  0  0  0  0  0  0  0  0  0
    4.0266   -0.6170   -2.4552 H   0  0  0  0  0  0  0  0  0  0  0  0
    7.4754    0.1301   -0.1644 H   0  0  0  0  0  0  0  0  0  0  0  0
    7.7276    0.1727   -1.9992 H   0  0  0  0  0  0  0  0  0  0  0  0
    6.6304   -1.0174   -1.2263 H   0  0  0  0  0  0  0  0  0  0  0  0
    6.1644    1.8718   -3.0011 H   0  0  0  0  0  0  0  0  0  0  0  0
    4.9031    1.1157    1.3036 H   0  0  0  0  0  0  0  0  0  0  0  0
    2.9054    0.0619    2.2509 H   0  0  0  0  0  0  0  0  0  0  0  0
  1  2  1  0
  2  3  1  0
  3  4  1  0
  4  5  1  0
  5  6  1  0
  6  7  1  0
  7  8  1  0
  7  9  2  0
  6 10  1  0
 10 11  1  0
  4 12  1  0
 12 13  1  0
 13 14  1  0
 14 15  1  0
 15 16  2  0
 15 17  2  0
 15 18  1  0
 18 19  2  0
 19 20  1  0
 20 21  2  0
 21 22  1  0
 22 23  1  0
 22 24  1  6
 22 25  1  0
 25 26  1  0
 25 27  1  0
 25 28  1  0
 21 29  1  0
 29 30  2  0
 14  2  1  0
 30 18  1  0
 11  6  1  0
  1 31  1  0
  1 32  1  0
  1 33  1  0
  2 34  1  1
  3 35  1  0
  3 36  1  0
  5 37  1  0
  5 38  1  0
  8 39  1  0
  8 40  1  0
 10 41  1  0
 10 42  1  0
 11 43  1  0
 11 44  1  0
 12 45  1  0
 12 46  1  0
 13 47  1  0
 13 48  1  0
 19 49  1  0
 20 50  1  0
 23 51  1  0
 23 52  1  0
 23 53  1  0
 24 54  1  0
 29 55  1  0
 30 56  1  0
M  END
$$$$
