
     RDKit          3D

 57 59  0  0  0  0  0  0  0  0999 V2000
    6.1394   -0.3820   -0.2674 C   0  0  2  0  0  0  0  0  0  0  0  0
    6.6685   -1.3497    0.7475 C   0  0  0  0  0  0  0  0  0  0  0  0
    8.1802   -1.1543    0.8523 C   0  0  0  0  0  0  0  0  0  0  0  0
    8.4247    0.2547    1.2798 C   0  0  0  0  0  0  0  0  0  0  0  0
    7.8258    1.4560    1.6216 O   0  0  0  0  0  0  0  0  0  0  0  0
    9.6663    0.5220    1.3945 O   0  0  0  0  0  0  0  0  0  0  0  0
    4.6901   -0.5070   -0.4267 N   0  0  0  0  0  0  0  0  0  0  0  0
    3.8112    0.5910   -0.2196 C   0  0  0  0  0  0  0  0  0  0  0  0
    4.2702    1.7127    0.1110 O   0  0  0  0  0  0  0  0  0  0  0  0
    2.3643    0.4875   -0.3731 C   0  0  0  0  0  0  0  0  0  0  0  0
    1.6082    1.6168   -0.1473 C   0  0  0  0  0  0  0  0  0  0  0  0
    0.2178    1.5422   -0.2884 C   0  0  0  0  0  0  0  0  0  0  0  0
   -0.4165    0.3709   -0.6470 C   0  0  0  0  0  0  0  0  0  0  0  0
   -1.8988    0.2804   -0.8003 C   0  0  0  0  0  0  0  0  0  0  0  0
   -2.4694   -0.1009    0.5205 C   0  0  0  0  0  0  0  0  0  0  0  0
   -3.9655   -0.2392    0.5529 C   0  0  2  0  0  0  0  0  0  0  0  0
   -4.4386   -1.2968   -0.4116 C   0  0  0  0  0  0  0  0  0  0  0  0
   -5.8049   -1.6292   -0.0501 N   0  0  0  0  0  0  0  0  0  0  0  0
   -6.6939   -0.5301    0.1211 C   0  0  0  0  0  0  0  0  0  0  0  0
   -6.1560    0.7309    0.3171 C   0  0  0  0  0  0  0  0  0  0  0  0
   -4.7005    1.0422    0.3651 C   0  0  0  0  0  0  0  0  0  0  0  0
   -6.9751    1.8267    0.4877 C   0  0  0  0  0  0  0  0  0  0  0  0
   -6.4947    3.1217    0.6890 O   0  0  0  0  0  0  0  0  0  0  0  0
   -8.3174    1.6187    0.4558 N   0  0  0  0  0  0  0  0  0  0  0  0
   -8.8251    0.3765    0.2627 C   0  0  0  0  0  0  0  0  0  0  0  0
  -10.1150    0.3148    0.2535 N   0  0  0  0  0  0  0  0  0  0  0  0
   -8.0325   -0.6852    0.0974 N   0  0  0  0  0  0  0  0  0  0  0  0
    0.3414   -0.7646   -0.8743 C   0  0  0  0  0  0  0  0  0  0  0  0
    1.7113   -0.6738   -0.7308 C   0  0  0  0  0  0  0  0  0  0  0  0
    6.7954   -0.5692   -1.5935 C   0  0  0  0  0  0  0  0  0  0  0  0
    7.5296   -0.7255   -2.7720 O   0  0  0  0  0  0  0  0  0  0  0  0
    5.7875   -0.7681   -2.3466 O   0  0  0  0  0  0  0  0  0  0  0  0
    6.3211    0.6631    0.0192 H   0  0  0  0  0  0  0  0  0  0  0  0
    6.4359   -2.3826    0.4305 H   0  0  0  0  0  0  0  0  0  0  0  0
    6.1808   -1.0822    1.7256 H   0  0  0  0  0  0  0  0  0  0  0  0
    8.5943   -1.3381   -0.1550 H   0  0  0  0  0  0  0  0  0  0  0  0
    8.6133   -1.8551    1.6060 H   0  0  0  0  0  0  0  0  0  0  0  0
    7.9514    2.2961    1.0553 H   0  0  0  0  0  0  0  0  0  0  0  0
    4.3107   -1.4393   -0.7013 H   0  0  0  0  0  0  0  0  0  0  0  0
    2.0348    2.5818    0.1397 H   0  0  0  0  0  0  0  0  0  0  0  0
   -0.3495    2.4370   -0.1067 H   0  0  0  0  0  0  0  0  0  0  0  0
   -2.0962   -0.4905   -1.5733 H   0  0  0  0  0  0  0  0  0  0  0  0
   -2.3011    1.2307   -1.2054 H   0  0  0  0  0  0  0  0  0  0  0  0
   -2.1089    0.5631    1.3079 H   0  0  0  0  0  0  0  0  0  0  0  0
   -2.0607   -1.1181    0.7638 H   0  0  0  0  0  0  0  0  0  0  0  0
   -4.2191   -0.6144    1.5749 H   0  0  0  0  0  0  0  0  0  0  0  0
   -4.4970   -0.8973   -1.4573 H   0  0  0  0  0  0  0  0  0  0  0  0
   -3.7646   -2.1690   -0.3358 H   0  0  0  0  0  0  0  0  0  0  0  0
   -6.1811   -2.6007    0.0922 H   0  0  0  0  0  0  0  0  0  0  0  0
   -4.4892    1.7345    1.2108 H   0  0  0  0  0  0  0  0  0  0  0  0
   -4.4429    1.5715   -0.5744 H   0  0  0  0  0  0  0  0  0  0  0  0
   -5.8886    3.5733   -0.0013 H   0  0  0  0  0  0  0  0  0  0  0  0
  -10.5332   -0.6513    0.1033 H   0  0  0  0  0  0  0  0  0  0  0  0
   -8.4481   -1.6307   -0.0496 H   0  0  0  0  0  0  0  0  0  0  0  0
   -0.1371   -1.7058   -1.1597 H   0  0  0  0  0  0  0  0  0  0  0  0
    2.2869   -1.5662   -0.9111 H   0  0  0  0  0  0  0  0  0  0  0  0
    8.0597   -1.6001   -2.8539 H   0  0  0  0  0  0  0  0  0  0  0  0
  1  2  1  0
  2  3  1  0
  3  4  1  0
  4  5  1  0
  4  6  2  0
  1  7  1  0
  7  8  1  0
  8  9  2  0
  8 10  1  0
 10 11  2  0
 11 12  1  0
 12 13  2  0
 13 14  1  0
 14 15  1  0
 15 16  1  0
 16 17  1  0
 17 18  1  0
 18 19  1  0
 19 20  2  0
 20 21  1  0
 20 22  1  0
 22 23  1  0
 22 24  2  0
 24 25  1  0
 25 26  2  3
 25 27  1  0
 13 28  1  0
 28 29  2  0
  1 30  1  0
 30 31  1  0
 30 32  2  0
 29 10  1  0
 21 16  1  0
 27 19  1  0
  1 33  1  1
  2 34  1  0
  2 35  1  0
  3 36  1  0
  3 37  1  0
  5 38  1  0
  7 39  1  0
 11 40  1  0
 12 41  1  0
 14 42  1  0
 14 43  1  0
 15 44  1  0
 15 45  1  0
 16 46  1  1
 17 47  1  0
 17 48  1  0
 18 49  1  0
 21 50  1  0
 21 51  1  0
 23 52  1  0
 26 53  1  0
 27 54  1  0
 28 55  1  0
 29 56  1  0
 31 57  1  0
M  END
$$$$
