
     RDKit          3D

 58 62  0  0  0  0  0  0  0  0999 V2000
   -5.5085   -1.1057    0.6916 C   0  0  0  0  0  0  0  0  0  0  0  0
   -4.9032    0.4425   -0.0314 P   0  0  0  0  0  5  0  0  0  0  0  0
   -6.1506    1.2398   -0.4478 O   0  0  0  0  0  0  0  0  0  0  0  0
   -4.0760    1.3834    1.0339 O   0  0  0  0  0  0  0  0  0  0  0  0
   -2.8633    1.0263    1.4559 C   0  0  0  0  0  0  0  0  0  0  0  0
   -2.1610   -0.1220    0.8135 C   0  0  0  0  0  0  0  0  0  0  0  0
   -1.9293   -0.0176   -0.6336 C   0  0  1  0  0  0  0  0  0  0  0  0
   -1.9527    1.3863   -1.1840 C   0  0  0  0  0  0  0  0  0  0  0  0
   -0.6373    2.0832   -1.1383 C   0  0  0  0  0  0  0  0  0  0  0  0
    0.3949    1.4262   -0.2753 C   0  0  0  0  0  0  0  0  0  0  0  0
    0.5976   -0.0208   -0.5733 C   0  0  1  0  0  0  0  0  0  0  0  0
    1.8611   -0.1293   -1.8458 S   0  0  0  0  0  6  0  0  0  0  0  0
    1.3678    0.6890   -3.0082 O   0  0  0  0  0  0  0  0  0  0  0  0
    2.0753   -1.5614   -2.2422 O   0  0  0  0  0  0  0  0  0  0  0  0
    3.3615    0.5798   -1.3020 C   0  0  0  0  0  0  0  0  0  0  0  0
    3.6852    1.8975   -1.5241 C   0  0  0  0  0  0  0  0  0  0  0  0
    4.8688    2.4589   -1.0933 C   0  0  0  0  0  0  0  0  0  0  0  0
    5.7758    1.6774   -0.4094 C   0  0  0  0  0  0  0  0  0  0  0  0
    7.2830    2.3753    0.1441 Cl  0  0  0  0  0  0  0  0  0  0  0  0
    5.4441    0.3535   -0.1897 C   0  0  0  0  0  0  0  0  0  0  0  0
    4.2620   -0.2050   -0.6205 C   0  0  0  0  0  0  0  0  0  0  0  0
    1.1231   -0.7978    0.5722 C   0  0  0  0  0  0  0  0  0  0  0  0
    1.9094   -0.2023    1.5328 C   0  0  0  0  0  0  0  0  0  0  0  0
    2.2343    1.0899    1.4844 F   0  0  0  0  0  0  0  0  0  0  0  0
    2.4068   -0.9376    2.6151 C   0  0  0  0  0  0  0  0  0  0  0  0
    2.1269   -2.2664    2.7500 C   0  0  0  0  0  0  0  0  0  0  0  0
    1.3499   -2.8744    1.8092 C   0  0  0  0  0  0  0  0  0  0  0  0
    1.0701   -4.1984    1.9422 F   0  0  0  0  0  0  0  0  0  0  0  0
    0.8569   -2.1338    0.7315 C   0  0  0  0  0  0  0  0  0  0  0  0
    0.0838   -2.7922   -0.1813 O   0  0  0  0  0  0  0  0  0  0  0  0
   -0.6532   -2.1371   -1.1473 C   0  0  0  0  0  0  0  0  0  0  0  0
   -0.6479   -0.6557   -1.1495 C   0  0  1  0  0  0  0  0  0  0  0  0
   -3.0668   -0.7698   -1.3360 C   0  0  0  0  0  0  0  0  0  0  0  0
   -4.0844    0.1681   -1.4864 O   0  0  0  0  0  0  0  0  0  0  0  0
   -6.6097   -1.0844    0.8741 H   0  0  0  0  0  0  0  0  0  0  0  0
   -5.3423   -1.9787    0.0181 H   0  0  0  0  0  0  0  0  0  0  0  0
   -5.0627   -1.2863    1.7130 H   0  0  0  0  0  0  0  0  0  0  0  0
   -2.1764    1.9211    1.4051 H   0  0  0  0  0  0  0  0  0  0  0  0
   -2.9093    0.7982    2.5620 H   0  0  0  0  0  0  0  0  0  0  0  0
   -1.2166   -0.2617    1.3791 H   0  0  0  0  0  0  0  0  0  0  0  0
   -2.7684   -1.0453    1.0529 H   0  0  0  0  0  0  0  0  0  0  0  0
   -2.7153    2.0291   -0.7522 H   0  0  0  0  0  0  0  0  0  0  0  0
   -2.2185    1.2801   -2.2783 H   0  0  0  0  0  0  0  0  0  0  0  0
   -0.1749    2.2248   -2.1565 H   0  0  0  0  0  0  0  0  0  0  0  0
   -0.7520    3.1377   -0.7518 H   0  0  0  0  0  0  0  0  0  0  0  0
    0.1199    1.6316    0.7800 H   0  0  0  0  0  0  0  0  0  0  0  0
    1.3462    1.9770   -0.4342 H   0  0  0  0  0  0  0  0  0  0  0  0
    2.9873    2.5506   -2.0684 H   0  0  0  0  0  0  0  0  0  0  0  0
    5.0937    3.5155   -1.2887 H   0  0  0  0  0  0  0  0  0  0  0  0
    6.1922   -0.2326    0.3572 H   0  0  0  0  0  0  0  0  0  0  0  0
    4.0226   -1.2389   -0.4390 H   0  0  0  0  0  0  0  0  0  0  0  0
    3.0272   -0.4537    3.3671 H   0  0  0  0  0  0  0  0  0  0  0  0
    2.5308   -2.8010    3.6022 H   0  0  0  0  0  0  0  0  0  0  0  0
   -0.2891   -2.4993   -2.1621 H   0  0  0  0  0  0  0  0  0  0  0  0
   -1.7195   -2.4690   -1.1394 H   0  0  0  0  0  0  0  0  0  0  0  0
   -0.6367   -0.3312   -2.2410 H   0  0  0  0  0  0  0  0  0  0  0  0
   -3.4556   -1.5607   -0.6343 H   0  0  0  0  0  0  0  0  0  0  0  0
   -2.7768   -1.1731   -2.3036 H   0  0  0  0  0  0  0  0  0  0  0  0
  1  2  1  0
  2  3  2  0
  2  4  1  0
  4  5  1  0
  5  6  1  0
  7  6  1  1
  7  8  1  0
  8  9  1  0
  9 10  1  0
 10 11  1  0
 11 12  1  6
 12 13  2  0
 12 14  2  0
 12 15  1  0
 15 16  2  0
 16 17  1  0
 17 18  2  0
 18 19  1  0
 18 20  1  0
 20 21  2  0
 11 22  1  0
 22 23  2  0
 23 24  1  0
 23 25  1  0
 25 26  2  0
 26 27  1  0
 27 28  1  0
 27 29  2  0
 29 30  1  0
 30 31  1  0
 31 32  1  0
  7 33  1  0
 33 34  1  0
 34  2  1  0
 32  7  1  0
 32 11  1  0
 21 15  1  0
 29 22  1  0
  1 35  1  0
  1 36  1  0
  1 37  1  0
  5 38  1  0
  5 39  1  0
  6 40  1  0
  6 41  1  0
  8 42  1  0
  8 43  1  0
  9 44  1  0
  9 45  1  0
 10 46  1  0
 10 47  1  0
 16 48  1  0
 17 49  1  0
 20 50  1  0
 21 51  1  0
 25 52  1  0
 26 53  1  0
 31 54  1  0
 31 55  1  0
 32 56  1  6
 33 57  1  0
 33 58  1  0
M  END
$$$$
