
     RDKit          3D

 60 62  0  0  0  0  0  0  0  0999 V2000
   -7.0338    3.6176   -2.8559 C   0  0  0  0  0  0  0  0  0  0  0  0
   -6.7156    2.4280   -2.4054 C   0  0  0  0  0  0  0  0  0  0  0  0
   -5.3306    2.1952   -1.8512 C   0  0  0  0  0  0  0  0  0  0  0  0
   -4.7988    0.9164   -2.4924 C   0  0  0  0  0  0  0  0  0  0  0  0
   -3.4127    0.7170   -2.0766 N   0  0  0  0  0  0  0  0  0  0  0  0
   -3.1265    0.1653   -0.8956 C   0  0  0  0  0  0  0  0  0  0  0  0
   -1.8249    0.0020   -0.4483 C   0  0  0  0  0  0  0  0  0  0  0  0
   -1.5214   -0.5329    0.8231 C   0  0  0  0  0  0  0  0  0  0  0  0
   -1.2457   -0.9940    1.9759 C   0  0  0  0  0  0  0  0  0  0  0  0
   -0.9339   -1.5278    3.2752 C   0  0  0  0  0  0  0  0  0  0  0  0
   -0.0991   -0.5738    4.0601 C   0  0  0  0  0  0  0  0  0  0  0  0
   -2.2368   -1.7367    4.0792 C   0  0  0  0  0  0  0  0  0  0  0  0
   -0.3112   -2.7523    3.0734 O   0  0  0  0  0  0  0  0  0  0  0  0
   -0.8165    0.4414   -1.2981 C   0  0  0  0  0  0  0  0  0  0  0  0
    0.5417    0.4329   -1.1967 C   0  0  0  0  0  0  0  0  0  0  0  0
    1.3915   -0.0663   -0.1024 C   0  0  0  0  0  0  0  0  0  0  0  0
    1.7325    0.7350    0.8206 O   0  0  0  0  0  0  0  0  0  0  0  0
    1.8496   -1.3223   -0.0202 O   0  0  0  0  0  0  0  0  0  0  0  0
    2.6633   -2.0369    0.7872 C   0  0  0  0  0  0  0  0  0  0  0  0
    4.1249   -1.6645    0.7403 C   0  0  0  0  0  0  0  0  0  0  0  0
    4.8011   -2.3937   -0.2733 C   0  0  0  0  0  0  0  0  0  0  0  0
    6.1293   -2.1603   -0.5416 C   0  0  0  0  0  0  0  0  0  0  0  0
    6.7365   -1.1977    0.2249 C   0  0  0  0  0  0  0  0  0  0  0  0
    6.1107   -0.5220    1.1716 C   0  0  0  0  0  0  0  0  0  0  0  0
    4.7380   -0.7294    1.4771 C   0  0  0  0  0  0  0  0  0  0  0  0
    4.1127    0.0286    2.5402 C   0  0  0  0  0  0  0  0  0  0  0  0
    1.0899    1.0016   -2.3588 C   0  0  0  0  0  0  0  0  0  0  0  0
    2.5472    1.1840   -2.6241 C   0  0  0  0  0  0  0  0  0  0  0  0
    0.0485    1.3294   -3.1203 N   0  0  0  0  0  0  0  0  0  0  0  0
   -1.1273    1.0100   -2.5166 C   0  0  0  0  0  0  0  0  0  0  0  0
   -2.4242    1.1383   -2.8866 C   0  0  0  0  0  0  0  0  0  0  0  0
   -2.7414    1.6603   -4.0135 O   0  0  0  0  0  0  0  0  0  0  0  0
   -8.0052    3.8432   -3.2631 H   0  0  0  0  0  0  0  0  0  0  0  0
   -6.3450    4.4811   -2.8452 H   0  0  0  0  0  0  0  0  0  0  0  0
   -7.4309    1.6218   -2.4542 H   0  0  0  0  0  0  0  0  0  0  0  0
   -4.6473    3.0146   -2.1159 H   0  0  0  0  0  0  0  0  0  0  0  0
   -5.4567    2.0863   -0.7741 H   0  0  0  0  0  0  0  0  0  0  0  0
   -4.8915    0.9409   -3.5925 H   0  0  0  0  0  0  0  0  0  0  0  0
   -5.3853    0.0807   -2.0757 H   0  0  0  0  0  0  0  0  0  0  0  0
   -3.8821   -0.2038   -0.1958 H   0  0  0  0  0  0  0  0  0  0  0  0
   -0.1925   -0.7640    5.1597 H   0  0  0  0  0  0  0  0  0  0  0  0
   -0.4716    0.4602    3.8486 H   0  0  0  0  0  0  0  0  0  0  0  0
    0.9346   -0.6124    3.6902 H   0  0  0  0  0  0  0  0  0  0  0  0
   -2.8478   -0.8156    3.8406 H   0  0  0  0  0  0  0  0  0  0  0  0
   -2.0009   -1.6486    5.1375 H   0  0  0  0  0  0  0  0  0  0  0  0
   -2.6927   -2.6572    3.7264 H   0  0  0  0  0  0  0  0  0  0  0  0
   -0.8447   -3.2877    2.4023 H   0  0  0  0  0  0  0  0  0  0  0  0
    2.5913   -3.1115    0.5328 H   0  0  0  0  0  0  0  0  0  0  0  0
    2.3352   -2.0110    1.8787 H   0  0  0  0  0  0  0  0  0  0  0  0
    4.2887   -3.1471   -0.8624 H   0  0  0  0  0  0  0  0  0  0  0  0
    6.6255   -2.7240   -1.3251 H   0  0  0  0  0  0  0  0  0  0  0  0
    7.7944   -1.0332   -0.0194 H   0  0  0  0  0  0  0  0  0  0  0  0
    6.5806    0.2536    1.7937 H   0  0  0  0  0  0  0  0  0  0  0  0
    4.0023    1.1188    2.2004 H   0  0  0  0  0  0  0  0  0  0  0  0
    4.8731    0.1367    3.3739 H   0  0  0  0  0  0  0  0  0  0  0  0
    3.2096   -0.3519    2.9956 H   0  0  0  0  0  0  0  0  0  0  0  0
    2.8168    1.0386   -3.6858 H   0  0  0  0  0  0  0  0  0  0  0  0
    3.1542    0.5086   -2.0064 H   0  0  0  0  0  0  0  0  0  0  0  0
    2.8960    2.2139   -2.3785 H   0  0  0  0  0  0  0  0  0  0  0  0
    0.0748    1.7766   -4.0577 H   0  0  0  0  0  0  0  0  0  0  0  0
  1  2  2  3
  2  3  1  0
  3  4  1  0
  4  5  1  0
  5  6  1  0
  6  7  2  0
  7  8  1  0
  8  9  3  0
  9 10  1  0
 10 11  1  0
 10 12  1  0
 10 13  1  0
  7 14  1  0
 14 15  1  0
 15 16  1  0
 16 17  2  0
 16 18  1  0
 18 19  1  0
 19 20  1  0
 20 21  2  0
 21 22  1  0
 22 23  2  0
 23 24  1  0
 24 25  2  0
 25 26  1  0
 15 27  2  0
 27 28  1  0
 27 29  1  0
 29 30  1  0
 30 31  1  0
 31 32  2  0
 31  5  1  0
 30 14  2  0
 25 20  1  0
  1 33  1  0
  1 34  1  0
  2 35  1  0
  3 36  1  0
  3 37  1  0
  4 38  1  0
  4 39  1  0
  6 40  1  0
 11 41  1  0
 11 42  1  0
 11 43  1  0
 12 44  1  0
 12 45  1  0
 12 46  1  0
 13 47  1  0
 19 48  1  0
 19 49  1  0
 21 50  1  0
 22 51  1  0
 23 52  1  0
 24 53  1  0
 26 54  1  0
 26 55  1  0
 26 56  1  0
 28 57  1  0
 28 58  1  0
 28 59  1  0
 29 60  1  0
M  END
$$$$
