
     RDKit          3D

 62 65  0  0  0  0  0  0  0  0999 V2000
   -5.7321    0.7277   -0.7265 O   0  0  0  0  0  0  0  0  0  0  0  0
   -4.7231    0.4273   -0.0293 C   0  0  0  0  0  0  0  0  0  0  0  0
   -3.6212    1.3231   -0.1420 N   0  0  0  0  0  0  0  0  0  0  0  0
   -3.6640    2.4887   -1.0006 C   0  0  1  0  0  0  0  0  0  0  0  0
   -3.6082    3.7839   -0.2819 C   0  0  0  0  0  0  0  0  0  0  0  0
   -2.6882    4.6660   -1.0323 C   0  0  1  0  0  0  0  0  0  0  0  0
   -1.4643    4.8602   -0.3778 O   0  0  0  0  0  0  0  0  0  0  0  0
   -2.4431    3.9892   -2.3405 C   0  0  0  0  0  0  0  0  0  0  0  0
   -2.5679    2.5029   -2.0443 C   0  0  1  0  0  0  0  0  0  0  0  0
   -1.3439    2.0561   -1.5582 O   0  0  0  0  0  0  0  0  0  0  0  0
   -0.5637    1.0435   -2.1358 C   0  0  0  0  0  0  0  0  0  0  0  0
   -1.0472    0.5223   -3.1751 O   0  0  0  0  0  0  0  0  0  0  0  0
    0.7063    0.6426   -1.5551 C   0  0  0  0  0  0  0  0  0  0  0  0
    1.1461    1.3222   -0.4358 C   0  0  0  0  0  0  0  0  0  0  0  0
    2.3075    1.0348    0.2068 C   0  0  0  0  0  0  0  0  0  0  0  0
    2.7213    1.7398    1.3321 O   0  0  0  0  0  0  0  0  0  0  0  0
    3.1356    0.0023   -0.2538 C   0  0  0  0  0  0  0  0  0  0  0  0
    4.4130   -0.1868    0.4038 C   0  0  0  0  0  0  0  0  0  0  0  0
    4.9017    0.8521    1.0218 O   0  0  0  0  0  0  0  0  0  0  0  0
    5.2454   -1.3591    0.4753 C   0  0  0  0  0  0  0  0  0  0  0  0
    6.6247   -1.1204    0.3735 C   0  0  0  0  0  0  0  0  0  0  0  0
    7.0491    0.2195    0.1840 O   0  0  0  0  0  0  0  0  0  0  0  0
    7.5678   -2.1057    0.4473 C   0  0  0  0  0  0  0  0  0  0  0  0
    7.1332   -3.4011    0.6322 C   0  0  0  0  0  0  0  0  0  0  0  0
    5.7845   -3.6565    0.7382 C   0  0  0  0  0  0  0  0  0  0  0  0
    4.8162   -2.6450    0.6657 C   0  0  0  0  0  0  0  0  0  0  0  0
    3.4305   -2.9791    0.9796 C   0  0  0  0  0  0  0  0  0  0  0  0
    3.1565   -4.2226    1.0373 O   0  0  0  0  0  0  0  0  0  0  0  0
    2.4002   -2.1354    1.2257 O   0  0  0  0  0  0  0  0  0  0  0  0
    2.7128   -0.6869   -1.3724 C   0  0  0  0  0  0  0  0  0  0  0  0
    3.5076   -1.7120   -1.8635 O   0  0  0  0  0  0  0  0  0  0  0  0
    1.5144   -0.3624   -2.0036 C   0  0  0  0  0  0  0  0  0  0  0  0
   -4.7474   -0.7563    0.8050 C   0  0  0  0  0  0  0  0  0  0  0  0
   -3.6460   -1.1435    1.5220 C   0  0  0  0  0  0  0  0  0  0  0  0
   -3.6683   -2.2824    2.3280 C   0  0  0  0  0  0  0  0  0  0  0  0
   -4.7982   -3.0617    2.4346 C   0  0  0  0  0  0  0  0  0  0  0  0
   -4.8165   -4.1934    3.2371 O   0  0  0  0  0  0  0  0  0  0  0  0
   -5.9215   -2.6687    1.7053 C   0  0  0  0  0  0  0  0  0  0  0  0
   -5.8662   -1.5386    0.9186 C   0  0  0  0  0  0  0  0  0  0  0  0
   -2.7668    1.1153    0.4208 H   0  0  0  0  0  0  0  0  0  0  0  0
   -4.6319    2.4571   -1.5405 H   0  0  0  0  0  0  0  0  0  0  0  0
   -4.6286    4.2461   -0.1879 H   0  0  0  0  0  0  0  0  0  0  0  0
   -3.2450    3.7112    0.7640 H   0  0  0  0  0  0  0  0  0  0  0  0
   -3.1643    5.6532   -1.2284 H   0  0  0  0  0  0  0  0  0  0  0  0
   -1.3280    4.1214    0.2435 H   0  0  0  0  0  0  0  0  0  0  0  0
   -1.4250    4.2074   -2.7290 H   0  0  0  0  0  0  0  0  0  0  0  0
   -3.2234    4.3054   -3.0843 H   0  0  0  0  0  0  0  0  0  0  0  0
   -2.9126    2.0144   -2.9765 H   0  0  0  0  0  0  0  0  0  0  0  0
    0.5423    2.1366   -0.0326 H   0  0  0  0  0  0  0  0  0  0  0  0
    2.4741    2.7316    1.3705 H   0  0  0  0  0  0  0  0  0  0  0  0
    7.6531    0.3814   -0.6234 H   0  0  0  0  0  0  0  0  0  0  0  0
    8.6285   -1.8378    0.3588 H   0  0  0  0  0  0  0  0  0  0  0  0
    7.9023   -4.1562    0.6844 H   0  0  0  0  0  0  0  0  0  0  0  0
    5.4514   -4.6870    0.8829 H   0  0  0  0  0  0  0  0  0  0  0  0
    1.6828   -2.2805    1.9322 H   0  0  0  0  0  0  0  0  0  0  0  0
    3.1664   -2.6800   -1.8888 H   0  0  0  0  0  0  0  0  0  0  0  0
    1.1989   -0.9110   -2.8766 H   0  0  0  0  0  0  0  0  0  0  0  0
   -2.7341   -0.5802    1.4812 H   0  0  0  0  0  0  0  0  0  0  0  0
   -2.8037   -2.5899    2.8949 H   0  0  0  0  0  0  0  0  0  0  0  0
   -5.6213   -4.7979    3.2712 H   0  0  0  0  0  0  0  0  0  0  0  0
   -6.8100   -3.2816    1.7879 H   0  0  0  0  0  0  0  0  0  0  0  0
   -6.7488   -1.2654    0.3702 H   0  0  0  0  0  0  0  0  0  0  0  0
  1  2  2  0
  2  3  1  0
  3  4  1  0
  4  5  1  0
  5  6  1  0
  6  7  1  0
  6  8  1  0
  8  9  1  0
  9 10  1  0
 10 11  1  0
 11 12  2  0
 11 13  1  0
 13 14  2  0
 14 15  1  0
 15 16  1  0
 15 17  2  0
 17 18  1  0
 18 19  2  0
 18 20  1  0
 20 21  2  0
 21 22  1  0
 21 23  1  0
 23 24  2  0
 24 25  1  0
 25 26  2  0
 26 27  1  0
 27 28  2  0
 27 29  1  0
 17 30  1  0
 30 31  1  0
 30 32  2  0
  2 33  1  0
 33 34  2  0
 34 35  1  0
 35 36  2  0
 36 37  1  0
 36 38  1  0
 38 39  2  0
  9  4  1  0
 32 13  1  0
 39 33  1  0
 26 20  1  0
  3 40  1  0
  4 41  1  6
  5 42  1  0
  5 43  1  0
  6 44  1  6
  7 45  1  0
  8 46  1  0
  8 47  1  0
  9 48  1  6
 14 49  1  0
 16 50  1  0
 22 51  1  0
 23 52  1  0
 24 53  1  0
 25 54  1  0
 29 55  1  0
 31 56  1  0
 32 57  1  0
 34 58  1  0
 35 59  1  0
 37 60  1  0
 38 61  1  0
 39 62  1  0
M  END
$$$$
