
     RDKit          3D

 51 54  0  0  0  0  0  0  0  0999 V2000
   -4.0397   -1.3736    1.2929 O   0  0  0  0  0  0  0  0  0  0  0  0
   -5.1940   -0.9270    1.2026 C   0  0  0  0  0  0  0  0  0  0  0  0
   -6.1410   -1.3931    2.1045 O   0  0  0  0  0  0  0  0  0  0  0  0
   -5.5602    0.0552    0.1884 C   0  0  0  0  0  0  0  0  0  0  0  0
   -6.8547    0.5259    0.1225 C   0  0  0  0  0  0  0  0  0  0  0  0
   -7.2335    1.4510   -0.8197 C   0  0  0  0  0  0  0  0  0  0  0  0
   -8.8941    2.0235   -0.8675 Cl  0  0  0  0  0  0  0  0  0  0  0  0
   -6.2814    1.8956   -1.6983 C   0  0  0  0  0  0  0  0  0  0  0  0
   -4.9894    1.4287   -1.6360 C   0  0  0  0  0  0  0  0  0  0  0  0
   -4.5968    0.4989   -0.6933 C   0  0  0  0  0  0  0  0  0  0  0  0
   -3.2670    0.0066   -0.6153 N   0  0  0  0  0  0  0  0  0  0  0  0
   -2.2963    0.6462    0.1870 C   0  0  0  0  0  0  0  0  0  0  0  0
   -2.6138    1.6762    0.8493 O   0  0  0  0  0  0  0  0  0  0  0  0
   -0.9674    0.1465    0.2591 N   0  0  0  0  0  0  0  0  0  0  0  0
   -0.4951   -1.0123   -0.4476 C   0  0  0  0  0  0  0  0  0  0  0  0
    0.7218   -1.4370    0.3334 C   0  0  1  0  0  0  0  0  0  0  0  0
    1.9519   -1.0863   -0.5210 C   0  0  0  0  0  0  0  0  0  0  0  0
    3.0438   -0.8400    0.4852 C   0  0  1  0  0  0  0  0  0  0  0  0
    4.1098    0.0556    0.0686 C   0  0  0  0  0  0  0  0  0  0  0  0
    3.9427    1.4228    0.0715 C   0  0  0  0  0  0  0  0  0  0  0  0
    4.9371    2.3170   -0.3378 C   0  0  0  0  0  0  0  0  0  0  0  0
    6.1258    1.7762   -0.7576 C   0  0  0  0  0  0  0  0  0  0  0  0
    6.2889    0.4068   -0.7592 C   0  0  0  0  0  0  0  0  0  0  0  0
    5.3214   -0.4867   -0.3597 C   0  0  0  0  0  0  0  0  0  0  0  0
    5.5696   -1.9512   -0.3838 C   0  0  0  0  0  0  0  0  0  0  0  0
    6.8655   -2.1521   -0.8728 F   0  0  0  0  0  0  0  0  0  0  0  0
    4.7462   -2.6261   -1.2604 F   0  0  0  0  0  0  0  0  0  0  0  0
    5.6021   -2.5119    0.8779 F   0  0  0  0  0  0  0  0  0  0  0  0
    2.3468   -0.2987    1.7028 C   0  0  0  0  0  0  0  0  0  0  0  0
    0.8664   -0.5249    1.4900 C   0  0  1  0  0  0  0  0  0  0  0  0
    0.1274    0.7200    1.0538 C   0  0  0  0  0  0  0  0  0  0  0  0
   -6.0950   -2.3275    2.5261 H   0  0  0  0  0  0  0  0  0  0  0  0
   -7.6309    0.1839    0.8149 H   0  0  0  0  0  0  0  0  0  0  0  0
   -6.5781    2.6309   -2.4490 H   0  0  0  0  0  0  0  0  0  0  0  0
   -4.2791    1.8022   -2.3405 H   0  0  0  0  0  0  0  0  0  0  0  0
   -2.9831   -0.8561   -1.1640 H   0  0  0  0  0  0  0  0  0  0  0  0
   -1.2317   -1.8498   -0.4342 H   0  0  0  0  0  0  0  0  0  0  0  0
   -0.2617   -0.8161   -1.5162 H   0  0  0  0  0  0  0  0  0  0  0  0
    0.7209   -2.5111    0.5962 H   0  0  0  0  0  0  0  0  0  0  0  0
    1.7459   -0.2195   -1.1587 H   0  0  0  0  0  0  0  0  0  0  0  0
    2.1091   -2.0065   -1.1226 H   0  0  0  0  0  0  0  0  0  0  0  0
    3.4275   -1.8575    0.7685 H   0  0  0  0  0  0  0  0  0  0  0  0
    3.0296    1.9272    0.3810 H   0  0  0  0  0  0  0  0  0  0  0  0
    4.7743    3.3880   -0.3234 H   0  0  0  0  0  0  0  0  0  0  0  0
    6.9095    2.4475   -1.0788 H   0  0  0  0  0  0  0  0  0  0  0  0
    7.2419   -0.0272   -1.0959 H   0  0  0  0  0  0  0  0  0  0  0  0
    2.6841   -0.8475    2.6363 H   0  0  0  0  0  0  0  0  0  0  0  0
    2.4662    0.7831    1.8757 H   0  0  0  0  0  0  0  0  0  0  0  0
    0.4412   -0.9142    2.4373 H   0  0  0  0  0  0  0  0  0  0  0  0
    0.7036    1.3990    0.4262 H   0  0  0  0  0  0  0  0  0  0  0  0
   -0.3369    1.2393    1.9140 H   0  0  0  0  0  0  0  0  0  0  0  0
  1  2  2  0
  2  3  1  0
  2  4  1  0
  4  5  2  0
  5  6  1  0
  6  7  1  0
  6  8  2  0
  8  9  1  0
  9 10  2  0
 10 11  1  0
 11 12  1  0
 12 13  2  0
 12 14  1  0
 14 15  1  0
 15 16  1  0
 16 17  1  0
 17 18  1  0
 18 19  1  0
 19 20  2  0
 20 21  1  0
 21 22  2  0
 22 23  1  0
 23 24  2  0
 24 25  1  0
 25 26  1  0
 25 27  1  0
 25 28  1  0
 18 29  1  0
 29 30  1  0
 30 31  1  0
 10  4  1  0
 31 14  1  0
 30 16  1  0
 24 19  1  0
  3 32  1  0
  5 33  1  0
  8 34  1  0
  9 35  1  0
 11 36  1  0
 15 37  1  0
 15 38  1  0
 16 39  1  1
 17 40  1  0
 17 41  1  0
 18 42  1  1
 20 43  1  0
 21 44  1  0
 22 45  1  0
 23 46  1  0
 29 47  1  0
 29 48  1  0
 30 49  1  1
 31 50  1  0
 31 51  1  0
M  END
$$$$
