
     RDKit          3D

 67 71  0  0  0  0  0  0  0  0999 V2000
   -2.3855   -4.4016   -1.3936 C   0  0  0  0  0  0  0  0  0  0  0  0
   -2.9255   -3.0738   -0.9423 C   0  0  0  0  0  0  0  0  0  0  0  0
   -3.3217   -2.0468   -0.5935 C   0  0  0  0  0  0  0  0  0  0  0  0
   -3.8051   -0.7379   -0.1346 C   0  0  2  0  0  0  0  0  0  0  0  0
   -4.3892   -0.7359    1.1017 O   0  0  0  0  0  0  0  0  0  0  0  0
   -4.6363   -0.0360   -1.2171 C   0  0  0  0  0  0  0  0  0  0  0  0
   -3.5996    0.4422   -2.2395 C   0  0  0  0  0  0  0  0  0  0  0  0
   -2.2317    0.1819   -1.6064 C   0  0  1  0  0  0  0  0  0  0  0  0
   -1.2603    1.2468   -1.8228 C   0  0  2  0  0  0  0  0  0  0  0  0
   -0.6219    1.4228   -3.1358 C   0  0  0  0  0  0  0  0  0  0  0  0
   -0.0641    2.8699   -3.1011 C   0  0  0  0  0  0  0  0  0  0  0  0
    0.6501    3.0737   -1.8139 C   0  0  0  0  0  0  0  0  0  0  0  0
    1.1652    4.2843   -1.6150 C   0  0  0  0  0  0  0  0  0  0  0  0
    1.8733    4.4245   -0.3299 C   0  0  0  0  0  0  0  0  0  0  0  0
    1.7452    5.4599    0.3343 O   0  0  0  0  0  0  0  0  0  0  0  0
    2.7043    3.2571    0.0504 C   0  0  0  0  0  0  0  0  0  0  0  0
    1.8762    1.9744    0.1720 C   0  0  0  0  0  0  0  0  0  0  0  0
    0.7768    2.0170   -0.7731 C   0  0  0  0  0  0  0  0  0  0  0  0
   -0.1349    1.0931   -0.7871 C   0  0  0  0  0  0  0  0  0  0  0  0
   -0.1963   -0.0869    0.0251 C   0  0  1  0  0  0  0  0  0  0  0  0
    0.8981   -0.6556    0.7457 C   0  0  0  0  0  0  0  0  0  0  0  0
    1.1310   -0.3697    2.0996 C   0  0  0  0  0  0  0  0  0  0  0  0
    2.1511   -0.9260    2.8293 C   0  0  0  0  0  0  0  0  0  0  0  0
    3.0200   -1.8245    2.2258 C   0  0  0  0  0  0  0  0  0  0  0  0
    4.0916   -2.4155    2.9526 N   0  0  0  0  0  0  0  0  0  0  0  0
    4.3126   -2.0741    4.3322 C   0  0  0  0  0  0  0  0  0  0  0  0
    4.9706   -3.3565    2.3391 C   0  0  0  0  0  0  0  0  0  0  0  0
    2.8142   -2.1322    0.8748 C   0  0  0  0  0  0  0  0  0  0  0  0
    1.7714   -1.5423    0.1930 C   0  0  0  0  0  0  0  0  0  0  0  0
   -1.5281   -0.1301    0.8061 C   0  0  0  0  0  0  0  0  0  0  0  0
   -2.6222    0.2200   -0.1166 C   0  0  2  0  0  0  0  0  0  0  0  0
   -3.1775    1.5823    0.2528 C   0  0  0  0  0  0  0  0  0  0  0  0
   -2.9040   -4.6619   -2.3220 H   0  0  0  0  0  0  0  0  0  0  0  0
   -2.5880   -5.1223   -0.5783 H   0  0  0  0  0  0  0  0  0  0  0  0
   -1.3046   -4.3329   -1.6128 H   0  0  0  0  0  0  0  0  0  0  0  0
   -4.1066   -1.5399    1.5929 H   0  0  0  0  0  0  0  0  0  0  0  0
   -5.1341    0.8335   -0.7931 H   0  0  0  0  0  0  0  0  0  0  0  0
   -5.3104   -0.7481   -1.7184 H   0  0  0  0  0  0  0  0  0  0  0  0
   -3.6786    1.4920   -2.4874 H   0  0  0  0  0  0  0  0  0  0  0  0
   -3.6886   -0.1564   -3.1767 H   0  0  0  0  0  0  0  0  0  0  0  0
   -1.9862   -0.8419   -1.8814 H   0  0  0  0  0  0  0  0  0  0  0  0
   -1.7800    2.2301   -1.5818 H   0  0  0  0  0  0  0  0  0  0  0  0
    0.2268    0.7805   -3.3524 H   0  0  0  0  0  0  0  0  0  0  0  0
   -1.3640    1.4556   -3.9600 H   0  0  0  0  0  0  0  0  0  0  0  0
   -0.9536    3.5226   -3.0899 H   0  0  0  0  0  0  0  0  0  0  0  0
    0.5488    3.0753   -3.9745 H   0  0  0  0  0  0  0  0  0  0  0  0
    1.0616    5.1018   -2.3188 H   0  0  0  0  0  0  0  0  0  0  0  0
    3.4533    3.0937   -0.7423 H   0  0  0  0  0  0  0  0  0  0  0  0
    3.1971    3.4205    1.0476 H   0  0  0  0  0  0  0  0  0  0  0  0
    2.6207    1.1665    0.0417 H   0  0  0  0  0  0  0  0  0  0  0  0
    1.5225    2.0650    1.2434 H   0  0  0  0  0  0  0  0  0  0  0  0
   -0.4372   -0.9253   -0.7723 H   0  0  0  0  0  0  0  0  0  0  0  0
    0.4701    0.3291    2.5928 H   0  0  0  0  0  0  0  0  0  0  0  0
    2.3080   -0.6796    3.8783 H   0  0  0  0  0  0  0  0  0  0  0  0
    3.3585   -2.0608    4.8864 H   0  0  0  0  0  0  0  0  0  0  0  0
    4.8991   -1.1392    4.4097 H   0  0  0  0  0  0  0  0  0  0  0  0
    4.9379   -2.8663    4.8423 H   0  0  0  0  0  0  0  0  0  0  0  0
    5.9249   -3.4188    2.9296 H   0  0  0  0  0  0  0  0  0  0  0  0
    5.2291   -3.1377    1.2849 H   0  0  0  0  0  0  0  0  0  0  0  0
    4.5424   -4.3992    2.3581 H   0  0  0  0  0  0  0  0  0  0  0  0
    3.4655   -2.8270    0.3680 H   0  0  0  0  0  0  0  0  0  0  0  0
    1.6505   -1.8133   -0.8445 H   0  0  0  0  0  0  0  0  0  0  0  0
   -1.5084    0.5736    1.6488 H   0  0  0  0  0  0  0  0  0  0  0  0
   -1.6395   -1.1870    1.1642 H   0  0  0  0  0  0  0  0  0  0  0  0
   -4.0741    1.4034    0.8930 H   0  0  0  0  0  0  0  0  0  0  0  0
   -2.4793    2.1416    0.9095 H   0  0  0  0  0  0  0  0  0  0  0  0
   -3.5312    2.1681   -0.5964 H   0  0  0  0  0  0  0  0  0  0  0  0
  1  2  1  0
  2  3  3  0
  4  3  1  6
  4  5  1  0
  4  6  1  0
  6  7  1  0
  7  8  1  0
  8  9  1  0
  9 10  1  0
 10 11  1  0
 11 12  1  0
 12 13  2  0
 13 14  1  0
 14 15  2  0
 14 16  1  0
 16 17  1  0
 17 18  1  0
 18 19  2  0
 19 20  1  0
 20 21  1  0
 21 22  2  0
 22 23  1  0
 23 24  2  0
 24 25  1  0
 25 26  1  0
 25 27  1  0
 24 28  1  0
 28 29  2  0
 20 30  1  0
 30 31  1  0
 31 32  1  1
 31  4  1  0
 31  8  1  0
 19  9  1  0
 29 21  1  0
 18 12  1  0
  1 33  1  0
  1 34  1  0
  1 35  1  0
  5 36  1  0
  6 37  1  0
  6 38  1  0
  7 39  1  0
  7 40  1  0
  8 41  1  6
  9 42  1  1
 10 43  1  0
 10 44  1  0
 11 45  1  0
 11 46  1  0
 13 47  1  0
 16 48  1  0
 16 49  1  0
 17 50  1  0
 17 51  1  0
 20 52  1  6
 22 53  1  0
 23 54  1  0
 26 55  1  0
 26 56  1  0
 26 57  1  0
 27 58  1  0
 27 59  1  0
 27 60  1  0
 28 61  1  0
 29 62  1  0
 30 63  1  0
 30 64  1  0
 32 65  1  0
 32 66  1  0
 32 67  1  0
M  END
$$$$
