
     RDKit          3D

 66 69  0  0  0  0  0  0  0  0999 V2000
    0.5246   -0.3433    3.3107 C   0  0  0  0  0  0  0  0  0  0  0  0
    0.6079    0.5347    2.0563 C   0  0  1  0  0  0  0  0  0  0  0  0
    1.9162    0.3942    1.3731 C   0  0  0  0  0  0  0  0  0  0  0  0
    2.8329   -0.5917    1.6902 C   0  0  0  0  0  0  0  0  0  0  0  0
    4.0578   -0.6780    1.0438 C   0  0  0  0  0  0  0  0  0  0  0  0
    4.4141    0.2136    0.0624 C   0  0  0  0  0  0  0  0  0  0  0  0
    5.7123    0.1132   -0.6264 C   0  0  0  0  0  0  0  0  0  0  0  0
    6.2842   -1.1034   -0.8398 C   0  0  0  0  0  0  0  0  0  0  0  0
    7.5261   -1.1982   -1.4742 C   0  0  0  0  0  0  0  0  0  0  0  0
    8.1285   -0.0196   -1.8630 C   0  0  0  0  0  0  0  0  0  0  0  0
    9.2685   -0.0644   -2.4471 O   0  0  0  0  0  0  0  0  0  0  0  0
    7.5727    1.1766   -1.6572 N   0  0  0  0  0  0  0  0  0  0  0  0
    8.2355    2.4036   -2.0674 C   0  0  0  0  0  0  0  0  0  0  0  0
    6.3671    1.2515   -1.0416 C   0  0  0  0  0  0  0  0  0  0  0  0
    3.4995    1.2052   -0.2611 C   0  0  0  0  0  0  0  0  0  0  0  0
    2.2836    1.2812    0.3878 C   0  0  0  0  0  0  0  0  0  0  0  0
   -0.5015    0.3380    1.1790 N   0  0  0  0  0  0  0  0  0  0  0  0
   -1.5436    1.3035    0.9596 C   0  0  0  0  0  0  0  0  0  0  0  0
   -2.8643    0.5530    1.0506 C   0  0  0  0  0  0  0  0  0  0  0  0
   -3.0527   -0.5031    0.0294 C   0  0  2  0  0  0  0  0  0  0  0  0
   -3.1724   -0.1053   -1.3736 C   0  0  0  0  0  0  0  0  0  0  0  0
   -4.2425    0.7609   -1.8656 C   0  0  0  0  0  0  0  0  0  0  0  0
   -5.6399    0.1960   -1.6560 C   0  0  0  0  0  0  0  0  0  0  0  0
   -4.1897    2.2113   -1.4425 C   0  0  0  0  0  0  0  0  0  0  0  0
   -4.0922    0.8048   -3.3363 C   0  0  0  0  0  0  0  0  0  0  0  0
   -3.9541    0.8299   -4.5129 N   0  0  0  0  0  0  0  0  0  0  0  0
   -4.1357   -1.4351    0.4969 C   0  0  0  0  0  0  0  0  0  0  0  0
   -4.8726   -1.1580    1.6171 C   0  0  0  0  0  0  0  0  0  0  0  0
   -5.8431   -2.0246    2.0726 C   0  0  0  0  0  0  0  0  0  0  0  0
   -6.0870   -3.2046    1.3917 C   0  0  0  0  0  0  0  0  0  0  0  0
   -5.3633   -3.5121    0.2617 C   0  0  0  0  0  0  0  0  0  0  0  0
   -4.4090   -2.6264   -0.1600 C   0  0  0  0  0  0  0  0  0  0  0  0
   -1.8726   -1.3321    0.0766 O   0  0  0  0  0  0  0  0  0  0  0  0
   -0.6388   -0.8987    0.4587 C   0  0  0  0  0  0  0  0  0  0  0  0
    0.3740   -1.5964    0.1718 O   0  0  0  0  0  0  0  0  0  0  0  0
    1.5313   -0.2212    3.8174 H   0  0  0  0  0  0  0  0  0  0  0  0
   -0.2336    0.0538    4.0189 H   0  0  0  0  0  0  0  0  0  0  0  0
    0.3767   -1.4067    3.0748 H   0  0  0  0  0  0  0  0  0  0  0  0
    0.4837    1.5830    2.4756 H   0  0  0  0  0  0  0  0  0  0  0  0
    2.5635   -1.3045    2.4623 H   0  0  0  0  0  0  0  0  0  0  0  0
    4.7685   -1.4531    1.2994 H   0  0  0  0  0  0  0  0  0  0  0  0
    5.7983   -2.0029   -0.5272 H   0  0  0  0  0  0  0  0  0  0  0  0
    8.0033   -2.1466   -1.6586 H   0  0  0  0  0  0  0  0  0  0  0  0
    9.2409    2.4324   -1.5715 H   0  0  0  0  0  0  0  0  0  0  0  0
    7.6788    3.3020   -1.6842 H   0  0  0  0  0  0  0  0  0  0  0  0
    8.4121    2.4521   -3.1592 H   0  0  0  0  0  0  0  0  0  0  0  0
    5.8792    2.1988   -0.8556 H   0  0  0  0  0  0  0  0  0  0  0  0
    3.7903    1.8946   -1.0262 H   0  0  0  0  0  0  0  0  0  0  0  0
    1.6069    2.0825    0.0886 H   0  0  0  0  0  0  0  0  0  0  0  0
   -1.4307    1.8704    0.0247 H   0  0  0  0  0  0  0  0  0  0  0  0
   -1.5595    2.0558    1.7923 H   0  0  0  0  0  0  0  0  0  0  0  0
   -3.6563    1.2774    1.1938 H   0  0  0  0  0  0  0  0  0  0  0  0
   -2.7837    0.0088    2.0464 H   0  0  0  0  0  0  0  0  0  0  0  0
   -3.1817   -1.0412   -1.9958 H   0  0  0  0  0  0  0  0  0  0  0  0
   -2.1997    0.3808   -1.6628 H   0  0  0  0  0  0  0  0  0  0  0  0
   -5.9650    0.3323   -0.6031 H   0  0  0  0  0  0  0  0  0  0  0  0
   -5.7063   -0.8420   -2.0288 H   0  0  0  0  0  0  0  0  0  0  0  0
   -6.3956    0.7700   -2.2710 H   0  0  0  0  0  0  0  0  0  0  0  0
   -3.1760    2.5990   -1.4169 H   0  0  0  0  0  0  0  0  0  0  0  0
   -4.8167    2.4112   -0.5459 H   0  0  0  0  0  0  0  0  0  0  0  0
   -4.7090    2.8142   -2.2503 H   0  0  0  0  0  0  0  0  0  0  0  0
   -4.7485   -0.2481    2.2029 H   0  0  0  0  0  0  0  0  0  0  0  0
   -6.4306   -1.7932    2.9773 H   0  0  0  0  0  0  0  0  0  0  0  0
   -6.8587   -3.9041    1.7492 H   0  0  0  0  0  0  0  0  0  0  0  0
   -5.5634   -4.4582   -0.2800 H   0  0  0  0  0  0  0  0  0  0  0  0
   -3.8488   -2.8735   -1.0504 H   0  0  0  0  0  0  0  0  0  0  0  0
  1  2  1  0
  2  3  1  0
  3  4  2  0
  4  5  1  0
  5  6  2  0
  6  7  1  0
  7  8  1  0
  8  9  2  0
  9 10  1  0
 10 11  2  0
 10 12  1  0
 12 13  1  0
 12 14  1  0
  6 15  1  0
 15 16  2  0
  2 17  1  0
 17 18  1  0
 18 19  1  0
 19 20  1  0
 20 21  1  6
 21 22  1  0
 22 23  1  0
 22 24  1  0
 22 25  1  0
 25 26  3  0
 20 27  1  0
 27 28  2  0
 28 29  1  0
 29 30  2  0
 30 31  1  0
 31 32  2  0
 20 33  1  0
 33 34  1  0
 34 35  2  0
 16  3  1  0
 34 17  1  0
 14  7  2  0
 32 27  1  0
  1 36  1  0
  1 37  1  0
  1 38  1  0
  2 39  1  1
  4 40  1  0
  5 41  1  0
  8 42  1  0
  9 43  1  0
 13 44  1  0
 13 45  1  0
 13 46  1  0
 14 47  1  0
 15 48  1  0
 16 49  1  0
 18 50  1  0
 18 51  1  0
 19 52  1  0
 19 53  1  0
 21 54  1  0
 21 55  1  0
 23 56  1  0
 23 57  1  0
 23 58  1  0
 24 59  1  0
 24 60  1  0
 24 61  1  0
 28 62  1  0
 29 63  1  0
 30 64  1  0
 31 65  1  0
 32 66  1  0
M  END
$$$$
