
     RDKit          3D

 51 53  0  0  0  0  0  0  0  0999 V2000
    8.3703   -0.7408   -2.2600 C   0  0  0  0  0  0  0  0  0  0  0  0
    7.2947   -1.5992   -1.9715 O   0  0  0  0  0  0  0  0  0  0  0  0
    6.0905   -1.1012   -1.4412 C   0  0  0  0  0  0  0  0  0  0  0  0
    5.9243    0.2433   -1.1868 C   0  0  0  0  0  0  0  0  0  0  0  0
    4.7145    0.6908   -0.6615 C   0  0  0  0  0  0  0  0  0  0  0  0
    3.6781   -0.1705   -0.3882 C   0  0  0  0  0  0  0  0  0  0  0  0
    2.4152    0.3004    0.1606 C   0  0  0  0  0  0  0  0  0  0  0  0
    2.2640    1.5275    0.3926 O   0  0  0  0  0  0  0  0  0  0  0  0
    1.3308   -0.5714    0.4505 N   0  0  0  0  0  0  0  0  0  0  0  0
    0.0873   -0.0902    0.9933 C   0  0  0  0  0  0  0  0  0  0  0  0
   -0.1139   -0.0066    2.3545 C   0  0  0  0  0  0  0  0  0  0  0  0
   -1.2905    0.4486    2.8918 C   0  0  0  0  0  0  0  0  0  0  0  0
   -1.4807    0.5284    4.3562 C   0  0  0  0  0  0  0  0  0  0  0  0
   -2.3033    0.8344    2.0144 C   0  0  0  0  0  0  0  0  0  0  0  0
   -3.4409    1.2563    2.6032 F   0  0  0  0  0  0  0  0  0  0  0  0
   -2.1719    0.7783    0.6641 C   0  0  0  0  0  0  0  0  0  0  0  0
   -3.2418    1.2040   -0.2517 C   0  0  2  0  0  0  0  0  0  0  0  0
   -3.5918    2.6748   -0.1520 C   0  0  0  0  0  0  0  0  0  0  0  0
   -4.0270    3.0789    1.0574 F   0  0  0  0  0  0  0  0  0  0  0  0
   -4.4795    0.3707   -0.0224 C   0  0  0  0  0  0  0  0  0  0  0  0
   -4.0690   -1.0456   -0.4547 C   0  0  1  0  0  0  0  0  0  0  0  0
   -5.0476   -2.0690    0.0304 C   0  0  0  0  0  0  0  0  0  0  0  0
   -6.3139   -1.8632   -0.4477 F   0  0  0  0  0  0  0  0  0  0  0  0
   -4.5540   -3.3101   -0.2373 F   0  0  0  0  0  0  0  0  0  0  0  0
   -5.1175   -1.9459    1.4159 F   0  0  0  0  0  0  0  0  0  0  0  0
   -3.9684   -0.9754   -1.8523 O   0  0  0  0  0  0  0  0  0  0  0  0
   -3.1603    0.0172   -2.3862 C   0  0  0  0  0  0  0  0  0  0  0  0
   -2.6999   -0.0745   -3.7522 N   0  0  0  0  0  0  0  0  0  0  0  0
   -2.8311    1.0114   -1.6502 N   0  0  0  0  0  0  0  0  0  0  0  0
   -0.9451    0.3037    0.1759 C   0  0  0  0  0  0  0  0  0  0  0  0
    3.8806   -1.4736   -0.6506 N   0  0  0  0  0  0  0  0  0  0  0  0
    5.0355   -1.9390   -1.1574 C   0  0  0  0  0  0  0  0  0  0  0  0
    8.1864   -0.0873   -3.1399 H   0  0  0  0  0  0  0  0  0  0  0  0
    9.3004   -1.3039   -2.4452 H   0  0  0  0  0  0  0  0  0  0  0  0
    8.5043   -0.0796   -1.3600 H   0  0  0  0  0  0  0  0  0  0  0  0
    6.7312    0.9241   -1.3984 H   0  0  0  0  0  0  0  0  0  0  0  0
    4.5676    1.7324   -0.4575 H   0  0  0  0  0  0  0  0  0  0  0  0
    1.4868   -1.5902    0.2463 H   0  0  0  0  0  0  0  0  0  0  0  0
    0.7294   -0.3283    2.9766 H   0  0  0  0  0  0  0  0  0  0  0  0
   -1.9096   -0.4590    4.6714 H   0  0  0  0  0  0  0  0  0  0  0  0
   -2.2421    1.2877    4.6119 H   0  0  0  0  0  0  0  0  0  0  0  0
   -0.5351    0.6521    4.9001 H   0  0  0  0  0  0  0  0  0  0  0  0
   -2.6976    3.2944   -0.4563 H   0  0  0  0  0  0  0  0  0  0  0  0
   -4.3632    2.9110   -0.9071 H   0  0  0  0  0  0  0  0  0  0  0  0
   -4.7838    0.2907    1.0185 H   0  0  0  0  0  0  0  0  0  0  0  0
   -5.3132    0.6705   -0.6937 H   0  0  0  0  0  0  0  0  0  0  0  0
   -3.0831   -1.2296   -0.0311 H   0  0  0  0  0  0  0  0  0  0  0  0
   -1.7695    0.2291   -4.0550 H   0  0  0  0  0  0  0  0  0  0  0  0
   -3.3639   -0.4708   -4.4385 H   0  0  0  0  0  0  0  0  0  0  0  0
   -0.8373    0.2574   -0.8974 H   0  0  0  0  0  0  0  0  0  0  0  0
    5.1547   -2.9930   -1.3526 H   0  0  0  0  0  0  0  0  0  0  0  0
  1  2  1  0
  2  3  1  0
  3  4  2  0
  4  5  1  0
  5  6  2  0
  6  7  1  0
  7  8  2  0
  7  9  1  0
  9 10  1  0
 10 11  2  0
 11 12  1  0
 12 13  1  0
 12 14  2  0
 14 15  1  0
 14 16  1  0
 16 17  1  0
 17 18  1  6
 18 19  1  0
 17 20  1  0
 20 21  1  0
 21 22  1  0
 22 23  1  0
 22 24  1  0
 22 25  1  0
 21 26  1  0
 26 27  1  0
 27 28  1  0
 27 29  2  0
 16 30  2  0
  6 31  1  0
 31 32  2  0
 32  3  1  0
 30 10  1  0
 29 17  1  0
  1 33  1  0
  1 34  1  0
  1 35  1  0
  4 36  1  0
  5 37  1  0
  9 38  1  0
 11 39  1  0
 13 40  1  0
 13 41  1  0
 13 42  1  0
 18 43  1  0
 18 44  1  0
 20 45  1  0
 20 46  1  0
 21 47  1  1
 28 48  1  0
 28 49  1  0
 30 50  1  0
 32 51  1  0
M  END
$$$$
