
     RDKit          3D

 64 68  0  0  0  0  0  0  0  0999 V2000
   -5.3301    2.9094   -0.2122 C   0  0  0  0  0  0  0  0  0  0  0  0
   -5.0919    1.4267   -0.3534 C   0  0  0  0  0  0  0  0  0  0  0  0
   -4.2613    0.7219    0.4689 C   0  0  0  0  0  0  0  0  0  0  0  0
   -3.6135    1.4286    1.5608 N   0  0  0  0  0  0  0  0  0  0  0  0
   -2.9462    0.7580    2.5723 C   0  0  0  0  0  0  0  0  0  0  0  0
   -3.7660    0.5214    3.7275 C   0  0  0  0  0  0  0  0  0  0  0  0
   -5.0573    1.0617    3.7534 C   0  0  0  0  0  0  0  0  0  0  0  0
   -6.2285    1.5764    3.7788 N   0  0  0  0  0  0  0  0  0  0  0  0
   -3.2349   -0.1173    4.7765 C   0  0  0  0  0  0  0  0  0  0  0  0
   -1.9225   -0.5117    4.7338 N   0  0  0  0  0  0  0  0  0  0  0  0
   -1.1547   -0.2982    3.6734 C   0  0  0  0  0  0  0  0  0  0  0  0
   -1.6587    0.3656    2.5133 C   0  0  0  0  0  0  0  0  0  0  0  0
   -0.8586    0.5111    1.3590 C   0  0  0  0  0  0  0  0  0  0  0  0
   -0.7737    0.6528    0.1126 C   0  0  0  0  0  0  0  0  0  0  0  0
    0.4795    0.7602   -0.6604 C   0  0  0  0  0  0  0  0  0  0  0  0
    0.3500    0.9604   -1.9869 C   0  0  0  0  0  0  0  0  0  0  0  0
    1.4578    0.9636   -2.9014 C   0  0  0  0  0  0  0  0  0  0  0  0
    2.6720    0.7464   -2.2660 C   0  0  0  0  0  0  0  0  0  0  0  0
    2.7874    0.5531   -0.9566 C   0  0  0  0  0  0  0  0  0  0  0  0
    4.1560    0.3738   -0.3765 C   0  0  0  0  0  0  0  0  0  0  0  0
    4.7168   -0.8655   -0.3949 N   0  0  0  0  0  0  0  0  0  0  0  0
    4.9950   -1.5226   -1.6050 C   0  0  0  0  0  0  0  0  0  0  0  0
    6.1250   -2.5880   -1.4105 C   0  0  0  0  0  0  0  0  0  0  0  0
    7.1414   -1.9936   -0.5510 N   0  0  0  0  0  0  0  0  0  0  0  0
    7.9897   -1.0777   -1.2578 C   0  0  0  0  0  0  0  0  0  0  0  0
    6.7700   -1.6981    0.7496 C   0  0  0  0  0  0  0  0  0  0  0  0
    5.2716   -1.3492    0.7974 C   0  0  0  0  0  0  0  0  0  0  0  0
    1.7019    0.5532   -0.1085 N   0  0  0  0  0  0  0  0  0  0  0  0
   -4.0364   -0.6450    0.3206 C   0  0  0  0  0  0  0  0  0  0  0  0
   -4.7216   -1.2524   -0.7705 C   0  0  0  0  0  0  0  0  0  0  0  0
   -5.5318   -0.5831   -1.5771 C   0  0  0  0  0  0  0  0  0  0  0  0
   -6.3761   -0.9018   -2.6109 N   0  0  0  0  0  0  0  0  0  0  0  0
   -7.0572    0.0964   -3.0431 C   0  0  0  0  0  0  0  0  0  0  0  0
   -6.7363    1.2068   -2.3352 C   0  0  0  0  0  0  0  0  0  0  0  0
   -5.7347    0.8024   -1.3576 C   0  0  0  0  0  0  0  0  0  0  0  0
   -4.3177    3.3696   -0.4593 H   0  0  0  0  0  0  0  0  0  0  0  0
   -6.1109    3.2238   -0.9707 H   0  0  0  0  0  0  0  0  0  0  0  0
   -5.6680    3.1033    0.8167 H   0  0  0  0  0  0  0  0  0  0  0  0
   -3.6893    2.4832    1.4932 H   0  0  0  0  0  0  0  0  0  0  0  0
   -3.7728   -0.3321    5.6632 H   0  0  0  0  0  0  0  0  0  0  0  0
   -0.1321   -0.5884    3.6352 H   0  0  0  0  0  0  0  0  0  0  0  0
    0.3296    0.5277    1.7451 H   0  0  0  0  0  0  0  0  0  0  0  0
   -1.7270    0.6907   -0.3973 H   0  0  0  0  0  0  0  0  0  0  0  0
   -0.6423    1.1292   -2.4789 H   0  0  0  0  0  0  0  0  0  0  0  0
    1.3692    1.1265   -3.9044 H   0  0  0  0  0  0  0  0  0  0  0  0
    3.6144    0.7812   -2.8700 H   0  0  0  0  0  0  0  0  0  0  0  0
    4.7738    1.1159   -1.0141 H   0  0  0  0  0  0  0  0  0  0  0  0
    4.0940    0.8632    0.6406 H   0  0  0  0  0  0  0  0  0  0  0  0
    5.3985   -0.8475   -2.4232 H   0  0  0  0  0  0  0  0  0  0  0  0
    4.1675   -2.1082   -2.0106 H   0  0  0  0  0  0  0  0  0  0  0  0
    6.5265   -2.8221   -2.3824 H   0  0  0  0  0  0  0  0  0  0  0  0
    5.6433   -3.4026   -0.8534 H   0  0  0  0  0  0  0  0  0  0  0  0
    9.0175   -1.0557   -0.9352 H   0  0  0  0  0  0  0  0  0  0  0  0
    8.0483   -1.4332   -2.3554 H   0  0  0  0  0  0  0  0  0  0  0  0
    7.6150   -0.0046   -1.2483 H   0  0  0  0  0  0  0  0  0  0  0  0
    6.8853   -2.5580    1.4844 H   0  0  0  0  0  0  0  0  0  0  0  0
    7.3651   -0.8548    1.1781 H   0  0  0  0  0  0  0  0  0  0  0  0
    5.1931   -0.5569    1.6073 H   0  0  0  0  0  0  0  0  0  0  0  0
    4.7512   -2.2445    1.1881 H   0  0  0  0  0  0  0  0  0  0  0  0
   -3.4088   -1.2026    0.9090 H   0  0  0  0  0  0  0  0  0  0  0  0
   -4.4889   -2.3644   -0.8655 H   0  0  0  0  0  0  0  0  0  0  0  0
   -6.4259   -1.9114   -3.0689 H   0  0  0  0  0  0  0  0  0  0  0  0
   -7.8602    0.0902   -3.8472 H   0  0  0  0  0  0  0  0  0  0  0  0
   -7.0705    2.2366   -2.3800 H   0  0  0  0  0  0  0  0  0  0  0  0
  1  2  1  0
  2  3  2  0
  3  4  1  0
  4  5  1  0
  5  6  2  0
  6  7  1  0
  7  8  3  0
  6  9  1  0
  9 10  2  0
 10 11  1  0
 11 12  2  0
 12 13  1  0
 13 14  2  0
 14 15  1  0
 15 16  2  0
 16 17  1  0
 17 18  2  0
 18 19  1  0
 19 20  1  0
 20 21  1  0
 21 22  1  0
 22 23  1  0
 23 24  1  0
 24 25  1  0
 24 26  1  0
 26 27  1  0
 19 28  2  0
  3 29  1  0
 29 30  2  0
 30 31  1  0
 31 32  1  0
 32 33  1  0
 33 34  2  0
 34 35  1  0
 35  2  1  0
 12  5  1  0
 28 15  1  0
 35 31  2  0
 27 21  1  0
  1 36  1  0
  1 37  1  0
  1 38  1  0
  4 39  1  0
  9 40  1  0
 11 41  1  0
 13 42  1  0
 14 43  1  0
 16 44  1  0
 17 45  1  0
 18 46  1  0
 20 47  1  0
 20 48  1  0
 22 49  1  0
 22 50  1  0
 23 51  1  0
 23 52  1  0
 25 53  1  0
 25 54  1  0
 25 55  1  0
 26 56  1  0
 26 57  1  0
 27 58  1  0
 27 59  1  0
 29 60  1  0
 30 61  1  0
 32 62  1  0
 33 63  1  0
 34 64  1  0
M  END
$$$$
