
     RDKit          3D

 92 95  0  0  0  0  0  0  0  0999 V2000
   -4.2687   -2.5190    2.2653 C   0  0  0  0  0  0  0  0  0  0  0  0
   -3.5000   -2.1970    1.0575 N   0  0  0  0  0  0  0  0  0  0  0  0
   -3.8955   -2.6911   -0.2260 C   0  0  0  0  0  0  0  0  0  0  0  0
   -4.9393   -3.3953   -0.2104 O   0  0  0  0  0  0  0  0  0  0  0  0
   -3.1963   -2.4334   -1.4814 C   0  0  2  0  0  0  0  0  0  0  0  0
   -3.0045   -3.5966   -2.3603 C   0  0  0  0  0  0  0  0  0  0  0  0
   -4.2803   -4.2098   -2.7471 C   0  0  0  0  0  0  0  0  0  0  0  0
   -5.0074   -3.6854   -3.8025 C   0  0  0  0  0  0  0  0  0  0  0  0
   -6.1949   -4.2704   -4.1925 C   0  0  0  0  0  0  0  0  0  0  0  0
   -6.7020   -5.3950   -3.5497 C   0  0  0  0  0  0  0  0  0  0  0  0
   -7.8990   -5.9560   -3.9688 O   0  0  0  0  0  0  0  0  0  0  0  0
   -8.4146   -7.0988   -3.3146 C   0  0  0  0  0  0  0  0  0  0  0  0
   -5.9620   -5.8934   -2.5085 C   0  0  0  0  0  0  0  0  0  0  0  0
   -4.7843   -5.3323   -2.1052 C   0  0  0  0  0  0  0  0  0  0  0  0
   -1.9161   -1.7288   -1.2360 N   0  0  0  0  0  0  0  0  0  0  0  0
   -1.9023   -0.3479   -1.0653 C   0  0  0  0  0  0  0  0  0  0  0  0
   -3.0426    0.2744   -1.1207 O   0  0  0  0  0  0  0  0  0  0  0  0
   -0.6530    0.4667   -0.8281 C   0  0  0  0  0  0  0  0  0  0  0  0
   -1.1257    1.8834   -0.8832 C   0  0  0  0  0  0  0  0  0  0  0  0
   -0.2898    3.0398   -0.7601 C   0  0  0  0  0  0  0  0  0  0  0  0
    0.5183    3.4141    0.3983 C   0  0  0  0  0  0  0  0  0  0  0  0
   -0.2198    3.5516    1.6944 C   0  0  0  0  0  0  0  0  0  0  0  0
   -1.2362    4.4567    1.7679 O   0  0  0  0  0  0  0  0  0  0  0  0
   -1.3315    5.7889    1.6731 C   0  0  0  0  0  0  0  0  0  0  0  0
   -2.6300    6.3260    1.7781 C   0  0  0  0  0  0  0  0  0  0  0  0
   -2.8110    7.6795    1.6918 C   0  0  0  0  0  0  0  0  0  0  0  0
   -1.7539    8.5524    1.5036 C   0  0  0  0  0  0  0  0  0  0  0  0
   -0.4771    8.0566    1.3990 C   0  0  0  0  0  0  0  0  0  0  0  0
   -0.2905    6.6726    1.4874 C   0  0  0  0  0  0  0  0  0  0  0  0
    0.0633    0.1186    0.4087 C   0  0  0  0  0  0  0  0  0  0  0  0
    0.7607   -1.5043    0.6007 P   0  0  0  0  0  5  0  0  0  0  0  0
    1.4778   -2.0054   -0.6386 O   0  0  0  0  0  0  0  0  0  0  0  0
   -0.2926   -2.6626    1.2185 O   0  0  0  0  0  0  0  0  0  0  0  0
    2.0947   -1.3889    1.8924 C   0  0  0  0  0  0  0  0  0  0  0  0
    3.2632   -0.6413    1.3874 C   0  0  0  0  0  0  0  0  0  0  0  0
    3.4871    0.6976    1.6015 C   0  0  0  0  0  0  0  0  0  0  0  0
    4.6065    1.3753    1.1063 C   0  0  0  0  0  0  0  0  0  0  0  0
    5.5391    0.6827    0.3650 C   0  0  0  0  0  0  0  0  0  0  0  0
    6.7678    1.3799   -0.1556 C   0  0  0  0  0  0  0  0  0  0  0  0
    7.9816    1.0065    0.5827 C   0  0  0  0  0  0  0  0  0  0  0  0
    8.3702    1.6996    1.6842 C   0  0  0  0  0  0  0  0  0  0  0  0
    9.5213    1.3193    2.3553 C   0  0  0  0  0  0  0  0  0  0  0  0
   10.2494    0.2490    1.8966 C   0  0  0  0  0  0  0  0  0  0  0  0
    9.8764   -0.4754    0.7765 C   0  0  0  0  0  0  0  0  0  0  0  0
    8.7156   -0.0614    0.1322 C   0  0  0  0  0  0  0  0  0  0  0  0
    5.3320   -0.6541    0.1388 C   0  0  0  0  0  0  0  0  0  0  0  0
    4.2283   -1.3173    0.6296 C   0  0  0  0  0  0  0  0  0  0  0  0
   -3.5952   -2.5904    3.1583 H   0  0  0  0  0  0  0  0  0  0  0  0
   -4.8334   -3.4580    2.0910 H   0  0  0  0  0  0  0  0  0  0  0  0
   -5.0101   -1.7326    2.4994 H   0  0  0  0  0  0  0  0  0  0  0  0
   -2.6815   -1.5933    1.1276 H   0  0  0  0  0  0  0  0  0  0  0  0
   -3.7897   -1.6407   -2.0589 H   0  0  0  0  0  0  0  0  0  0  0  0
   -2.5211   -3.2164   -3.3140 H   0  0  0  0  0  0  0  0  0  0  0  0
   -2.2655   -4.3406   -1.9849 H   0  0  0  0  0  0  0  0  0  0  0  0
   -4.6414   -2.8036   -4.3302 H   0  0  0  0  0  0  0  0  0  0  0  0
   -6.7327   -3.8303   -5.0224 H   0  0  0  0  0  0  0  0  0  0  0  0
   -9.2080   -7.5748   -3.9545 H   0  0  0  0  0  0  0  0  0  0  0  0
   -7.5764   -7.8226   -3.1781 H   0  0  0  0  0  0  0  0  0  0  0  0
   -8.8979   -6.8303   -2.3540 H   0  0  0  0  0  0  0  0  0  0  0  0
   -6.3201   -6.7721   -1.9733 H   0  0  0  0  0  0  0  0  0  0  0  0
   -4.1826   -5.7326   -1.2845 H   0  0  0  0  0  0  0  0  0  0  0  0
   -1.0363   -2.2684   -1.2242 H   0  0  0  0  0  0  0  0  0  0  0  0
    0.0242    0.3212   -1.7297 H   0  0  0  0  0  0  0  0  0  0  0  0
   -2.0311    1.8937   -0.1820 H   0  0  0  0  0  0  0  0  0  0  0  0
   -1.7028    1.9155   -1.8972 H   0  0  0  0  0  0  0  0  0  0  0  0
   -0.9692    3.9601   -0.9613 H   0  0  0  0  0  0  0  0  0  0  0  0
    0.3938    3.1522   -1.6966 H   0  0  0  0  0  0  0  0  0  0  0  0
    1.4432    2.8561    0.5466 H   0  0  0  0  0  0  0  0  0  0  0  0
    0.9399    4.4846    0.2164 H   0  0  0  0  0  0  0  0  0  0  0  0
   -0.4867    2.5508    2.1289 H   0  0  0  0  0  0  0  0  0  0  0  0
    0.5802    3.9072    2.4288 H   0  0  0  0  0  0  0  0  0  0  0  0
   -3.4563    5.6284    1.9262 H   0  0  0  0  0  0  0  0  0  0  0  0
   -3.8165    8.0746    1.7732 H   0  0  0  0  0  0  0  0  0  0  0  0
   -1.9288    9.6163    1.4385 H   0  0  0  0  0  0  0  0  0  0  0  0
    0.4077    8.6565    1.2515 H   0  0  0  0  0  0  0  0  0  0  0  0
    0.7021    6.3043    1.4299 H   0  0  0  0  0  0  0  0  0  0  0  0
   -0.6696    0.2743    1.2787 H   0  0  0  0  0  0  0  0  0  0  0  0
    0.8695    0.8416    0.6557 H   0  0  0  0  0  0  0  0  0  0  0  0
   -0.4761   -2.4796    2.1710 H   0  0  0  0  0  0  0  0  0  0  0  0
    1.6419   -0.8516    2.7770 H   0  0  0  0  0  0  0  0  0  0  0  0
    2.3352   -2.4045    2.2504 H   0  0  0  0  0  0  0  0  0  0  0  0
    2.7351    1.2394    2.1949 H   0  0  0  0  0  0  0  0  0  0  0  0
    4.7271    2.4214    1.3091 H   0  0  0  0  0  0  0  0  0  0  0  0
    6.6116    2.4806    0.0084 H   0  0  0  0  0  0  0  0  0  0  0  0
    6.8199    1.2238   -1.2402 H   0  0  0  0  0  0  0  0  0  0  0  0
    7.7834    2.5662    2.0601 H   0  0  0  0  0  0  0  0  0  0  0  0
    9.8305    1.8858    3.2503 H   0  0  0  0  0  0  0  0  0  0  0  0
   11.1557   -0.0600    2.4170 H   0  0  0  0  0  0  0  0  0  0  0  0
   10.4530   -1.3221    0.4122 H   0  0  0  0  0  0  0  0  0  0  0  0
    8.3991   -0.6244   -0.7618 H   0  0  0  0  0  0  0  0  0  0  0  0
    6.0778   -1.1795   -0.4488 H   0  0  0  0  0  0  0  0  0  0  0  0
    4.0655   -2.3568    0.4577 H   0  0  0  0  0  0  0  0  0  0  0  0
  1  2  1  0
  2  3  1  0
  3  4  2  0
  3  5  1  0
  5  6  1  0
  6  7  1  0
  7  8  2  0
  8  9  1  0
  9 10  2  0
 10 11  1  0
 11 12  1  0
 10 13  1  0
 13 14  2  0
  5 15  1  0
 15 16  1  0
 16 17  2  0
 16 18  1  0
 18 19  1  0
 19 20  1  0
 20 21  1  0
 21 22  1  0
 22 23  1  0
 23 24  1  0
 24 25  2  0
 25 26  1  0
 26 27  2  0
 27 28  1  0
 28 29  2  0
 18 30  1  0
 30 31  1  0
 31 32  2  0
 31 33  1  0
 31 34  1  0
 34 35  1  0
 35 36  2  0
 36 37  1  0
 37 38  2  0
 38 39  1  0
 39 40  1  0
 40 41  2  0
 41 42  1  0
 42 43  2  0
 43 44  1  0
 44 45  2  0
 38 46  1  0
 46 47  2  0
 14  7  1  0
 29 24  1  0
 47 35  1  0
 45 40  1  0
  1 48  1  0
  1 49  1  0
  1 50  1  0
  2 51  1  0
  5 52  1  6
  6 53  1  0
  6 54  1  0
  8 55  1  0
  9 56  1  0
 12 57  1  0
 12 58  1  0
 12 59  1  0
 13 60  1  0
 14 61  1  0
 15 62  1  0
 18 63  1  0
 19 64  1  0
 19 65  1  0
 20 66  1  0
 20 67  1  0
 21 68  1  0
 21 69  1  0
 22 70  1  0
 22 71  1  0
 25 72  1  0
 26 73  1  0
 27 74  1  0
 28 75  1  0
 29 76  1  0
 30 77  1  0
 30 78  1  0
 33 79  1  0
 34 80  1  0
 34 81  1  0
 36 82  1  0
 37 83  1  0
 39 84  1  0
 39 85  1  0
 41 86  1  0
 42 87  1  0
 43 88  1  0
 44 89  1  0
 45 90  1  0
 46 91  1  0
 47 92  1  0
M  END
$$$$
