
     RDKit          3D

 26 27  0  0  0  0  0  0  0  0999 V2000
   -1.3678   -0.6156    1.3622 C   0  0  0  0  0  0  0  0  0  0  0  0
   -1.1381   -0.9401   -0.0080 N   0  0  0  0  0  0  0  0  0  0  0  0
   -2.3878   -0.6563   -0.7308 C   0  0  0  0  0  0  0  0  0  0  0  0
   -2.3742    0.8725   -0.8715 C   0  0  0  0  0  0  0  0  0  0  0  0
   -0.9271    1.2599   -0.6462 C   0  0  0  0  0  0  0  0  0  0  0  0
   -0.2495   -0.1034   -0.7240 C   0  0  1  0  0  0  0  0  0  0  0  0
    1.1278   -0.0069   -0.2341 C   0  0  0  0  0  0  0  0  0  0  0  0
    1.8630    1.1764   -0.0927 C   0  0  0  0  0  0  0  0  0  0  0  0
    3.1112    1.2430    0.3534 N   0  0  0  0  0  0  0  0  0  0  0  0
    3.7212    0.0879    0.6975 C   0  0  0  0  0  0  0  0  0  0  0  0
    3.0927   -1.1562    0.6013 C   0  0  0  0  0  0  0  0  0  0  0  0
    1.8062   -1.1568    0.1342 C   0  0  0  0  0  0  0  0  0  0  0  0
   -1.7758   -1.5545    1.8409 H   0  0  0  0  0  0  0  0  0  0  0  0
   -2.1758    0.1443    1.5050 H   0  0  0  0  0  0  0  0  0  0  0  0
   -0.4706   -0.3792    1.9603 H   0  0  0  0  0  0  0  0  0  0  0  0
   -3.2749   -0.9089   -0.1500 H   0  0  0  0  0  0  0  0  0  0  0  0
   -2.3638   -1.0759   -1.7452 H   0  0  0  0  0  0  0  0  0  0  0  0
   -3.0085    1.3530   -0.1013 H   0  0  0  0  0  0  0  0  0  0  0  0
   -2.6387    1.1933   -1.9000 H   0  0  0  0  0  0  0  0  0  0  0  0
   -0.7346    1.6872    0.3574 H   0  0  0  0  0  0  0  0  0  0  0  0
   -0.5510    1.9201   -1.4471 H   0  0  0  0  0  0  0  0  0  0  0  0
   -0.2561   -0.4005   -1.7782 H   0  0  0  0  0  0  0  0  0  0  0  0
    1.3336    2.0964   -0.3826 H   0  0  0  0  0  0  0  0  0  0  0  0
    4.7373    0.0727    1.0680 H   0  0  0  0  0  0  0  0  0  0  0  0
    3.6199   -2.0551    0.8881 H   0  0  0  0  0  0  0  0  0  0  0  0
    1.2812   -2.0972    0.0434 H   0  0  0  0  0  0  0  0  0  0  0  0
  1  2  1  0
  2  3  1  0
  3  4  1  0
  4  5  1  0
  5  6  1  0
  6  7  1  0
  7  8  2  0
  8  9  1  0
  9 10  2  0
 10 11  1  0
 11 12  2  0
  6  2  1  0
 12  7  1  0
  1 13  1  0
  1 14  1  0
  1 15  1  0
  3 16  1  0
  3 17  1  0
  4 18  1  0
  4 19  1  0
  5 20  1  0
  5 21  1  0
  6 22  1  6
  8 23  1  0
 10 24  1  0
 11 25  1  0
 12 26  1  0
M  END
$$$$
