
     RDKit          3D

 68 72  0  0  0  0  0  0  0  0999 V2000
   -5.5376    6.7211   -0.5829 C   0  0  0  0  0  0  0  0  0  0  0  0
   -5.9013    5.3733   -0.6461 O   0  0  0  0  0  0  0  0  0  0  0  0
   -5.0084    4.3207   -0.5814 C   0  0  0  0  0  0  0  0  0  0  0  0
   -3.6525    4.5319   -0.4456 C   0  0  0  0  0  0  0  0  0  0  0  0
   -2.7542    3.4644   -0.3807 C   0  0  0  0  0  0  0  0  0  0  0  0
   -3.2400    2.1789   -0.4544 C   0  0  0  0  0  0  0  0  0  0  0  0
   -2.3211    1.1312   -0.3870 C   0  0  0  0  0  0  0  0  0  0  0  0
   -2.7722   -0.1531   -0.4577 C   0  0  0  0  0  0  0  0  0  0  0  0
   -1.9105   -1.3216   -0.4102 C   0  0  0  0  0  0  0  0  0  0  0  0
   -2.1809   -2.3838    0.4675 C   0  0  0  0  0  0  0  0  0  0  0  0
   -1.2248   -3.3530    0.2947 C   0  0  0  0  0  0  0  0  0  0  0  0
   -1.1248   -4.6288    1.0055 C   0  0  0  0  0  0  0  0  0  0  0  0
   -2.0513   -4.9689    1.9668 C   0  0  0  0  0  0  0  0  0  0  0  0
   -1.9831   -6.1669    2.6551 C   0  0  0  0  0  0  0  0  0  0  0  0
   -3.2137   -6.5239    3.8733 Cl  0  0  0  0  0  0  0  0  0  0  0  0
   -0.9759   -7.0715    2.4009 C   0  0  0  0  0  0  0  0  0  0  0  0
   -0.0445   -6.7464    1.4449 C   0  0  0  0  0  0  0  0  0  0  0  0
    1.2334   -7.8953    1.1231 Cl  0  0  0  0  0  0  0  0  0  0  0  0
   -0.1182   -5.5337    0.7520 C   0  0  0  0  0  0  0  0  0  0  0  0
   -0.4138   -2.8846   -0.6527 N   0  0  0  0  0  0  0  0  0  0  0  0
   -0.8146   -1.6690   -1.0833 N   0  0  0  0  0  0  0  0  0  0  0  0
   -0.1332   -0.9184   -2.1399 C   0  0  1  0  0  0  0  0  0  0  0  0
   -1.0246   -0.0617   -2.9537 C   0  0  0  0  0  0  0  0  0  0  0  0
    1.1311   -0.2966   -1.6802 C   0  0  0  0  0  0  0  0  0  0  0  0
    2.2414   -1.1102   -1.4058 C   0  0  0  0  0  0  0  0  0  0  0  0
    3.4512   -0.6013   -0.9856 C   0  0  0  0  0  0  0  0  0  0  0  0
    3.6292    0.7470   -0.8132 C   0  0  0  0  0  0  0  0  0  0  0  0
    4.9046    1.3513   -0.3642 C   0  0  0  0  0  0  0  0  0  0  0  0
    4.9938    2.6011   -0.2278 O   0  0  0  0  0  0  0  0  0  0  0  0
    6.0136    0.5545   -0.0889 N   0  0  0  0  0  0  0  0  0  0  0  0
    7.2650    1.1236    0.3560 C   0  0  0  0  0  0  0  0  0  0  0  0
    7.0839    1.8352    1.6669 C   0  0  0  0  0  0  0  0  0  0  0  0
    6.5899    0.8381    2.6646 C   0  0  0  0  0  0  0  0  0  0  0  0
    6.3795    1.2529    3.8261 O   0  0  0  0  0  0  0  0  0  0  0  0
    6.3763   -0.4810    2.3171 O   0  0  0  0  0  0  0  0  0  0  0  0
    2.5518    1.5671   -1.0770 C   0  0  0  0  0  0  0  0  0  0  0  0
    1.3273    1.0472   -1.5029 C   0  0  0  0  0  0  0  0  0  0  0  0
   -4.1455   -0.3642   -0.5949 C   0  0  0  0  0  0  0  0  0  0  0  0
   -5.0405    0.6559   -0.6604 C   0  0  0  0  0  0  0  0  0  0  0  0
   -4.5941    1.9583   -0.5902 C   0  0  0  0  0  0  0  0  0  0  0  0
   -5.4868    3.0325   -0.6544 C   0  0  0  0  0  0  0  0  0  0  0  0
   -6.4601    7.3251   -0.4589 H   0  0  0  0  0  0  0  0  0  0  0  0
   -5.0495    7.0455   -1.5219 H   0  0  0  0  0  0  0  0  0  0  0  0
   -4.8718    6.8939    0.3057 H   0  0  0  0  0  0  0  0  0  0  0  0
   -3.3159    5.5615   -0.3917 H   0  0  0  0  0  0  0  0  0  0  0  0
   -1.6924    3.6918   -0.2731 H   0  0  0  0  0  0  0  0  0  0  0  0
   -1.2842    1.3356   -0.2739 H   0  0  0  0  0  0  0  0  0  0  0  0
   -3.0026   -2.4311    1.1618 H   0  0  0  0  0  0  0  0  0  0  0  0
   -2.8508   -4.2449    2.1650 H   0  0  0  0  0  0  0  0  0  0  0  0
   -0.9214   -8.0179    2.9441 H   0  0  0  0  0  0  0  0  0  0  0  0
    0.6125   -5.2959    0.0127 H   0  0  0  0  0  0  0  0  0  0  0  0
    0.2089   -1.7481   -2.8653 H   0  0  0  0  0  0  0  0  0  0  0  0
   -0.9167    1.0155   -2.8716 H   0  0  0  0  0  0  0  0  0  0  0  0
   -2.0661   -0.4226   -2.8008 H   0  0  0  0  0  0  0  0  0  0  0  0
   -0.8293   -0.2782   -4.0514 H   0  0  0  0  0  0  0  0  0  0  0  0
    2.0876   -2.1873   -1.5471 H   0  0  0  0  0  0  0  0  0  0  0  0
    4.2712   -1.2721   -0.7890 H   0  0  0  0  0  0  0  0  0  0  0  0
    6.0056   -0.4922   -0.1869 H   0  0  0  0  0  0  0  0  0  0  0  0
    7.6271    1.8972   -0.3821 H   0  0  0  0  0  0  0  0  0  0  0  0
    8.0868    0.3725    0.4126 H   0  0  0  0  0  0  0  0  0  0  0  0
    6.3756    2.6626    1.5580 H   0  0  0  0  0  0  0  0  0  0  0  0
    8.0646    2.2605    2.0088 H   0  0  0  0  0  0  0  0  0  0  0  0
    6.3756   -1.1533    3.0887 H   0  0  0  0  0  0  0  0  0  0  0  0
    2.6798    2.6464   -0.9435 H   0  0  0  0  0  0  0  0  0  0  0  0
    0.5222    1.7336   -1.7015 H   0  0  0  0  0  0  0  0  0  0  0  0
   -4.5079   -1.3950   -0.6513 H   0  0  0  0  0  0  0  0  0  0  0  0
   -6.1020    0.5055   -0.7662 H   0  0  0  0  0  0  0  0  0  0  0  0
   -6.5510    2.8396   -0.7615 H   0  0  0  0  0  0  0  0  0  0  0  0
  1  2  1  0
  2  3  1  0
  3  4  2  0
  4  5  1  0
  5  6  2  0
  6  7  1  0
  7  8  2  0
  8  9  1  0
  9 10  2  0
 10 11  1  0
 11 12  1  0
 12 13  2  0
 13 14  1  0
 14 15  1  0
 14 16  2  0
 16 17  1  0
 17 18  1  0
 17 19  2  0
 11 20  2  0
 20 21  1  0
 21 22  1  0
 22 23  1  0
 22 24  1  0
 24 25  2  0
 25 26  1  0
 26 27  2  0
 27 28  1  0
 28 29  2  0
 28 30  1  0
 30 31  1  0
 31 32  1  0
 32 33  1  0
 33 34  2  0
 33 35  1  0
 27 36  1  0
 36 37  2  0
  8 38  1  0
 38 39  2  0
 39 40  1  0
 40 41  2  0
 41  3  1  0
 40  6  1  0
 21  9  1  0
 37 24  1  0
 19 12  1  0
  1 42  1  0
  1 43  1  0
  1 44  1  0
  4 45  1  0
  5 46  1  0
  7 47  1  0
 10 48  1  0
 13 49  1  0
 16 50  1  0
 19 51  1  0
 22 52  1  6
 23 53  1  0
 23 54  1  0
 23 55  1  0
 25 56  1  0
 26 57  1  0
 30 58  1  0
 31 59  1  0
 31 60  1  0
 32 61  1  0
 32 62  1  0
 35 63  1  0
 36 64  1  0
 37 65  1  0
 38 66  1  0
 39 67  1  0
 41 68  1  0
M  END
$$$$
