
     RDKit          3D

 44 47  0  0  0  0  0  0  0  0999 V2000
   -3.6177    3.4637    1.5820 C   0  0  0  0  0  0  0  0  0  0  0  0
   -4.4636    1.9169    1.4203 S   0  0  0  0  0  6  0  0  0  0  0  0
   -5.5041    2.0472    0.3695 O   0  0  0  0  0  0  0  0  0  0  0  0
   -5.1700    1.6365    2.7252 O   0  0  0  0  0  0  0  0  0  0  0  0
   -3.3583    0.5998    1.1336 C   0  0  0  0  0  0  0  0  0  0  0  0
   -2.9810    0.2089   -0.1326 C   0  0  0  0  0  0  0  0  0  0  0  0
   -2.0955   -0.8486   -0.3191 C   0  0  0  0  0  0  0  0  0  0  0  0
   -1.5723   -1.5336    0.7693 C   0  0  0  0  0  0  0  0  0  0  0  0
   -0.6602   -2.6232    0.5825 N   0  0  0  0  0  0  0  0  0  0  0  0
   -0.8551   -3.8901    0.8506 N   0  0  0  0  0  0  0  0  0  0  0  0
    0.2024   -4.6337    0.5550 C   0  0  0  0  0  0  0  0  0  0  0  0
    0.3746   -6.1203    0.7146 C   0  0  0  0  0  0  0  0  0  0  0  0
    0.6250   -6.3490    2.0544 F   0  0  0  0  0  0  0  0  0  0  0  0
   -0.8155   -6.7002    0.3121 F   0  0  0  0  0  0  0  0  0  0  0  0
    1.4500   -6.5612   -0.0181 F   0  0  0  0  0  0  0  0  0  0  0  0
    1.1533   -3.7994    0.0605 C   0  0  0  0  0  0  0  0  0  0  0  0
    0.6011   -2.5187    0.0791 C   0  0  0  0  0  0  0  0  0  0  0  0
    1.2366   -1.2955   -0.3526 C   0  0  0  0  0  0  0  0  0  0  0  0
    1.9495   -1.1798   -1.5223 C   0  0  0  0  0  0  0  0  0  0  0  0
    2.5374    0.0100   -1.8901 C   0  0  0  0  0  0  0  0  0  0  0  0
    2.4280    1.1494   -1.0794 C   0  0  0  0  0  0  0  0  0  0  0  0
    3.0786    2.3619   -1.5432 C   0  0  0  0  0  0  0  0  0  0  0  0
    3.1263    3.5795   -0.9615 C   0  0  0  0  0  0  0  0  0  0  0  0
    3.8777    4.4280   -1.7983 C   0  0  0  0  0  0  0  0  0  0  0  0
    4.2471    3.6496   -2.8619 C   0  0  0  0  0  0  0  0  0  0  0  0
    3.7713    2.4734   -2.6805 O   0  0  0  0  0  0  0  0  0  0  0  0
    1.7315    1.0513    0.0715 C   0  0  0  0  0  0  0  0  0  0  0  0
    1.5199    2.3928    1.1690 Cl  0  0  0  0  0  0  0  0  0  0  0  0
    1.1453   -0.1683    0.4201 C   0  0  0  0  0  0  0  0  0  0  0  0
   -1.9627   -1.1247    1.9882 N   0  0  0  0  0  0  0  0  0  0  0  0
   -2.8095   -0.1152    2.2019 C   0  0  0  0  0  0  0  0  0  0  0  0
   -3.4776    3.9673    0.6014 H   0  0  0  0  0  0  0  0  0  0  0  0
   -4.2770    4.1321    2.2076 H   0  0  0  0  0  0  0  0  0  0  0  0
   -2.6689    3.3359    2.1317 H   0  0  0  0  0  0  0  0  0  0  0  0
   -3.3852    0.7386   -0.9819 H   0  0  0  0  0  0  0  0  0  0  0  0
   -1.7999   -1.1550   -1.3082 H   0  0  0  0  0  0  0  0  0  0  0  0
    2.1706   -4.0124   -0.3003 H   0  0  0  0  0  0  0  0  0  0  0  0
    2.0189   -2.0737   -2.1300 H   0  0  0  0  0  0  0  0  0  0  0  0
    3.0811    0.0786   -2.7928 H   0  0  0  0  0  0  0  0  0  0  0  0
    2.7124    3.9561   -0.0401 H   0  0  0  0  0  0  0  0  0  0  0  0
    4.0994    5.4635   -1.6169 H   0  0  0  0  0  0  0  0  0  0  0  0
    4.8514    4.0547   -3.6860 H   0  0  0  0  0  0  0  0  0  0  0  0
    0.6002   -0.1969    1.3470 H   0  0  0  0  0  0  0  0  0  0  0  0
   -3.1154    0.2036    3.1904 H   0  0  0  0  0  0  0  0  0  0  0  0
  1  2  1  0
  2  3  2  0
  2  4  2  0
  2  5  1  0
  5  6  2  0
  6  7  1  0
  7  8  2  0
  8  9  1  0
  9 10  1  0
 10 11  2  0
 11 12  1  0
 12 13  1  0
 12 14  1  0
 12 15  1  0
 11 16  1  0
 16 17  2  0
 17 18  1  0
 18 19  2  0
 19 20  1  0
 20 21  2  0
 21 22  1  0
 22 23  2  0
 23 24  1  0
 24 25  2  0
 25 26  1  0
 21 27  1  0
 27 28  1  0
 27 29  2  0
  8 30  1  0
 30 31  2  0
 31  5  1  0
 17  9  1  0
 29 18  1  0
 26 22  1  0
  1 32  1  0
  1 33  1  0
  1 34  1  0
  6 35  1  0
  7 36  1  0
 16 37  1  0
 19 38  1  0
 20 39  1  0
 23 40  1  0
 24 41  1  0
 25 42  1  0
 29 43  1  0
 31 44  1  0
M  END
$$$$
