
     RDKit          3D

 53 56  0  0  0  0  0  0  0  0999 V2000
   -4.8253    2.4785   -0.1743 C   0  0  0  0  0  0  0  0  0  0  0  0
   -4.1943    1.1529   -0.5068 C   0  0  0  0  0  0  0  0  0  0  0  0
   -4.8741   -0.0437   -0.6264 C   0  0  0  0  0  0  0  0  0  0  0  0
   -6.2985   -0.3200   -0.4738 C   0  0  0  0  0  0  0  0  0  0  0  0
   -7.0045    0.2073    0.5864 C   0  0  0  0  0  0  0  0  0  0  0  0
   -8.3518   -0.1077    0.6520 C   0  0  0  0  0  0  0  0  0  0  0  0
   -8.9382   -0.8800   -0.2611 N   0  0  0  0  0  0  0  0  0  0  0  0
   -8.2695   -1.4148   -1.3175 C   0  0  0  0  0  0  0  0  0  0  0  0
   -6.9251   -1.1257   -1.4204 C   0  0  0  0  0  0  0  0  0  0  0  0
   -3.9306   -0.9535   -0.9286 N   0  0  0  0  0  0  0  0  0  0  0  0
   -2.7357   -0.3942   -0.9999 N   0  0  0  0  0  0  0  0  0  0  0  0
   -2.8649    0.9171   -0.7423 C   0  0  0  0  0  0  0  0  0  0  0  0
   -1.8141    1.9713   -0.7125 C   0  0  0  0  0  0  0  0  0  0  0  0
   -0.5060    1.4542   -0.9412 N   0  0  0  0  0  0  0  0  0  0  0  0
    0.1463    0.5395   -0.0541 C   0  0  0  0  0  0  0  0  0  0  0  0
   -0.4367    0.1078    1.1133 C   0  0  0  0  0  0  0  0  0  0  0  0
    0.2289   -0.7773    1.9315 C   0  0  0  0  0  0  0  0  0  0  0  0
    1.4798   -1.2473    1.6058 C   0  0  0  0  0  0  0  0  0  0  0  0
    2.0897   -0.8187    0.4203 C   0  0  0  0  0  0  0  0  0  0  0  0
    3.4156   -1.3582    0.1295 C   0  0  0  0  0  0  0  0  0  0  0  0
    3.9505   -2.1352    0.9585 O   0  0  0  0  0  0  0  0  0  0  0  0
    4.1416   -1.0597   -1.0359 N   0  0  0  0  0  0  0  0  0  0  0  0
    5.4522   -1.5789   -1.3411 C   0  0  0  0  0  0  0  0  0  0  0  0
    6.4747   -0.8387   -0.5898 C   0  0  0  0  0  0  0  0  0  0  0  0
    6.9891    0.3553   -1.0965 C   0  0  0  0  0  0  0  0  0  0  0  0
    7.9480    1.0706   -0.4469 C   0  0  0  0  0  0  0  0  0  0  0  0
    8.4233    0.5929    0.7532 C   0  0  0  0  0  0  0  0  0  0  0  0
    7.9313   -0.5712    1.2611 C   0  0  0  0  0  0  0  0  0  0  0  0
    6.9496   -1.3043    0.5962 C   0  0  0  0  0  0  0  0  0  0  0  0
    1.4138    0.0650   -0.3862 C   0  0  0  0  0  0  0  0  0  0  0  0
   -5.8449    2.5490   -0.6256 H   0  0  0  0  0  0  0  0  0  0  0  0
   -4.8024    2.6849    0.8933 H   0  0  0  0  0  0  0  0  0  0  0  0
   -4.2240    3.2808   -0.6734 H   0  0  0  0  0  0  0  0  0  0  0  0
   -6.5457    0.8385    1.3408 H   0  0  0  0  0  0  0  0  0  0  0  0
   -8.9047    0.3194    1.5025 H   0  0  0  0  0  0  0  0  0  0  0  0
   -8.7296   -2.0356   -2.0561 H   0  0  0  0  0  0  0  0  0  0  0  0
   -6.3457   -1.5348   -2.2558 H   0  0  0  0  0  0  0  0  0  0  0  0
   -1.8121   -0.8629   -1.2210 H   0  0  0  0  0  0  0  0  0  0  0  0
   -2.0812    2.7481   -1.4354 H   0  0  0  0  0  0  0  0  0  0  0  0
   -1.8050    2.4776    0.2932 H   0  0  0  0  0  0  0  0  0  0  0  0
    0.0019    1.7655   -1.8105 H   0  0  0  0  0  0  0  0  0  0  0  0
   -1.4213    0.4796    1.3657 H   0  0  0  0  0  0  0  0  0  0  0  0
   -0.2221   -1.1299    2.8657 H   0  0  0  0  0  0  0  0  0  0  0  0
    1.9730   -1.9413    2.2715 H   0  0  0  0  0  0  0  0  0  0  0  0
    3.6738   -0.4089   -1.7175 H   0  0  0  0  0  0  0  0  0  0  0  0
    5.6538   -1.6051   -2.4318 H   0  0  0  0  0  0  0  0  0  0  0  0
    5.4907   -2.6555   -1.0120 H   0  0  0  0  0  0  0  0  0  0  0  0
    6.5659    0.6771   -2.0573 H   0  0  0  0  0  0  0  0  0  0  0  0
    8.3101    1.9969   -0.8938 H   0  0  0  0  0  0  0  0  0  0  0  0
    9.1957    1.1751    1.2691 H   0  0  0  0  0  0  0  0  0  0  0  0
    8.2880   -0.9747    2.2092 H   0  0  0  0  0  0  0  0  0  0  0  0
    6.6223   -2.2167    1.0595 H   0  0  0  0  0  0  0  0  0  0  0  0
    1.8988    0.3895   -1.3012 H   0  0  0  0  0  0  0  0  0  0  0  0
  1  2  1  0
  2  3  1  0
  3  4  1  0
  4  5  2  0
  5  6  1  0
  6  7  2  0
  7  8  1  0
  8  9  2  0
  3 10  2  0
 10 11  1  0
 11 12  1  0
 12 13  1  0
 13 14  1  0
 14 15  1  0
 15 16  2  0
 16 17  1  0
 17 18  2  0
 18 19  1  0
 19 20  1  0
 20 21  2  0
 20 22  1  0
 22 23  1  0
 23 24  1  0
 24 25  2  0
 25 26  1  0
 26 27  2  0
 27 28  1  0
 28 29  2  0
 19 30  2  0
 12  2  2  0
 30 15  1  0
  9  4  1  0
 29 24  1  0
  1 31  1  0
  1 32  1  0
  1 33  1  0
  5 34  1  0
  6 35  1  0
  8 36  1  0
  9 37  1  0
 11 38  1  0
 13 39  1  0
 13 40  1  0
 14 41  1  0
 16 42  1  0
 17 43  1  0
 18 44  1  0
 22 45  1  0
 23 46  1  0
 23 47  1  0
 25 48  1  0
 26 49  1  0
 27 50  1  0
 28 51  1  0
 29 52  1  0
 30 53  1  0
M  END
$$$$
