
     RDKit          3D

 37 39  0  0  0  0  0  0  0  0999 V2000
   -0.9015   -3.1691    0.2845 N   0  0  0  0  0  0  0  0  0  0  0  0
   -1.9254   -2.1477    0.3762 C   0  0  0  0  0  0  0  0  0  0  0  0
   -1.5356   -1.0428   -0.5741 C   0  0  1  0  0  0  0  0  0  0  0  0
   -2.4699    0.0862   -0.6110 C   0  0  0  0  0  0  0  0  0  0  0  0
   -3.0278    0.4461    0.5828 C   0  0  0  0  0  0  0  0  0  0  0  0
   -3.9279    1.4975    0.6830 C   0  0  0  0  0  0  0  0  0  0  0  0
   -4.2967    2.2305   -0.4487 C   0  0  0  0  0  0  0  0  0  0  0  0
   -5.4145    3.5563   -0.4022 Cl  0  0  0  0  0  0  0  0  0  0  0  0
   -3.7344    1.8685   -1.6552 C   0  0  0  0  0  0  0  0  0  0  0  0
   -2.8329    0.8121   -1.7416 C   0  0  0  0  0  0  0  0  0  0  0  0
   -0.1169   -0.6417   -0.3390 C   0  0  0  0  0  0  0  0  0  0  0  0
    0.2738   -0.5687    0.9845 C   0  0  0  0  0  0  0  0  0  0  0  0
    1.5943   -0.1971    1.2091 C   0  0  0  0  0  0  0  0  0  0  0  0
    2.4439    0.0777    0.1352 C   0  0  0  0  0  0  0  0  0  0  0  0
    1.9937   -0.0135   -1.1498 C   0  0  0  0  0  0  0  0  0  0  0  0
    0.6964   -0.3773   -1.4090 C   0  0  0  0  0  0  0  0  0  0  0  0
    3.8376    0.4712    0.3191 C   0  0  0  0  0  0  0  0  0  0  0  0
    4.6232    1.2933   -0.4624 C   0  0  0  0  0  0  0  0  0  0  0  0
    5.8466    1.3427    0.1366 N   0  0  0  0  0  0  0  0  0  0  0  0
    5.8225    0.5911    1.2323 N   0  0  0  0  0  0  0  0  0  0  0  0
    4.6143    0.0432    1.3773 C   0  0  0  0  0  0  0  0  0  0  0  0
    0.0144   -2.8001   -0.0275 H   0  0  0  0  0  0  0  0  0  0  0  0
   -1.2089   -4.0488   -0.1372 H   0  0  0  0  0  0  0  0  0  0  0  0
   -2.0282   -1.8432    1.4178 H   0  0  0  0  0  0  0  0  0  0  0  0
   -2.8825   -2.5970   -0.0069 H   0  0  0  0  0  0  0  0  0  0  0  0
   -1.5827   -1.5164   -1.5999 H   0  0  0  0  0  0  0  0  0  0  0  0
   -2.8739    0.0058    1.5790 H   0  0  0  0  0  0  0  0  0  0  0  0
   -4.4146    1.8479    1.5828 H   0  0  0  0  0  0  0  0  0  0  0  0
   -3.9701    2.3840   -2.5602 H   0  0  0  0  0  0  0  0  0  0  0  0
   -2.3569    0.4801   -2.6627 H   0  0  0  0  0  0  0  0  0  0  0  0
   -0.3391   -0.7688    1.8350 H   0  0  0  0  0  0  0  0  0  0  0  0
    1.9677   -0.1201    2.2172 H   0  0  0  0  0  0  0  0  0  0  0  0
    2.6355    0.1954   -2.0188 H   0  0  0  0  0  0  0  0  0  0  0  0
    0.3312   -0.4519   -2.4317 H   0  0  0  0  0  0  0  0  0  0  0  0
    4.2024    1.7392   -1.3520 H   0  0  0  0  0  0  0  0  0  0  0  0
    6.5431    1.9417   -0.3648 H   0  0  0  0  0  0  0  0  0  0  0  0
    4.3998   -0.6063    2.2181 H   0  0  0  0  0  0  0  0  0  0  0  0
  1  2  1  0
  2  3  1  0
  3  4  1  0
  4  5  2  0
  5  6  1  0
  6  7  2  0
  7  8  1  0
  7  9  1  0
  9 10  2  0
  3 11  1  0
 11 12  2  0
 12 13  1  0
 13 14  2  0
 14 15  1  0
 15 16  2  0
 14 17  1  0
 17 18  2  0
 18 19  1  0
 19 20  1  0
 20 21  2  0
 10  4  1  0
 16 11  1  0
 21 17  1  0
  1 22  1  0
  1 23  1  0
  2 24  1  0
  2 25  1  0
  3 26  1  6
  5 27  1  0
  6 28  1  0
  9 29  1  0
 10 30  1  0
 12 31  1  0
 13 32  1  0
 15 33  1  0
 16 34  1  0
 18 35  1  0
 19 36  1  0
 21 37  1  0
M  END
$$$$
