
     RDKit          3D

 50 53  0  0  0  0  0  0  0  0999 V2000
    7.4919   -0.9278    3.0807 C   0  0  0  0  0  0  0  0  0  0  0  0
    6.7539   -0.9074    1.8233 C   0  0  0  0  0  0  0  0  0  0  0  0
    6.5355   -1.7847    0.8457 C   0  0  0  0  0  0  0  0  0  0  0  0
    5.7865   -1.4709   -0.2295 C   0  0  0  0  0  0  0  0  0  0  0  0
    5.2539   -0.2374   -0.3014 C   0  0  0  0  0  0  0  0  0  0  0  0
    4.4085    0.3903   -1.3274 C   0  0  0  0  0  0  0  0  0  0  0  0
    4.0587   -0.2324   -2.3567 O   0  0  0  0  0  0  0  0  0  0  0  0
    3.9572    1.7297   -1.1866 N   0  0  0  0  0  0  0  0  0  0  0  0
    3.1240    2.3849   -2.1719 C   0  0  0  0  0  0  0  0  0  0  0  0
    1.8101    1.6658   -2.3694 C   0  0  1  0  0  0  0  0  0  0  0  0
    0.9312    1.7307   -1.1572 C   0  0  0  0  0  0  0  0  0  0  0  0
   -0.3928    1.5023   -1.7301 N   0  0  0  0  0  0  0  0  0  0  0  0
   -1.5243    0.9127   -1.1025 C   0  0  0  0  0  0  0  0  0  0  0  0
   -2.4384    1.6828   -0.4117 C   0  0  0  0  0  0  0  0  0  0  0  0
   -3.5363    1.1261    0.1995 C   0  0  0  0  0  0  0  0  0  0  0  0
   -3.7802   -0.2454    0.1512 C   0  0  0  0  0  0  0  0  0  0  0  0
   -4.9065   -0.8219    0.7775 N   0  0  0  0  0  0  0  0  0  0  0  0
   -6.1457   -0.9666    0.0613 C   0  0  0  0  0  0  0  0  0  0  0  0
   -6.9678   -2.0091    0.8303 C   0  0  0  0  0  0  0  0  0  0  0  0
   -7.2083   -1.6228    2.1232 O   0  0  0  0  0  0  0  0  0  0  0  0
   -6.0933   -1.3957    2.8870 C   0  0  0  0  0  0  0  0  0  0  0  0
   -4.8415   -1.2672    2.1149 C   0  0  0  0  0  0  0  0  0  0  0  0
   -3.7221   -1.5565    2.6561 O   0  0  0  0  0  0  0  0  0  0  0  0
   -2.8591   -1.0258   -0.5455 C   0  0  0  0  0  0  0  0  0  0  0  0
   -1.7683   -0.4425   -1.1483 C   0  0  0  0  0  0  0  0  0  0  0  0
   -0.2921    2.0075   -3.0682 C   0  0  0  0  0  0  0  0  0  0  0  0
   -1.2905    2.1015   -3.8187 O   0  0  0  0  0  0  0  0  0  0  0  0
    1.0348    2.3443   -3.3391 O   0  0  0  0  0  0  0  0  0  0  0  0
    5.8205    0.5500    1.2145 S   0  0  0  0  0  0  0  0  0  0  0  0
    8.5738   -0.8081    2.8658 H   0  0  0  0  0  0  0  0  0  0  0  0
    7.3236   -1.8135    3.7005 H   0  0  0  0  0  0  0  0  0  0  0  0
    7.1931   -0.0270    3.6765 H   0  0  0  0  0  0  0  0  0  0  0  0
    6.9963   -2.8177    0.9312 H   0  0  0  0  0  0  0  0  0  0  0  0
    5.5799   -2.1887   -1.0776 H   0  0  0  0  0  0  0  0  0  0  0  0
    4.2609    2.2338   -0.3184 H   0  0  0  0  0  0  0  0  0  0  0  0
    2.9523    3.4193   -1.8735 H   0  0  0  0  0  0  0  0  0  0  0  0
    3.6698    2.3559   -3.1422 H   0  0  0  0  0  0  0  0  0  0  0  0
    1.9196    0.6339   -2.6974 H   0  0  0  0  0  0  0  0  0  0  0  0
    1.2261    0.8990   -0.4868 H   0  0  0  0  0  0  0  0  0  0  0  0
    1.0118    2.7203   -0.6886 H   0  0  0  0  0  0  0  0  0  0  0  0
   -2.2367    2.7642   -0.3796 H   0  0  0  0  0  0  0  0  0  0  0  0
   -4.2384    1.7466    0.7343 H   0  0  0  0  0  0  0  0  0  0  0  0
   -6.7583   -0.0473    0.0409 H   0  0  0  0  0  0  0  0  0  0  0  0
   -6.0069   -1.3536   -0.9676 H   0  0  0  0  0  0  0  0  0  0  0  0
   -7.9553   -2.1084    0.3224 H   0  0  0  0  0  0  0  0  0  0  0  0
   -6.4351   -2.9572    0.7148 H   0  0  0  0  0  0  0  0  0  0  0  0
   -6.2191   -0.4738    3.5105 H   0  0  0  0  0  0  0  0  0  0  0  0
   -5.9660   -2.2280    3.6118 H   0  0  0  0  0  0  0  0  0  0  0  0
   -3.0417   -2.1111   -0.5903 H   0  0  0  0  0  0  0  0  0  0  0  0
   -1.0491   -1.0533   -1.6925 H   0  0  0  0  0  0  0  0  0  0  0  0
  1  2  1  0
  2  3  2  0
  3  4  1  0
  4  5  2  0
  5  6  1  0
  6  7  2  0
  6  8  1  0
  8  9  1  0
  9 10  1  0
 10 11  1  0
 11 12  1  0
 12 13  1  0
 13 14  2  0
 14 15  1  0
 15 16  2  0
 16 17  1  0
 17 18  1  0
 18 19  1  0
 19 20  1  0
 20 21  1  0
 21 22  1  0
 22 23  2  0
 16 24  1  0
 24 25  2  0
 12 26  1  0
 26 27  2  0
 26 28  1  0
  5 29  1  0
 29  2  1  0
 28 10  1  0
 25 13  1  0
 22 17  1  0
  1 30  1  0
  1 31  1  0
  1 32  1  0
  3 33  1  0
  4 34  1  0
  8 35  1  0
  9 36  1  0
  9 37  1  0
 10 38  1  6
 11 39  1  0
 11 40  1  0
 14 41  1  0
 15 42  1  0
 18 43  1  0
 18 44  1  0
 19 45  1  0
 19 46  1  0
 21 47  1  0
 21 48  1  0
 24 49  1  0
 25 50  1  0
M  END
$$$$
