
     RDKit          3D

 40 41  0  0  0  0  0  0  0  0999 V2000
    6.6497    1.8453   -0.4785 C   0  0  0  0  0  0  0  0  0  0  0  0
    5.1798    1.7125   -0.1529 C   0  0  0  0  0  0  0  0  0  0  0  0
    4.7244    0.4516   -0.6428 O   0  0  0  0  0  0  0  0  0  0  0  0
    3.4130    0.0584   -0.4854 C   0  0  0  0  0  0  0  0  0  0  0  0
    2.8116    0.9855    0.1233 O   0  0  0  0  0  0  0  0  0  0  0  0
    2.8398   -1.1649   -0.9259 N   0  0  0  0  0  0  0  0  0  0  0  0
    1.4580   -1.3043   -0.6268 C   0  0  0  0  0  0  0  0  0  0  0  0
    1.1154   -1.8828    0.5725 C   0  0  0  0  0  0  0  0  0  0  0  0
    2.0897   -2.3366    1.5035 N   0  0  0  0  0  0  0  0  0  0  0  0
   -0.1739   -2.0706    0.9709 C   0  0  0  0  0  0  0  0  0  0  0  0
   -1.2205   -1.6676    0.1455 C   0  0  0  0  0  0  0  0  0  0  0  0
   -2.5955   -1.8096    0.4209 N   0  0  0  0  0  0  0  0  0  0  0  0
   -3.8529   -1.4958   -0.1715 C   0  0  0  0  0  0  0  0  0  0  0  0
   -4.0649   -0.0296   -0.2372 C   0  0  0  0  0  0  0  0  0  0  0  0
   -4.5761    0.4576    0.9692 C   0  0  0  0  0  0  0  0  0  0  0  0
   -4.8823    1.7887    1.1873 C   0  0  0  0  0  0  0  0  0  0  0  0
   -4.6830    2.7072    0.1785 C   0  0  0  0  0  0  0  0  0  0  0  0
   -4.9346    4.0337    0.2454 F   0  0  0  0  0  0  0  0  0  0  0  0
   -4.1779    2.2277   -1.0155 C   0  0  0  0  0  0  0  0  0  0  0  0
   -3.8740    0.9014   -1.2301 C   0  0  0  0  0  0  0  0  0  0  0  0
   -0.8617   -1.0896   -1.0532 C   0  0  0  0  0  0  0  0  0  0  0  0
    0.4408   -0.8966   -1.4622 C   0  0  0  0  0  0  0  0  0  0  0  0
    7.0046    1.0437   -1.1578 H   0  0  0  0  0  0  0  0  0  0  0  0
    7.2483    1.7540    0.4379 H   0  0  0  0  0  0  0  0  0  0  0  0
    6.8354    2.8172   -0.9706 H   0  0  0  0  0  0  0  0  0  0  0  0
    5.0483    1.7115    0.9474 H   0  0  0  0  0  0  0  0  0  0  0  0
    4.5992    2.5587   -0.5798 H   0  0  0  0  0  0  0  0  0  0  0  0
    3.4959   -1.8227   -1.4186 H   0  0  0  0  0  0  0  0  0  0  0  0
    2.4615   -1.7333    2.2821 H   0  0  0  0  0  0  0  0  0  0  0  0
    2.4237   -3.3014    1.3812 H   0  0  0  0  0  0  0  0  0  0  0  0
   -0.4486   -2.5250    1.9130 H   0  0  0  0  0  0  0  0  0  0  0  0
   -2.7049   -2.2987    1.3574 H   0  0  0  0  0  0  0  0  0  0  0  0
   -4.6805   -1.9989    0.3660 H   0  0  0  0  0  0  0  0  0  0  0  0
   -3.8055   -1.8691   -1.2376 H   0  0  0  0  0  0  0  0  0  0  0  0
   -4.7895   -0.1396    1.8618 H   0  0  0  0  0  0  0  0  0  0  0  0
   -5.2741    2.1911    2.0978 H   0  0  0  0  0  0  0  0  0  0  0  0
   -3.9986    2.8908   -1.8439 H   0  0  0  0  0  0  0  0  0  0  0  0
   -3.4945    0.4749   -2.1287 H   0  0  0  0  0  0  0  0  0  0  0  0
   -1.5264   -0.7231   -1.8212 H   0  0  0  0  0  0  0  0  0  0  0  0
    0.7810   -0.4517   -2.3850 H   0  0  0  0  0  0  0  0  0  0  0  0
  1  2  1  0
  2  3  1  0
  3  4  1  0
  4  5  2  0
  4  6  1  0
  6  7  1  0
  7  8  2  0
  8  9  1  0
  8 10  1  0
 10 11  2  0
 11 12  1  0
 12 13  1  0
 13 14  1  0
 14 15  2  0
 15 16  1  0
 16 17  2  0
 17 18  1  0
 17 19  1  0
 19 20  2  0
 11 21  1  0
 21 22  2  0
 22  7  1  0
 20 14  1  0
  1 23  1  0
  1 24  1  0
  1 25  1  0
  2 26  1  0
  2 27  1  0
  6 28  1  0
  9 29  1  0
  9 30  1  0
 10 31  1  0
 12 32  1  0
 13 33  1  0
 13 34  1  0
 15 35  1  0
 16 36  1  0
 19 37  1  0
 20 38  1  0
 21 39  1  0
 22 40  1  0
M  END
$$$$
