
     RDKit          3D

 30 31  0  0  0  0  0  0  0  0999 V2000
   -5.0086   -1.4207   -1.0187 N   0  0  0  0  0  0  0  0  0  0  0  0
   -4.4185   -0.3974   -0.2027 C   0  0  0  0  0  0  0  0  0  0  0  0
   -5.0044    0.3740    0.6615 N   0  0  0  0  0  4  0  0  0  0  0  0
   -2.9885   -0.1090   -0.2783 C   0  0  0  0  0  0  0  0  0  0  0  0
   -2.4005    1.0937   -0.0558 C   0  0  0  0  0  0  0  0  0  0  0  0
   -1.0339    1.2577   -0.1541 C   0  0  0  0  0  0  0  0  0  0  0  0
   -0.1952    0.1878   -0.4882 C   0  0  0  0  0  0  0  0  0  0  0  0
    1.2913    0.3299   -0.6036 C   0  0  0  0  0  0  0  0  0  0  0  0
    1.8698    0.0761    0.6309 O   0  0  0  0  0  0  0  0  0  0  0  0
    3.3340    0.2065    0.5566 B   0  0  0  0  0  0  0  0  0  0  0  0
    4.1285   -0.7604   -0.2295 O   0  0  0  0  0  0  0  0  0  0  0  0
    5.4161   -0.3540    0.0384 C   0  0  0  0  0  0  0  0  0  0  0  0
    5.3756   -0.0660    1.5220 C   0  0  0  0  0  0  0  0  0  0  0  0
    4.1962    0.6825    1.6466 O   0  0  0  0  0  0  0  0  0  0  0  0
   -0.8243   -1.0243   -0.7087 C   0  0  0  0  0  0  0  0  0  0  0  0
   -2.1883   -1.1811   -0.6090 C   0  0  0  0  0  0  0  0  0  0  0  0
   -4.8768   -2.4516   -0.9908 H   0  0  0  0  0  0  0  0  0  0  0  0
   -5.6147   -0.8289   -1.6554 H   0  0  0  0  0  0  0  0  0  0  0  0
   -5.3607    1.0439    1.3751 H   0  0  0  0  0  0  0  0  0  0  0  0
   -5.8250    0.7494    1.2115 H   0  0  0  0  0  0  0  0  0  0  0  0
   -3.0442    1.9247    0.2029 H   0  0  0  0  0  0  0  0  0  0  0  0
   -0.5747    2.2255    0.0263 H   0  0  0  0  0  0  0  0  0  0  0  0
    1.5679    1.2865   -1.0521 H   0  0  0  0  0  0  0  0  0  0  0  0
    1.6063   -0.4977   -1.3040 H   0  0  0  0  0  0  0  0  0  0  0  0
    6.1526   -1.1056   -0.2484 H   0  0  0  0  0  0  0  0  0  0  0  0
    5.6115    0.6402   -0.4509 H   0  0  0  0  0  0  0  0  0  0  0  0
    6.2709    0.4880    1.8786 H   0  0  0  0  0  0  0  0  0  0  0  0
    5.3525   -1.0168    2.0725 H   0  0  0  0  0  0  0  0  0  0  0  0
   -0.2168   -1.8983   -0.9739 H   0  0  0  0  0  0  0  0  0  0  0  0
   -2.5982   -2.1686   -0.7989 H   0  0  0  0  0  0  0  0  0  0  0  0
  1  2  1  0
  2  3  2  0
  2  4  1  0
  4  5  2  0
  5  6  1  0
  6  7  2  0
  7  8  1  0
  8  9  1  0
  9 10  1  0
 10 11  1  0
 11 12  1  0
 12 13  1  0
 13 14  1  0
  7 15  1  0
 15 16  2  0
 16  4  1  0
 14 10  1  0
  1 17  1  0
  1 18  1  0
  3 19  1  0
  3 20  1  0
  5 21  1  0
  6 22  1  0
  8 23  1  0
  8 24  1  0
 12 25  1  0
 12 26  1  0
 13 27  1  0
 13 28  1  0
 15 29  1  0
 16 30  1  0
M  CHG  1   3   1
M  END
$$$$
