
     RDKit          3D

 55 58  0  0  0  0  0  0  0  0999 V2000
    5.5610    2.0572   -0.7504 C   0  0  0  0  0  0  0  0  0  0  0  0
    5.0038    0.9244   -0.1279 N   0  0  0  0  0  0  0  0  0  0  0  0
    3.7102    0.5084   -0.5061 C   0  0  0  0  0  0  0  0  0  0  0  0
    3.1719   -0.6852    0.2265 C   0  0  0  0  0  0  0  0  0  0  0  0
    1.9196   -1.1204   -0.1166 O   0  0  0  0  0  0  0  0  0  0  0  0
    0.6785   -0.5881   -0.0601 C   0  0  0  0  0  0  0  0  0  0  0  0
    0.3781    0.6552    0.4342 C   0  0  0  0  0  0  0  0  0  0  0  0
   -0.9195    1.1119    0.4523 C   0  0  0  0  0  0  0  0  0  0  0  0
   -1.9287    0.3084   -0.0316 C   0  0  0  0  0  0  0  0  0  0  0  0
   -3.3080    0.7731   -0.0247 C   0  0  0  0  0  0  0  0  0  0  0  0
   -4.1537    0.3349   -1.0126 C   0  0  0  0  0  0  0  0  0  0  0  0
   -5.4579    0.7477   -1.0482 C   0  0  0  0  0  0  0  0  0  0  0  0
   -5.9699    1.6231   -0.0871 C   0  0  0  0  0  0  0  0  0  0  0  0
   -5.1155    2.0513    0.8904 C   0  0  0  0  0  0  0  0  0  0  0  0
   -3.7810    1.6330    0.9324 C   0  0  0  0  0  0  0  0  0  0  0  0
   -5.8830    2.9697    1.7898 C   0  0  0  0  0  0  0  0  0  0  0  0
   -7.1850    3.1463    1.0742 C   0  0  0  0  0  0  0  0  0  0  0  0
   -7.2388    2.1706    0.0781 O   0  0  0  0  0  0  0  0  0  0  0  0
   -1.6084   -0.9422   -0.5253 C   0  0  0  0  0  0  0  0  0  0  0  0
   -0.3241   -1.4410   -0.5639 C   0  0  0  0  0  0  0  0  0  0  0  0
   -0.0501   -2.7380   -1.0883 C   0  0  0  0  0  0  0  0  0  0  0  0
    0.2323   -2.9528   -2.4359 C   0  0  0  0  0  0  0  0  0  0  0  0
    0.4931   -4.1880   -2.9436 C   0  0  0  0  0  0  0  0  0  0  0  0
    0.4858   -5.2919   -2.1184 C   0  0  0  0  0  0  0  0  0  0  0  0
    0.2113   -5.1279   -0.7766 C   0  0  0  0  0  0  0  0  0  0  0  0
   -0.0507   -3.8616   -0.2851 C   0  0  0  0  0  0  0  0  0  0  0  0
   -0.3996   -3.6527    1.4322 Cl  0  0  0  0  0  0  0  0  0  0  0  0
    5.6592    0.3368    0.9614 C   0  0  0  0  0  0  0  0  0  0  0  0
    5.5915    1.2810    2.1352 C   0  0  0  0  0  0  0  0  0  0  0  0
    5.0201    2.3942    2.0645 O   0  0  0  0  0  0  0  0  0  0  0  0
    6.1728    0.9250    3.3399 O   0  0  0  0  0  0  0  0  0  0  0  0
    5.1171    2.1762   -1.7815 H   0  0  0  0  0  0  0  0  0  0  0  0
    5.2154    2.9873   -0.2095 H   0  0  0  0  0  0  0  0  0  0  0  0
    6.6624    2.0487   -0.8470 H   0  0  0  0  0  0  0  0  0  0  0  0
    3.0157    1.3500   -0.4890 H   0  0  0  0  0  0  0  0  0  0  0  0
    3.7944    0.2352   -1.6155 H   0  0  0  0  0  0  0  0  0  0  0  0
    3.2264   -0.5310    1.3466 H   0  0  0  0  0  0  0  0  0  0  0  0
    3.8914   -1.5370    0.0363 H   0  0  0  0  0  0  0  0  0  0  0  0
    1.1467    1.3036    0.8346 H   0  0  0  0  0  0  0  0  0  0  0  0
   -1.1584    2.0897    0.8399 H   0  0  0  0  0  0  0  0  0  0  0  0
   -3.8040   -0.3588   -1.8009 H   0  0  0  0  0  0  0  0  0  0  0  0
   -6.1455    0.4096   -1.8257 H   0  0  0  0  0  0  0  0  0  0  0  0
   -3.1353    2.0105    1.7424 H   0  0  0  0  0  0  0  0  0  0  0  0
   -6.0721    2.4268    2.7245 H   0  0  0  0  0  0  0  0  0  0  0  0
   -5.3222    3.9183    1.9209 H   0  0  0  0  0  0  0  0  0  0  0  0
   -7.2293    4.1877    0.6929 H   0  0  0  0  0  0  0  0  0  0  0  0
   -8.0642    2.9999    1.7392 H   0  0  0  0  0  0  0  0  0  0  0  0
   -2.4341   -1.5676   -0.9055 H   0  0  0  0  0  0  0  0  0  0  0  0
    0.2327   -2.0909   -3.0483 H   0  0  0  0  0  0  0  0  0  0  0  0
    0.7124   -4.3463   -4.0036 H   0  0  0  0  0  0  0  0  0  0  0  0
    0.6960   -6.2713   -2.5507 H   0  0  0  0  0  0  0  0  0  0  0  0
    0.2146   -6.0143   -0.1614 H   0  0  0  0  0  0  0  0  0  0  0  0
    6.7674    0.2042    0.8032 H   0  0  0  0  0  0  0  0  0  0  0  0
    5.2191   -0.6161    1.2671 H   0  0  0  0  0  0  0  0  0  0  0  0
    6.5384    1.6234    3.9824 H   0  0  0  0  0  0  0  0  0  0  0  0
  1  2  1  0
  2  3  1  0
  3  4  1  0
  4  5  1  0
  5  6  1  0
  6  7  2  0
  7  8  1  0
  8  9  2  0
  9 10  1  0
 10 11  2  0
 11 12  1  0
 12 13  2  0
 13 14  1  0
 14 15  2  0
 14 16  1  0
 16 17  1  0
 17 18  1  0
  9 19  1  0
 19 20  2  0
 20 21  1  0
 21 22  2  0
 22 23  1  0
 23 24  2  0
 24 25  1  0
 25 26  2  0
 26 27  1  0
  2 28  1  0
 28 29  1  0
 29 30  2  0
 29 31  1  0
 20  6  1  0
 26 21  1  0
 15 10  1  0
 18 13  1  0
  1 32  1  0
  1 33  1  0
  1 34  1  0
  3 35  1  0
  3 36  1  0
  4 37  1  0
  4 38  1  0
  7 39  1  0
  8 40  1  0
 11 41  1  0
 12 42  1  0
 15 43  1  0
 16 44  1  0
 16 45  1  0
 17 46  1  0
 17 47  1  0
 19 48  1  0
 22 49  1  0
 23 50  1  0
 24 51  1  0
 25 52  1  0
 28 53  1  0
 28 54  1  0
 31 55  1  0
M  END
$$$$
