
     RDKit          3D

 55 58  0  0  0  0  0  0  0  0999 V2000
   -7.9847    0.5568   -0.3111 C   0  0  0  0  0  0  0  0  0  0  0  0
   -7.2340    1.1684    0.8788 C   0  0  0  0  0  0  0  0  0  0  0  0
   -6.6106    2.4771    0.4489 C   0  0  0  0  0  0  0  0  0  0  0  0
   -6.1027    0.2184    1.1753 C   0  0  0  0  0  0  0  0  0  0  0  0
   -5.1111   -0.1094    0.3290 N   0  0  0  0  0  0  0  0  0  0  0  0
   -4.2665   -0.9937    0.9345 C   0  0  0  0  0  0  0  0  0  0  0  0
   -3.1045   -1.5896    0.4086 N   0  0  0  0  0  0  0  0  0  0  0  0
   -2.3320   -2.4903    1.1897 C   0  0  0  0  0  0  0  0  0  0  0  0
   -0.8915   -2.5716    0.7710 C   0  0  0  0  0  0  0  0  0  0  0  0
   -0.4705   -1.4805   -0.0571 N   0  0  0  0  0  0  0  0  0  0  0  0
    0.9162   -1.1734   -0.0879 C   0  0  0  0  0  0  0  0  0  0  0  0
    1.4264   -0.1624   -0.8185 N   0  0  0  0  0  0  0  0  0  0  0  0
    2.7409    0.1240   -0.8427 C   0  0  0  0  0  0  0  0  0  0  0  0
    3.6400   -0.6196   -0.1060 C   0  0  0  0  0  0  0  0  0  0  0  0
    5.0059   -0.3688   -0.0932 O   0  0  0  0  0  0  0  0  0  0  0  0
    5.4587    0.7291   -0.9011 C   0  0  0  0  0  0  0  0  0  0  0  0
    6.9206    0.9005   -0.8091 C   0  0  0  0  0  0  0  0  0  0  0  0
    7.7529    0.4869   -1.8503 C   0  0  0  0  0  0  0  0  0  0  0  0
    9.1004    0.6841   -1.6826 C   0  0  0  0  0  0  0  0  0  0  0  0
    9.6236    1.2480   -0.5758 N   0  0  0  0  0  0  0  0  0  0  0  0
    8.8158    1.6448    0.4246 C   0  0  0  0  0  0  0  0  0  0  0  0
    7.4509    1.4735    0.3161 C   0  0  0  0  0  0  0  0  0  0  0  0
    6.5870    1.8838    1.3561 C   0  0  0  0  0  0  0  0  0  0  0  0
    5.8754    2.2433    2.2328 N   0  0  0  0  0  0  0  0  0  0  0  0
    3.1200   -1.6570    0.6442 C   0  0  0  0  0  0  0  0  0  0  0  0
    1.7952   -1.8945    0.6275 N   0  0  0  0  0  0  0  0  0  0  0  0
   -1.3372   -0.6538   -0.8720 C   0  0  2  0  0  0  0  0  0  0  0  0
   -1.4587    0.6831   -0.1702 C   0  0  0  0  0  0  0  0  0  0  0  0
   -2.6936   -1.2781   -0.9400 C   0  0  0  0  0  0  0  0  0  0  0  0
   -4.8061   -1.1682    2.1685 N   0  0  0  0  0  0  0  0  0  0  0  0
   -5.8801   -0.4451    2.2782 O   0  0  0  0  0  0  0  0  0  0  0  0
   -7.4390    0.7559   -1.2537 H   0  0  0  0  0  0  0  0  0  0  0  0
   -8.0545   -0.5448   -0.2018 H   0  0  0  0  0  0  0  0  0  0  0  0
   -9.0371    0.9228   -0.3310 H   0  0  0  0  0  0  0  0  0  0  0  0
   -7.8813    1.2487    1.7541 H   0  0  0  0  0  0  0  0  0  0  0  0
   -5.5111    2.4921    0.5965 H   0  0  0  0  0  0  0  0  0  0  0  0
   -6.8091    2.6724   -0.6216 H   0  0  0  0  0  0  0  0  0  0  0  0
   -7.0122    3.3468    1.0066 H   0  0  0  0  0  0  0  0  0  0  0  0
   -2.7763   -3.5192    1.0929 H   0  0  0  0  0  0  0  0  0  0  0  0
   -2.3994   -2.2538    2.2747 H   0  0  0  0  0  0  0  0  0  0  0  0
   -0.2449   -2.6309    1.6708 H   0  0  0  0  0  0  0  0  0  0  0  0
   -0.7046   -3.5147    0.1912 H   0  0  0  0  0  0  0  0  0  0  0  0
    3.1503    0.9423   -1.4344 H   0  0  0  0  0  0  0  0  0  0  0  0
    4.9362    1.6647   -0.6090 H   0  0  0  0  0  0  0  0  0  0  0  0
    5.2037    0.5641   -1.9773 H   0  0  0  0  0  0  0  0  0  0  0  0
    7.3079    0.0370   -2.7280 H   0  0  0  0  0  0  0  0  0  0  0  0
    9.7853    0.3690   -2.4850 H   0  0  0  0  0  0  0  0  0  0  0  0
    9.1881    2.1026    1.3326 H   0  0  0  0  0  0  0  0  0  0  0  0
    3.8189   -2.2504    1.2290 H   0  0  0  0  0  0  0  0  0  0  0  0
   -0.8611   -0.5384   -1.8750 H   0  0  0  0  0  0  0  0  0  0  0  0
   -2.5033    1.0751   -0.2525 H   0  0  0  0  0  0  0  0  0  0  0  0
   -0.7651    1.4317   -0.6059 H   0  0  0  0  0  0  0  0  0  0  0  0
   -1.2544    0.5894    0.9203 H   0  0  0  0  0  0  0  0  0  0  0  0
   -3.4197   -0.5759   -1.4185 H   0  0  0  0  0  0  0  0  0  0  0  0
   -2.6633   -2.2523   -1.5065 H   0  0  0  0  0  0  0  0  0  0  0  0
  1  2  1  0
  2  3  1  0
  2  4  1  0
  4  5  2  0
  5  6  1  0
  6  7  1  0
  7  8  1  0
  8  9  1  0
  9 10  1  0
 10 11  1  0
 11 12  2  0
 12 13  1  0
 13 14  2  0
 14 15  1  0
 15 16  1  0
 16 17  1  0
 17 18  2  0
 18 19  1  0
 19 20  2  0
 20 21  1  0
 21 22  2  0
 22 23  1  0
 23 24  3  0
 14 25  1  0
 25 26  2  0
 10 27  1  0
 27 28  1  0
 27 29  1  0
  6 30  2  0
 30 31  1  0
 31  4  1  0
 29  7  1  0
 26 11  1  0
 22 17  1  0
  1 32  1  0
  1 33  1  0
  1 34  1  0
  2 35  1  0
  3 36  1  0
  3 37  1  0
  3 38  1  0
  8 39  1  0
  8 40  1  0
  9 41  1  0
  9 42  1  0
 13 43  1  0
 16 44  1  0
 16 45  1  0
 18 46  1  0
 19 47  1  0
 21 48  1  0
 25 49  1  0
 27 50  1  6
 28 51  1  0
 28 52  1  0
 28 53  1  0
 29 54  1  0
 29 55  1  0
M  END
$$$$
