
     RDKit          3D

 47 49  0  0  0  0  0  0  0  0999 V2000
    7.4144    0.3132   -1.3644 O   0  0  0  0  0  0  0  0  0  0  0  0
    6.4308    0.7270   -0.7201 C   0  0  0  0  0  0  0  0  0  0  0  0
    6.6214    1.7783    0.1590 O   0  0  0  0  0  0  0  0  0  0  0  0
    5.1072    0.0909   -0.9116 C   0  0  0  0  0  0  0  0  0  0  0  0
    4.1066    0.7260   -0.0666 N   0  0  0  0  0  0  0  0  0  0  0  0
    2.8332    0.0295   -0.3241 C   0  0  0  0  0  0  0  0  0  0  0  0
    1.7335    0.6105    0.5008 C   0  0  0  0  0  0  0  0  0  0  0  0
    0.4961    0.0582    0.3596 O   0  0  0  0  0  0  0  0  0  0  0  0
   -0.0692   -1.1406    0.5692 C   0  0  0  0  0  0  0  0  0  0  0  0
    0.6173   -2.2204    1.0669 C   0  0  0  0  0  0  0  0  0  0  0  0
   -0.0248   -3.4427    1.2655 C   0  0  0  0  0  0  0  0  0  0  0  0
   -1.3375   -3.5423    0.9581 C   0  0  0  0  0  0  0  0  0  0  0  0
   -2.1164   -5.0962    1.2203 Cl  0  0  0  0  0  0  0  0  0  0  0  0
   -2.0395   -2.4393    0.4499 C   0  0  0  0  0  0  0  0  0  0  0  0
   -1.4353   -1.2343    0.2468 C   0  0  0  0  0  0  0  0  0  0  0  0
   -2.1306   -0.0907   -0.2552 C   0  0  0  0  0  0  0  0  0  0  0  0
   -1.5909    0.6533   -1.4011 C   0  0  0  0  0  0  0  0  0  0  0  0
   -1.6493    2.1512   -1.2034 C   0  0  0  0  0  0  0  0  0  0  0  0
   -2.9525    2.6386   -0.6315 C   0  0  0  0  0  0  0  0  0  0  0  0
   -3.2949    1.9166    0.6401 C   0  0  0  0  0  0  0  0  0  0  0  0
   -2.2245    0.8983    0.9286 C   0  0  0  0  0  0  0  0  0  0  0  0
   -3.5045   -0.4053   -0.5692 N   0  0  0  0  0  0  0  0  0  0  0  0
   -4.1609   -1.6382   -0.3668 C   0  0  0  0  0  0  0  0  0  0  0  0
   -5.3986   -1.7844   -0.6537 O   0  0  0  0  0  0  0  0  0  0  0  0
   -3.4023   -2.7104    0.1655 N   0  0  0  0  0  0  0  0  0  0  0  0
    7.5537    2.1591    0.3147 H   0  0  0  0  0  0  0  0  0  0  0  0
    4.8145    0.1800   -1.9817 H   0  0  0  0  0  0  0  0  0  0  0  0
    5.1874   -0.9870   -0.7015 H   0  0  0  0  0  0  0  0  0  0  0  0
    3.9353    1.7102   -0.3407 H   0  0  0  0  0  0  0  0  0  0  0  0
    2.5502    0.1679   -1.3942 H   0  0  0  0  0  0  0  0  0  0  0  0
    3.0350   -1.0272   -0.1256 H   0  0  0  0  0  0  0  0  0  0  0  0
    2.0751    0.7086    1.5698 H   0  0  0  0  0  0  0  0  0  0  0  0
    1.6506    1.6987    0.1758 H   0  0  0  0  0  0  0  0  0  0  0  0
    1.6716   -2.1693    1.3352 H   0  0  0  0  0  0  0  0  0  0  0  0
    0.5323   -4.3010    1.6638 H   0  0  0  0  0  0  0  0  0  0  0  0
   -2.1781    0.4311   -2.3159 H   0  0  0  0  0  0  0  0  0  0  0  0
   -0.5440    0.4660   -1.6824 H   0  0  0  0  0  0  0  0  0  0  0  0
   -0.8182    2.4653   -0.5485 H   0  0  0  0  0  0  0  0  0  0  0  0
   -1.5432    2.6675   -2.2033 H   0  0  0  0  0  0  0  0  0  0  0  0
   -3.7515    2.6779   -1.3804 H   0  0  0  0  0  0  0  0  0  0  0  0
   -2.7653    3.7180   -0.3553 H   0  0  0  0  0  0  0  0  0  0  0  0
   -3.2929    2.6314    1.5224 H   0  0  0  0  0  0  0  0  0  0  0  0
   -4.3103    1.5316    0.6004 H   0  0  0  0  0  0  0  0  0  0  0  0
   -1.2748    1.3884    1.1186 H   0  0  0  0  0  0  0  0  0  0  0  0
   -2.5698    0.3179    1.8267 H   0  0  0  0  0  0  0  0  0  0  0  0
   -4.1370    0.3517   -1.0151 H   0  0  0  0  0  0  0  0  0  0  0  0
   -3.8496   -3.6333    0.3272 H   0  0  0  0  0  0  0  0  0  0  0  0
  1  2  2  0
  2  3  1  0
  2  4  1  0
  4  5  1  0
  5  6  1  0
  6  7  1  0
  7  8  1  0
  8  9  1  0
  9 10  2  0
 10 11  1  0
 11 12  2  0
 12 13  1  0
 12 14  1  0
 14 15  2  0
 15 16  1  0
 16 17  1  0
 17 18  1  0
 18 19  1  0
 19 20  1  0
 20 21  1  0
 16 22  1  0
 22 23  1  0
 23 24  2  0
 23 25  1  0
 15  9  1  0
 21 16  1  0
 25 14  1  0
  3 26  1  0
  4 27  1  0
  4 28  1  0
  5 29  1  0
  6 30  1  0
  6 31  1  0
  7 32  1  0
  7 33  1  0
 10 34  1  0
 11 35  1  0
 17 36  1  0
 17 37  1  0
 18 38  1  0
 18 39  1  0
 19 40  1  0
 19 41  1  0
 20 42  1  0
 20 43  1  0
 21 44  1  0
 21 45  1  0
 22 46  1  0
 25 47  1  0
M  END
$$$$
