
     RDKit          3D

 90 91  0  0  0  0  0  0  0  0999 V2000
    9.5498    1.7786    1.7420 C   0  0  0  0  0  0  0  0  0  0  0  0
    8.1809    1.2651    2.0354 C   0  0  0  0  0  0  0  0  0  0  0  0
    7.2779    1.3421    0.8033 C   0  0  2  0  0  0  0  0  0  0  0  0
    5.9572    0.8254    1.1150 N   0  0  0  0  0  0  0  0  0  0  0  0
    4.8115    1.5973    1.3767 C   0  0  0  0  0  0  0  0  0  0  0  0
    4.8987    2.8529    1.3571 O   0  0  0  0  0  0  0  0  0  0  0  0
    3.5666    0.9255    1.6636 N   0  0  0  0  0  0  0  0  0  0  0  0
    3.1951   -0.4390    1.6743 C   0  0  0  0  0  0  0  0  0  0  0  0
    3.6174   -1.5155    1.2014 O   0  0  0  0  0  0  0  0  0  0  0  0
    2.0290   -0.1020    2.5184 C   0  0  0  0  0  0  0  0  0  0  0  0
    2.2076    1.2723    2.0127 C   0  0  0  0  0  0  0  0  0  0  0  0
    1.1531    1.9277    0.7504 S   0  0  0  0  0  0  0  0  0  0  0  0
    0.8833    0.9538   -0.6956 C   0  0  0  0  0  0  0  0  0  0  0  0
    0.2122   -0.3549   -0.5568 C   0  0  2  0  0  0  0  0  0  0  0  0
    0.0978   -0.9854   -1.9621 C   0  0  0  0  0  0  0  0  0  0  0  0
   -0.5062   -2.3389   -1.9224 C   0  0  0  0  0  0  0  0  0  0  0  0
    0.3156   -3.3087   -1.0762 C   0  0  0  0  0  0  0  0  0  0  0  0
   -0.5129   -2.8606   -3.3640 C   0  0  0  0  0  0  0  0  0  0  0  0
   -1.0421   -0.3351    0.1364 N   0  0  0  0  0  0  0  0  0  0  0  0
   -2.3296   -0.1577   -0.4095 C   0  0  0  0  0  0  0  0  0  0  0  0
   -2.3724    0.0529   -1.6792 O   0  0  0  0  0  0  0  0  0  0  0  0
   -3.5798   -0.2001    0.3685 C   0  0  1  0  0  0  0  0  0  0  0  0
   -4.7173    0.2365   -0.4486 N   0  0  0  0  0  0  0  0  0  0  0  0
   -5.7318    1.0807    0.0640 C   0  0  0  0  0  0  0  0  0  0  0  0
   -5.6776    1.4869    1.2676 O   0  0  0  0  0  0  0  0  0  0  0  0
   -6.8887    1.5165   -0.7714 C   0  0  0  0  0  0  0  0  0  0  0  0
   -7.9539    2.1575    0.1116 C   0  0  0  0  0  0  0  0  0  0  0  0
   -8.4306    1.1274    1.1466 C   0  0  0  0  0  0  0  0  0  0  0  0
   -9.1476    2.5070   -0.7398 C   0  0  0  0  0  0  0  0  0  0  0  0
   -7.4845    3.3828    0.8246 C   0  0  0  0  0  0  0  0  0  0  0  0
   -3.9026   -1.5597    0.9534 C   0  0  0  0  0  0  0  0  0  0  0  0
   -2.8635   -2.0624    1.9060 C   0  0  0  0  0  0  0  0  0  0  0  0
   -4.0425   -2.5892   -0.1667 C   0  0  0  0  0  0  0  0  0  0  0  0
   -5.2129   -1.5340    1.7187 C   0  0  0  0  0  0  0  0  0  0  0  0
    7.8907    0.6551   -0.3402 C   0  0  0  0  0  0  0  0  0  0  0  0
    7.8389   -0.7196   -0.3989 C   0  0  0  0  0  0  0  0  0  0  0  0
    8.4090   -1.4148   -1.4451 C   0  0  0  0  0  0  0  0  0  0  0  0
    9.0259   -0.6888   -2.4190 C   0  0  0  0  0  0  0  0  0  0  0  0
    9.1025    0.6906   -2.4028 C   0  0  0  0  0  0  0  0  0  0  0  0
    8.5129    1.3519   -1.3275 C   0  0  0  0  0  0  0  0  0  0  0  0
    9.5405    2.4854    0.8650 H   0  0  0  0  0  0  0  0  0  0  0  0
   10.2925    0.9703    1.5803 H   0  0  0  0  0  0  0  0  0  0  0  0
    9.9253    2.3692    2.6072 H   0  0  0  0  0  0  0  0  0  0  0  0
    8.1601    0.2236    2.3873 H   0  0  0  0  0  0  0  0  0  0  0  0
    7.7450    1.8978    2.8614 H   0  0  0  0  0  0  0  0  0  0  0  0
    7.2069    2.4230    0.5866 H   0  0  0  0  0  0  0  0  0  0  0  0
    5.8374   -0.2363    1.1562 H   0  0  0  0  0  0  0  0  0  0  0  0
    2.2971   -0.2132    3.6089 H   0  0  0  0  0  0  0  0  0  0  0  0
    1.1123   -0.6619    2.2662 H   0  0  0  0  0  0  0  0  0  0  0  0
    2.1885    1.9830    2.9171 H   0  0  0  0  0  0  0  0  0  0  0  0
    0.2362    1.5837   -1.4003 H   0  0  0  0  0  0  0  0  0  0  0  0
    1.8269    0.8421   -1.3335 H   0  0  0  0  0  0  0  0  0  0  0  0
    0.8977   -1.0904   -0.0444 H   0  0  0  0  0  0  0  0  0  0  0  0
   -0.3263   -0.3015   -2.6944 H   0  0  0  0  0  0  0  0  0  0  0  0
    1.1801   -1.1290   -2.2653 H   0  0  0  0  0  0  0  0  0  0  0  0
   -1.5129   -2.3815   -1.5109 H   0  0  0  0  0  0  0  0  0  0  0  0
    0.0381   -4.3628   -1.3136 H   0  0  0  0  0  0  0  0  0  0  0  0
    0.1271   -3.1741    0.0049 H   0  0  0  0  0  0  0  0  0  0  0  0
    1.3787   -3.0855   -1.2571 H   0  0  0  0  0  0  0  0  0  0  0  0
   -0.7798   -2.0068   -4.0074 H   0  0  0  0  0  0  0  0  0  0  0  0
    0.4934   -3.2196   -3.6582 H   0  0  0  0  0  0  0  0  0  0  0  0
   -1.2373   -3.7156   -3.4425 H   0  0  0  0  0  0  0  0  0  0  0  0
   -0.9736   -0.4444    1.1988 H   0  0  0  0  0  0  0  0  0  0  0  0
   -3.5168    0.4843    1.2220 H   0  0  0  0  0  0  0  0  0  0  0  0
   -4.7948   -0.0749   -1.4414 H   0  0  0  0  0  0  0  0  0  0  0  0
   -6.5968    2.2929   -1.5032 H   0  0  0  0  0  0  0  0  0  0  0  0
   -7.3715    0.6964   -1.3213 H   0  0  0  0  0  0  0  0  0  0  0  0
   -9.5299    1.0439    1.0924 H   0  0  0  0  0  0  0  0  0  0  0  0
   -8.1439    1.3951    2.1664 H   0  0  0  0  0  0  0  0  0  0  0  0
   -8.0472    0.1234    0.8208 H   0  0  0  0  0  0  0  0  0  0  0  0
   -9.3345    1.7276   -1.5103 H   0  0  0  0  0  0  0  0  0  0  0  0
  -10.0444    2.4477   -0.0499 H   0  0  0  0  0  0  0  0  0  0  0  0
   -9.1604    3.5198   -1.1361 H   0  0  0  0  0  0  0  0  0  0  0  0
   -7.6399    3.2588    1.9380 H   0  0  0  0  0  0  0  0  0  0  0  0
   -8.0898    4.2965    0.5708 H   0  0  0  0  0  0  0  0  0  0  0  0
   -6.4268    3.6626    0.6073 H   0  0  0  0  0  0  0  0  0  0  0  0
   -2.5318   -1.2893    2.6297 H   0  0  0  0  0  0  0  0  0  0  0  0
   -3.2923   -2.9347    2.4922 H   0  0  0  0  0  0  0  0  0  0  0  0
   -2.0317   -2.5036    1.3356 H   0  0  0  0  0  0  0  0  0  0  0  0
   -3.2476   -3.3876   -0.0580 H   0  0  0  0  0  0  0  0  0  0  0  0
   -3.8766   -2.1523   -1.1717 H   0  0  0  0  0  0  0  0  0  0  0  0
   -4.9991   -3.1472   -0.0910 H   0  0  0  0  0  0  0  0  0  0  0  0
   -6.0585   -1.1852    1.0969 H   0  0  0  0  0  0  0  0  0  0  0  0
   -5.4952   -2.5815    2.0348 H   0  0  0  0  0  0  0  0  0  0  0  0
   -5.1429   -0.8625    2.5947 H   0  0  0  0  0  0  0  0  0  0  0  0
    7.3531   -1.3143    0.3712 H   0  0  0  0  0  0  0  0  0  0  0  0
    8.3532   -2.4823   -1.4636 H   0  0  0  0  0  0  0  0  0  0  0  0
    9.4772   -1.2589   -3.2463 H   0  0  0  0  0  0  0  0  0  0  0  0
    9.5992    1.2218   -3.1962 H   0  0  0  0  0  0  0  0  0  0  0  0
    8.5991    2.4282   -1.3603 H   0  0  0  0  0  0  0  0  0  0  0  0
  1  2  1  0
  2  3  1  0
  3  4  1  0
  4  5  1  0
  5  6  2  0
  5  7  1  0
  7  8  1  0
  8  9  2  0
  8 10  1  0
 10 11  1  0
 11 12  1  0
 12 13  1  0
 13 14  1  0
 14 15  1  0
 15 16  1  0
 16 17  1  0
 16 18  1  0
 14 19  1  0
 19 20  1  0
 20 21  2  0
 20 22  1  0
 22 23  1  0
 23 24  1  0
 24 25  2  0
 24 26  1  0
 26 27  1  0
 27 28  1  0
 27 29  1  0
 27 30  1  0
 22 31  1  0
 31 32  1  0
 31 33  1  0
 31 34  1  0
  3 35  1  0
 35 36  2  0
 36 37  1  0
 37 38  2  0
 38 39  1  0
 39 40  2  0
 11  7  1  0
 40 35  1  0
  1 41  1  0
  1 42  1  0
  1 43  1  0
  2 44  1  0
  2 45  1  0
  3 46  1  6
  4 47  1  0
 10 48  1  0
 10 49  1  0
 11 50  1  0
 13 51  1  0
 13 52  1  0
 14 53  1  1
 15 54  1  0
 15 55  1  0
 16 56  1  0
 17 57  1  0
 17 58  1  0
 17 59  1  0
 18 60  1  0
 18 61  1  0
 18 62  1  0
 19 63  1  0
 22 64  1  1
 23 65  1  0
 26 66  1  0
 26 67  1  0
 28 68  1  0
 28 69  1  0
 28 70  1  0
 29 71  1  0
 29 72  1  0
 29 73  1  0
 30 74  1  0
 30 75  1  0
 30 76  1  0
 32 77  1  0
 32 78  1  0
 32 79  1  0
 33 80  1  0
 33 81  1  0
 33 82  1  0
 34 83  1  0
 34 84  1  0
 34 85  1  0
 36 86  1  0
 37 87  1  0
 38 88  1  0
 39 89  1  0
 40 90  1  0
M  END
$$$$
