
     RDKit          3D

 50 52  0  0  0  0  0  0  0  0999 V2000
    0.6928    0.0000    0.0000 Cl  0  0  0  0  0  0  0  0  0  0  0  0
   -8.3325    1.1927    1.2263 N   0  0  0  0  0  0  0  0  0  0  0  0
   -7.4632    0.5453    0.2925 C   0  0  2  0  0  0  0  0  0  0  0  0
   -7.7469   -0.7923   -0.2594 C   0  0  0  0  0  0  0  0  0  0  0  0
   -6.7761   -0.7205    0.8573 C   0  0  1  0  0  0  0  0  0  0  0  0
   -5.3204   -0.7596    0.6051 C   0  0  0  0  0  0  0  0  0  0  0  0
   -4.4568   -1.2472    1.5638 C   0  0  0  0  0  0  0  0  0  0  0  0
   -3.0818   -1.2933    1.3472 C   0  0  0  0  0  0  0  0  0  0  0  0
   -2.5393   -0.8491    0.1581 C   0  0  0  0  0  0  0  0  0  0  0  0
   -1.1263   -0.9140   -0.0226 N   0  0  0  0  0  0  0  0  0  0  0  0
   -0.3326    0.1868    0.3646 C   0  0  0  0  0  0  0  0  0  0  0  0
   -0.9195    1.1939    0.8610 O   0  0  0  0  0  0  0  0  0  0  0  0
    1.1247    0.1824    0.2051 C   0  0  0  0  0  0  0  0  0  0  0  0
    1.8465    1.2884    0.6024 C   0  0  0  0  0  0  0  0  0  0  0  0
    3.2140    1.3349    0.4745 C   0  0  0  0  0  0  0  0  0  0  0  0
    3.9328    0.2729   -0.0599 C   0  0  0  0  0  0  0  0  0  0  0  0
    5.3251    0.3008   -0.2015 N   0  0  0  0  0  0  0  0  0  0  0  0
    6.0311   -0.8572   -0.6978 C   0  0  0  0  0  0  0  0  0  0  0  0
    7.4706   -0.7246   -0.1819 C   0  0  0  0  0  0  0  0  0  0  0  0
    8.0221    0.3557   -0.8198 O   0  0  0  0  0  0  0  0  0  0  0  0
    7.4180    1.5584   -0.5728 C   0  0  0  0  0  0  0  0  0  0  0  0
    6.0925    1.4757    0.1375 C   0  0  0  0  0  0  0  0  0  0  0  0
    3.1790   -0.8144   -0.4458 C   0  0  0  0  0  0  0  0  0  0  0  0
    1.8008   -0.8832   -0.3262 C   0  0  0  0  0  0  0  0  0  0  0  0
   -3.3907   -0.3641   -0.7973 C   0  0  0  0  0  0  0  0  0  0  0  0
   -4.7399   -0.3260   -0.5679 C   0  0  0  0  0  0  0  0  0  0  0  0
   -0.6928    0.0000    0.0000 H   0  0  0  0  0  0  0  0  0  0  0  0
   -9.2229    1.5246    0.8464 H   0  0  0  0  0  0  0  0  0  0  0  0
   -7.8091    1.9024    1.7857 H   0  0  0  0  0  0  0  0  0  0  0  0
   -6.8581    1.2137   -0.3368 H   0  0  0  0  0  0  0  0  0  0  0  0
   -8.7513   -1.2069   -0.0539 H   0  0  0  0  0  0  0  0  0  0  0  0
   -7.3945   -1.0338   -1.2971 H   0  0  0  0  0  0  0  0  0  0  0  0
   -7.1170   -1.0904    1.8218 H   0  0  0  0  0  0  0  0  0  0  0  0
   -4.8397   -1.6032    2.5044 H   0  0  0  0  0  0  0  0  0  0  0  0
   -2.4271   -1.6826    2.1208 H   0  0  0  0  0  0  0  0  0  0  0  0
   -0.7414   -1.7681   -0.4314 H   0  0  0  0  0  0  0  0  0  0  0  0
    1.3528    2.1657    1.0330 H   0  0  0  0  0  0  0  0  0  0  0  0
    3.7546    2.2138    0.7950 H   0  0  0  0  0  0  0  0  0  0  0  0
    5.6028   -1.8186   -0.3429 H   0  0  0  0  0  0  0  0  0  0  0  0
    6.0911   -0.8481   -1.8065 H   0  0  0  0  0  0  0  0  0  0  0  0
    7.4040   -0.5036    0.8921 H   0  0  0  0  0  0  0  0  0  0  0  0
    8.0629   -1.6176   -0.4225 H   0  0  0  0  0  0  0  0  0  0  0  0
    8.1054    2.1663    0.0502 H   0  0  0  0  0  0  0  0  0  0  0  0
    7.3253    2.1376   -1.5377 H   0  0  0  0  0  0  0  0  0  0  0  0
    6.2737    1.5769    1.2153 H   0  0  0  0  0  0  0  0  0  0  0  0
    5.4893    2.3522   -0.2447 H   0  0  0  0  0  0  0  0  0  0  0  0
    3.6505   -1.7014   -0.8791 H   0  0  0  0  0  0  0  0  0  0  0  0
    1.2504   -1.7687   -0.6473 H   0  0  0  0  0  0  0  0  0  0  0  0
   -2.9956   -0.0133   -1.7285 H   0  0  0  0  0  0  0  0  0  0  0  0
   -5.4372    0.0606   -1.3250 H   0  0  0  0  0  0  0  0  0  0  0  0
  2  3  1  0
  3  4  1  0
  4  5  1  0
  5  6  1  0
  6  7  2  0
  7  8  1  0
  8  9  2  0
  9 10  1  0
 10 11  1  0
 11 12  2  0
 11 13  1  0
 13 14  2  0
 14 15  1  0
 15 16  2  0
 16 17  1  0
 17 18  1  0
 18 19  1  0
 19 20  1  0
 20 21  1  0
 21 22  1  0
 16 23  1  0
 23 24  2  0
  9 25  1  0
 25 26  2  0
  5  3  1  0
 26  6  1  0
 24 13  1  0
 22 17  1  0
  1 27  1  0
  2 28  1  0
  2 29  1  0
  3 30  1  6
  4 31  1  0
  4 32  1  0
  5 33  1  1
  7 34  1  0
  8 35  1  0
 10 36  1  0
 14 37  1  0
 15 38  1  0
 18 39  1  0
 18 40  1  0
 19 41  1  0
 19 42  1  0
 21 43  1  0
 21 44  1  0
 22 45  1  0
 22 46  1  0
 23 47  1  0
 24 48  1  0
 25 49  1  0
 26 50  1  0
M  END
$$$$
