
     RDKit          3D

 66 69  0  0  0  0  0  0  0  0999 V2000
   -8.4378    0.9484   -4.1127 C   0  0  0  0  0  0  0  0  0  0  0  0
   -8.7559    1.3183   -2.7582 O   0  0  0  0  0  0  0  0  0  0  0  0
   -8.7741    0.2874   -1.8430 C   0  0  0  0  0  0  0  0  0  0  0  0
  -10.0107   -0.3589   -1.7091 C   0  0  0  0  0  0  0  0  0  0  0  0
  -11.5358    0.1669   -2.7223 Br  0  0  0  0  0  0  0  0  0  0  0  0
  -10.1169   -1.3971   -0.8221 C   0  0  0  0  0  0  0  0  0  0  0  0
   -9.0432   -1.8058   -0.0743 C   0  0  0  0  0  0  0  0  0  0  0  0
   -7.8142   -1.1753   -0.1963 C   0  0  0  0  0  0  0  0  0  0  0  0
   -6.6544   -1.3587    0.3810 O   0  0  0  0  0  0  0  0  0  0  0  0
   -5.7585   -0.4805   -0.0801 C   0  0  0  0  0  0  0  0  0  0  0  0
   -4.3718   -0.4289    0.3691 C   0  0  0  0  0  0  0  0  0  0  0  0
   -4.1292   -1.0719    1.4340 O   0  0  0  0  0  0  0  0  0  0  0  0
   -3.3431    0.2569   -0.2835 N   0  0  0  0  0  0  0  0  0  0  0  0
   -1.9916    0.3175    0.1545 C   0  0  0  0  0  0  0  0  0  0  0  0
   -1.0698    1.0524   -0.6057 C   0  0  0  0  0  0  0  0  0  0  0  0
    0.2413    1.1397   -0.2242 C   0  0  0  0  0  0  0  0  0  0  0  0
    0.7251    0.5240    0.9062 C   0  0  0  0  0  0  0  0  0  0  0  0
    2.1148    0.6049    1.3306 C   0  0  0  0  0  0  0  0  0  0  0  0
    2.7381   -0.4316    2.0191 C   0  0  0  0  0  0  0  0  0  0  0  0
    4.0567   -0.3361    2.4140 C   0  0  0  0  0  0  0  0  0  0  0  0
    4.7911    0.7963    2.1332 C   0  0  0  0  0  0  0  0  0  0  0  0
    6.4522    0.9994    2.5957 S   0  0  0  0  0  6  0  0  0  0  0  0
    6.6859    2.4980    2.7578 O   0  0  0  0  0  0  0  0  0  0  0  0
    6.7364    0.4205    3.9524 O   0  0  0  0  0  0  0  0  0  0  0  0
    7.5158    0.4641    1.3983 N   0  0  0  0  0  0  0  0  0  0  0  0
    7.4639   -0.9079    1.0336 C   0  0  2  0  0  0  0  0  0  0  0  0
    8.7019   -1.6554    1.4066 C   0  0  0  0  0  0  0  0  0  0  0  0
    9.6640   -1.0897    1.9813 O   0  0  0  0  0  0  0  0  0  0  0  0
    8.8552   -3.0066    1.1401 O   0  0  0  0  0  0  0  0  0  0  0  0
    7.1393   -1.0520   -0.4145 C   0  0  0  0  0  0  0  0  0  0  0  0
    8.1616   -0.3899   -1.3147 C   0  0  0  0  0  0  0  0  0  0  0  0
    5.7969   -0.4525   -0.7693 C   0  0  0  0  0  0  0  0  0  0  0  0
    4.1617    1.8128    1.4519 C   0  0  0  0  0  0  0  0  0  0  0  0
    2.8461    1.7294    1.0525 C   0  0  0  0  0  0  0  0  0  0  0  0
   -0.1660   -0.1933    1.6517 C   0  0  0  0  0  0  0  0  0  0  0  0
   -1.5035   -0.2869    1.2692 C   0  0  0  0  0  0  0  0  0  0  0  0
   -6.3898    0.3096   -1.0053 C   0  0  0  0  0  0  0  0  0  0  0  0
   -5.8672    1.4568   -1.7752 C   0  0  0  0  0  0  0  0  0  0  0  0
   -7.7163   -0.1310   -1.0910 C   0  0  0  0  0  0  0  0  0  0  0  0
   -7.3873    0.5982   -4.0878 H   0  0  0  0  0  0  0  0  0  0  0  0
   -8.5517    1.8366   -4.7638 H   0  0  0  0  0  0  0  0  0  0  0  0
   -9.1015    0.1129   -4.4449 H   0  0  0  0  0  0  0  0  0  0  0  0
  -11.0751   -1.9171   -0.7012 H   0  0  0  0  0  0  0  0  0  0  0  0
   -9.1317   -2.6373    0.6345 H   0  0  0  0  0  0  0  0  0  0  0  0
   -3.5549    0.7739   -1.2070 H   0  0  0  0  0  0  0  0  0  0  0  0
   -1.4209    1.5602   -1.5187 H   0  0  0  0  0  0  0  0  0  0  0  0
    0.9407    1.7216   -0.8382 H   0  0  0  0  0  0  0  0  0  0  0  0
    2.1372   -1.3146    2.2286 H   0  0  0  0  0  0  0  0  0  0  0  0
    4.5435   -1.1466    2.9521 H   0  0  0  0  0  0  0  0  0  0  0  0
    8.4599    0.8481    1.5725 H   0  0  0  0  0  0  0  0  0  0  0  0
    6.6504   -1.3863    1.6242 H   0  0  0  0  0  0  0  0  0  0  0  0
    9.6097   -3.5746    1.5392 H   0  0  0  0  0  0  0  0  0  0  0  0
    7.0919   -2.1231   -0.7444 H   0  0  0  0  0  0  0  0  0  0  0  0
    9.1277   -0.9118   -1.1943 H   0  0  0  0  0  0  0  0  0  0  0  0
    8.2259    0.6985   -1.1711 H   0  0  0  0  0  0  0  0  0  0  0  0
    7.8308   -0.5628   -2.3616 H   0  0  0  0  0  0  0  0  0  0  0  0
    5.8300    0.6557   -0.5980 H   0  0  0  0  0  0  0  0  0  0  0  0
    4.9564   -0.9485   -0.2587 H   0  0  0  0  0  0  0  0  0  0  0  0
    5.6126   -0.5371   -1.8806 H   0  0  0  0  0  0  0  0  0  0  0  0
    4.7031    2.7369    1.2037 H   0  0  0  0  0  0  0  0  0  0  0  0
    2.4093    2.5659    0.5189 H   0  0  0  0  0  0  0  0  0  0  0  0
    0.1792   -0.6956    2.5544 H   0  0  0  0  0  0  0  0  0  0  0  0
   -2.1198   -0.8823    1.9361 H   0  0  0  0  0  0  0  0  0  0  0  0
   -5.3241    1.1765   -2.6799 H   0  0  0  0  0  0  0  0  0  0  0  0
   -5.3061    2.1785   -1.1165 H   0  0  0  0  0  0  0  0  0  0  0  0
   -6.7337    2.0807   -2.1297 H   0  0  0  0  0  0  0  0  0  0  0  0
  1  2  1  0
  2  3  1  0
  3  4  2  0
  4  5  1  0
  4  6  1  0
  6  7  2  0
  7  8  1  0
  8  9  1  0
  9 10  1  0
 10 11  1  0
 11 12  2  0
 11 13  1  0
 13 14  1  0
 14 15  2  0
 15 16  1  0
 16 17  2  0
 17 18  1  0
 18 19  2  0
 19 20  1  0
 20 21  2  0
 21 22  1  0
 22 23  2  0
 22 24  2  0
 22 25  1  0
 25 26  1  0
 26 27  1  0
 27 28  2  0
 27 29  1  0
 26 30  1  0
 30 31  1  0
 30 32  1  0
 21 33  1  0
 33 34  2  0
 17 35  1  0
 35 36  2  0
 10 37  2  0
 37 38  1  0
 37 39  1  0
 39  3  1  0
 39  8  2  0
 36 14  1  0
 34 18  1  0
  1 40  1  0
  1 41  1  0
  1 42  1  0
  6 43  1  0
  7 44  1  0
 13 45  1  0
 15 46  1  0
 16 47  1  0
 19 48  1  0
 20 49  1  0
 25 50  1  0
 26 51  1  1
 29 52  1  0
 30 53  1  0
 31 54  1  0
 31 55  1  0
 31 56  1  0
 32 57  1  0
 32 58  1  0
 32 59  1  0
 33 60  1  0
 34 61  1  0
 35 62  1  0
 36 63  1  0
 38 64  1  0
 38 65  1  0
 38 66  1  0
M  END
$$$$
