
     RDKit          3D

 25 27  0  0  0  0  0  0  0  0999 V2000
    3.8613    1.9523    1.8479 O   0  0  0  0  0  0  0  0  0  0  0  0
    3.6923    0.8896    1.1520 C   0  0  0  0  0  0  0  0  0  0  0  0
    4.7294    0.0349    0.8270 N   0  0  0  0  0  0  0  0  0  0  0  0
    4.5071   -0.9918    0.1431 C   0  0  0  0  0  0  0  0  0  0  0  0
    5.4452   -1.9322   -0.2544 O   0  0  0  0  0  0  0  0  0  0  0  0
    2.7567   -1.0107   -0.2192 S   0  0  0  0  0  0  0  0  0  0  0  0
    2.3902    0.5047    0.6514 C   0  0  0  0  0  0  0  0  0  0  0  0
    1.2596    1.1247    0.8103 C   0  0  0  0  0  0  0  0  0  0  0  0
    0.0153    0.6089    0.2400 C   0  0  0  0  0  0  0  0  0  0  0  0
   -0.0442    0.0272   -0.9839 C   0  0  0  0  0  0  0  0  0  0  0  0
   -1.2554   -0.4526   -1.4843 C   0  0  0  0  0  0  0  0  0  0  0  0
   -2.3912   -0.3297   -0.7246 C   0  0  0  0  0  0  0  0  0  0  0  0
   -3.5994   -0.7757   -1.1497 N   0  0  0  0  0  0  0  0  0  0  0  0
   -4.6990   -0.6493   -0.3939 C   0  0  0  0  0  0  0  0  0  0  0  0
   -4.6334   -0.0579    0.8481 C   0  0  0  0  0  0  0  0  0  0  0  0
   -3.4482    0.3926    1.2941 N   0  0  0  0  0  0  0  0  0  0  0  0
   -2.3529    0.2574    0.5211 C   0  0  0  0  0  0  0  0  0  0  0  0
   -1.1316    0.7335    1.0103 C   0  0  0  0  0  0  0  0  0  0  0  0
    6.4061   -1.5933   -0.3155 H   0  0  0  0  0  0  0  0  0  0  0  0
    1.2609    2.0543    1.3887 H   0  0  0  0  0  0  0  0  0  0  0  0
    0.8374   -0.0738   -1.5967 H   0  0  0  0  0  0  0  0  0  0  0  0
   -1.3331   -0.9277   -2.4559 H   0  0  0  0  0  0  0  0  0  0  0  0
   -5.6340   -1.0190   -0.7755 H   0  0  0  0  0  0  0  0  0  0  0  0
   -5.5376    0.0459    1.4743 H   0  0  0  0  0  0  0  0  0  0  0  0
   -1.1015    1.1878    1.9782 H   0  0  0  0  0  0  0  0  0  0  0  0
  1  2  2  0
  2  3  1  0
  3  4  2  0
  4  5  1  0
  4  6  1  0
  6  7  1  0
  7  8  2  3
  8  9  1  0
  9 10  2  0
 10 11  1  0
 11 12  2  0
 12 13  1  0
 13 14  2  0
 14 15  1  0
 15 16  2  0
 16 17  1  0
 17 18  2  0
  7  2  1  0
 18  9  1  0
 17 12  1  0
  5 19  1  0
  8 20  1  0
 10 21  1  0
 11 22  1  0
 14 23  1  0
 15 24  1  0
 18 25  1  0
M  END
$$$$
