
     RDKit          3D

 72 74  0  0  0  0  0  0  0  0999 V2000
    9.1797   -1.4519   -0.8269 C   0  0  0  0  0  0  0  0  0  0  0  0
    7.9281   -1.2824   -0.0272 C   0  0  0  0  0  0  0  0  0  0  0  0
    6.9737   -0.3587   -0.3959 C   0  0  0  0  0  0  0  0  0  0  0  0
    5.8138   -0.2017    0.3453 C   0  0  0  0  0  0  0  0  0  0  0  0
    4.7657    0.7946   -0.0379 C   0  0  0  0  0  0  0  0  0  0  0  0
    3.5860    0.1260   -0.6727 C   0  0  0  0  0  0  0  0  0  0  0  0
    2.5051    1.0650   -1.0906 C   0  0  0  0  0  0  0  0  0  0  0  0
    1.3696    0.2715   -1.7230 C   0  0  0  0  0  0  0  0  0  0  0  0
    0.4868   -0.3284   -0.6483 C   0  0  0  0  0  0  0  0  0  0  0  0
   -0.0526    0.7534    0.1353 N   0  0  0  0  0  0  0  0  0  0  0  0
   -1.3970    0.4193    1.0757 S   0  0  0  0  0  6  0  0  0  0  0  0
   -1.6379    1.5950    2.0032 O   0  0  0  0  0  0  0  0  0  0  0  0
   -1.0386   -0.7776    1.9752 O   0  0  0  0  0  0  0  0  0  0  0  0
   -2.8837   -0.0555    0.2547 C   0  0  0  0  0  0  0  0  0  0  0  0
   -3.4307    1.0238   -0.5953 C   0  0  2  0  0  0  0  0  0  0  0  0
   -3.6775    2.2364    0.3277 C   0  0  0  0  0  0  0  0  0  0  0  0
   -4.6825    0.7054   -1.3501 C   0  0  0  0  0  0  0  0  0  0  0  0
   -5.9214    0.3377   -0.6778 C   0  0  2  0  0  0  0  0  0  0  0  0
   -6.5400    1.2912    0.2783 C   0  0  0  0  0  0  0  0  0  0  0  0
   -6.0685   -1.0463   -0.1783 C   0  0  0  0  0  0  0  0  0  0  0  0
   -6.1931   -2.0991   -0.9899 N   0  0  0  0  0  0  0  0  0  0  0  0
   -6.3602   -3.3332   -0.5156 C   0  0  0  0  0  0  0  0  0  0  0  0
   -6.4082   -3.5487    0.8392 C   0  0  0  0  0  0  0  0  0  0  0  0
   -6.5788   -4.8037    1.3618 F   0  0  0  0  0  0  0  0  0  0  0  0
   -6.2813   -2.4741    1.6864 C   0  0  0  0  0  0  0  0  0  0  0  0
   -6.1148   -1.2527    1.1444 N   0  0  0  0  0  0  0  0  0  0  0  0
   -2.4861    1.4554   -1.5809 N   0  0  0  0  0  0  0  0  0  0  0  0
   -1.9657    2.7276   -1.5790 O   0  0  0  0  0  0  0  0  0  0  0  0
   -2.0491    0.5882   -2.5988 C   0  0  0  0  0  0  0  0  0  0  0  0
   -2.3843   -0.6047   -2.7635 O   0  0  0  0  0  0  0  0  0  0  0  0
    1.0311    1.3015    0.9217 C   0  0  0  0  0  0  0  0  0  0  0  0
    2.0008    1.9935   -0.0437 C   0  0  0  0  0  0  0  0  0  0  0  0
    5.5955   -0.9687    1.4659 C   0  0  0  0  0  0  0  0  0  0  0  0
    4.3859   -0.8598    2.3064 C   0  0  0  0  0  0  0  0  0  0  0  0
    6.5778   -1.8875    1.8062 C   0  0  0  0  0  0  0  0  0  0  0  0
    7.6939   -2.0219    1.0725 N   0  0  0  0  0  0  0  0  0  0  0  0
    9.9953   -1.8682   -0.2007 H   0  0  0  0  0  0  0  0  0  0  0  0
    9.0435   -2.1474   -1.6709 H   0  0  0  0  0  0  0  0  0  0  0  0
    9.5251   -0.4453   -1.1648 H   0  0  0  0  0  0  0  0  0  0  0  0
    7.1057    0.2628   -1.2677 H   0  0  0  0  0  0  0  0  0  0  0  0
    5.2284    1.4612   -0.8063 H   0  0  0  0  0  0  0  0  0  0  0  0
    4.5068    1.4432    0.8197 H   0  0  0  0  0  0  0  0  0  0  0  0
    3.9705   -0.3458   -1.6256 H   0  0  0  0  0  0  0  0  0  0  0  0
    3.2125   -0.7382   -0.0710 H   0  0  0  0  0  0  0  0  0  0  0  0
    2.9211    1.6924   -1.9257 H   0  0  0  0  0  0  0  0  0  0  0  0
    0.8042    1.0118   -2.3240 H   0  0  0  0  0  0  0  0  0  0  0  0
    1.8360   -0.4860   -2.3693 H   0  0  0  0  0  0  0  0  0  0  0  0
   -0.2775   -0.9584   -1.0754 H   0  0  0  0  0  0  0  0  0  0  0  0
    1.2005   -0.9384    0.0054 H   0  0  0  0  0  0  0  0  0  0  0  0
   -3.5811   -0.4176    1.0377 H   0  0  0  0  0  0  0  0  0  0  0  0
   -2.5816   -0.9104   -0.4267 H   0  0  0  0  0  0  0  0  0  0  0  0
   -4.4238    2.9289   -0.0942 H   0  0  0  0  0  0  0  0  0  0  0  0
   -3.8481    1.9333    1.3730 H   0  0  0  0  0  0  0  0  0  0  0  0
   -2.7193    2.8370    0.3512 H   0  0  0  0  0  0  0  0  0  0  0  0
   -4.4457   -0.1102   -2.0798 H   0  0  0  0  0  0  0  0  0  0  0  0
   -4.8838    1.5915   -1.9996 H   0  0  0  0  0  0  0  0  0  0  0  0
   -6.6905    0.3304   -1.5682 H   0  0  0  0  0  0  0  0  0  0  0  0
   -6.1320    1.3080    1.2924 H   0  0  0  0  0  0  0  0  0  0  0  0
   -6.7173    2.3117   -0.1635 H   0  0  0  0  0  0  0  0  0  0  0  0
   -7.6053    0.9179    0.4282 H   0  0  0  0  0  0  0  0  0  0  0  0
   -6.4641   -4.2069   -1.1584 H   0  0  0  0  0  0  0  0  0  0  0  0
   -6.3168   -2.6239    2.7751 H   0  0  0  0  0  0  0  0  0  0  0  0
   -2.3459    3.1829   -2.3880 H   0  0  0  0  0  0  0  0  0  0  0  0
   -1.3314    0.9534   -3.3609 H   0  0  0  0  0  0  0  0  0  0  0  0
    0.6932    2.0465    1.6596 H   0  0  0  0  0  0  0  0  0  0  0  0
    1.5878    0.4903    1.4450 H   0  0  0  0  0  0  0  0  0  0  0  0
    1.3972    2.7995   -0.5575 H   0  0  0  0  0  0  0  0  0  0  0  0
    2.8240    2.4566    0.4904 H   0  0  0  0  0  0  0  0  0  0  0  0
    3.8960    0.1095    2.2338 H   0  0  0  0  0  0  0  0  0  0  0  0
    4.7130   -0.9691    3.3764 H   0  0  0  0  0  0  0  0  0  0  0  0
    3.7137   -1.7085    2.0645 H   0  0  0  0  0  0  0  0  0  0  0  0
    6.4485   -2.5237    2.6940 H   0  0  0  0  0  0  0  0  0  0  0  0
  1  2  1  0
  2  3  2  0
  3  4  1  0
  4  5  1  0
  5  6  1  0
  6  7  1  0
  7  8  1  0
  8  9  1  0
  9 10  1  0
 10 11  1  0
 11 12  2  0
 11 13  2  0
 11 14  1  0
 14 15  1  0
 15 16  1  0
 15 17  1  0
 17 18  1  0
 18 19  1  0
 18 20  1  0
 20 21  2  0
 21 22  1  0
 22 23  2  0
 23 24  1  0
 23 25  1  0
 25 26  2  0
 15 27  1  6
 27 28  1  0
 27 29  1  0
 29 30  2  0
 10 31  1  0
 31 32  1  0
  4 33  2  0
 33 34  1  0
 33 35  1  0
 35 36  2  0
 36  2  1  0
 32  7  1  0
 26 20  1  0
  1 37  1  0
  1 38  1  0
  1 39  1  0
  3 40  1  0
  5 41  1  0
  5 42  1  0
  6 43  1  0
  6 44  1  0
  7 45  1  0
  8 46  1  0
  8 47  1  0
  9 48  1  0
  9 49  1  0
 14 50  1  0
 14 51  1  0
 16 52  1  0
 16 53  1  0
 16 54  1  0
 17 55  1  0
 17 56  1  0
 18 57  1  6
 19 58  1  0
 19 59  1  0
 19 60  1  0
 22 61  1  0
 25 62  1  0
 28 63  1  0
 29 64  1  0
 31 65  1  0
 31 66  1  0
 32 67  1  0
 32 68  1  0
 34 69  1  0
 34 70  1  0
 34 71  1  0
 35 72  1  0
M  END
$$$$
