
     RDKit          3D

 38 40  0  0  0  0  0  0  0  0999 V2000
   -6.6906    2.2522   -0.6603 C   0  0  0  0  0  0  0  0  0  0  0  0
   -6.2080    1.0761   -1.2794 O   0  0  0  0  0  0  0  0  0  0  0  0
   -5.2940    0.3050   -0.5971 C   0  0  0  0  0  0  0  0  0  0  0  0
   -4.7959   -0.8499   -1.1609 C   0  0  0  0  0  0  0  0  0  0  0  0
   -3.8804   -1.6535   -0.5174 C   0  0  0  0  0  0  0  0  0  0  0  0
   -3.4199   -1.3267    0.7372 C   0  0  0  0  0  0  0  0  0  0  0  0
   -2.4449   -2.1384    1.4791 C   0  0  0  0  0  0  0  0  0  0  0  0
   -1.0784   -1.6795    1.1546 C   0  0  0  0  0  0  0  0  0  0  0  0
   -0.2556   -0.7746    1.6754 N   0  0  0  0  0  0  0  0  0  0  0  0
    0.8876   -0.5995    1.1675 N   0  0  0  0  0  0  0  0  0  0  0  0
    1.3552   -1.1965    0.1989 C   0  0  0  0  0  0  0  0  0  0  0  0
    2.5420   -1.2459   -0.5915 N   0  0  0  0  0  0  0  0  0  0  0  0
    3.5828   -0.3802   -0.2503 C   0  0  0  0  0  0  0  0  0  0  0  0
    3.4560    0.4203    0.7389 O   0  0  0  0  0  0  0  0  0  0  0  0
    4.8538   -0.3653   -1.0196 C   0  0  0  0  0  0  0  0  0  0  0  0
    5.8234    0.6072   -0.5130 C   0  0  0  0  0  0  0  0  0  0  0  0
    6.7968    0.5488    0.4039 C   0  0  0  0  0  0  0  0  0  0  0  0
    7.5549    1.6215    0.6753 C   0  0  0  0  0  0  0  0  0  0  0  0
    7.3053    2.7876   -0.0155 C   0  0  0  0  0  0  0  0  0  0  0  0
    5.9185    2.3384   -1.1111 S   0  0  0  0  0  0  0  0  0  0  0  0
   -0.0323   -2.2968   -0.1949 S   0  0  0  0  0  0  0  0  0  0  0  0
   -3.9132   -0.1719    1.3098 C   0  0  0  0  0  0  0  0  0  0  0  0
   -4.8429    0.6457    0.6581 C   0  0  0  0  0  0  0  0  0  0  0  0
   -7.0796    2.0830    0.3469 H   0  0  0  0  0  0  0  0  0  0  0  0
   -7.4836    2.6963   -1.3196 H   0  0  0  0  0  0  0  0  0  0  0  0
   -5.8111    2.9552   -0.5895 H   0  0  0  0  0  0  0  0  0  0  0  0
   -5.1512   -1.1194   -2.1512 H   0  0  0  0  0  0  0  0  0  0  0  0
   -3.5290   -2.5440   -1.0116 H   0  0  0  0  0  0  0  0  0  0  0  0
   -2.6121   -3.1987    1.1975 H   0  0  0  0  0  0  0  0  0  0  0  0
   -2.5491   -2.0503    2.5788 H   0  0  0  0  0  0  0  0  0  0  0  0
    2.6643   -1.8870   -1.3965 H   0  0  0  0  0  0  0  0  0  0  0  0
    5.3084   -1.3701   -0.9921 H   0  0  0  0  0  0  0  0  0  0  0  0
    4.6801   -0.1323   -2.1015 H   0  0  0  0  0  0  0  0  0  0  0  0
    6.9619   -0.4328    0.9440 H   0  0  0  0  0  0  0  0  0  0  0  0
    8.3934    1.6418    1.4372 H   0  0  0  0  0  0  0  0  0  0  0  0
    7.7672    3.7771    0.0168 H   0  0  0  0  0  0  0  0  0  0  0  0
   -3.5622    0.1057    2.3024 H   0  0  0  0  0  0  0  0  0  0  0  0
   -5.2177    1.5512    1.1290 H   0  0  0  0  0  0  0  0  0  0  0  0
  1  2  1  0
  2  3  1  0
  3  4  2  0
  4  5  1  0
  5  6  2  0
  6  7  1  0
  7  8  1  0
  8  9  2  0
  9 10  1  0
 10 11  2  0
 11 12  1  0
 12 13  1  0
 13 14  2  0
 13 15  1  0
 15 16  1  0
 16 17  2  0
 17 18  1  0
 18 19  2  0
 19 20  1  0
 11 21  1  0
  6 22  1  0
 22 23  2  0
 23  3  1  0
 21  8  1  0
 20 16  1  0
  1 24  1  0
  1 25  1  0
  1 26  1  0
  4 27  1  0
  5 28  1  0
  7 29  1  0
  7 30  1  0
 12 31  1  0
 15 32  1  0
 15 33  1  0
 17 34  1  0
 18 35  1  0
 19 36  1  0
 22 37  1  0
 23 38  1  0
M  END
$$$$
