
     RDKit          3D

 78 82  0  0  0  0  0  0  0  0999 V2000
    1.0787   -2.4214   -0.7722 C   0  0  0  0  0  0  0  0  0  0  0  0
    2.4476   -2.1724   -0.5220 O   0  0  0  0  0  0  0  0  0  0  0  0
    2.7941   -0.9420    0.0145 C   0  0  0  0  0  0  0  0  0  0  0  0
    1.8977    0.0397    0.3148 C   0  0  0  0  0  0  0  0  0  0  0  0
    2.2393    1.2612    0.8470 C   0  0  0  0  0  0  0  0  0  0  0  0
    1.2580    2.2341    1.1354 C   0  0  0  0  0  0  0  0  0  0  0  0
    0.0253    2.0275    0.9179 O   0  0  0  0  0  0  0  0  0  0  0  0
   -1.2212    1.7640    0.7409 C   0  0  0  0  0  0  0  0  0  0  0  0
   -1.8904    0.6874    1.3633 C   0  0  0  0  0  0  0  0  0  0  0  0
   -3.2139    0.4195    1.1697 C   0  0  0  0  0  0  0  0  0  0  0  0
   -3.9293    1.2397    0.3266 C   0  0  0  0  0  0  0  0  0  0  0  0
   -5.3315    0.9587    0.1261 N   0  0  0  0  0  0  0  0  0  0  0  0
   -6.3277    1.4918    0.9350 C   0  0  0  0  0  0  0  0  0  0  0  0
   -5.8296    2.2732    1.8691 O   0  0  0  0  0  0  0  0  0  0  0  0
   -7.7802    1.3615    0.9490 C   0  0  0  0  0  0  0  0  0  0  0  0
   -8.6013    0.4653    0.1362 C   0  0  0  0  0  0  0  0  0  0  0  0
   -9.8766    0.6976    0.2493 O   0  0  0  0  0  0  0  0  0  0  0  0
   -8.2823   -0.5771   -0.7204 N   0  0  0  0  0  0  0  0  0  0  0  0
   -9.1684   -1.3999   -1.4919 C   0  0  0  0  0  0  0  0  0  0  0  0
   -8.6368   -2.4172   -2.2837 C   0  0  0  0  0  0  0  0  0  0  0  0
   -9.4127   -3.2442   -3.0528 C   0  0  0  0  0  0  0  0  0  0  0  0
  -10.7663   -3.0789   -3.0556 C   0  0  0  0  0  0  0  0  0  0  0  0
  -11.5376   -3.9032   -3.8223 F   0  0  0  0  0  0  0  0  0  0  0  0
  -11.3440   -2.1035   -2.3033 C   0  0  0  0  0  0  0  0  0  0  0  0
  -10.5244   -1.2698   -1.5244 C   0  0  0  0  0  0  0  0  0  0  0  0
   -8.4886    2.7361    1.2435 C   0  0  0  0  0  0  0  0  0  0  0  0
   -8.4179    1.7549    2.3236 C   0  0  0  0  0  0  0  0  0  0  0  0
   -3.3384    2.3063   -0.3124 C   0  0  0  0  0  0  0  0  0  0  0  0
   -2.0016    2.5695   -0.1112 C   0  0  0  0  0  0  0  0  0  0  0  0
   -1.3783    3.6161   -0.7250 F   0  0  0  0  0  0  0  0  0  0  0  0
    1.7647    3.4335    1.6778 C   0  0  0  0  0  0  0  0  0  0  0  0
    3.0906    3.6152    1.8959 C   0  0  0  0  0  0  0  0  0  0  0  0
    3.9751    2.6546    1.6022 N   0  0  0  0  0  0  0  0  0  0  0  0
    3.5703    1.4902    1.0851 C   0  0  0  0  0  0  0  0  0  0  0  0
    4.5181    0.4981    0.7867 C   0  0  0  0  0  0  0  0  0  0  0  0
    4.1625   -0.7114    0.2570 C   0  0  0  0  0  0  0  0  0  0  0  0
    5.0402   -1.6941   -0.0493 O   0  0  0  0  0  0  0  0  0  0  0  0
    6.3935   -1.8441    0.0061 C   0  0  0  0  0  0  0  0  0  0  0  0
    7.1577   -0.9195   -0.8751 C   0  0  0  0  0  0  0  0  0  0  0  0
    8.6627   -1.1159   -0.7866 C   0  0  0  0  0  0  0  0  0  0  0  0
    9.1824   -0.8877    0.5932 C   0  0  0  0  0  0  0  0  0  0  0  0
   10.6524   -1.0813    0.6885 C   0  0  0  0  0  0  0  0  0  0  0  0
   11.4612   -0.1780   -0.1386 C   0  0  0  0  0  0  0  0  0  0  0  0
   10.9408    0.7331   -0.8219 O   0  0  0  0  0  0  0  0  0  0  0  0
   12.8926   -0.3011   -0.2000 N   0  0  0  0  0  0  0  0  0  0  0  0
   13.5832    0.5504   -0.9717 O   0  0  0  0  0  0  0  0  0  0  0  0
    1.0192   -3.4554   -1.1793 H   0  0  0  0  0  0  0  0  0  0  0  0
    0.6636   -1.6592   -1.4427 H   0  0  0  0  0  0  0  0  0  0  0  0
    0.4790   -2.4085    0.1706 H   0  0  0  0  0  0  0  0  0  0  0  0
    0.8458   -0.1693    0.1159 H   0  0  0  0  0  0  0  0  0  0  0  0
   -1.3244    0.0608    2.0132 H   0  0  0  0  0  0  0  0  0  0  0  0
   -3.7454   -0.3960    1.6351 H   0  0  0  0  0  0  0  0  0  0  0  0
   -5.5729    0.3565   -0.6668 H   0  0  0  0  0  0  0  0  0  0  0  0
   -7.2459   -0.8102   -0.7924 H   0  0  0  0  0  0  0  0  0  0  0  0
   -7.5549   -2.5475   -2.2790 H   0  0  0  0  0  0  0  0  0  0  0  0
   -8.9467   -4.0329   -3.6613 H   0  0  0  0  0  0  0  0  0  0  0  0
  -12.4136   -1.9714   -2.3037 H   0  0  0  0  0  0  0  0  0  0  0  0
  -11.0576   -0.5288   -0.9640 H   0  0  0  0  0  0  0  0  0  0  0  0
   -7.8330    3.6171    1.3300 H   0  0  0  0  0  0  0  0  0  0  0  0
   -9.4758    2.8855    0.7722 H   0  0  0  0  0  0  0  0  0  0  0  0
   -7.6841    1.8548    3.1574 H   0  0  0  0  0  0  0  0  0  0  0  0
   -9.3094    1.1407    2.5560 H   0  0  0  0  0  0  0  0  0  0  0  0
   -3.9097    2.9508   -0.9769 H   0  0  0  0  0  0  0  0  0  0  0  0
    1.0834    4.2186    1.9235 H   0  0  0  0  0  0  0  0  0  0  0  0
    3.5154    4.5352    2.3154 H   0  0  0  0  0  0  0  0  0  0  0  0
    5.5511    0.7234    1.0095 H   0  0  0  0  0  0  0  0  0  0  0  0
    6.6249   -2.9260   -0.2123 H   0  0  0  0  0  0  0  0  0  0  0  0
    6.6984   -1.7122    1.0957 H   0  0  0  0  0  0  0  0  0  0  0  0
    6.8976   -1.1321   -1.9423 H   0  0  0  0  0  0  0  0  0  0  0  0
    6.9389    0.1149   -0.6801 H   0  0  0  0  0  0  0  0  0  0  0  0
    8.8900   -2.1331   -1.1650 H   0  0  0  0  0  0  0  0  0  0  0  0
    9.1009   -0.4113   -1.4955 H   0  0  0  0  0  0  0  0  0  0  0  0
    8.9598    0.1502    0.9524 H   0  0  0  0  0  0  0  0  0  0  0  0
    8.7049   -1.5973    1.3195 H   0  0  0  0  0  0  0  0  0  0  0  0
   10.9087   -2.1585    0.4697 H   0  0  0  0  0  0  0  0  0  0  0  0
   10.9948   -0.9434    1.7564 H   0  0  0  0  0  0  0  0  0  0  0  0
   13.3394   -1.0709    0.3769 H   0  0  0  0  0  0  0  0  0  0  0  0
   13.3678    0.3048   -1.9219 H   0  0  0  0  0  0  0  0  0  0  0  0
  1  2  1  0
  2  3  1  0
  3  4  2  0
  4  5  1  0
  5  6  2  0
  6  7  1  0
  7  8  1  0
  8  9  2  0
  9 10  1  0
 10 11  2  0
 11 12  1  0
 12 13  1  0
 13 14  2  0
 13 15  1  0
 15 16  1  0
 16 17  2  0
 16 18  1  0
 18 19  1  0
 19 20  2  0
 20 21  1  0
 21 22  2  0
 22 23  1  0
 22 24  1  0
 24 25  2  0
 15 26  1  0
 26 27  1  0
 11 28  1  0
 28 29  2  0
 29 30  1  0
  6 31  1  0
 31 32  2  0
 32 33  1  0
 33 34  2  0
 34 35  1  0
 35 36  2  0
 36 37  1  0
 37 38  1  0
 38 39  1  0
 39 40  1  0
 40 41  1  0
 41 42  1  0
 42 43  1  0
 43 44  2  0
 43 45  1  0
 45 46  1  0
 36  3  1  0
 34  5  1  0
 29  8  1  0
 27 15  1  0
 25 19  1  0
  1 47  1  0
  1 48  1  0
  1 49  1  0
  4 50  1  0
  9 51  1  0
 10 52  1  0
 12 53  1  0
 18 54  1  0
 20 55  1  0
 21 56  1  0
 24 57  1  0
 25 58  1  0
 26 59  1  0
 26 60  1  0
 27 61  1  0
 27 62  1  0
 28 63  1  0
 31 64  1  0
 32 65  1  0
 35 66  1  0
 38 67  1  0
 38 68  1  0
 39 69  1  0
 39 70  1  0
 40 71  1  0
 40 72  1  0
 41 73  1  0
 41 74  1  0
 42 75  1  0
 42 76  1  0
 45 77  1  0
 46 78  1  0
M  END
$$$$
