
     RDKit          3D

 56 61  0  0  0  0  0  0  0  0999 V2000
    3.5685   -3.8805   -0.7306 C   0  0  0  0  0  0  0  0  0  0  0  0
    3.5282   -2.5330   -0.0889 C   0  0  0  0  0  0  0  0  0  0  0  0
    4.5860   -1.6670   -0.3473 C   0  0  0  0  0  0  0  0  0  0  0  0
    4.6502   -0.4465    0.1696 N   0  0  0  0  0  0  0  0  0  0  0  0
    5.5279    0.5501    0.0846 C   0  0  0  0  0  0  0  0  0  0  0  0
    6.7857    0.6519   -0.6417 C   0  0  0  0  0  0  0  0  0  0  0  0
    7.4312   -0.2406   -1.4499 C   0  0  0  0  0  0  0  0  0  0  0  0
    8.5758    0.3753   -1.8662 N   0  0  0  0  0  0  0  0  0  0  0  0
    8.6493    1.5665   -1.3605 N   0  0  0  0  0  0  0  0  0  0  0  0
    7.5973    1.8016   -0.6074 C   0  0  0  0  0  0  0  0  0  0  0  0
    4.9891    1.5624    0.8802 C   0  0  0  0  0  0  0  0  0  0  0  0
    3.8327    1.1943    1.4247 N   0  0  0  0  0  0  0  0  0  0  0  0
    3.6171   -0.0632    0.9821 C   0  0  0  0  0  0  0  0  0  0  0  0
    2.5522   -0.8855    1.2648 C   0  0  0  0  0  0  0  0  0  0  0  0
    1.4841   -0.4438    2.1155 N   0  0  0  0  0  0  0  0  0  0  0  0
    0.2950    0.1344    1.5434 C   0  0  0  0  0  0  0  0  0  0  0  0
    0.1630    0.1754    0.1900 C   0  0  0  0  0  0  0  0  0  0  0  0
   -0.9705    0.7245   -0.3517 C   0  0  0  0  0  0  0  0  0  0  0  0
   -1.9916    1.2421    0.4398 C   0  0  0  0  0  0  0  0  0  0  0  0
   -3.1876    1.8241   -0.1490 C   0  0  0  0  0  0  0  0  0  0  0  0
   -3.1508    3.0663   -0.4134 O   0  0  0  0  0  0  0  0  0  0  0  0
   -4.3561    1.0774   -0.4298 N   0  0  0  0  0  0  0  0  0  0  0  0
   -5.4882    1.7552   -1.0228 C   0  0  0  0  0  0  0  0  0  0  0  0
   -6.0517    0.8057   -2.0771 C   0  0  0  0  0  0  0  0  0  0  0  0
   -6.5780   -0.3983   -1.4576 N   0  0  0  0  0  0  0  0  0  0  0  0
   -5.9903   -0.6298   -0.1620 C   0  0  0  0  0  0  0  0  0  0  0  0
   -6.5992   -1.5014    0.8529 C   0  0  0  0  0  0  0  0  0  0  0  0
   -6.8056   -0.0372    0.9817 C   0  0  0  0  0  0  0  0  0  0  0  0
   -4.5012   -0.3364   -0.1558 C   0  0  0  0  0  0  0  0  0  0  0  0
   -1.8060    1.1752    1.7997 C   0  0  0  0  0  0  0  0  0  0  0  0
   -3.0562    1.8106    2.8376 Cl  0  0  0  0  0  0  0  0  0  0  0  0
   -0.6774    0.6290    2.3844 C   0  0  0  0  0  0  0  0  0  0  0  0
    2.5535   -2.1079    0.7070 N   0  0  0  0  0  0  0  0  0  0  0  0
    3.7286   -3.7728   -1.8421 H   0  0  0  0  0  0  0  0  0  0  0  0
    4.4718   -4.3941   -0.3454 H   0  0  0  0  0  0  0  0  0  0  0  0
    2.6327   -4.4146   -0.5663 H   0  0  0  0  0  0  0  0  0  0  0  0
    5.3752   -1.9961   -0.9846 H   0  0  0  0  0  0  0  0  0  0  0  0
    7.1642   -1.2226   -1.7409 H   0  0  0  0  0  0  0  0  0  0  0  0
    9.4169    2.2648   -1.5075 H   0  0  0  0  0  0  0  0  0  0  0  0
    7.3551    2.6767   -0.0545 H   0  0  0  0  0  0  0  0  0  0  0  0
    5.4694    2.5248    1.0247 H   0  0  0  0  0  0  0  0  0  0  0  0
    1.6037   -0.5567    3.1353 H   0  0  0  0  0  0  0  0  0  0  0  0
    0.9355   -0.2166   -0.4395 H   0  0  0  0  0  0  0  0  0  0  0  0
   -1.0955    0.7666   -1.4171 H   0  0  0  0  0  0  0  0  0  0  0  0
   -5.1496    2.6731   -1.5682 H   0  0  0  0  0  0  0  0  0  0  0  0
   -6.2346    2.0327   -0.2796 H   0  0  0  0  0  0  0  0  0  0  0  0
   -5.3190    0.5948   -2.8533 H   0  0  0  0  0  0  0  0  0  0  0  0
   -6.9049    1.3341   -2.5480 H   0  0  0  0  0  0  0  0  0  0  0  0
   -6.5341   -1.2324   -2.0847 H   0  0  0  0  0  0  0  0  0  0  0  0
   -5.9001   -1.9411    1.6163 H   0  0  0  0  0  0  0  0  0  0  0  0
   -7.4939   -2.1047    0.6046 H   0  0  0  0  0  0  0  0  0  0  0  0
   -7.8176    0.3607    0.7626 H   0  0  0  0  0  0  0  0  0  0  0  0
   -6.2334    0.5850    1.6854 H   0  0  0  0  0  0  0  0  0  0  0  0
   -4.1652   -0.5221    0.9065 H   0  0  0  0  0  0  0  0  0  0  0  0
   -3.9457   -0.9690   -0.8535 H   0  0  0  0  0  0  0  0  0  0  0  0
   -0.5362    0.5786    3.4595 H   0  0  0  0  0  0  0  0  0  0  0  0
  1  2  1  0
  2  3  2  0
  3  4  1  0
  4  5  1  0
  5  6  1  0
  6  7  1  0
  7  8  2  0
  8  9  1  0
  9 10  1  0
  5 11  2  0
 11 12  1  0
 12 13  2  0
 13 14  1  0
 14 15  1  0
 15 16  1  0
 16 17  2  0
 17 18  1  0
 18 19  2  0
 19 20  1  0
 20 21  2  0
 20 22  1  0
 22 23  1  0
 23 24  1  0
 24 25  1  0
 25 26  1  0
 26 27  1  0
 27 28  1  0
 26 29  1  0
 19 30  1  0
 30 31  1  0
 30 32  2  0
 14 33  2  0
 33  2  1  0
 13  4  1  0
 32 16  1  0
 10  6  2  0
 29 22  1  0
 28 26  1  0
  1 34  1  0
  1 35  1  0
  1 36  1  0
  3 37  1  0
  7 38  1  0
  9 39  1  0
 10 40  1  0
 11 41  1  0
 15 42  1  0
 17 43  1  0
 18 44  1  0
 23 45  1  0
 23 46  1  0
 24 47  1  0
 24 48  1  0
 25 49  1  0
 27 50  1  0
 27 51  1  0
 28 52  1  0
 28 53  1  0
 29 54  1  0
 29 55  1  0
 32 56  1  0
M  END
$$$$
