
     RDKit          3D

 32 34  0  0  0  0  0  0  0  0999 V2000
    2.2135   -0.8991    2.7260 O   0  0  0  0  0  0  0  0  0  0  0  0
    1.5401   -0.4725    1.7529 C   0  0  0  0  0  0  0  0  0  0  0  0
    0.0590   -0.3398    1.7778 C   0  0  0  0  0  0  0  0  0  0  0  0
   -0.4255   -0.5050    0.3647 C   0  0  1  0  0  0  0  0  0  0  0  0
   -1.8826   -0.3083    0.2304 C   0  0  0  0  0  0  0  0  0  0  0  0
   -2.7440   -0.2542    1.3028 C   0  0  0  0  0  0  0  0  0  0  0  0
   -4.1114   -0.0660    1.1111 C   0  0  0  0  0  0  0  0  0  0  0  0
   -4.6511    0.0723   -0.1496 C   0  0  0  0  0  0  0  0  0  0  0  0
   -6.0300    0.2608   -0.3182 O   0  0  0  0  0  0  0  0  0  0  0  0
   -3.7907    0.0185   -1.2229 C   0  0  0  0  0  0  0  0  0  0  0  0
   -2.4210   -0.1700   -1.0313 C   0  0  0  0  0  0  0  0  0  0  0  0
    0.2201    0.4186   -0.4916 O   0  0  0  0  0  0  0  0  0  0  0  0
    1.6023    0.3542   -0.5816 C   0  0  0  0  0  0  0  0  0  0  0  0
    2.2583    0.7206   -1.7392 C   0  0  0  0  0  0  0  0  0  0  0  0
    3.6327    0.6397   -1.7810 C   0  0  0  0  0  0  0  0  0  0  0  0
    4.2764    1.0059   -2.9355 O   0  0  0  0  0  0  0  0  0  0  0  0
    4.3504    0.1968   -0.6776 C   0  0  0  0  0  0  0  0  0  0  0  0
    3.6475   -0.1573    0.4545 C   0  0  0  0  0  0  0  0  0  0  0  0
    4.3658   -0.5995    1.5557 O   0  0  0  0  0  0  0  0  0  0  0  0
    2.2787   -0.0957    0.5496 C   0  0  0  0  0  0  0  0  0  0  0  0
   -0.3699   -1.1502    2.4074 H   0  0  0  0  0  0  0  0  0  0  0  0
   -0.1593    0.6655    2.1900 H   0  0  0  0  0  0  0  0  0  0  0  0
   -0.1901   -1.5435    0.0523 H   0  0  0  0  0  0  0  0  0  0  0  0
   -2.3513   -0.3598    2.3112 H   0  0  0  0  0  0  0  0  0  0  0  0
   -4.8063   -0.0211    1.9525 H   0  0  0  0  0  0  0  0  0  0  0  0
   -6.3625    1.2357   -0.3646 H   0  0  0  0  0  0  0  0  0  0  0  0
   -4.1887    0.1243   -2.2232 H   0  0  0  0  0  0  0  0  0  0  0  0
   -1.7992   -0.2031   -1.9158 H   0  0  0  0  0  0  0  0  0  0  0  0
    1.6937    1.0641   -2.5933 H   0  0  0  0  0  0  0  0  0  0  0  0
    3.9212    1.7644   -3.5115 H   0  0  0  0  0  0  0  0  0  0  0  0
    5.4285    0.1208   -0.6753 H   0  0  0  0  0  0  0  0  0  0  0  0
    4.7953   -1.5172    1.4733 H   0  0  0  0  0  0  0  0  0  0  0  0
  1  2  2  0
  2  3  1  0
  3  4  1  0
  4  5  1  0
  5  6  2  0
  6  7  1  0
  7  8  2  0
  8  9  1  0
  8 10  1  0
 10 11  2  0
  4 12  1  0
 12 13  1  0
 13 14  2  0
 14 15  1  0
 15 16  1  0
 15 17  2  0
 17 18  1  0
 18 19  1  0
 18 20  2  0
 20  2  1  0
 11  5  1  0
 20 13  1  0
  3 21  1  0
  3 22  1  0
  4 23  1  6
  6 24  1  0
  7 25  1  0
  9 26  1  0
 10 27  1  0
 11 28  1  0
 14 29  1  0
 16 30  1  0
 17 31  1  0
 19 32  1  0
M  END
$$$$
