
     RDKit          3D

 54 58  0  0  0  0  0  0  0  0999 V2000
    6.5714    0.7697    0.8710 C   0  0  0  0  0  0  0  0  0  0  0  0
    5.2183    0.3052    1.4690 C   0  0  1  0  0  0  0  0  0  0  0  0
    4.2072    0.4151    0.6051 O   0  0  0  0  0  0  0  0  0  0  0  0
    3.1590    1.2475    0.4513 C   0  0  0  0  0  0  0  0  0  0  0  0
    2.2400    1.0129   -0.5989 C   0  0  0  0  0  0  0  0  0  0  0  0
    1.1486    1.7737   -0.8623 C   0  0  0  0  0  0  0  0  0  0  0  0
    0.2560    1.4395   -1.9780 C   0  0  0  0  0  0  0  0  0  0  0  0
   -0.8656    0.6210   -1.6294 N   0  0  0  0  0  0  0  0  0  0  0  0
   -2.0654    1.0644   -1.2253 C   0  0  0  0  0  0  0  0  0  0  0  0
   -2.3837    2.2786   -1.0914 O   0  0  0  0  0  0  0  0  0  0  0  0
   -2.8653   -0.0020   -0.9896 N   0  0  0  0  0  0  0  0  0  0  0  0
   -4.2146    0.0438   -0.5490 C   0  0  0  0  0  0  0  0  0  0  0  0
   -5.3387   -0.2819   -1.2001 N   0  0  0  0  0  0  0  0  0  0  0  0
   -6.3698   -0.0921   -0.4430 O   0  0  0  0  0  0  0  0  0  0  0  0
   -6.0021    0.3655    0.7417 C   0  0  0  0  0  0  0  0  0  0  0  0
   -6.6740    0.7250    1.8879 C   0  0  0  0  0  0  0  0  0  0  0  0
   -5.9879    1.1817    3.0005 C   0  0  0  0  0  0  0  0  0  0  0  0
   -4.6012    1.2851    2.9762 C   0  0  0  0  0  0  0  0  0  0  0  0
   -3.7325    1.8691    4.4037 Cl  0  0  0  0  0  0  0  0  0  0  0  0
   -3.9464    0.9276    1.8390 C   0  0  0  0  0  0  0  0  0  0  0  0
   -4.6132    0.4627    0.7009 C   0  0  0  0  0  0  0  0  0  0  0  0
   -2.1966   -1.1409   -1.2367 C   0  0  0  0  0  0  0  0  0  0  0  0
   -2.4791   -2.4904   -1.1782 C   0  0  0  0  0  0  0  0  0  0  0  0
   -1.5270   -3.4257   -1.5142 C   0  0  0  0  0  0  0  0  0  0  0  0
   -0.2657   -3.0513   -1.9186 C   0  0  0  0  0  0  0  0  0  0  0  0
    0.7525   -4.0743   -2.2789 C   0  0  0  0  0  0  0  0  0  0  0  0
    1.9197   -3.5028   -2.6925 F   0  0  0  0  0  0  0  0  0  0  0  0
    0.2306   -4.9305   -3.2394 F   0  0  0  0  0  0  0  0  0  0  0  0
    0.9290   -4.8591   -1.1371 F   0  0  0  0  0  0  0  0  0  0  0  0
   -0.0073   -1.6990   -1.9690 C   0  0  0  0  0  0  0  0  0  0  0  0
   -0.9216   -0.7240   -1.6441 C   0  0  0  0  0  0  0  0  0  0  0  0
    0.8856    2.8546   -0.0759 C   0  0  0  0  0  0  0  0  0  0  0  0
    1.7305    3.1379    0.9535 C   0  0  0  0  0  0  0  0  0  0  0  0
    2.8594    2.3429    1.2181 C   0  0  0  0  0  0  0  0  0  0  0  0
    3.9020    2.8122    2.5705 Cl  0  0  0  0  0  0  0  0  0  0  0  0
    5.5155   -1.1158    1.8935 C   0  0  0  0  0  0  0  0  0  0  0  0
    6.4455   -1.2799    2.7077 O   0  0  0  0  0  0  0  0  0  0  0  0
    4.8060   -2.1837    1.4175 O   0  0  0  0  0  0  0  0  0  0  0  0
    7.3368    0.4297    1.5970 H   0  0  0  0  0  0  0  0  0  0  0  0
    6.7337    0.3333   -0.1167 H   0  0  0  0  0  0  0  0  0  0  0  0
    6.5669    1.8678    0.8657 H   0  0  0  0  0  0  0  0  0  0  0  0
    5.1327    0.8648    2.3952 H   0  0  0  0  0  0  0  0  0  0  0  0
    2.4808    0.1344   -1.2166 H   0  0  0  0  0  0  0  0  0  0  0  0
   -0.1525    2.4157   -2.3706 H   0  0  0  0  0  0  0  0  0  0  0  0
    0.8257    1.0281   -2.8610 H   0  0  0  0  0  0  0  0  0  0  0  0
   -7.7557    0.6320    1.8724 H   0  0  0  0  0  0  0  0  0  0  0  0
   -6.5353    1.4567    3.8852 H   0  0  0  0  0  0  0  0  0  0  0  0
   -2.8679    1.0044    1.8093 H   0  0  0  0  0  0  0  0  0  0  0  0
   -3.4864   -2.7627   -0.8549 H   0  0  0  0  0  0  0  0  0  0  0  0
   -1.8176   -4.4674   -1.4447 H   0  0  0  0  0  0  0  0  0  0  0  0
    0.9651   -1.3730   -2.2813 H   0  0  0  0  0  0  0  0  0  0  0  0
    0.0278    3.4638   -0.2724 H   0  0  0  0  0  0  0  0  0  0  0  0
    1.5746    3.9968    1.6269 H   0  0  0  0  0  0  0  0  0  0  0  0
    5.2524   -3.1068    1.3027 H   0  0  0  0  0  0  0  0  0  0  0  0
  1  2  1  0
  2  3  1  0
  3  4  1  0
  4  5  2  0
  5  6  1  0
  6  7  1  0
  7  8  1  0
  8  9  1  0
  9 10  2  0
  9 11  1  0
 11 12  1  0
 12 13  2  0
 13 14  1  0
 14 15  1  0
 15 16  2  0
 16 17  1  0
 17 18  2  0
 18 19  1  0
 18 20  1  0
 20 21  2  0
 11 22  1  0
 22 23  2  0
 23 24  1  0
 24 25  2  0
 25 26  1  0
 26 27  1  0
 26 28  1  0
 26 29  1  0
 25 30  1  0
 30 31  2  0
  6 32  2  0
 32 33  1  0
 33 34  2  0
 34 35  1  0
  2 36  1  0
 36 37  2  0
 36 38  1  0
 34  4  1  0
 31  8  1  0
 21 12  1  0
 31 22  1  0
 21 15  1  0
  1 39  1  0
  1 40  1  0
  1 41  1  0
  2 42  1  1
  5 43  1  0
  7 44  1  0
  7 45  1  0
 16 46  1  0
 17 47  1  0
 20 48  1  0
 23 49  1  0
 24 50  1  0
 30 51  1  0
 32 52  1  0
 33 53  1  0
 38 54  1  0
M  END
$$$$
