
     RDKit          3D

 74 78  0  0  0  0  0  0  0  0999 V2000
  -10.0011    1.7162   -2.5015 C   0  0  0  0  0  0  0  0  0  0  0  0
   -9.1974    0.9132   -1.9056 O   0  0  0  0  0  0  0  0  0  0  0  0
   -8.4855   -0.0490   -1.3693 C   0  0  0  0  0  0  0  0  0  0  0  0
   -8.6996   -1.4174   -1.4799 N   0  0  0  0  0  0  0  0  0  0  0  0
   -7.7920   -2.0732   -0.8126 N   0  0  0  0  0  0  0  0  0  0  0  0
   -7.6769   -3.5076   -0.6761 C   0  0  0  0  0  0  0  0  0  0  0  0
   -6.9501   -1.1846   -0.2386 C   0  0  0  0  0  0  0  0  0  0  0  0
   -7.3405    0.0870   -0.5551 C   0  0  0  0  0  0  0  0  0  0  0  0
   -6.7949    1.3341   -0.2044 N   0  0  0  0  0  0  0  0  0  0  0  0
   -5.7299    1.5273    0.7398 C   0  0  0  0  0  0  0  0  0  0  0  0
   -5.9947    2.1448    1.9165 N   0  0  0  0  0  0  0  0  0  0  0  0
   -5.0351    2.3521    2.8226 C   0  0  0  0  0  0  0  0  0  0  0  0
   -3.7251    1.9468    2.6013 C   0  0  0  0  0  0  0  0  0  0  0  0
   -2.6762    2.2152    3.6145 C   0  0  0  0  0  0  0  0  0  0  0  0
   -3.4468    1.3056    1.3840 C   0  0  0  0  0  0  0  0  0  0  0  0
   -2.0697    0.8875    1.1506 C   0  0  0  0  0  0  0  0  0  0  0  0
   -1.4121   -0.0207    1.9799 C   0  0  0  0  0  0  0  0  0  0  0  0
   -0.1762   -0.1983    1.5002 N   0  0  0  0  0  0  0  0  0  0  0  0
   -0.0312    0.5653    0.3996 C   0  0  0  0  0  0  0  0  0  0  0  0
    1.1098    0.6904   -0.4129 C   0  0  0  0  0  0  0  0  0  0  0  0
    2.2778   -0.0417   -0.1027 N   0  0  0  0  0  0  0  0  0  0  0  0
    2.4388   -1.3696   -0.6516 C   0  0  0  0  0  0  0  0  0  0  0  0
    1.4911   -1.7506   -1.3726 O   0  0  0  0  0  0  0  0  0  0  0  0
    3.6405   -2.1877   -0.3638 C   0  0  1  0  0  0  0  0  0  0  0  0
    4.0430   -2.8808   -1.6513 C   0  0  0  0  0  0  0  0  0  0  0  0
    4.6759   -1.3661    0.1654 N   0  0  0  0  0  0  0  0  0  0  0  0
    5.2458   -0.5092   -0.8254 C   0  0  0  0  0  0  0  0  0  0  0  0
    6.3085    0.3228   -0.1022 C   0  0  0  0  0  0  0  0  0  0  0  0
    7.4348   -0.5411    0.1491 N   0  0  0  0  0  0  0  0  0  0  0  0
    8.4095   -0.0281    1.0502 C   0  0  0  0  0  0  0  0  0  0  0  0
    9.1054    1.1569    0.3764 C   0  0  0  0  0  0  0  0  0  0  0  0
    9.7329    0.7684   -0.8075 O   0  0  0  0  0  0  0  0  0  0  0  0
    7.0592   -1.9123    0.3746 C   0  0  0  0  0  0  0  0  0  0  0  0
    5.6690   -2.0822    0.9329 C   0  0  0  0  0  0  0  0  0  0  0  0
    1.0153    1.5434   -1.4785 C   0  0  0  0  0  0  0  0  0  0  0  0
   -0.1743    2.2433   -1.7240 C   0  0  0  0  0  0  0  0  0  0  0  0
   -1.2643    2.1228   -0.9502 C   0  0  0  0  0  0  0  0  0  0  0  0
   -1.1989    1.2552    0.1552 C   0  0  0  0  0  0  0  0  0  0  0  0
   -4.4640    1.1422    0.5431 N   0  0  0  0  0  0  0  0  0  0  0  0
  -10.2041    2.6640   -1.8699 H   0  0  0  0  0  0  0  0  0  0  0  0
   -9.7439    2.0730   -3.5413 H   0  0  0  0  0  0  0  0  0  0  0  0
  -11.0704    1.2915   -2.5476 H   0  0  0  0  0  0  0  0  0  0  0  0
   -7.5770   -3.7904    0.4028 H   0  0  0  0  0  0  0  0  0  0  0  0
   -8.5995   -3.9707   -1.0718 H   0  0  0  0  0  0  0  0  0  0  0  0
   -6.8477   -3.8944   -1.2859 H   0  0  0  0  0  0  0  0  0  0  0  0
   -6.0738   -1.4347    0.3848 H   0  0  0  0  0  0  0  0  0  0  0  0
   -7.1671    2.2263   -0.6348 H   0  0  0  0  0  0  0  0  0  0  0  0
   -5.2688    2.8507    3.7636 H   0  0  0  0  0  0  0  0  0  0  0  0
   -1.8164    2.7863    3.1454 H   0  0  0  0  0  0  0  0  0  0  0  0
   -3.0939    2.9717    4.3469 H   0  0  0  0  0  0  0  0  0  0  0  0
   -2.3632    1.3508    4.1982 H   0  0  0  0  0  0  0  0  0  0  0  0
   -1.7964   -0.5250    2.8731 H   0  0  0  0  0  0  0  0  0  0  0  0
    0.5319   -0.8285    1.9255 H   0  0  0  0  0  0  0  0  0  0  0  0
    2.9993    0.3544    0.5170 H   0  0  0  0  0  0  0  0  0  0  0  0
    3.3240   -2.9899    0.3367 H   0  0  0  0  0  0  0  0  0  0  0  0
    3.2136   -3.5883   -1.8783 H   0  0  0  0  0  0  0  0  0  0  0  0
    4.0334   -2.1116   -2.4490 H   0  0  0  0  0  0  0  0  0  0  0  0
    5.0232   -3.3914   -1.5466 H   0  0  0  0  0  0  0  0  0  0  0  0
    5.7110   -1.0727   -1.6650 H   0  0  0  0  0  0  0  0  0  0  0  0
    4.4814    0.1466   -1.2595 H   0  0  0  0  0  0  0  0  0  0  0  0
    5.8186    0.6998    0.8125 H   0  0  0  0  0  0  0  0  0  0  0  0
    6.6047    1.1402   -0.7778 H   0  0  0  0  0  0  0  0  0  0  0  0
    8.0052    0.3284    2.0085 H   0  0  0  0  0  0  0  0  0  0  0  0
    9.1979   -0.8203    1.1624 H   0  0  0  0  0  0  0  0  0  0  0  0
    9.9083    1.5165    1.0647 H   0  0  0  0  0  0  0  0  0  0  0  0
    8.3782    1.9640    0.1775 H   0  0  0  0  0  0  0  0  0  0  0  0
    9.6162    1.4960   -1.4662 H   0  0  0  0  0  0  0  0  0  0  0  0
    7.7719   -2.3375    1.1131 H   0  0  0  0  0  0  0  0  0  0  0  0
    7.1934   -2.5017   -0.5643 H   0  0  0  0  0  0  0  0  0  0  0  0
    5.6075   -1.7740    1.9844 H   0  0  0  0  0  0  0  0  0  0  0  0
    5.4216   -3.1675    0.8897 H   0  0  0  0  0  0  0  0  0  0  0  0
    1.8809    1.6631   -2.1258 H   0  0  0  0  0  0  0  0  0  0  0  0
   -0.2059    2.9161   -2.5836 H   0  0  0  0  0  0  0  0  0  0  0  0
   -2.2148    2.6390   -1.0809 H   0  0  0  0  0  0  0  0  0  0  0  0
  1  2  1  0
  2  3  1  0
  3  4  2  0
  4  5  1  0
  5  6  1  0
  5  7  1  0
  7  8  2  0
  8  9  1  0
  9 10  1  0
 10 11  2  0
 11 12  1  0
 12 13  2  0
 13 14  1  0
 13 15  1  0
 15 16  1  0
 16 17  2  0
 17 18  1  0
 18 19  1  0
 19 20  2  0
 20 21  1  0
 21 22  1  0
 22 23  2  0
 22 24  1  0
 24 25  1  0
 24 26  1  0
 26 27  1  0
 27 28  1  0
 28 29  1  0
 29 30  1  0
 30 31  1  0
 31 32  1  0
 29 33  1  0
 33 34  1  0
 20 35  1  0
 35 36  2  0
 36 37  1  0
 37 38  2  0
 15 39  2  0
  8  3  1  0
 39 10  1  0
 38 16  1  0
 38 19  1  0
 34 26  1  0
  1 40  1  0
  1 41  1  0
  1 42  1  0
  6 43  1  0
  6 44  1  0
  6 45  1  0
  7 46  1  0
  9 47  1  0
 12 48  1  0
 14 49  1  0
 14 50  1  0
 14 51  1  0
 17 52  1  0
 18 53  1  0
 21 54  1  0
 24 55  1  1
 25 56  1  0
 25 57  1  0
 25 58  1  0
 27 59  1  0
 27 60  1  0
 28 61  1  0
 28 62  1  0
 30 63  1  0
 30 64  1  0
 31 65  1  0
 31 66  1  0
 32 67  1  0
 33 68  1  0
 33 69  1  0
 34 70  1  0
 34 71  1  0
 35 72  1  0
 36 73  1  0
 37 74  1  0
M  END
$$$$
