
     RDKit          3D

 70 74  0  0  0  0  0  0  0  0999 V2000
    9.5112    2.3883    0.9505 C   0  0  0  0  0  0  0  0  0  0  0  0
    8.5996    1.3119    0.7403 O   0  0  0  0  0  0  0  0  0  0  0  0
    7.2494    1.5705    0.4817 C   0  0  0  0  0  0  0  0  0  0  0  0
    6.6263    2.7428    0.3902 N   0  0  0  0  0  0  0  0  0  0  0  0
    5.3437    2.5830    0.1334 N   0  0  0  0  0  0  0  0  0  0  0  0
    4.3386    3.6274   -0.0369 C   0  0  0  0  0  0  0  0  0  0  0  0
    5.1367    1.2405    0.0569 C   0  0  0  0  0  0  0  0  0  0  0  0
    6.3134    0.5565    0.2705 C   0  0  0  0  0  0  0  0  0  0  0  0
    6.5901   -0.8332    0.2853 N   0  0  0  0  0  0  0  0  0  0  0  0
    5.6109   -1.8580    0.0972 C   0  0  0  0  0  0  0  0  0  0  0  0
    5.9802   -3.1474    0.1027 N   0  0  0  0  0  0  0  0  0  0  0  0
    5.1022   -4.1114   -0.0609 C   0  0  0  0  0  0  0  0  0  0  0  0
    3.7597   -3.7971   -0.2442 C   0  0  0  0  0  0  0  0  0  0  0  0
    3.3957   -2.4902   -0.2501 C   0  0  0  0  0  0  0  0  0  0  0  0
    2.0216   -2.0460   -0.3694 C   0  0  0  0  0  0  0  0  0  0  0  0
    1.5377   -0.8208    0.1365 C   0  0  0  0  0  0  0  0  0  0  0  0
    0.2553   -0.7285   -0.1945 N   0  0  0  0  0  0  0  0  0  0  0  0
   -0.1350   -1.8203   -0.8901 C   0  0  0  0  0  0  0  0  0  0  0  0
   -1.3761   -2.1620   -1.4567 C   0  0  0  0  0  0  0  0  0  0  0  0
   -2.4321   -1.2335   -1.2785 N   0  0  0  0  0  0  0  0  0  0  0  0
   -3.7479   -1.3972   -1.7345 C   0  0  0  0  0  0  0  0  0  0  0  0
   -4.0903   -2.4145   -2.3574 O   0  0  0  0  0  0  0  0  0  0  0  0
   -4.7369   -0.2953   -1.4465 C   0  0  1  0  0  0  0  0  0  0  0  0
   -6.0205   -0.9869   -1.0823 C   0  0  0  0  0  0  0  0  0  0  0  0
   -4.2146    0.6070   -0.5399 N   0  0  0  0  0  0  0  0  0  0  0  0
   -3.9539    0.2837    0.7929 C   0  0  0  0  0  0  0  0  0  0  0  0
   -5.0264    0.6835    1.7772 C   0  0  0  0  0  0  0  0  0  0  0  0
   -5.5368    2.0072    1.5454 N   0  0  0  0  0  0  0  0  0  0  0  0
   -6.8097    2.1237    2.2345 C   0  0  0  0  0  0  0  0  0  0  0  0
   -5.7221    2.3593    0.1897 C   0  0  0  0  0  0  0  0  0  0  0  0
   -4.6389    1.9424   -0.7501 C   0  0  1  0  0  0  0  0  0  0  0  0
   -3.4995    2.9400   -0.8022 C   0  0  0  0  0  0  0  0  0  0  0  0
   -1.4921   -3.3442   -2.1396 C   0  0  0  0  0  0  0  0  0  0  0  0
   -0.3972   -4.1999   -2.2745 C   0  0  0  0  0  0  0  0  0  0  0  0
    0.7896   -3.8262   -1.7063 C   0  0  0  0  0  0  0  0  0  0  0  0
    0.9630   -2.6331   -0.9968 C   0  0  0  0  0  0  0  0  0  0  0  0
    4.3394   -1.5338   -0.0764 N   0  0  0  0  0  0  0  0  0  0  0  0
    9.4275    2.7571    1.9995 H   0  0  0  0  0  0  0  0  0  0  0  0
   10.5421    2.1060    0.6703 H   0  0  0  0  0  0  0  0  0  0  0  0
    9.2210    3.2565    0.3095 H   0  0  0  0  0  0  0  0  0  0  0  0
    3.4118    3.4031    0.4947 H   0  0  0  0  0  0  0  0  0  0  0  0
    4.1084    3.7069   -1.1279 H   0  0  0  0  0  0  0  0  0  0  0  0
    4.8030    4.5903    0.2527 H   0  0  0  0  0  0  0  0  0  0  0  0
    4.1789    0.7945   -0.1457 H   0  0  0  0  0  0  0  0  0  0  0  0
    7.5719   -1.1489    0.4433 H   0  0  0  0  0  0  0  0  0  0  0  0
    5.4108   -5.1400   -0.0544 H   0  0  0  0  0  0  0  0  0  0  0  0
    3.0687   -4.6323   -0.3381 H   0  0  0  0  0  0  0  0  0  0  0  0
    2.1437   -0.1001    0.7005 H   0  0  0  0  0  0  0  0  0  0  0  0
   -0.3541    0.0794    0.0540 H   0  0  0  0  0  0  0  0  0  0  0  0
   -2.1862   -0.3249   -0.7582 H   0  0  0  0  0  0  0  0  0  0  0  0
   -4.9121    0.1878   -2.4406 H   0  0  0  0  0  0  0  0  0  0  0  0
   -6.0067   -1.4673   -0.0990 H   0  0  0  0  0  0  0  0  0  0  0  0
   -6.9124   -0.3478   -1.2584 H   0  0  0  0  0  0  0  0  0  0  0  0
   -6.1362   -1.8323   -1.8246 H   0  0  0  0  0  0  0  0  0  0  0  0
   -3.7274   -0.7715    0.9931 H   0  0  0  0  0  0  0  0  0  0  0  0
   -3.0348    0.8522    1.1297 H   0  0  0  0  0  0  0  0  0  0  0  0
   -5.8602   -0.0447    1.8269 H   0  0  0  0  0  0  0  0  0  0  0  0
   -4.5590    0.6821    2.7839 H   0  0  0  0  0  0  0  0  0  0  0  0
   -7.1450    3.1759    2.1459 H   0  0  0  0  0  0  0  0  0  0  0  0
   -6.7282    1.7904    3.2847 H   0  0  0  0  0  0  0  0  0  0  0  0
   -7.5205    1.4135    1.7363 H   0  0  0  0  0  0  0  0  0  0  0  0
   -5.7612    3.4883    0.1437 H   0  0  0  0  0  0  0  0  0  0  0  0
   -6.6888    2.0067   -0.1656 H   0  0  0  0  0  0  0  0  0  0  0  0
   -5.0979    1.9785   -1.7851 H   0  0  0  0  0  0  0  0  0  0  0  0
   -3.7706    3.7689   -1.4633 H   0  0  0  0  0  0  0  0  0  0  0  0
   -3.1712    3.2833    0.1793 H   0  0  0  0  0  0  0  0  0  0  0  0
   -2.6155    2.4316   -1.2737 H   0  0  0  0  0  0  0  0  0  0  0  0
   -2.4154   -3.6367   -2.5831 H   0  0  0  0  0  0  0  0  0  0  0  0
   -0.5296   -5.1152   -2.8175 H   0  0  0  0  0  0  0  0  0  0  0  0
    1.6107   -4.4797   -1.8480 H   0  0  0  0  0  0  0  0  0  0  0  0
  1  2  1  0
  2  3  1  0
  3  4  2  0
  4  5  1  0
  5  6  1  0
  5  7  1  0
  7  8  2  0
  8  9  1  0
  9 10  1  0
 10 11  2  0
 11 12  1  0
 12 13  2  0
 13 14  1  0
 14 15  1  0
 15 16  2  0
 16 17  1  0
 17 18  1  0
 18 19  2  0
 19 20  1  0
 20 21  1  0
 21 22  2  0
 21 23  1  0
 23 24  1  0
 23 25  1  0
 25 26  1  0
 26 27  1  0
 27 28  1  0
 28 29  1  0
 28 30  1  0
 30 31  1  0
 31 32  1  0
 19 33  1  0
 33 34  2  0
 34 35  1  0
 35 36  2  0
 14 37  2  0
  8  3  1  0
 37 10  1  0
 36 15  1  0
 36 18  1  0
 31 25  1  0
  1 38  1  0
  1 39  1  0
  1 40  1  0
  6 41  1  0
  6 42  1  0
  6 43  1  0
  7 44  1  0
  9 45  1  0
 12 46  1  0
 13 47  1  0
 16 48  1  0
 17 49  1  0
 20 50  1  0
 23 51  1  6
 24 52  1  0
 24 53  1  0
 24 54  1  0
 26 55  1  0
 26 56  1  0
 27 57  1  0
 27 58  1  0
 29 59  1  0
 29 60  1  0
 29 61  1  0
 30 62  1  0
 30 63  1  0
 31 64  1  6
 32 65  1  0
 32 66  1  0
 32 67  1  0
 33 68  1  0
 34 69  1  0
 35 70  1  0
M  END
$$$$
