
     RDKit          3D

 28 30  0  0  0  0  0  0  0  0999 V2000
    2.6866    0.1439   -0.1491 N   0  0  0  0  0  0  0  0  0  0  0  0
    1.2826    0.1083   -0.1053 C   0  0  0  0  0  0  0  0  0  0  0  0
    0.7845   -1.2642   -0.5424 C   0  0  0  0  0  0  0  0  0  0  0  0
   -0.7006   -1.3674   -0.3392 C   0  0  0  0  0  0  0  0  0  0  0  0
   -1.1463   -1.0756    1.0622 C   0  0  0  0  0  0  0  0  0  0  0  0
   -0.6256    0.2923    1.4848 C   0  0  0  0  0  0  0  0  0  0  0  0
   -1.2908    1.2875    0.5673 C   0  0  0  0  0  0  0  0  0  0  0  0
   -0.8913    1.0141   -0.8527 C   0  0  0  0  0  0  0  0  0  0  0  0
   -1.3462   -0.3566   -1.2663 C   0  0  0  0  0  0  0  0  0  0  0  0
    0.6047    1.1040   -1.0052 C   0  0  0  0  0  0  0  0  0  0  0  0
    0.8660    0.2625    1.3488 C   0  0  0  0  0  0  0  0  0  0  0  0
    3.2119   -0.7245   -0.2275 H   0  0  0  0  0  0  0  0  0  0  0  0
    3.1773    1.0303   -0.1990 H   0  0  0  0  0  0  0  0  0  0  0  0
    0.9468   -1.2738   -1.6512 H   0  0  0  0  0  0  0  0  0  0  0  0
    1.3606   -2.0657   -0.0644 H   0  0  0  0  0  0  0  0  0  0  0  0
   -1.0477   -2.3493   -0.6686 H   0  0  0  0  0  0  0  0  0  0  0  0
   -2.2590   -0.9525    1.0216 H   0  0  0  0  0  0  0  0  0  0  0  0
   -0.8518   -1.8430    1.7878 H   0  0  0  0  0  0  0  0  0  0  0  0
   -0.8608    0.4826    2.5433 H   0  0  0  0  0  0  0  0  0  0  0  0
   -2.3930    1.1182    0.6640 H   0  0  0  0  0  0  0  0  0  0  0  0
   -1.1154    2.3328    0.8545 H   0  0  0  0  0  0  0  0  0  0  0  0
   -1.3701    1.7764   -1.5128 H   0  0  0  0  0  0  0  0  0  0  0  0
   -2.4477   -0.4242   -1.2280 H   0  0  0  0  0  0  0  0  0  0  0  0
   -0.9398   -0.5908   -2.2882 H   0  0  0  0  0  0  0  0  0  0  0  0
    0.9566    2.1375   -0.8736 H   0  0  0  0  0  0  0  0  0  0  0  0
    0.8240    0.7723   -2.0514 H   0  0  0  0  0  0  0  0  0  0  0  0
    1.2027   -0.6821    1.8488 H   0  0  0  0  0  0  0  0  0  0  0  0
    1.3817    1.1066    1.8418 H   0  0  0  0  0  0  0  0  0  0  0  0
  1  2  1  0
  2  3  1  0
  3  4  1  0
  4  5  1  0
  5  6  1  0
  6  7  1  0
  7  8  1  0
  8  9  1  0
  8 10  1  0
  6 11  1  0
 10  2  1  0
 11  2  1  0
  9  4  1  0
  1 12  1  0
  1 13  1  0
  3 14  1  0
  3 15  1  0
  4 16  1  0
  5 17  1  0
  5 18  1  0
  6 19  1  0
  7 20  1  0
  7 21  1  0
  8 22  1  0
  9 23  1  0
  9 24  1  0
 10 25  1  0
 10 26  1  0
 11 27  1  0
 11 28  1  0
M  END
$$$$
