
     RDKit          3D

 33 36  0  0  0  0  0  0  0  0999 V2000
    0.3236   -0.2279    2.1344 O   0  0  0  0  0  0  0  0  0  0  0  0
    0.0775   -0.1368    0.7534 C   0  0  0  0  0  0  0  0  0  0  0  0
   -0.9807   -1.0960    0.3992 N   0  0  0  0  0  0  0  0  0  0  0  0
   -1.1175   -2.5240    0.3407 C   0  0  0  0  0  0  0  0  0  0  0  0
   -2.5377   -2.7053   -0.0920 C   0  0  0  0  0  0  0  0  0  0  0  0
   -3.0490   -1.3931   -0.2657 N   0  0  0  0  0  0  0  0  0  0  0  0
   -2.1938   -0.5009    0.0043 C   0  0  0  0  0  0  0  0  0  0  0  0
   -1.9173    0.9439    0.0873 C   0  0  0  0  0  0  0  0  0  0  0  0
   -2.7732    2.0086   -0.2020 C   0  0  0  0  0  0  0  0  0  0  0  0
   -2.3092    3.3024   -0.0646 C   0  0  0  0  0  0  0  0  0  0  0  0
   -1.0175    3.5493    0.3525 C   0  0  0  0  0  0  0  0  0  0  0  0
   -0.2214    2.4552    0.6228 C   0  0  0  0  0  0  0  0  0  0  0  0
   -0.6003    1.1453    0.5136 C   0  0  0  0  0  0  0  0  0  0  0  0
    1.3203   -0.3363    0.0136 C   0  0  0  0  0  0  0  0  0  0  0  0
    1.4242   -0.4702   -1.3370 C   0  0  0  0  0  0  0  0  0  0  0  0
    2.6462   -0.6565   -1.9716 C   0  0  0  0  0  0  0  0  0  0  0  0
    3.8208   -0.7173   -1.2840 C   0  0  0  0  0  0  0  0  0  0  0  0
    5.4152   -0.9445   -1.9429 Cl  0  0  0  0  0  0  0  0  0  0  0  0
    3.7821   -0.5863    0.1092 C   0  0  0  0  0  0  0  0  0  0  0  0
    2.5365   -0.4019    0.6965 C   0  0  0  0  0  0  0  0  0  0  0  0
    0.6263    0.6754    2.4040 H   0  0  0  0  0  0  0  0  0  0  0  0
   -0.4185   -2.9430   -0.4517 H   0  0  0  0  0  0  0  0  0  0  0  0
   -0.8986   -3.0185    1.3130 H   0  0  0  0  0  0  0  0  0  0  0  0
   -2.6306   -3.3431   -1.0033 H   0  0  0  0  0  0  0  0  0  0  0  0
   -3.0696   -3.1675    0.7737 H   0  0  0  0  0  0  0  0  0  0  0  0
   -3.8005    1.7889   -0.5337 H   0  0  0  0  0  0  0  0  0  0  0  0
   -3.0156    4.1024   -0.3027 H   0  0  0  0  0  0  0  0  0  0  0  0
   -0.6925    4.5763    0.4471 H   0  0  0  0  0  0  0  0  0  0  0  0
    0.7917    2.7421    0.9490 H   0  0  0  0  0  0  0  0  0  0  0  0
    0.5352   -0.4320   -1.9385 H   0  0  0  0  0  0  0  0  0  0  0  0
    2.7754   -0.7673   -3.0384 H   0  0  0  0  0  0  0  0  0  0  0  0
    4.6617   -0.6219    0.7299 H   0  0  0  0  0  0  0  0  0  0  0  0
    2.5068   -0.2997    1.7838 H   0  0  0  0  0  0  0  0  0  0  0  0
  1  2  1  0
  2  3  1  0
  3  4  1  0
  4  5  1  0
  5  6  1  0
  6  7  2  0
  7  8  1  0
  8  9  2  0
  9 10  1  0
 10 11  2  0
 11 12  1  0
 12 13  2  0
  2 14  1  0
 14 15  2  0
 15 16  1  0
 16 17  2  0
 17 18  1  0
 17 19  1  0
 19 20  2  0
 13  2  1  0
 20 14  1  0
  7  3  1  0
 13  8  1  0
  1 21  1  0
  4 22  1  0
  4 23  1  0
  5 24  1  0
  5 25  1  0
  9 26  1  0
 10 27  1  0
 11 28  1  0
 12 29  1  0
 15 30  1  0
 16 31  1  0
 19 32  1  0
 20 33  1  0
M  END
$$$$
