
     RDKit          3D

 42 44  0  0  0  0  0  0  0  0999 V2000
    1.0729   -1.3195    3.0537 C   0  0  0  0  0  0  0  0  0  0  0  0
    1.2109   -0.6581    1.7298 C   0  0  0  0  0  0  0  0  0  0  0  0
    2.4741   -0.4049    1.2750 N   0  0  0  0  0  0  0  0  0  0  0  0
    2.6731    0.1920    0.0834 C   0  0  0  0  0  0  0  0  0  0  0  0
    4.0585    0.4059   -0.2871 C   0  0  0  0  0  0  0  0  0  0  0  0
    4.9473    0.0225    0.5218 O   0  0  0  0  0  0  0  0  0  0  0  0
    4.6147    0.9935   -1.4447 N   0  0  0  0  0  0  0  0  0  0  0  0
    6.0434    1.0248   -1.4462 C   0  0  0  0  0  0  0  0  0  0  0  0
    6.6663   -0.3411   -1.3610 C   0  0  0  0  0  0  0  0  0  0  0  0
    8.0540   -0.3554   -1.3598 O   0  0  0  0  0  0  0  0  0  0  0  0
    6.2020   -1.5120   -1.2883 O   0  0  0  0  0  0  0  0  0  0  0  0
    1.5375    0.5115   -0.6079 C   0  0  0  0  0  0  0  0  0  0  0  0
    1.6957    1.1228   -1.8304 O   0  0  0  0  0  0  0  0  0  0  0  0
    0.2537    0.2698   -0.1772 C   0  0  0  0  0  0  0  0  0  0  0  0
   -0.8178    0.6378   -0.9631 C   0  0  0  0  0  0  0  0  0  0  0  0
   -2.0648    0.3517   -0.4416 C   0  0  0  0  0  0  0  0  0  0  0  0
   -2.2907   -0.2584    0.7754 C   0  0  0  0  0  0  0  0  0  0  0  0
   -3.5224   -0.5442    1.2972 O   0  0  0  0  0  0  0  0  0  0  0  0
   -4.6857   -0.2447    0.6445 C   0  0  0  0  0  0  0  0  0  0  0  0
   -5.3256   -1.0938   -0.2336 C   0  0  0  0  0  0  0  0  0  0  0  0
   -6.5021   -0.7672   -0.8816 C   0  0  0  0  0  0  0  0  0  0  0  0
   -7.0326    0.4897   -0.6056 C   0  0  0  0  0  0  0  0  0  0  0  0
   -6.4436    1.3924    0.2648 C   0  0  0  0  0  0  0  0  0  0  0  0
   -5.2841    0.9837    0.8588 C   0  0  0  0  0  0  0  0  0  0  0  0
   -1.1886   -0.6214    1.5527 C   0  0  0  0  0  0  0  0  0  0  0  0
    0.0602   -0.3409    1.0424 C   0  0  0  0  0  0  0  0  0  0  0  0
    0.5115   -2.2702    2.9904 H   0  0  0  0  0  0  0  0  0  0  0  0
    0.5903   -0.5895    3.7395 H   0  0  0  0  0  0  0  0  0  0  0  0
    2.0641   -1.5517    3.4944 H   0  0  0  0  0  0  0  0  0  0  0  0
    3.9345    1.3331   -2.1566 H   0  0  0  0  0  0  0  0  0  0  0  0
    6.3607    1.4229   -2.4380 H   0  0  0  0  0  0  0  0  0  0  0  0
    6.4711    1.6943   -0.6866 H   0  0  0  0  0  0  0  0  0  0  0  0
    8.6089   -1.0555   -0.8796 H   0  0  0  0  0  0  0  0  0  0  0  0
    1.4617    0.6860   -2.7098 H   0  0  0  0  0  0  0  0  0  0  0  0
   -0.6761    1.1138   -1.9142 H   0  0  0  0  0  0  0  0  0  0  0  0
   -2.9395    0.6277   -1.0343 H   0  0  0  0  0  0  0  0  0  0  0  0
   -4.8421   -2.0599   -0.3933 H   0  0  0  0  0  0  0  0  0  0  0  0
   -6.9865   -1.4512   -1.5674 H   0  0  0  0  0  0  0  0  0  0  0  0
   -7.9681    0.7605   -1.1151 H   0  0  0  0  0  0  0  0  0  0  0  0
   -6.8977    2.3593    0.4451 H   0  0  0  0  0  0  0  0  0  0  0  0
   -4.8167    1.6911    1.5448 H   0  0  0  0  0  0  0  0  0  0  0  0
   -1.2825   -1.0991    2.5093 H   0  0  0  0  0  0  0  0  0  0  0  0
  1  2  1  0
  2  3  2  0
  3  4  1  0
  4  5  1  0
  5  6  2  0
  5  7  1  0
  7  8  1  0
  8  9  1  0
  9 10  1  0
  9 11  2  0
  4 12  2  0
 12 13  1  0
 12 14  1  0
 14 15  2  0
 15 16  1  0
 16 17  2  0
 17 18  1  0
 18 19  1  0
 19 20  2  0
 20 21  1  0
 21 22  2  0
 22 23  1  0
 23 24  2  0
 17 25  1  0
 25 26  2  0
 26  2  1  0
 26 14  1  0
 24 19  1  0
  1 27  1  0
  1 28  1  0
  1 29  1  0
  7 30  1  0
  8 31  1  0
  8 32  1  0
 10 33  1  0
 13 34  1  0
 15 35  1  0
 16 36  1  0
 20 37  1  0
 21 38  1  0
 22 39  1  0
 23 40  1  0
 24 41  1  0
 25 42  1  0
M  END
$$$$
