
     RDKit          3D

 44 45  0  0  0  0  0  0  0  0999 V2000
   -3.3229   -3.7432   -0.4434 C   0  0  0  0  0  0  0  0  0  0  0  0
   -2.4785   -2.5001   -0.7697 C   0  0  0  0  0  0  0  0  0  0  0  0
   -1.7746   -2.1688    0.3741 N   0  0  0  0  0  0  0  0  0  0  0  0
   -0.9066   -1.0941    0.4893 C   0  0  1  0  0  0  0  0  0  0  0  0
    0.1952   -0.9903   -0.5194 C   0  0  0  0  0  0  0  0  0  0  0  0
    1.4079   -0.3707    0.0468 N   0  0  0  0  0  0  0  0  0  0  0  0
    2.3220   -0.0616   -1.0129 C   0  0  0  0  0  0  0  0  0  0  0  0
    3.7666   -0.3479   -0.7220 C   0  0  0  0  0  0  0  0  0  0  0  0
    4.3526    0.3813    0.4304 C   0  0  0  0  0  0  0  0  0  0  0  0
    5.6695    0.0275    0.6202 O   0  0  0  0  0  0  0  0  0  0  0  0
    6.5265    0.2757   -0.4109 C   0  0  0  0  0  0  0  0  0  0  0  0
    1.0474    1.0107    0.9601 S   0  0  0  0  0  0  0  0  0  0  0  0
    1.3843    0.7784    2.4196 O   0  0  0  0  0  0  0  0  0  0  0  0
    1.7323    2.2462    0.4834 O   0  0  0  0  0  0  0  0  0  0  0  0
   -0.6561    1.2868    0.8810 C   0  0  0  0  0  0  0  0  0  0  0  0
   -1.6087    0.1903    0.6436 C   0  0  0  0  0  0  0  0  0  0  0  0
   -2.9175    0.5802    0.6170 C   0  0  0  0  0  0  0  0  0  0  0  0
   -3.2192    1.9330    0.8096 C   0  0  0  0  0  0  0  0  0  0  0  0
   -1.6300    2.7351    1.0432 S   0  0  0  0  0  0  0  0  0  0  0  0
   -4.7581    2.7619    0.8364 S   0  0  0  0  0  0  0  0  0  0  0  0
   -4.7502    3.9462   -0.4153 N   0  0  0  0  0  0  0  0  0  0  0  0
   -5.8068    1.7331    0.6671 O   0  0  0  0  0  0  0  0  0  0  0  0
   -4.9918    3.4553    2.1448 O   0  0  0  0  0  0  0  0  0  0  0  0
   -4.1007   -3.4716    0.2786 H   0  0  0  0  0  0  0  0  0  0  0  0
   -2.6379   -4.4419    0.1170 H   0  0  0  0  0  0  0  0  0  0  0  0
   -3.6493   -4.2818   -1.3324 H   0  0  0  0  0  0  0  0  0  0  0  0
   -1.9178   -2.7983   -1.6678 H   0  0  0  0  0  0  0  0  0  0  0  0
   -3.1905   -1.7242   -1.0895 H   0  0  0  0  0  0  0  0  0  0  0  0
   -2.3653   -2.2933    1.2226 H   0  0  0  0  0  0  0  0  0  0  0  0
   -0.3537   -1.2338    1.4791 H   0  0  0  0  0  0  0  0  0  0  0  0
    0.5527   -1.9476   -0.9176 H   0  0  0  0  0  0  0  0  0  0  0  0
   -0.1015   -0.3302   -1.3684 H   0  0  0  0  0  0  0  0  0  0  0  0
    2.1767    0.9905   -1.3734 H   0  0  0  0  0  0  0  0  0  0  0  0
    2.0604   -0.7070   -1.9031 H   0  0  0  0  0  0  0  0  0  0  0  0
    4.3210   -0.0038   -1.6498 H   0  0  0  0  0  0  0  0  0  0  0  0
    3.9433   -1.4252   -0.5876 H   0  0  0  0  0  0  0  0  0  0  0  0
    3.8218    0.1519    1.3934 H   0  0  0  0  0  0  0  0  0  0  0  0
    4.3434    1.4890    0.3055 H   0  0  0  0  0  0  0  0  0  0  0  0
    6.5589    1.3654   -0.6947 H   0  0  0  0  0  0  0  0  0  0  0  0
    6.2367   -0.2812   -1.3131 H   0  0  0  0  0  0  0  0  0  0  0  0
    7.5688   -0.0632   -0.1791 H   0  0  0  0  0  0  0  0  0  0  0  0
   -3.7626   -0.0640    0.4646 H   0  0  0  0  0  0  0  0  0  0  0  0
   -3.7792    4.2144   -0.6909 H   0  0  0  0  0  0  0  0  0  0  0  0
   -5.3084    4.7912   -0.1159 H   0  0  0  0  0  0  0  0  0  0  0  0
  1  2  1  0
  2  3  1  0
  3  4  1  0
  4  5  1  0
  5  6  1  0
  6  7  1  0
  7  8  1  0
  8  9  1  0
  9 10  1  0
 10 11  1  0
  6 12  1  0
 12 13  2  0
 12 14  2  0
 12 15  1  0
 15 16  2  0
 16 17  1  0
 17 18  2  0
 18 19  1  0
 18 20  1  0
 20 21  1  0
 20 22  2  0
 20 23  2  0
 16  4  1  0
 19 15  1  0
  1 24  1  0
  1 25  1  0
  1 26  1  0
  2 27  1  0
  2 28  1  0
  3 29  1  0
  4 30  1  1
  5 31  1  0
  5 32  1  0
  7 33  1  0
  7 34  1  0
  8 35  1  0
  8 36  1  0
  9 37  1  0
  9 38  1  0
 11 39  1  0
 11 40  1  0
 11 41  1  0
 17 42  1  0
 21 43  1  0
 21 44  1  0
M  END
$$$$
