
     RDKit          3D

 82 88  0  0  0  0  0  0  0  0999 V2000
   -8.1622    5.4660   -2.4495 C   0  0  0  0  0  0  0  0  0  0  0  0
   -8.4006    4.3454   -2.0771 C   0  0  0  0  0  0  0  0  0  0  0  0
   -8.7187    2.9574   -1.6216 C   0  0  0  0  0  0  0  0  0  0  0  0
   -9.4520    2.2146   -2.6719 C   0  0  0  0  0  0  0  0  0  0  0  0
   -9.5115    3.0616   -0.3614 C   0  0  0  0  0  0  0  0  0  0  0  0
   -7.3509    2.3467   -1.3869 C   0  0  0  0  0  0  0  0  0  0  0  0
   -6.1516    2.9219   -1.7254 C   0  0  0  0  0  0  0  0  0  0  0  0
   -5.0975    2.0678   -1.3310 C   0  0  0  0  0  0  0  0  0  0  0  0
   -3.7470    2.3898   -1.4437 N   0  0  0  0  0  0  0  0  0  0  0  0
   -2.6151    1.6039   -1.3434 C   0  0  0  0  0  0  0  0  0  0  0  0
   -2.6849    0.3895   -1.2255 O   0  0  0  0  0  0  0  0  0  0  0  0
   -1.2830    2.1637   -1.3630 N   0  0  0  0  0  0  0  0  0  0  0  0
   -0.1010    1.4146   -1.2429 C   0  0  0  0  0  0  0  0  0  0  0  0
    0.6938    0.9594   -2.2577 C   0  0  0  0  0  0  0  0  0  0  0  0
    1.8523    0.2544   -1.9724 C   0  0  0  0  0  0  0  0  0  0  0  0
    2.2598   -0.0222   -0.6773 C   0  0  0  0  0  0  0  0  0  0  0  0
    3.3896   -0.6999   -0.4022 O   0  0  0  0  0  0  0  0  0  0  0  0
    3.7261   -1.8520    0.1653 C   0  0  0  0  0  0  0  0  0  0  0  0
    2.9142   -2.8589    0.6268 C   0  0  0  0  0  0  0  0  0  0  0  0
    3.3809   -4.0340    1.2070 C   0  0  0  0  0  0  0  0  0  0  0  0
    4.7249   -4.1420    1.2976 N   0  0  0  0  0  0  0  0  0  0  0  0
    5.5679   -3.1975    0.8658 C   0  0  0  0  0  0  0  0  0  0  0  0
    6.9653   -3.4111    1.0645 N   0  0  0  0  0  0  0  0  0  0  0  0
    7.8881   -2.4286    0.6723 C   0  0  0  0  0  0  0  0  0  0  0  0
    9.0476   -2.3273    1.4180 C   0  0  0  0  0  0  0  0  0  0  0  0
    9.9882   -1.3823    1.1038 C   0  0  0  0  0  0  0  0  0  0  0  0
   11.2475   -1.2470    1.9115 C   0  0  0  0  0  0  0  0  0  0  0  0
    9.7608   -0.5372    0.0349 C   0  0  0  0  0  0  0  0  0  0  0  0
   10.5059    0.4651   -0.4631 N   0  0  0  0  0  0  0  0  0  0  0  0
    9.8747    1.0106   -1.4971 N   0  0  0  0  0  0  0  0  0  0  0  0
    8.7012    0.3444   -1.6648 C   0  0  0  0  0  0  0  0  0  0  0  0
    8.6243   -0.6456   -0.6862 C   0  0  0  0  0  0  0  0  0  0  0  0
    7.6584   -1.6015   -0.3798 C   0  0  0  0  0  0  0  0  0  0  0  0
    5.0714   -2.0985    0.3212 N   0  0  0  0  0  0  0  0  0  0  0  0
    1.4489    0.4408    0.3383 C   0  0  0  0  0  0  0  0  0  0  0  0
    1.8314    0.1894    1.6663 C   0  0  0  0  0  0  0  0  0  0  0  0
    1.0671    0.6318    2.7072 C   0  0  0  0  0  0  0  0  0  0  0  0
   -0.0790    1.3247    2.4776 C   0  0  0  0  0  0  0  0  0  0  0  0
   -0.4600    1.5767    1.1546 C   0  0  0  0  0  0  0  0  0  0  0  0
    0.2898    1.1442    0.0870 C   0  0  0  0  0  0  0  0  0  0  0  0
   -5.7100    1.0406   -0.7887 N   0  0  0  0  0  0  0  0  0  0  0  0
   -5.2105   -0.1406   -0.1912 C   0  0  0  0  0  0  0  0  0  0  0  0
   -4.6621   -0.1869    1.0740 C   0  0  0  0  0  0  0  0  0  0  0  0
   -4.1915   -1.3976    1.5983 C   0  0  0  0  0  0  0  0  0  0  0  0
   -4.2723   -2.5588    0.8549 C   0  0  0  0  0  0  0  0  0  0  0  0
   -3.7464   -3.8442    1.4547 C   0  0  0  0  0  0  0  0  0  0  0  0
   -4.8123   -2.5176   -0.3889 C   0  0  0  0  0  0  0  0  0  0  0  0
   -5.2752   -1.3183   -0.9016 C   0  0  0  0  0  0  0  0  0  0  0  0
   -7.0698    1.2079   -0.8205 N   0  0  0  0  0  0  0  0  0  0  0  0
   -7.9504    6.4753   -2.8045 H   0  0  0  0  0  0  0  0  0  0  0  0
   -8.7870    1.9369   -3.5212 H   0  0  0  0  0  0  0  0  0  0  0  0
  -10.3688    2.7193   -3.0183 H   0  0  0  0  0  0  0  0  0  0  0  0
   -9.8007    1.2456   -2.2157 H   0  0  0  0  0  0  0  0  0  0  0  0
  -10.1386    3.9686   -0.3407 H   0  0  0  0  0  0  0  0  0  0  0  0
   -8.7996    3.1462    0.5138 H   0  0  0  0  0  0  0  0  0  0  0  0
  -10.1076    2.1316   -0.1190 H   0  0  0  0  0  0  0  0  0  0  0  0
   -6.0205    3.8696   -2.2129 H   0  0  0  0  0  0  0  0  0  0  0  0
   -3.5361    3.4495   -1.5611 H   0  0  0  0  0  0  0  0  0  0  0  0
   -1.2465    3.2241   -1.4793 H   0  0  0  0  0  0  0  0  0  0  0  0
    0.4003    1.1680   -3.3007 H   0  0  0  0  0  0  0  0  0  0  0  0
    2.4729   -0.0970   -2.7840 H   0  0  0  0  0  0  0  0  0  0  0  0
    1.8587   -2.7216    0.5363 H   0  0  0  0  0  0  0  0  0  0  0  0
    2.7244   -4.8114    1.5664 H   0  0  0  0  0  0  0  0  0  0  0  0
    7.3080   -4.3195    1.5084 H   0  0  0  0  0  0  0  0  0  0  0  0
    9.2366   -2.9884    2.2645 H   0  0  0  0  0  0  0  0  0  0  0  0
   12.0287   -1.8194    1.4110 H   0  0  0  0  0  0  0  0  0  0  0  0
   11.0789   -1.5843    2.9690 H   0  0  0  0  0  0  0  0  0  0  0  0
   11.5281   -0.1644    1.8708 H   0  0  0  0  0  0  0  0  0  0  0  0
   11.4305    0.7584   -0.0881 H   0  0  0  0  0  0  0  0  0  0  0  0
    7.9648    0.5369   -2.4119 H   0  0  0  0  0  0  0  0  0  0  0  0
    6.7897   -1.6155   -1.0329 H   0  0  0  0  0  0  0  0  0  0  0  0
    2.7410   -0.3481    1.8926 H   0  0  0  0  0  0  0  0  0  0  0  0
    1.3834    0.4310    3.7173 H   0  0  0  0  0  0  0  0  0  0  0  0
   -0.6879    1.6789    3.2812 H   0  0  0  0  0  0  0  0  0  0  0  0
   -1.3767    2.1292    1.0328 H   0  0  0  0  0  0  0  0  0  0  0  0
   -4.6003    0.7195    1.6423 H   0  0  0  0  0  0  0  0  0  0  0  0
   -3.7611   -1.4491    2.5832 H   0  0  0  0  0  0  0  0  0  0  0  0
   -4.6246   -4.4740    1.6619 H   0  0  0  0  0  0  0  0  0  0  0  0
   -3.1608   -4.3377    0.6438 H   0  0  0  0  0  0  0  0  0  0  0  0
   -3.1145   -3.6349    2.3499 H   0  0  0  0  0  0  0  0  0  0  0  0
   -4.8719   -3.4130   -0.9627 H   0  0  0  0  0  0  0  0  0  0  0  0
   -5.7073   -1.2934   -1.8951 H   0  0  0  0  0  0  0  0  0  0  0  0
  1  2  3  0
  2  3  1  0
  3  4  1  0
  3  5  1  0
  3  6  1  0
  6  7  1  0
  7  8  2  0
  8  9  1  0
  9 10  1  0
 10 11  2  0
 10 12  1  0
 12 13  1  0
 13 14  2  0
 14 15  1  0
 15 16  2  0
 16 17  1  0
 17 18  1  0
 18 19  2  0
 19 20  1  0
 20 21  2  0
 21 22  1  0
 22 23  1  0
 23 24  1  0
 24 25  2  0
 25 26  1  0
 26 27  1  0
 26 28  2  0
 28 29  1  0
 29 30  1  0
 30 31  2  0
 31 32  1  0
 32 33  2  0
 22 34  2  0
 16 35  1  0
 35 36  2  0
 36 37  1  0
 37 38  2  0
 38 39  1  0
 39 40  2  0
  8 41  1  0
 41 42  1  0
 42 43  2  0
 43 44  1  0
 44 45  2  0
 45 46  1  0
 45 47  1  0
 47 48  2  0
 41 49  1  0
 49  6  2  0
 40 13  1  0
 48 42  1  0
 34 18  1  0
 40 35  1  0
 33 24  1  0
 32 28  1  0
  1 50  1  0
  4 51  1  0
  4 52  1  0
  4 53  1  0
  5 54  1  0
  5 55  1  0
  5 56  1  0
  7 57  1  0
  9 58  1  0
 12 59  1  0
 14 60  1  0
 15 61  1  0
 19 62  1  0
 20 63  1  0
 23 64  1  0
 25 65  1  0
 27 66  1  0
 27 67  1  0
 27 68  1  0
 29 69  1  0
 31 70  1  0
 33 71  1  0
 36 72  1  0
 37 73  1  0
 38 74  1  0
 39 75  1  0
 43 76  1  0
 44 77  1  0
 46 78  1  0
 46 79  1  0
 46 80  1  0
 47 81  1  0
 48 82  1  0
M  END
$$$$
