
     RDKit          3D

 30 31  0  0  0  0  0  0  0  0999 V2000
   -1.4279   -1.8230    1.3974 C   0  0  0  0  0  0  0  0  0  0  0  0
   -1.5838   -1.4389   -0.0472 C   0  0  0  0  0  0  0  0  0  0  0  0
   -1.4719    0.0192   -0.2911 C   0  0  0  0  0  0  0  0  0  0  0  0
   -2.5849    0.7675   -0.5188 N   0  0  0  0  0  0  0  0  0  0  0  0
   -2.4954    2.0946   -0.7441 C   0  0  0  0  0  0  0  0  0  0  0  0
   -3.6511    2.8924   -0.9817 N   0  0  0  0  0  0  0  0  0  0  0  0
   -1.2620    2.6320   -0.7321 N   0  0  0  0  0  0  0  0  0  0  0  0
   -0.1299    1.9416   -0.5131 C   0  0  0  0  0  0  0  0  0  0  0  0
    1.1481    2.5206   -0.5070 N   0  0  0  0  0  0  0  0  0  0  0  0
   -0.2138    0.5798   -0.2808 C   0  0  0  0  0  0  0  0  0  0  0  0
    0.9835   -0.2042   -0.0353 C   0  0  0  0  0  0  0  0  0  0  0  0
    1.5345   -0.4142    1.2083 C   0  0  0  0  0  0  0  0  0  0  0  0
    2.6667   -1.1641    1.4277 C   0  0  0  0  0  0  0  0  0  0  0  0
    3.3033   -1.7510    0.3377 C   0  0  0  0  0  0  0  0  0  0  0  0
    4.7507   -2.7147    0.6017 Cl  0  0  0  0  0  0  0  0  0  0  0  0
    2.7772   -1.5593   -0.9178 C   0  0  0  0  0  0  0  0  0  0  0  0
    1.6411   -0.8002   -1.0905 C   0  0  0  0  0  0  0  0  0  0  0  0
   -1.4573   -0.8761    1.9952 H   0  0  0  0  0  0  0  0  0  0  0  0
   -2.2997   -2.4370    1.7558 H   0  0  0  0  0  0  0  0  0  0  0  0
   -0.5061   -2.4193    1.6059 H   0  0  0  0  0  0  0  0  0  0  0  0
   -2.6045   -1.7421   -0.3592 H   0  0  0  0  0  0  0  0  0  0  0  0
   -0.8796   -1.9848   -0.7098 H   0  0  0  0  0  0  0  0  0  0  0  0
   -4.0956    3.4543   -0.2356 H   0  0  0  0  0  0  0  0  0  0  0  0
   -4.0657    2.9163   -1.9290 H   0  0  0  0  0  0  0  0  0  0  0  0
    1.8422    2.3011    0.2281 H   0  0  0  0  0  0  0  0  0  0  0  0
    1.4120    3.1877   -1.2550 H   0  0  0  0  0  0  0  0  0  0  0  0
    1.0490    0.0361    2.0564 H   0  0  0  0  0  0  0  0  0  0  0  0
    3.1031   -1.3347    2.3883 H   0  0  0  0  0  0  0  0  0  0  0  0
    3.2684   -2.0135   -1.7648 H   0  0  0  0  0  0  0  0  0  0  0  0
    1.2492   -0.6659   -2.0895 H   0  0  0  0  0  0  0  0  0  0  0  0
  1  2  1  0
  2  3  1  0
  3  4  2  0
  4  5  1  0
  5  6  1  0
  5  7  2  0
  7  8  1  0
  8  9  1  0
  8 10  2  0
 10 11  1  0
 11 12  2  0
 12 13  1  0
 13 14  2  0
 14 15  1  0
 14 16  1  0
 16 17  2  0
 10  3  1  0
 17 11  1  0
  1 18  1  0
  1 19  1  0
  1 20  1  0
  2 21  1  0
  2 22  1  0
  6 23  1  0
  6 24  1  0
  9 25  1  0
  9 26  1  0
 12 27  1  0
 13 28  1  0
 16 29  1  0
 17 30  1  0
M  END
$$$$
