
     RDKit          3D

 56 60  0  0  0  0  0  0  0  0999 V2000
    9.5278    0.7196    0.9804 C   0  0  0  0  0  0  0  0  0  0  0  0
    8.2324    0.0154    0.5855 C   0  0  0  0  0  0  0  0  0  0  0  0
    7.1205    0.8325    0.9005 O   0  0  0  0  0  0  0  0  0  0  0  0
    5.8543    0.3885    0.6268 C   0  0  0  0  0  0  0  0  0  0  0  0
    5.5743   -0.8440    0.0446 C   0  0  0  0  0  0  0  0  0  0  0  0
    4.2787   -1.2503   -0.2133 C   0  0  0  0  0  0  0  0  0  0  0  0
    3.2185   -0.4301    0.1059 C   0  0  0  0  0  0  0  0  0  0  0  0
    1.9094   -0.7794   -0.1265 C   0  0  0  0  0  0  0  0  0  0  0  0
    0.8618    0.0502    0.1967 C   0  0  0  0  0  0  0  0  0  0  0  0
   -0.5329   -0.2552   -0.0505 C   0  0  0  0  0  0  0  0  0  0  0  0
   -1.4834   -0.1917    0.8858 N   0  0  0  0  0  0  0  0  0  0  0  0
   -2.6548   -0.5149    0.3310 N   0  0  0  0  0  0  0  0  0  0  0  0
   -3.9204   -0.5375    1.0740 C   0  0  0  0  0  0  0  0  0  0  0  0
   -4.6107    0.7805    1.1187 C   0  0  0  0  0  0  0  0  0  0  0  0
   -4.9731    1.3102   -0.2445 C   0  0  0  0  0  0  0  0  0  0  0  0
   -6.1272    0.6203   -0.8929 C   0  0  0  0  0  0  0  0  0  0  0  0
   -7.2754    0.4526   -0.0245 N   0  0  0  0  0  0  0  0  0  0  0  0
   -6.8939   -0.0886    1.2674 C   0  0  0  0  0  0  0  0  0  0  0  0
   -5.8699    0.7500    1.9575 C   0  0  0  0  0  0  0  0  0  0  0  0
   -2.4611   -0.7858   -0.9595 C   0  0  0  0  0  0  0  0  0  0  0  0
   -3.2972   -1.1548   -1.9533 N   0  0  0  0  0  0  0  0  0  0  0  0
   -2.8127   -1.3587   -3.1809 C   0  0  0  0  0  0  0  0  0  0  0  0
   -1.5093   -1.2068   -3.4614 N   0  0  0  0  0  0  0  0  0  0  0  0
   -0.6504   -0.8450   -2.5129 C   0  0  0  0  0  0  0  0  0  0  0  0
    0.7223   -0.6605   -2.8109 N   0  0  0  0  0  0  0  0  0  0  0  0
   -1.0987   -0.6234   -1.2270 C   0  0  0  0  0  0  0  0  0  0  0  0
    1.1495    1.2745    0.7761 C   0  0  0  0  0  0  0  0  0  0  0  0
    2.4459    1.6447    1.0179 C   0  0  0  0  0  0  0  0  0  0  0  0
    3.4957    0.8015    0.6876 C   0  0  0  0  0  0  0  0  0  0  0  0
    4.7768    1.1912    0.9370 C   0  0  0  0  0  0  0  0  0  0  0  0
    9.8830    0.3641    1.9774 H   0  0  0  0  0  0  0  0  0  0  0  0
    9.3610    1.8170    0.9980 H   0  0  0  0  0  0  0  0  0  0  0  0
   10.3276    0.4990    0.2390 H   0  0  0  0  0  0  0  0  0  0  0  0
    8.2446   -0.2385   -0.5074 H   0  0  0  0  0  0  0  0  0  0  0  0
    8.1670   -0.9165    1.2028 H   0  0  0  0  0  0  0  0  0  0  0  0
    6.4110   -1.4642   -0.1948 H   0  0  0  0  0  0  0  0  0  0  0  0
    4.0887   -2.2142   -0.6670 H   0  0  0  0  0  0  0  0  0  0  0  0
    1.7150   -1.7438   -0.5578 H   0  0  0  0  0  0  0  0  0  0  0  0
   -3.6638   -0.8306    2.1098 H   0  0  0  0  0  0  0  0  0  0  0  0
   -4.6085   -1.2734    0.5966 H   0  0  0  0  0  0  0  0  0  0  0  0
   -3.9122    1.5359    1.5697 H   0  0  0  0  0  0  0  0  0  0  0  0
   -5.2284    2.3970   -0.1419 H   0  0  0  0  0  0  0  0  0  0  0  0
   -4.1161    1.2899   -0.9534 H   0  0  0  0  0  0  0  0  0  0  0  0
   -5.8811   -0.3250   -1.4125 H   0  0  0  0  0  0  0  0  0  0  0  0
   -6.4833    1.3073   -1.7174 H   0  0  0  0  0  0  0  0  0  0  0  0
   -7.9032   -0.2466   -0.4788 H   0  0  0  0  0  0  0  0  0  0  0  0
   -7.8165   -0.0893    1.8895 H   0  0  0  0  0  0  0  0  0  0  0  0
   -6.5856   -1.1580    1.1866 H   0  0  0  0  0  0  0  0  0  0  0  0
   -5.6915    0.3168    2.9598 H   0  0  0  0  0  0  0  0  0  0  0  0
   -6.2523    1.7879    2.0043 H   0  0  0  0  0  0  0  0  0  0  0  0
   -3.4461   -1.6585   -4.0198 H   0  0  0  0  0  0  0  0  0  0  0  0
    1.3716   -1.4147   -3.1063 H   0  0  0  0  0  0  0  0  0  0  0  0
    1.0992    0.3042   -2.7250 H   0  0  0  0  0  0  0  0  0  0  0  0
    0.3439    1.9329    1.0349 H   0  0  0  0  0  0  0  0  0  0  0  0
    2.6548    2.6222    1.4794 H   0  0  0  0  0  0  0  0  0  0  0  0
    4.9244    2.1786    1.3993 H   0  0  0  0  0  0  0  0  0  0  0  0
  1  2  1  0
  2  3  1  0
  3  4  1  0
  4  5  2  0
  5  6  1  0
  6  7  2  0
  7  8  1  0
  8  9  2  0
  9 10  1  0
 10 11  2  0
 11 12  1  0
 12 13  1  0
 13 14  1  0
 14 15  1  0
 15 16  1  0
 16 17  1  0
 17 18  1  0
 18 19  1  0
 12 20  1  0
 20 21  2  0
 21 22  1  0
 22 23  2  0
 23 24  1  0
 24 25  1  0
 24 26  2  0
  9 27  1  0
 27 28  2  0
 28 29  1  0
 29 30  2  0
 30  4  1  0
 29  7  1  0
 26 10  1  0
 19 14  1  0
 26 20  1  0
  1 31  1  0
  1 32  1  0
  1 33  1  0
  2 34  1  0
  2 35  1  0
  5 36  1  0
  6 37  1  0
  8 38  1  0
 13 39  1  0
 13 40  1  0
 14 41  1  0
 15 42  1  0
 15 43  1  0
 16 44  1  0
 16 45  1  0
 17 46  1  0
 18 47  1  0
 18 48  1  0
 19 49  1  0
 19 50  1  0
 22 51  1  0
 25 52  1  0
 25 53  1  0
 27 54  1  0
 28 55  1  0
 30 56  1  0
M  END
$$$$
