
     RDKit          3D

 43 46  0  0  0  0  0  0  0  0999 V2000
   -0.6530    2.6547   -1.4328 C   0  0  0  0  0  0  0  0  0  0  0  0
   -1.5900    2.0122   -0.4316 C   0  0  0  0  0  0  0  0  0  0  0  0
   -1.2286    1.0909    0.3810 C   0  0  0  0  0  0  0  0  0  0  0  0
    0.1052    0.5412    0.4898 C   0  0  0  0  0  0  0  0  0  0  0  0
    0.2111   -0.4080    1.4116 O   0  0  0  0  0  0  0  0  0  0  0  0
    1.2841    0.8088   -0.1721 N   0  0  0  0  0  0  0  0  0  0  0  0
    2.5636    0.1768    0.0315 C   0  0  0  0  0  0  0  0  0  0  0  0
    2.7419   -0.8045    0.9443 C   0  0  0  0  0  0  0  0  0  0  0  0
    4.0227   -1.3621    1.0751 C   0  0  0  0  0  0  0  0  0  0  0  0
    5.0801   -0.9560    0.3252 C   0  0  0  0  0  0  0  0  0  0  0  0
    6.3863   -1.3255    0.2613 N   0  0  0  0  0  0  0  0  0  0  0  0
    7.0183   -0.6125   -0.6525 N   0  0  0  0  0  0  0  0  0  0  0  0
    6.1278    0.2308   -1.1944 C   0  0  0  0  0  0  0  0  0  0  0  0
    4.8955    0.0460   -0.6061 C   0  0  0  0  0  0  0  0  0  0  0  0
    3.6514    0.5919   -0.7372 C   0  0  0  0  0  0  0  0  0  0  0  0
   -2.3193    0.3876    1.1856 C   0  0  0  0  0  0  0  0  0  0  0  0
   -2.8046   -0.8130    0.5428 C   0  0  0  0  0  0  0  0  0  0  0  0
   -3.6806   -0.7350   -0.5182 C   0  0  0  0  0  0  0  0  0  0  0  0
   -4.1682   -1.8799   -1.1449 C   0  0  0  0  0  0  0  0  0  0  0  0
   -3.7843   -3.1202   -0.7163 C   0  0  0  0  0  0  0  0  0  0  0  0
   -4.2900   -4.2233   -1.3638 F   0  0  0  0  0  0  0  0  0  0  0  0
   -2.9206   -3.2205    0.3295 C   0  0  0  0  0  0  0  0  0  0  0  0
   -2.4423   -2.0587    0.9454 C   0  0  0  0  0  0  0  0  0  0  0  0
   -3.3183    1.3176    1.5578 N   0  0  0  0  0  0  0  0  0  0  0  0
   -3.7506    2.3119    0.6547 C   0  0  0  0  0  0  0  0  0  0  0  0
   -4.9111    2.8309    0.7988 O   0  0  0  0  0  0  0  0  0  0  0  0
   -2.8859    2.6991   -0.3773 N   0  0  0  0  0  0  0  0  0  0  0  0
   -1.2406    3.3835   -2.0721 H   0  0  0  0  0  0  0  0  0  0  0  0
   -0.2980    1.9234   -2.1772 H   0  0  0  0  0  0  0  0  0  0  0  0
    0.0788    3.2773   -0.9313 H   0  0  0  0  0  0  0  0  0  0  0  0
    1.2992    1.5506   -0.9059 H   0  0  0  0  0  0  0  0  0  0  0  0
    2.0150   -1.2299    1.6038 H   0  0  0  0  0  0  0  0  0  0  0  0
    4.1535   -2.1460    1.8081 H   0  0  0  0  0  0  0  0  0  0  0  0
    6.7894   -2.0809    0.8765 H   0  0  0  0  0  0  0  0  0  0  0  0
    6.3515    0.9398   -1.9699 H   0  0  0  0  0  0  0  0  0  0  0  0
    3.5105    1.3692   -1.4605 H   0  0  0  0  0  0  0  0  0  0  0  0
   -1.7905    0.0990    2.1317 H   0  0  0  0  0  0  0  0  0  0  0  0
   -4.0153    0.1934   -0.8963 H   0  0  0  0  0  0  0  0  0  0  0  0
   -4.8635   -1.7934   -1.9863 H   0  0  0  0  0  0  0  0  0  0  0  0
   -2.6274   -4.2070    0.6557 H   0  0  0  0  0  0  0  0  0  0  0  0
   -1.7816   -2.1963    1.7544 H   0  0  0  0  0  0  0  0  0  0  0  0
   -3.7806    1.2987    2.5407 H   0  0  0  0  0  0  0  0  0  0  0  0
   -3.1412    3.4373   -1.0788 H   0  0  0  0  0  0  0  0  0  0  0  0
  1  2  1  0
  2  3  2  0
  3  4  1  0
  4  5  2  0
  4  6  1  0
  6  7  1  0
  7  8  2  0
  8  9  1  0
  9 10  2  0
 10 11  1  0
 11 12  1  0
 12 13  2  0
 13 14  1  0
 14 15  2  0
  3 16  1  0
 16 17  1  0
 17 18  2  0
 18 19  1  0
 19 20  2  0
 20 21  1  0
 20 22  1  0
 22 23  2  0
 16 24  1  0
 24 25  1  0
 25 26  2  0
 25 27  1  0
 27  2  1  0
 15  7  1  0
 23 17  1  0
 14 10  1  0
  1 28  1  0
  1 29  1  0
  1 30  1  0
  6 31  1  0
  8 32  1  0
  9 33  1  0
 11 34  1  0
 13 35  1  0
 15 36  1  0
 16 37  1  0
 18 38  1  0
 19 39  1  0
 22 40  1  0
 23 41  1  0
 24 42  1  0
 27 43  1  0
M  END
$$$$
