
     RDKit          3D

 51 55  0  0  0  0  0  0  0  0999 V2000
   -1.9234    2.9949    1.3204 O   0  0  0  0  0  0  0  0  0  0  0  0
   -1.7996    1.9018    0.7191 C   0  0  0  0  0  0  0  0  0  0  0  0
   -2.9254    1.3153    0.0373 N   0  0  0  0  0  0  0  0  0  0  0  0
   -4.1927    2.0112    0.0620 C   0  0  0  0  0  0  0  0  0  0  0  0
   -5.1073    2.0083   -1.1087 C   0  0  0  0  0  0  0  0  0  0  0  0
   -5.4840    1.2356    0.0790 C   0  0  0  0  0  0  0  0  0  0  0  0
   -5.4739   -0.2431    0.1139 C   0  0  0  0  0  0  0  0  0  0  0  0
   -6.0227   -0.9289    1.1792 C   0  0  0  0  0  0  0  0  0  0  0  0
   -6.0085   -2.3279    1.1731 C   0  0  0  0  0  0  0  0  0  0  0  0
   -5.4517   -3.0028    0.1127 C   0  0  0  0  0  0  0  0  0  0  0  0
   -4.9012   -2.3358   -0.9561 C   0  0  0  0  0  0  0  0  0  0  0  0
   -4.9285   -0.9445   -0.9249 C   0  0  0  0  0  0  0  0  0  0  0  0
   -0.5481    1.2193    0.6974 N   0  0  0  0  0  0  0  0  0  0  0  0
    0.6283    1.7450    1.3589 C   0  0  0  0  0  0  0  0  0  0  0  0
    1.7700    1.9676    0.3888 C   0  0  0  0  0  0  0  0  0  0  0  0
    1.8437    0.8268   -0.5963 C   0  0  0  0  0  0  0  0  0  0  0  0
    3.2114    0.3926   -0.8888 C   0  0  0  0  0  0  0  0  0  0  0  0
    4.1516   -0.1031   -0.0451 N   0  0  0  0  0  0  0  0  0  0  0  0
    5.2679   -0.3726   -0.7339 C   0  0  0  0  0  0  0  0  0  0  0  0
    6.5328   -0.9157   -0.2544 C   0  0  0  0  0  0  0  0  0  0  0  0
    6.5704   -2.0673    0.4972 C   0  0  0  0  0  0  0  0  0  0  0  0
    7.7446   -2.5309    0.9160 N   0  0  0  0  0  0  0  0  0  0  0  0
    8.9069   -1.8987    0.6220 C   0  0  0  0  0  0  0  0  0  0  0  0
    8.8936   -0.7449   -0.1286 C   0  0  0  0  0  0  0  0  0  0  0  0
    7.7037   -0.2800   -0.5498 N   0  0  0  0  0  0  0  0  0  0  0  0
    4.9733   -0.0282   -2.0003 N   0  0  0  0  0  0  0  0  0  0  0  0
    3.7635    0.4193   -2.0777 O   0  0  0  0  0  0  0  0  0  0  0  0
    1.0602   -0.3776   -0.1253 C   0  0  0  0  0  0  0  0  0  0  0  0
   -0.4139   -0.0369    0.0041 C   0  0  0  0  0  0  0  0  0  0  0  0
   -2.7549    0.4085   -0.4399 H   0  0  0  0  0  0  0  0  0  0  0  0
   -4.1950    2.9823    0.6435 H   0  0  0  0  0  0  0  0  0  0  0  0
   -4.7422    1.5583   -2.0527 H   0  0  0  0  0  0  0  0  0  0  0  0
   -5.6930    2.9499   -1.3302 H   0  0  0  0  0  0  0  0  0  0  0  0
   -6.2666    1.7053    0.7573 H   0  0  0  0  0  0  0  0  0  0  0  0
   -6.4554   -0.3982    2.0032 H   0  0  0  0  0  0  0  0  0  0  0  0
   -6.4320   -2.8634    1.9952 H   0  0  0  0  0  0  0  0  0  0  0  0
   -5.4412   -4.0913    0.1089 H   0  0  0  0  0  0  0  0  0  0  0  0
   -4.4757   -2.8854   -1.7658 H   0  0  0  0  0  0  0  0  0  0  0  0
   -4.5064   -0.4242   -1.7646 H   0  0  0  0  0  0  0  0  0  0  0  0
    0.9671    1.0511    2.1797 H   0  0  0  0  0  0  0  0  0  0  0  0
    0.3393    2.7279    1.8094 H   0  0  0  0  0  0  0  0  0  0  0  0
    1.5998    2.9442   -0.1109 H   0  0  0  0  0  0  0  0  0  0  0  0
    2.6904    2.0647    0.9950 H   0  0  0  0  0  0  0  0  0  0  0  0
    1.3640    1.1746   -1.5286 H   0  0  0  0  0  0  0  0  0  0  0  0
    5.6181   -2.5519    0.7165 H   0  0  0  0  0  0  0  0  0  0  0  0
    9.8732   -2.2815    0.9675 H   0  0  0  0  0  0  0  0  0  0  0  0
    9.8014   -0.2105   -0.3847 H   0  0  0  0  0  0  0  0  0  0  0  0
    1.4776   -0.8186    0.7938 H   0  0  0  0  0  0  0  0  0  0  0  0
    1.1372   -1.1418   -0.9257 H   0  0  0  0  0  0  0  0  0  0  0  0
   -0.9126   -0.8496    0.5562 H   0  0  0  0  0  0  0  0  0  0  0  0
   -0.8341    0.0506   -1.0240 H   0  0  0  0  0  0  0  0  0  0  0  0
  1  2  2  0
  2  3  1  0
  3  4  1  0
  4  5  1  0
  5  6  1  0
  6  7  1  0
  7  8  2  0
  8  9  1  0
  9 10  2  0
 10 11  1  0
 11 12  2  0
  2 13  1  0
 13 14  1  0
 14 15  1  0
 15 16  1  0
 16 17  1  0
 17 18  2  0
 18 19  1  0
 19 20  1  0
 20 21  2  0
 21 22  1  0
 22 23  2  0
 23 24  1  0
 24 25  2  0
 19 26  2  0
 26 27  1  0
 16 28  1  0
 28 29  1  0
  6  4  1  0
 12  7  1  0
 29 13  1  0
 27 17  1  0
 25 20  1  0
  3 30  1  0
  4 31  1  0
  5 32  1  0
  5 33  1  0
  6 34  1  0
  8 35  1  0
  9 36  1  0
 10 37  1  0
 11 38  1  0
 12 39  1  0
 14 40  1  0
 14 41  1  0
 15 42  1  0
 15 43  1  0
 16 44  1  0
 21 45  1  0
 23 46  1  0
 24 47  1  0
 28 48  1  0
 28 49  1  0
 29 50  1  0
 29 51  1  0
M  END
$$$$
