
     RDKit          3D

 24 25  0  0  0  0  0  0  0  0999 V2000
   -0.7073   -0.9704    2.2453 C   0  0  0  0  0  0  0  0  0  0  0  0
   -1.2313   -0.5995    0.8971 C   0  0  0  0  0  0  0  0  0  0  0  0
   -2.5043   -0.7833    0.4421 N   0  0  0  0  0  0  0  0  0  0  0  0
   -2.5529   -0.3148   -0.8117 C   0  0  0  0  0  0  0  0  0  0  0  0
   -1.3344    0.1484   -1.1227 N   0  0  0  0  0  0  0  0  0  0  0  0
   -0.5176   -0.0170   -0.0941 N   0  0  0  0  0  0  0  0  0  0  0  0
    0.8562    0.3619   -0.0727 C   0  0  0  0  0  0  0  0  0  0  0  0
    1.7241   -0.7252   -0.0105 C   0  0  0  0  0  0  0  0  0  0  0  0
    3.0841   -0.5856    0.0194 C   0  0  0  0  0  0  0  0  0  0  0  0
    4.1784   -1.9689    0.0983 Cl  0  0  0  0  0  0  0  0  0  0  0  0
    3.6078    0.6999   -0.0143 C   0  0  0  0  0  0  0  0  0  0  0  0
    2.7670    1.7913   -0.0760 C   0  0  0  0  0  0  0  0  0  0  0  0
    3.3494    3.4586   -0.1222 Cl  0  0  0  0  0  0  0  0  0  0  0  0
    1.3895    1.6367   -0.1057 C   0  0  0  0  0  0  0  0  0  0  0  0
   -3.7416   -0.3335   -1.6342 C   0  0  0  0  0  0  0  0  0  0  0  0
   -3.8069    0.1450   -2.9258 O   0  0  0  0  0  0  0  0  0  0  0  0
   -4.7956   -0.8317   -1.1112 O   0  0  0  0  0  0  0  0  0  0  0  0
   -1.2681   -1.8721    2.5880 H   0  0  0  0  0  0  0  0  0  0  0  0
   -0.9326   -0.1661    2.9990 H   0  0  0  0  0  0  0  0  0  0  0  0
    0.3792   -1.1824    2.1968 H   0  0  0  0  0  0  0  0  0  0  0  0
    1.3928   -1.7586    0.0189 H   0  0  0  0  0  0  0  0  0  0  0  0
    4.6845    0.8717    0.0071 H   0  0  0  0  0  0  0  0  0  0  0  0
    0.6446    2.4199   -0.1536 H   0  0  0  0  0  0  0  0  0  0  0  0
   -4.6650    0.5757   -3.2572 H   0  0  0  0  0  0  0  0  0  0  0  0
  1  2  1  0
  2  3  2  0
  3  4  1  0
  4  5  2  0
  5  6  1  0
  6  7  1  0
  7  8  2  0
  8  9  1  0
  9 10  1  0
  9 11  2  0
 11 12  1  0
 12 13  1  0
 12 14  2  0
  4 15  1  0
 15 16  1  0
 15 17  2  0
  6  2  1  0
 14  7  1  0
  1 18  1  0
  1 19  1  0
  1 20  1  0
  8 21  1  0
 11 22  1  0
 14 23  1  0
 16 24  1  0
M  END
$$$$
