
     RDKit          3D

101105  0  0  0  0  0  0  0  0999 V2000
    6.7030    1.7175    4.3103 C   0  0  0  0  0  0  0  0  0  0  0  0
    6.8304    0.7880    3.1290 C   0  0  0  0  0  0  0  0  0  0  0  0
    7.7259    1.4422    2.1125 C   0  0  0  0  0  0  0  0  0  0  0  0
    5.5989    0.3791    2.6087 O   0  0  0  0  0  0  0  0  0  0  0  0
    5.1459   -0.9252    2.5595 C   0  0  0  0  0  0  0  0  0  0  0  0
    5.9642   -1.7699    3.0438 O   0  0  0  0  0  0  0  0  0  0  0  0
    3.8712   -1.3969    2.0284 C   0  0  2  0  0  0  0  0  0  0  0  0
    3.7964   -2.7932    2.2716 O   0  0  0  0  0  0  0  0  0  0  0  0
    3.6696   -1.1422    0.5381 C   0  0  2  0  0  0  0  0  0  0  0  0
    3.8640    0.2709    0.1340 C   0  0  0  0  0  0  0  0  0  0  0  0
    3.7239    0.5918   -1.3089 C   0  0  0  0  0  0  0  0  0  0  0  0
    4.7480   -0.1502   -2.1548 C   0  0  0  0  0  0  0  0  0  0  0  0
    4.6949    0.2698   -3.5788 C   0  0  0  0  0  0  0  0  0  0  0  0
    4.6516    1.7699   -3.7613 C   0  0  0  0  0  0  0  0  0  0  0  0
    4.9996    2.4260   -2.4433 C   0  0  0  0  0  0  0  0  0  0  0  0
    3.8682    2.0950   -1.4830 C   0  0  0  0  0  0  0  0  0  0  0  0
    2.3663   -1.6509    0.1537 N   0  0  0  0  0  0  0  0  0  0  0  0
    1.1958   -0.8783    0.0785 C   0  0  0  0  0  0  0  0  0  0  0  0
    1.1948    0.3630    0.3618 O   0  0  0  0  0  0  0  0  0  0  0  0
   -0.0775   -1.5399   -0.3364 C   0  0  2  0  0  0  0  0  0  0  0  0
   -0.0923   -1.8927   -1.7937 C   0  0  0  0  0  0  0  0  0  0  0  0
    0.9584   -2.8120   -2.2541 C   0  0  0  0  0  0  0  0  0  0  0  0
    0.7941   -4.1947   -2.2266 C   0  0  0  0  0  0  0  0  0  0  0  0
    1.9331   -4.7080   -2.7142 N   0  0  0  0  0  0  0  0  0  0  0  0
    2.7528   -3.7025   -3.0243 C   0  0  0  0  0  0  0  0  0  0  0  0
    2.1772   -2.5308   -2.7515 N   0  0  0  0  0  0  0  0  0  0  0  0
   -1.1949   -0.6192   -0.1346 N   0  0  0  0  0  0  0  0  0  0  0  0
   -2.1608   -0.9347    0.8421 C   0  0  0  0  0  0  0  0  0  0  0  0
   -2.0103   -1.9976    1.4970 O   0  0  0  0  0  0  0  0  0  0  0  0
   -3.3340   -0.0582    1.1158 C   0  0  1  0  0  0  0  0  0  0  0  0
   -2.8864    1.3473    1.4833 C   0  0  0  0  0  0  0  0  0  0  0  0
   -4.0968    2.1674    1.7408 C   0  0  0  0  0  0  0  0  0  0  0  0
   -4.6882    1.9569    2.8292 O   0  0  0  0  0  0  0  0  0  0  0  0
   -4.5808    3.1333    0.8389 N   0  0  0  0  0  0  0  0  0  0  0  0
   -3.9584    3.4346   -0.4290 C   0  0  0  0  0  0  0  0  0  0  0  0
   -4.5498    4.7705   -0.8977 C   0  0  0  0  0  0  0  0  0  0  0  0
   -4.5177    5.6576    0.1587 O   0  0  0  0  0  0  0  0  0  0  0  0
   -5.4569    5.3765    1.1400 C   0  0  0  0  0  0  0  0  0  0  0  0
   -5.7706    3.8879    1.1706 C   0  0  0  0  0  0  0  0  0  0  0  0
   -4.2925   -0.0164   -0.0303 C   0  0  0  0  0  0  0  0  0  0  0  0
   -4.8807   -1.3009   -0.4075 C   0  0  0  0  0  0  0  0  0  0  0  0
   -4.4054   -2.0484   -1.4666 C   0  0  0  0  0  0  0  0  0  0  0  0
   -4.9027   -3.2636   -1.8427 C   0  0  0  0  0  0  0  0  0  0  0  0
   -5.9439   -3.7795   -1.1231 C   0  0  0  0  0  0  0  0  0  0  0  0
   -6.4669   -3.0697   -0.0426 C   0  0  0  0  0  0  0  0  0  0  0  0
   -7.5332   -3.6494    0.6442 C   0  0  0  0  0  0  0  0  0  0  0  0
   -8.0635   -2.9529    1.7089 C   0  0  0  0  0  0  0  0  0  0  0  0
   -7.5581   -1.7307    2.0794 C   0  0  0  0  0  0  0  0  0  0  0  0
   -6.5048   -1.1858    1.3809 C   0  0  0  0  0  0  0  0  0  0  0  0
   -5.9465   -1.8472    0.3140 C   0  0  0  0  0  0  0  0  0  0  0  0
    5.8211    2.3966    4.2227 H   0  0  0  0  0  0  0  0  0  0  0  0
    6.5800    1.1731    5.2742 H   0  0  0  0  0  0  0  0  0  0  0  0
    7.6075    2.3481    4.4329 H   0  0  0  0  0  0  0  0  0  0  0  0
    7.3570   -0.1222    3.4844 H   0  0  0  0  0  0  0  0  0  0  0  0
    7.1922    2.1679    1.4654 H   0  0  0  0  0  0  0  0  0  0  0  0
    8.3199    0.7058    1.5232 H   0  0  0  0  0  0  0  0  0  0  0  0
    8.4742    2.0439    2.6838 H   0  0  0  0  0  0  0  0  0  0  0  0
    2.9747   -0.9722    2.5285 H   0  0  0  0  0  0  0  0  0  0  0  0
    4.1325   -3.0186    3.1542 H   0  0  0  0  0  0  0  0  0  0  0  0
    4.4078   -1.8185    0.0061 H   0  0  0  0  0  0  0  0  0  0  0  0
    4.9419    0.5779    0.4376 H   0  0  0  0  0  0  0  0  0  0  0  0
    3.2666    0.9666    0.7385 H   0  0  0  0  0  0  0  0  0  0  0  0
    2.7457    0.3195   -1.7383 H   0  0  0  0  0  0  0  0  0  0  0  0
    4.5083   -1.2231   -2.0934 H   0  0  0  0  0  0  0  0  0  0  0  0
    5.7811    0.0719   -1.7740 H   0  0  0  0  0  0  0  0  0  0  0  0
    3.8834   -0.1992   -4.1431 H   0  0  0  0  0  0  0  0  0  0  0  0
    5.6526   -0.0657   -4.0748 H   0  0  0  0  0  0  0  0  0  0  0  0
    3.6007    2.0335   -3.9987 H   0  0  0  0  0  0  0  0  0  0  0  0
    5.2808    2.1344   -4.5778 H   0  0  0  0  0  0  0  0  0  0  0  0
    5.9789    2.1160   -2.0465 H   0  0  0  0  0  0  0  0  0  0  0  0
    4.9463    3.5316   -2.6143 H   0  0  0  0  0  0  0  0  0  0  0  0
    4.1299    2.5884   -0.5170 H   0  0  0  0  0  0  0  0  0  0  0  0
    2.9572    2.5790   -1.8432 H   0  0  0  0  0  0  0  0  0  0  0  0
    2.2702   -2.7078   -0.0735 H   0  0  0  0  0  0  0  0  0  0  0  0
   -0.1472   -2.4544    0.2602 H   0  0  0  0  0  0  0  0  0  0  0  0
   -1.1151   -2.2550   -2.0759 H   0  0  0  0  0  0  0  0  0  0  0  0
    0.0155   -0.9347   -2.4001 H   0  0  0  0  0  0  0  0  0  0  0  0
   -0.0920   -4.7277   -1.8745 H   0  0  0  0  0  0  0  0  0  0  0  0
    2.0857   -5.7491   -2.8087 H   0  0  0  0  0  0  0  0  0  0  0  0
    3.7480   -3.8086   -3.4416 H   0  0  0  0  0  0  0  0  0  0  0  0
   -1.2460    0.2313   -0.7086 H   0  0  0  0  0  0  0  0  0  0  0  0
   -3.8306   -0.4550    2.0152 H   0  0  0  0  0  0  0  0  0  0  0  0
   -2.2438    1.7892    0.7017 H   0  0  0  0  0  0  0  0  0  0  0  0
   -2.3187    1.2723    2.4399 H   0  0  0  0  0  0  0  0  0  0  0  0
   -4.2390    2.6491   -1.1687 H   0  0  0  0  0  0  0  0  0  0  0  0
   -2.8697    3.4994   -0.4014 H   0  0  0  0  0  0  0  0  0  0  0  0
   -3.9692    5.1965   -1.7372 H   0  0  0  0  0  0  0  0  0  0  0  0
   -5.6032    4.5672   -1.2218 H   0  0  0  0  0  0  0  0  0  0  0  0
   -6.3747    5.9523    0.9148 H   0  0  0  0  0  0  0  0  0  0  0  0
   -5.0872    5.6241    2.1614 H   0  0  0  0  0  0  0  0  0  0  0  0
   -6.1704    3.5808    2.1751 H   0  0  0  0  0  0  0  0  0  0  0  0
   -6.5293    3.6796    0.3789 H   0  0  0  0  0  0  0  0  0  0  0  0
   -5.0523    0.7776    0.1045 H   0  0  0  0  0  0  0  0  0  0  0  0
   -3.6914    0.3349   -0.9230 H   0  0  0  0  0  0  0  0  0  0  0  0
   -3.5754   -1.6289   -2.0332 H   0  0  0  0  0  0  0  0  0  0  0  0
   -4.5114   -3.8419   -2.6870 H   0  0  0  0  0  0  0  0  0  0  0  0
   -6.3681   -4.7527   -1.3972 H   0  0  0  0  0  0  0  0  0  0  0  0
   -7.9339   -4.6164    0.3516 H   0  0  0  0  0  0  0  0  0  0  0  0
   -8.8898   -3.3952    2.2459 H   0  0  0  0  0  0  0  0  0  0  0  0
   -8.0318   -1.2388    2.9338 H   0  0  0  0  0  0  0  0  0  0  0  0
   -6.1241   -0.2262    1.6694 H   0  0  0  0  0  0  0  0  0  0  0  0
  1  2  1  0
  2  3  1  0
  2  4  1  0
  4  5  1  0
  5  6  2  0
  5  7  1  0
  7  8  1  0
  7  9  1  0
  9 10  1  0
 10 11  1  0
 11 12  1  0
 12 13  1  0
 13 14  1  0
 14 15  1  0
 15 16  1  0
  9 17  1  0
 17 18  1  0
 18 19  2  0
 18 20  1  0
 20 21  1  0
 21 22  1  0
 22 23  2  0
 23 24  1  0
 24 25  1  0
 25 26  2  0
 20 27  1  0
 27 28  1  0
 28 29  2  0
 28 30  1  0
 30 31  1  0
 31 32  1  0
 32 33  2  0
 32 34  1  0
 34 35  1  0
 35 36  1  0
 36 37  1  0
 37 38  1  0
 38 39  1  0
 30 40  1  0
 40 41  1  0
 41 42  2  0
 42 43  1  0
 43 44  2  0
 44 45  1  0
 45 46  2  0
 46 47  1  0
 47 48  2  0
 48 49  1  0
 49 50  2  0
 16 11  1  0
 26 22  1  0
 39 34  1  0
 50 41  1  0
 50 45  1  0
  1 51  1  0
  1 52  1  0
  1 53  1  0
  2 54  1  0
  3 55  1  0
  3 56  1  0
  3 57  1  0
  7 58  1  1
  8 59  1  0
  9 60  1  6
 10 61  1  0
 10 62  1  0
 11 63  1  0
 12 64  1  0
 12 65  1  0
 13 66  1  0
 13 67  1  0
 14 68  1  0
 14 69  1  0
 15 70  1  0
 15 71  1  0
 16 72  1  0
 16 73  1  0
 17 74  1  0
 20 75  1  1
 21 76  1  0
 21 77  1  0
 23 78  1  0
 24 79  1  0
 25 80  1  0
 27 81  1  0
 30 82  1  1
 31 83  1  0
 31 84  1  0
 35 85  1  0
 35 86  1  0
 36 87  1  0
 36 88  1  0
 38 89  1  0
 38 90  1  0
 39 91  1  0
 39 92  1  0
 40 93  1  0
 40 94  1  0
 42 95  1  0
 43 96  1  0
 44 97  1  0
 46 98  1  0
 47 99  1  0
 48100  1  0
 49101  1  0
M  END
$$$$
