
     RDKit          3D

 47 49  0  0  0  0  0  0  0  0999 V2000
    7.9583    1.8125    0.0377 N   0  0  0  0  0  0  0  0  0  0  0  0
    7.6350    0.5785   -1.1206 S   0  0  0  0  0  0  0  0  0  0  0  0
    8.0977    1.0112   -2.4868 O   0  0  0  0  0  0  0  0  0  0  0  0
    8.3226   -0.7155   -0.7779 O   0  0  0  0  0  0  0  0  0  0  0  0
    5.9128    0.2929   -1.1094 C   0  0  0  0  0  0  0  0  0  0  0  0
    5.3550   -0.6413   -0.2727 C   0  0  0  0  0  0  0  0  0  0  0  0
    3.9996   -0.8613   -0.2686 C   0  0  0  0  0  0  0  0  0  0  0  0
    3.1215   -0.1778   -1.0836 C   0  0  0  0  0  0  0  0  0  0  0  0
    3.6905    0.7476   -1.9099 C   0  0  0  0  0  0  0  0  0  0  0  0
    5.0495    0.9682   -1.9140 C   0  0  0  0  0  0  0  0  0  0  0  0
    1.6787   -0.3602   -1.1306 C   0  0  0  0  0  0  0  0  0  0  0  0
    1.0094    0.3435   -1.9324 O   0  0  0  0  0  0  0  0  0  0  0  0
    0.8955   -1.2457   -0.3778 N   0  0  0  0  0  0  0  0  0  0  0  0
   -0.4106   -1.6941   -0.1232 C   0  0  0  0  0  0  0  0  0  0  0  0
   -1.2987   -0.6350    0.4666 C   0  0  1  0  0  0  0  0  0  0  0  0
   -1.5175    0.5734   -0.3452 C   0  0  0  0  0  0  0  0  0  0  0  0
   -2.5694   -1.3635    0.8815 C   0  0  0  0  0  0  0  0  0  0  0  0
   -3.5610   -0.5212    1.4616 N   0  0  0  0  0  0  0  0  0  0  0  0
   -3.6436   -0.1751    2.7515 C   0  0  0  0  0  0  0  0  0  0  0  0
   -4.7200    0.6601    2.9532 C   0  0  0  0  0  0  0  0  0  0  0  0
   -5.2847    0.7948    1.6894 C   0  0  0  0  0  0  0  0  0  0  0  0
   -6.4121    1.5499    1.3938 C   0  0  0  0  0  0  0  0  0  0  0  0
   -6.8621    1.5838    0.0932 C   0  0  0  0  0  0  0  0  0  0  0  0
   -6.1664    0.8631   -0.8501 C   0  0  0  0  0  0  0  0  0  0  0  0
   -5.0478    0.1164   -0.5475 C   0  0  0  0  0  0  0  0  0  0  0  0
   -4.5686    0.0633    0.7607 C   0  0  0  0  0  0  0  0  0  0  0  0
    7.1870    2.5326   -0.0588 H   0  0  0  0  0  0  0  0  0  0  0  0
    7.9386    1.3653    0.9744 H   0  0  0  0  0  0  0  0  0  0  0  0
    5.9864   -1.2207    0.4003 H   0  0  0  0  0  0  0  0  0  0  0  0
    3.6078   -1.6027    0.4035 H   0  0  0  0  0  0  0  0  0  0  0  0
    3.0724    1.3370   -2.5907 H   0  0  0  0  0  0  0  0  0  0  0  0
    5.4382    1.7160   -2.5928 H   0  0  0  0  0  0  0  0  0  0  0  0
    1.6114   -1.7679    0.2355 H   0  0  0  0  0  0  0  0  0  0  0  0
   -0.9009   -2.1056   -1.0749 H   0  0  0  0  0  0  0  0  0  0  0  0
   -0.3828   -2.5997    0.5412 H   0  0  0  0  0  0  0  0  0  0  0  0
   -0.7646   -0.3107    1.4250 H   0  0  0  0  0  0  0  0  0  0  0  0
   -2.4532    1.0865    0.0465 H   0  0  0  0  0  0  0  0  0  0  0  0
   -1.6184    0.4002   -1.4217 H   0  0  0  0  0  0  0  0  0  0  0  0
   -0.6651    1.2940   -0.1505 H   0  0  0  0  0  0  0  0  0  0  0  0
   -2.2151   -2.1686    1.5797 H   0  0  0  0  0  0  0  0  0  0  0  0
   -2.9551   -1.8631   -0.0386 H   0  0  0  0  0  0  0  0  0  0  0  0
   -2.9600   -0.5076    3.5178 H   0  0  0  0  0  0  0  0  0  0  0  0
   -5.0097    1.0840    3.9064 H   0  0  0  0  0  0  0  0  0  0  0  0
   -6.9627    2.1136    2.1110 H   0  0  0  0  0  0  0  0  0  0  0  0
   -7.7178    2.1199   -0.2942 H   0  0  0  0  0  0  0  0  0  0  0  0
   -6.4310    0.8184   -1.8993 H   0  0  0  0  0  0  0  0  0  0  0  0
   -4.4691   -0.4666   -1.2590 H   0  0  0  0  0  0  0  0  0  0  0  0
  1  2  1  0
  2  3  2  0
  2  4  2  0
  2  5  1  0
  5  6  2  0
  6  7  1  0
  7  8  2  0
  8  9  1  0
  9 10  2  0
  8 11  1  0
 11 12  2  0
 11 13  1  0
 13 14  1  0
 14 15  1  0
 15 16  1  0
 15 17  1  0
 17 18  1  0
 18 19  1  0
 19 20  2  0
 20 21  1  0
 21 22  2  0
 22 23  1  0
 23 24  2  0
 24 25  1  0
 25 26  2  0
 10  5  1  0
 26 18  1  0
 26 21  1  0
  1 27  1  0
  1 28  1  0
  6 29  1  0
  7 30  1  0
  9 31  1  0
 10 32  1  0
 13 33  1  0
 14 34  1  0
 14 35  1  0
 15 36  1  1
 16 37  1  0
 16 38  1  0
 16 39  1  0
 17 40  1  0
 17 41  1  0
 19 42  1  0
 20 43  1  0
 22 44  1  0
 23 45  1  0
 24 46  1  0
 25 47  1  0
M  END
$$$$
