
     RDKit          3D

 59 64  0  0  0  0  0  0  0  0999 V2000
    9.6896    0.0084    2.8576 C   0  0  0  0  0  0  0  0  0  0  0  0
    8.9272   -0.9696    2.1807 O   0  0  0  0  0  0  0  0  0  0  0  0
    7.7085   -0.5884    1.5908 C   0  0  0  0  0  0  0  0  0  0  0  0
    7.2682    0.6966    1.6682 C   0  0  0  0  0  0  0  0  0  0  0  0
    6.0583    1.0640    1.0798 C   0  0  0  0  0  0  0  0  0  0  0  0
    5.3099    0.1158    0.4181 C   0  0  0  0  0  0  0  0  0  0  0  0
    4.0386    0.5205   -0.1961 C   0  0  0  0  0  0  0  0  0  0  0  0
    3.6139    1.6907   -0.1376 O   0  0  0  0  0  0  0  0  0  0  0  0
    3.2829   -0.4488   -0.8693 N   0  0  0  0  0  0  0  0  0  0  0  0
    2.0289   -0.1661   -1.5047 C   0  0  0  0  0  0  0  0  0  0  0  0
    1.9520    0.2327   -2.8201 C   0  0  0  0  0  0  0  0  0  0  0  0
    0.7261    0.4923   -3.3838 C   0  0  0  0  0  0  0  0  0  0  0  0
   -0.4790    0.3653   -2.6605 C   0  0  0  0  0  0  0  0  0  0  0  0
   -0.3877   -0.0268   -1.3762 C   0  0  0  0  0  0  0  0  0  0  0  0
    0.8683   -0.2941   -0.7904 C   0  0  0  0  0  0  0  0  0  0  0  0
   -1.5918   -0.2207   -0.5100 C   0  0  0  0  0  0  0  0  0  0  0  0
   -1.6961   -1.6739   -0.1079 C   0  0  0  0  0  0  0  0  0  0  0  0
   -1.2469   -2.0710    1.2192 C   0  0  0  0  0  0  0  0  0  0  0  0
   -1.7271   -0.9265    2.5465 S   0  0  0  0  0  0  0  0  0  0  0  0
   -1.5746    0.7043    1.7867 C   0  0  0  0  0  0  0  0  0  0  0  0
   -1.5027    1.8554    2.6399 N   0  0  0  0  0  0  0  0  0  0  0  0
   -1.5403    0.7361    0.5480 N   0  0  0  0  0  0  0  0  0  0  0  0
   -2.8175    0.1354   -1.2769 C   0  0  0  0  0  0  0  0  0  0  0  0
   -4.0645    0.0464   -0.6331 C   0  0  0  0  0  0  0  0  0  0  0  0
   -5.2573    0.3270   -1.2390 C   0  0  0  0  0  0  0  0  0  0  0  0
   -6.5542    0.2266   -0.5438 C   0  0  0  0  0  0  0  0  0  0  0  0
   -6.6657   -0.1491    0.7426 C   0  0  0  0  0  0  0  0  0  0  0  0
   -7.8995   -0.2354    1.3724 C   0  0  0  0  0  0  0  0  0  0  0  0
   -9.0013    0.0591    0.6929 N   0  0  0  0  0  0  0  0  0  0  0  0
   -8.9170    0.4391   -0.5999 C   0  0  0  0  0  0  0  0  0  0  0  0
  -10.0817    0.7253   -1.2340 F   0  0  0  0  0  0  0  0  0  0  0  0
   -7.6999    0.5301   -1.2410 C   0  0  0  0  0  0  0  0  0  0  0  0
   -5.2272    0.7132   -2.5377 N   0  0  0  0  0  0  0  0  0  0  0  0
   -4.0627    0.8024   -3.1579 C   0  0  0  0  0  0  0  0  0  0  0  0
   -4.0805    1.1962   -4.4686 F   0  0  0  0  0  0  0  0  0  0  0  0
   -2.8184    0.5204   -2.5600 C   0  0  0  0  0  0  0  0  0  0  0  0
   -1.6780    0.6628   -3.3391 O   0  0  0  0  0  0  0  0  0  0  0  0
    5.7744   -1.1239    0.3658 N   0  0  0  0  0  0  0  0  0  0  0  0
    6.9371   -1.5160    0.9214 C   0  0  0  0  0  0  0  0  0  0  0  0
    9.8453    0.8534    2.1624 H   0  0  0  0  0  0  0  0  0  0  0  0
   10.6672   -0.4630    3.0960 H   0  0  0  0  0  0  0  0  0  0  0  0
    9.1869    0.3913    3.7538 H   0  0  0  0  0  0  0  0  0  0  0  0
    7.8784    1.4318    2.1982 H   0  0  0  0  0  0  0  0  0  0  0  0
    5.7751    2.0980    1.1821 H   0  0  0  0  0  0  0  0  0  0  0  0
    3.6468   -1.4357   -0.9154 H   0  0  0  0  0  0  0  0  0  0  0  0
    2.8407    0.3410   -3.4031 H   0  0  0  0  0  0  0  0  0  0  0  0
    0.6295    0.8115   -4.4270 H   0  0  0  0  0  0  0  0  0  0  0  0
    0.9329   -0.5993    0.2475 H   0  0  0  0  0  0  0  0  0  0  0  0
   -2.7766   -1.9544   -0.2005 H   0  0  0  0  0  0  0  0  0  0  0  0
   -1.2078   -2.2408   -0.9398 H   0  0  0  0  0  0  0  0  0  0  0  0
   -1.7502   -3.0553    1.5282 H   0  0  0  0  0  0  0  0  0  0  0  0
   -0.1760   -2.3100    1.3653 H   0  0  0  0  0  0  0  0  0  0  0  0
   -0.5941    2.3662    2.6417 H   0  0  0  0  0  0  0  0  0  0  0  0
   -2.2726    2.1922    3.2296 H   0  0  0  0  0  0  0  0  0  0  0  0
   -4.0873   -0.2618    0.4028 H   0  0  0  0  0  0  0  0  0  0  0  0
   -5.8148   -0.3971    1.3359 H   0  0  0  0  0  0  0  0  0  0  0  0
   -7.9583   -0.5381    2.4003 H   0  0  0  0  0  0  0  0  0  0  0  0
   -7.6936    0.8394   -2.2762 H   0  0  0  0  0  0  0  0  0  0  0  0
    7.3162   -2.5250    0.8794 H   0  0  0  0  0  0  0  0  0  0  0  0
  1  2  1  0
  2  3  1  0
  3  4  2  0
  4  5  1  0
  5  6  2  0
  6  7  1  0
  7  8  2  0
  7  9  1  0
  9 10  1  0
 10 11  2  0
 11 12  1  0
 12 13  2  0
 13 14  1  0
 14 15  2  0
 14 16  1  0
 16 17  1  0
 17 18  1  0
 18 19  1  0
 19 20  1  0
 20 21  1  0
 20 22  2  0
 16 23  1  0
 23 24  2  0
 24 25  1  0
 25 26  1  0
 26 27  2  0
 27 28  1  0
 28 29  2  0
 29 30  1  0
 30 31  1  0
 30 32  2  0
 25 33  2  0
 33 34  1  0
 34 35  1  0
 34 36  2  0
 36 37  1  0
  6 38  1  0
 38 39  2  0
 39  3  1  0
 15 10  1  0
 22 16  1  0
 36 23  1  0
 37 13  1  0
 32 26  1  0
  1 40  1  0
  1 41  1  0
  1 42  1  0
  4 43  1  0
  5 44  1  0
  9 45  1  0
 11 46  1  0
 12 47  1  0
 15 48  1  0
 17 49  1  0
 17 50  1  0
 18 51  1  0
 18 52  1  0
 21 53  1  0
 21 54  1  0
 24 55  1  0
 27 56  1  0
 28 57  1  0
 32 58  1  0
 39 59  1  0
M  END
$$$$
