
     RDKit          3D

 56 58  0  0  0  0  0  0  0  0999 V2000
   -1.5529    2.2340   -2.1232 C   0  0  0  0  0  0  0  0  0  0  0  0
   -1.6166    0.9487   -1.3221 C   0  0  2  0  0  0  0  0  0  0  0  0
   -2.8143    1.0173   -0.4266 C   0  0  0  0  0  0  0  0  0  0  0  0
   -2.9677   -0.2121    0.3215 N   0  0  0  0  0  0  0  0  0  0  0  0
   -4.0347   -0.0807    1.2829 C   0  0  0  0  0  0  0  0  0  0  0  0
   -5.3890    0.0259    0.6118 C   0  0  0  0  0  0  0  0  0  0  0  0
   -5.8382   -1.0838   -0.2413 C   0  0  0  0  0  0  0  0  0  0  0  0
   -5.0261   -2.2268   -0.4307 N   0  0  0  0  0  0  0  0  0  0  0  0
   -6.9510   -1.0148   -0.8051 O   0  0  0  0  0  0  0  0  0  0  0  0
   -6.4698    0.6241    1.5123 C   0  0  0  0  0  0  0  0  0  0  0  0
   -5.9425    1.3869    0.3520 C   0  0  0  0  0  0  0  0  0  0  0  0
   -1.7285   -0.4159    1.0423 C   0  0  0  0  0  0  0  0  0  0  0  0
   -0.5696   -0.5836    0.0765 C   0  0  0  0  0  0  0  0  0  0  0  0
   -0.3722    0.6821   -0.6161 N   0  0  0  0  0  0  0  0  0  0  0  0
    0.8740    0.5472   -1.8040 S   0  0  0  0  0  6  0  0  0  0  0  0
    0.4536   -0.5135   -2.7862 O   0  0  0  0  0  0  0  0  0  0  0  0
    0.9466    1.8468   -2.5524 O   0  0  0  0  0  0  0  0  0  0  0  0
    2.4029    0.1367   -1.1060 C   0  0  0  0  0  0  0  0  0  0  0  0
    2.7622   -1.1860   -0.9732 C   0  0  0  0  0  0  0  0  0  0  0  0
    4.0057   -1.4716   -0.4021 C   0  0  0  0  0  0  0  0  0  0  0  0
    4.8736   -0.4968    0.0270 C   0  0  0  0  0  0  0  0  0  0  0  0
    6.1891   -0.8287    0.6343 C   0  0  2  0  0  0  0  0  0  0  0  0
    6.9503    0.4331    0.9863 C   0  0  0  0  0  0  0  0  0  0  0  0
    6.9775   -1.5511   -0.2651 O   0  0  0  0  0  0  0  0  0  0  0  0
    6.0357   -1.6546    1.8771 C   0  0  0  0  0  0  0  0  0  0  0  0
    5.4050   -2.8514    1.6768 F   0  0  0  0  0  0  0  0  0  0  0  0
    7.3331   -1.9618    2.3117 F   0  0  0  0  0  0  0  0  0  0  0  0
    5.4688   -0.9178    2.8990 F   0  0  0  0  0  0  0  0  0  0  0  0
    4.4975    0.8226   -0.1139 C   0  0  0  0  0  0  0  0  0  0  0  0
    3.2554    1.1336   -0.6837 C   0  0  0  0  0  0  0  0  0  0  0  0
   -2.5873    2.6686   -2.1658 H   0  0  0  0  0  0  0  0  0  0  0  0
   -0.8909    2.9814   -1.6771 H   0  0  0  0  0  0  0  0  0  0  0  0
   -1.2903    1.9886   -3.1767 H   0  0  0  0  0  0  0  0  0  0  0  0
   -1.7541    0.1055   -2.0318 H   0  0  0  0  0  0  0  0  0  0  0  0
   -3.7002    1.1404   -1.0685 H   0  0  0  0  0  0  0  0  0  0  0  0
   -2.7505    1.8749    0.2790 H   0  0  0  0  0  0  0  0  0  0  0  0
   -3.8646    0.8783    1.8256 H   0  0  0  0  0  0  0  0  0  0  0  0
   -3.9876   -0.9658    1.9575 H   0  0  0  0  0  0  0  0  0  0  0  0
   -4.3702   -2.5849    0.3035 H   0  0  0  0  0  0  0  0  0  0  0  0
   -5.0422   -2.7778   -1.3279 H   0  0  0  0  0  0  0  0  0  0  0  0
   -7.5042    0.2089    1.4130 H   0  0  0  0  0  0  0  0  0  0  0  0
   -6.2155    0.8966    2.5460 H   0  0  0  0  0  0  0  0  0  0  0  0
   -6.5913    1.4704   -0.5584 H   0  0  0  0  0  0  0  0  0  0  0  0
   -5.3557    2.2958    0.5822 H   0  0  0  0  0  0  0  0  0  0  0  0
   -1.5657    0.4971    1.6553 H   0  0  0  0  0  0  0  0  0  0  0  0
   -1.7848   -1.3334    1.6597 H   0  0  0  0  0  0  0  0  0  0  0  0
   -0.8430   -1.3757   -0.6226 H   0  0  0  0  0  0  0  0  0  0  0  0
    0.3227   -0.7735    0.6705 H   0  0  0  0  0  0  0  0  0  0  0  0
    2.1289   -2.0060   -1.2893 H   0  0  0  0  0  0  0  0  0  0  0  0
    4.3052   -2.5043   -0.2914 H   0  0  0  0  0  0  0  0  0  0  0  0
    6.3503    0.9921    1.7194 H   0  0  0  0  0  0  0  0  0  0  0  0
    7.9387    0.1204    1.3831 H   0  0  0  0  0  0  0  0  0  0  0  0
    7.0811    1.0151    0.0636 H   0  0  0  0  0  0  0  0  0  0  0  0
    6.6790   -1.4098   -1.2052 H   0  0  0  0  0  0  0  0  0  0  0  0
    5.1437    1.6313    0.2075 H   0  0  0  0  0  0  0  0  0  0  0  0
    2.9906    2.1777   -0.7798 H   0  0  0  0  0  0  0  0  0  0  0  0
  1  2  1  0
  2  3  1  0
  3  4  1  0
  4  5  1  0
  5  6  1  0
  6  7  1  0
  7  8  1  0
  7  9  2  0
  6 10  1  0
 10 11  1  0
  4 12  1  0
 12 13  1  0
 13 14  1  0
 14 15  1  0
 15 16  2  0
 15 17  2  0
 15 18  1  0
 18 19  2  0
 19 20  1  0
 20 21  2  0
 21 22  1  0
 22 23  1  0
 22 24  1  6
 22 25  1  0
 25 26  1  0
 25 27  1  0
 25 28  1  0
 21 29  1  0
 29 30  2  0
 14  2  1  0
 30 18  1  0
 11  6  1  0
  1 31  1  0
  1 32  1  0
  1 33  1  0
  2 34  1  6
  3 35  1  0
  3 36  1  0
  5 37  1  0
  5 38  1  0
  8 39  1  0
  8 40  1  0
 10 41  1  0
 10 42  1  0
 11 43  1  0
 11 44  1  0
 12 45  1  0
 12 46  1  0
 13 47  1  0
 13 48  1  0
 19 49  1  0
 20 50  1  0
 23 51  1  0
 23 52  1  0
 23 53  1  0
 24 54  1  0
 29 55  1  0
 30 56  1  0
M  END
$$$$
