
     RDKit          3D

 43 45  0  0  0  0  0  0  0  0999 V2000
   -3.9994    1.2105   -0.8100 C   0  0  0  0  0  0  0  0  0  0  0  0
   -2.9353    0.5699    0.0338 C   0  0  1  0  0  0  0  0  0  0  0  0
   -1.6110    1.1899   -0.1795 C   0  0  0  0  0  0  0  0  0  0  0  0
   -0.5777    0.4009   -0.6303 C   0  0  0  0  0  0  0  0  0  0  0  0
    0.6968    0.9272   -0.8500 C   0  0  0  0  0  0  0  0  0  0  0  0
    1.8374    0.1133   -1.3346 C   0  0  0  0  0  0  0  0  0  0  0  0
    2.7656   -0.1885   -0.2428 N   0  0  0  0  0  0  0  0  0  0  0  0
    3.8812   -0.9796   -0.7203 C   0  0  0  0  0  0  0  0  0  0  0  0
    4.8433   -1.3018    0.3748 C   0  0  0  0  0  0  0  0  0  0  0  0
    6.0388   -2.1400   -0.0980 C   0  0  0  0  0  0  0  0  0  0  0  0
    6.2074   -0.7253    0.4115 C   0  0  0  0  0  0  0  0  0  0  0  0
    0.8931    2.2684   -0.6011 C   0  0  0  0  0  0  0  0  0  0  0  0
    2.1087    2.8292   -0.7973 F   0  0  0  0  0  0  0  0  0  0  0  0
   -0.1279    3.0994   -0.1441 C   0  0  0  0  0  0  0  0  0  0  0  0
   -1.3670    2.5129    0.0526 C   0  0  0  0  0  0  0  0  0  0  0  0
   -2.3512    3.3142    0.4910 F   0  0  0  0  0  0  0  0  0  0  0  0
   -3.2500    0.6433    1.5109 C   0  0  0  0  0  0  0  0  0  0  0  0
   -4.6807    0.3947    1.8369 C   0  0  0  0  0  0  0  0  0  0  0  0
   -5.2535   -1.0332    0.8533 S   0  0  0  0  0  0  0  0  0  0  0  0
   -3.8215   -1.6669   -0.0060 C   0  0  0  0  0  0  0  0  0  0  0  0
   -3.7958   -3.0534   -0.3206 N   0  0  0  0  0  0  0  0  0  0  0  0
   -2.8842   -0.8538   -0.3016 N   0  0  0  0  0  0  0  0  0  0  0  0
   -4.7957    1.6851   -0.2075 H   0  0  0  0  0  0  0  0  0  0  0  0
   -3.5077    1.9397   -1.5028 H   0  0  0  0  0  0  0  0  0  0  0  0
   -4.4965    0.4684   -1.4610 H   0  0  0  0  0  0  0  0  0  0  0  0
   -0.7067   -0.6440   -0.8308 H   0  0  0  0  0  0  0  0  0  0  0  0
    2.3767    0.5837   -2.1794 H   0  0  0  0  0  0  0  0  0  0  0  0
    1.4177   -0.8788   -1.6665 H   0  0  0  0  0  0  0  0  0  0  0  0
    2.2468   -0.6261    0.5324 H   0  0  0  0  0  0  0  0  0  0  0  0
    4.3969   -0.4368   -1.5133 H   0  0  0  0  0  0  0  0  0  0  0  0
    3.4454   -1.9448   -1.0840 H   0  0  0  0  0  0  0  0  0  0  0  0
    4.4074   -1.5804    1.3611 H   0  0  0  0  0  0  0  0  0  0  0  0
    6.3071   -2.9858    0.5560 H   0  0  0  0  0  0  0  0  0  0  0  0
    6.2096   -2.2444   -1.1787 H   0  0  0  0  0  0  0  0  0  0  0  0
    6.7154   -0.6556    1.3769 H   0  0  0  0  0  0  0  0  0  0  0  0
    6.4932    0.0769   -0.3019 H   0  0  0  0  0  0  0  0  0  0  0  0
    0.0554    4.1478    0.0421 H   0  0  0  0  0  0  0  0  0  0  0  0
   -2.6460   -0.1688    2.0066 H   0  0  0  0  0  0  0  0  0  0  0  0
   -2.8780    1.5916    1.9012 H   0  0  0  0  0  0  0  0  0  0  0  0
   -5.3445    1.2671    1.7269 H   0  0  0  0  0  0  0  0  0  0  0  0
   -4.7430    0.0539    2.9103 H   0  0  0  0  0  0  0  0  0  0  0  0
   -3.8433   -3.8012    0.4055 H   0  0  0  0  0  0  0  0  0  0  0  0
   -3.7276   -3.3783   -1.3081 H   0  0  0  0  0  0  0  0  0  0  0  0
  2  1  1  6
  2  3  1  0
  3  4  2  0
  4  5  1  0
  5  6  1  0
  6  7  1  0
  7  8  1  0
  8  9  1  0
  9 10  1  0
 10 11  1  0
  5 12  2  0
 12 13  1  0
 12 14  1  0
 14 15  2  0
 15 16  1  0
  2 17  1  0
 17 18  1  0
 18 19  1  0
 19 20  1  0
 20 21  1  0
 20 22  2  0
 22  2  1  0
 15  3  1  0
 11  9  1  0
  1 23  1  0
  1 24  1  0
  1 25  1  0
  4 26  1  0
  6 27  1  0
  6 28  1  0
  7 29  1  0
  8 30  1  0
  8 31  1  0
  9 32  1  0
 10 33  1  0
 10 34  1  0
 11 35  1  0
 11 36  1  0
 14 37  1  0
 17 38  1  0
 17 39  1  0
 18 40  1  0
 18 41  1  0
 21 42  1  0
 21 43  1  0
M  END
$$$$
