
     RDKit          3D

 36 36  0  0  0  0  0  0  0  0999 V2000
   -5.5802   -1.0216    0.1058 C   0  0  0  0  0  0  0  0  0  0  0  0
   -4.9208    0.0749   -0.7012 C   0  0  0  0  0  0  0  0  0  0  0  0
   -3.3989   -0.0821   -0.6553 C   0  0  0  0  0  0  0  0  0  0  0  0
   -2.8836   -0.0040    0.7413 C   0  0  0  0  0  0  0  0  0  0  0  0
   -1.3862   -0.1550    0.8519 C   0  0  0  0  0  0  0  0  0  0  0  0
   -0.6387    0.8937    0.1039 C   0  0  0  0  0  0  0  0  0  0  0  0
    0.8424    0.7399    0.2194 C   0  0  0  0  0  0  0  0  0  0  0  0
    1.5671    1.3434    1.2250 C   0  0  0  0  0  0  0  0  0  0  0  0
    2.9513    1.1827    1.3093 C   0  0  0  0  0  0  0  0  0  0  0  0
    3.6297    0.4152    0.3875 C   0  0  0  0  0  0  0  0  0  0  0  0
    2.8468   -0.1577   -0.5884 C   0  0  0  0  0  0  0  0  0  0  0  0
    1.4842   -0.0219   -0.7026 C   0  0  0  0  0  0  0  0  0  0  0  0
    5.0663    0.2916    0.5354 C   0  0  0  0  0  0  0  0  0  0  0  0
    5.5630    0.9226    1.5289 O   0  0  0  0  0  0  0  0  0  0  0  0
    6.0210   -0.4357   -0.2688 C   0  0  0  0  0  0  0  0  0  0  0  0
    5.7281   -1.1515   -1.3354 C   0  0  0  0  0  0  0  0  0  0  0  0
   -5.7085   -0.6995    1.1397 H   0  0  0  0  0  0  0  0  0  0  0  0
   -6.5506   -1.2519   -0.3753 H   0  0  0  0  0  0  0  0  0  0  0  0
   -4.8882   -1.8964    0.0610 H   0  0  0  0  0  0  0  0  0  0  0  0
   -5.1628    1.0351   -0.1936 H   0  0  0  0  0  0  0  0  0  0  0  0
   -5.2870    0.1537   -1.7265 H   0  0  0  0  0  0  0  0  0  0  0  0
   -3.2117   -1.0721   -1.1292 H   0  0  0  0  0  0  0  0  0  0  0  0
   -2.9211    0.6536   -1.3070 H   0  0  0  0  0  0  0  0  0  0  0  0
   -3.3651   -0.7897    1.3544 H   0  0  0  0  0  0  0  0  0  0  0  0
   -3.2296    0.9739    1.1686 H   0  0  0  0  0  0  0  0  0  0  0  0
   -1.1041   -0.1530    1.9109 H   0  0  0  0  0  0  0  0  0  0  0  0
   -1.1605   -1.1773    0.4297 H   0  0  0  0  0  0  0  0  0  0  0  0
   -0.9530    0.9833   -0.9514 H   0  0  0  0  0  0  0  0  0  0  0  0
   -0.8651    1.8788    0.5921 H   0  0  0  0  0  0  0  0  0  0  0  0
    1.0191    1.9421    1.9398 H   0  0  0  0  0  0  0  0  0  0  0  0
    3.3980    1.7094    2.1453 H   0  0  0  0  0  0  0  0  0  0  0  0
    3.3312   -0.7669   -1.3321 H   0  0  0  0  0  0  0  0  0  0  0  0
    0.9392   -0.5035   -1.4976 H   0  0  0  0  0  0  0  0  0  0  0  0
    7.0646   -0.4465   -0.0506 H   0  0  0  0  0  0  0  0  0  0  0  0
    5.3583   -1.7009   -2.1866 H   0  0  0  0  0  0  0  0  0  0  0  0
    6.4051   -1.7068   -1.9610 H   0  0  0  0  0  0  0  0  0  0  0  0
  1  2  1  0
  2  3  1  0
  3  4  1  0
  4  5  1  0
  5  6  1  0
  6  7  1  0
  7  8  2  0
  8  9  1  0
  9 10  2  0
 10 11  1  0
 11 12  2  0
 10 13  1  0
 13 14  2  0
 13 15  1  0
 15 16  2  0
 12  7  1  0
  1 17  1  0
  1 18  1  0
  1 19  1  0
  2 20  1  0
  2 21  1  0
  3 22  1  0
  3 23  1  0
  4 24  1  0
  4 25  1  0
  5 26  1  0
  5 27  1  0
  6 28  1  0
  6 29  1  0
  8 30  1  0
  9 31  1  0
 11 32  1  0
 12 33  1  0
 15 34  1  0
 16 35  1  0
 16 36  1  0
M  END
$$$$
