
     RDKit          3D

 69 72  0  0  0  0  0  0  0  0999 V2000
   -0.3921   -4.5864    0.8891 C   0  0  0  0  0  0  0  0  0  0  0  0
   -1.8397   -4.5167    1.0624 C   0  0  0  0  0  0  0  0  0  0  0  0
   -2.5135   -5.5686    1.7175 C   0  0  0  0  0  0  0  0  0  0  0  0
   -3.8688   -5.5460    1.9151 C   0  0  0  0  0  0  0  0  0  0  0  0
   -4.6058   -4.4804    1.4708 C   0  0  0  0  0  0  0  0  0  0  0  0
   -3.9774   -3.4395    0.8280 C   0  0  0  0  0  0  0  0  0  0  0  0
   -4.4605   -2.3008    0.3048 N   0  0  0  0  0  0  0  0  0  0  0  0
   -3.4310   -1.6321   -0.2065 C   0  0  0  0  0  0  0  0  0  0  0  0
   -3.4746   -0.3616   -0.8781 N   0  0  0  0  0  0  0  0  0  0  0  0
   -3.4130    0.8623   -0.1642 C   0  0  0  0  0  0  0  0  0  0  0  0
   -3.3205    0.8029    1.1091 O   0  0  0  0  0  0  0  0  0  0  0  0
   -3.4498    2.1706   -0.8041 C   0  0  0  0  0  0  0  0  0  0  0  0
   -3.5123    2.3224   -2.1559 C   0  0  0  0  0  0  0  0  0  0  0  0
   -3.5484    3.6149   -2.6827 C   0  0  0  0  0  0  0  0  0  0  0  0
   -3.5243    4.7083   -1.9166 N   0  0  0  0  0  0  0  0  0  0  0  0
   -3.4628    4.5810   -0.5787 C   0  0  0  0  0  0  0  0  0  0  0  0
   -3.4391    5.8008    0.2908 C   0  0  0  0  0  0  0  0  0  0  0  0
   -4.0055    6.8460   -0.4309 F   0  0  0  0  0  0  0  0  0  0  0  0
   -4.1804    5.6009    1.4431 F   0  0  0  0  0  0  0  0  0  0  0  0
   -2.1182    6.0975    0.5637 F   0  0  0  0  0  0  0  0  0  0  0  0
   -3.4262    3.3113   -0.0383 C   0  0  0  0  0  0  0  0  0  0  0  0
   -2.2464   -2.3150   -0.0325 N   0  0  0  0  0  0  0  0  0  0  0  0
   -0.9393   -1.9030   -0.4716 C   0  0  2  0  0  0  0  0  0  0  0  0
   -0.2755   -2.7017   -1.5288 C   0  0  0  0  0  0  0  0  0  0  0  0
    1.2235   -2.7886   -1.4701 C   0  0  0  0  0  0  0  0  0  0  0  0
    1.8742   -1.5665   -2.1017 C   0  0  0  0  0  0  0  0  0  0  0  0
    1.1816   -0.3030   -1.6203 C   0  0  0  0  0  0  0  0  0  0  0  0
    0.9945   -0.4042   -0.1948 N   0  0  0  0  0  0  0  0  0  0  0  0
    1.9622    0.1531    0.6358 C   0  0  0  0  0  0  0  0  0  0  0  0
    1.7996    0.0831    1.8902 O   0  0  0  0  0  0  0  0  0  0  0  0
    3.1426    0.8061    0.1497 C   0  0  0  0  0  0  0  0  0  0  0  0
    4.0582    1.3363    0.9881 C   0  0  0  0  0  0  0  0  0  0  0  0
    5.2822    2.0145    0.5012 C   0  0  0  0  0  0  0  0  0  0  0  0
    5.3445    3.3943    0.9471 N   0  0  0  0  0  0  0  0  0  0  0  0
    5.5453    3.3760    2.3820 C   0  0  0  0  0  0  0  0  0  0  0  0
    6.4695    4.0816    0.3503 C   0  0  0  0  0  0  0  0  0  0  0  0
   -0.1488   -1.0762    0.4589 C   0  0  0  0  0  0  0  0  0  0  0  0
   -2.5887   -3.4491    0.6180 C   0  0  0  0  0  0  0  0  0  0  0  0
   -0.0497   -5.3454    1.6949 H   0  0  0  0  0  0  0  0  0  0  0  0
    0.1949   -3.7203    1.2113 H   0  0  0  0  0  0  0  0  0  0  0  0
   -0.0294   -5.1138   -0.0131 H   0  0  0  0  0  0  0  0  0  0  0  0
   -1.8894   -6.4015    2.0550 H   0  0  0  0  0  0  0  0  0  0  0  0
   -4.3414   -6.3853    2.4280 H   0  0  0  0  0  0  0  0  0  0  0  0
   -5.6825   -4.4428    1.6185 H   0  0  0  0  0  0  0  0  0  0  0  0
   -3.5527   -0.3537   -1.9145 H   0  0  0  0  0  0  0  0  0  0  0  0
   -3.5331    1.4673   -2.8119 H   0  0  0  0  0  0  0  0  0  0  0  0
   -3.5984    3.7208   -3.7722 H   0  0  0  0  0  0  0  0  0  0  0  0
   -3.3762    3.2650    1.0543 H   0  0  0  0  0  0  0  0  0  0  0  0
   -1.2640   -0.9994   -1.1678 H   0  0  0  0  0  0  0  0  0  0  0  0
   -0.6862   -3.7097   -1.7280 H   0  0  0  0  0  0  0  0  0  0  0  0
   -0.4305   -2.2466   -2.5936 H   0  0  0  0  0  0  0  0  0  0  0  0
    1.5262   -3.6455   -2.1196 H   0  0  0  0  0  0  0  0  0  0  0  0
    1.6455   -3.0008   -0.4744 H   0  0  0  0  0  0  0  0  0  0  0  0
    1.8800   -1.5779   -3.1956 H   0  0  0  0  0  0  0  0  0  0  0  0
    2.9133   -1.5266   -1.7415 H   0  0  0  0  0  0  0  0  0  0  0  0
    0.2332   -0.1534   -2.1869 H   0  0  0  0  0  0  0  0  0  0  0  0
    1.8124    0.5515   -1.8896 H   0  0  0  0  0  0  0  0  0  0  0  0
    3.4135    0.9306   -0.8954 H   0  0  0  0  0  0  0  0  0  0  0  0
    3.8417    1.2346    2.0370 H   0  0  0  0  0  0  0  0  0  0  0  0
    6.1907    1.4662    0.8122 H   0  0  0  0  0  0  0  0  0  0  0  0
    5.3222    2.0478   -0.6091 H   0  0  0  0  0  0  0  0  0  0  0  0
    4.6891    2.8934    2.9179 H   0  0  0  0  0  0  0  0  0  0  0  0
    6.4147    2.6830    2.5800 H   0  0  0  0  0  0  0  0  0  0  0  0
    5.7739    4.3621    2.7956 H   0  0  0  0  0  0  0  0  0  0  0  0
    6.9776    4.7727    1.0797 H   0  0  0  0  0  0  0  0  0  0  0  0
    7.2332    3.3254    0.0813 H   0  0  0  0  0  0  0  0  0  0  0  0
    6.1740    4.6433   -0.5652 H   0  0  0  0  0  0  0  0  0  0  0  0
    0.3088   -1.5060    1.3354 H   0  0  0  0  0  0  0  0  0  0  0  0
   -0.8263   -0.2592    0.8399 H   0  0  0  0  0  0  0  0  0  0  0  0
  1  2  1  0
  2  3  2  0
  3  4  1  0
  4  5  2  0
  5  6  1  0
  6  7  1  0
  7  8  2  0
  8  9  1  0
  9 10  1  0
 10 11  2  0
 10 12  1  0
 12 13  2  0
 13 14  1  0
 14 15  2  0
 15 16  1  0
 16 17  1  0
 17 18  1  0
 17 19  1  0
 17 20  1  0
 16 21  2  0
  8 22  1  0
 22 23  1  0
 23 24  1  0
 24 25  1  0
 25 26  1  0
 26 27  1  0
 27 28  1  0
 28 29  1  0
 29 30  2  0
 29 31  1  0
 31 32  2  0
 32 33  1  0
 33 34  1  0
 34 35  1  0
 34 36  1  0
 28 37  1  0
 22 38  1  0
 38  2  1  0
 38  6  2  0
 21 12  1  0
 37 23  1  0
  1 39  1  0
  1 40  1  0
  1 41  1  0
  3 42  1  0
  4 43  1  0
  5 44  1  0
  9 45  1  0
 13 46  1  0
 14 47  1  0
 21 48  1  0
 23 49  1  6
 24 50  1  0
 24 51  1  0
 25 52  1  0
 25 53  1  0
 26 54  1  0
 26 55  1  0
 27 56  1  0
 27 57  1  0
 31 58  1  0
 32 59  1  0
 33 60  1  0
 33 61  1  0
 35 62  1  0
 35 63  1  0
 35 64  1  0
 36 65  1  0
 36 66  1  0
 36 67  1  0
 37 68  1  0
 37 69  1  0
M  END
$$$$
