
     RDKit          3D

 46 47  0  0  0  0  0  0  0  0999 V2000
   -5.1001    0.1054    0.9432 C   0  0  0  0  0  0  0  0  0  0  0  0
   -4.2045   -0.2012   -0.0956 N   0  0  0  0  0  0  0  0  0  0  0  0
   -4.7797   -1.1998   -0.9718 C   0  0  0  0  0  0  0  0  0  0  0  0
   -2.8658   -0.5336    0.1908 C   0  0  0  0  0  0  0  0  0  0  0  0
   -2.7181   -1.7228    1.1564 C   0  0  0  0  0  0  0  0  0  0  0  0
   -2.2949   -1.0874   -1.1376 C   0  0  0  0  0  0  0  0  0  0  0  0
   -1.9677    0.5383    0.6335 C   0  0  0  0  0  0  0  0  0  0  0  0
   -0.7140    0.5691    0.1461 N   0  0  0  0  0  0  0  0  0  0  0  0
    0.2139    1.4730    0.4554 C   0  0  0  0  0  0  0  0  0  0  0  0
    1.5626    1.4813   -0.0870 C   0  0  0  0  0  0  0  0  0  0  0  0
    2.3693    2.3752    0.2717 O   0  0  0  0  0  0  0  0  0  0  0  0
    1.9914    0.4969   -1.0180 N   0  0  0  0  0  0  0  0  0  0  0  0
    3.2975    0.4303   -1.5973 C   0  0  0  0  0  0  0  0  0  0  0  0
    4.3433   -0.1197   -0.7012 C   0  0  0  0  0  0  0  0  0  0  0  0
    4.5192   -1.4981   -0.7038 C   0  0  0  0  0  0  0  0  0  0  0  0
    5.4653   -2.0709    0.0902 C   0  0  0  0  0  0  0  0  0  0  0  0
    6.2673   -1.3099    0.9104 C   0  0  0  0  0  0  0  0  0  0  0  0
    7.1980   -1.9236    1.6854 F   0  0  0  0  0  0  0  0  0  0  0  0
    6.0780    0.0462    0.8981 C   0  0  0  0  0  0  0  0  0  0  0  0
    5.1273    0.6712    0.1058 C   0  0  0  0  0  0  0  0  0  0  0  0
   -0.1663    2.4490    1.3524 C   0  0  0  0  0  0  0  0  0  0  0  0
    0.7422    3.4301    1.7288 O   0  0  0  0  0  0  0  0  0  0  0  0
   -1.4423    2.4301    1.8580 C   0  0  0  0  0  0  0  0  0  0  0  0
   -1.8121    3.3157    2.6820 O   0  0  0  0  0  0  0  0  0  0  0  0
   -2.3303    1.4878    1.5032 N   0  0  0  0  0  0  0  0  0  0  0  0
   -5.4423    1.1731    0.9734 H   0  0  0  0  0  0  0  0  0  0  0  0
   -4.8318   -0.2863    1.9588 H   0  0  0  0  0  0  0  0  0  0  0  0
   -6.0778   -0.4395    0.7383 H   0  0  0  0  0  0  0  0  0  0  0  0
   -4.1856   -2.1152   -1.0671 H   0  0  0  0  0  0  0  0  0  0  0  0
   -5.8031   -1.4991   -0.6375 H   0  0  0  0  0  0  0  0  0  0  0  0
   -4.9179   -0.7831   -1.9908 H   0  0  0  0  0  0  0  0  0  0  0  0
   -2.9772   -2.6780    0.6477 H   0  0  0  0  0  0  0  0  0  0  0  0
   -3.2665   -1.5604    2.0817 H   0  0  0  0  0  0  0  0  0  0  0  0
   -1.6218   -1.7918    1.4093 H   0  0  0  0  0  0  0  0  0  0  0  0
   -2.8827   -0.7785   -1.9983 H   0  0  0  0  0  0  0  0  0  0  0  0
   -1.2614   -0.6600   -1.3030 H   0  0  0  0  0  0  0  0  0  0  0  0
   -2.1560   -2.1670   -1.1159 H   0  0  0  0  0  0  0  0  0  0  0  0
    1.2390   -0.2184   -1.2650 H   0  0  0  0  0  0  0  0  0  0  0  0
    3.6617    1.4054   -1.9794 H   0  0  0  0  0  0  0  0  0  0  0  0
    3.2282   -0.2317   -2.5044 H   0  0  0  0  0  0  0  0  0  0  0  0
    3.8709   -2.0938   -1.3655 H   0  0  0  0  0  0  0  0  0  0  0  0
    5.5726   -3.1659    0.0583 H   0  0  0  0  0  0  0  0  0  0  0  0
    6.7002    0.6568    1.5371 H   0  0  0  0  0  0  0  0  0  0  0  0
    5.0015    1.7288    0.1111 H   0  0  0  0  0  0  0  0  0  0  0  0
    0.6765    4.3606    1.3035 H   0  0  0  0  0  0  0  0  0  0  0  0
   -3.3057    1.5117    1.9215 H   0  0  0  0  0  0  0  0  0  0  0  0
  1  2  1  0
  2  3  1  0
  2  4  1  0
  4  5  1  0
  4  6  1  0
  4  7  1  0
  7  8  2  0
  8  9  1  0
  9 10  1  0
 10 11  2  0
 10 12  1  0
 12 13  1  0
 13 14  1  0
 14 15  2  0
 15 16  1  0
 16 17  2  0
 17 18  1  0
 17 19  1  0
 19 20  2  0
  9 21  2  0
 21 22  1  0
 21 23  1  0
 23 24  2  0
 23 25  1  0
 25  7  1  0
 20 14  1  0
  1 26  1  0
  1 27  1  0
  1 28  1  0
  3 29  1  0
  3 30  1  0
  3 31  1  0
  5 32  1  0
  5 33  1  0
  5 34  1  0
  6 35  1  0
  6 36  1  0
  6 37  1  0
 12 38  1  0
 13 39  1  0
 13 40  1  0
 15 41  1  0
 16 42  1  0
 19 43  1  0
 20 44  1  0
 22 45  1  0
 25 46  1  0
M  END
$$$$
