
     RDKit          3D

 43 44  0  0  0  0  0  0  0  0999 V2000
    4.1825   -1.9158    1.9271 C   0  0  0  0  0  0  0  0  0  0  0  0
    2.8613   -1.4727    1.6529 O   0  0  0  0  0  0  0  0  0  0  0  0
    2.2798   -1.3831    0.4383 C   0  0  0  0  0  0  0  0  0  0  0  0
    3.3411   -1.7914   -0.0740 O   0  0  0  0  0  0  0  0  0  0  0  0
    1.0970   -1.0398   -0.2810 C   0  0  0  0  0  0  0  0  0  0  0  0
    1.2461   -1.1883   -1.6275 C   0  0  0  0  0  0  0  0  0  0  0  0
    2.3792   -1.6253   -2.4467 C   0  0  0  0  0  0  0  0  0  0  0  0
    0.0566   -1.0023   -2.4406 N   0  0  0  0  0  0  0  0  0  0  0  0
   -1.2272   -0.6723   -1.9800 C   0  0  0  0  0  0  0  0  0  0  0  0
   -2.4881   -0.5040   -2.7631 C   0  0  0  0  0  0  0  0  0  0  0  0
   -1.2538   -0.5099   -0.6938 C   0  0  0  0  0  0  0  0  0  0  0  0
   -0.1635   -0.5839    0.3567 C   0  0  0  0  0  0  0  0  0  0  0  0
   -0.0273    0.7982    0.9208 C   0  0  0  0  0  0  0  0  0  0  0  0
   -0.4577    1.0607    2.2093 C   0  0  0  0  0  0  0  0  0  0  0  0
   -0.4823    2.3158    2.7591 C   0  0  0  0  0  0  0  0  0  0  0  0
   -0.0767    3.4329    2.0932 C   0  0  0  0  0  0  0  0  0  0  0  0
    0.3626    3.2283    0.8079 C   0  0  0  0  0  0  0  0  0  0  0  0
    0.3627    1.9379    0.2945 C   0  0  0  0  0  0  0  0  0  0  0  0
    0.9053    1.9245   -0.9953 N   0  0  0  0  0  4  0  0  0  0  0  0
    1.4331    1.8899   -2.2528 O   0  0  0  0  0  1  0  0  0  0  0  0
    1.1756    2.4254   -2.1062 O   0  0  0  0  0  0  0  0  0  0  0  0
   -2.5574   -0.3794   -0.0384 C   0  0  0  0  0  0  0  0  0  0  0  0
   -3.7787   -0.3740   -0.3593 O   0  0  0  0  0  0  0  0  0  0  0  0
   -2.9266   -0.2214    1.2857 O   0  0  0  0  0  0  0  0  0  0  0  0
   -4.2701   -0.1516    1.6954 C   0  0  0  0  0  0  0  0  0  0  0  0
    4.2512   -3.0247    1.9690 H   0  0  0  0  0  0  0  0  0  0  0  0
    4.5128   -1.5354    2.9003 H   0  0  0  0  0  0  0  0  0  0  0  0
    4.9395   -1.5698    1.2008 H   0  0  0  0  0  0  0  0  0  0  0  0
    2.5530   -2.7100   -2.4301 H   0  0  0  0  0  0  0  0  0  0  0  0
    3.3222   -1.1107   -2.1189 H   0  0  0  0  0  0  0  0  0  0  0  0
    2.2893   -1.3431   -3.5197 H   0  0  0  0  0  0  0  0  0  0  0  0
    0.0574   -1.0905   -3.4935 H   0  0  0  0  0  0  0  0  0  0  0  0
   -2.2192   -0.4917   -3.8562 H   0  0  0  0  0  0  0  0  0  0  0  0
   -2.9610    0.4923   -2.5379 H   0  0  0  0  0  0  0  0  0  0  0  0
   -3.2694   -1.2658   -2.5355 H   0  0  0  0  0  0  0  0  0  0  0  0
   -0.4496   -1.2613    1.1396 H   0  0  0  0  0  0  0  0  0  0  0  0
   -0.8133    0.3013    2.8783 H   0  0  0  0  0  0  0  0  0  0  0  0
   -0.8492    2.5041    3.7619 H   0  0  0  0  0  0  0  0  0  0  0  0
   -0.1245    4.4416    2.5168 H   0  0  0  0  0  0  0  0  0  0  0  0
    0.6995    4.1216    0.2346 H   0  0  0  0  0  0  0  0  0  0  0  0
   -4.8401    0.7108    1.4063 H   0  0  0  0  0  0  0  0  0  0  0  0
   -4.7784   -1.0977    1.2929 H   0  0  0  0  0  0  0  0  0  0  0  0
   -4.2937   -0.2693    2.8092 H   0  0  0  0  0  0  0  0  0  0  0  0
  1  2  1  0
  2  3  1  0
  3  4  2  0
  3  5  1  0
  5  6  2  0
  6  7  1  0
  6  8  1  0
  8  9  1  0
  9 10  1  0
  9 11  2  0
 11 12  1  0
 12 13  1  0
 13 14  2  0
 14 15  1  0
 15 16  2  0
 16 17  1  0
 17 18  2  0
 18 19  1  0
 19 20  1  0
 19 21  2  0
 11 22  1  0
 22 23  2  0
 22 24  1  0
 24 25  1  0
 12  5  1  0
 18 13  1  0
  1 26  1  0
  1 27  1  0
  1 28  1  0
  7 29  1  0
  7 30  1  0
  7 31  1  0
  8 32  1  0
 10 33  1  0
 10 34  1  0
 10 35  1  0
 12 36  1  0
 14 37  1  0
 15 38  1  0
 16 39  1  0
 17 40  1  0
 25 41  1  0
 25 42  1  0
 25 43  1  0
M  CHG  2  19   1  20  -1
M  END
$$$$
