
     RDKit          3D

 52 55  0  0  0  0  0  0  0  0999 V2000
   -6.6405    2.9052   -0.6160 C   0  0  0  0  0  0  0  0  0  0  0  0
   -6.2064    2.5862    0.7920 C   0  0  0  0  0  0  0  0  0  0  0  0
   -5.4102    1.4596    0.8944 O   0  0  0  0  0  0  0  0  0  0  0  0
   -4.1804    1.3164    0.3218 C   0  0  0  0  0  0  0  0  0  0  0  0
   -3.4833    0.0897    0.4837 C   0  0  0  0  0  0  0  0  0  0  0  0
   -4.1736   -0.8028    1.2178 O   0  0  0  0  0  0  0  0  0  0  0  0
   -3.8358   -2.0954    1.5536 C   0  0  0  0  0  0  0  0  0  0  0  0
   -3.7154   -3.0859    0.4273 C   0  0  0  0  0  0  0  0  0  0  0  0
   -2.2177   -0.1203   -0.0813 C   0  0  0  0  0  0  0  0  0  0  0  0
   -1.6777    0.9045   -0.7979 C   0  0  0  0  0  0  0  0  0  0  0  0
   -0.4420    0.6591   -1.3452 C   0  0  0  0  0  0  0  0  0  0  0  0
    0.3906   -0.4835   -1.2723 N   0  0  0  0  0  0  0  0  0  0  0  0
    1.5581   -0.2099   -0.4706 C   0  0  0  0  0  0  0  0  0  0  0  0
    1.5863    0.8128    0.4459 C   0  0  0  0  0  0  0  0  0  0  0  0
    2.7446    1.0870    1.1931 C   0  0  0  0  0  0  0  0  0  0  0  0
    3.8556    0.2932    0.9740 C   0  0  0  0  0  0  0  0  0  0  0  0
    3.8775   -0.7575    0.0544 C   0  0  0  0  0  0  0  0  0  0  0  0
    2.7128   -0.9664   -0.6351 C   0  0  0  0  0  0  0  0  0  0  0  0
    5.0819   -1.5436   -0.1608 C   0  0  0  0  0  0  0  0  0  0  0  0
    5.0901   -2.6047   -1.1122 C   0  0  0  0  0  0  0  0  0  0  0  0
    6.8757   -3.2312   -0.9757 S   0  0  0  0  0  0  0  0  0  0  0  0
    7.2364   -1.9704    0.3018 C   0  0  0  0  0  0  0  0  0  0  0  0
    8.6336   -1.8969    0.9075 C   0  0  0  0  0  0  0  0  0  0  0  0
    9.4076   -0.9877    0.1987 O   0  0  0  0  0  0  0  0  0  0  0  0
    6.2287   -1.3832    0.4345 N   0  0  0  0  0  0  0  0  0  0  0  0
    0.0997    1.6647   -2.0637 N   0  0  0  0  0  0  0  0  0  0  0  0
   -0.4717    2.8547   -2.2746 C   0  0  0  0  0  0  0  0  0  0  0  0
   -1.6700    3.0493   -1.7252 N   0  0  0  0  0  0  0  0  0  0  0  0
   -2.2746    2.1202   -1.0063 C   0  0  0  0  0  0  0  0  0  0  0  0
   -3.5092    2.2722   -0.4320 C   0  0  0  0  0  0  0  0  0  0  0  0
   -6.0794    3.6861   -1.1272 H   0  0  0  0  0  0  0  0  0  0  0  0
   -6.7411    1.9516   -1.1786 H   0  0  0  0  0  0  0  0  0  0  0  0
   -7.7077    3.3085   -0.5949 H   0  0  0  0  0  0  0  0  0  0  0  0
   -7.1615    2.4835    1.3940 H   0  0  0  0  0  0  0  0  0  0  0  0
   -5.6780    3.5143    1.1609 H   0  0  0  0  0  0  0  0  0  0  0  0
   -4.5769   -2.5418    2.2832 H   0  0  0  0  0  0  0  0  0  0  0  0
   -2.8667   -2.1573    2.1164 H   0  0  0  0  0  0  0  0  0  0  0  0
   -3.2902   -4.0172    0.9012 H   0  0  0  0  0  0  0  0  0  0  0  0
   -3.0027   -2.7856   -0.3336 H   0  0  0  0  0  0  0  0  0  0  0  0
   -4.7145   -3.3209   -0.0225 H   0  0  0  0  0  0  0  0  0  0  0  0
   -1.6845   -1.0204    0.0514 H   0  0  0  0  0  0  0  0  0  0  0  0
    0.1364   -1.3485   -1.7431 H   0  0  0  0  0  0  0  0  0  0  0  0
    0.6896    1.4296    0.6026 H   0  0  0  0  0  0  0  0  0  0  0  0
    2.7631    1.8895    1.9095 H   0  0  0  0  0  0  0  0  0  0  0  0
    4.7864    0.4384    1.5083 H   0  0  0  0  0  0  0  0  0  0  0  0
    2.6419   -1.7706   -1.3742 H   0  0  0  0  0  0  0  0  0  0  0  0
    4.2038   -2.9889   -1.8072 H   0  0  0  0  0  0  0  0  0  0  0  0
    8.4307   -1.5474    1.9469 H   0  0  0  0  0  0  0  0  0  0  0  0
    9.0887   -2.9203    0.8932 H   0  0  0  0  0  0  0  0  0  0  0  0
    9.2219   -1.0788   -0.7632 H   0  0  0  0  0  0  0  0  0  0  0  0
    0.0089    3.6185   -2.8624 H   0  0  0  0  0  0  0  0  0  0  0  0
   -3.9391    3.2426   -0.5969 H   0  0  0  0  0  0  0  0  0  0  0  0
  1  2  1  0
  2  3  1  0
  3  4  1  0
  4  5  2  0
  5  6  1  0
  6  7  1  0
  7  8  1  0
  5  9  1  0
  9 10  2  0
 10 11  1  0
 11 12  1  0
 12 13  1  0
 13 14  2  0
 14 15  1  0
 15 16  2  0
 16 17  1  0
 17 18  2  0
 17 19  1  0
 19 20  2  0
 20 21  1  0
 21 22  1  0
 22 23  1  0
 23 24  1  0
 22 25  2  0
 11 26  2  0
 26 27  1  0
 27 28  2  0
 28 29  1  0
 29 30  2  0
 30  4  1  0
 29 10  1  0
 18 13  1  0
 25 19  1  0
  1 31  1  0
  1 32  1  0
  1 33  1  0
  2 34  1  0
  2 35  1  0
  7 36  1  0
  7 37  1  0
  8 38  1  0
  8 39  1  0
  8 40  1  0
  9 41  1  0
 12 42  1  0
 14 43  1  0
 15 44  1  0
 16 45  1  0
 18 46  1  0
 20 47  1  0
 23 48  1  0
 23 49  1  0
 24 50  1  0
 27 51  1  0
 30 52  1  0
M  END
$$$$
