
     RDKit          3D

 51 55  0  0  0  0  0  0  0  0999 V2000
    3.1202   -0.8573   -2.7550 C   0  0  0  0  0  0  0  0  0  0  0  0
    2.6641    0.0369   -1.6428 C   0  0  1  0  0  0  0  0  0  0  0  0
    2.3228   -0.7467   -0.5344 O   0  0  0  0  0  0  0  0  0  0  0  0
    1.0557   -0.8237    0.0063 C   0  0  0  0  0  0  0  0  0  0  0  0
   -0.0061   -0.1568   -0.4637 N   0  0  0  0  0  0  0  0  0  0  0  0
   -1.2427   -0.2484    0.0848 C   0  0  0  0  0  0  0  0  0  0  0  0
   -2.3503    0.5074   -0.4815 C   0  0  0  0  0  0  0  0  0  0  0  0
   -2.1638    1.3334   -1.5892 C   0  0  0  0  0  0  0  0  0  0  0  0
   -3.1714    2.0686   -2.1644 C   0  0  0  0  0  0  0  0  0  0  0  0
   -4.4326    1.9813   -1.6127 C   0  0  0  0  0  0  0  0  0  0  0  0
   -5.6465    2.5661   -1.9259 C   0  0  0  0  0  0  0  0  0  0  0  0
   -6.5382    2.1200   -1.0507 N   0  0  0  0  0  0  0  0  0  0  0  0
   -5.9863    1.2817   -0.1859 N   0  0  0  0  0  0  0  0  0  0  0  0
   -6.6169    0.5816    0.9184 C   0  0  0  0  0  0  0  0  0  0  0  0
   -4.6798    1.1835   -0.5193 C   0  0  0  0  0  0  0  0  0  0  0  0
   -3.6216    0.4522    0.0332 C   0  0  0  0  0  0  0  0  0  0  0  0
   -1.4178   -1.0624    1.1734 C   0  0  0  0  0  0  0  0  0  0  0  0
   -0.3540   -1.7821    1.7094 C   0  0  0  0  0  0  0  0  0  0  0  0
   -0.1959   -2.6360    2.7318 N   0  0  0  0  0  0  0  0  0  0  0  0
    1.0437   -3.0456    2.8148 N   0  0  0  0  0  0  0  0  0  0  0  0
    1.5849   -3.9817    3.8068 C   0  0  0  0  0  0  0  0  0  0  0  0
    1.7312   -2.4516    1.8245 C   0  0  0  0  0  0  0  0  0  0  0  0
    0.8745   -1.6442    1.1053 C   0  0  0  0  0  0  0  0  0  0  0  0
    3.6957    1.0794   -1.2760 C   0  0  1  0  0  0  0  0  0  0  0  0
    3.1819    1.9365   -0.1644 C   0  0  0  0  0  0  0  0  0  0  0  0
    4.2833    2.0697    0.7810 N   0  0  0  0  0  0  0  0  0  0  0  0
    5.1109    0.9247    0.6325 C   0  0  0  0  0  0  0  0  0  0  0  0
    5.8072    0.4159    1.5483 O   0  0  0  0  0  0  0  0  0  0  0  0
    4.9718    0.4894   -0.7796 C   0  0  0  0  0  0  0  0  0  0  0  0
    2.3801   -1.7020   -2.8124 H   0  0  0  0  0  0  0  0  0  0  0  0
    3.0760   -0.3523   -3.7456 H   0  0  0  0  0  0  0  0  0  0  0  0
    4.0995   -1.3221   -2.5631 H   0  0  0  0  0  0  0  0  0  0  0  0
    1.7541    0.5666   -1.9925 H   0  0  0  0  0  0  0  0  0  0  0  0
   -1.1665    1.3777   -1.9943 H   0  0  0  0  0  0  0  0  0  0  0  0
   -3.0040    2.7059   -3.0274 H   0  0  0  0  0  0  0  0  0  0  0  0
   -5.7476    3.2532   -2.7577 H   0  0  0  0  0  0  0  0  0  0  0  0
   -6.8630   -0.4576    0.6315 H   0  0  0  0  0  0  0  0  0  0  0  0
   -5.9613    0.5556    1.7945 H   0  0  0  0  0  0  0  0  0  0  0  0
   -7.5710    1.0932    1.1276 H   0  0  0  0  0  0  0  0  0  0  0  0
   -3.8679   -0.1534    0.8838 H   0  0  0  0  0  0  0  0  0  0  0  0
   -2.3646   -1.1945    1.6715 H   0  0  0  0  0  0  0  0  0  0  0  0
    1.4358   -3.5389    4.8063 H   0  0  0  0  0  0  0  0  0  0  0  0
    1.0136   -4.9429    3.6923 H   0  0  0  0  0  0  0  0  0  0  0  0
    2.6505   -4.1324    3.5988 H   0  0  0  0  0  0  0  0  0  0  0  0
    2.7878   -2.5876    1.6262 H   0  0  0  0  0  0  0  0  0  0  0  0
    3.9139    1.7061   -2.1624 H   0  0  0  0  0  0  0  0  0  0  0  0
    2.8211    2.9273   -0.5088 H   0  0  0  0  0  0  0  0  0  0  0  0
    2.3419    1.4568    0.3976 H   0  0  0  0  0  0  0  0  0  0  0  0
    4.3991    2.8796    1.4294 H   0  0  0  0  0  0  0  0  0  0  0  0
    4.9869   -0.6178   -0.7830 H   0  0  0  0  0  0  0  0  0  0  0  0
    5.8614    0.8877   -1.3375 H   0  0  0  0  0  0  0  0  0  0  0  0
  1  2  1  0
  2  3  1  0
  3  4  1  0
  4  5  2  0
  5  6  1  0
  6  7  1  0
  7  8  2  0
  8  9  1  0
  9 10  2  0
 10 11  1  0
 11 12  2  0
 12 13  1  0
 13 14  1  0
 13 15  1  0
 15 16  2  0
  6 17  2  0
 17 18  1  0
 18 19  2  0
 19 20  1  0
 20 21  1  0
 20 22  1  0
 22 23  2  0
  2 24  1  0
 24 25  1  0
 25 26  1  0
 26 27  1  0
 27 28  2  0
 27 29  1  0
 23  4  1  0
 29 24  1  0
 16  7  1  0
 23 18  1  0
 15 10  1  0
  1 30  1  0
  1 31  1  0
  1 32  1  0
  2 33  1  6
  8 34  1  0
  9 35  1  0
 11 36  1  0
 14 37  1  0
 14 38  1  0
 14 39  1  0
 16 40  1  0
 17 41  1  0
 21 42  1  0
 21 43  1  0
 21 44  1  0
 22 45  1  0
 24 46  1  6
 25 47  1  0
 25 48  1  0
 26 49  1  0
 29 50  1  0
 29 51  1  0
M  END
$$$$
