
     RDKit          3D

 62 65  0  0  0  0  0  0  0  0999 V2000
   -6.7376   -2.4254   -1.7703 C   0  0  0  0  0  0  0  0  0  0  0  0
   -6.8189   -2.3425   -0.2830 C   0  0  0  0  0  0  0  0  0  0  0  0
   -6.2907   -1.0228    0.2597 C   0  0  1  0  0  0  0  0  0  0  0  0
   -4.9701   -0.7983   -0.0555 O   0  0  0  0  0  0  0  0  0  0  0  0
   -3.9252   -0.6614    0.8364 C   0  0  0  0  0  0  0  0  0  0  0  0
   -4.0496   -0.7287    2.1966 C   0  0  0  0  0  0  0  0  0  0  0  0
   -2.9769   -0.5889    3.0873 C   0  0  0  0  0  0  0  0  0  0  0  0
   -1.7480   -0.3742    2.5413 C   0  0  0  0  0  0  0  0  0  0  0  0
   -1.5525   -0.2950    1.1769 C   0  0  0  0  0  0  0  0  0  0  0  0
   -0.2447   -0.0755    0.6903 N   0  0  0  0  0  0  0  0  0  0  0  0
    0.5194   -1.0146    0.1304 C   0  0  0  0  0  0  0  0  0  0  0  0
    0.1499   -2.4160   -0.0897 C   0  0  0  0  0  0  0  0  0  0  0  0
    1.7663   -0.4744   -0.2344 C   0  0  0  0  0  0  0  0  0  0  0  0
    2.8373   -1.1491   -0.8936 C   0  0  0  0  0  0  0  0  0  0  0  0
    2.4793   -2.1081   -1.6869 O   0  0  0  0  0  0  0  0  0  0  0  0
    4.2627   -0.9298   -0.8064 C   0  0  0  0  0  0  0  0  0  0  0  0
    4.8809   -0.4086    0.3010 C   0  0  0  0  0  0  0  0  0  0  0  0
    6.2321   -0.2209    0.3197 C   0  0  0  0  0  0  0  0  0  0  0  0
    7.0727   -0.5363   -0.7581 C   0  0  0  0  0  0  0  0  0  0  0  0
    8.4244   -0.3338   -0.6963 O   0  0  0  0  0  0  0  0  0  0  0  0
    9.2367   -0.6632   -1.7948 C   0  0  0  0  0  0  0  0  0  0  0  0
    6.4113   -1.0570   -1.8517 C   0  0  0  0  0  0  0  0  0  0  0  0
    5.0554   -1.2568   -1.8996 C   0  0  0  0  0  0  0  0  0  0  0  0
    1.6927    0.8477    0.1428 C   0  0  0  0  0  0  0  0  0  0  0  0
    2.5360    1.9409    0.0624 C   0  0  0  0  0  0  0  0  0  0  0  0
    2.1999    3.2078    0.5130 C   0  0  0  0  0  0  0  0  0  0  0  0
    0.9755    3.4221    1.0720 C   0  0  0  0  0  0  0  0  0  0  0  0
    0.5564    4.6606    1.5495 O   0  0  0  0  0  0  0  0  0  0  0  0
   -0.1079    5.5228    0.6438 C   0  0  0  0  0  0  0  0  0  0  0  0
    0.7497    5.7859   -0.4039 F   0  0  0  0  0  0  0  0  0  0  0  0
   -0.4488    6.7286    1.2562 F   0  0  0  0  0  0  0  0  0  0  0  0
   -1.2844    4.9400    0.1620 F   0  0  0  0  0  0  0  0  0  0  0  0
    0.1108    2.3544    1.1657 C   0  0  0  0  0  0  0  0  0  0  0  0
    0.4350    1.0815    0.7177 C   0  0  0  0  0  0  0  0  0  0  0  0
   -2.6275   -0.4369    0.3433 C   0  0  0  0  0  0  0  0  0  0  0  0
   -7.1394    0.1091   -0.2286 C   0  0  0  0  0  0  0  0  0  0  0  0
   -8.3646    0.0573   -0.0159 O   0  0  0  0  0  0  0  0  0  0  0  0
   -6.6030    1.1876   -0.8953 O   0  0  0  0  0  0  0  0  0  0  0  0
   -6.7719   -3.4925   -2.1204 H   0  0  0  0  0  0  0  0  0  0  0  0
   -5.7773   -2.0292   -2.1546 H   0  0  0  0  0  0  0  0  0  0  0  0
   -7.5706   -1.9071   -2.2868 H   0  0  0  0  0  0  0  0  0  0  0  0
   -6.1720   -3.1597    0.1442 H   0  0  0  0  0  0  0  0  0  0  0  0
   -7.8476   -2.4971    0.0939 H   0  0  0  0  0  0  0  0  0  0  0  0
   -6.4579   -1.0669    1.3515 H   0  0  0  0  0  0  0  0  0  0  0  0
   -5.0243   -0.9020    2.6538 H   0  0  0  0  0  0  0  0  0  0  0  0
   -3.0993   -0.6454    4.1606 H   0  0  0  0  0  0  0  0  0  0  0  0
   -0.8996   -0.2627    3.2069 H   0  0  0  0  0  0  0  0  0  0  0  0
    0.9994   -3.1334   -0.0125 H   0  0  0  0  0  0  0  0  0  0  0  0
   -0.3611   -2.6186   -1.0403 H   0  0  0  0  0  0  0  0  0  0  0  0
   -0.5740   -2.7476    0.7116 H   0  0  0  0  0  0  0  0  0  0  0  0
    4.3083   -0.1431    1.1701 H   0  0  0  0  0  0  0  0  0  0  0  0
    6.7618    0.1944    1.1893 H   0  0  0  0  0  0  0  0  0  0  0  0
    9.0529    0.1251   -2.5751 H   0  0  0  0  0  0  0  0  0  0  0  0
   10.3106   -0.6736   -1.4971 H   0  0  0  0  0  0  0  0  0  0  0  0
    8.9123   -1.6243   -2.2103 H   0  0  0  0  0  0  0  0  0  0  0  0
    7.0068   -1.3257   -2.7425 H   0  0  0  0  0  0  0  0  0  0  0  0
    4.5677   -1.6792   -2.7989 H   0  0  0  0  0  0  0  0  0  0  0  0
    3.5073    1.8353   -0.3887 H   0  0  0  0  0  0  0  0  0  0  0  0
    2.8903    4.0406    0.4324 H   0  0  0  0  0  0  0  0  0  0  0  0
   -0.8747    2.4743    1.6038 H   0  0  0  0  0  0  0  0  0  0  0  0
   -2.5326   -0.3829   -0.7530 H   0  0  0  0  0  0  0  0  0  0  0  0
   -7.0491    2.0929   -0.9414 H   0  0  0  0  0  0  0  0  0  0  0  0
  1  2  1  0
  2  3  1  0
  3  4  1  0
  4  5  1  0
  5  6  2  0
  6  7  1  0
  7  8  2  0
  8  9  1  0
  9 10  1  0
 10 11  1  0
 11 12  1  0
 11 13  2  0
 13 14  1  0
 14 15  2  0
 14 16  1  0
 16 17  2  0
 17 18  1  0
 18 19  2  0
 19 20  1  0
 20 21  1  0
 19 22  1  0
 22 23  2  0
 13 24  1  0
 24 25  2  0
 25 26  1  0
 26 27  2  0
 27 28  1  0
 28 29  1  0
 29 30  1  0
 29 31  1  0
 29 32  1  0
 27 33  1  0
 33 34  2  0
  9 35  2  0
  3 36  1  0
 36 37  2  0
 36 38  1  0
 35  5  1  0
 34 10  1  0
 23 16  1  0
 34 24  1  0
  1 39  1  0
  1 40  1  0
  1 41  1  0
  2 42  1  0
  2 43  1  0
  3 44  1  1
  6 45  1  0
  7 46  1  0
  8 47  1  0
 12 48  1  0
 12 49  1  0
 12 50  1  0
 17 51  1  0
 18 52  1  0
 21 53  1  0
 21 54  1  0
 21 55  1  0
 22 56  1  0
 23 57  1  0
 25 58  1  0
 26 59  1  0
 33 60  1  0
 35 61  1  0
 38 62  1  0
M  END
$$$$
