
     RDKit          3D

 53 57  0  0  0  0  0  0  0  0999 V2000
   -1.7201    0.0928    1.8803 C   0  0  0  0  0  0  0  0  0  0  0  0
   -1.9042    0.0006    0.3467 C   0  0  1  0  0  0  0  0  0  0  0  0
   -0.5440    0.1029   -0.2746 C   0  0  0  0  0  0  0  0  0  0  0  0
    0.5809    0.0896    0.4989 C   0  0  0  0  0  0  0  0  0  0  0  0
    1.8680    0.1287   -0.0440 C   0  0  0  0  0  0  0  0  0  0  0  0
    2.9933    0.0983    0.8139 N   0  0  0  0  0  0  0  0  0  0  0  0
    4.1959   -0.5564    0.4701 C   0  0  0  0  0  0  0  0  0  0  0  0
    4.1421   -1.9203    0.4114 N   0  0  0  0  0  0  0  0  0  0  0  0
    5.2226   -2.6582    0.1221 C   0  0  0  0  0  0  0  0  0  0  0  0
    6.4608   -2.1029   -0.1367 C   0  0  0  0  0  0  0  0  0  0  0  0
    6.5353   -0.7272   -0.0828 C   0  0  0  0  0  0  0  0  0  0  0  0
    7.7659   -0.1718   -0.3321 C   0  0  0  0  0  0  0  0  0  0  0  0
    7.8562    1.2062   -0.2732 C   0  0  0  0  0  0  0  0  0  0  0  0
    9.4082    1.9858   -0.5787 Cl  0  0  0  0  0  0  0  0  0  0  0  0
    6.7205    1.9321    0.0276 C   0  0  0  0  0  0  0  0  0  0  0  0
    5.5311    1.3643    0.2661 N   0  0  0  0  0  0  0  0  0  0  0  0
    5.4003    0.0250    0.2197 C   0  0  0  0  0  0  0  0  0  0  0  0
    2.0231    0.1868   -1.4136 C   0  0  0  0  0  0  0  0  0  0  0  0
    0.8825    0.2027   -2.2267 C   0  0  0  0  0  0  0  0  0  0  0  0
   -0.3825    0.1603   -1.6396 C   0  0  0  0  0  0  0  0  0  0  0  0
   -1.4331    0.1801   -2.4909 F   0  0  0  0  0  0  0  0  0  0  0  0
   -2.4862   -1.3551    0.1173 C   0  0  0  0  0  0  0  0  0  0  0  0
   -4.1775   -1.3090   -0.3777 S   0  0  0  0  0  6  0  0  0  0  0  0
   -4.9881   -2.4296    0.2110 O   0  0  0  0  0  0  0  0  0  0  0  0
   -4.3642   -1.3892   -1.8631 O   0  0  0  0  0  0  0  0  0  0  0  0
   -4.8305    0.2608    0.1382 C   0  0  0  0  0  0  0  0  0  0  0  0
   -6.1519    0.4880   -0.5728 C   0  0  0  0  0  0  0  0  0  0  0  0
   -6.8423   -0.0558    0.6613 C   0  0  0  0  0  0  0  0  0  0  0  0
   -5.5570    0.2624    1.4324 C   0  0  0  0  0  0  0  0  0  0  0  0
   -3.8836    1.3265   -0.1593 C   0  0  0  0  0  0  0  0  0  0  0  0
   -4.3640    2.6070   -0.5766 N   0  0  0  0  0  0  0  0  0  0  0  0
   -2.6416    1.1327   -0.0454 N   0  0  0  0  0  0  0  0  0  0  0  0
   -2.7123    0.1465    2.3705 H   0  0  0  0  0  0  0  0  0  0  0  0
   -1.1514    0.9675    2.1892 H   0  0  0  0  0  0  0  0  0  0  0  0
   -1.2324   -0.8266    2.2528 H   0  0  0  0  0  0  0  0  0  0  0  0
    0.5550    0.0483    1.5994 H   0  0  0  0  0  0  0  0  0  0  0  0
    2.9591    0.5857    1.7593 H   0  0  0  0  0  0  0  0  0  0  0  0
    5.1399   -3.7368    0.0877 H   0  0  0  0  0  0  0  0  0  0  0  0
    7.3353   -2.7055   -0.3698 H   0  0  0  0  0  0  0  0  0  0  0  0
    8.6504   -0.7546   -0.5668 H   0  0  0  0  0  0  0  0  0  0  0  0
    6.8417    3.0171    0.0681 H   0  0  0  0  0  0  0  0  0  0  0  0
    3.0287    0.2224   -1.8232 H   0  0  0  0  0  0  0  0  0  0  0  0
    1.0467    0.2504   -3.2861 H   0  0  0  0  0  0  0  0  0  0  0  0
   -1.8615   -1.9683   -0.5985 H   0  0  0  0  0  0  0  0  0  0  0  0
   -2.4741   -2.0143    1.0438 H   0  0  0  0  0  0  0  0  0  0  0  0
   -6.4189    1.5544   -0.7098 H   0  0  0  0  0  0  0  0  0  0  0  0
   -6.3397   -0.1831   -1.4472 H   0  0  0  0  0  0  0  0  0  0  0  0
   -7.6873    0.5532    1.0235 H   0  0  0  0  0  0  0  0  0  0  0  0
   -7.0175   -1.1627    0.6562 H   0  0  0  0  0  0  0  0  0  0  0  0
   -5.2980   -0.5763    2.1360 H   0  0  0  0  0  0  0  0  0  0  0  0
   -5.5646    1.2511    1.8951 H   0  0  0  0  0  0  0  0  0  0  0  0
   -4.2945    2.9917   -1.5262 H   0  0  0  0  0  0  0  0  0  0  0  0
   -4.8208    3.1818    0.1647 H   0  0  0  0  0  0  0  0  0  0  0  0
  2  1  1  1
  2  3  1  0
  3  4  2  0
  4  5  1  0
  5  6  1  0
  6  7  1  0
  7  8  2  0
  8  9  1  0
  9 10  2  0
 10 11  1  0
 11 12  2  0
 12 13  1  0
 13 14  1  0
 13 15  2  0
 15 16  1  0
 16 17  2  0
  5 18  2  0
 18 19  1  0
 19 20  2  0
 20 21  1  0
  2 22  1  0
 22 23  1  0
 23 24  2  0
 23 25  2  0
 23 26  1  0
 26 27  1  0
 27 28  1  0
 28 29  1  0
 26 30  1  0
 30 31  1  0
 30 32  2  0
 32  2  1  0
 20  3  1  0
 29 26  1  0
 17  7  1  0
 17 11  1  0
  1 33  1  0
  1 34  1  0
  1 35  1  0
  4 36  1  0
  6 37  1  0
  9 38  1  0
 10 39  1  0
 12 40  1  0
 15 41  1  0
 18 42  1  0
 19 43  1  0
 22 44  1  0
 22 45  1  0
 27 46  1  0
 27 47  1  0
 28 48  1  0
 28 49  1  0
 29 50  1  0
 29 51  1  0
 31 52  1  0
 31 53  1  0
M  END
$$$$
