
     RDKit          3D

 51 53  0  0  0  0  0  0  0  0999 V2000
   -6.1576   -1.6404    0.1646 C   0  0  0  0  0  0  0  0  0  0  0  0
   -5.9051   -0.3708    0.8042 N   0  0  0  0  0  0  0  0  0  0  0  0
   -6.5823    0.0705    1.8998 C   0  0  0  0  0  0  0  0  0  0  0  0
   -6.0470    1.3194    2.1960 C   0  0  0  0  0  0  0  0  0  0  0  0
   -5.0997    1.5687    1.2947 N   0  0  0  0  0  0  0  0  0  0  0  0
   -5.0076    0.5210    0.4266 C   0  0  0  0  0  0  0  0  0  0  0  0
   -4.0645    0.4744   -0.6837 C   0  0  0  0  0  0  0  0  0  0  0  0
   -4.3264    1.2087   -1.7012 O   0  0  0  0  0  0  0  0  0  0  0  0
   -2.9070   -0.3078   -0.7076 N   0  0  0  0  0  0  0  0  0  0  0  0
   -2.0221   -0.2490   -1.8867 C   0  0  0  0  0  0  0  0  0  0  0  0
   -0.8457    0.6226   -1.3924 C   0  0  0  0  0  0  0  0  0  0  0  0
   -0.4315    0.1142   -0.0342 C   0  0  0  0  0  0  0  0  0  0  0  0
    1.0463    0.2221    0.1677 C   0  0  0  0  0  0  0  0  0  0  0  0
    1.9027   -0.5285   -0.6232 C   0  0  0  0  0  0  0  0  0  0  0  0
    3.2753   -0.4881   -0.5173 C   0  0  0  0  0  0  0  0  0  0  0  0
    3.8603    0.3320    0.4150 C   0  0  0  0  0  0  0  0  0  0  0  0
    5.3080    0.4357    0.6237 C   0  0  0  0  0  0  0  0  0  0  0  0
    5.7126    1.1040    1.5878 O   0  0  0  0  0  0  0  0  0  0  0  0
    6.1887   -0.2060   -0.2481 N   0  0  0  0  0  0  0  0  0  0  0  0
    7.6056   -0.1597   -0.0842 C   0  0  0  0  0  0  0  0  0  0  0  0
    8.1780    0.4245    0.8665 N   0  0  0  0  0  0  0  0  0  0  0  0
    8.4497   -0.8115   -1.0547 N   0  0  0  0  0  0  0  0  0  0  0  0
    2.9995    1.0929    1.2152 C   0  0  0  0  0  0  0  0  0  0  0  0
    1.6270    1.0497    1.1066 C   0  0  0  0  0  0  0  0  0  0  0  0
    0.7663    1.8729    2.0009 C   0  0  0  0  0  0  0  0  0  0  0  0
   -0.0655    1.0954    2.7813 F   0  0  0  0  0  0  0  0  0  0  0  0
    0.1084    2.8543    1.3163 F   0  0  0  0  0  0  0  0  0  0  0  0
    1.6315    2.5152    2.8971 F   0  0  0  0  0  0  0  0  0  0  0  0
   -0.9425   -1.2706    0.2269 C   0  0  0  0  0  0  0  0  0  0  0  0
   -2.4602   -1.2013    0.3364 C   0  0  0  0  0  0  0  0  0  0  0  0
   -5.4700   -1.8155   -0.6805 H   0  0  0  0  0  0  0  0  0  0  0  0
   -6.0953   -2.4856    0.9036 H   0  0  0  0  0  0  0  0  0  0  0  0
   -7.1899   -1.5981   -0.2760 H   0  0  0  0  0  0  0  0  0  0  0  0
   -7.3718   -0.4160    2.4508 H   0  0  0  0  0  0  0  0  0  0  0  0
   -6.3865    1.9324    3.0322 H   0  0  0  0  0  0  0  0  0  0  0  0
   -1.7065   -1.2528   -2.1573 H   0  0  0  0  0  0  0  0  0  0  0  0
   -2.4977    0.2354   -2.7387 H   0  0  0  0  0  0  0  0  0  0  0  0
   -1.2049    1.6461   -1.3697 H   0  0  0  0  0  0  0  0  0  0  0  0
   -0.0482    0.5002   -2.1503 H   0  0  0  0  0  0  0  0  0  0  0  0
   -0.9284    0.7857    0.7096 H   0  0  0  0  0  0  0  0  0  0  0  0
    1.4691   -1.1851   -1.3715 H   0  0  0  0  0  0  0  0  0  0  0  0
    3.8804   -1.1089   -1.1733 H   0  0  0  0  0  0  0  0  0  0  0  0
    5.7934   -0.7443   -1.0627 H   0  0  0  0  0  0  0  0  0  0  0  0
    7.8073    0.9335    1.6383 H   0  0  0  0  0  0  0  0  0  0  0  0
    8.1662   -1.7116   -1.4450 H   0  0  0  0  0  0  0  0  0  0  0  0
    9.3215   -0.3450   -1.3272 H   0  0  0  0  0  0  0  0  0  0  0  0
    3.4867    1.7448    1.9554 H   0  0  0  0  0  0  0  0  0  0  0  0
   -0.6389   -2.0068   -0.5179 H   0  0  0  0  0  0  0  0  0  0  0  0
   -0.5913   -1.6310    1.2099 H   0  0  0  0  0  0  0  0  0  0  0  0
   -2.7720   -0.9202    1.3394 H   0  0  0  0  0  0  0  0  0  0  0  0
   -2.8185   -2.2215    0.0697 H   0  0  0  0  0  0  0  0  0  0  0  0
  1  2  1  0
  2  3  1  0
  3  4  2  0
  4  5  1  0
  5  6  2  0
  6  7  1  0
  7  8  2  0
  7  9  1  0
  9 10  1  0
 10 11  1  0
 11 12  1  0
 12 13  1  0
 13 14  2  0
 14 15  1  0
 15 16  2  0
 16 17  1  0
 17 18  2  0
 17 19  1  0
 19 20  1  0
 20 21  2  3
 20 22  1  0
 16 23  1  0
 23 24  2  0
 24 25  1  0
 25 26  1  0
 25 27  1  0
 25 28  1  0
 12 29  1  0
 29 30  1  0
  6  2  1  0
 30  9  1  0
 24 13  1  0
  1 31  1  0
  1 32  1  0
  1 33  1  0
  3 34  1  0
  4 35  1  0
 10 36  1  0
 10 37  1  0
 11 38  1  0
 11 39  1  0
 12 40  1  0
 14 41  1  0
 15 42  1  0
 19 43  1  0
 21 44  1  0
 22 45  1  0
 22 46  1  0
 23 47  1  0
 29 48  1  0
 29 49  1  0
 30 50  1  0
 30 51  1  0
M  END
$$$$
