
     RDKit          3D

 29 30  0  0  0  0  0  0  0  0999 V2000
   -1.3704   -2.3925    0.2430 C   0  0  0  0  0  0  0  0  0  0  0  0
   -1.4775   -1.2310   -0.6905 C   0  0  0  0  0  0  0  0  0  0  0  0
   -0.8167    0.0272   -0.1761 C   0  0  0  0  0  0  0  0  0  0  0  0
   -1.0346    1.0515   -1.2409 C   0  0  0  0  0  0  0  0  0  0  0  0
   -1.0795    0.7707   -2.4673 O   0  0  0  0  0  0  0  0  0  0  0  0
   -1.2083    2.4300   -0.9406 N   0  0  0  0  0  0  0  0  0  0  0  0
   -1.4481    2.8112    0.4270 C   0  0  0  0  0  0  0  0  0  0  0  0
   -1.6109    4.0337    0.7515 O   0  0  0  0  0  0  0  0  0  0  0  0
   -1.5122    1.8452    1.4607 N   0  0  0  0  0  0  0  0  0  0  0  0
   -1.3319    0.4629    1.1189 C   0  0  0  0  0  0  0  0  0  0  0  0
   -1.6517   -0.3601    2.0217 O   0  0  0  0  0  0  0  0  0  0  0  0
    0.6586   -0.1569   -0.1167 C   0  0  0  0  0  0  0  0  0  0  0  0
    1.2837   -0.1983    1.1327 C   0  0  0  0  0  0  0  0  0  0  0  0
    2.6551   -0.3693    1.1937 C   0  0  0  0  0  0  0  0  0  0  0  0
    3.4482   -0.5027    0.0788 C   0  0  0  0  0  0  0  0  0  0  0  0
    2.8255   -0.4615   -1.1664 C   0  0  0  0  0  0  0  0  0  0  0  0
    1.4553   -0.2909   -1.2348 C   0  0  0  0  0  0  0  0  0  0  0  0
   -0.3844   -2.5207    0.7037 H   0  0  0  0  0  0  0  0  0  0  0  0
   -2.1980   -2.3978    1.0085 H   0  0  0  0  0  0  0  0  0  0  0  0
   -1.5668   -3.3161   -0.3533 H   0  0  0  0  0  0  0  0  0  0  0  0
   -2.5487   -1.0721   -0.9272 H   0  0  0  0  0  0  0  0  0  0  0  0
   -1.0120   -1.5517   -1.6450 H   0  0  0  0  0  0  0  0  0  0  0  0
   -1.1818    3.2250   -1.6156 H   0  0  0  0  0  0  0  0  0  0  0  0
   -1.6868    2.1295    2.4523 H   0  0  0  0  0  0  0  0  0  0  0  0
    0.6713   -0.0946    2.0181 H   0  0  0  0  0  0  0  0  0  0  0  0
    3.1582   -0.4044    2.1399 H   0  0  0  0  0  0  0  0  0  0  0  0
    4.5235   -0.6375    0.1011 H   0  0  0  0  0  0  0  0  0  0  0  0
    3.4391   -0.5657   -2.0640 H   0  0  0  0  0  0  0  0  0  0  0  0
    1.0015   -0.2630   -2.2134 H   0  0  0  0  0  0  0  0  0  0  0  0
  1  2  1  0
  2  3  1  0
  3  4  1  0
  4  5  2  0
  4  6  1  0
  6  7  1  0
  7  8  2  0
  7  9  1  0
  9 10  1  0
 10 11  2  0
  3 12  1  0
 12 13  2  0
 13 14  1  0
 14 15  2  0
 15 16  1  0
 16 17  2  0
 10  3  1  0
 17 12  1  0
  1 18  1  0
  1 19  1  0
  1 20  1  0
  2 21  1  0
  2 22  1  0
  6 23  1  0
  9 24  1  0
 13 25  1  0
 14 26  1  0
 15 27  1  0
 16 28  1  0
 17 29  1  0
M  END
$$$$
