
     RDKit          3D

 40 43  0  0  0  0  0  0  0  0999 V2000
   -0.9744   -5.1472    0.4083 C   0  0  0  0  0  0  0  0  0  0  0  0
   -0.4386   -4.2742    1.5287 C   0  0  0  0  0  0  0  0  0  0  0  0
   -0.3346   -2.8909    1.0004 C   0  0  0  0  0  0  0  0  0  0  0  0
    0.7308   -2.3593    0.3939 N   0  0  0  0  0  0  0  0  0  0  0  0
    0.4525   -1.0935    0.0575 C   0  0  0  0  0  0  0  0  0  0  0  0
    1.3366   -0.1584   -0.6196 C   0  0  0  0  0  0  0  0  0  0  0  0
    1.0613    0.3797   -1.8581 C   0  0  0  0  0  0  0  0  0  0  0  0
    1.9273    1.2701   -2.4774 C   0  0  0  0  0  0  0  0  0  0  0  0
    3.0886    1.6437   -1.8739 C   0  0  0  0  0  0  0  0  0  0  0  0
    3.3890    1.1207   -0.6349 C   0  0  0  0  0  0  0  0  0  0  0  0
    4.6633    1.5466   -0.0011 C   0  0  0  0  0  0  0  0  0  0  0  0
    2.5134    0.2220   -0.0114 C   0  0  0  0  0  0  0  0  0  0  0  0
   -0.8319   -0.8260    0.4687 C   0  0  0  0  0  0  0  0  0  0  0  0
   -1.5742    0.4090    0.3256 C   0  0  0  0  0  0  0  0  0  0  0  0
   -2.7489    0.4294   -0.4114 C   0  0  0  0  0  0  0  0  0  0  0  0
   -3.4990    1.5737   -0.5834 C   0  0  0  0  0  0  0  0  0  0  0  0
   -3.0407    2.7299    0.0112 C   0  0  0  0  0  0  0  0  0  0  0  0
   -3.5416    3.9759    0.0232 N   0  0  0  0  0  0  0  0  0  0  0  0
   -2.7181    4.7551    0.7491 C   0  0  0  0  0  0  0  0  0  0  0  0
   -1.7240    3.9591    1.1674 N   0  0  0  0  0  0  0  0  0  0  0  0
   -1.8894    2.7197    0.7360 N   0  0  0  0  0  0  0  0  0  0  0  0
   -1.1743    1.5884    0.8895 C   0  0  0  0  0  0  0  0  0  0  0  0
   -1.2778   -1.9586    1.0431 N   0  0  0  0  0  0  0  0  0  0  0  0
   -2.0091   -4.8542    0.2381 H   0  0  0  0  0  0  0  0  0  0  0  0
   -0.3570   -4.9639   -0.5105 H   0  0  0  0  0  0  0  0  0  0  0  0
   -0.8461   -6.2087    0.6825 H   0  0  0  0  0  0  0  0  0  0  0  0
   -1.1647   -4.2593    2.3681 H   0  0  0  0  0  0  0  0  0  0  0  0
    0.5639   -4.6236    1.8505 H   0  0  0  0  0  0  0  0  0  0  0  0
    0.1410    0.0869   -2.3421 H   0  0  0  0  0  0  0  0  0  0  0  0
    1.6356    1.6470   -3.4512 H   0  0  0  0  0  0  0  0  0  0  0  0
    3.7569    2.3493   -2.3837 H   0  0  0  0  0  0  0  0  0  0  0  0
    4.6084    1.4979    1.1061 H   0  0  0  0  0  0  0  0  0  0  0  0
    5.5174    0.8811   -0.3191 H   0  0  0  0  0  0  0  0  0  0  0  0
    4.8952    2.5717   -0.3398 H   0  0  0  0  0  0  0  0  0  0  0  0
    2.7785   -0.1639    0.9497 H   0  0  0  0  0  0  0  0  0  0  0  0
   -3.1252   -0.4765   -0.8882 H   0  0  0  0  0  0  0  0  0  0  0  0
   -4.4196    1.5911   -1.1603 H   0  0  0  0  0  0  0  0  0  0  0  0
   -2.8690    5.8197    0.9345 H   0  0  0  0  0  0  0  0  0  0  0  0
   -0.2633    1.5864    1.4646 H   0  0  0  0  0  0  0  0  0  0  0  0
   -2.2378   -2.0961    1.4693 H   0  0  0  0  0  0  0  0  0  0  0  0
  1  2  1  0
  2  3  1  0
  3  4  2  0
  4  5  1  0
  5  6  1  0
  6  7  2  0
  7  8  1  0
  8  9  2  0
  9 10  1  0
 10 11  1  0
 10 12  2  0
  5 13  2  0
 13 14  1  0
 14 15  1  0
 15 16  2  0
 16 17  1  0
 17 18  2  0
 18 19  1  0
 19 20  2  0
 20 21  1  0
 21 22  1  0
 13 23  1  0
 23  3  1  0
 12  6  1  0
 22 14  2  0
 21 17  1  0
  1 24  1  0
  1 25  1  0
  1 26  1  0
  2 27  1  0
  2 28  1  0
  7 29  1  0
  8 30  1  0
  9 31  1  0
 11 32  1  0
 11 33  1  0
 11 34  1  0
 12 35  1  0
 15 36  1  0
 16 37  1  0
 19 38  1  0
 22 39  1  0
 23 40  1  0
M  END
$$$$
