
     RDKit          3D

 64 68  0  0  0  0  0  0  0  0999 V2000
   -1.9658   -1.9965    2.6853 C   0  0  0  0  0  0  0  0  0  0  0  0
   -1.6485   -0.7085    1.9533 C   0  0  1  0  0  0  0  0  0  0  0  0
   -0.4505   -0.8856    1.2950 O   0  0  0  0  0  0  0  0  0  0  0  0
    0.5141    0.0309    1.5618 C   0  0  1  0  0  0  0  0  0  0  0  0
    1.7894   -0.4749    2.1160 C   0  0  0  0  0  0  0  0  0  0  0  0
    2.8108   -0.2943    1.0867 N   0  0  0  0  0  0  0  0  0  0  0  0
    4.0932   -0.6861    0.6146 C   0  0  0  0  0  0  0  0  0  0  0  0
    4.9163   -1.3817    1.2904 O   0  0  0  0  0  0  0  0  0  0  0  0
    4.2902   -0.1492   -0.7738 C   0  0  1  0  0  0  0  0  0  0  0  0
    4.6953   -1.2209   -1.7376 C   0  0  0  0  0  0  0  0  0  0  0  0
    3.5251   -2.1943   -1.6150 C   0  0  1  0  0  0  0  0  0  0  0  0
    3.3935   -3.0775   -2.8111 C   0  0  0  0  0  0  0  0  0  0  0  0
    3.8196   -2.9913   -0.4850 O   0  0  0  0  0  0  0  0  0  0  0  0
    2.3361   -1.3080   -1.3743 C   0  0  0  0  0  0  0  0  0  0  0  0
    2.8295    0.0863   -1.1640 C   0  0  1  0  0  0  0  0  0  0  0  0
    2.3421    0.7033    0.1251 C   0  0  1  0  0  0  0  0  0  0  0  0
    0.8534    0.7408    0.2491 C   0  0  2  0  0  0  0  0  0  0  0  0
    0.4444    2.1664    0.3762 C   0  0  0  0  0  0  0  0  0  0  0  0
    0.9926    2.9478    1.3867 C   0  0  0  0  0  0  0  0  0  0  0  0
    0.6541    4.2778    1.5578 C   0  0  0  0  0  0  0  0  0  0  0  0
   -0.2520    4.8638    0.7112 C   0  0  0  0  0  0  0  0  0  0  0  0
   -0.6404    6.1451    0.8002 F   0  0  0  0  0  0  0  0  0  0  0  0
   -0.7969    4.0847   -0.2941 C   0  0  0  0  0  0  0  0  0  0  0  0
   -0.4577    2.7661   -0.4594 C   0  0  0  0  0  0  0  0  0  0  0  0
   -2.7435   -0.5012    0.9523 C   0  0  0  0  0  0  0  0  0  0  0  0
   -3.6948    0.4902    1.1023 C   0  0  0  0  0  0  0  0  0  0  0  0
   -4.7110    0.7203    0.2207 C   0  0  0  0  0  0  0  0  0  0  0  0
   -5.6624    1.8229    0.5102 C   0  0  0  0  0  0  0  0  0  0  0  0
   -5.2741    2.9051   -0.2677 F   0  0  0  0  0  0  0  0  0  0  0  0
   -5.6584    2.1435    1.8493 F   0  0  0  0  0  0  0  0  0  0  0  0
   -6.8982    1.4268    0.0594 F   0  0  0  0  0  0  0  0  0  0  0  0
   -4.8144   -0.0760   -0.8992 C   0  0  0  0  0  0  0  0  0  0  0  0
   -3.8844   -1.0768   -1.0856 C   0  0  0  0  0  0  0  0  0  0  0  0
   -4.0428   -1.9101   -2.3152 C   0  0  0  0  0  0  0  0  0  0  0  0
   -5.1570   -2.7242   -2.1969 F   0  0  0  0  0  0  0  0  0  0  0  0
   -2.9594   -2.7014   -2.5633 F   0  0  0  0  0  0  0  0  0  0  0  0
   -4.3149   -1.0478   -3.3848 F   0  0  0  0  0  0  0  0  0  0  0  0
   -2.8608   -1.2941   -0.1794 C   0  0  0  0  0  0  0  0  0  0  0  0
   -2.9961   -1.9742    3.1055 H   0  0  0  0  0  0  0  0  0  0  0  0
   -1.9629   -2.8166    1.9159 H   0  0  0  0  0  0  0  0  0  0  0  0
   -1.2194   -2.2703    3.4300 H   0  0  0  0  0  0  0  0  0  0  0  0
   -1.6717    0.1633    2.6197 H   0  0  0  0  0  0  0  0  0  0  0  0
    0.0879    0.7685    2.3037 H   0  0  0  0  0  0  0  0  0  0  0  0
    2.1458    0.1444    2.9801 H   0  0  0  0  0  0  0  0  0  0  0  0
    1.7824   -1.5151    2.4638 H   0  0  0  0  0  0  0  0  0  0  0  0
    4.8887    0.7545   -0.8006 H   0  0  0  0  0  0  0  0  0  0  0  0
    4.6410   -0.8041   -2.7533 H   0  0  0  0  0  0  0  0  0  0  0  0
    5.6419   -1.7179   -1.4961 H   0  0  0  0  0  0  0  0  0  0  0  0
    2.3903   -3.5289   -2.8185 H   0  0  0  0  0  0  0  0  0  0  0  0
    4.1548   -3.8796   -2.7312 H   0  0  0  0  0  0  0  0  0  0  0  0
    3.6233   -2.4815   -3.7184 H   0  0  0  0  0  0  0  0  0  0  0  0
    4.7044   -3.3994   -0.6382 H   0  0  0  0  0  0  0  0  0  0  0  0
    1.6190   -1.3893   -2.2384 H   0  0  0  0  0  0  0  0  0  0  0  0
    1.8504   -1.6488   -0.4483 H   0  0  0  0  0  0  0  0  0  0  0  0
    2.7318    0.7470   -2.0335 H   0  0  0  0  0  0  0  0  0  0  0  0
    2.8514    1.6505    0.2928 H   0  0  0  0  0  0  0  0  0  0  0  0
    0.3156    0.3082   -0.5974 H   0  0  0  0  0  0  0  0  0  0  0  0
    1.7171    2.5525    2.0955 H   0  0  0  0  0  0  0  0  0  0  0  0
    1.0763    4.8954    2.3428 H   0  0  0  0  0  0  0  0  0  0  0  0
   -1.5093    4.5133   -0.9736 H   0  0  0  0  0  0  0  0  0  0  0  0
   -0.8897    2.1453   -1.2579 H   0  0  0  0  0  0  0  0  0  0  0  0
   -3.6094    1.1124    1.9827 H   0  0  0  0  0  0  0  0  0  0  0  0
   -5.6285    0.1264   -1.5828 H   0  0  0  0  0  0  0  0  0  0  0  0
   -2.1472   -2.0771   -0.3413 H   0  0  0  0  0  0  0  0  0  0  0  0
  1  2  1  0
  2  3  1  0
  3  4  1  0
  4  5  1  0
  5  6  1  0
  6  7  1  0
  7  8  2  0
  7  9  1  0
  9 10  1  0
 10 11  1  0
 11 12  1  0
 11 13  1  1
 11 14  1  0
 14 15  1  0
 15 16  1  0
 16 17  1  0
 17 18  1  0
 18 19  2  0
 19 20  1  0
 20 21  2  0
 21 22  1  0
 21 23  1  0
 23 24  2  0
  2 25  1  0
 25 26  2  0
 26 27  1  0
 27 28  1  0
 28 29  1  0
 28 30  1  0
 28 31  1  0
 27 32  2  0
 32 33  1  0
 33 34  1  0
 34 35  1  0
 34 36  1  0
 34 37  1  0
 33 38  2  0
 17  4  1  0
 24 18  1  0
 38 25  1  0
 16  6  1  0
 15  9  1  0
  1 39  1  0
  1 40  1  0
  1 41  1  0
  2 42  1  1
  4 43  1  1
  5 44  1  0
  5 45  1  0
  9 46  1  1
 10 47  1  0
 10 48  1  0
 12 49  1  0
 12 50  1  0
 12 51  1  0
 13 52  1  0
 14 53  1  0
 14 54  1  0
 15 55  1  6
 16 56  1  1
 17 57  1  6
 19 58  1  0
 20 59  1  0
 23 60  1  0
 24 61  1  0
 26 62  1  0
 32 63  1  0
 38 64  1  0
M  END
$$$$
