
     RDKit          3D

 46 49  0  0  0  0  0  0  0  0999 V2000
   -3.1681    0.4128    1.5757 C   0  0  0  0  0  0  0  0  0  0  0  0
   -3.0088   -0.4605    0.3488 C   0  0  2  0  0  0  0  0  0  0  0  0
   -2.2712   -1.7040    0.6249 C   0  0  0  0  0  0  0  0  0  0  0  0
   -0.9353   -1.8970    0.0263 C   0  0  0  0  0  0  0  0  0  0  0  0
   -0.2098   -0.7035   -0.4909 C   0  0  1  0  0  0  0  0  0  0  0  0
   -0.9734    0.6018   -0.2310 C   0  0  1  0  0  0  0  0  0  0  0  0
   -0.2029    1.7152   -0.8415 C   0  0  0  0  0  0  0  0  0  0  0  0
    0.9958    1.9348    0.0922 C   0  0  0  0  0  0  0  0  0  0  0  0
    1.7648    0.6867    0.2656 C   0  0  0  0  0  0  0  0  0  0  0  0
    1.1729   -0.5446   -0.0164 C   0  0  0  0  0  0  0  0  0  0  0  0
    1.9625   -1.6673    0.1723 C   0  0  0  0  0  0  0  0  0  0  0  0
    3.2636   -1.5805    0.6146 C   0  0  0  0  0  0  0  0  0  0  0  0
    3.8445   -0.3594    0.8922 C   0  0  0  0  0  0  0  0  0  0  0  0
    5.1397   -0.1455    1.3411 O   0  0  0  0  0  0  0  0  0  0  0  0
    6.3631    0.0740    0.1934 S   0  0  0  0  0  0  0  0  0  0  0  0
    7.8597   -0.5045    0.7480 O   0  0  0  0  0  0  0  0  0  0  0  0
    6.5283    1.5306   -0.1339 O   0  0  0  0  0  0  0  0  0  0  0  0
    6.0129   -0.7302   -1.0226 O   0  0  0  0  0  0  0  0  0  0  0  0
    3.0757    0.7915    0.7124 C   0  0  0  0  0  0  0  0  0  0  0  0
   -2.3097    0.3159   -0.7758 C   0  0  2  0  0  0  0  0  0  0  0  0
   -3.2620    1.4238   -0.9937 C   0  0  0  0  0  0  0  0  0  0  0  0
   -4.5959    0.6889   -1.0093 C   0  0  0  0  0  0  0  0  0  0  0  0
   -4.3526   -0.5859   -0.2436 C   0  0  0  0  0  0  0  0  0  0  0  0
   -5.2354   -1.4339   -0.2444 O   0  0  0  0  0  0  0  0  0  0  0  0
   -4.2265    0.5343    1.8891 H   0  0  0  0  0  0  0  0  0  0  0  0
   -2.7589    1.4183    1.4792 H   0  0  0  0  0  0  0  0  0  0  0  0
   -2.6665   -0.0325    2.4771 H   0  0  0  0  0  0  0  0  0  0  0  0
   -2.9597   -2.5573    0.3646 H   0  0  0  0  0  0  0  0  0  0  0  0
   -2.1963   -1.7966    1.7495 H   0  0  0  0  0  0  0  0  0  0  0  0
   -0.2550   -2.3876    0.7637 H   0  0  0  0  0  0  0  0  0  0  0  0
   -1.0227   -2.6821   -0.7825 H   0  0  0  0  0  0  0  0  0  0  0  0
   -0.1440   -0.7742   -1.6020 H   0  0  0  0  0  0  0  0  0  0  0  0
   -0.9365    0.7081    0.8803 H   0  0  0  0  0  0  0  0  0  0  0  0
    0.2188    1.4892   -1.8396 H   0  0  0  0  0  0  0  0  0  0  0  0
   -0.7831    2.6427   -0.8895 H   0  0  0  0  0  0  0  0  0  0  0  0
    0.5686    2.2257    1.0813 H   0  0  0  0  0  0  0  0  0  0  0  0
    1.6348    2.7565   -0.2367 H   0  0  0  0  0  0  0  0  0  0  0  0
    1.6160   -2.6927   -0.0133 H   0  0  0  0  0  0  0  0  0  0  0  0
    3.9116   -2.4313    0.7743 H   0  0  0  0  0  0  0  0  0  0  0  0
    7.8206   -1.4864    0.6237 H   0  0  0  0  0  0  0  0  0  0  0  0
    3.4900    1.7886    0.9189 H   0  0  0  0  0  0  0  0  0  0  0  0
   -2.2960   -0.3331   -1.6624 H   0  0  0  0  0  0  0  0  0  0  0  0
   -3.0709    1.8491   -2.0207 H   0  0  0  0  0  0  0  0  0  0  0  0
   -3.2227    2.2705   -0.3153 H   0  0  0  0  0  0  0  0  0  0  0  0
   -4.7713    0.3454   -2.0580 H   0  0  0  0  0  0  0  0  0  0  0  0
   -5.4088    1.2861   -0.5992 H   0  0  0  0  0  0  0  0  0  0  0  0
  2  1  1  1
  2  3  1  0
  3  4  1  0
  4  5  1  0
  5  6  1  0
  6  7  1  0
  7  8  1  0
  8  9  1  0
  9 10  2  0
 10 11  1  0
 11 12  2  0
 12 13  1  0
 13 14  1  0
 14 15  1  0
 15 16  1  0
 15 17  2  0
 15 18  2  0
 13 19  2  0
  6 20  1  0
 20 21  1  0
 21 22  1  0
 22 23  1  0
 23 24  2  0
 20  2  1  0
 23  2  1  0
 10  5  1  0
 19  9  1  0
  1 25  1  0
  1 26  1  0
  1 27  1  0
  3 28  1  0
  3 29  1  0
  4 30  1  0
  4 31  1  0
  5 32  1  6
  6 33  1  1
  7 34  1  0
  7 35  1  0
  8 36  1  0
  8 37  1  0
 11 38  1  0
 12 39  1  0
 16 40  1  0
 19 41  1  0
 20 42  1  6
 21 43  1  0
 21 44  1  0
 22 45  1  0
 22 46  1  0
M  END
$$$$
