
     RDKit          3D

 40 42  0  0  0  0  0  0  0  0999 V2000
   -2.4703    1.8654    0.9595 O   0  0  0  0  0  0  0  0  0  0  0  0
   -2.0432    0.9505    0.1557 C   0  0  0  0  0  0  0  0  0  0  0  0
   -3.0076    0.0666   -0.3376 N   0  0  0  0  0  0  0  0  0  0  0  0
   -2.8181   -1.0467   -1.2297 C   0  0  0  0  0  0  0  0  0  0  0  0
   -4.1159   -1.8736   -1.1701 C   0  0  0  0  0  0  0  0  0  0  0  0
   -4.3912   -2.1036    0.1731 O   0  0  0  0  0  0  0  0  0  0  0  0
   -4.8307   -0.9685    0.8153 C   0  0  0  0  0  0  0  0  0  0  0  0
   -4.4013    0.2761    0.0785 C   0  0  0  0  0  0  0  0  0  0  0  0
   -0.6634    0.9933   -0.0949 N   0  0  0  0  0  0  0  0  0  0  0  0
   -0.0363    0.0554   -0.9734 C   0  0  0  0  0  0  0  0  0  0  0  0
    1.3630    0.6251   -1.3049 C   0  0  0  0  0  0  0  0  0  0  0  0
    2.0842    0.7220   -0.0513 N   0  0  0  0  0  0  0  0  0  0  0  0
    3.3926    0.1692    0.0515 C   0  0  0  0  0  0  0  0  0  0  0  0
    4.1175    0.2364    1.2217 C   0  0  0  0  0  0  0  0  0  0  0  0
    5.3945   -0.3018    1.3262 C   0  0  0  0  0  0  0  0  0  0  0  0
    5.9557   -0.9225    0.2266 C   0  0  0  0  0  0  0  0  0  0  0  0
    7.7217   -1.6835    0.3212 Br  0  0  0  0  0  0  0  0  0  0  0  0
    5.2099   -0.9756   -0.9294 C   0  0  0  0  0  0  0  0  0  0  0  0
    3.9659   -0.4405   -0.9989 N   0  0  0  0  0  0  0  0  0  0  0  0
    1.4502    1.3833    1.0716 C   0  0  0  0  0  0  0  0  0  0  0  0
    0.1466    2.0049    0.5512 C   0  0  0  0  0  0  0  0  0  0  0  0
   -2.7857   -0.6928   -2.2847 H   0  0  0  0  0  0  0  0  0  0  0  0
   -1.9625   -1.7033   -0.9745 H   0  0  0  0  0  0  0  0  0  0  0  0
   -4.9324   -1.3142   -1.6260 H   0  0  0  0  0  0  0  0  0  0  0  0
   -3.9058   -2.8346   -1.6892 H   0  0  0  0  0  0  0  0  0  0  0  0
   -4.3366   -0.9117    1.8274 H   0  0  0  0  0  0  0  0  0  0  0  0
   -5.9350   -0.9335    0.9274 H   0  0  0  0  0  0  0  0  0  0  0  0
   -4.4443    1.1663    0.7487 H   0  0  0  0  0  0  0  0  0  0  0  0
   -5.0135    0.5108   -0.8128 H   0  0  0  0  0  0  0  0  0  0  0  0
   -0.5302   -0.1027   -1.9400 H   0  0  0  0  0  0  0  0  0  0  0  0
    0.1633   -0.8944   -0.4020 H   0  0  0  0  0  0  0  0  0  0  0  0
    1.8853   -0.0281   -2.0260 H   0  0  0  0  0  0  0  0  0  0  0  0
    1.2188    1.6055   -1.7879 H   0  0  0  0  0  0  0  0  0  0  0  0
    3.6745    0.7219    2.0762 H   0  0  0  0  0  0  0  0  0  0  0  0
    5.9700   -0.2515    2.2461 H   0  0  0  0  0  0  0  0  0  0  0  0
    5.6533   -1.4689   -1.8066 H   0  0  0  0  0  0  0  0  0  0  0  0
    2.0533    2.1737    1.5175 H   0  0  0  0  0  0  0  0  0  0  0  0
    1.1839    0.6518    1.8657 H   0  0  0  0  0  0  0  0  0  0  0  0
    0.4150    2.7728   -0.2236 H   0  0  0  0  0  0  0  0  0  0  0  0
   -0.3953    2.5010    1.3943 H   0  0  0  0  0  0  0  0  0  0  0  0
  1  2  2  0
  2  3  1  0
  3  4  1  0
  4  5  1  0
  5  6  1  0
  6  7  1  0
  7  8  1  0
  2  9  1  0
  9 10  1  0
 10 11  1  0
 11 12  1  0
 12 13  1  0
 13 14  2  0
 14 15  1  0
 15 16  2  0
 16 17  1  0
 16 18  1  0
 18 19  2  0
 12 20  1  0
 20 21  1  0
  8  3  1  0
 21  9  1  0
 19 13  1  0
  4 22  1  0
  4 23  1  0
  5 24  1  0
  5 25  1  0
  7 26  1  0
  7 27  1  0
  8 28  1  0
  8 29  1  0
 10 30  1  0
 10 31  1  0
 11 32  1  0
 11 33  1  0
 14 34  1  0
 15 35  1  0
 18 36  1  0
 20 37  1  0
 20 38  1  0
 21 39  1  0
 21 40  1  0
M  END
$$$$
