
     RDKit          3D

 35 37  0  0  0  0  0  0  0  0999 V2000
   -3.9659    0.9236   -0.1681 C   0  0  0  0  0  0  0  0  0  0  0  0
   -2.9257    1.0360    0.9321 C   0  0  0  0  0  0  0  0  0  0  0  0
   -2.6672    2.4645    1.2583 C   0  0  0  0  0  0  0  0  0  0  0  0
   -1.7356    0.3061    0.5372 N   0  0  0  0  0  0  0  0  0  0  0  0
   -0.5426    0.7865    0.3163 N   0  0  0  0  0  0  0  0  0  0  0  0
    0.3340   -0.2002   -0.0399 C   0  0  0  0  0  0  0  0  0  0  0  0
   -0.4523   -1.3290   -0.0108 C   0  0  0  0  0  0  0  0  0  0  0  0
   -1.7436   -1.0263    0.3469 C   0  0  0  0  0  0  0  0  0  0  0  0
   -2.5968   -2.0663    0.4089 N   0  0  0  0  0  0  0  0  0  0  0  0
   -2.1824   -3.3360    0.1302 C   0  0  0  0  0  0  0  0  0  0  0  0
   -0.9066   -3.6072   -0.2182 N   0  0  0  0  0  0  0  0  0  0  0  0
   -0.0169   -2.6022   -0.2942 C   0  0  0  0  0  0  0  0  0  0  0  0
    1.3204   -2.9195   -0.6491 N   0  0  0  0  0  0  0  0  0  0  0  0
    1.7071    0.1522   -0.3155 C   0  0  0  0  0  0  0  0  0  0  0  0
    2.5002   -0.1812   -1.3920 C   0  0  0  0  0  0  0  0  0  0  0  0
    3.8104    0.2152   -1.5113 C   0  0  0  0  0  0  0  0  0  0  0  0
    4.3922    0.9850   -0.5256 C   0  0  0  0  0  0  0  0  0  0  0  0
    3.6595    1.3541    0.5745 C   0  0  0  0  0  0  0  0  0  0  0  0
    4.2323    2.1275    1.5715 O   0  0  0  0  0  0  0  0  0  0  0  0
    2.3605    0.9335    0.6452 C   0  0  0  0  0  0  0  0  0  0  0  0
   -4.9178    1.3617    0.1668 H   0  0  0  0  0  0  0  0  0  0  0  0
   -4.1618   -0.1656   -0.3604 H   0  0  0  0  0  0  0  0  0  0  0  0
   -3.6552    1.4549   -1.0847 H   0  0  0  0  0  0  0  0  0  0  0  0
   -3.3594    0.5073    1.8192 H   0  0  0  0  0  0  0  0  0  0  0  0
   -2.8270    3.1553    0.3795 H   0  0  0  0  0  0  0  0  0  0  0  0
   -1.7106    2.6918    1.7328 H   0  0  0  0  0  0  0  0  0  0  0  0
   -3.4884    2.7810    1.9667 H   0  0  0  0  0  0  0  0  0  0  0  0
   -3.0254   -4.0214    0.2392 H   0  0  0  0  0  0  0  0  0  0  0  0
    1.6286   -3.2643   -1.6051 H   0  0  0  0  0  0  0  0  0  0  0  0
    2.2040   -2.8778   -0.0740 H   0  0  0  0  0  0  0  0  0  0  0  0
    2.0414   -0.7653   -2.1563 H   0  0  0  0  0  0  0  0  0  0  0  0
    4.3718   -0.0847   -2.3842 H   0  0  0  0  0  0  0  0  0  0  0  0
    5.4328    1.2854   -0.6455 H   0  0  0  0  0  0  0  0  0  0  0  0
    5.0651    2.6753    1.3918 H   0  0  0  0  0  0  0  0  0  0  0  0
    1.8209    1.2503    1.5340 H   0  0  0  0  0  0  0  0  0  0  0  0
  1  2  1  0
  2  3  1  0
  2  4  1  0
  4  5  1  0
  5  6  2  0
  6  7  1  0
  7  8  2  0
  8  9  1  0
  9 10  2  0
 10 11  1  0
 11 12  2  0
 12 13  1  0
  6 14  1  0
 14 15  2  0
 15 16  1  0
 16 17  2  0
 17 18  1  0
 18 19  1  0
 18 20  2  0
  8  4  1  0
 20 14  1  0
 12  7  1  0
  1 21  1  0
  1 22  1  0
  1 23  1  0
  2 24  1  0
  3 25  1  0
  3 26  1  0
  3 27  1  0
 10 28  1  0
 13 29  1  0
 13 30  1  0
 15 31  1  0
 16 32  1  0
 17 33  1  0
 19 34  1  0
 20 35  1  0
M  END
$$$$
