
     RDKit          3D

 45 48  0  0  0  0  0  0  0  0999 V2000
    3.3767    4.0359   -0.1976 O   0  0  0  0  0  0  0  0  0  0  0  0
    3.2628    2.5856   -0.6506 S   0  0  0  0  0  6  0  0  0  0  0  0
    4.3857    1.8616    0.0507 O   0  0  0  0  0  0  0  0  0  0  0  0
    3.5345    2.5074   -2.3336 N   0  0  0  0  0  0  0  0  0  0  0  0
    2.6770    3.1688   -3.2468 C   0  0  0  0  0  0  0  0  0  0  0  0
    1.5955    3.9413   -2.8158 C   0  0  0  0  0  0  0  0  0  0  0  0
    0.8894    4.5452   -4.3657 S   0  0  0  0  0  0  0  0  0  0  0  0
    2.2026    3.6344   -5.3836 C   0  0  0  0  0  0  0  0  0  0  0  0
    2.8010    3.1492   -4.5599 N   0  0  0  0  0  0  0  0  0  0  0  0
    1.7530    1.9042   -0.1365 C   0  0  0  0  0  0  0  0  0  0  0  0
    0.8699    2.6979    0.5732 C   0  0  0  0  0  0  0  0  0  0  0  0
   -0.3317    2.2034    1.0235 C   0  0  0  0  0  0  0  0  0  0  0  0
   -1.4492    3.2258    1.9261 Cl  0  0  0  0  0  0  0  0  0  0  0  0
   -0.6420    0.8673    0.7442 C   0  0  0  0  0  0  0  0  0  0  0  0
   -1.8482    0.4327    1.2204 O   0  0  0  0  0  0  0  0  0  0  0  0
   -2.3186   -0.8604    1.1107 C   0  0  0  0  0  0  0  0  0  0  0  0
   -3.4639   -1.1328    0.3804 C   0  0  0  0  0  0  0  0  0  0  0  0
   -3.9365   -2.4210    0.2699 C   0  0  0  0  0  0  0  0  0  0  0  0
   -3.2436   -3.4310    0.9021 C   0  0  0  0  0  0  0  0  0  0  0  0
   -3.7367   -4.8384    0.7961 C   0  0  0  0  0  0  0  0  0  0  0  0
   -4.4630   -5.0263   -0.3704 F   0  0  0  0  0  0  0  0  0  0  0  0
   -4.5023   -5.1447    1.8977 F   0  0  0  0  0  0  0  0  0  0  0  0
   -2.6717   -5.7360    0.7351 F   0  0  0  0  0  0  0  0  0  0  0  0
   -2.0889   -3.1659    1.6404 C   0  0  0  0  0  0  0  0  0  0  0  0
   -1.6112   -1.8731    1.7544 C   0  0  0  0  0  0  0  0  0  0  0  0
   -0.4248   -1.5597    2.5396 C   0  0  0  0  0  0  0  0  0  0  0  0
    0.7100   -2.3302    2.3903 C   0  0  0  0  0  0  0  0  0  0  0  0
    1.8490   -2.0512    3.1275 C   0  0  0  0  0  0  0  0  0  0  0  0
    1.8150   -1.0185    3.9827 N   0  0  0  0  0  0  0  0  0  0  0  0
    0.7409   -0.2533    4.1543 N   0  0  0  0  0  0  0  0  0  0  0  0
   -0.3595   -0.5212    3.4436 C   0  0  0  0  0  0  0  0  0  0  0  0
    0.2360    0.0892    0.0413 C   0  0  0  0  0  0  0  0  0  0  0  0
    1.4580    0.5952   -0.4152 C   0  0  0  0  0  0  0  0  0  0  0  0
    2.3195   -0.1768   -1.1065 F   0  0  0  0  0  0  0  0  0  0  0  0
    4.3439    1.9647   -2.6898 H   0  0  0  0  0  0  0  0  0  0  0  0
    1.2249    4.1663   -1.8203 H   0  0  0  0  0  0  0  0  0  0  0  0
    2.1030    3.7683   -6.5067 H   0  0  0  0  0  0  0  0  0  0  0  0
    1.0999    3.7460    0.7988 H   0  0  0  0  0  0  0  0  0  0  0  0
   -4.0049   -0.3212   -0.1169 H   0  0  0  0  0  0  0  0  0  0  0  0
   -4.8448   -2.6494   -0.3065 H   0  0  0  0  0  0  0  0  0  0  0  0
   -1.5407   -3.9612    2.1405 H   0  0  0  0  0  0  0  0  0  0  0  0
    0.7213   -3.1564    1.6988 H   0  0  0  0  0  0  0  0  0  0  0  0
    2.7593   -2.6204    3.0489 H   0  0  0  0  0  0  0  0  0  0  0  0
   -1.2241    0.0977    3.5849 H   0  0  0  0  0  0  0  0  0  0  0  0
   -0.0224   -0.9392   -0.1809 H   0  0  0  0  0  0  0  0  0  0  0  0
  1  2  2  0
  2  3  2  0
  2  4  1  0
  4  5  1  0
  5  6  2  0
  6  7  1  0
  7  8  1  0
  8  9  2  0
  2 10  1  0
 10 11  2  0
 11 12  1  0
 12 13  1  0
 12 14  2  0
 14 15  1  0
 15 16  1  0
 16 17  2  0
 17 18  1  0
 18 19  2  0
 19 20  1  0
 20 21  1  0
 20 22  1  0
 20 23  1  0
 19 24  1  0
 24 25  2  0
 25 26  1  0
 26 27  2  0
 27 28  1  0
 28 29  2  0
 29 30  1  0
 30 31  2  0
 14 32  1  0
 32 33  2  0
 33 34  1  0
  9  5  1  0
 33 10  1  0
 25 16  1  0
 31 26  1  0
  4 35  1  0
  6 36  1  0
  8 37  1  0
 11 38  1  0
 17 39  1  0
 18 40  1  0
 24 41  1  0
 27 42  1  0
 28 43  1  0
 31 44  1  0
 32 45  1  0
M  END
$$$$
