
     RDKit          3D

 53 57  0  0  0  0  0  0  0  0999 V2000
    1.4096   -1.0823    1.5534 O   0  0  0  0  0  0  0  0  0  0  0  0
    1.1229   -0.3362    0.5743 C   0  0  0  0  0  0  0  0  0  0  0  0
    2.1725   -0.0238   -0.3375 N   0  0  0  0  0  0  0  0  0  0  0  0
    3.5028   -0.5566   -0.1212 C   0  0  1  0  0  0  0  0  0  0  0  0
    4.1811   -0.9901   -1.4114 C   0  0  0  0  0  0  0  0  0  0  0  0
    4.6069    0.2775   -0.6509 C   0  0  2  0  0  0  0  0  0  0  0  0
    5.9771    0.1622   -0.1031 C   0  0  0  0  0  0  0  0  0  0  0  0
    6.4484   -0.9887    0.5221 C   0  0  0  0  0  0  0  0  0  0  0  0
    7.7308   -1.0599    1.0203 C   0  0  0  0  0  0  0  0  0  0  0  0
    8.6067   -0.0026    0.9258 C   0  0  0  0  0  0  0  0  0  0  0  0
    8.1487    1.1477    0.3057 C   0  0  0  0  0  0  0  0  0  0  0  0
    6.8554    1.2185   -0.1963 C   0  0  0  0  0  0  0  0  0  0  0  0
   -0.1945    0.1478    0.4244 N   0  0  0  0  0  0  0  0  0  0  0  0
   -0.5340    0.9987   -0.6868 C   0  0  0  0  0  0  0  0  0  0  0  0
   -1.8464    1.6863   -0.3318 C   0  0  0  0  0  0  0  0  0  0  0  0
   -2.9490    0.6614   -0.1390 C   0  0  0  0  0  0  0  0  0  0  0  0
   -3.4033    0.2339   -1.5139 C   0  0  0  0  0  0  0  0  0  0  0  0
   -4.5171   -0.7850   -1.4181 C   0  0  0  0  0  0  0  0  0  0  0  0
   -5.5288   -0.3335   -0.4328 C   0  0  0  0  0  0  0  0  0  0  0  0
   -6.7528   -0.9619   -0.4290 C   0  0  0  0  0  0  0  0  0  0  0  0
   -7.7513   -0.6072    0.4514 C   0  0  0  0  0  0  0  0  0  0  0  0
   -7.4800    0.4073    1.3357 C   0  0  0  0  0  0  0  0  0  0  0  0
   -6.2613    1.0441    1.3432 C   0  0  0  0  0  0  0  0  0  0  0  0
   -5.2744    0.6832    0.4626 C   0  0  0  0  0  0  0  0  0  0  0  0
   -4.0307    1.3354    0.4726 O   0  0  0  0  0  0  0  0  0  0  0  0
   -2.5436   -0.4787    0.7363 C   0  0  0  0  0  0  0  0  0  0  0  0
   -1.2090   -0.2091    1.3871 C   0  0  0  0  0  0  0  0  0  0  0  0
    1.9326    0.5912   -1.1431 H   0  0  0  0  0  0  0  0  0  0  0  0
    3.6263   -1.1926    0.7654 H   0  0  0  0  0  0  0  0  0  0  0  0
    4.7823   -1.8929   -1.3214 H   0  0  0  0  0  0  0  0  0  0  0  0
    3.6850   -0.7893   -2.3781 H   0  0  0  0  0  0  0  0  0  0  0  0
    4.3724    1.2392   -1.1151 H   0  0  0  0  0  0  0  0  0  0  0  0
    5.7638   -1.8198    0.5978 H   0  0  0  0  0  0  0  0  0  0  0  0
    8.0738   -1.9598    1.4998 H   0  0  0  0  0  0  0  0  0  0  0  0
    9.6152   -0.0731    1.3234 H   0  0  0  0  0  0  0  0  0  0  0  0
    8.8396    1.9758    0.2335 H   0  0  0  0  0  0  0  0  0  0  0  0
    6.5330    2.1372   -0.6757 H   0  0  0  0  0  0  0  0  0  0  0  0
   -0.6414    0.4328   -1.6309 H   0  0  0  0  0  0  0  0  0  0  0  0
    0.2095    1.8250   -0.8152 H   0  0  0  0  0  0  0  0  0  0  0  0
   -1.6698    2.2700    0.5964 H   0  0  0  0  0  0  0  0  0  0  0  0
   -2.1832    2.3683   -1.1299 H   0  0  0  0  0  0  0  0  0  0  0  0
   -3.8226    1.1394   -2.0133 H   0  0  0  0  0  0  0  0  0  0  0  0
   -2.5540   -0.1585   -2.0966 H   0  0  0  0  0  0  0  0  0  0  0  0
   -5.0084   -0.8028   -2.4346 H   0  0  0  0  0  0  0  0  0  0  0  0
   -4.1532   -1.8088   -1.2317 H   0  0  0  0  0  0  0  0  0  0  0  0
   -6.9954   -1.7704   -1.1201 H   0  0  0  0  0  0  0  0  0  0  0  0
   -8.7008   -1.1084    0.4405 H   0  0  0  0  0  0  0  0  0  0  0  0
   -8.2251    0.7184    2.0397 H   0  0  0  0  0  0  0  0  0  0  0  0
   -6.0575    1.8555    2.0574 H   0  0  0  0  0  0  0  0  0  0  0  0
   -2.4560   -1.4443    0.1964 H   0  0  0  0  0  0  0  0  0  0  0  0
   -3.2698   -0.6593    1.5727 H   0  0  0  0  0  0  0  0  0  0  0  0
   -1.2733    0.6421    2.1083 H   0  0  0  0  0  0  0  0  0  0  0  0
   -0.9096   -1.1316    1.9313 H   0  0  0  0  0  0  0  0  0  0  0  0
  1  2  2  0
  2  3  1  0
  3  4  1  0
  4  5  1  0
  5  6  1  0
  6  7  1  0
  7  8  2  0
  8  9  1  0
  9 10  2  0
 10 11  1  0
 11 12  2  0
  2 13  1  0
 13 14  1  0
 14 15  1  0
 15 16  1  0
 16 17  1  0
 17 18  1  0
 18 19  1  0
 19 20  2  0
 20 21  1  0
 21 22  2  0
 22 23  1  0
 23 24  2  0
 24 25  1  0
 16 26  1  0
 26 27  1  0
  6  4  1  0
 12  7  1  0
 27 13  1  0
 25 16  1  0
 24 19  1  0
  3 28  1  0
  4 29  1  1
  5 30  1  0
  5 31  1  0
  6 32  1  6
  8 33  1  0
  9 34  1  0
 10 35  1  0
 11 36  1  0
 12 37  1  0
 14 38  1  0
 14 39  1  0
 15 40  1  0
 15 41  1  0
 17 42  1  0
 17 43  1  0
 18 44  1  0
 18 45  1  0
 20 46  1  0
 21 47  1  0
 22 48  1  0
 23 49  1  0
 26 50  1  0
 26 51  1  0
 27 52  1  0
 27 53  1  0
M  END
$$$$
