
     RDKit          3D

 41 42  0  0  0  0  0  0  0  0999 V2000
    5.4242    0.6728    0.6173 C   0  0  0  0  0  0  0  0  0  0  0  0
    4.7386   -0.5748    0.3239 N   0  0  0  0  0  0  0  0  0  0  0  0
    3.6312   -0.9382    1.6006 S   0  0  0  0  0  0  0  0  0  0  0  0
    4.3454   -0.9754    2.9107 O   0  0  0  0  0  0  0  0  0  0  0  0
    2.9134   -2.2181    1.3473 O   0  0  0  0  0  0  0  0  0  0  0  0
    2.4184    0.3836    1.6854 C   0  0  0  0  0  0  0  0  0  0  0  0
    1.7070    0.4486    0.3999 C   0  0  0  0  0  0  0  0  0  0  0  0
    0.5107   -0.2654    0.2859 C   0  0  0  0  0  0  0  0  0  0  0  0
   -0.2148   -0.2708   -0.8712 C   0  0  0  0  0  0  0  0  0  0  0  0
    0.2178    0.4405   -1.9854 C   0  0  0  0  0  0  0  0  0  0  0  0
   -0.6180    0.3192   -3.0072 N   0  0  0  0  0  0  0  0  0  0  0  0
   -1.6582   -0.4807   -2.6317 C   0  0  0  0  0  0  0  0  0  0  0  0
   -1.4162   -0.8546   -1.2993 C   0  0  0  0  0  0  0  0  0  0  0  0
   -2.2656   -1.7293   -0.5039 C   0  0  0  0  0  0  0  0  0  0  0  0
   -3.0717   -1.1355    0.5855 C   0  0  0  0  0  0  0  0  0  0  0  0
   -4.0192   -0.1205    0.2556 N   0  0  0  0  0  0  0  0  0  0  0  0
   -4.8017    0.0766    1.5152 C   0  0  0  0  0  0  0  0  0  0  0  0
   -3.3990    1.2081    0.0915 C   0  0  0  0  0  0  0  0  0  0  0  0
    1.3965    1.1591   -1.9134 C   0  0  0  0  0  0  0  0  0  0  0  0
    2.1039    1.1339   -0.7061 C   0  0  0  0  0  0  0  0  0  0  0  0
    5.3491    1.3720   -0.2088 H   0  0  0  0  0  0  0  0  0  0  0  0
    4.9883    1.1226    1.5333 H   0  0  0  0  0  0  0  0  0  0  0  0
    6.5004    0.3935    0.7730 H   0  0  0  0  0  0  0  0  0  0  0  0
    4.2816   -0.5084   -0.5941 H   0  0  0  0  0  0  0  0  0  0  0  0
    1.7065    0.1101    2.5089 H   0  0  0  0  0  0  0  0  0  0  0  0
    2.9112    1.3335    1.9792 H   0  0  0  0  0  0  0  0  0  0  0  0
    0.0779   -0.8481    1.0737 H   0  0  0  0  0  0  0  0  0  0  0  0
   -0.6424    0.6852   -3.9746 H   0  0  0  0  0  0  0  0  0  0  0  0
   -2.5347   -0.8055   -3.1991 H   0  0  0  0  0  0  0  0  0  0  0  0
   -1.6397   -2.5495   -0.0135 H   0  0  0  0  0  0  0  0  0  0  0  0
   -2.8972   -2.3460   -1.2190 H   0  0  0  0  0  0  0  0  0  0  0  0
   -2.4455   -0.7944    1.4524 H   0  0  0  0  0  0  0  0  0  0  0  0
   -3.6848   -1.9820    1.0243 H   0  0  0  0  0  0  0  0  0  0  0  0
   -5.1173   -0.8929    1.8980 H   0  0  0  0  0  0  0  0  0  0  0  0
   -4.0675    0.5215    2.2207 H   0  0  0  0  0  0  0  0  0  0  0  0
   -5.6014    0.8214    1.3669 H   0  0  0  0  0  0  0  0  0  0  0  0
   -2.6201    1.2628   -0.6440 H   0  0  0  0  0  0  0  0  0  0  0  0
   -4.2220    1.8955   -0.2561 H   0  0  0  0  0  0  0  0  0  0  0  0
   -3.0655    1.5165    1.1123 H   0  0  0  0  0  0  0  0  0  0  0  0
    1.7606    1.7176   -2.7487 H   0  0  0  0  0  0  0  0  0  0  0  0
    3.0201    1.6955   -0.6552 H   0  0  0  0  0  0  0  0  0  0  0  0
  1  2  1  0
  2  3  1  0
  3  4  2  0
  3  5  2  0
  3  6  1  0
  6  7  1  0
  7  8  2  0
  8  9  1  0
  9 10  2  0
 10 11  1  0
 11 12  1  0
 12 13  2  0
 13 14  1  0
 14 15  1  0
 15 16  1  0
 16 17  1  0
 16 18  1  0
 10 19  1  0
 19 20  2  0
 20  7  1  0
 13  9  1  0
  1 21  1  0
  1 22  1  0
  1 23  1  0
  2 24  1  0
  6 25  1  0
  6 26  1  0
  8 27  1  0
 11 28  1  0
 12 29  1  0
 14 30  1  0
 14 31  1  0
 15 32  1  0
 15 33  1  0
 17 34  1  0
 17 35  1  0
 17 36  1  0
 18 37  1  0
 18 38  1  0
 18 39  1  0
 19 40  1  0
 20 41  1  0
M  END
$$$$
