
     RDKit          3D

 49 51  0  0  0  0  0  0  0  0999 V2000
   -0.5351    0.0585   -0.4418 C   0  0  1  0  0  0  0  0  0  0  0  0
    0.7587    0.1312    0.3297 C   0  0  0  0  0  0  0  0  0  0  0  0
    1.7597    0.3641   -0.6131 O   0  0  0  0  0  0  0  0  0  0  0  0
    3.2437    0.4552    0.2035 P   0  0  0  0  0  0  0  0  0  0  0  0
    3.0802    1.7202    1.3323 O   0  0  0  0  0  0  0  0  0  0  0  0
    3.4603   -0.8813    0.8844 O   0  0  0  0  0  0  0  0  0  0  0  0
    4.6079    0.7342   -0.9288 C   0  0  0  0  0  0  0  0  0  0  0  0
    6.0507    1.2713    0.0140 P   0  0  0  0  0  0  0  0  0  0  0  0
    7.3834    1.5427   -0.9761 O   0  0  0  0  0  0  0  0  0  0  0  0
    5.6792    2.5862    0.6950 O   0  0  0  0  0  0  0  0  0  0  0  0
    6.3940    0.1615    1.2153 O   0  0  0  0  0  0  0  0  0  0  0  0
    7.0780   -1.2470    0.5876 P   0  0  0  0  0  0  0  0  0  0  0  0
    7.2273   -2.3364    1.8762 O   0  0  0  0  0  0  0  0  0  0  0  0
    8.6420   -0.9216    0.0347 O   0  0  0  0  0  0  0  0  0  0  0  0
    6.2152   -1.8650   -0.4820 O   0  0  0  0  0  0  0  0  0  0  0  0
   -1.6497   -0.1728    0.3641 O   0  0  0  0  0  0  0  0  0  0  0  0
   -2.6811    0.0601   -0.5448 C   0  0  1  0  0  0  0  0  0  0  0  0
   -3.9976   -0.0685    0.0130 N   0  0  0  0  0  0  0  0  0  0  0  0
   -4.5353    0.7788    0.9069 C   0  0  0  0  0  0  0  0  0  0  0  0
   -5.7666    0.3165    1.1756 N   0  0  0  0  0  0  0  0  0  0  0  0
   -5.9987   -0.7934    0.4692 C   0  0  0  0  0  0  0  0  0  0  0  0
   -7.0926   -1.6543    0.3747 C   0  0  0  0  0  0  0  0  0  0  0  0
   -8.2303   -1.3364    1.1744 N   0  0  0  0  0  0  0  0  0  0  0  0
   -7.0264   -2.7345   -0.4576 N   0  0  0  0  0  0  0  0  0  0  0  0
   -5.8900   -2.9499   -1.1808 C   0  0  0  0  0  0  0  0  0  0  0  0
   -4.8203   -2.1281   -1.1032 N   0  0  0  0  0  0  0  0  0  0  0  0
   -4.8649   -1.0565   -0.2880 C   0  0  0  0  0  0  0  0  0  0  0  0
   -2.3564    1.4913   -0.9520 C   0  0  2  0  0  0  0  0  0  0  0  0
   -2.9473    1.7880   -2.1780 O   0  0  0  0  0  0  0  0  0  0  0  0
   -0.8468    1.4152   -1.0392 C   0  0  2  0  0  0  0  0  0  0  0  0
   -0.4601    1.5213   -2.3601 O   0  0  0  0  0  0  0  0  0  0  0  0
   -0.4809   -0.7552   -1.1706 H   0  0  0  0  0  0  0  0  0  0  0  0
    0.9780   -0.8920    0.7312 H   0  0  0  0  0  0  0  0  0  0  0  0
    0.7646    0.9135    1.0894 H   0  0  0  0  0  0  0  0  0  0  0  0
    2.6250    1.3546    2.1184 H   0  0  0  0  0  0  0  0  0  0  0  0
    4.7987   -0.2386   -1.4416 H   0  0  0  0  0  0  0  0  0  0  0  0
    4.3809    1.4635   -1.7317 H   0  0  0  0  0  0  0  0  0  0  0  0
    7.8253    2.3946   -0.7209 H   0  0  0  0  0  0  0  0  0  0  0  0
    6.5868   -3.0892    1.7859 H   0  0  0  0  0  0  0  0  0  0  0  0
    8.6429   -0.6061   -0.8941 H   0  0  0  0  0  0  0  0  0  0  0  0
   -2.5048   -0.5762   -1.4195 H   0  0  0  0  0  0  0  0  0  0  0  0
   -4.1358    1.6782    1.3744 H   0  0  0  0  0  0  0  0  0  0  0  0
   -9.0663   -0.8220    0.7656 H   0  0  0  0  0  0  0  0  0  0  0  0
   -8.4696   -1.5070    2.1856 H   0  0  0  0  0  0  0  0  0  0  0  0
   -5.9306   -3.8415   -1.8206 H   0  0  0  0  0  0  0  0  0  0  0  0
   -2.6351    2.2114   -0.1437 H   0  0  0  0  0  0  0  0  0  0  0  0
   -3.9278    1.6065   -2.0466 H   0  0  0  0  0  0  0  0  0  0  0  0
   -0.3513    2.1728   -0.3934 H   0  0  0  0  0  0  0  0  0  0  0  0
   -0.9811    2.2818   -2.7630 H   0  0  0  0  0  0  0  0  0  0  0  0
  1  2  1  0
  2  3  1  0
  3  4  1  0
  4  5  1  0
  4  6  2  0
  4  7  1  0
  7  8  1  0
  8  9  1  0
  8 10  2  0
  8 11  1  0
 11 12  1  0
 12 13  1  0
 12 14  1  0
 12 15  2  0
  1 16  1  0
 16 17  1  0
 17 18  1  0
 18 19  1  0
 19 20  2  0
 20 21  1  0
 21 22  2  0
 22 23  1  0
 22 24  1  0
 24 25  2  0
 25 26  1  0
 26 27  2  0
 17 28  1  0
 28 29  1  0
 28 30  1  0
 30 31  1  0
 30  1  1  0
 27 18  1  0
 27 21  1  0
  1 32  1  6
  2 33  1  0
  2 34  1  0
  5 35  1  0
  7 36  1  0
  7 37  1  0
  9 38  1  0
 13 39  1  0
 14 40  1  0
 17 41  1  6
 19 42  1  0
 23 43  1  0
 23 44  1  0
 25 45  1  0
 28 46  1  1
 29 47  1  0
 30 48  1  1
 31 49  1  0
M  END
$$$$
