
     RDKit          3D

 52 55  0  0  0  0  0  0  0  0999 V2000
   -4.7827    0.9208    1.5903 N   0  0  0  0  0  0  0  0  0  0  0  0
   -6.1710    0.8885    1.2034 C   0  0  0  0  0  0  0  0  0  0  0  0
   -7.0603    1.4933    2.0964 N   0  0  0  0  0  0  0  0  0  0  0  0
   -8.6725    1.3146    1.3248 S   0  0  0  0  0  0  0  0  0  0  0  0
   -8.0603    0.4661   -0.0982 C   0  0  0  0  0  0  0  0  0  0  0  0
   -8.7394   -0.0426   -1.2152 C   0  0  0  0  0  0  0  0  0  0  0  0
   -8.0059   -0.6907   -2.2096 C   0  0  0  0  0  0  0  0  0  0  0  0
   -6.6739   -0.7824   -2.0179 C   0  0  0  0  0  0  0  0  0  0  0  0
   -5.9893   -0.2892   -0.9258 C   0  0  0  0  0  0  0  0  0  0  0  0
   -4.5825   -0.5274   -0.8802 C   0  0  0  0  0  0  0  0  0  0  0  0
   -4.1614   -1.7363   -0.7309 O   0  0  0  0  0  0  0  0  0  0  0  0
   -3.5137    0.4143   -0.9865 N   0  0  0  0  0  0  0  0  0  0  0  0
   -2.1598   -0.0214   -0.9345 C   0  0  0  0  0  0  0  0  0  0  0  0
   -1.6351   -0.4775   -2.1434 C   0  0  0  0  0  0  0  0  0  0  0  0
   -0.3802   -0.9850   -2.2536 C   0  0  0  0  0  0  0  0  0  0  0  0
    0.3922   -1.0359   -1.0776 C   0  0  0  0  0  0  0  0  0  0  0  0
   -0.0609   -0.6047    0.1328 C   0  0  0  0  0  0  0  0  0  0  0  0
    0.6844   -0.7117    1.3953 C   0  0  0  0  0  0  0  0  0  0  0  0
    1.7277    0.2696    1.5155 N   0  0  0  0  0  0  0  0  0  0  0  0
    3.0562   -0.0374    1.0529 C   0  0  0  0  0  0  0  0  0  0  0  0
    3.2203   -1.1673    0.5829 O   0  0  0  0  0  0  0  0  0  0  0  0
    4.1431    0.8498    1.1126 N   0  0  0  0  0  0  0  0  0  0  0  0
    5.4752    0.5707    0.6817 C   0  0  0  0  0  0  0  0  0  0  0  0
    5.8769   -0.5398    0.0091 C   0  0  0  0  0  0  0  0  0  0  0  0
    7.2378   -0.7027   -0.2955 C   0  0  0  0  0  0  0  0  0  0  0  0
    8.1966    0.2156    0.0546 C   0  0  0  0  0  0  0  0  0  0  0  0
    9.6220   -0.0065   -0.2779 C   0  0  0  0  0  0  0  0  0  0  0  0
    9.8925   -1.3274    0.0402 F   0  0  0  0  0  0  0  0  0  0  0  0
    9.8114    0.0827   -1.6547 F   0  0  0  0  0  0  0  0  0  0  0  0
   10.4497    0.8662    0.3778 F   0  0  0  0  0  0  0  0  0  0  0  0
    7.7829    1.3341    0.7318 C   0  0  0  0  0  0  0  0  0  0  0  0
    6.4646    1.5025    1.0343 C   0  0  0  0  0  0  0  0  0  0  0  0
   -1.3857   -0.0852    0.1698 C   0  0  0  0  0  0  0  0  0  0  0  0
   -6.7111    0.3745    0.0968 C   0  0  0  0  0  0  0  0  0  0  0  0
   -4.2485    1.7979    1.4962 H   0  0  0  0  0  0  0  0  0  0  0  0
   -4.3324    0.0732    1.9588 H   0  0  0  0  0  0  0  0  0  0  0  0
   -9.8065    0.0571   -1.3178 H   0  0  0  0  0  0  0  0  0  0  0  0
   -8.5454   -1.0775   -3.0558 H   0  0  0  0  0  0  0  0  0  0  0  0
   -6.1016   -1.2958   -2.8012 H   0  0  0  0  0  0  0  0  0  0  0  0
   -3.7612    1.4104   -1.0995 H   0  0  0  0  0  0  0  0  0  0  0  0
   -2.2353   -0.4319   -3.0388 H   0  0  0  0  0  0  0  0  0  0  0  0
    0.0727   -1.3531   -3.1548 H   0  0  0  0  0  0  0  0  0  0  0  0
    1.3929   -1.4581   -1.2095 H   0  0  0  0  0  0  0  0  0  0  0  0
    0.0082   -0.6321    2.2811 H   0  0  0  0  0  0  0  0  0  0  0  0
    1.1313   -1.7532    1.4739 H   0  0  0  0  0  0  0  0  0  0  0  0
    1.5397    1.2064    1.9307 H   0  0  0  0  0  0  0  0  0  0  0  0
    3.9240    1.8088    1.5146 H   0  0  0  0  0  0  0  0  0  0  0  0
    5.1759   -1.2914   -0.3002 H   0  0  0  0  0  0  0  0  0  0  0  0
    7.5560   -1.5914   -0.8361 H   0  0  0  0  0  0  0  0  0  0  0  0
    8.5215    2.0841    1.0185 H   0  0  0  0  0  0  0  0  0  0  0  0
    6.1798    2.4009    1.5710 H   0  0  0  0  0  0  0  0  0  0  0  0
   -1.7586    0.2537    1.1046 H   0  0  0  0  0  0  0  0  0  0  0  0
  1  2  1  0
  2  3  2  0
  3  4  1  0
  4  5  1  0
  5  6  2  0
  6  7  1  0
  7  8  2  0
  8  9  1  0
  9 10  1  0
 10 11  2  0
 10 12  1  0
 12 13  1  0
 13 14  2  0
 14 15  1  0
 15 16  2  0
 16 17  1  0
 17 18  1  0
 18 19  1  0
 19 20  1  0
 20 21  2  0
 20 22  1  0
 22 23  1  0
 23 24  2  0
 24 25  1  0
 25 26  2  0
 26 27  1  0
 27 28  1  0
 27 29  1  0
 27 30  1  0
 26 31  1  0
 31 32  2  0
 17 33  2  0
  9 34  2  0
 34  2  1  0
 34  5  1  0
 33 13  1  0
 32 23  1  0
  1 35  1  0
  1 36  1  0
  6 37  1  0
  7 38  1  0
  8 39  1  0
 12 40  1  0
 14 41  1  0
 15 42  1  0
 16 43  1  0
 18 44  1  0
 18 45  1  0
 19 46  1  0
 22 47  1  0
 24 48  1  0
 25 49  1  0
 31 50  1  0
 32 51  1  0
 33 52  1  0
M  END
$$$$
