
     RDKit          3D

 80 83  0  0  0  0  0  0  0  0999 V2000
    1.0012    3.6537   -2.8759 C   0  0  0  0  0  0  0  0  0  0  0  0
    0.3456    4.2396   -1.6733 C   0  0  0  0  0  0  0  0  0  0  0  0
   -0.2155    3.3279   -0.7355 N   0  0  0  0  0  0  0  0  0  0  0  0
   -0.0594    1.8937   -0.7521 C   0  0  0  0  0  0  0  0  0  0  0  0
   -1.2501    1.1282   -0.6951 C   0  0  0  0  0  0  0  0  0  0  0  0
   -1.1999   -0.2151   -0.7904 C   0  0  0  0  0  0  0  0  0  0  0  0
   -2.2794   -1.1094   -0.2943 C   0  0  0  0  0  0  0  0  0  0  0  0
   -3.1689   -1.8329    0.0984 C   0  0  0  0  0  0  0  0  0  0  0  0
   -4.2101   -2.6851    0.5793 C   0  0  0  0  0  0  0  0  0  0  0  0
   -5.3623   -1.8153    1.1384 C   0  0  0  0  0  0  0  0  0  0  0  0
   -6.1844   -2.8460    1.8969 C   0  0  0  0  0  0  0  0  0  0  0  0
   -6.7614   -3.8325    1.0470 N   0  0  0  0  0  0  0  0  0  0  0  0
   -8.1973   -3.7450    0.8653 C   0  0  0  0  0  0  0  0  0  0  0  0
   -6.0142   -4.3114   -0.0159 C   0  0  0  0  0  0  0  0  0  0  0  0
   -4.7898   -3.5635   -0.4758 C   0  0  0  0  0  0  0  0  0  0  0  0
    0.0274   -0.8482   -0.9589 C   0  0  0  0  0  0  0  0  0  0  0  0
    1.1900   -0.1106   -1.0064 C   0  0  0  0  0  0  0  0  0  0  0  0
    2.4151   -0.8763   -1.2402 C   0  0  0  0  0  0  0  0  0  0  0  0
    3.2406   -0.6121   -2.0298 O   0  0  0  0  0  0  0  0  0  0  0  0
    2.4899   -2.0433   -0.3793 N   0  0  0  0  0  0  0  0  0  0  0  0
    3.4697   -3.0296   -0.3241 C   0  0  0  0  0  0  0  0  0  0  0  0
    4.7774   -2.6665    0.1822 C   0  0  0  0  0  0  0  0  0  0  0  0
    5.8267   -2.2764   -0.5577 C   0  0  0  0  0  0  0  0  0  0  0  0
    5.8257   -2.1262   -2.0239 C   0  0  0  0  0  0  0  0  0  0  0  0
    7.0504   -2.0108    0.0682 C   0  0  0  0  0  0  0  0  0  0  0  0
    7.1914   -2.1406    1.4052 C   0  0  0  0  0  0  0  0  0  0  0  0
    8.5251   -1.9391    2.0300 C   0  0  0  0  0  0  0  0  0  0  0  0
    6.0922   -2.5351    2.1360 N   0  0  0  0  0  0  0  0  0  0  0  0
    4.9297   -2.7947    1.5967 C   0  0  0  0  0  0  0  0  0  0  0  0
    3.9454   -3.1642    2.3127 O   0  0  0  0  0  0  0  0  0  0  0  0
    1.1208    1.2666   -0.8911 C   0  0  0  0  0  0  0  0  0  0  0  0
    2.4311    1.9656   -0.6084 C   0  0  0  0  0  0  0  0  0  0  0  0
   -1.1078    3.8559    0.3012 C   0  0  0  0  0  0  0  0  0  0  0  0
   -0.4410    5.0219    0.9651 C   0  0  0  0  0  0  0  0  0  0  0  0
   -1.4386    5.7205    1.8697 C   0  0  0  0  0  0  0  0  0  0  0  0
   -2.5588    6.0968    1.1748 O   0  0  0  0  0  0  0  0  0  0  0  0
   -2.5393    5.8352   -0.1628 C   0  0  0  0  0  0  0  0  0  0  0  0
   -2.3809    4.3670   -0.4116 C   0  0  0  0  0  0  0  0  0  0  0  0
    0.7836    2.6055   -3.0508 H   0  0  0  0  0  0  0  0  0  0  0  0
    0.7523    4.3036   -3.7498 H   0  0  0  0  0  0  0  0  0  0  0  0
    2.1144    3.7851   -2.7822 H   0  0  0  0  0  0  0  0  0  0  0  0
   -0.4146    5.0003   -2.0197 H   0  0  0  0  0  0  0  0  0  0  0  0
    1.1061    4.9235   -1.1413 H   0  0  0  0  0  0  0  0  0  0  0  0
   -2.2182    1.5953   -0.5556 H   0  0  0  0  0  0  0  0  0  0  0  0
   -3.8103   -3.3202    1.4326 H   0  0  0  0  0  0  0  0  0  0  0  0
   -4.9777   -1.1031    1.8545 H   0  0  0  0  0  0  0  0  0  0  0  0
   -5.8890   -1.4113    0.2531 H   0  0  0  0  0  0  0  0  0  0  0  0
   -7.0044   -2.2767    2.4095 H   0  0  0  0  0  0  0  0  0  0  0  0
   -5.5401   -3.2229    2.7320 H   0  0  0  0  0  0  0  0  0  0  0  0
   -8.7038   -4.2357    1.7581 H   0  0  0  0  0  0  0  0  0  0  0  0
   -8.4941   -4.1765   -0.0833 H   0  0  0  0  0  0  0  0  0  0  0  0
   -8.4606   -2.6514    0.8955 H   0  0  0  0  0  0  0  0  0  0  0  0
   -5.6612   -5.3650    0.2679 H   0  0  0  0  0  0  0  0  0  0  0  0
   -6.6221   -4.4883   -0.9047 H   0  0  0  0  0  0  0  0  0  0  0  0
   -5.0119   -2.9176   -1.3476 H   0  0  0  0  0  0  0  0  0  0  0  0
   -4.0248   -4.2660   -0.8156 H   0  0  0  0  0  0  0  0  0  0  0  0
    0.0452   -1.9355   -1.0958 H   0  0  0  0  0  0  0  0  0  0  0  0
    1.6636   -2.1627    0.3189 H   0  0  0  0  0  0  0  0  0  0  0  0
    3.1156   -3.9308    0.2825 H   0  0  0  0  0  0  0  0  0  0  0  0
    3.5711   -3.5236   -1.3498 H   0  0  0  0  0  0  0  0  0  0  0  0
    4.9863   -2.6182   -2.4922 H   0  0  0  0  0  0  0  0  0  0  0  0
    5.8623   -1.0206   -2.2342 H   0  0  0  0  0  0  0  0  0  0  0  0
    6.8015   -2.5022   -2.4081 H   0  0  0  0  0  0  0  0  0  0  0  0
    7.9251   -1.7076   -0.5375 H   0  0  0  0  0  0  0  0  0  0  0  0
    8.4618   -2.4330    3.0202 H   0  0  0  0  0  0  0  0  0  0  0  0
    8.7923   -0.8787    2.0518 H   0  0  0  0  0  0  0  0  0  0  0  0
    9.2729   -2.5528    1.4415 H   0  0  0  0  0  0  0  0  0  0  0  0
    6.2923   -2.5811    3.1868 H   0  0  0  0  0  0  0  0  0  0  0  0
    2.5532    1.7098    0.5414 H   0  0  0  0  0  0  0  0  0  0  0  0
    3.2966    1.4217   -1.0033 H   0  0  0  0  0  0  0  0  0  0  0  0
    2.4324    3.0364   -0.5973 H   0  0  0  0  0  0  0  0  0  0  0  0
   -1.4004    3.0533    1.0119 H   0  0  0  0  0  0  0  0  0  0  0  0
   -0.1082    5.7621    0.2166 H   0  0  0  0  0  0  0  0  0  0  0  0
    0.4272    4.6517    1.5897 H   0  0  0  0  0  0  0  0  0  0  0  0
   -0.9539    6.5750    2.3335 H   0  0  0  0  0  0  0  0  0  0  0  0
   -1.7864    5.0107    2.6756 H   0  0  0  0  0  0  0  0  0  0  0  0
   -1.7863    6.4388   -0.7081 H   0  0  0  0  0  0  0  0  0  0  0  0
   -3.5350    6.1198   -0.5900 H   0  0  0  0  0  0  0  0  0  0  0  0
   -3.2885    3.8560   -0.0495 H   0  0  0  0  0  0  0  0  0  0  0  0
   -2.3005    4.1900   -1.5216 H   0  0  0  0  0  0  0  0  0  0  0  0
  1  2  1  0
  2  3  1  0
  3  4  1  0
  4  5  2  0
  5  6  1  0
  6  7  1  0
  7  8  3  0
  8  9  1  0
  9 10  1  0
 10 11  1  0
 11 12  1  0
 12 13  1  0
 12 14  1  0
 14 15  1  0
  6 16  2  0
 16 17  1  0
 17 18  1  0
 18 19  2  0
 18 20  1  0
 20 21  1  0
 21 22  1  0
 22 23  2  0
 23 24  1  0
 23 25  1  0
 25 26  2  0
 26 27  1  0
 26 28  1  0
 28 29  1  0
 29 30  2  0
 17 31  2  0
 31 32  1  0
  3 33  1  0
 33 34  1  0
 34 35  1  0
 35 36  1  0
 36 37  1  0
 37 38  1  0
 31  4  1  0
 38 33  1  0
 15  9  1  0
 29 22  1  0
  1 39  1  0
  1 40  1  0
  1 41  1  0
  2 42  1  0
  2 43  1  0
  5 44  1  0
  9 45  1  0
 10 46  1  0
 10 47  1  0
 11 48  1  0
 11 49  1  0
 13 50  1  0
 13 51  1  0
 13 52  1  0
 14 53  1  0
 14 54  1  0
 15 55  1  0
 15 56  1  0
 16 57  1  0
 20 58  1  0
 21 59  1  0
 21 60  1  0
 24 61  1  0
 24 62  1  0
 24 63  1  0
 25 64  1  0
 27 65  1  0
 27 66  1  0
 27 67  1  0
 28 68  1  0
 32 69  1  0
 32 70  1  0
 32 71  1  0
 33 72  1  0
 34 73  1  0
 34 74  1  0
 35 75  1  0
 35 76  1  0
 37 77  1  0
 37 78  1  0
 38 79  1  0
 38 80  1  0
M  END
$$$$
