
     RDKit          3D

 42 44  0  0  0  0  0  0  0  0999 V2000
   -3.3509    1.6599   -2.1486 C   0  0  0  0  0  0  0  0  0  0  0  0
   -2.5527    1.3596   -0.9200 C   0  0  1  0  0  0  0  0  0  0  0  0
   -3.2794    1.6517    0.2080 O   0  0  0  0  0  0  0  0  0  0  0  0
   -2.6136    1.4089    1.3891 C   0  0  0  0  0  0  0  0  0  0  0  0
   -2.1822   -0.0591    1.5267 C   0  0  0  0  0  0  0  0  0  0  0  0
   -1.4965   -0.3781    0.2909 N   0  0  0  0  0  0  0  0  0  0  0  0
   -0.1574   -0.8395    0.3340 C   0  0  0  0  0  0  0  0  0  0  0  0
    0.8776   -0.0325    0.0624 N   0  0  0  0  0  0  0  0  0  0  0  0
    2.1735   -0.4973    0.1110 C   0  0  0  0  0  0  0  0  0  0  0  0
    3.2472    0.4473   -0.1626 C   0  0  0  0  0  0  0  0  0  0  0  0
    2.9203    1.8215   -0.2673 C   0  0  0  0  0  0  0  0  0  0  0  0
    3.8878    2.7504   -0.5351 C   0  0  0  0  0  0  0  0  0  0  0  0
    5.1806    2.4054   -0.7102 N   0  0  0  0  0  0  0  0  0  0  0  0
    5.5264    1.1319   -0.6207 C   0  0  0  0  0  0  0  0  0  0  0  0
    4.5671    0.1739   -0.3512 C   0  0  0  0  0  0  0  0  0  0  0  0
    4.9824   -1.1188   -0.2936 F   0  0  0  0  0  0  0  0  0  0  0  0
    2.3941   -1.7922    0.4398 C   0  0  0  0  0  0  0  0  0  0  0  0
    1.3094   -2.6471    0.7271 C   0  0  0  0  0  0  0  0  0  0  0  0
    1.5435   -3.8637    1.0339 O   0  0  0  0  0  0  0  0  0  0  0  0
    0.0859   -2.1257    0.6598 N   0  0  0  0  0  0  0  0  0  0  0  0
   -1.0511   -2.9659    0.9707 C   0  0  0  0  0  0  0  0  0  0  0  0
   -2.2718   -0.1504   -0.9092 C   0  0  2  0  0  0  0  0  0  0  0  0
   -1.6309   -0.6002   -2.1685 C   0  0  0  0  0  0  0  0  0  0  0  0
   -2.6735    1.6548   -3.0471 H   0  0  0  0  0  0  0  0  0  0  0  0
   -3.7706    2.7075   -2.1292 H   0  0  0  0  0  0  0  0  0  0  0  0
   -4.1940    0.9853   -2.2900 H   0  0  0  0  0  0  0  0  0  0  0  0
   -1.5771    1.8914   -0.9796 H   0  0  0  0  0  0  0  0  0  0  0  0
   -3.2694    1.6654    2.2368 H   0  0  0  0  0  0  0  0  0  0  0  0
   -1.6682    2.0097    1.4556 H   0  0  0  0  0  0  0  0  0  0  0  0
   -1.5459   -0.1182    2.4228 H   0  0  0  0  0  0  0  0  0  0  0  0
   -3.0748   -0.7065    1.7036 H   0  0  0  0  0  0  0  0  0  0  0  0
    1.8906    2.1273   -0.1317 H   0  0  0  0  0  0  0  0  0  0  0  0
    3.6692    3.8191   -0.6199 H   0  0  0  0  0  0  0  0  0  0  0  0
    6.5559    0.7856   -0.7501 H   0  0  0  0  0  0  0  0  0  0  0  0
    3.3731   -2.2109    0.5055 H   0  0  0  0  0  0  0  0  0  0  0  0
   -1.8371   -2.9661    0.2114 H   0  0  0  0  0  0  0  0  0  0  0  0
   -0.7154   -4.0112    1.1125 H   0  0  0  0  0  0  0  0  0  0  0  0
   -1.4650   -2.6611    1.9713 H   0  0  0  0  0  0  0  0  0  0  0  0
   -3.2907   -0.6077   -0.7518 H   0  0  0  0  0  0  0  0  0  0  0  0
   -2.4501   -0.8329   -2.9112 H   0  0  0  0  0  0  0  0  0  0  0  0
   -1.0445    0.2305   -2.6574 H   0  0  0  0  0  0  0  0  0  0  0  0
   -1.0221   -1.5020   -2.0952 H   0  0  0  0  0  0  0  0  0  0  0  0
  1  2  1  0
  2  3  1  0
  3  4  1  0
  4  5  1  0
  5  6  1  0
  6  7  1  0
  7  8  2  0
  8  9  1  0
  9 10  1  0
 10 11  2  0
 11 12  1  0
 12 13  2  0
 13 14  1  0
 14 15  2  0
 15 16  1  0
  9 17  2  0
 17 18  1  0
 18 19  2  0
 18 20  1  0
 20 21  1  0
  6 22  1  0
 22 23  1  0
 22  2  1  0
 20  7  1  0
 15 10  1  0
  1 24  1  0
  1 25  1  0
  1 26  1  0
  2 27  1  6
  4 28  1  0
  4 29  1  0
  5 30  1  0
  5 31  1  0
 11 32  1  0
 12 33  1  0
 14 34  1  0
 17 35  1  0
 21 36  1  0
 21 37  1  0
 21 38  1  0
 22 39  1  1
 23 40  1  0
 23 41  1  0
 23 42  1  0
M  END
$$$$
