
     RDKit          3D

 50 52  0  0  0  0  0  0  0  0999 V2000
    7.9895    2.4662    1.0017 O   0  0  0  0  0  0  0  0  0  0  0  0
    7.3379    1.8415   -0.0746 C   0  0  0  0  0  0  0  0  0  0  0  0
    7.9048    1.9420   -1.2009 O   0  0  0  0  0  0  0  0  0  0  0  0
    6.0880    1.1366    0.1578 C   0  0  0  0  0  0  0  0  0  0  0  0
    5.4353    1.0015    1.3643 C   0  0  0  0  0  0  0  0  0  0  0  0
    4.2482    0.3070    1.4689 C   0  0  0  0  0  0  0  0  0  0  0  0
    3.6673   -0.2815    0.3622 C   0  0  0  0  0  0  0  0  0  0  0  0
    2.4424   -0.9920    0.4980 N   0  0  0  0  0  0  0  0  0  0  0  0
    1.3130   -0.1499    0.3108 C   0  0  0  0  0  0  0  0  0  0  0  0
    1.4113    1.0747    0.0564 O   0  0  0  0  0  0  0  0  0  0  0  0
   -0.0711   -0.7096    0.4135 C   0  0  2  0  0  0  0  0  0  0  0  0
   -0.1934   -1.8650   -0.5553 C   0  0  0  0  0  0  0  0  0  0  0  0
   -1.5374   -2.4984   -0.5353 C   0  0  0  0  0  0  0  0  0  0  0  0
   -2.5366   -2.0296   -1.3898 C   0  0  0  0  0  0  0  0  0  0  0  0
   -3.7953   -2.6297   -1.3649 C   0  0  0  0  0  0  0  0  0  0  0  0
   -4.1035   -3.6892   -0.5147 C   0  0  0  0  0  0  0  0  0  0  0  0
   -5.3863   -4.2192   -0.5649 O   0  0  0  0  0  0  0  0  0  0  0  0
   -3.1070   -4.1531    0.3340 C   0  0  0  0  0  0  0  0  0  0  0  0
   -1.8672   -3.5501    0.2985 C   0  0  0  0  0  0  0  0  0  0  0  0
   -1.0431    0.3115    0.1906 N   0  0  0  0  0  0  0  0  0  0  0  0
   -2.0761    0.8915    0.9473 C   0  0  0  0  0  0  0  0  0  0  0  0
   -2.1713    0.3935    2.1015 O   0  0  0  0  0  0  0  0  0  0  0  0
   -2.8949    1.9504    0.3686 C   0  0  0  0  0  0  0  0  0  0  0  0
   -2.8128    2.5148   -0.8940 C   0  0  0  0  0  0  0  0  0  0  0  0
   -3.6956    3.5163   -1.2413 C   0  0  0  0  0  0  0  0  0  0  0  0
   -4.6546    3.9832   -0.3955 C   0  0  0  0  0  0  0  0  0  0  0  0
   -4.7524    3.4259    0.8820 C   0  0  0  0  0  0  0  0  0  0  0  0
   -3.8626    2.4180    1.2291 C   0  0  0  0  0  0  0  0  0  0  0  0
    4.3086   -0.1542   -0.8489 C   0  0  0  0  0  0  0  0  0  0  0  0
    5.5127    0.5491   -0.9599 C   0  0  0  0  0  0  0  0  0  0  0  0
    8.8364    2.9974    0.8872 H   0  0  0  0  0  0  0  0  0  0  0  0
    5.9472    1.4904    2.2015 H   0  0  0  0  0  0  0  0  0  0  0  0
    3.7950    0.2465    2.4615 H   0  0  0  0  0  0  0  0  0  0  0  0
    2.3417   -2.0039    0.7081 H   0  0  0  0  0  0  0  0  0  0  0  0
   -0.1774   -1.1308    1.4350 H   0  0  0  0  0  0  0  0  0  0  0  0
    0.0269   -1.5813   -1.5943 H   0  0  0  0  0  0  0  0  0  0  0  0
    0.5171   -2.6694   -0.2765 H   0  0  0  0  0  0  0  0  0  0  0  0
   -2.3790   -1.2156   -2.0763 H   0  0  0  0  0  0  0  0  0  0  0  0
   -4.5640   -2.2637   -2.0272 H   0  0  0  0  0  0  0  0  0  0  0  0
   -5.6117   -4.9840    0.0604 H   0  0  0  0  0  0  0  0  0  0  0  0
   -3.3426   -4.9745    0.9945 H   0  0  0  0  0  0  0  0  0  0  0  0
   -1.0799   -3.9182    0.9706 H   0  0  0  0  0  0  0  0  0  0  0  0
   -0.8138    0.6041   -0.8061 H   0  0  0  0  0  0  0  0  0  0  0  0
   -2.0263    2.0893   -1.5039 H   0  0  0  0  0  0  0  0  0  0  0  0
   -3.5253    3.8708   -2.2529 H   0  0  0  0  0  0  0  0  0  0  0  0
   -5.3049    4.7729   -0.7539 H   0  0  0  0  0  0  0  0  0  0  0  0
   -5.5214    3.8108    1.5394 H   0  0  0  0  0  0  0  0  0  0  0  0
   -4.0282    2.0625    2.2340 H   0  0  0  0  0  0  0  0  0  0  0  0
    3.8553   -0.6144   -1.7171 H   0  0  0  0  0  0  0  0  0  0  0  0
    5.9571    0.6093   -1.9293 H   0  0  0  0  0  0  0  0  0  0  0  0
  1  2  1  0
  2  3  2  0
  2  4  1  0
  4  5  2  0
  5  6  1  0
  6  7  2  0
  7  8  1  0
  8  9  1  0
  9 10  2  0
  9 11  1  0
 11 12  1  0
 12 13  1  0
 13 14  2  0
 14 15  1  0
 15 16  2  0
 16 17  1  0
 16 18  1  0
 18 19  2  0
 11 20  1  0
 20 21  1  0
 21 22  2  0
 21 23  1  0
 23 24  2  0
 24 25  1  0
 25 26  2  0
 26 27  1  0
 27 28  2  0
  7 29  1  0
 29 30  2  0
 30  4  1  0
 19 13  1  0
 28 23  1  0
  1 31  1  0
  5 32  1  0
  6 33  1  0
  8 34  1  0
 11 35  1  1
 12 36  1  0
 12 37  1  0
 14 38  1  0
 15 39  1  0
 17 40  1  0
 18 41  1  0
 19 42  1  0
 20 43  1  0
 24 44  1  0
 25 45  1  0
 26 46  1  0
 27 47  1  0
 28 48  1  0
 29 49  1  0
 30 50  1  0
M  END
$$$$
