
     RDKit          3D

 60 63  0  0  0  0  0  0  0  0999 V2000
    2.6050   -2.5483   -0.8242 C   0  0  0  0  0  0  0  0  0  0  0  0
    3.4772   -1.4324   -0.2751 C   0  0  0  0  0  0  0  0  0  0  0  0
    4.7746   -1.5657   -0.1166 N   0  0  0  0  0  0  0  0  0  0  0  0
    5.5540   -0.8025    0.2877 C   0  0  0  0  0  0  0  0  0  0  0  0
    7.0074   -0.6292    0.5767 C   0  0  0  0  0  0  0  0  0  0  0  0
    7.5536    0.5644    0.9933 C   0  0  0  0  0  0  0  0  0  0  0  0
    8.9298    0.6401    1.2670 C   0  0  0  0  0  0  0  0  0  0  0  0
    9.7350   -0.4722    1.1225 C   0  0  0  0  0  0  0  0  0  0  0  0
    9.1625   -1.6204    0.7135 N   0  0  0  0  0  0  0  0  0  0  0  0
    7.8234   -1.7108    0.4417 C   0  0  0  0  0  0  0  0  0  0  0  0
    4.4301    0.6540    0.6400 S   0  0  0  0  0  0  0  0  0  0  0  0
    2.9430   -0.2259    0.0812 C   0  0  0  0  0  0  0  0  0  0  0  0
    1.6506    0.3658    0.1151 C   0  0  0  0  0  0  0  0  0  0  0  0
    1.5300    1.5511    0.5583 O   0  0  0  0  0  0  0  0  0  0  0  0
    0.4797   -0.2630   -0.3099 N   0  0  0  0  0  0  0  0  0  0  0  0
   -0.8254    0.4169   -0.2345 C   0  0  2  0  0  0  0  0  0  0  0  0
   -1.8453   -0.3686    0.4745 C   0  0  0  0  0  0  0  0  0  0  0  0
   -2.5673   -1.3073   -0.1239 C   0  0  0  0  0  0  0  0  0  0  0  0
   -3.7835   -2.2173    0.7990 S   0  0  0  0  0  6  0  0  0  0  0  0
   -5.0342   -2.2764    0.0048 O   0  0  0  0  0  0  0  0  0  0  0  0
   -3.2659   -3.6169    0.9872 O   0  0  0  0  0  0  0  0  0  0  0  0
   -3.9991   -1.5023    2.3743 C   0  0  0  0  0  0  0  0  0  0  0  0
   -4.9303   -0.5213    2.6211 C   0  0  0  0  0  0  0  0  0  0  0  0
   -5.0997    0.0480    3.8708 C   0  0  0  0  0  0  0  0  0  0  0  0
   -4.3169   -0.3633    4.9377 C   0  0  0  0  0  0  0  0  0  0  0  0
   -3.3754   -1.3536    4.6965 C   0  0  0  0  0  0  0  0  0  0  0  0
   -3.2163   -1.9113    3.4497 C   0  0  0  0  0  0  0  0  0  0  0  0
   -1.2539    0.8898   -1.6109 C   0  0  0  0  0  0  0  0  0  0  0  0
   -2.6024    1.5840   -1.4892 C   0  0  0  0  0  0  0  0  0  0  0  0
   -3.0760    2.0848   -2.7846 C   0  0  0  0  0  0  0  0  0  0  0  0
   -3.8330    1.2604   -3.5852 C   0  0  0  0  0  0  0  0  0  0  0  0
   -4.2990    1.7125   -4.8169 C   0  0  0  0  0  0  0  0  0  0  0  0
   -4.0265    2.9795   -5.2757 C   0  0  0  0  0  0  0  0  0  0  0  0
   -3.2594    3.8250   -4.4731 C   0  0  0  0  0  0  0  0  0  0  0  0
   -2.8131    3.3480   -3.2590 C   0  0  0  0  0  0  0  0  0  0  0  0
    3.2943   -3.4278   -1.0066 H   0  0  0  0  0  0  0  0  0  0  0  0
    1.9007   -2.9149   -0.0775 H   0  0  0  0  0  0  0  0  0  0  0  0
    2.1588   -2.2823   -1.7883 H   0  0  0  0  0  0  0  0  0  0  0  0
    6.9066    1.4111    1.0929 H   0  0  0  0  0  0  0  0  0  0  0  0
    9.3446    1.5961    1.5955 H   0  0  0  0  0  0  0  0  0  0  0  0
   10.8014   -0.4024    1.3382 H   0  0  0  0  0  0  0  0  0  0  0  0
    7.3760   -2.6572    0.1111 H   0  0  0  0  0  0  0  0  0  0  0  0
    0.4530   -1.2260   -0.6969 H   0  0  0  0  0  0  0  0  0  0  0  0
   -0.6389    1.3485    0.3495 H   0  0  0  0  0  0  0  0  0  0  0  0
   -2.0682   -0.2196    1.5486 H   0  0  0  0  0  0  0  0  0  0  0  0
   -2.4017   -1.5057   -1.1723 H   0  0  0  0  0  0  0  0  0  0  0  0
   -5.5599   -0.1675    1.8225 H   0  0  0  0  0  0  0  0  0  0  0  0
   -5.8501    0.8276    4.0392 H   0  0  0  0  0  0  0  0  0  0  0  0
   -4.4541    0.0806    5.8984 H   0  0  0  0  0  0  0  0  0  0  0  0
   -2.7705   -1.6595    5.5501 H   0  0  0  0  0  0  0  0  0  0  0  0
   -2.4779   -2.6782    3.2902 H   0  0  0  0  0  0  0  0  0  0  0  0
   -1.3070    0.0141   -2.2645 H   0  0  0  0  0  0  0  0  0  0  0  0
   -0.5601    1.6729   -1.9858 H   0  0  0  0  0  0  0  0  0  0  0  0
   -3.3371    1.0030   -0.9162 H   0  0  0  0  0  0  0  0  0  0  0  0
   -2.3863    2.4975   -0.8560 H   0  0  0  0  0  0  0  0  0  0  0  0
   -4.0878    0.2465   -3.2848 H   0  0  0  0  0  0  0  0  0  0  0  0
   -4.8994    1.0653   -5.4666 H   0  0  0  0  0  0  0  0  0  0  0  0
   -4.3968    3.3349   -6.2478 H   0  0  0  0  0  0  0  0  0  0  0  0
   -3.0505    4.8191   -4.8401 H   0  0  0  0  0  0  0  0  0  0  0  0
   -2.2228    4.0081   -2.6457 H   0  0  0  0  0  0  0  0  0  0  0  0
  1  2  1  0
  2  3  1  0
  3  4  2  0
  4  5  1  0
  5  6  2  0
  6  7  1  0
  7  8  2  0
  8  9  1  0
  9 10  2  0
  4 11  1  0
 11 12  1  0
 12 13  1  0
 13 14  2  0
 13 15  1  0
 15 16  1  0
 16 17  1  0
 17 18  2  0
 18 19  1  0
 19 20  2  0
 19 21  2  0
 19 22  1  0
 22 23  2  0
 23 24  1  0
 24 25  2  0
 25 26  1  0
 26 27  2  0
 16 28  1  0
 28 29  1  0
 29 30  1  0
 30 31  2  0
 31 32  1  0
 32 33  2  0
 33 34  1  0
 34 35  2  0
 12  2  2  0
 27 22  1  0
 35 30  1  0
 10  5  1  0
  1 36  1  0
  1 37  1  0
  1 38  1  0
  6 39  1  0
  7 40  1  0
  8 41  1  0
 10 42  1  0
 15 43  1  0
 16 44  1  1
 17 45  1  0
 18 46  1  0
 23 47  1  0
 24 48  1  0
 25 49  1  0
 26 50  1  0
 27 51  1  0
 28 52  1  0
 28 53  1  0
 29 54  1  0
 29 55  1  0
 31 56  1  0
 32 57  1  0
 33 58  1  0
 34 59  1  0
 35 60  1  0
M  END
$$$$
