
     RDKit          3D

 47 49  0  0  0  0  0  0  0  0999 V2000
   -0.1876    2.5806   -3.3886 O   0  0  0  0  0  0  0  0  0  0  0  0
   -0.6864    1.5402   -2.8474 N   0  0  0  0  0  4  0  0  0  0  0  0
   -1.9942    1.3249   -3.1575 O   0  0  0  0  0  1  0  0  0  0  0  0
    0.1313    0.7478   -2.0150 C   0  0  0  0  0  0  0  0  0  0  0  0
    1.5011    0.7446   -2.2886 C   0  0  0  0  0  0  0  0  0  0  0  0
    2.2893    0.0049   -1.5201 N   0  0  0  0  0  0  0  0  0  0  0  0
    1.9294   -0.7596   -0.4882 C   0  0  0  0  0  0  0  0  0  0  0  0
    2.7858   -1.5362    0.3102 N   0  0  0  0  0  0  0  0  0  0  0  0
    4.1752   -1.7260    0.2938 C   0  0  0  0  0  0  0  0  0  0  0  0
    5.0518   -0.5707    0.5057 C   0  0  0  0  0  0  0  0  0  0  0  0
    5.3392   -0.1823    1.8245 C   0  0  0  0  0  0  0  0  0  0  0  0
    6.0878    0.9269    2.1138 C   0  0  0  0  0  0  0  0  0  0  0  0
    6.5715    1.6830    1.0591 C   0  0  0  0  0  0  0  0  0  0  0  0
    6.3151    1.3387   -0.2436 C   0  0  0  0  0  0  0  0  0  0  0  0
    5.5585    0.2128   -0.4957 C   0  0  0  0  0  0  0  0  0  0  0  0
    5.3723   -0.2142   -2.2029 Cl  0  0  0  0  0  0  0  0  0  0  0  0
    0.5851   -0.7484   -0.2291 N   0  0  0  0  0  0  0  0  0  0  0  0
   -0.2882   -0.0208   -0.9634 C   0  0  0  0  0  0  0  0  0  0  0  0
   -1.6730   -0.0283   -0.6256 N   0  0  0  0  0  0  0  0  0  0  0  0
   -2.1663   -0.8283    0.4751 C   0  0  0  0  0  0  0  0  0  0  0  0
   -3.6368   -0.6900    0.6823 C   0  0  0  0  0  0  0  0  0  0  0  0
   -4.4384   -1.1135   -0.5357 C   0  0  0  0  0  0  0  0  0  0  0  0
   -5.9036   -1.0658   -0.0742 C   0  0  0  0  0  0  0  0  0  0  0  0
   -6.2089    0.3432    0.1158 N   0  0  0  0  0  0  0  0  0  0  0  0
   -5.4669    0.9325    1.2025 C   0  0  0  0  0  0  0  0  0  0  0  0
   -3.9848    0.7322    1.0242 C   0  0  0  0  0  0  0  0  0  0  0  0
    1.8510    1.3492   -3.1176 H   0  0  0  0  0  0  0  0  0  0  0  0
    2.2662   -2.0956    1.0917 H   0  0  0  0  0  0  0  0  0  0  0  0
    4.4459   -2.5152    1.0651 H   0  0  0  0  0  0  0  0  0  0  0  0
    4.5333   -2.2160   -0.6734 H   0  0  0  0  0  0  0  0  0  0  0  0
    4.9605   -0.7738    2.6735 H   0  0  0  0  0  0  0  0  0  0  0  0
    6.3133    1.2298    3.1459 H   0  0  0  0  0  0  0  0  0  0  0  0
    7.1700    2.5706    1.3340 H   0  0  0  0  0  0  0  0  0  0  0  0
    6.6985    1.9364   -1.0549 H   0  0  0  0  0  0  0  0  0  0  0  0
   -2.3452    0.5324   -1.1451 H   0  0  0  0  0  0  0  0  0  0  0  0
   -1.6680   -0.5482    1.4342 H   0  0  0  0  0  0  0  0  0  0  0  0
   -1.9103   -1.9121    0.3287 H   0  0  0  0  0  0  0  0  0  0  0  0
   -3.9352   -1.3291    1.5277 H   0  0  0  0  0  0  0  0  0  0  0  0
   -4.2733   -0.4370   -1.3993 H   0  0  0  0  0  0  0  0  0  0  0  0
   -4.1889   -2.1666   -0.7753 H   0  0  0  0  0  0  0  0  0  0  0  0
   -6.5746   -1.4657   -0.8395 H   0  0  0  0  0  0  0  0  0  0  0  0
   -5.9437   -1.5919    0.8916 H   0  0  0  0  0  0  0  0  0  0  0  0
   -5.9378    0.8404   -0.7714 H   0  0  0  0  0  0  0  0  0  0  0  0
   -5.6385    2.0358    1.1379 H   0  0  0  0  0  0  0  0  0  0  0  0
   -5.7973    0.5564    2.1782 H   0  0  0  0  0  0  0  0  0  0  0  0
   -3.6107    1.3794    0.2104 H   0  0  0  0  0  0  0  0  0  0  0  0
   -3.4733    0.9921    1.9773 H   0  0  0  0  0  0  0  0  0  0  0  0
  1  2  2  0
  2  3  1  0
  2  4  1  0
  4  5  2  0
  5  6  1  0
  6  7  2  0
  7  8  1  0
  8  9  1  0
  9 10  1  0
 10 11  2  0
 11 12  1  0
 12 13  2  0
 13 14  1  0
 14 15  2  0
 15 16  1  0
  7 17  1  0
 17 18  2  0
 18 19  1  0
 19 20  1  0
 20 21  1  0
 21 22  1  0
 22 23  1  0
 23 24  1  0
 24 25  1  0
 25 26  1  0
 18  4  1  0
 26 21  1  0
 15 10  1  0
  5 27  1  0
  8 28  1  0
  9 29  1  0
  9 30  1  0
 11 31  1  0
 12 32  1  0
 13 33  1  0
 14 34  1  0
 19 35  1  0
 20 36  1  0
 20 37  1  0
 21 38  1  0
 22 39  1  0
 22 40  1  0
 23 41  1  0
 23 42  1  0
 24 43  1  0
 25 44  1  0
 25 45  1  0
 26 46  1  0
 26 47  1  0
M  CHG  2   2   1   3  -1
M  END
$$$$
