
     RDKit          3D

 46 47  0  0  0  0  0  0  0  0999 V2000
   -4.1773    2.5595    0.3265 C   0  0  0  0  0  0  0  0  0  0  0  0
   -4.0380    1.4461   -0.6640 C   0  0  0  0  0  0  0  0  0  0  0  0
   -4.3540    2.0339   -2.0419 C   0  0  0  0  0  0  0  0  0  0  0  0
   -2.7841    0.8813   -0.6284 O   0  0  0  0  0  0  0  0  0  0  0  0
   -2.7882   -0.4276   -0.3753 N   0  0  0  0  0  0  0  0  0  0  0  0
   -2.8467   -0.7510    1.0360 C   0  0  0  0  0  0  0  0  0  0  0  0
   -3.6740   -1.9749    1.1839 C   0  0  0  0  0  0  0  0  0  0  0  0
   -3.8934   -2.5004    2.3214 O   0  0  0  0  0  0  0  0  0  0  0  0
   -4.2629   -2.6221    0.0700 N   0  0  0  0  0  0  0  0  0  0  0  0
   -5.0200   -3.7487    0.2318 O   0  0  0  0  0  0  0  0  0  0  0  0
   -1.3915   -1.1826   -1.0397 S   0  0  0  0  0  6  0  0  0  0  0  0
   -1.4408   -2.6771   -0.8860 O   0  0  0  0  0  0  0  0  0  0  0  0
   -1.3356   -0.8358   -2.5172 O   0  0  0  0  0  0  0  0  0  0  0  0
    0.0855   -0.6119   -0.3139 C   0  0  0  0  0  0  0  0  0  0  0  0
    0.7000   -1.1993    0.7562 C   0  0  0  0  0  0  0  0  0  0  0  0
    1.8836   -0.6933    1.2983 C   0  0  0  0  0  0  0  0  0  0  0  0
    2.4745    0.4297    0.7611 C   0  0  0  0  0  0  0  0  0  0  0  0
    3.6553    0.9653    1.2734 O   0  0  0  0  0  0  0  0  0  0  0  0
    4.9125    0.5837    0.8274 C   0  0  0  0  0  0  0  0  0  0  0  0
    5.5911   -0.4639    1.4152 C   0  0  0  0  0  0  0  0  0  0  0  0
    6.8408   -0.8386    0.9675 C   0  0  0  0  0  0  0  0  0  0  0  0
    7.4671   -0.1921   -0.0782 C   0  0  0  0  0  0  0  0  0  0  0  0
    6.7967    0.8564   -0.6722 C   0  0  0  0  0  0  0  0  0  0  0  0
    5.5480    1.2252   -0.2193 C   0  0  0  0  0  0  0  0  0  0  0  0
    1.8538    1.0217   -0.3188 C   0  0  0  0  0  0  0  0  0  0  0  0
    0.6839    0.5217   -0.8546 C   0  0  0  0  0  0  0  0  0  0  0  0
   -3.9094    3.5340   -0.1774 H   0  0  0  0  0  0  0  0  0  0  0  0
   -5.2713    2.6764    0.5758 H   0  0  0  0  0  0  0  0  0  0  0  0
   -3.6163    2.4334    1.2510 H   0  0  0  0  0  0  0  0  0  0  0  0
   -4.8448    0.6935   -0.4707 H   0  0  0  0  0  0  0  0  0  0  0  0
   -4.1302    1.3204   -2.8512 H   0  0  0  0  0  0  0  0  0  0  0  0
   -5.4208    2.3521   -2.0333 H   0  0  0  0  0  0  0  0  0  0  0  0
   -3.7560    2.9784   -2.1461 H   0  0  0  0  0  0  0  0  0  0  0  0
   -3.2946    0.0855    1.6289 H   0  0  0  0  0  0  0  0  0  0  0  0
   -1.8519   -0.9930    1.4588 H   0  0  0  0  0  0  0  0  0  0  0  0
   -4.1431   -2.2665   -0.8891 H   0  0  0  0  0  0  0  0  0  0  0  0
   -4.5808   -4.5329   -0.1610 H   0  0  0  0  0  0  0  0  0  0  0  0
    0.2494   -2.0875    1.1911 H   0  0  0  0  0  0  0  0  0  0  0  0
    2.3137   -1.1983    2.1345 H   0  0  0  0  0  0  0  0  0  0  0  0
    5.1208   -0.9943    2.2447 H   0  0  0  0  0  0  0  0  0  0  0  0
    7.3746   -1.6740    1.4409 H   0  0  0  0  0  0  0  0  0  0  0  0
    8.4515   -0.4928   -0.4254 H   0  0  0  0  0  0  0  0  0  0  0  0
    7.2593    1.3890   -1.4988 H   0  0  0  0  0  0  0  0  0  0  0  0
    5.0188    2.0561   -0.6914 H   0  0  0  0  0  0  0  0  0  0  0  0
    2.3289    1.9137   -0.7406 H   0  0  0  0  0  0  0  0  0  0  0  0
    0.2161    1.0018   -1.7000 H   0  0  0  0  0  0  0  0  0  0  0  0
  1  2  1  0
  2  3  1  0
  2  4  1  0
  4  5  1  0
  5  6  1  0
  6  7  1  0
  7  8  2  0
  7  9  1  0
  9 10  1  0
  5 11  1  0
 11 12  2  0
 11 13  2  0
 11 14  1  0
 14 15  2  0
 15 16  1  0
 16 17  2  0
 17 18  1  0
 18 19  1  0
 19 20  2  0
 20 21  1  0
 21 22  2  0
 22 23  1  0
 23 24  2  0
 17 25  1  0
 25 26  2  0
 26 14  1  0
 24 19  1  0
  1 27  1  0
  1 28  1  0
  1 29  1  0
  2 30  1  0
  3 31  1  0
  3 32  1  0
  3 33  1  0
  6 34  1  0
  6 35  1  0
  9 36  1  0
 10 37  1  0
 15 38  1  0
 16 39  1  0
 20 40  1  0
 21 41  1  0
 22 42  1  0
 23 43  1  0
 24 44  1  0
 25 45  1  0
 26 46  1  0
M  END
$$$$
