
     RDKit          3D

 46 50  0  0  0  0  0  0  0  0999 V2000
   -0.6844    1.1476   -0.3364 C   0  0  1  0  0  0  0  0  0  0  0  0
   -0.3198   -0.3300   -0.3302 C   0  0  0  0  0  0  0  0  0  0  0  0
    0.8512   -0.3565   -1.2905 C   0  0  0  0  0  0  0  0  0  0  0  0
    1.5275    0.8932   -0.9481 N   0  0  0  0  0  0  0  0  0  0  0  0
    2.8723    1.2258   -1.3725 C   0  0  0  0  0  0  0  0  0  0  0  0
    3.8547    0.7512   -0.3697 C   0  0  0  0  0  0  0  0  0  0  0  0
    4.4108   -0.5074   -0.4421 C   0  0  0  0  0  0  0  0  0  0  0  0
    5.2860   -0.6671    0.6213 C   0  0  0  0  0  0  0  0  0  0  0  0
    5.2358    0.5362    1.3322 C   0  0  0  0  0  0  0  0  0  0  0  0
    4.3684    1.3626    0.7100 N   0  0  0  0  0  0  0  0  0  0  0  0
    6.0141    0.6870    2.4670 C   0  0  0  0  0  0  0  0  0  0  0  0
    6.7959   -0.3150    2.8615 N   0  0  0  0  0  0  0  0  0  0  0  0
    6.8982   -1.5001    2.2317 C   0  0  0  0  0  0  0  0  0  0  0  0
    6.1198   -1.6609    1.0903 C   0  0  0  0  0  0  0  0  0  0  0  0
    0.6862    1.7416   -0.1402 C   0  0  0  0  0  0  0  0  0  0  0  0
    1.1342    2.7238    0.5271 O   0  0  0  0  0  0  0  0  0  0  0  0
   -1.2107    1.4610   -1.6303 N   0  0  0  0  0  0  0  0  0  0  0  0
   -2.7798    2.1596   -1.6150 S   0  0  0  0  0  0  0  0  0  0  0  0
   -3.2147    2.3044   -3.0264 O   0  0  0  0  0  0  0  0  0  0  0  0
   -2.8059    3.4679   -0.8981 O   0  0  0  0  0  0  0  0  0  0  0  0
   -3.9508    1.0294   -0.8969 C   0  0  0  0  0  0  0  0  0  0  0  0
   -5.1101    0.4151   -1.3573 C   0  0  0  0  0  0  0  0  0  0  0  0
   -5.7185   -0.4043   -0.4449 C   0  0  0  0  0  0  0  0  0  0  0  0
   -5.2131   -0.5798    0.7852 C   0  0  0  0  0  0  0  0  0  0  0  0
   -3.7921    0.3946    0.8356 S   0  0  0  0  0  0  0  0  0  0  0  0
   -5.8377   -1.4160    1.7103 C   0  0  0  0  0  0  0  0  0  0  0  0
   -7.0075   -2.1098    1.4175 C   0  0  0  0  0  0  0  0  0  0  0  0
   -7.4445   -1.8628    0.1325 C   0  0  0  0  0  0  0  0  0  0  0  0
   -6.8498   -1.0627   -0.7572 N   0  0  0  0  0  0  0  0  0  0  0  0
   -1.3514    1.3935    0.5098 H   0  0  0  0  0  0  0  0  0  0  0  0
    0.0441   -0.6195    0.6667 H   0  0  0  0  0  0  0  0  0  0  0  0
   -1.1601   -0.9564   -0.6859 H   0  0  0  0  0  0  0  0  0  0  0  0
    0.5181   -0.3863   -2.3390 H   0  0  0  0  0  0  0  0  0  0  0  0
    1.5085   -1.2314   -1.1187 H   0  0  0  0  0  0  0  0  0  0  0  0
    3.0093    2.3215   -1.4936 H   0  0  0  0  0  0  0  0  0  0  0  0
    3.0403    0.7513   -2.3596 H   0  0  0  0  0  0  0  0  0  0  0  0
    4.2752   -1.3216   -1.1492 H   0  0  0  0  0  0  0  0  0  0  0  0
    4.1098    2.3350    0.9940 H   0  0  0  0  0  0  0  0  0  0  0  0
    6.0003    1.5988    3.0380 H   0  0  0  0  0  0  0  0  0  0  0  0
    7.5286   -2.3200    2.5421 H   0  0  0  0  0  0  0  0  0  0  0  0
    6.1409   -2.5817    0.5232 H   0  0  0  0  0  0  0  0  0  0  0  0
   -1.2360    0.6559   -2.2907 H   0  0  0  0  0  0  0  0  0  0  0  0
   -5.3332    0.6956   -2.3717 H   0  0  0  0  0  0  0  0  0  0  0  0
   -5.3562   -1.4879    2.6610 H   0  0  0  0  0  0  0  0  0  0  0  0
   -7.4813   -2.7539    2.1419 H   0  0  0  0  0  0  0  0  0  0  0  0
   -8.3727   -2.3982   -0.1348 H   0  0  0  0  0  0  0  0  0  0  0  0
  1  2  1  0
  2  3  1  0
  3  4  1  0
  4  5  1  0
  5  6  1  0
  6  7  2  0
  7  8  1  0
  8  9  2  0
  9 10  1  0
  9 11  1  0
 11 12  2  0
 12 13  1  0
 13 14  2  0
  4 15  1  0
 15 16  2  0
  1 17  1  0
 17 18  1  0
 18 19  2  0
 18 20  2  0
 18 21  1  0
 21 22  2  0
 22 23  1  0
 23 24  2  0
 24 25  1  0
 24 26  1  0
 26 27  2  0
 27 28  1  0
 28 29  2  0
 15  1  1  0
 25 21  1  0
 10  6  1  0
 29 23  1  0
 14  8  1  0
  1 30  1  1
  2 31  1  0
  2 32  1  0
  3 33  1  0
  3 34  1  0
  5 35  1  0
  5 36  1  0
  7 37  1  0
 10 38  1  0
 11 39  1  0
 13 40  1  0
 14 41  1  0
 17 42  1  0
 22 43  1  0
 26 44  1  0
 27 45  1  0
 28 46  1  0
M  END
$$$$
