
     RDKit          3D

 68 72  0  0  0  0  0  0  0  0999 V2000
   -1.3177   -1.8694    4.0709 C   0  0  0  0  0  0  0  0  0  0  0  0
   -2.6966   -1.7243    3.4882 C   0  0  0  0  0  0  0  0  0  0  0  0
   -3.7324   -1.9358    4.3310 N   0  0  0  0  0  0  0  0  0  0  0  0
   -4.9950   -1.8632    3.9038 C   0  0  0  0  0  0  0  0  0  0  0  0
   -5.2428   -1.5655    2.5657 C   0  0  0  0  0  0  0  0  0  0  0  0
   -6.5868   -1.4178    2.0846 C   0  0  0  0  0  0  0  0  0  0  0  0
   -7.6582   -1.2798    1.7008 N   0  0  0  0  0  0  0  0  0  0  0  0
   -4.2155   -1.3496    1.6946 C   0  0  0  0  0  0  0  0  0  0  0  0
   -4.4601   -1.0578    0.3443 N   0  0  0  0  0  0  0  0  0  0  0  0
   -4.4189    0.2334   -0.2258 C   0  0  0  0  0  0  0  0  0  0  0  0
   -4.1688    1.3619    0.5320 C   0  0  0  0  0  0  0  0  0  0  0  0
   -4.0938    2.6125   -0.0490 C   0  0  0  0  0  0  0  0  0  0  0  0
   -4.2680    2.7557   -1.4118 C   0  0  0  0  0  0  0  0  0  0  0  0
   -4.2362    3.8205   -2.2266 N   0  0  0  0  0  0  0  0  0  0  0  0
   -4.4565    3.4346   -3.4934 C   0  0  0  0  0  0  0  0  0  0  0  0
   -4.6404    2.0719   -3.5234 C   0  0  0  0  0  0  0  0  0  0  0  0
   -4.5208    1.6518   -2.2148 C   0  0  0  0  0  0  0  0  0  0  0  0
   -4.5887    0.4213   -1.5904 C   0  0  0  0  0  0  0  0  0  0  0  0
   -4.8648   -0.7906   -2.4057 C   0  0  0  0  0  0  0  0  0  0  0  0
   -2.8814   -1.4272    2.1685 C   0  0  0  0  0  0  0  0  0  0  0  0
   -1.8692   -1.0444    1.2122 C   0  0  0  0  0  0  0  0  0  0  0  0
   -0.6426   -0.6810    1.3837 C   0  0  0  0  0  0  0  0  0  0  0  0
    0.2671   -0.3149    0.2772 C   0  0  0  0  0  0  0  0  0  0  0  0
   -0.0817   -0.3570   -1.0471 C   0  0  0  0  0  0  0  0  0  0  0  0
    0.7878    0.0822   -2.0561 C   0  0  0  0  0  0  0  0  0  0  0  0
    2.0269    0.5696   -1.7097 C   0  0  0  0  0  0  0  0  0  0  0  0
    2.4278    0.6322   -0.3843 C   0  0  0  0  0  0  0  0  0  0  0  0
    3.9814    1.3159    0.0582 S   0  0  0  0  0  6  0  0  0  0  0  0
    4.1484    2.6139   -0.7185 O   0  0  0  0  0  0  0  0  0  0  0  0
    3.8829    1.6314    1.5499 O   0  0  0  0  0  0  0  0  0  0  0  0
    5.3009    0.3303   -0.2975 N   0  0  0  0  0  0  0  0  0  0  0  0
    5.3168   -0.9352    0.3732 C   0  0  0  0  0  0  0  0  0  0  0  0
    6.4429   -1.7710   -0.2217 C   0  0  0  0  0  0  0  0  0  0  0  0
    7.4473   -0.9759   -0.8660 N   0  0  0  0  0  0  0  0  0  0  0  0
    7.1846   -0.7216   -2.2555 C   0  0  0  0  0  0  0  0  0  0  0  0
    7.7474    0.2526   -0.1780 C   0  0  0  0  0  0  0  0  0  0  0  0
    6.5117    1.0562    0.0651 C   0  0  0  0  0  0  0  0  0  0  0  0
    1.5342    0.1858    0.5604 C   0  0  0  0  0  0  0  0  0  0  0  0
   -0.6782   -2.5010    3.4622 H   0  0  0  0  0  0  0  0  0  0  0  0
   -0.9164   -0.9248    4.4511 H   0  0  0  0  0  0  0  0  0  0  0  0
   -1.4518   -2.4849    5.0309 H   0  0  0  0  0  0  0  0  0  0  0  0
   -5.8586   -2.0247    4.5494 H   0  0  0  0  0  0  0  0  0  0  0  0
   -4.6896   -1.8624   -0.2863 H   0  0  0  0  0  0  0  0  0  0  0  0
   -4.0345    1.2396    1.6115 H   0  0  0  0  0  0  0  0  0  0  0  0
   -3.8964    3.4772    0.5794 H   0  0  0  0  0  0  0  0  0  0  0  0
   -4.0711    4.7885   -1.9326 H   0  0  0  0  0  0  0  0  0  0  0  0
   -4.4754    4.1175   -4.3367 H   0  0  0  0  0  0  0  0  0  0  0  0
   -4.8345    1.4297   -4.3531 H   0  0  0  0  0  0  0  0  0  0  0  0
   -5.1078   -0.5138   -3.4498 H   0  0  0  0  0  0  0  0  0  0  0  0
   -5.7529   -1.3393   -2.0232 H   0  0  0  0  0  0  0  0  0  0  0  0
   -3.9652   -1.3998   -2.4104 H   0  0  0  0  0  0  0  0  0  0  0  0
   -2.1893   -1.0882    0.1464 H   0  0  0  0  0  0  0  0  0  0  0  0
   -0.2133   -0.5945    2.3551 H   0  0  0  0  0  0  0  0  0  0  0  0
   -1.0477   -0.7431   -1.3371 H   0  0  0  0  0  0  0  0  0  0  0  0
    0.4246    0.0089   -3.0691 H   0  0  0  0  0  0  0  0  0  0  0  0
    2.6867    0.9031   -2.4814 H   0  0  0  0  0  0  0  0  0  0  0  0
    4.3498   -1.4574    0.3170 H   0  0  0  0  0  0  0  0  0  0  0  0
    5.5850   -0.7342    1.4394 H   0  0  0  0  0  0  0  0  0  0  0  0
    5.9967   -2.4398   -1.0045 H   0  0  0  0  0  0  0  0  0  0  0  0
    6.8751   -2.4077    0.5554 H   0  0  0  0  0  0  0  0  0  0  0  0
    6.1681   -0.3374   -2.4528 H   0  0  0  0  0  0  0  0  0  0  0  0
    7.8862    0.0597   -2.6393 H   0  0  0  0  0  0  0  0  0  0  0  0
    7.3242   -1.6150   -2.8743 H   0  0  0  0  0  0  0  0  0  0  0  0
    8.2848    0.0352    0.7699 H   0  0  0  0  0  0  0  0  0  0  0  0
    8.4145    0.8512   -0.8218 H   0  0  0  0  0  0  0  0  0  0  0  0
    6.4285    1.3102    1.1564 H   0  0  0  0  0  0  0  0  0  0  0  0
    6.5138    2.0562   -0.4588 H   0  0  0  0  0  0  0  0  0  0  0  0
    1.8736    0.2393    1.6034 H   0  0  0  0  0  0  0  0  0  0  0  0
  1  2  1  0
  2  3  2  0
  3  4  1  0
  4  5  2  0
  5  6  1  0
  6  7  3  0
  5  8  1  0
  8  9  1  0
  9 10  1  0
 10 11  2  0
 11 12  1  0
 12 13  2  0
 13 14  1  0
 14 15  1  0
 15 16  2  0
 16 17  1  0
 17 18  2  0
 18 19  1  0
  8 20  2  0
 20 21  1  0
 21 22  2  0
 22 23  1  0
 23 24  2  0
 24 25  1  0
 25 26  2  0
 26 27  1  0
 27 28  1  0
 28 29  2  0
 28 30  2  0
 28 31  1  0
 31 32  1  0
 32 33  1  0
 33 34  1  0
 34 35  1  0
 34 36  1  0
 36 37  1  0
 27 38  2  0
 20  2  1  0
 38 23  1  0
 18 10  1  0
 37 31  1  0
 17 13  1  0
  1 39  1  0
  1 40  1  0
  1 41  1  0
  4 42  1  0
  9 43  1  0
 11 44  1  0
 12 45  1  0
 14 46  1  0
 15 47  1  0
 16 48  1  0
 19 49  1  0
 19 50  1  0
 19 51  1  0
 21 52  1  0
 22 53  1  0
 24 54  1  0
 25 55  1  0
 26 56  1  0
 32 57  1  0
 32 58  1  0
 33 59  1  0
 33 60  1  0
 35 61  1  0
 35 62  1  0
 35 63  1  0
 36 64  1  0
 36 65  1  0
 37 66  1  0
 37 67  1  0
 38 68  1  0
M  END
$$$$
