
     RDKit          3D

 73 78  0  0  0  0  0  0  0  0999 V2000
    4.2725    3.0994   -1.7643 C   0  0  0  0  0  0  0  0  0  0  0  0
    3.3623    1.9664   -1.4577 C   0  0  0  0  0  0  0  0  0  0  0  0
    2.0556    2.2429   -1.1018 C   0  0  0  0  0  0  0  0  0  0  0  0
    1.1552    1.2445   -0.8078 C   0  0  0  0  0  0  0  0  0  0  0  0
   -0.1903    1.5565   -0.4320 N   0  0  0  0  0  0  0  0  0  0  0  0
   -1.1183    0.5170   -0.1431 C   0  0  0  0  0  0  0  0  0  0  0  0
   -0.7493   -0.7751   -0.2662 N   0  0  0  0  0  0  0  0  0  0  0  0
   -1.6007   -1.7820    0.0022 C   0  0  0  0  0  0  0  0  0  0  0  0
   -2.9054   -1.5232    0.4205 C   0  0  0  0  0  0  0  0  0  0  0  0
   -3.9904   -2.2894    0.7680 C   0  0  0  0  0  0  0  0  0  0  0  0
   -5.0300   -1.4418    1.1073 C   0  0  0  0  0  0  0  0  0  0  0  0
   -6.3818   -1.8591    1.5458 C   0  0  0  0  0  0  0  0  0  0  0  0
   -6.7036   -1.7125    2.7504 O   0  0  0  0  0  0  0  0  0  0  0  0
   -7.2952   -2.4096    0.6424 N   0  0  0  0  0  0  0  0  0  0  0  0
   -8.6150   -2.8190    1.0680 C   0  0  0  0  0  0  0  0  0  0  0  0
   -6.9256   -2.5786   -0.7456 C   0  0  0  0  0  0  0  0  0  0  0  0
   -4.5605   -0.1998    0.9595 N   0  0  0  0  0  0  0  0  0  0  0  0
   -5.2700    1.0403    1.1964 C   0  0  0  0  0  0  0  0  0  0  0  0
   -6.7243    0.9403    0.8190 C   0  0  0  0  0  0  0  0  0  0  0  0
   -7.1070    2.3231    0.3414 C   0  0  0  0  0  0  0  0  0  0  0  0
   -5.8613    3.0836    0.0581 C   0  0  0  0  0  0  0  0  0  0  0  0
   -4.7267    2.1518    0.3070 C   0  0  0  0  0  0  0  0  0  0  0  0
   -3.2634   -0.2042    0.5404 C   0  0  0  0  0  0  0  0  0  0  0  0
   -2.3752    0.7647    0.2599 N   0  0  0  0  0  0  0  0  0  0  0  0
    1.5983   -0.0323   -0.8798 N   0  0  0  0  0  0  0  0  0  0  0  0
    2.8770   -0.3097   -1.2277 C   0  0  0  0  0  0  0  0  0  0  0  0
    3.8087    0.6551   -1.5288 C   0  0  0  0  0  0  0  0  0  0  0  0
    5.1946    0.3062   -1.9035 C   0  0  0  0  0  0  0  0  0  0  0  0
    5.2479   -0.7637   -2.8239 O   0  0  0  0  0  0  0  0  0  0  0  0
    6.0692    0.0282   -0.8394 N   0  0  0  0  0  0  0  0  0  0  0  0
    5.7700   -1.0129    0.0549 C   0  0  0  0  0  0  0  0  0  0  0  0
    6.7313   -1.1253    1.2157 C   0  0  0  0  0  0  0  0  0  0  0  0
    7.9226   -1.9261    0.7581 C   0  0  0  0  0  0  0  0  0  0  0  0
    8.9843   -0.8684    0.4485 C   0  0  0  0  0  0  0  0  0  0  0  0
    8.1631    0.4003    0.3806 C   0  0  0  0  0  0  0  0  0  0  0  0
    7.4104    0.4545   -0.9263 C   0  0  0  0  0  0  0  0  0  0  0  0
    7.2441    0.2147    1.5023 N   0  0  0  0  0  0  0  0  0  0  0  0
    3.9326    3.9696   -1.1353 H   0  0  0  0  0  0  0  0  0  0  0  0
    4.0719    3.3668   -2.8316 H   0  0  0  0  0  0  0  0  0  0  0  0
    5.3194    2.9163   -1.5334 H   0  0  0  0  0  0  0  0  0  0  0  0
    1.6854    3.2682   -1.0421 H   0  0  0  0  0  0  0  0  0  0  0  0
   -0.4445    2.5660   -0.3840 H   0  0  0  0  0  0  0  0  0  0  0  0
   -1.3264   -2.8342   -0.0885 H   0  0  0  0  0  0  0  0  0  0  0  0
   -4.0341   -3.3766    0.7779 H   0  0  0  0  0  0  0  0  0  0  0  0
   -8.5918   -3.9256    1.1557 H   0  0  0  0  0  0  0  0  0  0  0  0
   -9.4076   -2.4577    0.3752 H   0  0  0  0  0  0  0  0  0  0  0  0
   -8.8607   -2.4255    2.0565 H   0  0  0  0  0  0  0  0  0  0  0  0
   -6.4968   -3.6000   -0.8576 H   0  0  0  0  0  0  0  0  0  0  0  0
   -6.2513   -1.7828   -1.1193 H   0  0  0  0  0  0  0  0  0  0  0  0
   -7.8375   -2.5201   -1.4066 H   0  0  0  0  0  0  0  0  0  0  0  0
   -5.1720    1.2938    2.2634 H   0  0  0  0  0  0  0  0  0  0  0  0
   -7.3806    0.7054    1.6782 H   0  0  0  0  0  0  0  0  0  0  0  0
   -6.8843    0.2619   -0.0462 H   0  0  0  0  0  0  0  0  0  0  0  0
   -7.7023    2.8506    1.1330 H   0  0  0  0  0  0  0  0  0  0  0  0
   -7.7706    2.2692   -0.5504 H   0  0  0  0  0  0  0  0  0  0  0  0
   -5.7926    3.9691    0.7436 H   0  0  0  0  0  0  0  0  0  0  0  0
   -5.8787    3.4712   -0.9960 H   0  0  0  0  0  0  0  0  0  0  0  0
   -3.9364    2.6744    0.8787 H   0  0  0  0  0  0  0  0  0  0  0  0
   -4.3350    1.7085   -0.6323 H   0  0  0  0  0  0  0  0  0  0  0  0
    3.1651   -1.3527   -1.2696 H   0  0  0  0  0  0  0  0  0  0  0  0
    5.6641    1.1582   -2.4944 H   0  0  0  0  0  0  0  0  0  0  0  0
    5.0341   -1.5770   -2.3049 H   0  0  0  0  0  0  0  0  0  0  0  0
    4.7312   -0.8841    0.4615 H   0  0  0  0  0  0  0  0  0  0  0  0
    5.7724   -1.9917   -0.4635 H   0  0  0  0  0  0  0  0  0  0  0  0
    6.2535   -1.5447    2.1112 H   0  0  0  0  0  0  0  0  0  0  0  0
    7.7303   -2.4583   -0.1943 H   0  0  0  0  0  0  0  0  0  0  0  0
    8.2879   -2.6370    1.5290 H   0  0  0  0  0  0  0  0  0  0  0  0
    9.5256   -1.1019   -0.4788 H   0  0  0  0  0  0  0  0  0  0  0  0
    9.7197   -0.8313    1.2796 H   0  0  0  0  0  0  0  0  0  0  0  0
    8.8338    1.2493    0.5438 H   0  0  0  0  0  0  0  0  0  0  0  0
    7.9630   -0.1907   -1.6490 H   0  0  0  0  0  0  0  0  0  0  0  0
    7.4535    1.5221   -1.2741 H   0  0  0  0  0  0  0  0  0  0  0  0
    6.4864    0.9145    1.4291 H   0  0  0  0  0  0  0  0  0  0  0  0
  1  2  1  0
  2  3  2  0
  3  4  1  0
  4  5  1  0
  5  6  1  0
  6  7  2  0
  7  8  1  0
  8  9  2  0
  9 10  1  0
 10 11  2  0
 11 12  1  0
 12 13  2  0
 12 14  1  0
 14 15  1  0
 14 16  1  0
 11 17  1  0
 17 18  1  0
 18 19  1  0
 19 20  1  0
 20 21  1  0
 21 22  1  0
 17 23  1  0
 23 24  2  0
  4 25  2  0
 25 26  1  0
 26 27  2  0
 27 28  1  0
 28 29  1  0
 28 30  1  0
 30 31  1  0
 31 32  1  0
 32 33  1  0
 33 34  1  0
 34 35  1  0
 35 36  1  0
 35 37  1  0
 27  2  1  0
 36 30  1  0
 24  6  1  0
 37 32  1  0
 23  9  1  0
 22 18  1  0
  1 38  1  0
  1 39  1  0
  1 40  1  0
  3 41  1  0
  5 42  1  0
  8 43  1  0
 10 44  1  0
 15 45  1  0
 15 46  1  0
 15 47  1  0
 16 48  1  0
 16 49  1  0
 16 50  1  0
 18 51  1  0
 19 52  1  0
 19 53  1  0
 20 54  1  0
 20 55  1  0
 21 56  1  0
 21 57  1  0
 22 58  1  0
 22 59  1  0
 26 60  1  0
 28 61  1  0
 29 62  1  0
 31 63  1  0
 31 64  1  0
 32 65  1  0
 33 66  1  0
 33 67  1  0
 34 68  1  0
 34 69  1  0
 35 70  1  0
 36 71  1  0
 36 72  1  0
 37 73  1  0
M  END
$$$$
