
     RDKit          3D

  5  4  0  0  0  0  0  0  0  0999 V2000
   -0.5745   -0.0535    0.0655 N   0  0  0  0  0  0  0  0  0  0  0  0
    0.8192    0.0454   -0.1024 C   0  0  0  0  0  0  0  0  0  0  0  0
    1.9674    0.1159   -0.2244 N   0  0  0  0  0  0  0  0  0  0  0  0
   -1.0995   -0.9551    0.1015 H   0  0  0  0  0  0  0  0  0  0  0  0
   -1.1126    0.8473    0.1599 H   0  0  0  0  0  0  0  0  0  0  0  0
  1  2  1  0
  2  3  3  0
  1  4  1  0
  1  5  1  0
M  END
$$$$
