
     RDKit          3D

 44 45  0  0  0  0  0  0  0  0999 V2000
   -5.3389   -0.2121    0.7912 C   0  0  0  0  0  0  0  0  0  0  0  0
   -5.4808   -0.9337   -0.5131 C   0  0  0  0  0  0  0  0  0  0  0  0
   -4.1376   -2.1125   -0.7014 S   0  0  0  0  0  6  0  0  0  0  0  0
   -4.1493   -3.0429    0.4796 O   0  0  0  0  0  0  0  0  0  0  0  0
   -4.3258   -2.8534   -1.9806 O   0  0  0  0  0  0  0  0  0  0  0  0
   -2.6088   -1.2424   -0.6690 C   0  0  0  0  0  0  0  0  0  0  0  0
   -2.0495   -0.7637   -1.8364 C   0  0  0  0  0  0  0  0  0  0  0  0
   -0.8528   -0.0818   -1.8172 C   0  0  0  0  0  0  0  0  0  0  0  0
   -0.1771    0.1459   -0.6484 C   0  0  0  0  0  0  0  0  0  0  0  0
    1.0944    0.8653   -0.5901 C   0  0  0  0  0  0  0  0  0  0  0  0
    1.1685    2.2303   -0.4245 C   0  0  0  0  0  0  0  0  0  0  0  0
    2.3700    2.9186   -0.3684 C   0  0  0  0  0  0  0  0  0  0  0  0
    2.4084    4.4043   -0.1871 C   0  0  0  0  0  0  0  0  0  0  0  0
    3.3809    4.6976    0.7762 F   0  0  0  0  0  0  0  0  0  0  0  0
    1.2093    4.8826    0.2696 F   0  0  0  0  0  0  0  0  0  0  0  0
    2.7283    5.0539   -1.3578 F   0  0  0  0  0  0  0  0  0  0  0  0
    3.5483    2.2095   -0.4832 C   0  0  0  0  0  0  0  0  0  0  0  0
    3.5176    0.8379   -0.6508 C   0  0  0  0  0  0  0  0  0  0  0  0
    2.3191    0.1907   -0.7015 C   0  0  0  0  0  0  0  0  0  0  0  0
    2.2436   -1.1680   -0.8676 O   0  0  0  0  0  0  0  0  0  0  0  0
    3.3310   -2.0492   -0.9900 C   0  0  0  0  0  0  0  0  0  0  0  0
    4.2069   -2.0720    0.2061 C   0  0  0  0  0  0  0  0  0  0  0  0
    3.9422   -1.3965    1.2301 O   0  0  0  0  0  0  0  0  0  0  0  0
    5.3608   -2.8417    0.2491 O   0  0  0  0  0  0  0  0  0  0  0  0
   -0.7377   -0.3342    0.5243 C   0  0  0  0  0  0  0  0  0  0  0  0
   -0.0862   -0.1411    1.8464 C   0  0  0  0  0  0  0  0  0  0  0  0
   -1.9324   -1.0158    0.5111 C   0  0  0  0  0  0  0  0  0  0  0  0
   -5.0682   -0.9076    1.6383 H   0  0  0  0  0  0  0  0  0  0  0  0
   -4.4720    0.4902    0.7000 H   0  0  0  0  0  0  0  0  0  0  0  0
   -6.2296    0.3666    1.0363 H   0  0  0  0  0  0  0  0  0  0  0  0
   -5.3668   -0.1964   -1.3313 H   0  0  0  0  0  0  0  0  0  0  0  0
   -6.4483   -1.4373   -0.6544 H   0  0  0  0  0  0  0  0  0  0  0  0
   -2.5659   -0.9290   -2.7939 H   0  0  0  0  0  0  0  0  0  0  0  0
   -0.4333    0.2848   -2.7488 H   0  0  0  0  0  0  0  0  0  0  0  0
    0.2163    2.7678   -0.3363 H   0  0  0  0  0  0  0  0  0  0  0  0
    4.4979    2.7476   -0.4396 H   0  0  0  0  0  0  0  0  0  0  0  0
    4.4846    0.3529   -0.7426 H   0  0  0  0  0  0  0  0  0  0  0  0
    3.0046   -3.0768   -1.2113 H   0  0  0  0  0  0  0  0  0  0  0  0
    3.9741   -1.7431   -1.8581 H   0  0  0  0  0  0  0  0  0  0  0  0
    5.7213   -3.2502    1.1205 H   0  0  0  0  0  0  0  0  0  0  0  0
   -0.7916    0.4802    2.4551 H   0  0  0  0  0  0  0  0  0  0  0  0
    0.8795    0.3943    1.7733 H   0  0  0  0  0  0  0  0  0  0  0  0
    0.0115   -1.1283    2.3305 H   0  0  0  0  0  0  0  0  0  0  0  0
   -2.3665   -1.3912    1.4460 H   0  0  0  0  0  0  0  0  0  0  0  0
  1  2  1  0
  2  3  1  0
  3  4  2  0
  3  5  2  0
  3  6  1  0
  6  7  2  0
  7  8  1  0
  8  9  2  0
  9 10  1  0
 10 11  2  0
 11 12  1  0
 12 13  1  0
 13 14  1  0
 13 15  1  0
 13 16  1  0
 12 17  2  0
 17 18  1  0
 18 19  2  0
 19 20  1  0
 20 21  1  0
 21 22  1  0
 22 23  2  0
 22 24  1  0
  9 25  1  0
 25 26  1  0
 25 27  2  0
 27  6  1  0
 19 10  1  0
  1 28  1  0
  1 29  1  0
  1 30  1  0
  2 31  1  0
  2 32  1  0
  7 33  1  0
  8 34  1  0
 11 35  1  0
 17 36  1  0
 18 37  1  0
 21 38  1  0
 21 39  1  0
 24 40  1  0
 26 41  1  0
 26 42  1  0
 26 43  1  0
 27 44  1  0
M  END
$$$$
