
     RDKit          3D

 72 79  0  0  0  0  0  0  0  0999 V2000
   -3.2926    1.5708   -4.2600 C   0  0  0  0  0  0  0  0  0  0  0  0
   -3.4505    2.3481   -3.1212 C   0  0  0  0  0  0  0  0  0  0  0  0
   -4.0532    1.8261   -2.0003 C   0  0  0  0  0  0  0  0  0  0  0  0
   -4.5113    0.5171   -1.9916 C   0  0  0  0  0  0  0  0  0  0  0  0
   -5.1557   -0.0874   -0.8305 C   0  0  0  0  0  0  0  0  0  0  0  0
   -6.4802   -0.5003   -0.8991 C   0  0  0  0  0  0  0  0  0  0  0  0
   -7.0141   -1.0657    0.2571 C   0  0  0  0  0  0  0  0  0  0  0  0
   -6.2525   -1.1998    1.3993 C   0  0  0  0  0  0  0  0  0  0  0  0
   -6.8318   -1.7703    2.5277 C   0  0  0  0  0  0  0  0  0  0  0  0
   -8.1311   -2.1966    2.5246 C   0  0  0  0  0  0  0  0  0  0  0  0
   -8.8402   -2.0438    1.3783 N   0  0  0  0  0  0  0  0  0  0  0  0
  -10.1115   -2.3629    1.0847 C   0  0  0  0  0  0  0  0  0  0  0  0
  -10.3659   -2.0174   -0.1886 N   0  0  0  0  0  0  0  0  0  0  0  0
   -9.2617   -1.4888   -0.6807 N   0  0  0  0  0  0  0  0  0  0  0  0
   -8.3124   -1.4996    0.2774 C   0  0  0  0  0  0  0  0  0  0  0  0
   -4.9768   -0.7846    1.4137 N   0  0  0  0  0  0  0  0  0  0  0  0
   -4.4281   -0.2350    0.3186 C   0  0  0  0  0  0  0  0  0  0  0  0
   -3.0345    0.2183    0.3382 C   0  0  0  0  0  0  0  0  0  0  0  0
   -2.7109    1.2239    1.2191 C   0  0  0  0  0  0  0  0  0  0  0  0
   -1.4319    1.6978    1.2917 C   0  0  0  0  0  0  0  0  0  0  0  0
   -0.4162    1.1812    0.4797 C   0  0  0  0  0  0  0  0  0  0  0  0
    0.9603    1.7047    0.5323 C   0  0  0  0  0  0  0  0  0  0  0  0
    1.7019    1.0833    1.5671 N   0  0  0  0  0  0  0  0  0  0  0  0
    3.0345    1.6655    1.5922 C   0  0  0  0  0  0  0  0  0  0  0  0
    3.9533    0.8600    2.4581 C   0  0  0  0  0  0  0  0  0  0  0  0
    4.1956   -0.4661    1.7516 C   0  0  0  0  0  0  0  0  0  0  0  0
    5.2155   -0.2182    0.6969 C   0  0  0  0  0  0  0  0  0  0  0  0
    5.0570    0.4257   -0.4706 N   0  0  0  0  0  0  0  0  0  0  0  0
    6.2124    0.4443   -1.1395 N   0  0  0  0  0  0  0  0  0  0  0  0
    7.1400   -0.1960   -0.4002 C   0  0  0  0  0  0  0  0  0  0  0  0
    8.5398   -0.3863   -0.7878 C   0  0  0  0  0  0  0  0  0  0  0  0
    9.4368   -1.0463    0.0258 C   0  0  0  0  0  0  0  0  0  0  0  0
   10.7616   -1.2147   -0.3573 C   0  0  0  0  0  0  0  0  0  0  0  0
   11.2180   -0.7201   -1.5755 C   0  0  0  0  0  0  0  0  0  0  0  0
   10.2866   -0.0676   -2.3554 C   0  0  0  0  0  0  0  0  0  0  0  0
    9.0096    0.0796   -1.9563 N   0  0  0  0  0  0  0  0  0  0  0  0
    6.5143   -0.5913    0.7121 N   0  0  0  0  0  0  0  0  0  0  0  0
    2.9506   -0.9741    1.0962 C   0  0  0  0  0  0  0  0  0  0  0  0
    1.6990   -0.3254    1.6559 C   0  0  0  0  0  0  0  0  0  0  0  0
   -0.7773    0.1818   -0.3837 C   0  0  0  0  0  0  0  0  0  0  0  0
   -2.0650   -0.3036   -0.4648 C   0  0  0  0  0  0  0  0  0  0  0  0
   -4.3560   -0.2513   -3.1153 C   0  0  0  0  0  0  0  0  0  0  0  0
   -3.7532    0.2552   -4.2508 C   0  0  0  0  0  0  0  0  0  0  0  0
   -2.8321    1.9194   -5.1634 H   0  0  0  0  0  0  0  0  0  0  0  0
   -3.0764    3.3617   -3.1795 H   0  0  0  0  0  0  0  0  0  0  0  0
   -4.1685    2.4360   -1.1308 H   0  0  0  0  0  0  0  0  0  0  0  0
   -7.0697   -0.3890   -1.8046 H   0  0  0  0  0  0  0  0  0  0  0  0
   -6.2314   -1.8685    3.4058 H   0  0  0  0  0  0  0  0  0  0  0  0
   -8.5904   -2.6411    3.3954 H   0  0  0  0  0  0  0  0  0  0  0  0
  -10.7890   -2.8243    1.7939 H   0  0  0  0  0  0  0  0  0  0  0  0
   -3.4681    1.6689    1.8829 H   0  0  0  0  0  0  0  0  0  0  0  0
   -1.1190    2.4864    1.9646 H   0  0  0  0  0  0  0  0  0  0  0  0
    0.9101    2.8134    0.6309 H   0  0  0  0  0  0  0  0  0  0  0  0
    1.4315    1.5315   -0.4651 H   0  0  0  0  0  0  0  0  0  0  0  0
    2.9392    2.6761    2.0304 H   0  0  0  0  0  0  0  0  0  0  0  0
    3.3817    1.7611    0.5486 H   0  0  0  0  0  0  0  0  0  0  0  0
    4.9080    1.3796    2.5607 H   0  0  0  0  0  0  0  0  0  0  0  0
    3.4218    0.6984    3.4316 H   0  0  0  0  0  0  0  0  0  0  0  0
    4.6188   -1.1369    2.5311 H   0  0  0  0  0  0  0  0  0  0  0  0
    9.0617   -1.4239    0.9708 H   0  0  0  0  0  0  0  0  0  0  0  0
   11.4605   -1.7314    0.2814 H   0  0  0  0  0  0  0  0  0  0  0  0
   12.2540   -0.8527   -1.8733 H   0  0  0  0  0  0  0  0  0  0  0  0
   10.6436    0.3201   -3.3099 H   0  0  0  0  0  0  0  0  0  0  0  0
    6.9630   -1.1129    1.4820 H   0  0  0  0  0  0  0  0  0  0  0  0
    2.8685   -2.0553    1.2403 H   0  0  0  0  0  0  0  0  0  0  0  0
    2.9211   -0.7674   -0.0094 H   0  0  0  0  0  0  0  0  0  0  0  0
    0.8390   -0.7601    1.1220 H   0  0  0  0  0  0  0  0  0  0  0  0
    1.5517   -0.6585    2.7327 H   0  0  0  0  0  0  0  0  0  0  0  0
   -0.0182   -0.2522   -1.0421 H   0  0  0  0  0  0  0  0  0  0  0  0
   -2.3312   -1.1032   -1.1625 H   0  0  0  0  0  0  0  0  0  0  0  0
   -4.7117   -1.2721   -3.1118 H   0  0  0  0  0  0  0  0  0  0  0  0
   -3.6409   -0.3648   -5.1223 H   0  0  0  0  0  0  0  0  0  0  0  0
  1  2  2  0
  2  3  1  0
  3  4  2  0
  4  5  1  0
  5  6  2  0
  6  7  1  0
  7  8  2  0
  8  9  1  0
  9 10  2  0
 10 11  1  0
 11 12  1  0
 12 13  2  0
 13 14  1  0
 14 15  2  0
  8 16  1  0
 16 17  2  0
 17 18  1  0
 18 19  2  0
 19 20  1  0
 20 21  2  0
 21 22  1  0
 22 23  1  0
 23 24  1  0
 24 25  1  0
 25 26  1  0
 26 27  1  0
 27 28  2  0
 28 29  1  0
 29 30  2  0
 30 31  1  0
 31 32  2  0
 32 33  1  0
 33 34  2  0
 34 35  1  0
 35 36  2  0
 30 37  1  0
 26 38  1  0
 38 39  1  0
 21 40  1  0
 40 41  2  0
  4 42  1  0
 42 43  2  0
 43  1  1  0
 17  5  1  0
 41 18  1  0
 15  7  1  0
 39 23  1  0
 15 11  1  0
 37 27  1  0
 36 31  1  0
  1 44  1  0
  2 45  1  0
  3 46  1  0
  6 47  1  0
  9 48  1  0
 10 49  1  0
 12 50  1  0
 19 51  1  0
 20 52  1  0
 22 53  1  0
 22 54  1  0
 24 55  1  0
 24 56  1  0
 25 57  1  0
 25 58  1  0
 26 59  1  0
 32 60  1  0
 33 61  1  0
 34 62  1  0
 35 63  1  0
 37 64  1  0
 38 65  1  0
 38 66  1  0
 39 67  1  0
 39 68  1  0
 40 69  1  0
 41 70  1  0
 42 71  1  0
 43 72  1  0
M  END
$$$$
