
     RDKit          3D

 68 71  0  0  0  0  0  0  0  0999 V2000
    8.9819    1.2829    0.0651 C   0  0  0  0  0  0  0  0  0  0  0  0
    7.8308    0.4129   -0.2812 C   0  0  0  0  0  0  0  0  0  0  0  0
    6.5561    0.5965    0.2467 C   0  0  0  0  0  0  0  0  0  0  0  0
    5.5112   -0.2241   -0.0934 C   0  0  0  0  0  0  0  0  0  0  0  0
    4.1750   -0.0434    0.4523 C   0  0  0  0  0  0  0  0  0  0  0  0
    3.8539    0.9530    1.3408 C   0  0  0  0  0  0  0  0  0  0  0  0
    2.5643    1.0804    1.8294 C   0  0  0  0  0  0  0  0  0  0  0  0
    1.5345    0.2164    1.4518 C   0  0  0  0  0  0  0  0  0  0  0  0
    0.2038    0.3687    2.0086 C   0  0  2  0  0  0  0  0  0  0  0  0
   -0.2583   -0.9209    2.7212 C   0  0  0  0  0  0  0  0  0  0  0  0
   -0.8618    0.6650    1.0738 N   0  0  0  0  0  0  0  0  0  0  0  0
   -1.1173   -0.1179   -0.1096 C   0  0  0  0  0  0  0  0  0  0  0  0
   -2.2851    0.4346   -0.8489 C   0  0  0  0  0  0  0  0  0  0  0  0
   -3.4793    0.7688   -0.0190 C   0  0  2  0  0  0  0  0  0  0  0  0
   -4.0289   -0.3734    0.7737 C   0  0  0  0  0  0  0  0  0  0  0  0
   -4.5027   -1.5600    0.0376 C   0  0  0  0  0  0  0  0  0  0  0  0
   -4.9986   -2.5507    1.1097 C   0  0  0  0  0  0  0  0  0  0  0  0
   -5.7183   -1.3196   -0.8308 C   0  0  0  0  0  0  0  0  0  0  0  0
   -3.5758   -2.2398   -0.7150 O   0  0  0  0  0  0  0  0  0  0  0  0
   -4.5230    1.4939   -0.7769 C   0  0  0  0  0  0  0  0  0  0  0  0
   -4.3447    1.7556   -2.1064 C   0  0  0  0  0  0  0  0  0  0  0  0
   -5.2972    2.4341   -2.8386 C   0  0  0  0  0  0  0  0  0  0  0  0
   -6.4758    2.8684   -2.2167 C   0  0  0  0  0  0  0  0  0  0  0  0
   -6.6717    2.6125   -0.8762 C   0  0  0  0  0  0  0  0  0  0  0  0
   -5.6889    1.9321   -0.1944 C   0  0  0  0  0  0  0  0  0  0  0  0
   -3.0247    1.7272    0.9561 O   0  0  0  0  0  0  0  0  0  0  0  0
   -1.6969    1.7860    1.3237 C   0  0  0  0  0  0  0  0  0  0  0  0
   -1.2723    2.8351    1.8701 O   0  0  0  0  0  0  0  0  0  0  0  0
    1.8681   -0.7694    0.5691 C   0  0  0  0  0  0  0  0  0  0  0  0
    3.1672   -0.9092    0.0673 C   0  0  0  0  0  0  0  0  0  0  0  0
    5.7611   -1.2198   -0.9607 N   0  0  0  0  0  0  0  0  0  0  0  0
    6.9615   -1.4255   -1.4839 N   0  0  0  0  0  0  0  0  0  0  0  0
    7.1960   -2.5123   -2.4197 C   0  0  0  0  0  0  0  0  0  0  0  0
    8.0093   -0.6290   -1.1639 C   0  0  0  0  0  0  0  0  0  0  0  0
    9.1420   -0.8360   -1.6678 O   0  0  0  0  0  0  0  0  0  0  0  0
    9.4481    1.7048   -0.8541 H   0  0  0  0  0  0  0  0  0  0  0  0
    8.7161    2.0394    0.8091 H   0  0  0  0  0  0  0  0  0  0  0  0
    9.7522    0.6057    0.5325 H   0  0  0  0  0  0  0  0  0  0  0  0
    6.4370    1.4091    0.9289 H   0  0  0  0  0  0  0  0  0  0  0  0
    4.5989    1.6626    1.6810 H   0  0  0  0  0  0  0  0  0  0  0  0
    2.2937    1.8590    2.5296 H   0  0  0  0  0  0  0  0  0  0  0  0
    0.1976    1.1306    2.8146 H   0  0  0  0  0  0  0  0  0  0  0  0
    0.3320   -1.0780    3.6416 H   0  0  0  0  0  0  0  0  0  0  0  0
   -0.1166   -1.7332    1.9909 H   0  0  0  0  0  0  0  0  0  0  0  0
   -1.3323   -0.7634    2.9462 H   0  0  0  0  0  0  0  0  0  0  0  0
   -0.2226    0.0788   -0.7810 H   0  0  0  0  0  0  0  0  0  0  0  0
   -1.1976   -1.2014    0.1068 H   0  0  0  0  0  0  0  0  0  0  0  0
   -2.4917   -0.1987   -1.7173 H   0  0  0  0  0  0  0  0  0  0  0  0
   -1.9301    1.4218   -1.2814 H   0  0  0  0  0  0  0  0  0  0  0  0
   -3.2170   -0.7082    1.4671 H   0  0  0  0  0  0  0  0  0  0  0  0
   -4.8417   -0.0149    1.4275 H   0  0  0  0  0  0  0  0  0  0  0  0
   -4.1883   -2.8426    1.7880 H   0  0  0  0  0  0  0  0  0  0  0  0
   -5.4697   -3.3811    0.5632 H   0  0  0  0  0  0  0  0  0  0  0  0
   -5.8154   -2.0140    1.6364 H   0  0  0  0  0  0  0  0  0  0  0  0
   -6.5447   -0.8287   -0.3128 H   0  0  0  0  0  0  0  0  0  0  0  0
   -5.4662   -0.8936   -1.8229 H   0  0  0  0  0  0  0  0  0  0  0  0
   -6.1063   -2.3555   -1.0736 H   0  0  0  0  0  0  0  0  0  0  0  0
   -3.2781   -3.0813   -0.2949 H   0  0  0  0  0  0  0  0  0  0  0  0
   -3.4506    1.4273   -2.5956 H   0  0  0  0  0  0  0  0  0  0  0  0
   -5.1812    2.6529   -3.8867 H   0  0  0  0  0  0  0  0  0  0  0  0
   -7.1961    3.3960   -2.8243 H   0  0  0  0  0  0  0  0  0  0  0  0
   -7.5878    2.9553   -0.4137 H   0  0  0  0  0  0  0  0  0  0  0  0
   -5.8509    1.7361    0.8561 H   0  0  0  0  0  0  0  0  0  0  0  0
    1.1418   -1.4996    0.2311 H   0  0  0  0  0  0  0  0  0  0  0  0
    3.4079   -1.6981   -0.6320 H   0  0  0  0  0  0  0  0  0  0  0  0
    6.8027   -2.1848   -3.4030 H   0  0  0  0  0  0  0  0  0  0  0  0
    6.6070   -3.3861   -2.0207 H   0  0  0  0  0  0  0  0  0  0  0  0
    8.2541   -2.7892   -2.4812 H   0  0  0  0  0  0  0  0  0  0  0  0
  1  2  1  0
  2  3  2  0
  3  4  1  0
  4  5  1  0
  5  6  2  0
  6  7  1  0
  7  8  2  0
  8  9  1  0
  9 10  1  0
  9 11  1  0
 11 12  1  0
 12 13  1  0
 13 14  1  0
 14 15  1  1
 15 16  1  0
 16 17  1  0
 16 18  1  0
 16 19  1  0
 14 20  1  0
 20 21  2  0
 21 22  1  0
 22 23  2  0
 23 24  1  0
 24 25  2  0
 14 26  1  0
 26 27  1  0
 27 28  2  0
  8 29  1  0
 29 30  2  0
  4 31  2  0
 31 32  1  0
 32 33  1  0
 32 34  1  0
 34 35  2  0
 34  2  1  0
 30  5  1  0
 27 11  1  0
 25 20  1  0
  1 36  1  0
  1 37  1  0
  1 38  1  0
  3 39  1  0
  6 40  1  0
  7 41  1  0
  9 42  1  1
 10 43  1  0
 10 44  1  0
 10 45  1  0
 12 46  1  0
 12 47  1  0
 13 48  1  0
 13 49  1  0
 15 50  1  0
 15 51  1  0
 17 52  1  0
 17 53  1  0
 17 54  1  0
 18 55  1  0
 18 56  1  0
 18 57  1  0
 19 58  1  0
 21 59  1  0
 22 60  1  0
 23 61  1  0
 24 62  1  0
 25 63  1  0
 29 64  1  0
 30 65  1  0
 33 66  1  0
 33 67  1  0
 33 68  1  0
M  END
$$$$
