
     RDKit          3D

 60 63  0  0  0  0  0  0  0  0999 V2000
   -2.0233   -6.2348    1.8638 C   0  0  0  0  0  0  0  0  0  0  0  0
   -1.6264   -5.1636    1.0664 O   0  0  0  0  0  0  0  0  0  0  0  0
   -2.4255   -4.0580    0.8028 C   0  0  0  0  0  0  0  0  0  0  0  0
   -3.6917   -3.9543    1.3287 C   0  0  0  0  0  0  0  0  0  0  0  0
   -4.4193   -2.8241    1.0177 C   0  0  0  0  0  0  0  0  0  0  0  0
   -3.9128   -1.8232    0.2104 C   0  0  0  0  0  0  0  0  0  0  0  0
   -2.6254   -1.9250   -0.3261 C   0  0  0  0  0  0  0  0  0  0  0  0
   -2.1376   -0.8187   -1.1822 C   0  0  0  0  0  0  0  0  0  0  0  0
   -1.4318    0.2163   -0.4561 N   0  0  0  0  0  0  0  0  0  0  0  0
   -2.1953    1.3189    0.1620 C   0  0  0  0  0  0  0  0  0  0  0  0
   -2.2956    2.4201   -0.8956 C   0  0  0  0  0  0  0  0  0  0  0  0
   -3.0377    3.5142   -0.3219 N   0  0  0  0  0  0  0  0  0  0  0  0
   -3.2007    4.6158   -1.2186 C   0  0  0  0  0  0  0  0  0  0  0  0
   -2.2784    5.7161   -0.7049 C   0  0  0  0  0  0  0  0  0  0  0  0
   -2.4000    5.4891    0.7933 C   0  0  0  0  0  0  0  0  0  0  0  0
   -2.3552    3.9768    0.8501 C   0  0  0  0  0  0  0  0  0  0  0  0
   -0.0347    0.2260   -0.3144 C   0  0  0  0  0  0  0  0  0  0  0  0
    0.5135    1.1347    0.3550 O   0  0  0  0  0  0  0  0  0  0  0  0
    0.7943   -0.7480   -0.8970 N   0  0  0  0  0  0  0  0  0  0  0  0
    2.2338   -0.7135   -0.7304 C   0  0  0  0  0  0  0  0  0  0  0  0
    2.8311   -1.3702    0.3327 C   0  0  0  0  0  0  0  0  0  0  0  0
    4.1978   -1.3533    0.5165 C   0  0  0  0  0  0  0  0  0  0  0  0
    4.9576   -0.6526   -0.4045 C   0  0  0  0  0  0  0  0  0  0  0  0
    6.4123   -0.6409   -0.2000 C   0  0  0  0  0  0  0  0  0  0  0  0
    7.4034   -0.5725   -1.1539 C   0  0  0  0  0  0  0  0  0  0  0  0
    8.5898   -0.5905   -0.4928 N   0  0  0  0  0  0  0  0  0  0  0  0
    8.4010   -0.6652    0.8026 N   0  0  0  0  0  0  0  0  0  0  0  0
    7.0533   -0.6980    1.0130 C   0  0  0  0  0  0  0  0  0  0  0  0
    4.3736    0.0068   -1.4696 C   0  0  0  0  0  0  0  0  0  0  0  0
    3.0020   -0.0247   -1.6325 C   0  0  0  0  0  0  0  0  0  0  0  0
   -1.9128   -3.0540   -0.0091 C   0  0  0  0  0  0  0  0  0  0  0  0
   -3.0850   -6.4748    1.8434 H   0  0  0  0  0  0  0  0  0  0  0  0
   -1.7447   -5.9942    2.9294 H   0  0  0  0  0  0  0  0  0  0  0  0
   -1.4218   -7.1286    1.5245 H   0  0  0  0  0  0  0  0  0  0  0  0
   -4.1195   -4.7236    1.9672 H   0  0  0  0  0  0  0  0  0  0  0  0
   -5.4237   -2.7450    1.4364 H   0  0  0  0  0  0  0  0  0  0  0  0
   -4.5014   -0.9349   -0.0319 H   0  0  0  0  0  0  0  0  0  0  0  0
   -1.5410   -1.2499   -1.9882 H   0  0  0  0  0  0  0  0  0  0  0  0
   -3.0100   -0.3146   -1.6972 H   0  0  0  0  0  0  0  0  0  0  0  0
   -3.2071    0.9895    0.4653 H   0  0  0  0  0  0  0  0  0  0  0  0
   -1.5896    1.6693    1.0162 H   0  0  0  0  0  0  0  0  0  0  0  0
   -1.2869    2.7920   -1.1317 H   0  0  0  0  0  0  0  0  0  0  0  0
   -2.7315    2.0203   -1.8185 H   0  0  0  0  0  0  0  0  0  0  0  0
   -2.9773    4.3696   -2.2730 H   0  0  0  0  0  0  0  0  0  0  0  0
   -4.2409    5.0322   -1.1256 H   0  0  0  0  0  0  0  0  0  0  0  0
   -2.6211    6.7060   -1.0149 H   0  0  0  0  0  0  0  0  0  0  0  0
   -1.2259    5.4921   -1.0171 H   0  0  0  0  0  0  0  0  0  0  0  0
   -3.3909    5.8374    1.1223 H   0  0  0  0  0  0  0  0  0  0  0  0
   -1.5668    5.9542    1.3498 H   0  0  0  0  0  0  0  0  0  0  0  0
   -1.2668    3.6897    0.7749 H   0  0  0  0  0  0  0  0  0  0  0  0
   -2.8042    3.6187    1.7944 H   0  0  0  0  0  0  0  0  0  0  0  0
    0.3789   -1.5078   -1.4667 H   0  0  0  0  0  0  0  0  0  0  0  0
    2.2067   -1.9023    1.0255 H   0  0  0  0  0  0  0  0  0  0  0  0
    4.6851   -1.8646    1.3480 H   0  0  0  0  0  0  0  0  0  0  0  0
    7.2443   -0.5161   -2.2116 H   0  0  0  0  0  0  0  0  0  0  0  0
    9.1609   -0.6927    1.5179 H   0  0  0  0  0  0  0  0  0  0  0  0
    6.6375   -0.7597    2.0115 H   0  0  0  0  0  0  0  0  0  0  0  0
    5.0233    0.5391   -2.1584 H   0  0  0  0  0  0  0  0  0  0  0  0
    2.5700    0.5026   -2.4791 H   0  0  0  0  0  0  0  0  0  0  0  0
   -0.9101   -3.1536   -0.4183 H   0  0  0  0  0  0  0  0  0  0  0  0
  1  2  1  0
  2  3  1  0
  3  4  2  0
  4  5  1  0
  5  6  2  0
  6  7  1  0
  7  8  1  0
  8  9  1  0
  9 10  1  0
 10 11  1  0
 11 12  1  0
 12 13  1  0
 13 14  1  0
 14 15  1  0
 15 16  1  0
  9 17  1  0
 17 18  2  0
 17 19  1  0
 19 20  1  0
 20 21  2  0
 21 22  1  0
 22 23  2  0
 23 24  1  0
 24 25  1  0
 25 26  2  0
 26 27  1  0
 27 28  1  0
 23 29  1  0
 29 30  2  0
  7 31  2  0
 31  3  1  0
 16 12  1  0
 30 20  1  0
 28 24  2  0
  1 32  1  0
  1 33  1  0
  1 34  1  0
  4 35  1  0
  5 36  1  0
  6 37  1  0
  8 38  1  0
  8 39  1  0
 10 40  1  0
 10 41  1  0
 11 42  1  0
 11 43  1  0
 13 44  1  0
 13 45  1  0
 14 46  1  0
 14 47  1  0
 15 48  1  0
 15 49  1  0
 16 50  1  0
 16 51  1  0
 19 52  1  0
 21 53  1  0
 22 54  1  0
 25 55  1  0
 27 56  1  0
 28 57  1  0
 29 58  1  0
 30 59  1  0
 31 60  1  0
M  END
$$$$
