
     RDKit          3D

 30 31  0  0  0  0  0  0  0  0999 V2000
    1.2331   -0.4086    2.0880 O   0  0  0  0  0  0  0  0  0  0  0  0
    0.6582   -0.1992    0.9756 C   0  0  0  0  0  0  0  0  0  0  0  0
   -0.7898   -0.0943    0.9412 C   0  0  0  0  0  0  0  0  0  0  0  0
   -1.4347    0.1199   -0.1708 C   0  0  0  0  0  0  0  0  0  0  0  0
   -2.8905    0.2251   -0.2035 C   0  0  0  0  0  0  0  0  0  0  0  0
   -3.6866    0.1097    0.9117 C   0  0  0  0  0  0  0  0  0  0  0  0
   -5.0662    0.2318    0.7339 C   0  0  0  0  0  0  0  0  0  0  0  0
   -5.6515    0.4560   -0.4705 C   0  0  0  0  0  0  0  0  0  0  0  0
   -4.8415    0.5702   -1.5839 C   0  0  0  0  0  0  0  0  0  0  0  0
   -3.4900    0.4569   -1.4512 C   0  0  0  0  0  0  0  0  0  0  0  0
    1.4457   -0.0798   -0.1611 N   0  0  0  0  0  0  0  0  0  0  0  0
    2.8857   -0.1844   -0.1253 C   0  0  0  0  0  0  0  0  0  0  0  0
    3.6769    0.9268    0.0700 C   0  0  0  0  0  0  0  0  0  0  0  0
    5.0369    0.8244    0.1034 C   0  0  0  0  0  0  0  0  0  0  0  0
    5.6652   -0.4109   -0.0596 C   0  0  0  0  0  0  0  0  0  0  0  0
    4.8935   -1.5361   -0.2563 C   0  0  0  0  0  0  0  0  0  0  0  0
    3.5215   -1.3976   -0.2847 C   0  0  0  0  0  0  0  0  0  0  0  0
   -1.3785   -0.1941    1.8606 H   0  0  0  0  0  0  0  0  0  0  0  0
   -0.8962    0.2270   -1.1148 H   0  0  0  0  0  0  0  0  0  0  0  0
   -3.2897   -0.0679    1.8957 H   0  0  0  0  0  0  0  0  0  0  0  0
   -5.6923    0.1416    1.6069 H   0  0  0  0  0  0  0  0  0  0  0  0
   -6.7194    0.5484   -0.5943 H   0  0  0  0  0  0  0  0  0  0  0  0
   -5.2626    0.7500   -2.5716 H   0  0  0  0  0  0  0  0  0  0  0  0
   -2.8773    0.5485   -2.3276 H   0  0  0  0  0  0  0  0  0  0  0  0
    1.0434    0.0907   -1.0961 H   0  0  0  0  0  0  0  0  0  0  0  0
    3.2185    1.8757    0.1961 H   0  0  0  0  0  0  0  0  0  0  0  0
    5.6156    1.7134    0.2577 H   0  0  0  0  0  0  0  0  0  0  0  0
    6.7395   -0.4813   -0.0317 H   0  0  0  0  0  0  0  0  0  0  0  0
    5.4097   -2.4783   -0.3793 H   0  0  0  0  0  0  0  0  0  0  0  0
    2.9233   -2.2837   -0.4392 H   0  0  0  0  0  0  0  0  0  0  0  0
  1  2  2  0
  2  3  1  0
  3  4  2  0
  4  5  1  0
  5  6  2  0
  6  7  1  0
  7  8  2  0
  8  9  1  0
  9 10  2  0
  2 11  1  0
 11 12  1  0
 12 13  2  0
 13 14  1  0
 14 15  2  0
 15 16  1  0
 16 17  2  0
 10  5  1  0
 17 12  1  0
  3 18  1  0
  4 19  1  0
  6 20  1  0
  7 21  1  0
  8 22  1  0
  9 23  1  0
 10 24  1  0
 11 25  1  0
 13 26  1  0
 14 27  1  0
 15 28  1  0
 16 29  1  0
 17 30  1  0
M  END
$$$$
