
     RDKit          3D

 36 38  0  0  0  0  0  0  0  0999 V2000
   -2.3295   -2.6079    0.5874 C   0  0  0  0  0  0  0  0  0  0  0  0
   -2.5430   -1.1240    0.4400 C   0  0  0  0  0  0  0  0  0  0  0  0
   -3.4513   -0.4144    1.1333 N   0  0  0  0  0  0  0  0  0  0  0  0
   -3.3555    0.8763    0.7385 C   0  0  0  0  0  0  0  0  0  0  0  0
   -4.0737    1.9667    1.1619 C   0  0  0  0  0  0  0  0  0  0  0  0
   -3.7832    3.1975    0.5968 C   0  0  0  0  0  0  0  0  0  0  0  0
   -2.7954    3.2967   -0.3624 C   0  0  0  0  0  0  0  0  0  0  0  0
   -2.0894    2.2029   -0.7735 C   0  0  0  0  0  0  0  0  0  0  0  0
   -2.3649    0.9533   -0.2181 C   0  0  0  0  0  0  0  0  0  0  0  0
   -1.8896   -0.2805   -0.3777 N   0  0  0  0  0  0  0  0  0  0  0  0
   -0.8485   -0.6764   -1.2707 C   0  0  0  0  0  0  0  0  0  0  0  0
    0.5081   -0.6095   -0.6614 C   0  0  0  0  0  0  0  0  0  0  0  0
    0.7083   -0.2041    0.6316 C   0  0  0  0  0  0  0  0  0  0  0  0
    1.9893   -0.1759    1.1004 C   0  0  0  0  0  0  0  0  0  0  0  0
    3.0689   -0.5415    0.3113 C   0  0  0  0  0  0  0  0  0  0  0  0
    4.4017   -0.4979    0.8427 C   0  0  0  0  0  0  0  0  0  0  0  0
    4.5838   -0.1267    2.0261 O   0  0  0  0  0  0  0  0  0  0  0  0
    5.5195   -0.8644    0.0624 N   0  0  0  0  0  0  0  0  0  0  0  0
    6.7685   -0.7962    0.6433 O   0  0  0  0  0  0  0  0  0  0  0  0
    2.8481   -0.9446   -0.9808 C   0  0  0  0  0  0  0  0  0  0  0  0
    1.5559   -0.9806   -1.4766 C   0  0  0  0  0  0  0  0  0  0  0  0
    1.3623   -1.3846   -2.7632 F   0  0  0  0  0  0  0  0  0  0  0  0
   -3.2070   -3.1527    0.1757 H   0  0  0  0  0  0  0  0  0  0  0  0
   -2.1622   -2.8379    1.6647 H   0  0  0  0  0  0  0  0  0  0  0  0
   -1.4577   -2.9123   -0.0270 H   0  0  0  0  0  0  0  0  0  0  0  0
   -4.8604    1.8912    1.9250 H   0  0  0  0  0  0  0  0  0  0  0  0
   -4.3050    4.0820    0.8827 H   0  0  0  0  0  0  0  0  0  0  0  0
   -2.5654    4.2517   -0.8053 H   0  0  0  0  0  0  0  0  0  0  0  0
   -1.2990    2.2362   -1.5301 H   0  0  0  0  0  0  0  0  0  0  0  0
   -0.9216   -0.0427   -2.1830 H   0  0  0  0  0  0  0  0  0  0  0  0
   -0.9756   -1.7307   -1.6306 H   0  0  0  0  0  0  0  0  0  0  0  0
   -0.1622    0.0711    1.2082 H   0  0  0  0  0  0  0  0  0  0  0  0
    2.1323    0.1513    2.1383 H   0  0  0  0  0  0  0  0  0  0  0  0
    5.4651   -1.1857   -0.9312 H   0  0  0  0  0  0  0  0  0  0  0  0
    6.8989    0.1636    0.8450 H   0  0  0  0  0  0  0  0  0  0  0  0
    3.6293   -1.2493   -1.6738 H   0  0  0  0  0  0  0  0  0  0  0  0
  1  2  1  0
  2  3  2  0
  3  4  1  0
  4  5  2  0
  5  6  1  0
  6  7  2  0
  7  8  1  0
  8  9  2  0
  9 10  1  0
 10 11  1  0
 11 12  1  0
 12 13  2  0
 13 14  1  0
 14 15  2  0
 15 16  1  0
 16 17  2  0
 16 18  1  0
 18 19  1  0
 15 20  1  0
 20 21  2  0
 21 22  1  0
 10  2  1  0
 21 12  1  0
  9  4  1  0
  1 23  1  0
  1 24  1  0
  1 25  1  0
  5 26  1  0
  6 27  1  0
  7 28  1  0
  8 29  1  0
 11 30  1  0
 11 31  1  0
 13 32  1  0
 14 33  1  0
 18 34  1  0
 19 35  1  0
 20 36  1  0
M  END
$$$$
