
     RDKit          3D

 32 34  0  0  0  0  0  0  0  0999 V2000
    1.6284   -0.9331    3.0971 O   0  0  0  0  0  0  0  0  0  0  0  0
    1.2978   -0.5958    1.9297 C   0  0  0  0  0  0  0  0  0  0  0  0
   -0.0485   -0.4731    1.5585 C   0  0  0  0  0  0  0  0  0  0  0  0
   -0.9627   -0.7480    2.5613 O   0  0  0  0  0  0  0  0  0  0  0  0
   -0.4346   -0.1122    0.3112 C   0  0  0  0  0  0  0  0  0  0  0  0
   -1.8184    0.0272   -0.1170 C   0  0  0  0  0  0  0  0  0  0  0  0
   -2.9203   -0.1797    0.6553 C   0  0  0  0  0  0  0  0  0  0  0  0
   -4.2177   -0.0155    0.1365 C   0  0  0  0  0  0  0  0  0  0  0  0
   -4.4206    0.3576   -1.1615 C   0  0  0  0  0  0  0  0  0  0  0  0
   -5.7015    0.5076   -1.6313 O   0  0  0  0  0  0  0  0  0  0  0  0
   -3.3337    0.5743   -1.9673 C   0  0  0  0  0  0  0  0  0  0  0  0
   -3.4982    0.9603   -3.3121 O   0  0  0  0  0  0  0  0  0  0  0  0
   -2.0744    0.4096   -1.4451 C   0  0  0  0  0  0  0  0  0  0  0  0
    0.5451    0.1260   -0.5658 O   0  0  0  0  0  0  0  0  0  0  0  0
    1.8131    0.0279   -0.2775 C   0  0  0  0  0  0  0  0  0  0  0  0
    2.7759    0.2964   -1.2599 C   0  0  0  0  0  0  0  0  0  0  0  0
    4.1264    0.2089   -1.0121 C   0  0  0  0  0  0  0  0  0  0  0  0
    5.0827    0.4751   -1.9863 O   0  0  0  0  0  0  0  0  0  0  0  0
    4.5154   -0.1588    0.2589 C   0  0  0  0  0  0  0  0  0  0  0  0
    3.5995   -0.4309    1.2520 C   0  0  0  0  0  0  0  0  0  0  0  0
    3.9724   -0.7985    2.5235 O   0  0  0  0  0  0  0  0  0  0  0  0
    2.2480   -0.3356    0.9770 C   0  0  0  0  0  0  0  0  0  0  0  0
   -0.8230   -1.5840    3.1072 H   0  0  0  0  0  0  0  0  0  0  0  0
   -2.8105   -0.4745    1.6830 H   0  0  0  0  0  0  0  0  0  0  0  0
   -5.0280   -0.1966    0.8060 H   0  0  0  0  0  0  0  0  0  0  0  0
   -6.5084    0.6997   -1.0538 H   0  0  0  0  0  0  0  0  0  0  0  0
   -3.8063    1.9386   -3.4209 H   0  0  0  0  0  0  0  0  0  0  0  0
   -1.1995    0.5775   -2.0711 H   0  0  0  0  0  0  0  0  0  0  0  0
    2.4257    0.5825   -2.2468 H   0  0  0  0  0  0  0  0  0  0  0  0
    5.6432   -0.3055   -2.3228 H   0  0  0  0  0  0  0  0  0  0  0  0
    5.5919   -0.2343    0.4764 H   0  0  0  0  0  0  0  0  0  0  0  0
    4.3407   -0.1931    3.2314 H   0  0  0  0  0  0  0  0  0  0  0  0
  1  2  2  0
  2  3  1  0
  3  4  1  0
  3  5  2  0
  5  6  1  0
  6  7  2  0
  7  8  1  0
  8  9  2  0
  9 10  1  0
  9 11  1  0
 11 12  1  0
 11 13  2  0
  5 14  1  0
 14 15  1  0
 15 16  2  0
 16 17  1  0
 17 18  1  0
 17 19  2  0
 19 20  1  0
 20 21  1  0
 20 22  2  0
 22  2  1  0
 13  6  1  0
 22 15  1  0
  4 23  1  0
  7 24  1  0
  8 25  1  0
 10 26  1  0
 12 27  1  0
 13 28  1  0
 16 29  1  0
 18 30  1  0
 19 31  1  0
 21 32  1  0
M  END
$$$$
