
     RDKit          3D

 77 80  0  0  0  0  0  0  0  0999 V2000
    0.0000    0.0000    0.0000 Zn  0  0  0  0  0 15  0  0  0  0  0  0
   -4.3785   -3.6189   -1.2587 C   0  0  0  0  0  0  0  0  0  0  0  0
   -4.4918   -4.9489   -1.8735 C   0  0  0  0  0  0  0  0  0  0  0  0
   -3.2332   -3.2009   -0.7115 C   0  0  0  0  0  0  0  0  0  0  0  0
   -2.0081   -3.8307   -0.5922 C   0  0  0  0  0  0  0  0  0  0  0  0
   -1.7715   -5.2327   -1.0913 C   0  0  0  0  0  0  0  0  0  0  0  0
   -1.1211   -2.9410    0.0484 C   0  0  0  0  0  0  0  0  0  0  0  0
   -1.7713   -1.7961    0.3208 N   0  0  0  0  0  2  0  0  0  0  0  0
   -3.0222   -1.9697   -0.1377 C   0  0  0  0  0  0  0  0  0  0  0  0
   -3.8528   -0.9619    0.0272 C   0  0  0  0  0  0  0  0  0  0  0  0
   -3.6127    0.3074    0.6244 C   0  0  0  0  0  0  0  0  0  0  0  0
   -4.3211    1.1086    1.4995 C   0  0  0  0  0  0  0  0  0  0  0  0
   -5.6259    0.7160    2.0520 C   0  0  0  0  0  0  0  0  0  0  0  0
   -3.5943    2.2862    1.7407 C   0  0  0  0  0  0  0  0  0  0  0  0
   -3.9650    3.2694    2.5374 C   0  0  0  0  0  0  0  0  0  0  0  0
   -3.2168    4.5180    2.8070 C   0  0  0  0  0  0  0  0  0  0  0  0
   -2.4693    2.1224    0.9814 C   0  0  0  0  0  0  0  0  0  0  0  0
   -2.4645    0.9521    0.3126 N   0  0  0  0  0  2  0  0  0  0  0  0
   -1.4189    2.8540    0.7377 C   0  0  0  0  0  0  0  0  0  0  0  0
   -0.2458    2.6163   -0.0860 C   0  0  0  0  0  0  0  0  0  0  0  0
    0.2416    3.2343   -1.2208 C   0  0  0  0  0  0  0  0  0  0  0  0
   -0.4790    4.3680   -1.8265 C   0  0  0  0  0  0  0  0  0  0  0  0
    1.3966    2.5530   -1.5141 C   0  0  0  0  0  0  0  0  0  0  0  0
    2.2950    2.8527   -2.6524 C   0  0  0  0  0  0  0  0  0  0  0  0
    3.0957    4.1044   -2.3155 C   0  0  0  0  0  0  0  0  0  0  0  0
    4.0312    4.5153   -3.3645 C   0  0  0  0  0  0  0  0  0  0  0  0
    4.7882    5.6524   -3.1356 O   0  0  0  0  0  0  0  0  0  0  0  0
    4.1690    3.8724   -4.4596 O   0  0  0  0  0  0  0  0  0  0  0  0
    1.6271    1.5511   -0.6077 C   0  0  0  0  0  0  0  0  0  0  0  0
    0.6026    1.6184    0.2517 N   0  0  0  0  0  2  0  0  0  0  0  0
    2.5826    0.5331   -0.3113 C   0  0  0  0  0  0  0  0  0  0  0  0
    2.4074   -0.7320   -0.0586 C   0  0  0  0  0  0  0  0  0  0  0  0
    1.1612   -1.2426   -0.0613 N   0  0  0  0  0  2  0  0  0  0  0  0
    1.3261   -2.5293    0.2648 C   0  0  0  0  0  0  0  0  0  0  0  0
    0.2640   -3.3048    0.3138 C   0  0  0  0  0  0  0  0  0  0  0  0
    2.6572   -2.8190    0.4687 C   0  0  0  0  0  0  0  0  0  0  0  0
    3.2801   -4.1185    0.8500 C   0  0  0  0  0  0  0  0  0  0  0  0
    3.3734   -1.6586    0.2612 C   0  0  0  0  0  0  0  0  0  0  0  0
    4.8241   -1.5089    0.3643 C   0  0  0  0  0  0  0  0  0  0  0  0
    5.2988   -0.8046    1.6163 C   0  0  0  0  0  0  0  0  0  0  0  0
    4.8688   -1.5251    2.8445 C   0  0  0  0  0  0  0  0  0  0  0  0
    5.6770   -1.9533    3.9207 O   0  0  0  0  0  0  0  0  0  0  0  0
    3.6751   -1.8703    3.1030 O   0  0  0  0  0  0  0  0  0  0  0  0
   -5.2346   -2.9187   -1.2255 H   0  0  0  0  0  0  0  0  0  0  0  0
   -5.4046   -4.8563   -2.5557 H   0  0  0  0  0  0  0  0  0  0  0  0
   -3.7204   -5.2095   -2.6149 H   0  0  0  0  0  0  0  0  0  0  0  0
   -4.8182   -5.7605   -1.2025 H   0  0  0  0  0  0  0  0  0  0  0  0
   -0.8478   -5.5827   -0.5187 H   0  0  0  0  0  0  0  0  0  0  0  0
   -1.4258   -5.2694   -2.1232 H   0  0  0  0  0  0  0  0  0  0  0  0
   -2.5088   -5.9586   -0.7586 H   0  0  0  0  0  0  0  0  0  0  0  0
   -4.8648   -1.0533   -0.3152 H   0  0  0  0  0  0  0  0  0  0  0  0
   -5.5153   -0.2409    2.6133 H   0  0  0  0  0  0  0  0  0  0  0  0
   -6.3550    0.5321    1.2406 H   0  0  0  0  0  0  0  0  0  0  0  0
   -6.0605    1.5027    2.6830 H   0  0  0  0  0  0  0  0  0  0  0  0
   -4.9172    3.1458    3.0412 H   0  0  0  0  0  0  0  0  0  0  0  0
   -3.7759    5.0861    3.6067 H   0  0  0  0  0  0  0  0  0  0  0  0
   -3.1431    5.2054    1.9567 H   0  0  0  0  0  0  0  0  0  0  0  0
   -2.2350    4.2975    3.3076 H   0  0  0  0  0  0  0  0  0  0  0  0
   -1.3642    3.8349    1.1846 H   0  0  0  0  0  0  0  0  0  0  0  0
   -0.0786    4.6042   -2.8232 H   0  0  0  0  0  0  0  0  0  0  0  0
   -0.4703    5.2614   -1.1576 H   0  0  0  0  0  0  0  0  0  0  0  0
   -1.5573    4.0639   -1.9843 H   0  0  0  0  0  0  0  0  0  0  0  0
    2.9449    2.0135   -2.8976 H   0  0  0  0  0  0  0  0  0  0  0  0
    1.6839    3.0920   -3.5498 H   0  0  0  0  0  0  0  0  0  0  0  0
    3.6025    3.8794   -1.3406 H   0  0  0  0  0  0  0  0  0  0  0  0
    2.4231    4.9521   -2.0913 H   0  0  0  0  0  0  0  0  0  0  0  0
    5.5171    5.9331   -3.7840 H   0  0  0  0  0  0  0  0  0  0  0  0
    3.5386    1.0282   -0.3445 H   0  0  0  0  0  0  0  0  0  0  0  0
    0.4779   -4.3483    0.6004 H   0  0  0  0  0  0  0  0  0  0  0  0
    4.3202   -4.0150    1.1516 H   0  0  0  0  0  0  0  0  0  0  0  0
    2.7422   -4.4780    1.7752 H   0  0  0  0  0  0  0  0  0  0  0  0
    3.0637   -4.8469    0.0715 H   0  0  0  0  0  0  0  0  0  0  0  0
    5.3653   -2.4815    0.3168 H   0  0  0  0  0  0  0  0  0  0  0  0
    5.2172   -0.9226   -0.5032 H   0  0  0  0  0  0  0  0  0  0  0  0
    4.8599    0.2005    1.6548 H   0  0  0  0  0  0  0  0  0  0  0  0
    6.4050   -0.8179    1.6097 H   0  0  0  0  0  0  0  0  0  0  0  0
    5.5569   -2.9100    4.3077 H   0  0  0  0  0  0  0  0  0  0  0  0
  2  3  1  0
  2  4  2  0
  4  5  1  0
  5  6  1  0
  5  7  2  0
  7  8  1  0
  8  9  1  0
  9 10  2  0
 10 11  1  0
 11 12  2  0
 12 13  1  0
 12 14  1  0
 14 15  2  0
 15 16  1  0
 14 17  1  0
 17 18  1  0
 17 19  2  0
 19 20  1  0
 20 21  2  0
 21 22  1  0
 21 23  1  0
 23 24  1  0
 24 25  1  0
 25 26  1  0
 26 27  1  0
 26 28  2  0
 23 29  2  0
 29 30  1  0
 29 31  1  0
 31 32  2  0
 32 33  1  0
 33 34  1  0
 34 35  2  0
 34 36  1  0
 36 37  1  0
 36 38  2  0
 38 39  1  0
 39 40  1  0
 40 41  1  0
 41 42  1  0
 41 43  2  0
  9  4  1  0
 18 11  1  0
 30 20  1  0
 38 32  1  0
 35  7  1  0
  2 44  1  0
  3 45  1  0
  3 46  1  0
  3 47  1  0
  6 48  1  0
  6 49  1  0
  6 50  1  0
 10 51  1  0
 13 52  1  0
 13 53  1  0
 13 54  1  0
 15 55  1  0
 16 56  1  0
 16 57  1  0
 16 58  1  0
 19 59  1  0
 22 60  1  0
 22 61  1  0
 22 62  1  0
 24 63  1  0
 24 64  1  0
 25 65  1  0
 25 66  1  0
 27 67  1  0
 31 68  1  0
 35 69  1  0
 37 70  1  0
 37 71  1  0
 37 72  1  0
 39 73  1  0
 39 74  1  0
 40 75  1  0
 40 76  1  0
 42 77  1  0
M  CHG  5   1   4   8  -1  18  -1  30  -1  33  -1
M  END
$$$$
