
     RDKit          3D

 64 69  0  0  0  0  0  0  0  0999 V2000
   10.7751    1.0926    1.3364 C   0  0  0  0  0  0  0  0  0  0  0  0
    9.6385    0.2681    1.4180 O   0  0  0  0  0  0  0  0  0  0  0  0
    8.4031    0.7089    1.0107 C   0  0  0  0  0  0  0  0  0  0  0  0
    8.2790    1.9824    0.5123 C   0  0  0  0  0  0  0  0  0  0  0  0
    7.0337    2.4447    0.0949 C   0  0  0  0  0  0  0  0  0  0  0  0
    5.9444    1.6043    0.1932 C   0  0  0  0  0  0  0  0  0  0  0  0
    4.6084    2.0512   -0.2298 C   0  0  0  0  0  0  0  0  0  0  0  0
    4.5014    3.1952   -0.6853 O   0  0  0  0  0  0  0  0  0  0  0  0
    3.4932    1.2043   -0.1176 N   0  0  0  0  0  0  0  0  0  0  0  0
    2.1603    1.4947   -0.4815 C   0  0  0  0  0  0  0  0  0  0  0  0
    1.7929    2.6709   -1.0742 C   0  0  0  0  0  0  0  0  0  0  0  0
    0.4622    2.9081   -1.3924 C   0  0  0  0  0  0  0  0  0  0  0  0
   -0.4947    1.9343   -1.1015 C   0  0  0  0  0  0  0  0  0  0  0  0
   -0.1657    0.7609   -0.5175 C   0  0  0  0  0  0  0  0  0  0  0  0
    1.1552    0.5490   -0.2119 C   0  0  0  0  0  0  0  0  0  0  0  0
   -1.1578   -0.2827   -0.2082 C   0  0  0  0  0  0  0  0  0  0  0  0
   -0.8252   -1.4494   -1.0804 C   0  0  0  0  0  0  0  0  0  0  0  0
    0.0137   -2.5290   -0.5647 C   0  0  0  0  0  0  0  0  0  0  0  0
    0.0190   -2.7933    1.1911 S   0  0  0  0  0  0  0  0  0  0  0  0
   -0.7300   -1.3626    1.9601 C   0  0  0  0  0  0  0  0  0  0  0  0
   -0.8377   -1.2865    3.3897 N   0  0  0  0  0  0  0  0  0  0  0  0
   -1.1370   -0.4653    1.1874 N   0  0  0  0  0  0  0  0  0  0  0  0
   -2.5403    0.1664   -0.6118 C   0  0  0  0  0  0  0  0  0  0  0  0
   -3.6056   -0.6972   -0.3790 C   0  0  0  0  0  0  0  0  0  0  0  0
   -4.8951   -0.3715   -0.7226 C   0  0  0  0  0  0  0  0  0  0  0  0
   -5.9644   -1.2586   -0.4623 N   0  0  0  0  0  0  0  0  0  0  0  0
   -7.2988   -1.1327   -0.9937 C   0  0  0  0  0  0  0  0  0  0  0  0
   -8.3740   -1.4890    0.0335 C   0  0  0  0  0  0  0  0  0  0  0  0
   -8.1018   -2.7887    0.5096 O   0  0  0  0  0  0  0  0  0  0  0  0
   -6.9310   -2.7656    1.2480 C   0  0  0  0  0  0  0  0  0  0  0  0
   -5.7183   -2.3946    0.4158 C   0  0  0  0  0  0  0  0  0  0  0  0
   -5.1272    0.8448   -1.3135 C   0  0  0  0  0  0  0  0  0  0  0  0
   -4.0890    1.7470   -1.5681 C   0  0  0  0  0  0  0  0  0  0  0  0
   -4.3262    2.9541   -2.1558 F   0  0  0  0  0  0  0  0  0  0  0  0
   -2.8088    1.3625   -1.1980 C   0  0  0  0  0  0  0  0  0  0  0  0
   -1.7816    2.2431   -1.4408 O   0  0  0  0  0  0  0  0  0  0  0  0
    6.0773    0.3673    0.6797 N   0  0  0  0  0  0  0  0  0  0  0  0
    7.2916   -0.0985    1.0921 C   0  0  0  0  0  0  0  0  0  0  0  0
   10.6250    1.9181    2.0727 H   0  0  0  0  0  0  0  0  0  0  0  0
   11.7009    0.5497    1.6130 H   0  0  0  0  0  0  0  0  0  0  0  0
   10.9390    1.5147    0.3241 H   0  0  0  0  0  0  0  0  0  0  0  0
    9.1269    2.6245    0.4406 H   0  0  0  0  0  0  0  0  0  0  0  0
    6.9375    3.4370   -0.2930 H   0  0  0  0  0  0  0  0  0  0  0  0
    3.7068    0.2386    0.2903 H   0  0  0  0  0  0  0  0  0  0  0  0
    2.5057    3.4717   -1.3294 H   0  0  0  0  0  0  0  0  0  0  0  0
    0.1838    3.8387   -1.8585 H   0  0  0  0  0  0  0  0  0  0  0  0
    1.5008   -0.3743    0.2664 H   0  0  0  0  0  0  0  0  0  0  0  0
   -0.3870   -1.0796   -2.0543 H   0  0  0  0  0  0  0  0  0  0  0  0
   -1.7964   -1.9130   -1.3918 H   0  0  0  0  0  0  0  0  0  0  0  0
   -0.2527   -3.5225   -1.0502 H   0  0  0  0  0  0  0  0  0  0  0  0
    1.0830   -2.3925   -0.9059 H   0  0  0  0  0  0  0  0  0  0  0  0
   -1.5062   -0.6532    3.8503 H   0  0  0  0  0  0  0  0  0  0  0  0
   -0.2267   -1.8840    3.9539 H   0  0  0  0  0  0  0  0  0  0  0  0
   -3.3576   -1.6395    0.0824 H   0  0  0  0  0  0  0  0  0  0  0  0
   -7.4435   -1.8913   -1.8067 H   0  0  0  0  0  0  0  0  0  0  0  0
   -7.5381   -0.1435   -1.3925 H   0  0  0  0  0  0  0  0  0  0  0  0
   -8.3525   -0.8246    0.9098 H   0  0  0  0  0  0  0  0  0  0  0  0
   -9.3299   -1.5184   -0.5082 H   0  0  0  0  0  0  0  0  0  0  0  0
   -7.0705   -2.0258    2.0879 H   0  0  0  0  0  0  0  0  0  0  0  0
   -6.7443   -3.7917    1.6470 H   0  0  0  0  0  0  0  0  0  0  0  0
   -5.4513   -3.2472   -0.2120 H   0  0  0  0  0  0  0  0  0  0  0  0
   -4.9177   -2.1666    1.1803 H   0  0  0  0  0  0  0  0  0  0  0  0
   -6.0977    1.1817   -1.6135 H   0  0  0  0  0  0  0  0  0  0  0  0
    7.4237   -1.0963    1.4892 H   0  0  0  0  0  0  0  0  0  0  0  0
  1  2  1  0
  2  3  1  0
  3  4  2  0
  4  5  1  0
  5  6  2  0
  6  7  1  0
  7  8  2  0
  7  9  1  0
  9 10  1  0
 10 11  2  0
 11 12  1  0
 12 13  2  0
 13 14  1  0
 14 15  2  0
 14 16  1  0
 16 17  1  0
 17 18  1  0
 18 19  1  0
 19 20  1  0
 20 21  1  0
 20 22  2  0
 16 23  1  0
 23 24  2  0
 24 25  1  0
 25 26  1  0
 26 27  1  0
 27 28  1  0
 28 29  1  0
 29 30  1  0
 30 31  1  0
 25 32  2  0
 32 33  1  0
 33 34  1  0
 33 35  2  0
 35 36  1  0
  6 37  1  0
 37 38  2  0
 38  3  1  0
 15 10  1  0
 22 16  1  0
 35 23  1  0
 36 13  1  0
 31 26  1  0
  1 39  1  0
  1 40  1  0
  1 41  1  0
  4 42  1  0
  5 43  1  0
  9 44  1  0
 11 45  1  0
 12 46  1  0
 15 47  1  0
 17 48  1  0
 17 49  1  0
 18 50  1  0
 18 51  1  0
 21 52  1  0
 21 53  1  0
 24 54  1  0
 27 55  1  0
 27 56  1  0
 28 57  1  0
 28 58  1  0
 30 59  1  0
 30 60  1  0
 31 61  1  0
 31 62  1  0
 32 63  1  0
 38 64  1  0
M  END
$$$$
