
     RDKit          3D

 53 55  0  0  0  0  0  0  0  0999 V2000
   -0.6965   -0.9927   -2.9499 C   0  0  0  0  0  0  0  0  0  0  0  0
   -0.9221   -1.0312   -1.5186 C   0  0  0  0  0  0  0  0  0  0  0  0
   -2.1936   -0.7272   -1.0200 C   0  0  0  0  0  0  0  0  0  0  0  0
   -2.4806   -0.7633    0.3148 C   0  0  0  0  0  0  0  0  0  0  0  0
   -3.7277   -0.4691    0.8513 O   0  0  0  0  0  0  0  0  0  0  0  0
   -4.7423   -0.1113   -0.0798 C   0  0  0  0  0  0  0  0  0  0  0  0
   -6.0269    0.1777    0.6048 C   0  0  0  0  0  0  0  0  0  0  0  0
   -6.4461    1.4789    0.7716 C   0  0  0  0  0  0  0  0  0  0  0  0
   -7.6289    1.8065    1.3994 C   0  0  0  0  0  0  0  0  0  0  0  0
   -8.4127    0.7781    1.8740 C   0  0  0  0  0  0  0  0  0  0  0  0
   -9.5893    1.0408    2.5016 F   0  0  0  0  0  0  0  0  0  0  0  0
   -8.0214   -0.5365    1.7230 C   0  0  0  0  0  0  0  0  0  0  0  0
   -6.8185   -0.8425    1.0832 C   0  0  0  0  0  0  0  0  0  0  0  0
   -6.4054   -2.1214    0.9185 F   0  0  0  0  0  0  0  0  0  0  0  0
   -1.4668   -1.1136    1.1709 C   0  0  0  0  0  0  0  0  0  0  0  0
   -1.7851   -1.1897    3.0602 Br  0  0  0  0  0  0  0  0  0  0  0  0
   -0.2045   -1.4152    0.6756 C   0  0  0  0  0  0  0  0  0  0  0  0
    0.6912   -1.7330    1.4976 O   0  0  0  0  0  0  0  0  0  0  0  0
    0.0488   -1.3679   -0.6688 N   0  0  0  0  0  0  0  0  0  0  0  0
    1.3550   -1.6827   -1.1173 C   0  0  0  0  0  0  0  0  0  0  0  0
    2.3102   -0.5435   -1.2119 C   0  0  0  0  0  0  0  0  0  0  0  0
    2.4652    0.2330   -2.3393 C   0  0  0  0  0  0  0  0  0  0  0  0
    3.3859    1.2786   -2.3393 C   0  0  0  0  0  0  0  0  0  0  0  0
    4.1680    1.5855   -1.2495 C   0  0  0  0  0  0  0  0  0  0  0  0
    4.0235    0.8174   -0.1183 C   0  0  0  0  0  0  0  0  0  0  0  0
    4.8371    1.0959    1.0916 C   0  0  0  0  0  0  0  0  0  0  0  0
    6.0790    0.3736    1.0911 N   0  0  0  0  0  0  0  0  0  0  0  0
    6.8878    0.6116    2.2418 C   0  0  0  0  0  0  0  0  0  0  0  0
    6.8028    0.4584   -0.1500 C   0  0  0  0  0  0  0  0  0  0  0  0
    3.0973   -0.2291   -0.1280 C   0  0  0  0  0  0  0  0  0  0  0  0
    0.0022   -1.6988   -3.3852 H   0  0  0  0  0  0  0  0  0  0  0  0
   -1.6853   -1.2252   -3.4543 H   0  0  0  0  0  0  0  0  0  0  0  0
   -0.5055    0.0664   -3.2392 H   0  0  0  0  0  0  0  0  0  0  0  0
   -2.9731   -0.4559   -1.7023 H   0  0  0  0  0  0  0  0  0  0  0  0
   -4.8788   -0.9675   -0.7995 H   0  0  0  0  0  0  0  0  0  0  0  0
   -4.4225    0.7474   -0.7170 H   0  0  0  0  0  0  0  0  0  0  0  0
   -5.8015    2.2565    0.3843 H   0  0  0  0  0  0  0  0  0  0  0  0
   -7.9204    2.8365    1.5098 H   0  0  0  0  0  0  0  0  0  0  0  0
   -8.6044   -1.3667    2.0795 H   0  0  0  0  0  0  0  0  0  0  0  0
    1.8115   -2.3921   -0.3568 H   0  0  0  0  0  0  0  0  0  0  0  0
    1.3949   -2.2762   -2.0556 H   0  0  0  0  0  0  0  0  0  0  0  0
    1.8893    0.0246   -3.2083 H   0  0  0  0  0  0  0  0  0  0  0  0
    3.4880    1.8791   -3.2485 H   0  0  0  0  0  0  0  0  0  0  0  0
    4.8755    2.3971   -1.2637 H   0  0  0  0  0  0  0  0  0  0  0  0
    4.2498    0.7280    1.9729 H   0  0  0  0  0  0  0  0  0  0  0  0
    4.9562    2.1935    1.2431 H   0  0  0  0  0  0  0  0  0  0  0  0
    7.3213    1.6252    2.3006 H   0  0  0  0  0  0  0  0  0  0  0  0
    7.7372   -0.1146    2.2172 H   0  0  0  0  0  0  0  0  0  0  0  0
    6.3077    0.3611    3.1555 H   0  0  0  0  0  0  0  0  0  0  0  0
    7.7589   -0.1191    0.0152 H   0  0  0  0  0  0  0  0  0  0  0  0
    6.2964   -0.0705   -0.9788 H   0  0  0  0  0  0  0  0  0  0  0  0
    7.0664    1.5001   -0.4228 H   0  0  0  0  0  0  0  0  0  0  0  0
    3.0526   -0.7948    0.7967 H   0  0  0  0  0  0  0  0  0  0  0  0
  1  2  1  0
  2  3  2  0
  3  4  1  0
  4  5  1  0
  5  6  1  0
  6  7  1  0
  7  8  2  0
  8  9  1  0
  9 10  2  0
 10 11  1  0
 10 12  1  0
 12 13  2  0
 13 14  1  0
  4 15  2  0
 15 16  1  0
 15 17  1  0
 17 18  2  0
 17 19  1  0
 19 20  1  0
 20 21  1  0
 21 22  2  0
 22 23  1  0
 23 24  2  0
 24 25  1  0
 25 26  1  0
 26 27  1  0
 27 28  1  0
 27 29  1  0
 25 30  2  0
 19  2  1  0
 30 21  1  0
 13  7  1  0
  1 31  1  0
  1 32  1  0
  1 33  1  0
  3 34  1  0
  6 35  1  0
  6 36  1  0
  8 37  1  0
  9 38  1  0
 12 39  1  0
 20 40  1  0
 20 41  1  0
 22 42  1  0
 23 43  1  0
 24 44  1  0
 26 45  1  0
 26 46  1  0
 28 47  1  0
 28 48  1  0
 28 49  1  0
 29 50  1  0
 29 51  1  0
 29 52  1  0
 30 53  1  0
M  END
$$$$
