
     RDKit          3D

 53 57  0  0  0  0  0  0  0  0999 V2000
    4.5618    1.3562   -2.0289 O   0  0  0  0  0  0  0  0  0  0  0  0
    4.5857    1.9248   -0.9122 C   0  0  0  0  0  0  0  0  0  0  0  0
    4.1880    1.2254    0.2538 N   0  0  0  0  0  0  0  0  0  0  0  0
    3.7488   -0.1274    0.2328 C   0  0  0  0  0  0  0  0  0  0  0  0
    4.5797   -1.1764    0.3757 N   0  0  0  0  0  0  0  0  0  0  0  0
    3.8322   -2.3113    0.3065 C   0  0  0  0  0  0  0  0  0  0  0  0
    4.1542   -3.6459    0.3883 C   0  0  0  0  0  0  0  0  0  0  0  0
    3.1747   -4.5833    0.2819 C   0  0  0  0  0  0  0  0  0  0  0  0
    1.8801   -4.2023    0.0951 C   0  0  0  0  0  0  0  0  0  0  0  0
    1.5625   -2.8611    0.0136 C   0  0  0  0  0  0  0  0  0  0  0  0
    0.1621   -2.4427   -0.1888 C   0  0  0  0  0  0  0  0  0  0  0  0
   -0.1805   -1.4658   -1.0997 C   0  0  0  0  0  0  0  0  0  0  0  0
   -1.5117   -1.0753   -1.2850 C   0  0  0  0  0  0  0  0  0  0  0  0
   -2.5044   -1.6654   -0.5551 C   0  0  0  0  0  0  0  0  0  0  0  0
   -3.9110   -1.2658   -0.7360 C   0  0  0  0  0  0  0  0  0  0  0  0
   -4.2159   -0.2131    0.1637 N   0  0  0  0  0  0  0  0  0  0  0  0
   -5.5162    0.3065    0.1406 C   0  0  0  0  0  0  0  0  0  0  0  0
   -5.6550    1.6812   -0.4647 C   0  0  0  0  0  0  0  0  0  0  0  0
   -4.7450    2.8064    0.6019 S   0  0  0  0  0  6  0  0  0  0  0  0
   -5.6362    3.4431    1.6071 O   0  0  0  0  0  0  0  0  0  0  0  0
   -4.0713    3.7978   -0.3016 O   0  0  0  0  0  0  0  0  0  0  0  0
   -3.4859    1.7885    1.3833 C   0  0  0  0  0  0  0  0  0  0  0  0
   -3.1524    0.6992    0.4218 C   0  0  0  0  0  0  0  0  0  0  0  0
   -2.1877   -2.6352    0.3527 C   0  0  0  0  0  0  0  0  0  0  0  0
   -0.8600   -3.0212    0.5341 C   0  0  0  0  0  0  0  0  0  0  0  0
    2.5482   -1.9654    0.1220 N   0  0  0  0  0  0  0  0  0  0  0  0
    2.5273   -0.6433    0.0815 N   0  0  0  0  0  0  0  0  0  0  0  0
    5.0334    3.3327   -0.8256 C   0  0  0  0  0  0  0  0  0  0  0  0
    5.8255    3.7207    0.3680 C   0  0  0  0  0  0  0  0  0  0  0  0
    4.4554    4.2418    0.2128 C   0  0  0  0  0  0  0  0  0  0  0  0
    4.2293    1.7568    1.1666 H   0  0  0  0  0  0  0  0  0  0  0  0
    5.1842   -3.9519    0.5371 H   0  0  0  0  0  0  0  0  0  0  0  0
    3.3730   -5.6609    0.3397 H   0  0  0  0  0  0  0  0  0  0  0  0
    1.0414   -4.8965    0.0009 H   0  0  0  0  0  0  0  0  0  0  0  0
    0.6278   -1.0142   -1.6656 H   0  0  0  0  0  0  0  0  0  0  0  0
   -1.6914   -0.3078   -2.0146 H   0  0  0  0  0  0  0  0  0  0  0  0
   -4.5451   -2.1487   -0.4421 H   0  0  0  0  0  0  0  0  0  0  0  0
   -4.1388   -1.0129   -1.8021 H   0  0  0  0  0  0  0  0  0  0  0  0
   -6.1787   -0.3785   -0.4404 H   0  0  0  0  0  0  0  0  0  0  0  0
   -5.9233    0.3691    1.1770 H   0  0  0  0  0  0  0  0  0  0  0  0
   -5.3074    1.7365   -1.5025 H   0  0  0  0  0  0  0  0  0  0  0  0
   -6.7233    1.9712   -0.3649 H   0  0  0  0  0  0  0  0  0  0  0  0
   -3.8999    1.3536    2.3222 H   0  0  0  0  0  0  0  0  0  0  0  0
   -2.5632    2.3758    1.5754 H   0  0  0  0  0  0  0  0  0  0  0  0
   -2.2595    0.0950    0.7487 H   0  0  0  0  0  0  0  0  0  0  0  0
   -2.8577    1.1799   -0.5397 H   0  0  0  0  0  0  0  0  0  0  0  0
   -2.9673   -3.0979    0.9251 H   0  0  0  0  0  0  0  0  0  0  0  0
   -0.6011   -3.7912    1.2537 H   0  0  0  0  0  0  0  0  0  0  0  0
    5.3321    3.8284   -1.7679 H   0  0  0  0  0  0  0  0  0  0  0  0
    6.0868    2.9150    1.0659 H   0  0  0  0  0  0  0  0  0  0  0  0
    6.6442    4.4868    0.2729 H   0  0  0  0  0  0  0  0  0  0  0  0
    3.6554    3.8486    0.8904 H   0  0  0  0  0  0  0  0  0  0  0  0
    4.2959    5.3206   -0.0127 H   0  0  0  0  0  0  0  0  0  0  0  0
  1  2  2  0
  2  3  1  0
  3  4  1  0
  4  5  1  0
  5  6  2  0
  6  7  1  0
  7  8  2  0
  8  9  1  0
  9 10  2  0
 10 11  1  0
 11 12  2  0
 12 13  1  0
 13 14  2  0
 14 15  1  0
 15 16  1  0
 16 17  1  0
 17 18  1  0
 18 19  1  0
 19 20  2  0
 19 21  2  0
 19 22  1  0
 22 23  1  0
 14 24  1  0
 24 25  2  0
 10 26  1  0
 26 27  1  0
  2 28  1  0
 28 29  1  0
 29 30  1  0
 27  4  2  0
 30 28  1  0
 26  6  1  0
 25 11  1  0
 23 16  1  0
  3 31  1  0
  7 32  1  0
  8 33  1  0
  9 34  1  0
 12 35  1  0
 13 36  1  0
 15 37  1  0
 15 38  1  0
 17 39  1  0
 17 40  1  0
 18 41  1  0
 18 42  1  0
 22 43  1  0
 22 44  1  0
 23 45  1  0
 23 46  1  0
 24 47  1  0
 25 48  1  0
 28 49  1  0
 29 50  1  0
 29 51  1  0
 30 52  1  0
 30 53  1  0
M  END
$$$$
