
     RDKit          3D

 27 29  0  0  0  0  0  0  0  0999 V2000
   -2.8303    2.1267    1.6381 O   0  0  0  0  0  0  0  0  0  0  0  0
   -2.7321    1.0838    0.9875 C   0  0  0  0  0  0  0  0  0  0  0  0
   -3.8737    0.2857    0.6489 N   0  0  0  0  0  0  0  0  0  0  0  0
   -3.6480   -1.1648    0.4947 C   0  0  0  0  0  0  0  0  0  0  0  0
   -2.6062   -1.3147   -0.5693 C   0  0  0  0  0  0  0  0  0  0  0  0
   -1.3769   -0.5760   -0.2099 C   0  0  0  0  0  0  0  0  0  0  0  0
   -0.0577   -0.7961   -0.4829 N   0  0  0  0  0  0  0  0  0  0  0  0
    0.7144    0.1656    0.0293 C   0  0  0  0  0  0  0  0  0  0  0  0
    2.1703    0.2785   -0.0532 C   0  0  0  0  0  0  0  0  0  0  0  0
    2.8553    1.3303    0.5236 C   0  0  0  0  0  0  0  0  0  0  0  0
    4.2188    1.4747    0.4701 C   0  0  0  0  0  0  0  0  0  0  0  0
    4.9286    0.5356   -0.1829 N   0  0  0  0  0  0  0  0  0  0  0  0
    4.3068   -0.5213   -0.7695 C   0  0  0  0  0  0  0  0  0  0  0  0
    2.9374   -0.6614   -0.7128 C   0  0  0  0  0  0  0  0  0  0  0  0
   -0.1373    1.0408    0.6578 C   0  0  0  0  0  0  0  0  0  0  0  0
   -1.4566    0.5846    0.5150 C   0  0  0  0  0  0  0  0  0  0  0  0
   -4.8152    0.6949    0.5187 H   0  0  0  0  0  0  0  0  0  0  0  0
   -3.2437   -1.5634    1.4688 H   0  0  0  0  0  0  0  0  0  0  0  0
   -4.5970   -1.6439    0.2656 H   0  0  0  0  0  0  0  0  0  0  0  0
   -2.3913   -2.3820   -0.8103 H   0  0  0  0  0  0  0  0  0  0  0  0
   -3.0517   -0.9134   -1.5300 H   0  0  0  0  0  0  0  0  0  0  0  0
    0.2708   -1.6169   -1.0228 H   0  0  0  0  0  0  0  0  0  0  0  0
    2.2728    2.0765    1.0444 H   0  0  0  0  0  0  0  0  0  0  0  0
    4.7130    2.3256    0.9431 H   0  0  0  0  0  0  0  0  0  0  0  0
    4.8895   -1.2885   -1.3033 H   0  0  0  0  0  0  0  0  0  0  0  0
    2.4308   -1.5100   -1.1830 H   0  0  0  0  0  0  0  0  0  0  0  0
    0.1093    1.9492    1.1916 H   0  0  0  0  0  0  0  0  0  0  0  0
  1  2  2  0
  2  3  1  0
  3  4  1  0
  4  5  1  0
  5  6  1  0
  6  7  1  0
  7  8  1  0
  8  9  1  0
  9 10  2  0
 10 11  1  0
 11 12  2  0
 12 13  1  0
 13 14  2  0
  8 15  2  0
 15 16  1  0
 16  2  1  0
 16  6  2  0
 14  9  1  0
  3 17  1  0
  4 18  1  0
  4 19  1  0
  5 20  1  0
  5 21  1  0
  7 22  1  0
 10 23  1  0
 11 24  1  0
 13 25  1  0
 14 26  1  0
 15 27  1  0
M  END
$$$$
