
     RDKit          3D

120122  0  0  0  0  0  0  0  0999 V2000
   -8.5970   -4.4830   -1.6884 C   0  0  0  0  0  0  0  0  0  0  0  0
   -9.3556   -3.2949   -2.1981 C   0  0  0  0  0  0  0  0  0  0  0  0
   -8.7934   -2.0340   -1.8234 N   0  0  0  0  0  0  0  0  0  0  0  0
   -9.6322   -0.9858   -2.3523 C   0  0  0  0  0  0  0  0  0  0  0  0
  -10.9875   -0.9851   -1.6293 C   0  0  0  0  0  0  0  0  0  0  0  0
   -7.4578   -1.8979   -2.2725 C   0  0  0  0  0  0  0  0  0  0  0  0
   -6.7742   -0.5978   -1.8702 C   0  0  0  0  0  0  0  0  0  0  0  0
   -6.7709   -0.5195   -0.3930 C   0  0  0  0  0  0  0  0  0  0  0  0
   -6.1474    0.6958    0.2313 C   0  0  0  0  0  0  0  0  0  0  0  0
   -4.7566    0.9833   -0.0362 C   0  0  2  0  0  0  0  0  0  0  0  0
   -3.9015   -0.1533    0.4048 N   0  0  0  0  0  0  0  0  0  0  0  0
   -2.5619   -0.2284    0.0886 C   0  0  0  0  0  0  0  0  0  0  0  0
   -2.0497    0.7383   -0.5962 O   0  0  0  0  0  0  0  0  0  0  0  0
   -1.6778   -1.3306    0.4841 C   0  0  2  0  0  0  0  0  0  0  0  0
   -1.9486   -1.9958    1.7633 C   0  0  0  0  0  0  0  0  0  0  0  0
   -1.0800   -3.1173    2.1807 C   0  0  0  0  0  0  0  0  0  0  0  0
    0.3619   -2.8558    2.4089 C   0  0  0  0  0  0  0  0  0  0  0  0
   -1.6635   -3.8298    3.3869 C   0  0  0  0  0  0  0  0  0  0  0  0
   -0.2832   -0.9226    0.3872 N   0  0  0  0  0  0  0  0  0  0  0  0
    0.2149    0.1212    1.1839 C   0  0  0  0  0  0  0  0  0  0  0  0
   -0.6192    0.6648    1.9910 O   0  0  0  0  0  0  0  0  0  0  0  0
    1.5655    0.6298    1.1724 C   0  0  2  0  0  0  0  0  0  0  0  0
    1.5795    2.1652    1.0348 C   0  0  0  0  0  0  0  0  0  0  0  0
    2.5013    0.0452    0.2672 N   0  0  0  0  0  0  0  0  0  0  0  0
    3.7823   -0.4084    0.6710 C   0  0  0  0  0  0  0  0  0  0  0  0
    4.0478   -0.2732    1.9188 O   0  0  0  0  0  0  0  0  0  0  0  0
    4.7923   -1.0032   -0.2524 C   0  0  2  0  0  0  0  0  0  0  0  0
    4.1678   -2.0464   -1.0864 C   0  0  0  0  0  0  0  0  0  0  0  0
    5.0682   -2.7136   -2.0275 C   0  0  0  0  0  0  0  0  0  0  0  0
    5.3350   -2.3054   -3.2883 C   0  0  0  0  0  0  0  0  0  0  0  0
    6.2049   -3.0084   -4.1142 C   0  0  0  0  0  0  0  0  0  0  0  0
    6.8174   -4.1417   -3.6644 C   0  0  0  0  0  0  0  0  0  0  0  0
    6.5614   -4.5803   -2.3810 C   0  0  0  0  0  0  0  0  0  0  0  0
    5.6942   -3.8758   -1.5631 C   0  0  0  0  0  0  0  0  0  0  0  0
    6.0029   -1.3420    0.4271 N   0  0  0  0  0  0  0  0  0  0  0  0
    7.0827   -0.4249    0.5098 C   0  0  0  0  0  0  0  0  0  0  0  0
    6.8957    0.7113   -0.0487 O   0  0  0  0  0  0  0  0  0  0  0  0
    8.3753   -0.7438    1.2088 C   0  0  0  0  0  0  0  0  0  0  0  0
    9.2654    0.4268    1.2248 C   0  0  0  0  0  0  0  0  0  0  0  0
    9.1234    1.2901    2.3173 C   0  0  0  0  0  0  0  0  0  0  0  0
    9.9331    2.4032    2.3889 C   0  0  0  0  0  0  0  0  0  0  0  0
   10.8479    2.6454    1.4092 C   0  0  0  0  0  0  0  0  0  0  0  0
   11.6482    3.7542    1.4901 C   0  0  0  0  0  0  0  0  0  0  0  0
   12.6029    4.0558    0.5237 C   0  0  0  0  0  0  0  0  0  0  0  0
   12.7399    3.2102   -0.5415 C   0  0  0  0  0  0  0  0  0  0  0  0
   11.9452    2.0724   -0.6617 C   0  0  0  0  0  0  0  0  0  0  0  0
   11.0252    1.8188    0.3086 C   0  0  0  0  0  0  0  0  0  0  0  0
   10.1980    0.7019    0.2561 C   0  0  0  0  0  0  0  0  0  0  0  0
   -4.1995    2.2328    0.4939 C   0  0  0  0  0  0  0  0  0  0  0  0
   -3.2099    2.1385    1.2759 O   0  0  0  0  0  0  0  0  0  0  0  0
   -4.6407    3.5345    0.2221 N   0  0  0  0  0  0  0  0  0  0  0  0
   -3.9998    4.7109    0.7739 C   0  0  1  0  0  0  0  0  0  0  0  0
   -3.3948    5.4485   -0.4270 C   0  0  0  0  0  0  0  0  0  0  0  0
   -2.4849    4.6606   -1.1134 O   0  0  0  0  0  0  0  0  0  0  0  0
   -4.8894    5.6006    1.5338 C   0  0  0  0  0  0  0  0  0  0  0  0
   -4.4174    6.6520    2.0529 O   0  0  0  0  0  0  0  0  0  0  0  0
   -6.2411    5.2645    1.6697 O   0  0  0  0  0  0  0  0  0  0  0  0
   -7.0280    6.1730    2.4393 C   0  0  0  0  0  0  0  0  0  0  0  0
   -7.8541   -4.8762   -2.4097 H   0  0  0  0  0  0  0  0  0  0  0  0
   -8.1558   -4.3173   -0.6640 H   0  0  0  0  0  0  0  0  0  0  0  0
   -9.3415   -5.3190   -1.5407 H   0  0  0  0  0  0  0  0  0  0  0  0
   -9.4430   -3.4388   -3.3169 H   0  0  0  0  0  0  0  0  0  0  0  0
  -10.4133   -3.3840   -1.8253 H   0  0  0  0  0  0  0  0  0  0  0  0
   -9.8554   -1.1012   -3.4474 H   0  0  0  0  0  0  0  0  0  0  0  0
   -9.1665    0.0300   -2.2850 H   0  0  0  0  0  0  0  0  0  0  0  0
  -11.7974   -1.3926   -2.2737 H   0  0  0  0  0  0  0  0  0  0  0  0
  -10.9146   -1.6362   -0.7396 H   0  0  0  0  0  0  0  0  0  0  0  0
  -11.1877    0.0345   -1.2997 H   0  0  0  0  0  0  0  0  0  0  0  0
   -7.4609   -1.8964   -3.3998 H   0  0  0  0  0  0  0  0  0  0  0  0
   -6.8036   -2.7159   -1.8926 H   0  0  0  0  0  0  0  0  0  0  0  0
   -5.6921   -0.7801   -2.1777 H   0  0  0  0  0  0  0  0  0  0  0  0
   -7.1959    0.2515   -2.4044 H   0  0  0  0  0  0  0  0  0  0  0  0
   -7.8458   -0.6214   -0.0475 H   0  0  0  0  0  0  0  0  0  0  0  0
   -6.3086   -1.4778   -0.0133 H   0  0  0  0  0  0  0  0  0  0  0  0
   -6.8644    1.5318    0.0302 H   0  0  0  0  0  0  0  0  0  0  0  0
   -6.3156    0.5449    1.3490 H   0  0  0  0  0  0  0  0  0  0  0  0
   -4.5234    1.0451   -1.1219 H   0  0  0  0  0  0  0  0  0  0  0  0
   -4.3764   -0.8826    0.9588 H   0  0  0  0  0  0  0  0  0  0  0  0
   -1.8211   -2.1105   -0.3328 H   0  0  0  0  0  0  0  0  0  0  0  0
   -3.0116   -2.4104    1.8099 H   0  0  0  0  0  0  0  0  0  0  0  0
   -1.9721   -1.2635    2.6356 H   0  0  0  0  0  0  0  0  0  0  0  0
   -1.1941   -3.8982    1.3375 H   0  0  0  0  0  0  0  0  0  0  0  0
    0.8437   -3.7235    2.9734 H   0  0  0  0  0  0  0  0  0  0  0  0
    0.9059   -2.8775    1.4422 H   0  0  0  0  0  0  0  0  0  0  0  0
    0.5839   -1.9920    3.0368 H   0  0  0  0  0  0  0  0  0  0  0  0
   -0.9105   -4.5649    3.7800 H   0  0  0  0  0  0  0  0  0  0  0  0
   -1.7871   -3.0673    4.1868 H   0  0  0  0  0  0  0  0  0  0  0  0
   -2.6176   -4.3409    3.1299 H   0  0  0  0  0  0  0  0  0  0  0  0
    0.3189   -1.4121   -0.2881 H   0  0  0  0  0  0  0  0  0  0  0  0
    2.0092    0.4893    2.2108 H   0  0  0  0  0  0  0  0  0  0  0  0
    0.8766    2.3618    0.2031 H   0  0  0  0  0  0  0  0  0  0  0  0
    1.1531    2.5764    1.9472 H   0  0  0  0  0  0  0  0  0  0  0  0
    2.5577    2.5547    0.7504 H   0  0  0  0  0  0  0  0  0  0  0  0
    2.2401   -0.0574   -0.7318 H   0  0  0  0  0  0  0  0  0  0  0  0
    5.0568   -0.1199   -0.9243 H   0  0  0  0  0  0  0  0  0  0  0  0
    3.5895   -2.8049   -0.4815 H   0  0  0  0  0  0  0  0  0  0  0  0
    3.3759   -1.5377   -1.7096 H   0  0  0  0  0  0  0  0  0  0  0  0
    4.8831   -1.4248   -3.6900 H   0  0  0  0  0  0  0  0  0  0  0  0
    6.4281   -2.6901   -5.1340 H   0  0  0  0  0  0  0  0  0  0  0  0
    7.4971   -4.6780   -4.3297 H   0  0  0  0  0  0  0  0  0  0  0  0
    7.0564   -5.4857   -2.0405 H   0  0  0  0  0  0  0  0  0  0  0  0
    5.5224   -4.2489   -0.5649 H   0  0  0  0  0  0  0  0  0  0  0  0
    6.0979   -2.2814    0.8761 H   0  0  0  0  0  0  0  0  0  0  0  0
    8.9268   -1.5404    0.6213 H   0  0  0  0  0  0  0  0  0  0  0  0
    8.1370   -1.1772    2.1792 H   0  0  0  0  0  0  0  0  0  0  0  0
    8.4061    1.0931    3.0962 H   0  0  0  0  0  0  0  0  0  0  0  0
    9.8144    3.0709    3.2383 H   0  0  0  0  0  0  0  0  0  0  0  0
   11.5713    4.4403    2.3088 H   0  0  0  0  0  0  0  0  0  0  0  0
   13.2108    4.9483    0.6393 H   0  0  0  0  0  0  0  0  0  0  0  0
   13.4720    3.3988   -1.3215 H   0  0  0  0  0  0  0  0  0  0  0  0
   12.0575    1.4046   -1.5129 H   0  0  0  0  0  0  0  0  0  0  0  0
   10.3149    0.0391   -0.5939 H   0  0  0  0  0  0  0  0  0  0  0  0
   -5.4559    3.6612   -0.3935 H   0  0  0  0  0  0  0  0  0  0  0  0
   -3.1769    4.3862    1.4506 H   0  0  0  0  0  0  0  0  0  0  0  0
   -2.9332    6.3891   -0.0634 H   0  0  0  0  0  0  0  0  0  0  0  0
   -4.2044    5.7437   -1.1333 H   0  0  0  0  0  0  0  0  0  0  0  0
   -1.5534    4.9028   -0.8779 H   0  0  0  0  0  0  0  0  0  0  0  0
   -8.0837    6.1481    2.1891 H   0  0  0  0  0  0  0  0  0  0  0  0
   -6.6009    7.1995    2.3506 H   0  0  0  0  0  0  0  0  0  0  0  0
   -6.8850    5.8499    3.5038 H   0  0  0  0  0  0  0  0  0  0  0  0
  1  2  1  0
  2  3  1  0
  3  4  1  0
  4  5  1  0
  3  6  1  0
  6  7  1  0
  7  8  1  0
  8  9  1  0
  9 10  1  0
 10 11  1  0
 11 12  1  0
 12 13  2  0
 12 14  1  0
 14 15  1  0
 15 16  1  0
 16 17  1  0
 16 18  1  0
 14 19  1  0
 19 20  1  0
 20 21  2  0
 20 22  1  0
 22 23  1  0
 22 24  1  0
 24 25  1  0
 25 26  2  0
 25 27  1  0
 27 28  1  0
 28 29  1  0
 29 30  2  0
 30 31  1  0
 31 32  2  0
 32 33  1  0
 33 34  2  0
 27 35  1  0
 35 36  1  0
 36 37  2  0
 36 38  1  0
 38 39  1  0
 39 40  2  0
 40 41  1  0
 41 42  2  0
 42 43  1  0
 43 44  2  0
 44 45  1  0
 45 46  2  0
 46 47  1  0
 47 48  2  0
 10 49  1  0
 49 50  2  0
 49 51  1  0
 51 52  1  0
 52 53  1  0
 53 54  1  0
 52 55  1  0
 55 56  2  0
 55 57  1  0
 57 58  1  0
 34 29  1  0
 48 39  1  0
 47 42  1  0
  1 59  1  0
  1 60  1  0
  1 61  1  0
  2 62  1  0
  2 63  1  0
  4 64  1  0
  4 65  1  0
  5 66  1  0
  5 67  1  0
  5 68  1  0
  6 69  1  0
  6 70  1  0
  7 71  1  0
  7 72  1  0
  8 73  1  0
  8 74  1  0
  9 75  1  0
  9 76  1  0
 10 77  1  6
 11 78  1  0
 14 79  1  6
 15 80  1  0
 15 81  1  0
 16 82  1  0
 17 83  1  0
 17 84  1  0
 17 85  1  0
 18 86  1  0
 18 87  1  0
 18 88  1  0
 19 89  1  0
 22 90  1  1
 23 91  1  0
 23 92  1  0
 23 93  1  0
 24 94  1  0
 27 95  1  6
 28 96  1  0
 28 97  1  0
 30 98  1  0
 31 99  1  0
 32100  1  0
 33101  1  0
 34102  1  0
 35103  1  0
 38104  1  0
 38105  1  0
 40106  1  0
 41107  1  0
 43108  1  0
 44109  1  0
 45110  1  0
 46111  1  0
 48112  1  0
 51113  1  0
 52114  1  1
 53115  1  0
 53116  1  0
 54117  1  0
 58118  1  0
 58119  1  0
 58120  1  0
M  END
$$$$
