
     RDKit          3D

 66 69  0  0  0  0  0  0  0  0999 V2000
    6.3566    0.6774   -2.0443 C   0  0  0  0  0  0  0  0  0  0  0  0
    5.1941    0.5251   -2.9566 C   0  0  0  0  0  0  0  0  0  0  0  0
    3.9359    0.5025   -2.3399 O   0  0  0  0  0  0  0  0  0  0  0  0
    3.6084   -0.4540   -1.4080 C   0  0  0  0  0  0  0  0  0  0  0  0
    4.7698   -0.9184   -1.5857 O   0  0  0  0  0  0  0  0  0  0  0  0
    2.5835   -0.9894   -0.4853 C   0  0  0  0  0  0  0  0  0  0  0  0
    2.1833    0.0267    0.5550 C   0  0  0  0  0  0  0  0  0  0  0  0
    1.0054    0.8707    0.0480 C   0  0  0  0  0  0  0  0  0  0  0  0
   -0.1359    0.0512   -0.2075 N   0  0  0  0  0  0  0  0  0  0  0  0
   -1.1561    0.5315   -1.0297 C   0  0  0  0  0  0  0  0  0  0  0  0
   -2.0012    1.6487   -0.5793 C   0  0  0  0  0  0  0  0  0  0  0  0
   -2.7635    1.3425    0.6727 C   0  0  0  0  0  0  0  0  0  0  0  0
   -1.7856    1.0231    1.7442 C   0  0  0  0  0  0  0  0  0  0  0  0
   -1.0106    0.7884    2.6022 N   0  0  0  0  0  0  0  0  0  0  0  0
   -3.4614    2.6364    1.0433 C   0  0  0  0  0  0  0  0  0  0  0  0
   -4.6425    2.9478    0.3645 C   0  0  0  0  0  0  0  0  0  0  0  0
   -5.1771    4.1670    0.7781 C   0  0  0  0  0  0  0  0  0  0  0  0
   -4.6625    5.0137    1.7314 C   0  0  0  0  0  0  0  0  0  0  0  0
   -3.4931    4.6167    2.3451 C   0  0  0  0  0  0  0  0  0  0  0  0
   -2.8777    3.4359    2.0168 C   0  0  0  0  0  0  0  0  0  0  0  0
   -3.7056    0.2337    0.6076 C   0  0  0  0  0  0  0  0  0  0  0  0
   -4.0331   -0.4503    1.7788 C   0  0  0  0  0  0  0  0  0  0  0  0
   -4.9328   -1.5091    1.7575 C   0  0  0  0  0  0  0  0  0  0  0  0
   -5.5271   -1.9142    0.5850 C   0  0  0  0  0  0  0  0  0  0  0  0
   -5.2343   -1.2683   -0.6002 C   0  0  0  0  0  0  0  0  0  0  0  0
   -4.3371   -0.2225   -0.5367 C   0  0  0  0  0  0  0  0  0  0  0  0
    0.1763   -1.3524   -0.3506 C   0  0  0  0  0  0  0  0  0  0  0  0
    1.3599   -1.4290   -1.2927 C   0  0  0  0  0  0  0  0  0  0  0  0
    3.1397   -2.1820    0.1716 C   0  0  0  0  0  0  0  0  0  0  0  0
    3.2440   -2.6441    1.4631 C   0  0  0  0  0  0  0  0  0  0  0  0
    3.8162   -3.8549    1.7779 C   0  0  0  0  0  0  0  0  0  0  0  0
    4.3288   -4.6919    0.8097 C   0  0  0  0  0  0  0  0  0  0  0  0
    4.2448   -4.2616   -0.5207 C   0  0  0  0  0  0  0  0  0  0  0  0
    3.6665   -3.0475   -0.7999 C   0  0  0  0  0  0  0  0  0  0  0  0
    6.9603    1.5499   -2.3747 H   0  0  0  0  0  0  0  0  0  0  0  0
    7.0617   -0.1864   -2.1096 H   0  0  0  0  0  0  0  0  0  0  0  0
    6.0749    0.9051   -1.0006 H   0  0  0  0  0  0  0  0  0  0  0  0
    5.1568    1.4084   -3.6526 H   0  0  0  0  0  0  0  0  0  0  0  0
    5.3225   -0.3806   -3.5892 H   0  0  0  0  0  0  0  0  0  0  0  0
    3.0183    0.7195    0.7203 H   0  0  0  0  0  0  0  0  0  0  0  0
    1.8399   -0.4188    1.4884 H   0  0  0  0  0  0  0  0  0  0  0  0
    1.3464    1.3010   -0.9160 H   0  0  0  0  0  0  0  0  0  0  0  0
    0.8819    1.6925    0.7565 H   0  0  0  0  0  0  0  0  0  0  0  0
   -1.8301   -0.3382   -1.2695 H   0  0  0  0  0  0  0  0  0  0  0  0
   -0.7267    0.8204   -2.0274 H   0  0  0  0  0  0  0  0  0  0  0  0
   -1.4613    2.5977   -0.3852 H   0  0  0  0  0  0  0  0  0  0  0  0
   -2.7299    1.8936   -1.3930 H   0  0  0  0  0  0  0  0  0  0  0  0
   -5.0845    2.3176   -0.3850 H   0  0  0  0  0  0  0  0  0  0  0  0
   -6.1094    4.4849    0.2908 H   0  0  0  0  0  0  0  0  0  0  0  0
   -5.1035    5.9333    2.0157 H   0  0  0  0  0  0  0  0  0  0  0  0
   -2.9695    5.1672    3.1090 H   0  0  0  0  0  0  0  0  0  0  0  0
   -1.9485    3.0728    2.4765 H   0  0  0  0  0  0  0  0  0  0  0  0
   -3.5611   -0.1265    2.7115 H   0  0  0  0  0  0  0  0  0  0  0  0
   -5.1209   -1.9730    2.7125 H   0  0  0  0  0  0  0  0  0  0  0  0
   -6.2267   -2.7429    0.5768 H   0  0  0  0  0  0  0  0  0  0  0  0
   -5.6706   -1.5405   -1.5693 H   0  0  0  0  0  0  0  0  0  0  0  0
   -4.1224    0.2739   -1.4695 H   0  0  0  0  0  0  0  0  0  0  0  0
   -0.7071   -1.8899   -0.7508 H   0  0  0  0  0  0  0  0  0  0  0  0
    0.5224   -1.7878    0.6231 H   0  0  0  0  0  0  0  0  0  0  0  0
    1.4920   -2.4298   -1.7248 H   0  0  0  0  0  0  0  0  0  0  0  0
    1.2429   -0.6397   -2.0680 H   0  0  0  0  0  0  0  0  0  0  0  0
    2.8348   -1.9564    2.1735 H   0  0  0  0  0  0  0  0  0  0  0  0
    3.8063   -4.0493    2.8570 H   0  0  0  0  0  0  0  0  0  0  0  0
    4.7594   -5.6233    1.1527 H   0  0  0  0  0  0  0  0  0  0  0  0
    4.6728   -4.9833   -1.1999 H   0  0  0  0  0  0  0  0  0  0  0  0
    3.7028   -2.9207   -1.8949 H   0  0  0  0  0  0  0  0  0  0  0  0
  1  2  1  0
  2  3  1  0
  3  4  1  0
  4  5  2  0
  4  6  1  0
  6  7  1  0
  7  8  1  0
  8  9  1  0
  9 10  1  0
 10 11  1  0
 11 12  1  0
 12 13  1  0
 13 14  3  0
 12 15  1  0
 15 16  2  0
 16 17  1  0
 17 18  2  0
 18 19  1  0
 19 20  2  0
 12 21  1  0
 21 22  2  0
 22 23  1  0
 23 24  2  0
 24 25  1  0
 25 26  2  0
  9 27  1  0
 27 28  1  0
  6 29  1  0
 29 30  2  0
 30 31  1  0
 31 32  2  0
 32 33  1  0
 33 34  2  0
 28  6  1  0
 34 29  1  0
 20 15  1  0
 26 21  1  0
  1 35  1  0
  1 36  1  0
  1 37  1  0
  2 38  1  0
  2 39  1  0
  7 40  1  0
  7 41  1  0
  8 42  1  0
  8 43  1  0
 10 44  1  0
 10 45  1  0
 11 46  1  0
 11 47  1  0
 16 48  1  0
 17 49  1  0
 18 50  1  0
 19 51  1  0
 20 52  1  0
 22 53  1  0
 23 54  1  0
 24 55  1  0
 25 56  1  0
 26 57  1  0
 27 58  1  0
 27 59  1  0
 28 60  1  0
 28 61  1  0
 30 62  1  0
 31 63  1  0
 32 64  1  0
 33 65  1  0
 34 66  1  0
M  END
$$$$
