
     RDKit          3D

 71 72  0  0  0  0  0  0  0  0999 V2000
   -3.3221    2.5008   -4.4594 C   0  0  0  0  0  0  0  0  0  0  0  0
   -4.0940    2.5308   -3.2822 O   0  0  0  0  0  0  0  0  0  0  0  0
   -4.0403    1.4945   -2.3531 C   0  0  0  0  0  0  0  0  0  0  0  0
   -3.2597    0.3951   -2.4898 C   0  0  0  0  0  0  0  0  0  0  0  0
   -3.2288   -0.6364   -1.5381 C   0  0  0  0  0  0  0  0  0  0  0  0
   -3.9973   -0.5809   -0.4108 C   0  0  0  0  0  0  0  0  0  0  0  0
   -4.0768   -1.6138    0.6265 C   0  0  0  0  0  0  0  0  0  0  0  0
   -3.2889   -1.4691    1.8589 C   0  0  0  0  0  0  0  0  0  0  0  0
   -1.8851   -1.5113    1.7259 N   0  0  0  0  0  0  0  0  0  0  0  0
   -1.2085   -1.1937    2.9675 C   0  0  0  0  0  0  0  0  0  0  0  0
   -1.3625   -2.6395    1.0332 C   0  0  0  0  0  0  0  0  0  0  0  0
    0.1533   -2.7914    1.0957 C   0  0  0  0  0  0  0  0  0  0  0  0
    0.8700   -1.6240    0.5634 C   0  0  0  0  0  0  0  0  0  0  0  0
    2.3524   -1.5888    0.5196 C   0  0  0  0  0  0  0  0  0  0  0  0
    2.8235   -2.6479   -0.3101 C   0  0  0  0  0  0  0  0  0  0  0  0
    3.2541   -3.5744   -1.0588 N   0  0  0  0  0  0  0  0  0  0  0  0
    2.8505   -0.3034   -0.0942 C   0  0  0  0  0  0  0  0  0  0  0  0
    3.0534   -0.2238   -1.4498 C   0  0  0  0  0  0  0  0  0  0  0  0
    3.5422    0.9220   -2.0551 C   0  0  0  0  0  0  0  0  0  0  0  0
    3.8511    2.0445   -1.3149 C   0  0  0  0  0  0  0  0  0  0  0  0
    4.3484    3.2034   -1.9269 O   0  0  0  0  0  0  0  0  0  0  0  0
    4.5224    3.1595   -3.3497 C   0  0  0  0  0  0  0  0  0  0  0  0
    3.6491    1.9696    0.0538 C   0  0  0  0  0  0  0  0  0  0  0  0
    3.9537    3.0813    0.8181 O   0  0  0  0  0  0  0  0  0  0  0  0
    3.7776    3.0839    2.2231 C   0  0  0  0  0  0  0  0  0  0  0  0
    3.1566    0.8146    0.6463 C   0  0  0  0  0  0  0  0  0  0  0  0
    3.0329   -1.8026    1.8626 C   0  0  0  0  0  0  0  0  0  0  0  0
    2.8150   -3.1608    2.4541 C   0  0  0  0  0  0  0  0  0  0  0  0
    4.4945   -1.5283    1.8382 C   0  0  0  0  0  0  0  0  0  0  0  0
   -4.8053    0.5651   -0.2711 C   0  0  0  0  0  0  0  0  0  0  0  0
   -4.8528    1.5877   -1.1879 C   0  0  0  0  0  0  0  0  0  0  0  0
   -5.5935    2.6665   -1.0799 O   0  0  0  0  0  0  0  0  0  0  0  0
   -6.4641    3.3461   -0.2974 C   0  0  0  0  0  0  0  0  0  0  0  0
   -3.1641    1.5030   -4.8868 H   0  0  0  0  0  0  0  0  0  0  0  0
   -3.7860    3.1916   -5.2120 H   0  0  0  0  0  0  0  0  0  0  0  0
   -2.3090    2.9685   -4.2733 H   0  0  0  0  0  0  0  0  0  0  0  0
   -2.6211    0.2910   -3.3660 H   0  0  0  0  0  0  0  0  0  0  0  0
   -2.5875   -1.4923   -1.7216 H   0  0  0  0  0  0  0  0  0  0  0  0
   -3.8618   -2.6010    0.0909 H   0  0  0  0  0  0  0  0  0  0  0  0
   -5.1675   -1.7811    0.9226 H   0  0  0  0  0  0  0  0  0  0  0  0
   -3.5173   -0.4808    2.3858 H   0  0  0  0  0  0  0  0  0  0  0  0
   -3.6075   -2.2717    2.6161 H   0  0  0  0  0  0  0  0  0  0  0  0
   -0.5022   -1.9068    3.3433 H   0  0  0  0  0  0  0  0  0  0  0  0
   -2.0299   -1.1090    3.7458 H   0  0  0  0  0  0  0  0  0  0  0  0
   -0.8519   -0.1342    2.8821 H   0  0  0  0  0  0  0  0  0  0  0  0
   -1.8331   -3.5531    1.4684 H   0  0  0  0  0  0  0  0  0  0  0  0
   -1.6621   -2.6206   -0.0143 H   0  0  0  0  0  0  0  0  0  0  0  0
    0.4230   -3.1122    2.1342 H   0  0  0  0  0  0  0  0  0  0  0  0
    0.4045   -3.6818    0.4826 H   0  0  0  0  0  0  0  0  0  0  0  0
    0.4651   -0.6909    1.0487 H   0  0  0  0  0  0  0  0  0  0  0  0
    0.5509   -1.5532   -0.5532 H   0  0  0  0  0  0  0  0  0  0  0  0
    2.8092   -1.1134   -2.0473 H   0  0  0  0  0  0  0  0  0  0  0  0
    3.6874    0.9440   -3.1352 H   0  0  0  0  0  0  0  0  0  0  0  0
    5.1357    2.2603   -3.6468 H   0  0  0  0  0  0  0  0  0  0  0  0
    4.9696    4.0946   -3.7268 H   0  0  0  0  0  0  0  0  0  0  0  0
    3.5403    3.0299   -3.8407 H   0  0  0  0  0  0  0  0  0  0  0  0
    4.4013    3.8945    2.7010 H   0  0  0  0  0  0  0  0  0  0  0  0
    4.0871    2.1534    2.7050 H   0  0  0  0  0  0  0  0  0  0  0  0
    2.6990    3.2554    2.5087 H   0  0  0  0  0  0  0  0  0  0  0  0
    2.9993    0.7679    1.7274 H   0  0  0  0  0  0  0  0  0  0  0  0
    2.5607   -1.0413    2.5437 H   0  0  0  0  0  0  0  0  0  0  0  0
    2.5109   -3.8214    1.6221 H   0  0  0  0  0  0  0  0  0  0  0  0
    3.8684   -3.5899    2.7124 H   0  0  0  0  0  0  0  0  0  0  0  0
    2.2207   -3.2085    3.3652 H   0  0  0  0  0  0  0  0  0  0  0  0
    5.0358   -2.5038    1.7815 H   0  0  0  0  0  0  0  0  0  0  0  0
    4.8528   -0.8010    1.1114 H   0  0  0  0  0  0  0  0  0  0  0  0
    4.7814   -1.1225    2.8566 H   0  0  0  0  0  0  0  0  0  0  0  0
   -5.4279    0.6209    0.6417 H   0  0  0  0  0  0  0  0  0  0  0  0
   -7.4753    3.5543   -0.7070 H   0  0  0  0  0  0  0  0  0  0  0  0
   -6.6234    2.8503    0.7079 H   0  0  0  0  0  0  0  0  0  0  0  0
   -5.9966    4.3358   -0.0101 H   0  0  0  0  0  0  0  0  0  0  0  0
  1  2  1  0
  2  3  1  0
  3  4  2  0
  4  5  1  0
  5  6  2  0
  6  7  1  0
  7  8  1  0
  8  9  1  0
  9 10  1  0
  9 11  1  0
 11 12  1  0
 12 13  1  0
 13 14  1  0
 14 15  1  0
 15 16  3  0
 14 17  1  0
 17 18  2  0
 18 19  1  0
 19 20  2  0
 20 21  1  0
 21 22  1  0
 20 23  1  0
 23 24  1  0
 24 25  1  0
 23 26  2  0
 14 27  1  0
 27 28  1  0
 27 29  1  0
  6 30  1  0
 30 31  2  0
 31 32  1  0
 32 33  1  0
 31  3  1  0
 26 17  1  0
  1 34  1  0
  1 35  1  0
  1 36  1  0
  4 37  1  0
  5 38  1  0
  7 39  1  0
  7 40  1  0
  8 41  1  0
  8 42  1  0
 10 43  1  0
 10 44  1  0
 10 45  1  0
 11 46  1  0
 11 47  1  0
 12 48  1  0
 12 49  1  0
 13 50  1  0
 13 51  1  0
 18 52  1  0
 19 53  1  0
 22 54  1  0
 22 55  1  0
 22 56  1  0
 25 57  1  0
 25 58  1  0
 25 59  1  0
 26 60  1  0
 27 61  1  0
 28 62  1  0
 28 63  1  0
 28 64  1  0
 29 65  1  0
 29 66  1  0
 29 67  1  0
 30 68  1  0
 33 69  1  0
 33 70  1  0
 33 71  1  0
M  END
$$$$
