
     RDKit          3D

 62 64  0  0  0  0  0  0  0  0999 V2000
    9.0458    4.2214   -0.5384 C   0  0  0  0  0  0  0  0  0  0  0  0
    8.5053    3.0908   -1.2840 C   0  0  0  0  0  0  0  0  0  0  0  0
    8.0617    2.1148   -1.9270 C   0  0  0  0  0  0  0  0  0  0  0  0
    7.5654    0.9979   -2.6863 C   0  0  0  0  0  0  0  0  0  0  0  0
    6.2409    0.9645   -2.9527 O   0  0  0  0  0  0  0  0  0  0  0  0
    5.0693    0.8816   -2.3594 C   0  0  0  0  0  0  0  0  0  0  0  0
    3.8647    0.9209   -3.0835 C   0  0  0  0  0  0  0  0  0  0  0  0
    2.6267    0.8441   -2.5168 C   0  0  0  0  0  0  0  0  0  0  0  0
    2.5490    0.7160   -1.1356 C   0  0  0  0  0  0  0  0  0  0  0  0
    0.9918    0.6777   -0.3827 S   0  0  0  0  0  6  0  0  0  0  0  0
    0.0182    1.4321   -1.2645 O   0  0  0  0  0  0  0  0  0  0  0  0
    1.1188    1.4588    0.9135 O   0  0  0  0  0  0  0  0  0  0  0  0
    0.4893   -0.9843   -0.1410 C   0  0  0  0  0  0  0  0  0  0  0  0
   -0.9071   -1.0925    0.4432 C   0  0  0  0  0  0  0  0  0  0  0  0
   -1.8678   -0.4071   -0.5016 C   0  0  0  0  0  0  0  0  0  0  0  0
   -2.5318    0.5300   -0.0432 O   0  0  0  0  0  0  0  0  0  0  0  0
   -2.0260   -0.7917   -1.8543 N   0  0  0  0  0  0  0  0  0  0  0  0
   -2.9369   -0.0967   -2.6276 O   0  0  0  0  0  0  0  0  0  0  0  0
   -0.9843   -0.4344    1.7933 C   0  0  0  0  0  0  0  0  0  0  0  0
   -2.3231   -0.6402    2.4838 C   0  0  0  0  0  0  0  0  0  0  0  0
   -2.8829   -1.8858    2.1485 N   0  0  0  0  0  0  0  0  0  0  0  0
   -4.5151   -2.1502    2.4400 S   0  0  0  0  0  6  0  0  0  0  0  0
   -4.7934   -1.8588    3.9151 O   0  0  0  0  0  0  0  0  0  0  0  0
   -4.9703   -3.5750    2.2410 O   0  0  0  0  0  0  0  0  0  0  0  0
   -5.4355   -1.0136    1.4908 C   0  0  0  0  0  0  0  0  0  0  0  0
   -5.9003   -1.2737    0.2060 C   0  0  0  0  0  0  0  0  0  0  0  0
   -5.7379   -2.5051   -0.6065 C   0  0  0  0  0  0  0  0  0  0  0  0
   -6.5255   -0.1821   -0.1763 N   0  0  0  0  0  0  0  0  0  0  0  0
   -6.4770    0.7430    0.8049 O   0  0  0  0  0  0  0  0  0  0  0  0
   -5.8041    0.2355    1.8298 C   0  0  0  0  0  0  0  0  0  0  0  0
   -5.5485    1.0140    3.1077 C   0  0  0  0  0  0  0  0  0  0  0  0
   -2.0714   -2.9392    1.7260 C   0  0  0  0  0  0  0  0  0  0  0  0
   -1.2509   -2.5516    0.4995 C   0  0  0  0  0  0  0  0  0  0  0  0
    3.6940    0.6727   -0.4236 C   0  0  0  0  0  0  0  0  0  0  0  0
    4.9376    0.7477   -0.9693 C   0  0  0  0  0  0  0  0  0  0  0  0
    8.2453    4.9831   -0.4932 H   0  0  0  0  0  0  0  0  0  0  0  0
    9.3219    3.9396    0.4971 H   0  0  0  0  0  0  0  0  0  0  0  0
    9.9510    4.6296   -1.0706 H   0  0  0  0  0  0  0  0  0  0  0  0
    8.1442    1.0654   -3.7074 H   0  0  0  0  0  0  0  0  0  0  0  0
    7.9312    0.0412   -2.2147 H   0  0  0  0  0  0  0  0  0  0  0  0
    3.9992    1.0090   -4.1792 H   0  0  0  0  0  0  0  0  0  0  0  0
    1.7172    0.8835   -3.1431 H   0  0  0  0  0  0  0  0  0  0  0  0
    1.1859   -1.4451    0.6031 H   0  0  0  0  0  0  0  0  0  0  0  0
    0.5728   -1.5308   -1.0771 H   0  0  0  0  0  0  0  0  0  0  0  0
   -1.4721   -1.5550   -2.2616 H   0  0  0  0  0  0  0  0  0  0  0  0
   -2.7751   -0.3536   -3.5763 H   0  0  0  0  0  0  0  0  0  0  0  0
   -0.8707    0.6757    1.6364 H   0  0  0  0  0  0  0  0  0  0  0  0
   -0.1962   -0.7765    2.4847 H   0  0  0  0  0  0  0  0  0  0  0  0
   -2.1758   -0.5526    3.5882 H   0  0  0  0  0  0  0  0  0  0  0  0
   -3.0029    0.1731    2.1525 H   0  0  0  0  0  0  0  0  0  0  0  0
   -6.0989   -3.4182   -0.1025 H   0  0  0  0  0  0  0  0  0  0  0  0
   -6.2148   -2.3545   -1.5917 H   0  0  0  0  0  0  0  0  0  0  0  0
   -4.6426   -2.6759   -0.8195 H   0  0  0  0  0  0  0  0  0  0  0  0
   -4.6481    1.6914    2.9459 H   0  0  0  0  0  0  0  0  0  0  0  0
   -5.3215    0.3282    3.9111 H   0  0  0  0  0  0  0  0  0  0  0  0
   -6.4286    1.6634    3.2670 H   0  0  0  0  0  0  0  0  0  0  0  0
   -2.6260   -3.8719    1.5674 H   0  0  0  0  0  0  0  0  0  0  0  0
   -1.3040   -3.1451    2.5266 H   0  0  0  0  0  0  0  0  0  0  0  0
   -0.2801   -3.1220    0.5652 H   0  0  0  0  0  0  0  0  0  0  0  0
   -1.7839   -2.8024   -0.4208 H   0  0  0  0  0  0  0  0  0  0  0  0
    3.6404    0.5641    0.6777 H   0  0  0  0  0  0  0  0  0  0  0  0
    5.8432    0.7230   -0.3339 H   0  0  0  0  0  0  0  0  0  0  0  0
  1  2  1  0
  2  3  3  0
  3  4  1  0
  4  5  1  0
  5  6  1  0
  6  7  2  0
  7  8  1  0
  8  9  2  0
  9 10  1  0
 10 11  2  0
 10 12  2  0
 10 13  1  0
 13 14  1  0
 14 15  1  0
 15 16  2  0
 15 17  1  0
 17 18  1  0
 14 19  1  0
 19 20  1  0
 20 21  1  0
 21 22  1  0
 22 23  2  0
 22 24  2  0
 22 25  1  0
 25 26  1  0
 26 27  1  0
 26 28  2  0
 28 29  1  0
 29 30  1  0
 30 31  1  0
 21 32  1  0
 32 33  1  0
  9 34  1  0
 34 35  2  0
 35  6  1  0
 33 14  1  0
 30 25  2  0
  1 36  1  0
  1 37  1  0
  1 38  1  0
  4 39  1  0
  4 40  1  0
  7 41  1  0
  8 42  1  0
 13 43  1  0
 13 44  1  0
 17 45  1  0
 18 46  1  0
 19 47  1  0
 19 48  1  0
 20 49  1  0
 20 50  1  0
 27 51  1  0
 27 52  1  0
 27 53  1  0
 31 54  1  0
 31 55  1  0
 31 56  1  0
 32 57  1  0
 32 58  1  0
 33 59  1  0
 33 60  1  0
 34 61  1  0
 35 62  1  0
M  END
$$$$
