
     RDKit          3D

 44 46  0  0  0  0  0  0  0  0999 V2000
    2.9106   -0.9283   -1.9910 C   0  0  0  0  0  0  0  0  0  0  0  0
    3.3060   -0.2757   -0.7442 N   0  0  0  0  0  0  0  0  0  0  0  0
    2.2502    0.1467    0.1327 C   0  0  0  0  0  0  0  0  0  0  0  0
    1.5488   -1.0769    0.7308 C   0  0  0  0  0  0  0  0  0  0  0  0
    0.5103   -0.7031    1.5587 O   0  0  0  0  0  0  0  0  0  0  0  0
   -0.6556   -0.1051    1.1622 C   0  0  0  0  0  0  0  0  0  0  0  0
   -0.9369    0.1301   -0.1575 C   0  0  0  0  0  0  0  0  0  0  0  0
   -2.1323    0.7511   -0.5378 C   0  0  0  0  0  0  0  0  0  0  0  0
   -3.0505    1.1371    0.4038 C   0  0  0  0  0  0  0  0  0  0  0  0
   -4.3064    1.7731   -0.0229 C   0  0  0  0  0  0  0  0  0  0  0  0
   -5.4067    0.8568    0.1326 C   0  0  0  0  0  0  0  0  0  0  0  0
   -6.6139    0.9158    1.4977 S   0  0  0  0  0  0  0  0  0  0  0  0
   -7.5775   -0.5190    0.9539 C   0  0  0  0  0  0  0  0  0  0  0  0
   -8.6179   -1.0169    1.5258 O   0  0  0  0  0  0  0  0  0  0  0  0
   -6.9095   -0.9039   -0.1906 N   0  0  0  0  0  0  0  0  0  0  0  0
   -5.8751   -0.2340   -0.5667 C   0  0  0  0  0  0  0  0  0  0  0  0
   -5.1269   -0.5953   -1.7718 O   0  0  0  0  0  0  0  0  0  0  0  0
   -2.7546    0.8919    1.7431 C   0  0  0  0  0  0  0  0  0  0  0  0
   -1.5972    0.2888    2.1464 C   0  0  0  0  0  0  0  0  0  0  0  0
    4.6772   -0.0564   -0.4516 C   0  0  0  0  0  0  0  0  0  0  0  0
    5.1941    0.3674    0.7385 C   0  0  0  0  0  0  0  0  0  0  0  0
    6.5588    0.5941    0.9500 C   0  0  0  0  0  0  0  0  0  0  0  0
    7.4091    0.3743   -0.1043 C   0  0  0  0  0  0  0  0  0  0  0  0
    6.8806   -0.0527   -1.2982 C   0  0  0  0  0  0  0  0  0  0  0  0
    5.5806   -0.2561   -1.4575 N   0  0  0  0  0  0  0  0  0  0  0  0
    3.0687   -2.0126   -1.9730 H   0  0  0  0  0  0  0  0  0  0  0  0
    3.4232   -0.4526   -2.8734 H   0  0  0  0  0  0  0  0  0  0  0  0
    1.8350   -0.7366   -2.1433 H   0  0  0  0  0  0  0  0  0  0  0  0
    1.5440    0.8230   -0.3416 H   0  0  0  0  0  0  0  0  0  0  0  0
    2.7563    0.6797    1.0067 H   0  0  0  0  0  0  0  0  0  0  0  0
    1.2432   -1.7371   -0.1322 H   0  0  0  0  0  0  0  0  0  0  0  0
    2.3318   -1.6754    1.2956 H   0  0  0  0  0  0  0  0  0  0  0  0
   -0.2915   -0.1705   -0.9603 H   0  0  0  0  0  0  0  0  0  0  0  0
   -2.3071    0.9155   -1.6016 H   0  0  0  0  0  0  0  0  0  0  0  0
   -4.2386    2.0661   -1.0904 H   0  0  0  0  0  0  0  0  0  0  0  0
   -4.4728    2.6631    0.6185 H   0  0  0  0  0  0  0  0  0  0  0  0
   -7.2862   -1.7627   -0.7332 H   0  0  0  0  0  0  0  0  0  0  0  0
   -5.5941   -1.0393   -2.5237 H   0  0  0  0  0  0  0  0  0  0  0  0
   -3.4700    1.1889    2.5074 H   0  0  0  0  0  0  0  0  0  0  0  0
   -1.3325    0.0795    3.1810 H   0  0  0  0  0  0  0  0  0  0  0  0
    4.5488    0.5371    1.5863 H   0  0  0  0  0  0  0  0  0  0  0  0
    6.9260    0.9269    1.9053 H   0  0  0  0  0  0  0  0  0  0  0  0
    8.4802    0.5369    0.0076 H   0  0  0  0  0  0  0  0  0  0  0  0
    7.5701   -0.2199   -2.1177 H   0  0  0  0  0  0  0  0  0  0  0  0
  1  2  1  0
  2  3  1  0
  3  4  1  0
  4  5  1  0
  5  6  1  0
  6  7  2  0
  7  8  1  0
  8  9  2  0
  9 10  1  0
 10 11  1  0
 11 12  1  0
 12 13  1  0
 13 14  2  0
 13 15  1  0
 15 16  1  0
 16 17  1  0
  9 18  1  0
 18 19  2  0
  2 20  1  0
 20 21  2  0
 21 22  1  0
 22 23  2  0
 23 24  1  0
 24 25  2  0
 19  6  1  0
 25 20  1  0
 16 11  2  0
  1 26  1  0
  1 27  1  0
  1 28  1  0
  3 29  1  0
  3 30  1  0
  4 31  1  0
  4 32  1  0
  7 33  1  0
  8 34  1  0
 10 35  1  0
 10 36  1  0
 15 37  1  0
 17 38  1  0
 18 39  1  0
 19 40  1  0
 21 41  1  0
 22 42  1  0
 23 43  1  0
 24 44  1  0
M  END
$$$$
