
     RDKit          3D

 43 45  0  0  0  0  0  0  0  0999 V2000
   -5.4211   -2.0682    0.1802 C   0  0  0  0  0  0  0  0  0  0  0  0
   -4.3714   -1.0742    0.1644 N   0  0  0  0  0  0  0  0  0  0  0  0
   -3.0290   -1.5233    0.0838 C   0  0  0  0  0  0  0  0  0  0  0  0
   -2.7025   -2.7280    0.0258 O   0  0  0  0  0  0  0  0  0  0  0  0
   -2.0118   -0.5868    0.0676 O   0  0  0  0  0  0  0  0  0  0  0  0
   -0.6743   -0.9222   -0.0087 C   0  0  0  0  0  0  0  0  0  0  0  0
    0.0157   -1.0692   -1.1844 C   0  0  0  0  0  0  0  0  0  0  0  0
    1.3542   -1.4069   -1.1727 C   0  0  0  0  0  0  0  0  0  0  0  0
    2.0496   -1.6095    0.0169 C   0  0  0  0  0  0  0  0  0  0  0  0
    3.4007   -1.9495   -0.0084 O   0  0  0  0  0  0  0  0  0  0  0  0
    4.4100   -1.0146    0.0037 C   0  0  0  0  0  0  0  0  0  0  0  0
    4.0959    0.3327    0.0426 C   0  0  0  0  0  0  0  0  0  0  0  0
    5.1824    1.2115    0.0523 C   0  0  0  0  0  0  0  0  0  0  0  0
    6.4706    0.7765    0.0253 C   0  0  0  0  0  0  0  0  0  0  0  0
    7.6224    1.6985    0.0354 C   0  0  0  0  0  0  0  0  0  0  0  0
    8.8086    1.0237    0.0100 F   0  0  0  0  0  0  0  0  0  0  0  0
    7.5878    2.4876    1.1766 F   0  0  0  0  0  0  0  0  0  0  0  0
    7.5800    2.5829   -1.0468 F   0  0  0  0  0  0  0  0  0  0  0  0
    6.7187   -0.5781   -0.0130 C   0  0  0  0  0  0  0  0  0  0  0  0
    5.6754   -1.4456   -0.0229 N   0  0  0  0  0  0  0  0  0  0  0  0
    1.3581   -1.4623    1.2020 C   0  0  0  0  0  0  0  0  0  0  0  0
    0.0210   -1.1244    1.1662 C   0  0  0  0  0  0  0  0  0  0  0  0
   -4.6884    0.2889    0.2275 C   0  0  0  0  0  0  0  0  0  0  0  0
   -4.7891    0.9258    1.4389 C   0  0  0  0  0  0  0  0  0  0  0  0
   -5.1022    2.2765    1.5281 C   0  0  0  0  0  0  0  0  0  0  0  0
   -5.3171    2.9965    0.3777 C   0  0  0  0  0  0  0  0  0  0  0  0
   -5.2212    2.3753   -0.8646 C   0  0  0  0  0  0  0  0  0  0  0  0
   -4.9031    1.0097   -0.9153 C   0  0  0  0  0  0  0  0  0  0  0  0
   -6.3650   -1.6795   -0.2747 H   0  0  0  0  0  0  0  0  0  0  0  0
   -5.5983   -2.3782    1.2412 H   0  0  0  0  0  0  0  0  0  0  0  0
   -5.0786   -2.9911   -0.3405 H   0  0  0  0  0  0  0  0  0  0  0  0
   -0.5343   -0.9094   -2.1089 H   0  0  0  0  0  0  0  0  0  0  0  0
    1.8668   -1.5145   -2.1171 H   0  0  0  0  0  0  0  0  0  0  0  0
    3.0830    0.6518    0.0633 H   0  0  0  0  0  0  0  0  0  0  0  0
    4.9879    2.2816    0.0826 H   0  0  0  0  0  0  0  0  0  0  0  0
    7.7234   -0.9796   -0.0357 H   0  0  0  0  0  0  0  0  0  0  0  0
    1.9081   -1.6219    2.1169 H   0  0  0  0  0  0  0  0  0  0  0  0
   -0.5148   -1.0110    2.1098 H   0  0  0  0  0  0  0  0  0  0  0  0
   -4.6248    0.3849    2.3759 H   0  0  0  0  0  0  0  0  0  0  0  0
   -5.1779    2.7621    2.4805 H   0  0  0  0  0  0  0  0  0  0  0  0
   -5.5576    4.0342    0.4444 H   0  0  0  0  0  0  0  0  0  0  0  0
   -5.3951    2.9661   -1.7486 H   0  0  0  0  0  0  0  0  0  0  0  0
   -4.8424    0.5813   -1.9067 H   0  0  0  0  0  0  0  0  0  0  0  0
  1  2  1  0
  2  3  1  0
  3  4  2  0
  3  5  1  0
  5  6  1  0
  6  7  2  0
  7  8  1  0
  8  9  2  0
  9 10  1  0
 10 11  1  0
 11 12  2  0
 12 13  1  0
 13 14  2  0
 14 15  1  0
 15 16  1  0
 15 17  1  0
 15 18  1  0
 14 19  1  0
 19 20  2  0
  9 21  1  0
 21 22  2  0
  2 23  1  0
 23 24  2  0
 24 25  1  0
 25 26  2  0
 26 27  1  0
 27 28  2  0
 22  6  1  0
 28 23  1  0
 20 11  1  0
  1 29  1  0
  1 30  1  0
  1 31  1  0
  7 32  1  0
  8 33  1  0
 12 34  1  0
 13 35  1  0
 19 36  1  0
 21 37  1  0
 22 38  1  0
 24 39  1  0
 25 40  1  0
 26 41  1  0
 27 42  1  0
 28 43  1  0
M  END
$$$$
