
     RDKit          3D

 15 14  0  0  0  0  0  0  0  0999 V2000
    3.1693    0.2150    0.2456 F   0  0  0  0  0  0  0  0  0  0  0  0
    1.9907    0.0814   -0.4713 C   0  0  0  0  0  0  0  0  0  0  0  0
    0.9502    0.0837    0.4257 O   0  0  0  0  0  0  0  0  0  0  0  0
   -0.3044   -0.0462   -0.1795 C   0  0  0  0  0  0  0  0  0  0  0  0
   -1.0258   -1.2455    0.4253 C   0  0  0  0  0  0  0  0  0  0  0  0
   -2.2623   -1.4569   -0.1007 F   0  0  0  0  0  0  0  0  0  0  0  0
   -0.2602   -2.3796    0.2561 F   0  0  0  0  0  0  0  0  0  0  0  0
   -1.1461   -0.9920    1.7741 F   0  0  0  0  0  0  0  0  0  0  0  0
   -1.0342    1.2401    0.1505 C   0  0  0  0  0  0  0  0  0  0  0  0
   -2.3051    1.2941   -0.3697 F   0  0  0  0  0  0  0  0  0  0  0  0
   -0.2441    2.3117   -0.2086 F   0  0  0  0  0  0  0  0  0  0  0  0
   -1.2330    1.2158    1.5368 F   0  0  0  0  0  0  0  0  0  0  0  0
    2.0492   -0.9646   -0.8854 H   0  0  0  0  0  0  0  0  0  0  0  0
    1.9040    0.7724   -1.3152 H   0  0  0  0  0  0  0  0  0  0  0  0
   -0.2483   -0.1293   -1.2838 H   0  0  0  0  0  0  0  0  0  0  0  0
  1  2  1  0
  2  3  1  0
  3  4  1  0
  4  5  1  0
  5  6  1  0
  5  7  1  0
  5  8  1  0
  4  9  1  0
  9 10  1  0
  9 11  1  0
  9 12  1  0
  2 13  1  0
  2 14  1  0
  4 15  1  0
M  END
$$$$
