
     RDKit          3D

 66 69  0  0  0  0  0  0  0  0999 V2000
    1.9007    6.2905    2.5130 C   0  0  0  0  0  0  0  0  0  0  0  0
    0.5868    5.6661    2.1736 C   0  0  0  0  0  0  0  0  0  0  0  0
   -0.2183    6.7051    1.3897 C   0  0  0  0  0  0  0  0  0  0  0  0
    0.7150    4.4823    1.3311 N   0  0  0  0  0  0  0  0  0  0  0  0
    0.0802    3.2831    1.6981 C   0  0  0  0  0  0  0  0  0  0  0  0
   -0.6032    3.3024    2.7842 O   0  0  0  0  0  0  0  0  0  0  0  0
    0.1266    2.0381    0.9596 N   0  0  0  0  0  0  0  0  0  0  0  0
    0.9462    1.9304   -0.1749 C   0  0  0  0  0  0  0  0  0  0  0  0
    2.2771    1.3478    0.1451 C   0  0  0  0  0  0  0  0  0  0  0  0
    3.2009    2.0842    0.8490 C   0  0  0  0  0  0  0  0  0  0  0  0
    4.4522    1.5518    1.0505 C   0  0  0  0  0  0  0  0  0  0  0  0
    4.7829    0.3253    0.5680 C   0  0  0  0  0  0  0  0  0  0  0  0
    3.8663   -0.4625   -0.1606 C   0  0  0  0  0  0  0  0  0  0  0  0
    4.3402   -1.7112   -0.6969 C   0  0  0  0  0  0  0  0  0  0  0  0
    4.7298   -2.7594   -1.1611 C   0  0  0  0  0  0  0  0  0  0  0  0
    5.1949   -3.9877   -1.7320 C   0  0  0  0  0  0  0  0  0  0  0  0
    6.0241   -3.9580   -2.8457 C   0  0  0  0  0  0  0  0  0  0  0  0
    6.4812   -5.1266   -3.4164 C   0  0  0  0  0  0  0  0  0  0  0  0
    6.1378   -6.3879   -2.9104 C   0  0  0  0  0  0  0  0  0  0  0  0
    6.6996   -7.8756   -3.6152 Cl  0  0  0  0  0  0  0  0  0  0  0  0
    5.3059   -6.4180   -1.7938 C   0  0  0  0  0  0  0  0  0  0  0  0
    4.8673   -5.2332   -1.2473 C   0  0  0  0  0  0  0  0  0  0  0  0
    2.6299    0.0843   -0.3459 C   0  0  0  0  0  0  0  0  0  0  0  0
   -0.7681    1.0212    1.4894 C   0  0  0  0  0  0  0  0  0  0  0  0
   -2.0694    1.1018    0.7489 C   0  0  0  0  0  0  0  0  0  0  0  0
   -2.5996    2.3141    0.4118 C   0  0  0  0  0  0  0  0  0  0  0  0
   -3.8573    2.4317   -0.1584 C   0  0  0  0  0  0  0  0  0  0  0  0
   -4.5496    1.2652   -0.3673 C   0  0  0  0  0  0  0  0  0  0  0  0
   -4.0033    0.0217   -0.0180 C   0  0  0  0  0  0  0  0  0  0  0  0
   -4.8567   -1.1508   -0.1391 C   0  0  0  0  0  0  0  0  0  0  0  0
   -5.5769   -2.1068   -0.2463 C   0  0  0  0  0  0  0  0  0  0  0  0
   -6.4694   -3.2529   -0.3869 C   0  0  0  0  0  0  0  0  0  0  0  0
   -6.6922   -3.7386   -1.6716 C   0  0  0  0  0  0  0  0  0  0  0  0
   -7.5107   -4.8242   -1.8646 C   0  0  0  0  0  0  0  0  0  0  0  0
   -8.0987   -5.4095   -0.7351 C   0  0  0  0  0  0  0  0  0  0  0  0
   -7.8731   -4.9244    0.5187 C   0  0  0  0  0  0  0  0  0  0  0  0
   -7.0621   -3.8609    0.6279 N   0  0  0  0  0  0  0  0  0  0  0  0
   -2.7709   -0.0822    0.5344 C   0  0  0  0  0  0  0  0  0  0  0  0
    2.2934    6.9005    1.6942 H   0  0  0  0  0  0  0  0  0  0  0  0
    2.6466    5.5388    2.8662 H   0  0  0  0  0  0  0  0  0  0  0  0
    1.7056    6.9802    3.3872 H   0  0  0  0  0  0  0  0  0  0  0  0
    0.0236    5.3624    3.0853 H   0  0  0  0  0  0  0  0  0  0  0  0
    0.0704    6.6196    0.3392 H   0  0  0  0  0  0  0  0  0  0  0  0
   -0.0829    7.7162    1.7966 H   0  0  0  0  0  0  0  0  0  0  0  0
   -1.3063    6.4308    1.5335 H   0  0  0  0  0  0  0  0  0  0  0  0
    1.2727    4.5238    0.4570 H   0  0  0  0  0  0  0  0  0  0  0  0
    0.4710    1.3322   -1.0068 H   0  0  0  0  0  0  0  0  0  0  0  0
    1.1640    2.9165   -0.6669 H   0  0  0  0  0  0  0  0  0  0  0  0
    2.9684    3.0838    1.2563 H   0  0  0  0  0  0  0  0  0  0  0  0
    5.1747    2.1256    1.6031 H   0  0  0  0  0  0  0  0  0  0  0  0
    5.7654   -0.1281    0.7090 H   0  0  0  0  0  0  0  0  0  0  0  0
    6.3141   -3.0054   -3.2685 H   0  0  0  0  0  0  0  0  0  0  0  0
    7.1349   -5.1459   -4.2920 H   0  0  0  0  0  0  0  0  0  0  0  0
    5.0497   -7.3968   -1.4168 H   0  0  0  0  0  0  0  0  0  0  0  0
    4.2278   -5.2971   -0.3885 H   0  0  0  0  0  0  0  0  0  0  0  0
    1.9059   -0.4830   -0.8908 H   0  0  0  0  0  0  0  0  0  0  0  0
   -0.3237    0.0086    1.3680 H   0  0  0  0  0  0  0  0  0  0  0  0
   -0.9965    1.1523    2.5527 H   0  0  0  0  0  0  0  0  0  0  0  0
   -2.0885    3.2649    0.5525 H   0  0  0  0  0  0  0  0  0  0  0  0
   -4.2773    3.3920   -0.4256 H   0  0  0  0  0  0  0  0  0  0  0  0
   -5.5361    1.2894   -0.8085 H   0  0  0  0  0  0  0  0  0  0  0  0
   -6.2053   -3.2344   -2.4905 H   0  0  0  0  0  0  0  0  0  0  0  0
   -7.6926   -5.2109   -2.8664 H   0  0  0  0  0  0  0  0  0  0  0  0
   -8.7283   -6.2534   -0.9338 H   0  0  0  0  0  0  0  0  0  0  0  0
   -8.3482   -5.4077    1.3581 H   0  0  0  0  0  0  0  0  0  0  0  0
   -2.3684   -1.0514    0.7906 H   0  0  0  0  0  0  0  0  0  0  0  0
  1  2  1  0
  2  3  1  0
  2  4  1  0
  4  5  1  0
  5  6  2  0
  5  7  1  0
  7  8  1  0
  8  9  1  0
  9 10  2  0
 10 11  1  0
 11 12  2  0
 12 13  1  0
 13 14  1  0
 14 15  3  0
 15 16  1  0
 16 17  2  0
 17 18  1  0
 18 19  2  0
 19 20  1  0
 19 21  1  0
 21 22  2  0
 13 23  2  0
  7 24  1  0
 24 25  1  0
 25 26  2  0
 26 27  1  0
 27 28  2  0
 28 29  1  0
 29 30  1  0
 30 31  3  0
 31 32  1  0
 32 33  2  0
 33 34  1  0
 34 35  2  0
 35 36  1  0
 36 37  2  0
 29 38  2  0
 23  9  1  0
 38 25  1  0
 22 16  1  0
 37 32  1  0
  1 39  1  0
  1 40  1  0
  1 41  1  0
  2 42  1  0
  3 43  1  0
  3 44  1  0
  3 45  1  0
  4 46  1  0
  8 47  1  0
  8 48  1  0
 10 49  1  0
 11 50  1  0
 12 51  1  0
 17 52  1  0
 18 53  1  0
 21 54  1  0
 22 55  1  0
 23 56  1  0
 24 57  1  0
 24 58  1  0
 26 59  1  0
 27 60  1  0
 28 61  1  0
 33 62  1  0
 34 63  1  0
 35 64  1  0
 36 65  1  0
 38 66  1  0
M  END
$$$$
