
     RDKit          3D

 52 55  0  0  0  0  0  0  0  0999 V2000
    6.1979   -1.6320    0.5006 C   0  0  0  0  0  0  0  0  0  0  0  0
    5.7504   -0.7395    1.6409 C   0  0  0  0  0  0  0  0  0  0  0  0
    6.4759    0.5718    1.5637 C   0  0  0  0  0  0  0  0  0  0  0  0
    4.3036   -0.5756    1.5295 N   0  0  0  0  0  0  0  0  0  0  0  0
    3.6625   -0.0929    0.4653 C   0  0  0  0  0  0  0  0  0  0  0  0
    2.3186   -0.0981    0.7512 C   0  0  0  0  0  0  0  0  0  0  0  0
    1.2229    0.3418   -0.1143 C   0  0  0  0  0  0  0  0  0  0  0  0
   -0.0054   -0.3091    0.0274 C   0  0  0  0  0  0  0  0  0  0  0  0
   -1.0723    0.0498   -0.7476 C   0  0  0  0  0  0  0  0  0  0  0  0
   -2.3053   -0.5252   -0.6816 O   0  0  0  0  0  0  0  0  0  0  0  0
   -2.6591   -1.5414    0.1643 C   0  0  2  0  0  0  0  0  0  0  0  0
   -3.1023   -2.8062   -0.5877 C   0  0  0  0  0  0  0  0  0  0  0  0
   -3.8258   -1.1981    1.0748 C   0  0  1  0  0  0  0  0  0  0  0  0
   -3.5142   -0.0068    1.9548 C   0  0  0  0  0  0  0  0  0  0  0  0
   -4.8668    0.4163    2.3519 N   0  0  0  0  0  0  0  0  0  0  0  0
   -5.7836    0.0034    1.3529 C   0  0  0  0  0  0  0  0  0  0  0  0
   -7.0119    0.2170    1.3761 O   0  0  0  0  0  0  0  0  0  0  0  0
   -5.0301   -0.7129    0.2994 C   0  0  0  0  0  0  0  0  0  0  0  0
   -0.9191    1.0832   -1.6906 C   0  0  0  0  0  0  0  0  0  0  0  0
   -1.7774    1.6565   -2.5906 C   0  0  0  0  0  0  0  0  0  0  0  0
   -3.0703    1.3259   -2.7860 F   0  0  0  0  0  0  0  0  0  0  0  0
   -1.1325    2.6203   -3.2695 N   0  0  0  0  0  0  0  0  0  0  0  0
   -1.6073    3.4967   -4.3105 C   0  0  0  0  0  0  0  0  0  0  0  0
    0.1313    2.6736   -2.8163 N   0  0  0  0  0  0  0  0  0  0  0  0
    0.2789    1.7342   -1.8445 C   0  0  0  0  0  0  0  0  0  0  0  0
    1.3405    1.3497   -1.0467 C   0  0  0  0  0  0  0  0  0  0  0  0
    2.2082   -0.6093    2.0387 C   0  0  0  0  0  0  0  0  0  0  0  0
    3.4317   -0.8813    2.4632 N   0  0  0  0  0  0  0  0  0  0  0  0
    5.8090   -1.1945   -0.4311 H   0  0  0  0  0  0  0  0  0  0  0  0
    7.3025   -1.6846    0.4315 H   0  0  0  0  0  0  0  0  0  0  0  0
    5.7324   -2.6145    0.6434 H   0  0  0  0  0  0  0  0  0  0  0  0
    5.9898   -1.2112    2.6058 H   0  0  0  0  0  0  0  0  0  0  0  0
    5.9066    1.3066    0.9690 H   0  0  0  0  0  0  0  0  0  0  0  0
    7.4498    0.4230    1.0540 H   0  0  0  0  0  0  0  0  0  0  0  0
    6.6533    1.0277    2.5783 H   0  0  0  0  0  0  0  0  0  0  0  0
    4.1150    0.2450   -0.4630 H   0  0  0  0  0  0  0  0  0  0  0  0
   -0.0913   -1.0836    0.7456 H   0  0  0  0  0  0  0  0  0  0  0  0
   -1.8480   -1.8881    0.8252 H   0  0  0  0  0  0  0  0  0  0  0  0
   -3.5801   -3.4511    0.1784 H   0  0  0  0  0  0  0  0  0  0  0  0
   -3.8722   -2.5497   -1.3319 H   0  0  0  0  0  0  0  0  0  0  0  0
   -2.2392   -3.3509   -0.9865 H   0  0  0  0  0  0  0  0  0  0  0  0
   -4.0938   -2.0548    1.7047 H   0  0  0  0  0  0  0  0  0  0  0  0
   -2.8953   -0.2499    2.8223 H   0  0  0  0  0  0  0  0  0  0  0  0
   -3.0489    0.7709    1.2882 H   0  0  0  0  0  0  0  0  0  0  0  0
   -5.0344    0.9353    3.2465 H   0  0  0  0  0  0  0  0  0  0  0  0
   -4.6658    0.0276   -0.4445 H   0  0  0  0  0  0  0  0  0  0  0  0
   -5.6056   -1.5412   -0.1521 H   0  0  0  0  0  0  0  0  0  0  0  0
   -1.9018    4.4623   -3.8198 H   0  0  0  0  0  0  0  0  0  0  0  0
   -2.4551    3.0664   -4.8859 H   0  0  0  0  0  0  0  0  0  0  0  0
   -0.7926    3.6877   -5.0345 H   0  0  0  0  0  0  0  0  0  0  0  0
    2.2892    1.8378   -1.1418 H   0  0  0  0  0  0  0  0  0  0  0  0
    1.2374   -0.7280    2.5298 H   0  0  0  0  0  0  0  0  0  0  0  0
  1  2  1  0
  2  3  1  0
  2  4  1  0
  4  5  1  0
  5  6  2  0
  6  7  1  0
  7  8  1  0
  8  9  2  0
  9 10  1  0
 10 11  1  0
 11 12  1  0
 11 13  1  0
 13 14  1  0
 14 15  1  0
 15 16  1  0
 16 17  2  0
 16 18  1  0
  9 19  1  0
 19 20  2  0
 20 21  1  0
 20 22  1  0
 22 23  1  0
 22 24  1  0
 24 25  2  0
 25 26  1  0
  6 27  1  0
 27 28  2  0
 28  4  1  0
 26  7  2  0
 18 13  1  0
 25 19  1  0
  1 29  1  0
  1 30  1  0
  1 31  1  0
  2 32  1  0
  3 33  1  0
  3 34  1  0
  3 35  1  0
  5 36  1  0
  8 37  1  0
 11 38  1  1
 12 39  1  0
 12 40  1  0
 12 41  1  0
 13 42  1  1
 14 43  1  0
 14 44  1  0
 15 45  1  0
 18 46  1  0
 18 47  1  0
 23 48  1  0
 23 49  1  0
 23 50  1  0
 26 51  1  0
 27 52  1  0
M  END
$$$$
