
     RDKit          3D

 50 53  0  0  0  0  0  0  0  0999 V2000
   -3.5792    3.1147    1.2069 C   0  0  0  0  0  0  0  0  0  0  0  0
   -4.0271    1.7775    0.7338 C   0  0  0  0  0  0  0  0  0  0  0  0
   -4.8730    0.9646    1.3517 N   0  0  0  0  0  0  0  0  0  0  0  0
   -5.0238   -0.1462    0.6045 C   0  0  0  0  0  0  0  0  0  0  0  0
   -5.7956   -1.2756    0.8206 C   0  0  0  0  0  0  0  0  0  0  0  0
   -6.6092   -1.4054    1.9943 N   0  0  0  0  0  4  0  0  0  0  0  0
   -6.5977   -0.4734    2.8070 O   0  0  0  0  0  0  0  0  0  0  0  0
   -7.3467   -2.5381    2.1530 O   0  0  0  0  0  1  0  0  0  0  0  0
   -5.7604   -2.2653   -0.1176 C   0  0  0  0  0  0  0  0  0  0  0  0
   -6.7409   -3.7017    0.1557 Cl  0  0  0  0  0  0  0  0  0  0  0  0
   -5.0089   -2.2200   -1.2683 C   0  0  0  0  0  0  0  0  0  0  0  0
   -5.0053   -3.5184   -2.4319 Cl  0  0  0  0  0  0  0  0  0  0  0  0
   -4.2463   -1.0647   -1.4466 C   0  0  0  0  0  0  0  0  0  0  0  0
   -4.2540   -0.0408   -0.5211 C   0  0  0  0  0  0  0  0  0  0  0  0
   -3.6393    1.1666   -0.4221 N   0  0  0  0  0  0  0  0  0  0  0  0
   -2.7158    1.6947   -1.4054 C   0  0  0  0  0  0  0  0  0  0  0  0
   -1.3129    1.3289   -1.1175 C   0  0  0  0  0  0  0  0  0  0  0  0
   -0.5236    2.1454   -0.3269 C   0  0  0  0  0  0  0  0  0  0  0  0
    0.7971    1.7920   -0.0622 C   0  0  0  0  0  0  0  0  0  0  0  0
    1.3648    0.6454   -0.5607 C   0  0  0  0  0  0  0  0  0  0  0  0
    2.8529    0.2635   -0.2524 B   0  0  0  0  0  0  0  0  0  0  0  0
    3.7746    0.5205   -1.4100 O   0  0  0  0  0  0  0  0  0  0  0  0
    4.9680   -0.0535   -1.8353 C   0  0  0  0  0  0  0  0  0  0  0  0
    5.2641    0.1946   -3.0209 O   0  0  0  0  0  0  0  0  0  0  0  0
    5.9588   -0.9211   -1.1070 C   0  0  0  0  0  0  0  0  0  0  0  0
    6.0646   -0.4963    0.2854 N   0  0  0  0  0  0  0  0  0  0  0  0
    7.4720   -0.3025    0.5598 C   0  0  0  0  0  0  0  0  0  0  0  0
    5.5493   -1.4623    1.2052 C   0  0  0  0  0  0  0  0  0  0  0  0
    4.1108   -1.2750    1.5191 C   0  0  0  0  0  0  0  0  0  0  0  0
    3.8157   -1.8823    2.5812 O   0  0  0  0  0  0  0  0  0  0  0  0
    3.0084   -0.6090    0.9523 O   0  0  0  0  0  0  0  0  0  0  0  0
    0.5712   -0.1534   -1.3421 C   0  0  0  0  0  0  0  0  0  0  0  0
   -0.7451    0.1800   -1.6174 C   0  0  0  0  0  0  0  0  0  0  0  0
   -4.4165    3.6969    1.6471 H   0  0  0  0  0  0  0  0  0  0  0  0
   -3.2429    3.6792    0.3190 H   0  0  0  0  0  0  0  0  0  0  0  0
   -2.7550    3.0504    1.9198 H   0  0  0  0  0  0  0  0  0  0  0  0
   -3.6458   -0.9809   -2.3302 H   0  0  0  0  0  0  0  0  0  0  0  0
   -2.8020    2.8102   -1.4829 H   0  0  0  0  0  0  0  0  0  0  0  0
   -3.0443    1.3132   -2.3969 H   0  0  0  0  0  0  0  0  0  0  0  0
   -0.9170    3.0599    0.0905 H   0  0  0  0  0  0  0  0  0  0  0  0
    1.3667    2.4618    0.5580 H   0  0  0  0  0  0  0  0  0  0  0  0
    6.9347   -0.9066   -1.6235 H   0  0  0  0  0  0  0  0  0  0  0  0
    5.5609   -1.9567   -1.0921 H   0  0  0  0  0  0  0  0  0  0  0  0
    7.7995   -0.8052    1.4996 H   0  0  0  0  0  0  0  0  0  0  0  0
    7.7566    0.7585    0.6352 H   0  0  0  0  0  0  0  0  0  0  0  0
    8.1197   -0.7334   -0.2518 H   0  0  0  0  0  0  0  0  0  0  0  0
    6.1299   -1.3461    2.1661 H   0  0  0  0  0  0  0  0  0  0  0  0
    5.7396   -2.5158    0.8842 H   0  0  0  0  0  0  0  0  0  0  0  0
    0.9655   -1.0614   -1.7570 H   0  0  0  0  0  0  0  0  0  0  0  0
   -1.3171   -0.5075   -2.2515 H   0  0  0  0  0  0  0  0  0  0  0  0
  1  2  1  0
  2  3  2  0
  3  4  1  0
  4  5  2  0
  5  6  1  0
  6  7  2  0
  6  8  1  0
  5  9  1  0
  9 10  1  0
  9 11  2  0
 11 12  1  0
 11 13  1  0
 13 14  2  0
 14 15  1  0
 15 16  1  0
 16 17  1  0
 17 18  2  0
 18 19  1  0
 19 20  2  0
 20 21  1  0
 21 22  1  0
 22 23  1  0
 23 24  2  0
 23 25  1  0
 25 26  1  0
 26 27  1  0
 26 28  1  0
 28 29  1  0
 29 30  2  0
 29 31  1  0
 20 32  1  0
 32 33  2  0
 15  2  1  0
 33 17  1  0
 14  4  1  0
 31 21  1  0
  1 34  1  0
  1 35  1  0
  1 36  1  0
 13 37  1  0
 16 38  1  0
 16 39  1  0
 18 40  1  0
 19 41  1  0
 25 42  1  0
 25 43  1  0
 27 44  1  0
 27 45  1  0
 27 46  1  0
 28 47  1  0
 28 48  1  0
 32 49  1  0
 33 50  1  0
M  CHG  2   6   1   8  -1
M  END
$$$$
