
     RDKit          3D

 24 24  0  0  0  0  0  0  0  0999 V2000
   -2.1708   -0.0329   -0.2474 C   0  0  1  0  0  0  0  0  0  0  0  0
   -1.8867    0.9559   -1.2601 N   0  0  0  0  0  0  0  0  0  0  0  0
   -1.2350   -1.2062   -0.4409 C   0  0  0  0  0  0  0  0  0  0  0  0
    0.1910   -0.8055   -0.3262 C   0  0  0  0  0  0  0  0  0  0  0  0
    0.8048   -0.8459    0.9141 C   0  0  0  0  0  0  0  0  0  0  0  0
    2.1168   -0.4881    1.0804 C   0  0  0  0  0  0  0  0  0  0  0  0
    2.9279   -0.5550    2.7944 Br  0  0  0  0  0  0  0  0  0  0  0  0
    2.7909   -0.0878   -0.0448 C   0  0  0  0  0  0  0  0  0  0  0  0
    4.1281    0.2905    0.0491 O   0  0  0  0  0  0  0  0  0  0  0  0
    2.2378   -0.0244   -1.3126 C   0  0  0  0  0  0  0  0  0  0  0  0
    3.2687    0.5484   -2.8128 Br  0  0  0  0  0  0  0  0  0  0  0  0
    0.9001   -0.3996   -1.4246 C   0  0  0  0  0  0  0  0  0  0  0  0
   -2.0411    0.5786    1.0783 C   0  0  0  0  0  0  0  0  0  0  0  0
   -2.0010    0.8523    2.4386 O   0  0  0  0  0  0  0  0  0  0  0  0
   -1.7248    1.7790    1.0597 O   0  0  0  0  0  0  0  0  0  0  0  0
   -3.1965   -0.4162   -0.4276 H   0  0  0  0  0  0  0  0  0  0  0  0
   -2.6809    1.0653   -1.9309 H   0  0  0  0  0  0  0  0  0  0  0  0
   -1.6895    1.9040   -0.8666 H   0  0  0  0  0  0  0  0  0  0  0  0
   -1.4311   -1.6375   -1.4445 H   0  0  0  0  0  0  0  0  0  0  0  0
   -1.5195   -1.9720    0.3031 H   0  0  0  0  0  0  0  0  0  0  0  0
    0.2416   -1.1701    1.7963 H   0  0  0  0  0  0  0  0  0  0  0  0
    4.3469    1.2110    0.3961 H   0  0  0  0  0  0  0  0  0  0  0  0
    0.4429   -0.3557   -2.4248 H   0  0  0  0  0  0  0  0  0  0  0  0
   -2.8207    0.8120    3.0538 H   0  0  0  0  0  0  0  0  0  0  0  0
  1  2  1  0
  1  3  1  0
  3  4  1  0
  4  5  2  0
  5  6  1  0
  6  7  1  0
  6  8  2  0
  8  9  1  0
  8 10  1  0
 10 11  1  0
 10 12  2  0
  1 13  1  0
 13 14  1  0
 13 15  2  0
 12  4  1  0
  1 16  1  6
  2 17  1  0
  2 18  1  0
  3 19  1  0
  3 20  1  0
  5 21  1  0
  9 22  1  0
 12 23  1  0
 14 24  1  0
M  END
$$$$
