
     RDKit          3D

 67 68  0  0  0  0  0  0  0  0999 V2000
   -7.9969    1.7584   -2.2939 O   0  0  0  0  0  0  0  0  0  0  0  0
   -8.0074    1.1486   -1.0515 C   0  0  0  0  0  0  0  0  0  0  0  0
   -7.0068    1.6821   -0.1080 C   0  0  0  0  0  0  0  0  0  0  0  0
   -7.1525    2.8976    0.5529 C   0  0  0  0  0  0  0  0  0  0  0  0
   -8.2809    3.6580    0.3258 O   0  0  0  0  0  0  0  0  0  0  0  0
   -6.1683    3.3400    1.4334 C   0  0  0  0  0  0  0  0  0  0  0  0
   -5.0300    2.5654    1.6574 C   0  0  0  0  0  0  0  0  0  0  0  0
   -4.8273    1.3393    1.0269 C   0  0  0  0  0  0  0  0  0  0  0  0
   -5.8511    0.9928    0.1806 C   0  0  0  0  0  0  0  0  0  0  0  0
   -3.5886    0.6026    1.3437 C   0  0  0  0  0  0  0  0  0  0  0  0
   -2.4459    1.3785    1.2743 O   0  0  0  0  0  0  0  0  0  0  0  0
   -3.4840   -0.6664    0.5156 C   0  0  0  0  0  0  0  0  0  0  0  0
   -2.4009   -1.4989    0.9666 N   0  0  0  0  0  0  0  0  0  0  0  0
   -2.3733   -2.7133    0.1877 C   0  0  0  0  0  0  0  0  0  0  0  0
   -1.9206   -2.3984   -1.2119 C   0  0  0  0  0  0  0  0  0  0  0  0
   -0.5464   -1.8048   -1.1680 C   0  0  0  0  0  0  0  0  0  0  0  0
    0.4151   -2.7794   -0.5495 C   0  0  0  0  0  0  0  0  0  0  0  0
    1.8220   -2.1660   -0.5485 C   0  0  0  0  0  0  0  0  0  0  0  0
    2.7249   -3.1751    0.0839 C   0  0  0  0  0  0  0  0  0  0  0  0
    4.0330   -2.7699    0.1257 O   0  0  0  0  0  0  0  0  0  0  0  0
    4.2282   -1.6096    0.8471 C   0  0  0  0  0  0  0  0  0  0  0  0
    5.7284   -1.2680    0.8459 C   0  0  0  0  0  0  0  0  0  0  0  0
    6.1892   -1.0734   -0.5731 C   0  0  0  0  0  0  0  0  0  0  0  0
    5.5369    0.0523   -1.2973 C   0  0  0  0  0  0  0  0  0  0  0  0
    5.8646    1.3141   -0.5794 C   0  0  0  0  0  0  0  0  0  0  0  0
    7.0580    1.9077   -1.0206 C   0  0  0  0  0  0  0  0  0  0  0  0
    7.5539    3.0808   -0.4992 C   0  0  0  0  0  0  0  0  0  0  0  0
    6.8844    3.7434    0.5059 C   0  0  0  0  0  0  0  0  0  0  0  0
    5.7126    3.1437    0.9260 C   0  0  0  0  0  0  0  0  0  0  0  0
    5.2178    1.9817    0.4124 C   0  0  0  0  0  0  0  0  0  0  0  0
   -8.7660    1.4023   -2.8111 H   0  0  0  0  0  0  0  0  0  0  0  0
   -8.9860    1.1857   -0.5348 H   0  0  0  0  0  0  0  0  0  0  0  0
   -7.7710    0.0540   -1.2011 H   0  0  0  0  0  0  0  0  0  0  0  0
   -9.1222    3.1875    0.0061 H   0  0  0  0  0  0  0  0  0  0  0  0
   -6.3024    4.2982    1.9430 H   0  0  0  0  0  0  0  0  0  0  0  0
   -4.2899    2.9468    2.3484 H   0  0  0  0  0  0  0  0  0  0  0  0
   -5.7389    0.0506   -0.3361 H   0  0  0  0  0  0  0  0  0  0  0  0
   -3.7006    0.2383    2.4100 H   0  0  0  0  0  0  0  0  0  0  0  0
   -2.4896    2.0238    2.0242 H   0  0  0  0  0  0  0  0  0  0  0  0
   -3.3361   -0.3328   -0.5249 H   0  0  0  0  0  0  0  0  0  0  0  0
   -4.4589   -1.2068    0.5535 H   0  0  0  0  0  0  0  0  0  0  0  0
   -2.5477   -1.7284    1.9687 H   0  0  0  0  0  0  0  0  0  0  0  0
   -1.7061   -3.4800    0.6133 H   0  0  0  0  0  0  0  0  0  0  0  0
   -3.4065   -3.1762    0.1553 H   0  0  0  0  0  0  0  0  0  0  0  0
   -2.6558   -1.7718   -1.7240 H   0  0  0  0  0  0  0  0  0  0  0  0
   -1.8648   -3.3949   -1.7504 H   0  0  0  0  0  0  0  0  0  0  0  0
   -0.6313   -0.8881   -0.5136 H   0  0  0  0  0  0  0  0  0  0  0  0
   -0.1877   -1.4286   -2.1353 H   0  0  0  0  0  0  0  0  0  0  0  0
    0.2108   -3.0202    0.5065 H   0  0  0  0  0  0  0  0  0  0  0  0
    0.4376   -3.6947   -1.1752 H   0  0  0  0  0  0  0  0  0  0  0  0
    2.1181   -2.0013   -1.6034 H   0  0  0  0  0  0  0  0  0  0  0  0
    1.8292   -1.2419    0.0370 H   0  0  0  0  0  0  0  0  0  0  0  0
    2.6102   -4.1859   -0.3872 H   0  0  0  0  0  0  0  0  0  0  0  0
    2.4233   -3.3518    1.1620 H   0  0  0  0  0  0  0  0  0  0  0  0
    3.9358   -1.6830    1.9159 H   0  0  0  0  0  0  0  0  0  0  0  0
    3.7331   -0.7410    0.3823 H   0  0  0  0  0  0  0  0  0  0  0  0
    5.9314   -0.4176    1.5064 H   0  0  0  0  0  0  0  0  0  0  0  0
    6.2660   -2.1614    1.2400 H   0  0  0  0  0  0  0  0  0  0  0  0
    6.0185   -2.0568   -1.0955 H   0  0  0  0  0  0  0  0  0  0  0  0
    7.2933   -0.9424   -0.5396 H   0  0  0  0  0  0  0  0  0  0  0  0
    5.9227    0.0918   -2.3283 H   0  0  0  0  0  0  0  0  0  0  0  0
    4.4351   -0.0604   -1.3868 H   0  0  0  0  0  0  0  0  0  0  0  0
    7.6827    1.4862   -1.8099 H   0  0  0  0  0  0  0  0  0  0  0  0
    8.4769    3.5299   -0.8485 H   0  0  0  0  0  0  0  0  0  0  0  0
    7.2752    4.6530    0.9062 H   0  0  0  0  0  0  0  0  0  0  0  0
    5.1590    3.6356    1.7142 H   0  0  0  0  0  0  0  0  0  0  0  0
    4.3145    1.5183    0.7330 H   0  0  0  0  0  0  0  0  0  0  0  0
  1  2  1  0
  2  3  1  0
  3  4  2  0
  4  5  1  0
  4  6  1  0
  6  7  2  0
  7  8  1  0
  8  9  2  0
  8 10  1  0
 10 11  1  0
 10 12  1  0
 12 13  1  0
 13 14  1  0
 14 15  1  0
 15 16  1  0
 16 17  1  0
 17 18  1  0
 18 19  1  0
 19 20  1  0
 20 21  1  0
 21 22  1  0
 22 23  1  0
 23 24  1  0
 24 25  1  0
 25 26  2  0
 26 27  1  0
 27 28  2  0
 28 29  1  0
 29 30  2  0
  9  3  1  0
 30 25  1  0
  1 31  1  0
  2 32  1  0
  2 33  1  0
  5 34  1  0
  6 35  1  0
  7 36  1  0
  9 37  1  0
 10 38  1  0
 11 39  1  0
 12 40  1  0
 12 41  1  0
 13 42  1  0
 14 43  1  0
 14 44  1  0
 15 45  1  0
 15 46  1  0
 16 47  1  0
 16 48  1  0
 17 49  1  0
 17 50  1  0
 18 51  1  0
 18 52  1  0
 19 53  1  0
 19 54  1  0
 21 55  1  0
 21 56  1  0
 22 57  1  0
 22 58  1  0
 23 59  1  0
 23 60  1  0
 24 61  1  0
 24 62  1  0
 26 63  1  0
 27 64  1  0
 28 65  1  0
 29 66  1  0
 30 67  1  0
M  END
$$$$
