
     RDKit          3D

 40 41  0  0  0  0  0  0  0  0999 V2000
    6.0316    1.7599    0.3609 O   0  0  0  0  0  0  0  0  0  0  0  0
    5.7423    0.5481    0.1581 C   0  0  0  0  0  0  0  0  0  0  0  0
    6.6410   -0.4075    0.6376 O   0  0  0  0  0  0  0  0  0  0  0  0
    4.5207    0.1351   -0.5464 C   0  0  0  0  0  0  0  0  0  0  0  0
    3.3011    0.8136    0.0373 C   0  0  0  0  0  0  0  0  0  0  0  0
    2.0421    0.4223   -0.6917 C   0  0  0  0  0  0  0  0  0  0  0  0
    0.8189    1.1089    0.0072 C   0  0  0  0  0  0  0  0  0  0  0  0
   -0.3416    0.6987   -0.7673 C   0  0  0  0  0  0  0  0  0  0  0  0
   -1.4395    0.1783   -0.3366 C   0  0  0  0  0  0  0  0  0  0  0  0
   -1.6915   -0.0741    1.0539 C   0  0  0  0  0  0  0  0  0  0  0  0
   -1.2905    0.6701    2.1266 C   0  0  0  0  0  0  0  0  0  0  0  0
   -1.4442    0.2891    3.4505 C   0  0  0  0  0  0  0  0  0  0  0  0
   -2.0336   -0.9002    3.7451 C   0  0  0  0  0  0  0  0  0  0  0  0
   -2.4750   -1.7177    2.6988 C   0  0  0  0  0  0  0  0  0  0  0  0
   -2.3005   -1.3028    1.4024 C   0  0  0  0  0  0  0  0  0  0  0  0
   -2.5049   -0.2003   -1.3018 C   0  0  0  0  0  0  0  0  0  0  0  0
   -2.2829   -0.3167   -2.6501 C   0  0  0  0  0  0  0  0  0  0  0  0
   -3.2745   -0.5994   -3.5703 C   0  0  0  0  0  0  0  0  0  0  0  0
   -4.5537   -0.7724   -3.1000 C   0  0  0  0  0  0  0  0  0  0  0  0
   -4.7846   -0.6603   -1.7792 N   0  0  0  0  0  0  0  0  0  0  0  0
   -3.8227   -0.3848   -0.8823 C   0  0  0  0  0  0  0  0  0  0  0  0
    7.5102   -0.1637    1.0824 H   0  0  0  0  0  0  0  0  0  0  0  0
    4.3817   -0.9753   -0.3942 H   0  0  0  0  0  0  0  0  0  0  0  0
    4.6049    0.2813   -1.6306 H   0  0  0  0  0  0  0  0  0  0  0  0
    3.1982    0.5310    1.1101 H   0  0  0  0  0  0  0  0  0  0  0  0
    3.4152    1.9348   -0.0801 H   0  0  0  0  0  0  0  0  0  0  0  0
    1.8440   -0.6509   -0.7285 H   0  0  0  0  0  0  0  0  0  0  0  0
    2.0683    0.8270   -1.7173 H   0  0  0  0  0  0  0  0  0  0  0  0
    0.9995    2.1834   -0.0826 H   0  0  0  0  0  0  0  0  0  0  0  0
    0.8418    0.7188    1.0607 H   0  0  0  0  0  0  0  0  0  0  0  0
   -0.2396    0.8805   -1.8674 H   0  0  0  0  0  0  0  0  0  0  0  0
   -0.8559    1.6674    1.9338 H   0  0  0  0  0  0  0  0  0  0  0  0
   -1.1066    0.9185    4.2779 H   0  0  0  0  0  0  0  0  0  0  0  0
   -2.2031   -1.2874    4.7594 H   0  0  0  0  0  0  0  0  0  0  0  0
   -2.9519   -2.6686    2.8795 H   0  0  0  0  0  0  0  0  0  0  0  0
   -2.6044   -1.9304    0.5864 H   0  0  0  0  0  0  0  0  0  0  0  0
   -1.2564   -0.1916   -3.0200 H   0  0  0  0  0  0  0  0  0  0  0  0
   -3.0936   -0.6896   -4.6158 H   0  0  0  0  0  0  0  0  0  0  0  0
   -5.3555   -0.9923   -3.7691 H   0  0  0  0  0  0  0  0  0  0  0  0
   -4.0550   -0.2671    0.1627 H   0  0  0  0  0  0  0  0  0  0  0  0
  1  2  2  0
  2  3  1  0
  2  4  1  0
  4  5  1  0
  5  6  1  0
  6  7  1  0
  7  8  1  0
  8  9  2  0
  9 10  1  0
 10 11  2  0
 11 12  1  0
 12 13  2  0
 13 14  1  0
 14 15  2  0
  9 16  1  0
 16 17  2  0
 17 18  1  0
 18 19  2  0
 19 20  1  0
 20 21  2  0
 15 10  1  0
 21 16  1  0
  3 22  1  0
  4 23  1  0
  4 24  1  0
  5 25  1  0
  5 26  1  0
  6 27  1  0
  6 28  1  0
  7 29  1  0
  7 30  1  0
  8 31  1  0
 11 32  1  0
 12 33  1  0
 13 34  1  0
 14 35  1  0
 15 36  1  0
 17 37  1  0
 18 38  1  0
 19 39  1  0
 21 40  1  0
M  END
$$$$
