
     RDKit          3D

 66 71  0  0  0  0  0  0  0  0999 V2000
   -5.9385   -1.3022   -1.0629 C   0  0  0  0  0  0  0  0  0  0  0  0
   -4.7610   -0.8028   -1.5832 C   0  0  0  0  0  0  0  0  0  0  0  0
   -3.5285   -1.4033   -1.2942 C   0  0  0  0  0  0  0  0  0  0  0  0
   -3.4537   -2.5117   -0.4809 C   0  0  0  0  0  0  0  0  0  0  0  0
   -2.1865   -3.1958   -0.1298 C   0  0  0  0  0  0  0  0  0  0  0  0
   -1.7209   -2.6619    1.1419 N   0  0  0  0  0  0  0  0  0  0  0  0
   -2.0764   -3.1870    2.3290 N   0  0  0  0  0  0  0  0  0  0  0  0
   -1.5030   -2.5057    3.3046 N   0  0  0  0  0  0  0  0  0  0  0  0
   -0.7944   -1.5604    2.7204 N   0  0  0  0  0  0  0  0  0  0  0  0
   -0.9055   -1.6272    1.3943 C   0  0  0  0  0  0  0  0  0  0  0  0
   -0.2952   -0.7674    0.3449 C   0  0  0  0  0  0  0  0  0  0  0  0
   -1.0757    0.5026    0.1960 C   0  0  0  0  0  0  0  0  0  0  0  0
   -0.7189    1.4807   -0.6994 C   0  0  0  0  0  0  0  0  0  0  0  0
   -1.4461    2.6685   -0.8322 C   0  0  0  0  0  0  0  0  0  0  0  0
   -2.5556    2.8948   -0.0594 C   0  0  0  0  0  0  0  0  0  0  0  0
   -3.3180    4.0830   -0.1657 N   0  0  0  0  0  0  0  0  0  0  0  0
   -2.8641    5.3060   -0.4696 C   0  0  0  0  0  0  0  0  0  0  0  0
   -3.9220    6.1645   -0.4675 N   0  0  0  0  0  0  0  0  0  0  0  0
   -5.0256    5.4404   -0.1570 C   0  0  0  0  0  0  0  0  0  0  0  0
   -4.6179    4.1813    0.0189 N   0  0  0  0  0  0  0  0  0  0  0  0
   -2.9144    1.8947    0.8510 C   0  0  0  0  0  0  0  0  0  0  0  0
   -2.1918    0.7365    0.9696 C   0  0  0  0  0  0  0  0  0  0  0  0
    1.1052   -0.5727    0.4920 N   0  0  0  0  0  0  0  0  0  0  0  0
    1.4500    0.1063    1.6669 C   0  0  0  0  0  0  0  0  0  0  0  0
    2.8958    0.5517    1.7341 C   0  0  0  0  0  0  0  0  0  0  0  0
    3.8481   -0.6086    1.5468 C   0  0  0  0  0  0  0  0  0  0  0  0
    4.0921   -0.7757    0.1705 N   0  0  0  0  0  0  0  0  0  0  0  0
    5.2074   -0.1638   -0.3905 C   0  0  0  0  0  0  0  0  0  0  0  0
    5.5175   -0.3317   -1.8384 C   0  0  0  0  0  0  0  0  0  0  0  0
    6.9933   -0.1473   -1.4436 C   0  0  0  0  0  0  0  0  0  0  0  0
    6.5840   -0.7820   -0.1048 C   0  0  0  0  0  0  0  0  0  0  0  0
    3.1141   -1.3861   -0.6315 C   0  0  0  0  0  0  0  0  0  0  0  0
    1.8960   -0.4354   -0.6601 C   0  0  0  0  0  0  0  0  0  0  0  0
   -4.6513   -2.9977    0.0316 C   0  0  0  0  0  0  0  0  0  0  0  0
   -5.8666   -2.4112   -0.2494 C   0  0  0  0  0  0  0  0  0  0  0  0
   -6.8826   -0.8186   -1.3021 H   0  0  0  0  0  0  0  0  0  0  0  0
   -4.8237    0.0715   -2.2238 H   0  0  0  0  0  0  0  0  0  0  0  0
   -2.6324   -1.0082   -1.7045 H   0  0  0  0  0  0  0  0  0  0  0  0
   -2.4333   -4.2823   -0.0340 H   0  0  0  0  0  0  0  0  0  0  0  0
   -1.4170   -3.0802   -0.9210 H   0  0  0  0  0  0  0  0  0  0  0  0
   -0.4489   -1.2960   -0.6371 H   0  0  0  0  0  0  0  0  0  0  0  0
    0.1377    1.3649   -1.3390 H   0  0  0  0  0  0  0  0  0  0  0  0
   -1.1676    3.4399   -1.5360 H   0  0  0  0  0  0  0  0  0  0  0  0
   -1.8288    5.5375   -0.6757 H   0  0  0  0  0  0  0  0  0  0  0  0
   -6.0351    5.8417   -0.0750 H   0  0  0  0  0  0  0  0  0  0  0  0
   -3.7894    2.0886    1.4506 H   0  0  0  0  0  0  0  0  0  0  0  0
   -2.5003   -0.0088    1.6814 H   0  0  0  0  0  0  0  0  0  0  0  0
    1.3389   -0.5959    2.5454 H   0  0  0  0  0  0  0  0  0  0  0  0
    0.8266    1.0191    1.7835 H   0  0  0  0  0  0  0  0  0  0  0  0
    3.0522    1.0356    2.7116 H   0  0  0  0  0  0  0  0  0  0  0  0
    3.1099    1.2845    0.9271 H   0  0  0  0  0  0  0  0  0  0  0  0
    4.8112   -0.3188    2.0442 H   0  0  0  0  0  0  0  0  0  0  0  0
    3.5124   -1.5237    2.0828 H   0  0  0  0  0  0  0  0  0  0  0  0
    5.2790    0.9179   -0.0745 H   0  0  0  0  0  0  0  0  0  0  0  0
    5.3923   -1.3559   -2.2064 H   0  0  0  0  0  0  0  0  0  0  0  0
    5.1414    0.4771   -2.5029 H   0  0  0  0  0  0  0  0  0  0  0  0
    7.1836    0.9416   -1.3564 H   0  0  0  0  0  0  0  0  0  0  0  0
    7.6938   -0.7340   -2.0349 H   0  0  0  0  0  0  0  0  0  0  0  0
    6.5889   -1.8897   -0.1930 H   0  0  0  0  0  0  0  0  0  0  0  0
    7.0988   -0.3593    0.7737 H   0  0  0  0  0  0  0  0  0  0  0  0
    3.4549   -1.5305   -1.6525 H   0  0  0  0  0  0  0  0  0  0  0  0
    2.7335   -2.3283   -0.1411 H   0  0  0  0  0  0  0  0  0  0  0  0
    2.3061    0.5914   -0.8241 H   0  0  0  0  0  0  0  0  0  0  0  0
    1.3341   -0.6996   -1.5772 H   0  0  0  0  0  0  0  0  0  0  0  0
   -4.6041   -3.8675    0.6707 H   0  0  0  0  0  0  0  0  0  0  0  0
   -6.8039   -2.7872    0.1479 H   0  0  0  0  0  0  0  0  0  0  0  0
  1  2  2  0
  2  3  1  0
  3  4  2  0
  4  5  1  0
  5  6  1  0
  6  7  1  0
  7  8  2  0
  8  9  1  0
  9 10  2  0
 10 11  1  0
 11 12  1  0
 12 13  2  0
 13 14  1  0
 14 15  2  0
 15 16  1  0
 16 17  1  0
 17 18  2  0
 18 19  1  0
 19 20  2  0
 15 21  1  0
 21 22  2  0
 11 23  1  0
 23 24  1  0
 24 25  1  0
 25 26  1  0
 26 27  1  0
 27 28  1  0
 28 29  1  0
 29 30  1  0
 30 31  1  0
 27 32  1  0
 32 33  1  0
  4 34  1  0
 34 35  2  0
 35  1  1  0
 10  6  1  0
 22 12  1  0
 33 23  1  0
 20 16  1  0
 31 28  1  0
  1 36  1  0
  2 37  1  0
  3 38  1  0
  5 39  1  0
  5 40  1  0
 11 41  1  0
 13 42  1  0
 14 43  1  0
 17 44  1  0
 19 45  1  0
 21 46  1  0
 22 47  1  0
 24 48  1  0
 24 49  1  0
 25 50  1  0
 25 51  1  0
 26 52  1  0
 26 53  1  0
 28 54  1  0
 29 55  1  0
 29 56  1  0
 30 57  1  0
 30 58  1  0
 31 59  1  0
 31 60  1  0
 32 61  1  0
 32 62  1  0
 33 63  1  0
 33 64  1  0
 34 65  1  0
 35 66  1  0
M  END
$$$$
