
     RDKit          3D

 64 67  0  0  0  0  0  0  0  0999 V2000
   -6.1166   -1.8846    2.1487 C   0  0  0  0  0  0  0  0  0  0  0  0
   -6.3288   -0.9963    1.0509 N   0  0  0  0  0  0  0  0  0  0  0  0
   -6.4954    0.3771    1.3707 C   0  0  0  0  0  0  0  0  0  0  0  0
   -5.3849   -1.2683    0.0117 C   0  0  0  0  0  0  0  0  0  0  0  0
   -5.4923   -0.3869   -1.1855 C   0  0  0  0  0  0  0  0  0  0  0  0
   -4.4362   -0.8048   -2.1903 C   0  0  0  0  0  0  0  0  0  0  0  0
   -3.0936   -0.7043   -1.6332 N   0  0  0  0  0  0  0  0  0  0  0  0
   -2.3853   -1.5887   -0.9964 N   0  0  0  0  0  0  0  0  0  0  0  0
   -1.1783   -1.1243   -0.6336 C   0  0  0  0  0  0  0  0  0  0  0  0
   -0.1325   -1.8761    0.1010 C   0  0  0  0  0  0  0  0  0  0  0  0
   -0.3912   -3.1802    0.4643 C   0  0  0  0  0  0  0  0  0  0  0  0
    0.4976   -3.9401    1.1303 N   0  0  0  0  0  0  0  0  0  0  0  0
    1.7029   -3.3974    1.4592 C   0  0  0  0  0  0  0  0  0  0  0  0
    2.7873   -3.8417    2.0944 N   0  0  0  0  0  0  0  0  0  0  0  0
    3.7238   -2.8797    2.1522 C   0  0  0  0  0  0  0  0  0  0  0  0
    3.2271   -1.7396    1.5196 C   0  0  0  0  0  0  0  0  0  0  0  0
    3.9152   -0.4587    1.3542 C   0  0  0  0  0  0  0  0  0  0  0  0
    3.5050    0.6191    1.8470 O   0  0  0  0  0  0  0  0  0  0  0  0
    5.1366   -0.4030    0.5861 N   0  0  0  0  0  0  0  0  0  0  0  0
    5.8596    0.8189    0.3883 C   0  0  0  0  0  0  0  0  0  0  0  0
    6.3135    1.4290    1.7065 C   0  0  0  0  0  0  0  0  0  0  0  0
    7.1275    0.4964   -0.3768 C   0  0  0  0  0  0  0  0  0  0  0  0
    5.0991    1.8476   -0.3932 C   0  0  0  0  0  0  0  0  0  0  0  0
    1.9633   -2.0930    1.0966 C   0  0  0  0  0  0  0  0  0  0  0  0
    1.0497   -1.3346    0.4204 N   0  0  0  0  0  0  0  0  0  0  0  0
   -1.1172    0.1786   -1.0845 C   0  0  0  0  0  0  0  0  0  0  0  0
   -0.1789    1.1470   -1.0221 C   0  0  0  0  0  0  0  0  0  0  0  0
   -0.4263    2.4061   -1.5902 C   0  0  0  0  0  0  0  0  0  0  0  0
    0.5343    3.3553   -1.5099 O   0  0  0  0  0  0  0  0  0  0  0  0
    0.4899    4.6522   -2.0091 C   0  0  0  0  0  0  0  0  0  0  0  0
    1.5839    4.9223   -2.8418 F   0  0  0  0  0  0  0  0  0  0  0  0
    0.5776    5.5985   -0.9849 F   0  0  0  0  0  0  0  0  0  0  0  0
   -1.6242    2.6454   -2.2083 C   0  0  0  0  0  0  0  0  0  0  0  0
   -2.5599    1.6437   -2.2569 C   0  0  0  0  0  0  0  0  0  0  0  0
   -2.3503    0.4007   -1.7108 C   0  0  0  0  0  0  0  0  0  0  0  0
   -6.6628   -2.8429    2.0705 H   0  0  0  0  0  0  0  0  0  0  0  0
   -6.4126   -1.3958    3.1110 H   0  0  0  0  0  0  0  0  0  0  0  0
   -5.0164   -2.1346    2.2022 H   0  0  0  0  0  0  0  0  0  0  0  0
   -7.3451    0.8674    0.8542 H   0  0  0  0  0  0  0  0  0  0  0  0
   -5.5759    0.9817    1.1739 H   0  0  0  0  0  0  0  0  0  0  0  0
   -6.7082    0.4708    2.4553 H   0  0  0  0  0  0  0  0  0  0  0  0
   -5.3829   -2.3277   -0.2927 H   0  0  0  0  0  0  0  0  0  0  0  0
   -4.3658   -1.1048    0.4739 H   0  0  0  0  0  0  0  0  0  0  0  0
   -5.4399    0.6671   -0.9207 H   0  0  0  0  0  0  0  0  0  0  0  0
   -6.4712   -0.6548   -1.6822 H   0  0  0  0  0  0  0  0  0  0  0  0
   -4.5302   -0.2852   -3.1445 H   0  0  0  0  0  0  0  0  0  0  0  0
   -4.6430   -1.8918   -2.4026 H   0  0  0  0  0  0  0  0  0  0  0  0
   -1.3771   -3.5914    0.1847 H   0  0  0  0  0  0  0  0  0  0  0  0
    2.8923   -4.8084    2.4940 H   0  0  0  0  0  0  0  0  0  0  0  0
    4.6969   -2.9669    2.6081 H   0  0  0  0  0  0  0  0  0  0  0  0
    5.4603   -1.3199    0.1827 H   0  0  0  0  0  0  0  0  0  0  0  0
    6.7838    0.6671    2.3621 H   0  0  0  0  0  0  0  0  0  0  0  0
    5.4537    1.8378    2.2811 H   0  0  0  0  0  0  0  0  0  0  0  0
    7.0411    2.2319    1.5617 H   0  0  0  0  0  0  0  0  0  0  0  0
    6.9179    0.2458   -1.4163 H   0  0  0  0  0  0  0  0  0  0  0  0
    7.6169   -0.3579    0.1738 H   0  0  0  0  0  0  0  0  0  0  0  0
    7.8737    1.3324   -0.2792 H   0  0  0  0  0  0  0  0  0  0  0  0
    5.8328    2.5924   -0.7937 H   0  0  0  0  0  0  0  0  0  0  0  0
    4.4074    2.4458    0.2679 H   0  0  0  0  0  0  0  0  0  0  0  0
    4.5991    1.4115   -1.2576 H   0  0  0  0  0  0  0  0  0  0  0  0
    0.7570    0.9296   -0.5289 H   0  0  0  0  0  0  0  0  0  0  0  0
   -0.4145    4.9037   -2.5880 H   0  0  0  0  0  0  0  0  0  0  0  0
   -1.8866    3.6079   -2.6743 H   0  0  0  0  0  0  0  0  0  0  0  0
   -3.5028    1.8535   -2.7508 H   0  0  0  0  0  0  0  0  0  0  0  0
  1  2  1  0
  2  3  1  0
  2  4  1  0
  4  5  1  0
  5  6  1  0
  6  7  1  0
  7  8  1  0
  8  9  2  0
  9 10  1  0
 10 11  2  0
 11 12  1  0
 12 13  2  0
 13 14  1  0
 14 15  1  0
 15 16  2  0
 16 17  1  0
 17 18  2  0
 17 19  1  0
 19 20  1  0
 20 21  1  0
 20 22  1  0
 20 23  1  0
 16 24  1  0
 24 25  2  0
  9 26  1  0
 26 27  2  0
 27 28  1  0
 28 29  1  0
 29 30  1  0
 30 31  1  0
 30 32  1  0
 28 33  2  0
 33 34  1  0
 34 35  2  0
 35  7  1  0
 25 10  1  0
 35 26  1  0
 24 13  1  0
  1 36  1  0
  1 37  1  0
  1 38  1  0
  3 39  1  0
  3 40  1  0
  3 41  1  0
  4 42  1  0
  4 43  1  0
  5 44  1  0
  5 45  1  0
  6 46  1  0
  6 47  1  0
 11 48  1  0
 14 49  1  0
 15 50  1  0
 19 51  1  0
 21 52  1  0
 21 53  1  0
 21 54  1  0
 22 55  1  0
 22 56  1  0
 22 57  1  0
 23 58  1  0
 23 59  1  0
 23 60  1  0
 27 61  1  0
 30 62  1  0
 33 63  1  0
 34 64  1  0
M  END
$$$$
