
     RDKit          3D

 72 77  0  0  0  0  0  0  0  0999 V2000
    5.6286    3.9829    1.9858 O   0  0  0  0  0  0  0  0  0  0  0  0
    6.8757    3.8614    1.9020 C   0  0  0  0  0  0  0  0  0  0  0  0
    7.6639    4.9452    2.2424 O   0  0  0  0  0  0  0  0  0  0  0  0
    7.5205    2.5926    1.4498 C   0  0  0  0  0  0  0  0  0  0  0  0
    6.5717    1.6127    1.1499 O   0  0  0  0  0  0  0  0  0  0  0  0
    6.8605    0.3448    0.7087 C   0  0  0  0  0  0  0  0  0  0  0  0
    8.1210   -0.1612    0.4932 C   0  0  0  0  0  0  0  0  0  0  0  0
    8.3149   -1.4522    0.0471 C   0  0  0  0  0  0  0  0  0  0  0  0
    7.2327   -2.2770   -0.1964 C   0  0  0  0  0  0  0  0  0  0  0  0
    7.1250   -3.5631   -0.6313 N   0  0  0  0  0  0  0  0  0  0  0  0
    5.8149   -3.8867   -0.6965 C   0  0  0  0  0  0  0  0  0  0  0  0
    5.0567   -2.8247   -0.3083 C   0  0  0  0  0  0  0  0  0  0  0  0
    3.6020   -2.6587   -0.1985 C   0  0  0  0  0  0  0  0  0  0  0  0
    3.0696   -1.8157   -1.3661 C   0  0  2  0  0  0  0  0  0  0  0  0
    1.6300   -1.7053   -1.1769 N   0  0  0  0  0  0  0  0  0  0  0  0
    1.0490   -0.4216   -0.9902 C   0  0  0  0  0  0  0  0  0  0  0  0
    1.8723    0.5624   -1.0047 O   0  0  0  0  0  0  0  0  0  0  0  0
   -0.3725   -0.1898   -0.7927 C   0  0  0  0  0  0  0  0  0  0  0  0
   -1.2527   -1.2355   -0.7994 C   0  0  0  0  0  0  0  0  0  0  0  0
   -2.6117   -0.9893   -0.6052 C   0  0  0  0  0  0  0  0  0  0  0  0
   -3.0630    0.2973   -0.4085 C   0  0  0  0  0  0  0  0  0  0  0  0
   -2.1643    1.3354   -0.4050 C   0  0  0  0  0  0  0  0  0  0  0  0
   -0.8183    1.0922   -0.5973 C   0  0  0  0  0  0  0  0  0  0  0  0
   -2.8617    2.4613   -0.1953 N   0  0  0  0  0  0  0  0  0  0  0  0
   -4.1510    2.1059   -0.0755 C   0  0  0  0  0  0  0  0  0  0  0  0
   -5.2131    3.0826    0.1638 C   0  0  0  0  0  0  0  0  0  0  0  0
   -5.8842    3.7735   -0.8142 C   0  0  0  0  0  0  0  0  0  0  0  0
   -6.7875    4.5770   -0.1557 C   0  0  0  0  0  0  0  0  0  0  0  0
   -6.6482    4.3647    1.1230 O   0  0  0  0  0  0  0  0  0  0  0  0
   -5.7205    3.4796    1.3801 C   0  0  0  0  0  0  0  0  0  0  0  0
   -4.3176    0.7959   -0.1991 N   0  0  0  0  0  0  0  0  0  0  0  0
   -5.4817   -0.0217   -0.1455 C   0  0  0  0  0  0  0  0  0  0  0  0
   -6.7433    0.6317   -0.6548 C   0  0  0  0  0  0  0  0  0  0  0  0
   -7.7759   -0.5061   -0.7337 C   0  0  0  0  0  0  0  0  0  0  0  0
   -8.0910   -0.8633    0.7144 C   0  0  0  0  0  0  0  0  0  0  0  0
   -6.8671   -1.5095    1.3108 C   0  0  0  0  0  0  0  0  0  0  0  0
   -5.6629   -0.6011    1.2367 C   0  0  0  0  0  0  0  0  0  0  0  0
    3.3153   -2.5832   -2.6036 C   0  0  0  0  0  0  0  0  0  0  0  0
    2.3395   -2.9995   -3.2685 O   0  0  0  0  0  0  0  0  0  0  0  0
    4.5868   -2.8535   -3.0455 O   0  0  0  0  0  0  0  0  0  0  0  0
    5.9583   -1.8046    0.0083 C   0  0  0  0  0  0  0  0  0  0  0  0
    5.7889   -0.5123    0.4539 C   0  0  0  0  0  0  0  0  0  0  0  0
    7.3566    5.9118    2.1044 H   0  0  0  0  0  0  0  0  0  0  0  0
    8.1850    2.2787    2.2841 H   0  0  0  0  0  0  0  0  0  0  0  0
    8.0988    2.8039    0.5307 H   0  0  0  0  0  0  0  0  0  0  0  0
    8.9509    0.4748    0.6813 H   0  0  0  0  0  0  0  0  0  0  0  0
    9.3122   -1.8402   -0.1191 H   0  0  0  0  0  0  0  0  0  0  0  0
    7.8929   -4.2130   -0.8792 H   0  0  0  0  0  0  0  0  0  0  0  0
    5.3778   -4.8455   -1.0093 H   0  0  0  0  0  0  0  0  0  0  0  0
    3.0324   -3.6010   -0.1115 H   0  0  0  0  0  0  0  0  0  0  0  0
    3.3989   -2.0944    0.7544 H   0  0  0  0  0  0  0  0  0  0  0  0
    3.5536   -0.8166   -1.3628 H   0  0  0  0  0  0  0  0  0  0  0  0
    1.0144   -2.5506   -1.1747 H   0  0  0  0  0  0  0  0  0  0  0  0
   -0.9591   -2.2746   -0.9491 H   0  0  0  0  0  0  0  0  0  0  0  0
   -3.3229   -1.8172   -0.6086 H   0  0  0  0  0  0  0  0  0  0  0  0
   -0.0900    1.8886   -0.5993 H   0  0  0  0  0  0  0  0  0  0  0  0
   -5.7712    3.7365   -1.8950 H   0  0  0  0  0  0  0  0  0  0  0  0
   -7.4949    5.2703   -0.6366 H   0  0  0  0  0  0  0  0  0  0  0  0
   -5.4066    3.1222    2.3728 H   0  0  0  0  0  0  0  0  0  0  0  0
   -5.3177   -0.9106   -0.8239 H   0  0  0  0  0  0  0  0  0  0  0  0
   -7.1851    1.3455    0.0858 H   0  0  0  0  0  0  0  0  0  0  0  0
   -6.5395    1.0717   -1.6308 H   0  0  0  0  0  0  0  0  0  0  0  0
   -7.2267   -1.4001   -1.1483 H   0  0  0  0  0  0  0  0  0  0  0  0
   -8.6517   -0.2336   -1.3166 H   0  0  0  0  0  0  0  0  0  0  0  0
   -8.9486   -1.5350    0.7990 H   0  0  0  0  0  0  0  0  0  0  0  0
   -8.2305    0.1142    1.2476 H   0  0  0  0  0  0  0  0  0  0  0  0
   -6.6133   -2.4565    0.7688 H   0  0  0  0  0  0  0  0  0  0  0  0
   -7.0439   -1.7346    2.3863 H   0  0  0  0  0  0  0  0  0  0  0  0
   -4.7531   -1.2123    1.4554 H   0  0  0  0  0  0  0  0  0  0  0  0
   -5.6863    0.2078    1.9766 H   0  0  0  0  0  0  0  0  0  0  0  0
    4.7855   -2.9996   -4.0465 H   0  0  0  0  0  0  0  0  0  0  0  0
    4.7726   -0.1542    0.6105 H   0  0  0  0  0  0  0  0  0  0  0  0
  1  2  2  0
  2  3  1  0
  2  4  1  0
  4  5  1  0
  5  6  1  0
  6  7  2  0
  7  8  1  0
  8  9  2  0
  9 10  1  0
 10 11  1  0
 11 12  2  0
 12 13  1  0
 13 14  1  0
 14 15  1  0
 15 16  1  0
 16 17  2  0
 16 18  1  0
 18 19  2  0
 19 20  1  0
 20 21  2  0
 21 22  1  0
 22 23  2  0
 22 24  1  0
 24 25  2  0
 25 26  1  0
 26 27  1  0
 27 28  2  0
 28 29  1  0
 29 30  1  0
 25 31  1  0
 31 32  1  0
 32 33  1  0
 33 34  1  0
 34 35  1  0
 35 36  1  0
 36 37  1  0
 14 38  1  0
 38 39  2  0
 38 40  1  0
 12 41  1  0
 41 42  2  0
 42  6  1  0
 41  9  1  0
 23 18  1  0
 30 26  2  0
 37 32  1  0
 31 21  1  0
  3 43  1  0
  4 44  1  0
  4 45  1  0
  7 46  1  0
  8 47  1  0
 10 48  1  0
 11 49  1  0
 13 50  1  0
 13 51  1  0
 14 52  1  6
 15 53  1  0
 19 54  1  0
 20 55  1  0
 23 56  1  0
 27 57  1  0
 28 58  1  0
 30 59  1  0
 32 60  1  0
 33 61  1  0
 33 62  1  0
 34 63  1  0
 34 64  1  0
 35 65  1  0
 35 66  1  0
 36 67  1  0
 36 68  1  0
 37 69  1  0
 37 70  1  0
 40 71  1  0
 42 72  1  0
M  END
$$$$
