
     RDKit          3D

 53 55  0  0  0  0  0  0  0  0999 V2000
    1.6265   -3.5085    1.3521 C   0  0  0  0  0  0  0  0  0  0  0  0
    2.0676   -2.5298    0.6359 C   0  0  0  0  0  0  0  0  0  0  0  0
    2.7747   -2.9192   -0.6428 C   0  0  0  0  0  0  0  0  0  0  0  0
    1.8594   -1.1474    0.9003 C   0  0  0  0  0  0  0  0  0  0  0  0
    2.8893   -0.3081    0.3823 C   0  0  0  0  0  0  0  0  0  0  0  0
    2.8414    1.0068    0.5391 N   0  0  0  0  0  0  0  0  0  0  0  0
    1.8137    1.6343    1.1997 C   0  0  0  0  0  0  0  0  0  0  0  0
    1.8785    3.0815    1.3081 C   0  0  0  0  0  0  0  0  0  0  0  0
    2.9622    3.7535    0.7474 C   0  0  0  0  0  0  0  0  0  0  0  0
    3.0926    5.1287    0.8105 C   0  0  0  0  0  0  0  0  0  0  0  0
    4.4541    5.9381    0.1027 Cl  0  0  0  0  0  0  0  0  0  0  0  0
    2.1160    5.8683    1.4515 C   0  0  0  0  0  0  0  0  0  0  0  0
    1.0368    5.2335    2.0134 C   0  0  0  0  0  0  0  0  0  0  0  0
    0.9469    3.8419    1.9252 C   0  0  0  0  0  0  0  0  0  0  0  0
   -0.1429    3.3058    2.5030 F   0  0  0  0  0  0  0  0  0  0  0  0
    0.8416    0.8308    1.6837 C   0  0  0  0  0  0  0  0  0  0  0  0
    0.8184   -0.5972    1.5533 C   0  0  0  0  0  0  0  0  0  0  0  0
   -0.3188   -1.2525    2.0101 N   0  0  0  0  0  0  0  0  0  0  0  0
   -1.2728   -2.1564    1.5255 C   0  0  0  0  0  0  0  0  0  0  0  0
   -1.5404   -3.3080    2.3255 C   0  0  0  0  0  0  0  0  0  0  0  0
   -2.4270   -4.2289    1.8973 C   0  0  0  0  0  0  0  0  0  0  0  0
   -3.0684   -4.0710    0.7125 N   0  0  0  0  0  0  0  0  0  0  0  0
   -2.8251   -2.9959   -0.0424 C   0  0  0  0  0  0  0  0  0  0  0  0
   -1.9223   -1.9952    0.3264 C   0  0  0  0  0  0  0  0  0  0  0  0
   -1.7548   -0.8498   -0.5632 C   0  0  0  0  0  0  0  0  0  0  0  0
   -1.0726    0.1389   -0.3044 O   0  0  0  0  0  0  0  0  0  0  0  0
   -2.3969   -0.8050   -1.8397 N   0  0  0  0  0  0  0  0  0  0  0  0
   -2.2394    0.3306   -2.7351 C   0  0  2  0  0  0  0  0  0  0  0  0
   -3.5884    0.9691   -2.9908 C   0  0  0  0  0  0  0  0  0  0  0  0
   -1.5994   -0.0668   -4.0427 C   0  0  0  0  0  0  0  0  0  0  0  0
   -1.5023    1.1000   -4.8122 O   0  0  0  0  0  0  0  0  0  0  0  0
    1.1080   -3.4206    2.2899 H   0  0  0  0  0  0  0  0  0  0  0  0
    1.7541   -4.5664    1.0409 H   0  0  0  0  0  0  0  0  0  0  0  0
    2.6127   -3.9759   -0.9025 H   0  0  0  0  0  0  0  0  0  0  0  0
    2.4294   -2.2231   -1.4301 H   0  0  0  0  0  0  0  0  0  0  0  0
    3.8619   -2.7725   -0.4836 H   0  0  0  0  0  0  0  0  0  0  0  0
    3.7222   -0.7740   -0.1473 H   0  0  0  0  0  0  0  0  0  0  0  0
    3.7302    3.1851    0.2446 H   0  0  0  0  0  0  0  0  0  0  0  0
    2.2388    6.9616    1.4906 H   0  0  0  0  0  0  0  0  0  0  0  0
    0.2821    5.8289    2.5111 H   0  0  0  0  0  0  0  0  0  0  0  0
    0.0118    1.2301    2.2070 H   0  0  0  0  0  0  0  0  0  0  0  0
   -0.5351   -0.9765    3.0782 H   0  0  0  0  0  0  0  0  0  0  0  0
   -1.0023   -3.3779    3.2798 H   0  0  0  0  0  0  0  0  0  0  0  0
   -2.6419   -5.1231    2.5061 H   0  0  0  0  0  0  0  0  0  0  0  0
   -3.3538   -2.9117   -0.9613 H   0  0  0  0  0  0  0  0  0  0  0  0
   -2.9875   -1.5726   -2.1713 H   0  0  0  0  0  0  0  0  0  0  0  0
   -1.5777    1.0636   -2.2413 H   0  0  0  0  0  0  0  0  0  0  0  0
   -4.3796    0.4220   -2.4066 H   0  0  0  0  0  0  0  0  0  0  0  0
   -3.8587    0.8032   -4.0645 H   0  0  0  0  0  0  0  0  0  0  0  0
   -3.5786    2.0553   -2.7523 H   0  0  0  0  0  0  0  0  0  0  0  0
   -2.1623   -0.8114   -4.6056 H   0  0  0  0  0  0  0  0  0  0  0  0
   -0.5436   -0.3811   -3.8482 H   0  0  0  0  0  0  0  0  0  0  0  0
   -1.4787    1.9149   -4.2180 H   0  0  0  0  0  0  0  0  0  0  0  0
  1  2  2  3
  2  3  1  0
  2  4  1  0
  4  5  2  0
  5  6  1  0
  6  7  2  0
  7  8  1  0
  8  9  2  0
  9 10  1  0
 10 11  1  0
 10 12  2  0
 12 13  1  0
 13 14  2  0
 14 15  1  0
  7 16  1  0
 16 17  2  0
 17 18  1  0
 18 19  1  0
 19 20  2  0
 20 21  1  0
 21 22  2  0
 22 23  1  0
 23 24  2  0
 24 25  1  0
 25 26  2  0
 25 27  1  0
 27 28  1  0
 28 29  1  0
 28 30  1  0
 30 31  1  0
 17  4  1  0
 24 19  1  0
 14  8  1  0
  1 32  1  0
  1 33  1  0
  3 34  1  0
  3 35  1  0
  3 36  1  0
  5 37  1  0
  9 38  1  0
 12 39  1  0
 13 40  1  0
 16 41  1  0
 18 42  1  0
 20 43  1  0
 21 44  1  0
 23 45  1  0
 27 46  1  0
 28 47  1  1
 29 48  1  0
 29 49  1  0
 29 50  1  0
 30 51  1  0
 30 52  1  0
 31 53  1  0
M  END
$$$$
