
     RDKit          3D

 50 52  0  0  0  0  0  0  0  0999 V2000
    8.6725   -0.8196   -0.6760 C   0  0  0  0  0  0  0  0  0  0  0  0
    8.5505   -0.3743    0.4351 C   0  0  0  0  0  0  0  0  0  0  0  0
    8.4168    0.1860    1.7769 C   0  0  0  0  0  0  0  0  0  0  0  0
    7.3599    1.1210    1.7262 O   0  0  0  0  0  0  0  0  0  0  0  0
    6.0544    0.8316    1.4040 C   0  0  0  0  0  0  0  0  0  0  0  0
    5.5737   -0.4210    1.0895 C   0  0  0  0  0  0  0  0  0  0  0  0
    4.2360   -0.5930    0.7808 C   0  0  0  0  0  0  0  0  0  0  0  0
    3.3695    0.4854    0.7841 C   0  0  0  0  0  0  0  0  0  0  0  0
    1.9407    0.3142    0.4547 C   0  0  0  0  0  0  0  0  0  0  0  0
    1.5054   -0.8117    0.2112 O   0  0  0  0  0  0  0  0  0  0  0  0
    1.1041    1.4322    0.4238 N   0  0  0  0  0  0  0  0  0  0  0  0
   -0.2749    1.4853    0.1454 C   0  0  0  0  0  0  0  0  0  0  0  0
   -0.8771    2.7387    0.0241 C   0  0  0  0  0  0  0  0  0  0  0  0
   -2.2243    2.8457   -0.2305 C   0  0  0  0  0  0  0  0  0  0  0  0
   -3.0304    1.7453   -0.3748 C   0  0  0  0  0  0  0  0  0  0  0  0
   -4.3321    1.8748   -0.6211 F   0  0  0  0  0  0  0  0  0  0  0  0
   -2.4675    0.4859   -0.2602 C   0  0  0  0  0  0  0  0  0  0  0  0
   -3.2788   -0.7716   -0.4109 C   0  0  2  0  0  0  0  0  0  0  0  0
   -2.3081   -1.9370   -0.1237 C   0  0  0  0  0  0  0  0  0  0  0  0
   -3.7564   -0.8038   -1.8154 C   0  0  0  0  0  0  0  0  0  0  0  0
   -5.1946   -1.1464   -1.9665 C   0  0  1  0  0  0  0  0  0  0  0  0
   -5.4981   -2.6011   -2.1423 C   0  0  0  0  0  0  0  0  0  0  0  0
   -5.1370   -3.4281   -1.1444 F   0  0  0  0  0  0  0  0  0  0  0  0
   -6.8285   -2.7199   -2.5015 F   0  0  0  0  0  0  0  0  0  0  0  0
   -4.7814   -3.0078   -3.2796 F   0  0  0  0  0  0  0  0  0  0  0  0
   -5.9655   -0.5314   -0.9781 O   0  0  0  0  0  0  0  0  0  0  0  0
   -5.5923   -0.7166    0.3427 C   0  0  0  0  0  0  0  0  0  0  0  0
   -6.5616   -0.7813    1.3824 N   0  0  0  0  0  0  0  0  0  0  0  0
   -4.3329   -0.8226    0.5517 N   0  0  0  0  0  0  0  0  0  0  0  0
   -1.1222    0.3937   -0.0068 C   0  0  0  0  0  0  0  0  0  0  0  0
    3.8826    1.6838    1.0956 N   0  0  0  0  0  0  0  0  0  0  0  0
    5.1723    1.9027    1.4025 C   0  0  0  0  0  0  0  0  0  0  0  0
    8.7958   -1.2013   -1.6449 H   0  0  0  0  0  0  0  0  0  0  0  0
    9.3450    0.7663    2.0326 H   0  0  0  0  0  0  0  0  0  0  0  0
    8.2342   -0.5989    2.5298 H   0  0  0  0  0  0  0  0  0  0  0  0
    6.2851   -1.2566    1.0954 H   0  0  0  0  0  0  0  0  0  0  0  0
    3.8558   -1.5760    0.5336 H   0  0  0  0  0  0  0  0  0  0  0  0
    1.5981    2.3611    0.6455 H   0  0  0  0  0  0  0  0  0  0  0  0
   -0.2528    3.6150    0.1337 H   0  0  0  0  0  0  0  0  0  0  0  0
   -2.6635    3.8456   -0.3208 H   0  0  0  0  0  0  0  0  0  0  0  0
   -2.8519   -2.9080   -0.0952 H   0  0  0  0  0  0  0  0  0  0  0  0
   -1.5322   -1.9600   -0.8781 H   0  0  0  0  0  0  0  0  0  0  0  0
   -1.8834   -1.7412    0.8735 H   0  0  0  0  0  0  0  0  0  0  0  0
   -3.1911   -1.6544   -2.3390 H   0  0  0  0  0  0  0  0  0  0  0  0
   -3.5009    0.1504   -2.3698 H   0  0  0  0  0  0  0  0  0  0  0  0
   -5.5722   -0.6707   -2.9381 H   0  0  0  0  0  0  0  0  0  0  0  0
   -6.7473   -1.6347    1.9046 H   0  0  0  0  0  0  0  0  0  0  0  0
   -7.0885    0.0847    1.6010 H   0  0  0  0  0  0  0  0  0  0  0  0
   -0.6319   -0.5556    0.0896 H   0  0  0  0  0  0  0  0  0  0  0  0
    5.5268    2.9082    1.6480 H   0  0  0  0  0  0  0  0  0  0  0  0
  1  2  3  0
  2  3  1  0
  3  4  1  0
  4  5  1  0
  5  6  2  0
  6  7  1  0
  7  8  2  0
  8  9  1  0
  9 10  2  0
  9 11  1  0
 11 12  1  0
 12 13  2  0
 13 14  1  0
 14 15  2  0
 15 16  1  0
 15 17  1  0
 17 18  1  0
 18 19  1  1
 18 20  1  0
 20 21  1  0
 21 22  1  0
 22 23  1  0
 22 24  1  0
 22 25  1  0
 21 26  1  0
 26 27  1  0
 27 28  1  0
 27 29  2  0
 17 30  2  0
  8 31  1  0
 31 32  2  0
 32  5  1  0
 30 12  1  0
 29 18  1  0
  1 33  1  0
  3 34  1  0
  3 35  1  0
  6 36  1  0
  7 37  1  0
 11 38  1  0
 13 39  1  0
 14 40  1  0
 19 41  1  0
 19 42  1  0
 19 43  1  0
 20 44  1  0
 20 45  1  0
 21 46  1  6
 28 47  1  0
 28 48  1  0
 30 49  1  0
 32 50  1  0
M  END
$$$$
