
     RDKit          3D

 43 46  0  0  0  0  0  0  0  0999 V2000
   -0.6250    1.8122    1.2319 C   0  0  0  0  0  0  0  0  0  0  0  0
   -1.3186    0.6697    0.5901 C   0  0  0  0  0  0  0  0  0  0  0  0
   -0.8864   -0.6363    0.6936 C   0  0  0  0  0  0  0  0  0  0  0  0
    0.2987   -1.1833    1.4232 C   0  0  0  0  0  0  0  0  0  0  0  0
    1.5702   -0.9564    0.7534 C   0  0  0  0  0  0  0  0  0  0  0  0
    2.0922   -1.8335   -0.1671 C   0  0  0  0  0  0  0  0  0  0  0  0
    3.3145   -1.5930   -0.7915 C   0  0  0  0  0  0  0  0  0  0  0  0
    4.0094   -0.4514   -0.4758 C   0  0  0  0  0  0  0  0  0  0  0  0
    5.2442   -0.1825   -1.0881 C   0  0  0  0  0  0  0  0  0  0  0  0
    5.9261    0.9685   -0.7570 C   0  0  0  0  0  0  0  0  0  0  0  0
    5.3904    1.8394    0.1680 C   0  0  0  0  0  0  0  0  0  0  0  0
    4.1742    1.5649    0.7649 C   0  0  0  0  0  0  0  0  0  0  0  0
    3.4726    0.4112    0.4445 C   0  0  0  0  0  0  0  0  0  0  0  0
    2.2948    0.1342    1.0160 N   0  0  0  0  0  0  0  0  0  0  0  0
   -1.8156   -1.3700   -0.0493 C   0  0  0  0  0  0  0  0  0  0  0  0
   -1.9016   -2.7215   -0.3071 C   0  0  0  0  0  0  0  0  0  0  0  0
   -2.9250   -3.1955   -1.0769 C   0  0  0  0  0  0  0  0  0  0  0  0
   -3.0032   -4.5357   -1.3279 F   0  0  0  0  0  0  0  0  0  0  0  0
   -3.8712   -2.3220   -1.5951 C   0  0  0  0  0  0  0  0  0  0  0  0
   -3.7955   -0.9709   -1.3443 C   0  0  0  0  0  0  0  0  0  0  0  0
   -2.7447   -0.5193   -0.5592 C   0  0  0  0  0  0  0  0  0  0  0  0
   -2.4415    0.7394   -0.1671 N   0  0  0  0  0  0  0  0  0  0  0  0
   -3.2045    1.9230   -0.5131 C   0  0  0  0  0  0  0  0  0  0  0  0
   -4.2534    2.1716    0.5107 C   0  0  0  0  0  0  0  0  0  0  0  0
   -4.3438    1.3713    1.4966 O   0  0  0  0  0  0  0  0  0  0  0  0
   -5.1314    3.2217    0.4481 O   0  0  0  0  0  0  0  0  0  0  0  0
   -0.3271    1.5923    2.2861 H   0  0  0  0  0  0  0  0  0  0  0  0
   -1.3495    2.6516    1.2970 H   0  0  0  0  0  0  0  0  0  0  0  0
    0.2247    2.1961    0.6249 H   0  0  0  0  0  0  0  0  0  0  0  0
    0.3132   -0.7914    2.4844 H   0  0  0  0  0  0  0  0  0  0  0  0
    0.0795   -2.2817    1.5738 H   0  0  0  0  0  0  0  0  0  0  0  0
    1.5613   -2.7322   -0.4266 H   0  0  0  0  0  0  0  0  0  0  0  0
    3.7467   -2.2607   -1.5147 H   0  0  0  0  0  0  0  0  0  0  0  0
    5.6365   -0.8856   -1.8086 H   0  0  0  0  0  0  0  0  0  0  0  0
    6.8828    1.2224   -1.2005 H   0  0  0  0  0  0  0  0  0  0  0  0
    5.9347    2.7584    0.4319 H   0  0  0  0  0  0  0  0  0  0  0  0
    3.7202    2.2279    1.4997 H   0  0  0  0  0  0  0  0  0  0  0  0
   -1.1321   -3.3511    0.1256 H   0  0  0  0  0  0  0  0  0  0  0  0
   -4.6753   -2.7411   -2.2067 H   0  0  0  0  0  0  0  0  0  0  0  0
   -4.5498   -0.3296   -1.7659 H   0  0  0  0  0  0  0  0  0  0  0  0
   -2.5275    2.8110   -0.4791 H   0  0  0  0  0  0  0  0  0  0  0  0
   -3.6651    1.8335   -1.5310 H   0  0  0  0  0  0  0  0  0  0  0  0
   -5.3992    3.7243    1.2883 H   0  0  0  0  0  0  0  0  0  0  0  0
  1  2  1  0
  2  3  2  0
  3  4  1  0
  4  5  1  0
  5  6  2  0
  6  7  1  0
  7  8  2  0
  8  9  1  0
  9 10  2  0
 10 11  1  0
 11 12  2  0
 12 13  1  0
 13 14  2  0
  3 15  1  0
 15 16  2  0
 16 17  1  0
 17 18  1  0
 17 19  2  0
 19 20  1  0
 20 21  2  0
 21 22  1  0
 22 23  1  0
 23 24  1  0
 24 25  2  0
 24 26  1  0
 22  2  1  0
 14  5  1  0
 21 15  1  0
 13  8  1  0
  1 27  1  0
  1 28  1  0
  1 29  1  0
  4 30  1  0
  4 31  1  0
  6 32  1  0
  7 33  1  0
  9 34  1  0
 10 35  1  0
 11 36  1  0
 12 37  1  0
 16 38  1  0
 19 39  1  0
 20 40  1  0
 23 41  1  0
 23 42  1  0
 26 43  1  0
M  END
$$$$
