
     RDKit          3D

 48 50  0  0  0  0  0  0  0  0999 V2000
   -2.7449    3.4156    4.2428 C   0  0  0  0  0  0  0  0  0  0  0  0
   -1.6637    2.7462    3.6753 O   0  0  0  0  0  0  0  0  0  0  0  0
   -1.7406    1.9803    2.4954 C   0  0  0  0  0  0  0  0  0  0  0  0
   -2.8854    1.9542    2.0105 O   0  0  0  0  0  0  0  0  0  0  0  0
   -0.5711    1.3273    1.9674 C   0  0  0  0  0  0  0  0  0  0  0  0
    0.6628    1.5258    2.6299 C   0  0  0  0  0  0  0  0  0  0  0  0
    1.8096    1.0014    2.1922 N   0  0  0  0  0  0  0  0  0  0  0  0
    1.8945    0.2396    1.0942 C   0  0  0  0  0  0  0  0  0  0  0  0
    3.1514   -0.2144    0.5983 N   0  0  0  0  0  0  0  0  0  0  0  0
    3.9565   -1.2396    1.0669 C   0  0  0  0  0  0  0  0  0  0  0  0
    5.2334   -1.3764    0.5778 C   0  0  0  0  0  0  0  0  0  0  0  0
    6.0705   -2.3366    0.9371 N   0  0  0  0  0  0  0  0  0  0  0  0
    5.6665   -3.2850    1.8669 C   0  0  0  0  0  0  0  0  0  0  0  0
    6.5766   -4.2731    2.2276 C   0  0  0  0  0  0  0  0  0  0  0  0
    7.3980   -5.1360    2.5385 N   0  0  0  0  0  0  0  0  0  0  0  0
    4.4118   -3.1703    2.3656 C   0  0  0  0  0  0  0  0  0  0  0  0
    3.5646   -2.1688    1.9767 N   0  0  0  0  0  0  0  0  0  0  0  0
    0.7172    0.0102    0.4118 C   0  0  0  0  0  0  0  0  0  0  0  0
   -0.5063    0.5473    0.8379 C   0  0  0  0  0  0  0  0  0  0  0  0
   -1.6940    0.2851    0.1268 N   0  0  0  0  0  0  0  0  0  0  0  0
   -1.7216   -0.4963   -1.0744 C   0  0  0  0  0  0  0  0  0  0  0  0
   -1.1711    0.1197   -2.3012 C   0  0  0  0  0  0  0  0  0  0  0  0
   -1.2873   -0.8215   -3.4969 C   0  0  0  0  0  0  0  0  0  0  0  0
   -2.7199   -1.2081   -3.7198 C   0  0  0  0  0  0  0  0  0  0  0  0
   -3.6614   -0.1845   -3.5127 N   0  0  0  0  0  0  0  0  0  0  0  0
   -3.2629    1.0970   -3.1371 C   0  0  0  0  0  0  0  0  0  0  0  0
   -1.8769    1.3757   -2.7309 C   0  0  0  0  0  0  0  0  0  0  0  0
   -3.4676    2.7961    4.8004 H   0  0  0  0  0  0  0  0  0  0  0  0
   -2.2806    4.1744    4.9372 H   0  0  0  0  0  0  0  0  0  0  0  0
   -3.3211    4.0245    3.4998 H   0  0  0  0  0  0  0  0  0  0  0  0
    0.6241    2.1324    3.5319 H   0  0  0  0  0  0  0  0  0  0  0  0
    3.4958    0.3294   -0.2862 H   0  0  0  0  0  0  0  0  0  0  0  0
    5.5624   -0.6360   -0.1469 H   0  0  0  0  0  0  0  0  0  0  0  0
    4.0232   -3.8956    3.1001 H   0  0  0  0  0  0  0  0  0  0  0  0
    0.7733   -0.6333   -0.4453 H   0  0  0  0  0  0  0  0  0  0  0  0
   -2.6242    0.6681    0.4913 H   0  0  0  0  0  0  0  0  0  0  0  0
   -2.7842   -0.8741   -1.2279 H   0  0  0  0  0  0  0  0  0  0  0  0
   -1.1121   -1.4320   -0.8716 H   0  0  0  0  0  0  0  0  0  0  0  0
   -0.1000    0.3513   -2.1949 H   0  0  0  0  0  0  0  0  0  0  0  0
   -0.6323   -1.6868   -3.3016 H   0  0  0  0  0  0  0  0  0  0  0  0
   -0.8781   -0.2875   -4.3682 H   0  0  0  0  0  0  0  0  0  0  0  0
   -2.8406   -1.6665   -4.7083 H   0  0  0  0  0  0  0  0  0  0  0  0
   -2.9495   -2.0226   -2.9668 H   0  0  0  0  0  0  0  0  0  0  0  0
   -4.4720   -0.2831   -4.1511 H   0  0  0  0  0  0  0  0  0  0  0  0
   -3.5066    1.8216   -3.9816 H   0  0  0  0  0  0  0  0  0  0  0  0
   -3.9601    1.4505   -2.3157 H   0  0  0  0  0  0  0  0  0  0  0  0
   -1.2589    1.9249   -3.4570 H   0  0  0  0  0  0  0  0  0  0  0  0
   -1.8972    2.0296   -1.8044 H   0  0  0  0  0  0  0  0  0  0  0  0
  1  2  1  0
  2  3  1  0
  3  4  2  0
  3  5  1  0
  5  6  2  0
  6  7  1  0
  7  8  2  0
  8  9  1  0
  9 10  1  0
 10 11  2  0
 11 12  1  0
 12 13  2  0
 13 14  1  0
 14 15  3  0
 13 16  1  0
 16 17  2  0
  8 18  1  0
 18 19  2  0
 19 20  1  0
 20 21  1  0
 21 22  1  0
 22 23  1  0
 23 24  1  0
 24 25  1  0
 25 26  1  0
 26 27  1  0
 19  5  1  0
 27 22  1  0
 17 10  1  0
  1 28  1  0
  1 29  1  0
  1 30  1  0
  6 31  1  0
  9 32  1  0
 11 33  1  0
 16 34  1  0
 18 35  1  0
 20 36  1  0
 21 37  1  0
 21 38  1  0
 22 39  1  0
 23 40  1  0
 23 41  1  0
 24 42  1  0
 24 43  1  0
 25 44  1  0
 26 45  1  0
 26 46  1  0
 27 47  1  0
 27 48  1  0
M  END
$$$$
