
     RDKit          3D

 48 51  0  0  0  0  0  0  0  0999 V2000
   -0.1399   -3.4142    1.4303 C   0  0  0  0  0  0  0  0  0  0  0  0
   -0.4392   -3.7100   -0.0060 C   0  0  0  0  0  0  0  0  0  0  0  0
   -0.4288   -2.4653   -0.8694 C   0  0  1  0  0  0  0  0  0  0  0  0
   -0.7367   -2.8264   -2.3063 C   0  0  0  0  0  0  0  0  0  0  0  0
   -1.9637   -3.4202   -2.4669 O   0  0  0  0  0  0  0  0  0  0  0  0
   -1.3155   -1.4500   -0.3408 N   0  0  0  0  0  0  0  0  0  0  0  0
   -2.5476   -1.7180    0.1245 C   0  0  0  0  0  0  0  0  0  0  0  0
   -3.1335   -0.5884    0.5489 N   0  0  0  0  0  0  0  0  0  0  0  0
   -2.2688    0.4193    0.3545 C   0  0  0  0  0  0  0  0  0  0  0  0
   -2.5017    1.8393    0.6766 C   0  0  0  0  0  0  0  0  0  0  0  0
   -1.6588    2.4187    1.5933 C   0  0  0  0  0  0  0  0  0  0  0  0
   -1.7983    3.7405    1.9598 C   0  0  0  0  0  0  0  0  0  0  0  0
   -2.8163    4.4632    1.3727 C   0  0  0  0  0  0  0  0  0  0  0  0
   -2.9325    5.7753    1.7549 F   0  0  0  0  0  0  0  0  0  0  0  0
   -3.6737    3.9182    0.4563 C   0  0  0  0  0  0  0  0  0  0  0  0
   -3.4999    2.5783    0.1118 C   0  0  0  0  0  0  0  0  0  0  0  0
   -1.1378   -0.1305   -0.2011 C   0  0  0  0  0  0  0  0  0  0  0  0
    0.0808    0.5564   -0.5893 C   0  0  0  0  0  0  0  0  0  0  0  0
    0.0239    1.5349   -1.5511 C   0  0  0  0  0  0  0  0  0  0  0  0
    1.1984    2.1629   -1.8950 C   0  0  0  0  0  0  0  0  0  0  0  0
    2.3766    1.7770   -1.2550 C   0  0  0  0  0  0  0  0  0  0  0  0
    3.6565    2.1920   -1.3697 N   0  0  0  0  0  0  0  0  0  0  0  0
    4.4622    1.5171   -0.5340 C   0  0  0  0  0  0  0  0  0  0  0  0
    3.6460    0.6204    0.1519 C   0  0  0  0  0  0  0  0  0  0  0  0
    4.1134   -0.3142    1.1620 C   0  0  0  0  0  0  0  0  0  0  0  0
    5.4774   -0.3822    1.5283 N   0  0  0  0  0  0  0  0  0  0  0  0
    3.2997   -1.0786    1.7248 O   0  0  0  0  0  0  0  0  0  0  0  0
    2.4013    0.8147   -0.3163 N   0  0  0  0  0  0  0  0  0  0  0  0
    1.2506    0.2273   -0.0062 N   0  0  0  0  0  0  0  0  0  0  0  0
   -0.0882   -2.3294    1.6519 H   0  0  0  0  0  0  0  0  0  0  0  0
    0.8574   -3.8302    1.7036 H   0  0  0  0  0  0  0  0  0  0  0  0
   -0.8701   -3.9429    2.0781 H   0  0  0  0  0  0  0  0  0  0  0  0
   -1.4432   -4.1804   -0.1006 H   0  0  0  0  0  0  0  0  0  0  0  0
    0.2809   -4.4605   -0.3902 H   0  0  0  0  0  0  0  0  0  0  0  0
    0.6255   -2.0938   -0.8610 H   0  0  0  0  0  0  0  0  0  0  0  0
    0.0955   -3.4221   -2.6946 H   0  0  0  0  0  0  0  0  0  0  0  0
   -0.7303   -1.8498   -2.8701 H   0  0  0  0  0  0  0  0  0  0  0  0
   -1.8627   -4.4182   -2.3518 H   0  0  0  0  0  0  0  0  0  0  0  0
   -3.0537   -2.6930    0.1762 H   0  0  0  0  0  0  0  0  0  0  0  0
   -0.8629    1.8525    2.0517 H   0  0  0  0  0  0  0  0  0  0  0  0
   -1.1206    4.1802    2.6867 H   0  0  0  0  0  0  0  0  0  0  0  0
   -4.4500    4.5004    0.0199 H   0  0  0  0  0  0  0  0  0  0  0  0
   -4.1551    2.0995   -0.6111 H   0  0  0  0  0  0  0  0  0  0  0  0
   -0.9431    1.7855   -2.0115 H   0  0  0  0  0  0  0  0  0  0  0  0
    1.2028    2.9365   -2.6442 H   0  0  0  0  0  0  0  0  0  0  0  0
    5.5360    1.6133   -0.3859 H   0  0  0  0  0  0  0  0  0  0  0  0
    5.8017   -0.7718    2.4407 H   0  0  0  0  0  0  0  0  0  0  0  0
    6.1859   -0.0331    0.8687 H   0  0  0  0  0  0  0  0  0  0  0  0
  1  2  1  0
  2  3  1  0
  3  4  1  0
  4  5  1  0
  3  6  1  0
  6  7  1  0
  7  8  2  0
  8  9  1  0
  9 10  1  0
 10 11  2  0
 11 12  1  0
 12 13  2  0
 13 14  1  0
 13 15  1  0
 15 16  2  0
  9 17  2  0
 17 18  1  0
 18 19  1  0
 19 20  2  0
 20 21  1  0
 21 22  2  0
 22 23  1  0
 23 24  2  0
 24 25  1  0
 25 26  1  0
 25 27  2  0
 24 28  1  0
 28 29  1  0
 17  6  1  0
 29 18  2  0
 16 10  1  0
 28 21  1  0
  1 30  1  0
  1 31  1  0
  1 32  1  0
  2 33  1  0
  2 34  1  0
  3 35  1  6
  4 36  1  0
  4 37  1  0
  5 38  1  0
  7 39  1  0
 11 40  1  0
 12 41  1  0
 15 42  1  0
 16 43  1  0
 19 44  1  0
 20 45  1  0
 23 46  1  0
 26 47  1  0
 26 48  1  0
M  END
$$$$
