
     RDKit          3D

 36 38  0  0  0  0  0  0  0  0999 V2000
    5.7717    2.1310    2.7540 N   0  0  0  0  0  0  0  0  0  0  0  0
    4.8254    1.2991    2.0986 C   0  0  0  0  0  0  0  0  0  0  0  0
    3.8144    1.6971    1.3057 N   0  0  0  0  0  0  0  0  0  0  0  0
    3.1506    0.5877    0.8843 C   0  0  0  0  0  0  0  0  0  0  0  0
    2.0472    0.4149    0.0632 C   0  0  0  0  0  0  0  0  0  0  0  0
    1.5602   -0.8547   -0.2126 C   0  0  0  0  0  0  0  0  0  0  0  0
    0.4010   -1.0156   -1.0746 C   0  0  0  0  0  0  0  0  0  0  0  0
    0.2903   -2.1421   -1.8542 C   0  0  0  0  0  0  0  0  0  0  0  0
   -0.7680   -2.2974   -2.6450 N   0  0  0  0  0  0  0  0  0  0  0  0
   -1.7321   -1.3620   -2.6894 C   0  0  0  0  0  0  0  0  0  0  0  0
   -1.6872   -0.2039   -1.9330 C   0  0  0  0  0  0  0  0  0  0  0  0
   -2.9772    0.9909   -2.0267 S   0  0  0  0  0  6  0  0  0  0  0  0
   -2.4545    2.3822   -1.9238 O   0  0  0  0  0  0  0  0  0  0  0  0
   -3.5860    0.8343   -3.4016 O   0  0  0  0  0  0  0  0  0  0  0  0
   -4.1610    0.6146   -0.8615 N   0  0  0  0  0  0  0  0  0  0  0  0
   -3.6901    0.6438    0.4882 C   0  0  0  0  0  0  0  0  0  0  0  0
   -4.8870    0.2826    1.3741 C   0  0  0  0  0  0  0  0  0  0  0  0
   -5.3559   -0.9862    1.0415 F   0  0  0  0  0  0  0  0  0  0  0  0
   -5.8925    1.1866    1.1310 F   0  0  0  0  0  0  0  0  0  0  0  0
   -4.4907    0.2675    2.6999 F   0  0  0  0  0  0  0  0  0  0  0  0
   -0.5894   -0.0377   -1.1096 C   0  0  0  0  0  0  0  0  0  0  0  0
    2.2321   -1.9074    0.3714 C   0  0  0  0  0  0  0  0  0  0  0  0
    3.3324   -1.7354    1.1902 C   0  0  0  0  0  0  0  0  0  0  0  0
    3.7681   -0.4906    1.4291 N   0  0  0  0  0  0  0  0  0  0  0  0
    4.7677   -0.0501    2.1526 N   0  0  0  0  0  0  0  0  0  0  0  0
    6.2812    2.8708    2.2349 H   0  0  0  0  0  0  0  0  0  0  0  0
    5.9741    2.0182    3.7624 H   0  0  0  0  0  0  0  0  0  0  0  0
    1.5746    1.2702   -0.3563 H   0  0  0  0  0  0  0  0  0  0  0  0
    1.0590   -2.9039   -1.8289 H   0  0  0  0  0  0  0  0  0  0  0  0
   -2.5709   -1.5000   -3.3252 H   0  0  0  0  0  0  0  0  0  0  0  0
   -5.0636    1.1152   -1.0073 H   0  0  0  0  0  0  0  0  0  0  0  0
   -2.9069   -0.1091    0.6107 H   0  0  0  0  0  0  0  0  0  0  0  0
   -3.2840    1.6148    0.8098 H   0  0  0  0  0  0  0  0  0  0  0  0
   -0.5013    0.8409   -0.5004 H   0  0  0  0  0  0  0  0  0  0  0  0
    1.8854   -2.9118    0.1823 H   0  0  0  0  0  0  0  0  0  0  0  0
    3.8627   -2.5545    1.6507 H   0  0  0  0  0  0  0  0  0  0  0  0
  1  2  1  0
  2  3  1  0
  3  4  2  0
  4  5  1  0
  5  6  2  0
  6  7  1  0
  7  8  2  0
  8  9  1  0
  9 10  2  0
 10 11  1  0
 11 12  1  0
 12 13  2  0
 12 14  2  0
 12 15  1  0
 15 16  1  0
 16 17  1  0
 17 18  1  0
 17 19  1  0
 17 20  1  0
 11 21  2  0
  6 22  1  0
 22 23  2  0
 23 24  1  0
 24 25  1  0
 25  2  2  0
 24  4  1  0
 21  7  1  0
  1 26  1  0
  1 27  1  0
  5 28  1  0
  8 29  1  0
 10 30  1  0
 15 31  1  0
 16 32  1  0
 16 33  1  0
 21 34  1  0
 22 35  1  0
 23 36  1  0
M  END
$$$$
