
     RDKit          3D

 66 70  0  0  0  0  0  0  0  0999 V2000
    0.6606    0.6974    1.0490 C   0  0  0  0  0  0  0  0  0  0  0  0
    0.3686   -0.5078    0.1389 C   0  0  0  0  0  0  0  0  0  0  0  0
    0.1524   -1.6647    1.1106 C   0  0  0  0  0  0  0  0  0  0  0  0
   -0.9342   -0.2923   -0.5370 C   0  0  0  0  0  0  0  0  0  0  0  0
   -0.9667   -0.3262   -1.7908 O   0  0  0  0  0  0  0  0  0  0  0  0
   -2.1251   -0.0521    0.2032 N   0  0  0  0  0  0  0  0  0  0  0  0
   -3.4046    0.1601   -0.4338 C   0  0  1  0  0  0  0  0  0  0  0  0
   -4.3033   -0.9840    0.0019 C   0  0  0  0  0  0  0  0  0  0  0  0
   -4.5809   -0.9516    1.4817 C   0  0  0  0  0  0  0  0  0  0  0  0
   -5.2660    0.3356    1.8319 C   0  0  0  0  0  0  0  0  0  0  0  0
   -4.3766    1.4803    1.4573 C   0  0  0  0  0  0  0  0  0  0  0  0
   -4.0716    1.4368   -0.0227 C   0  0  0  0  0  0  0  0  0  0  0  0
   -5.3967    1.5172   -0.7590 C   0  0  0  0  0  0  0  0  0  0  0  0
   -6.2965    0.3484   -0.4231 C   0  0  2  0  0  0  0  0  0  0  0  0
   -7.4591    0.4609   -1.1464 O   0  0  0  0  0  0  0  0  0  0  0  0
   -6.5746    0.3989    1.0588 C   0  0  0  0  0  0  0  0  0  0  0  0
   -5.6078   -0.9558   -0.7653 C   0  0  0  0  0  0  0  0  0  0  0  0
    1.3737   -0.7163   -0.7963 N   0  0  0  0  0  0  0  0  0  0  0  0
    1.6999    0.2840   -1.7204 C   0  0  0  0  0  0  0  0  0  0  0  0
    3.1583    0.6729   -1.7431 C   0  0  0  0  0  0  0  0  0  0  0  0
    4.0264   -0.3213   -1.1450 N   0  0  0  0  0  0  0  0  0  0  0  0
    5.3877    0.0661   -0.9666 C   0  0  0  0  0  0  0  0  0  0  0  0
    6.2822   -0.8329   -0.4411 C   0  0  0  0  0  0  0  0  0  0  0  0
    7.5996   -0.4636   -0.2652 C   0  0  0  0  0  0  0  0  0  0  0  0
    8.0312    0.7950   -0.6093 C   0  0  0  0  0  0  0  0  0  0  0  0
    9.4439    1.1798   -0.4168 C   0  0  0  0  0  0  0  0  0  0  0  0
   10.2697    0.1318   -0.8138 F   0  0  0  0  0  0  0  0  0  0  0  0
    9.6682    1.3870    0.9446 F   0  0  0  0  0  0  0  0  0  0  0  0
    9.7250    2.3440   -1.1024 F   0  0  0  0  0  0  0  0  0  0  0  0
    7.1137    1.6615   -1.1287 C   0  0  0  0  0  0  0  0  0  0  0  0
    5.8452    1.2967   -1.2950 N   0  0  0  0  0  0  0  0  0  0  0  0
    3.6195   -1.6224   -0.7349 C   0  0  0  0  0  0  0  0  0  0  0  0
    2.1536   -1.8779   -0.8043 C   0  0  0  0  0  0  0  0  0  0  0  0
    0.5972    1.6403    0.4841 H   0  0  0  0  0  0  0  0  0  0  0  0
   -0.1152    0.6996    1.8332 H   0  0  0  0  0  0  0  0  0  0  0  0
    1.6345    0.5308    1.5177 H   0  0  0  0  0  0  0  0  0  0  0  0
   -0.6451   -1.3265    1.8054 H   0  0  0  0  0  0  0  0  0  0  0  0
   -0.1993   -2.5729    0.6264 H   0  0  0  0  0  0  0  0  0  0  0  0
    1.0548   -1.8180    1.7478 H   0  0  0  0  0  0  0  0  0  0  0  0
   -2.1064   -0.0218    1.2465 H   0  0  0  0  0  0  0  0  0  0  0  0
   -3.3361    0.1201   -1.5297 H   0  0  0  0  0  0  0  0  0  0  0  0
   -3.7845   -1.9297   -0.2487 H   0  0  0  0  0  0  0  0  0  0  0  0
   -3.6456   -1.0892    2.0491 H   0  0  0  0  0  0  0  0  0  0  0  0
   -5.2359   -1.8216    1.7019 H   0  0  0  0  0  0  0  0  0  0  0  0
   -5.4989    0.4235    2.9012 H   0  0  0  0  0  0  0  0  0  0  0  0
   -3.4341    1.4061    2.0314 H   0  0  0  0  0  0  0  0  0  0  0  0
   -4.8972    2.4494    1.6438 H   0  0  0  0  0  0  0  0  0  0  0  0
   -3.5047    2.3376   -0.2747 H   0  0  0  0  0  0  0  0  0  0  0  0
   -5.2595    1.6477   -1.8583 H   0  0  0  0  0  0  0  0  0  0  0  0
   -5.9103    2.4321   -0.3835 H   0  0  0  0  0  0  0  0  0  0  0  0
   -8.1252   -0.2162   -0.8118 H   0  0  0  0  0  0  0  0  0  0  0  0
   -7.1510   -0.5141    1.3325 H   0  0  0  0  0  0  0  0  0  0  0  0
   -7.1406    1.3242    1.2844 H   0  0  0  0  0  0  0  0  0  0  0  0
   -6.2536   -1.7646   -0.3678 H   0  0  0  0  0  0  0  0  0  0  0  0
   -5.4053   -1.0176   -1.8354 H   0  0  0  0  0  0  0  0  0  0  0  0
    1.0950    1.1813   -1.6259 H   0  0  0  0  0  0  0  0  0  0  0  0
    1.4847   -0.1207   -2.7550 H   0  0  0  0  0  0  0  0  0  0  0  0
    3.5209    0.8451   -2.7764 H   0  0  0  0  0  0  0  0  0  0  0  0
    3.3520    1.6287   -1.1878 H   0  0  0  0  0  0  0  0  0  0  0  0
    5.9894   -1.8539   -0.1492 H   0  0  0  0  0  0  0  0  0  0  0  0
    8.3047   -1.1794    0.1514 H   0  0  0  0  0  0  0  0  0  0  0  0
    7.4298    2.6588   -1.4073 H   0  0  0  0  0  0  0  0  0  0  0  0
    4.0043   -1.7923    0.2935 H   0  0  0  0  0  0  0  0  0  0  0  0
    4.1714   -2.3577   -1.3746 H   0  0  0  0  0  0  0  0  0  0  0  0
    1.8338   -2.5966   -0.0276 H   0  0  0  0  0  0  0  0  0  0  0  0
    1.9606   -2.4176   -1.7802 H   0  0  0  0  0  0  0  0  0  0  0  0
  1  2  1  0
  2  3  1  0
  2  4  1  0
  4  5  2  0
  4  6  1  0
  6  7  1  0
  7  8  1  0
  8  9  1  0
  9 10  1  0
 10 11  1  0
 11 12  1  0
 12 13  1  0
 13 14  1  0
 14 15  1  6
 14 16  1  0
 14 17  1  0
  2 18  1  0
 18 19  1  0
 19 20  1  0
 20 21  1  0
 21 22  1  0
 22 23  2  0
 23 24  1  0
 24 25  2  0
 25 26  1  0
 26 27  1  0
 26 28  1  0
 26 29  1  0
 25 30  1  0
 30 31  2  0
 21 32  1  0
 32 33  1  0
 12  7  1  0
 33 18  1  0
 17  8  1  0
 31 22  1  0
 16 10  1  0
  1 34  1  0
  1 35  1  0
  1 36  1  0
  3 37  1  0
  3 38  1  0
  3 39  1  0
  6 40  1  0
  7 41  1  6
  8 42  1  0
  9 43  1  0
  9 44  1  0
 10 45  1  0
 11 46  1  0
 11 47  1  0
 12 48  1  0
 13 49  1  0
 13 50  1  0
 15 51  1  0
 16 52  1  0
 16 53  1  0
 17 54  1  0
 17 55  1  0
 19 56  1  0
 19 57  1  0
 20 58  1  0
 20 59  1  0
 23 60  1  0
 24 61  1  0
 30 62  1  0
 32 63  1  0
 32 64  1  0
 33 65  1  0
 33 66  1  0
M  END
$$$$
