
     RDKit          3D

 39 41  0  0  0  0  0  0  0  0999 V2000
   -5.5732   -0.7735    1.4140 O   0  0  0  0  0  0  0  0  0  0  0  0
   -5.0123   -0.6282    0.3039 C   0  0  0  0  0  0  0  0  0  0  0  0
   -5.5925   -1.1670   -0.8267 O   0  0  0  0  0  0  0  0  0  0  0  0
   -3.7566    0.1062    0.2176 C   0  0  2  0  0  0  0  0  0  0  0  0
   -3.8352    1.3232   -0.6786 C   0  0  0  0  0  0  0  0  0  0  0  0
   -2.5056    2.0314   -0.5659 C   0  0  0  0  0  0  0  0  0  0  0  0
   -1.4232    1.1953    0.0116 C   0  0  0  0  0  0  0  0  0  0  0  0
   -1.4321   -0.1762   -0.3515 N   0  0  0  0  0  0  0  0  0  0  0  0
   -0.4385   -1.0456    0.7677 S   0  0  0  0  0  6  0  0  0  0  0  0
   -0.4815   -2.5080    0.4347 O   0  0  0  0  0  0  0  0  0  0  0  0
   -1.0363   -0.8567    2.1402 O   0  0  0  0  0  0  0  0  0  0  0  0
    1.2050   -0.5139    0.7341 C   0  0  0  0  0  0  0  0  0  0  0  0
    1.6143    0.5064    1.5657 C   0  0  0  0  0  0  0  0  0  0  0  0
    2.9556    0.8899    1.4906 C   0  0  0  0  0  0  0  0  0  0  0  0
    3.8200    0.2613    0.6136 C   0  0  0  0  0  0  0  0  0  0  0  0
    5.1506    0.6366    0.5341 C   0  0  0  0  0  0  0  0  0  0  0  0
    5.9980   -0.0053   -0.3498 C   0  0  0  0  0  0  0  0  0  0  0  0
    5.5655   -1.0163   -1.1651 C   0  0  0  0  0  0  0  0  0  0  0  0
    4.2433   -1.3918   -1.0885 C   0  0  0  0  0  0  0  0  0  0  0  0
    3.4052   -0.7524   -0.2100 C   0  0  0  0  0  0  0  0  0  0  0  0
    2.0835   -1.1317   -0.1372 C   0  0  0  0  0  0  0  0  0  0  0  0
   -2.7098   -0.8036   -0.3864 C   0  0  0  0  0  0  0  0  0  0  0  0
   -6.3207   -1.8748   -0.7813 H   0  0  0  0  0  0  0  0  0  0  0  0
   -3.3765    0.4409    1.1899 H   0  0  0  0  0  0  0  0  0  0  0  0
   -4.6873    1.9606   -0.3821 H   0  0  0  0  0  0  0  0  0  0  0  0
   -3.9376    1.0115   -1.7466 H   0  0  0  0  0  0  0  0  0  0  0  0
   -2.2253    2.5224   -1.5328 H   0  0  0  0  0  0  0  0  0  0  0  0
   -2.6789    2.8920    0.1448 H   0  0  0  0  0  0  0  0  0  0  0  0
   -0.4407    1.6312   -0.3383 H   0  0  0  0  0  0  0  0  0  0  0  0
   -1.3896    1.3101    1.1329 H   0  0  0  0  0  0  0  0  0  0  0  0
    0.9347    0.9871    2.2424 H   0  0  0  0  0  0  0  0  0  0  0  0
    3.3070    1.6821    2.1253 H   0  0  0  0  0  0  0  0  0  0  0  0
    5.4962    1.4309    1.1728 H   0  0  0  0  0  0  0  0  0  0  0  0
    7.0382    0.3392   -0.3636 H   0  0  0  0  0  0  0  0  0  0  0  0
    6.2077   -1.5186   -1.8500 H   0  0  0  0  0  0  0  0  0  0  0  0
    3.8451   -2.1926   -1.7162 H   0  0  0  0  0  0  0  0  0  0  0  0
    1.7179   -1.9423   -0.7848 H   0  0  0  0  0  0  0  0  0  0  0  0
   -2.9846   -1.0969   -1.4348 H   0  0  0  0  0  0  0  0  0  0  0  0
   -2.7499   -1.7629    0.1987 H   0  0  0  0  0  0  0  0  0  0  0  0
  1  2  2  0
  2  3  1  0
  2  4  1  0
  4  5  1  0
  5  6  1  0
  6  7  1  0
  7  8  1  0
  8  9  1  0
  9 10  2  0
  9 11  2  0
  9 12  1  0
 12 13  2  0
 13 14  1  0
 14 15  2  0
 15 16  1  0
 16 17  2  0
 17 18  1  0
 18 19  2  0
 19 20  1  0
 20 21  2  0
  8 22  1  0
 22  4  1  0
 21 12  1  0
 20 15  1  0
  3 23  1  0
  4 24  1  1
  5 25  1  0
  5 26  1  0
  6 27  1  0
  6 28  1  0
  7 29  1  0
  7 30  1  0
 13 31  1  0
 14 32  1  0
 16 33  1  0
 17 34  1  0
 18 35  1  0
 19 36  1  0
 21 37  1  0
 22 38  1  0
 22 39  1  0
M  END
$$$$
