
     RDKit          3D

 63 68  0  0  0  0  0  0  0  0999 V2000
   12.3874    0.8396   -2.0387 C   0  0  0  0  0  0  0  0  0  0  0  0
   11.4253   -0.1164   -2.3571 O   0  0  0  0  0  0  0  0  0  0  0  0
   10.2040   -0.2129   -1.7234 C   0  0  0  0  0  0  0  0  0  0  0  0
    9.2990   -1.2114   -2.1108 C   0  0  0  0  0  0  0  0  0  0  0  0
    8.0737   -1.3691   -1.5298 C   0  0  0  0  0  0  0  0  0  0  0  0
    7.6684   -0.5223   -0.5069 C   0  0  0  0  0  0  0  0  0  0  0  0
    6.3567   -0.7066    0.1011 C   0  0  0  0  0  0  0  0  0  0  0  0
    5.4771   -1.6872   -0.1820 N   0  0  0  0  0  0  0  0  0  0  0  0
    4.4219   -1.4938    0.5796 N   0  0  0  0  0  0  0  0  0  0  0  0
    4.6235   -0.4057    1.3382 C   0  0  0  0  0  0  0  0  0  0  0  0
    3.7168    0.1809    2.3229 C   0  0  0  0  0  0  0  0  0  0  0  0
    4.1314    0.4801    3.4516 O   0  0  0  0  0  0  0  0  0  0  0  0
    2.3513    0.4117    1.9934 N   0  0  0  0  0  0  0  0  0  0  0  0
    1.1699    0.9372    2.6005 C   0  0  0  0  0  0  0  0  0  0  0  0
    0.3144    0.2540    1.5873 C   0  0  0  0  0  0  0  0  0  0  0  0
   -0.6344    0.9977    0.8956 O   0  0  0  0  0  0  0  0  0  0  0  0
   -1.7823    0.4515    0.3692 C   0  0  0  0  0  0  0  0  0  0  0  0
   -2.1832   -0.8544    0.4882 C   0  0  0  0  0  0  0  0  0  0  0  0
   -3.3603   -1.3053   -0.0916 C   0  0  0  0  0  0  0  0  0  0  0  0
   -4.2011   -0.4624   -0.8268 C   0  0  0  0  0  0  0  0  0  0  0  0
   -5.4013   -1.0132   -1.4449 C   0  0  0  0  0  0  0  0  0  0  0  0
   -6.6314   -0.9279   -0.7818 N   0  0  0  0  0  0  0  0  0  0  0  0
   -7.3410    0.3523   -1.0258 C   0  0  0  0  0  0  0  0  0  0  0  0
   -7.9762    0.1145    0.3293 C   0  0  0  0  0  0  0  0  0  0  0  0
   -9.1713   -0.8102    0.2959 C   0  0  0  0  0  0  0  0  0  0  0  0
  -10.2916    0.2480    0.3446 C   0  0  0  0  0  0  0  0  0  0  0  0
   -9.8261    1.2061    1.2114 O   0  0  0  0  0  0  0  0  0  0  0  0
   -8.4273    1.3128    1.0556 C   0  0  0  0  0  0  0  0  0  0  0  0
   -6.6522   -0.5200    0.6280 C   0  0  0  0  0  0  0  0  0  0  0  0
   -3.7814    0.8317   -0.9292 C   0  0  0  0  0  0  0  0  0  0  0  0
   -2.6255    1.3006   -0.3660 C   0  0  0  0  0  0  0  0  0  0  0  0
    1.6190    0.1596    0.7805 C   0  0  0  0  0  0  0  0  0  0  0  0
    5.8068    0.0542    1.0304 O   0  0  0  0  0  0  0  0  0  0  0  0
    8.5349    0.4560   -0.1175 C   0  0  0  0  0  0  0  0  0  0  0  0
    9.7775    0.6084   -0.7119 C   0  0  0  0  0  0  0  0  0  0  0  0
   13.1976    0.3323   -1.4421 H   0  0  0  0  0  0  0  0  0  0  0  0
   12.8940    1.1279   -3.0119 H   0  0  0  0  0  0  0  0  0  0  0  0
   12.0240    1.7417   -1.5466 H   0  0  0  0  0  0  0  0  0  0  0  0
    9.6149   -1.8656   -2.9064 H   0  0  0  0  0  0  0  0  0  0  0  0
    7.4131   -2.1422   -1.8526 H   0  0  0  0  0  0  0  0  0  0  0  0
    1.0915    2.0500    2.6047 H   0  0  0  0  0  0  0  0  0  0  0  0
    1.0012    0.5757    3.6621 H   0  0  0  0  0  0  0  0  0  0  0  0
   -0.0162   -0.7542    1.9165 H   0  0  0  0  0  0  0  0  0  0  0  0
   -1.5514   -1.5383    1.0502 H   0  0  0  0  0  0  0  0  0  0  0  0
   -3.6328   -2.3309    0.0286 H   0  0  0  0  0  0  0  0  0  0  0  0
   -5.2544   -2.1156   -1.7079 H   0  0  0  0  0  0  0  0  0  0  0  0
   -5.5506   -0.5758   -2.5000 H   0  0  0  0  0  0  0  0  0  0  0  0
   -6.6874    1.2180   -1.0938 H   0  0  0  0  0  0  0  0  0  0  0  0
   -8.0241    0.1740   -1.8814 H   0  0  0  0  0  0  0  0  0  0  0  0
   -9.2043   -1.3960   -0.6353 H   0  0  0  0  0  0  0  0  0  0  0  0
   -9.2270   -1.4751    1.1637 H   0  0  0  0  0  0  0  0  0  0  0  0
  -10.5190    0.6062   -0.6785 H   0  0  0  0  0  0  0  0  0  0  0  0
  -11.1794   -0.2687    0.7022 H   0  0  0  0  0  0  0  0  0  0  0  0
   -8.2715    2.2516    0.4524 H   0  0  0  0  0  0  0  0  0  0  0  0
   -8.0121    1.4910    2.0554 H   0  0  0  0  0  0  0  0  0  0  0  0
   -6.7608   -1.3346    1.3600 H   0  0  0  0  0  0  0  0  0  0  0  0
   -5.8792    0.1792    0.9441 H   0  0  0  0  0  0  0  0  0  0  0  0
   -4.3692    1.5663   -1.4849 H   0  0  0  0  0  0  0  0  0  0  0  0
   -2.3353    2.3387   -0.4746 H   0  0  0  0  0  0  0  0  0  0  0  0
    1.7636   -0.8313    0.3007 H   0  0  0  0  0  0  0  0  0  0  0  0
    1.6883    0.9515    0.0379 H   0  0  0  0  0  0  0  0  0  0  0  0
    8.2538    1.1188    0.6629 H   0  0  0  0  0  0  0  0  0  0  0  0
   10.4604    1.3941   -0.3846 H   0  0  0  0  0  0  0  0  0  0  0  0
  1  2  1  0
  2  3  1  0
  3  4  2  0
  4  5  1  0
  5  6  2  0
  6  7  1  0
  7  8  2  0
  8  9  1  0
  9 10  2  0
 10 11  1  0
 11 12  2  0
 11 13  1  0
 13 14  1  0
 14 15  1  0
 15 16  1  0
 16 17  1  0
 17 18  2  0
 18 19  1  0
 19 20  2  0
 20 21  1  0
 21 22  1  0
 22 23  1  0
 23 24  1  0
 24 25  1  0
 25 26  1  0
 26 27  1  0
 27 28  1  0
 24 29  1  0
 20 30  1  0
 30 31  2  0
 15 32  1  0
 10 33  1  0
  6 34  1  0
 34 35  2  0
 35  3  1  0
 33  7  1  0
 32 13  1  0
 31 17  1  0
 29 22  1  0
 28 24  1  0
  1 36  1  0
  1 37  1  0
  1 38  1  0
  4 39  1  0
  5 40  1  0
 14 41  1  0
 14 42  1  0
 15 43  1  0
 18 44  1  0
 19 45  1  0
 21 46  1  0
 21 47  1  0
 23 48  1  0
 23 49  1  0
 25 50  1  0
 25 51  1  0
 26 52  1  0
 26 53  1  0
 28 54  1  0
 28 55  1  0
 29 56  1  0
 29 57  1  0
 30 58  1  0
 31 59  1  0
 32 60  1  0
 32 61  1  0
 34 62  1  0
 35 63  1  0
M  END
$$$$
