
     RDKit          3D

 54 57  0  0  0  0  0  0  0  0999 V2000
    1.2364    0.6518    1.1978 C   0  0  2  0  0  0  0  0  0  0  0  0
    2.1896   -0.4546    1.3089 C   0  0  0  0  0  0  0  0  0  0  0  0
    2.2985   -0.9185    0.0922 C   0  0  0  0  0  0  0  0  0  0  0  0
    1.3947   -0.0576   -0.6965 C   0  0  0  0  0  0  0  0  0  0  0  0
    0.2569    0.2333    0.1856 N   0  0  0  0  0  0  0  0  0  0  0  0
   -1.1622    0.2825    0.4519 C   0  0  0  0  0  0  0  0  0  0  0  0
   -1.6162    0.6886    1.5787 O   0  0  0  0  0  0  0  0  0  0  0  0
   -2.1022   -0.1177   -0.5267 N   0  0  0  0  0  0  0  0  0  0  0  0
   -1.6512   -0.5906   -1.8355 C   0  0  0  0  0  0  0  0  0  0  0  0
   -3.5187   -0.0732   -0.2674 C   0  0  0  0  0  0  0  0  0  0  0  0
   -3.8718   -1.0462    0.8539 C   0  0  0  0  0  0  0  0  0  0  0  0
   -5.3930   -1.0784    0.9812 C   0  0  0  0  0  0  0  0  0  0  0  0
   -5.9354    0.2273    1.2152 N   0  0  0  0  0  0  0  0  0  0  0  0
   -4.9341    1.2550    1.3322 C   0  0  0  0  0  0  0  0  0  0  0  0
   -3.9886    1.2934    0.1771 C   0  0  0  0  0  0  0  0  0  0  0  0
    3.0989   -2.0162   -0.4320 C   0  0  0  0  0  0  0  0  0  0  0  0
    3.0871   -2.3670   -1.7663 C   0  0  0  0  0  0  0  0  0  0  0  0
    3.8273   -3.3980   -2.3076 C   0  0  0  0  0  0  0  0  0  0  0  0
    3.7740   -3.6944   -3.6241 F   0  0  0  0  0  0  0  0  0  0  0  0
    4.6405   -4.1437   -1.4887 C   0  0  0  0  0  0  0  0  0  0  0  0
    4.6883   -3.8336   -0.1467 C   0  0  0  0  0  0  0  0  0  0  0  0
    3.9289   -2.7936    0.3442 C   0  0  0  0  0  0  0  0  0  0  0  0
    4.0417   -2.5685    1.6590 F   0  0  0  0  0  0  0  0  0  0  0  0
    1.9473    1.8941    0.7993 C   0  0  0  0  0  0  0  0  0  0  0  0
    1.0856    2.8594    0.2982 C   0  0  0  0  0  0  0  0  0  0  0  0
    1.5803    4.0954   -0.1270 C   0  0  0  0  0  0  0  0  0  0  0  0
    2.9340    4.3354   -0.0392 C   0  0  0  0  0  0  0  0  0  0  0  0
    3.7884    3.3808    0.4567 C   0  0  0  0  0  0  0  0  0  0  0  0
    3.2908    2.1737    0.8700 C   0  0  0  0  0  0  0  0  0  0  0  0
    0.7785    0.8003    2.1921 H   0  0  0  0  0  0  0  0  0  0  0  0
    2.6914   -0.8115    2.1892 H   0  0  0  0  0  0  0  0  0  0  0  0
    1.9375    0.8605   -0.9636 H   0  0  0  0  0  0  0  0  0  0  0  0
    1.1177   -0.5871   -1.6070 H   0  0  0  0  0  0  0  0  0  0  0  0
   -1.0331    0.1200   -2.3774 H   0  0  0  0  0  0  0  0  0  0  0  0
   -2.5175   -0.8658   -2.4727 H   0  0  0  0  0  0  0  0  0  0  0  0
   -1.0817   -1.5226   -1.6782 H   0  0  0  0  0  0  0  0  0  0  0  0
   -4.0949   -0.4229   -1.1523 H   0  0  0  0  0  0  0  0  0  0  0  0
   -3.4385   -0.7513    1.8104 H   0  0  0  0  0  0  0  0  0  0  0  0
   -3.5403   -2.0481    0.5226 H   0  0  0  0  0  0  0  0  0  0  0  0
   -5.6679   -1.7359    1.8227 H   0  0  0  0  0  0  0  0  0  0  0  0
   -5.7931   -1.4628    0.0203 H   0  0  0  0  0  0  0  0  0  0  0  0
   -6.6777    0.5352    0.5781 H   0  0  0  0  0  0  0  0  0  0  0  0
   -5.4463    2.2333    1.3926 H   0  0  0  0  0  0  0  0  0  0  0  0
   -4.4339    1.1175    2.3112 H   0  0  0  0  0  0  0  0  0  0  0  0
   -4.5639    1.7351   -0.6862 H   0  0  0  0  0  0  0  0  0  0  0  0
   -3.1773    1.9927    0.3777 H   0  0  0  0  0  0  0  0  0  0  0  0
    2.4738   -1.8299   -2.4772 H   0  0  0  0  0  0  0  0  0  0  0  0
    5.2174   -4.9493   -1.9181 H   0  0  0  0  0  0  0  0  0  0  0  0
    5.3393   -4.4447    0.4576 H   0  0  0  0  0  0  0  0  0  0  0  0
    0.0134    2.7673    0.1895 H   0  0  0  0  0  0  0  0  0  0  0  0
    0.9309    4.8699   -0.5235 H   0  0  0  0  0  0  0  0  0  0  0  0
    3.3143    5.2943   -0.3696 H   0  0  0  0  0  0  0  0  0  0  0  0
    4.8722    3.5360    0.5417 H   0  0  0  0  0  0  0  0  0  0  0  0
    3.8640    1.3504    1.2755 H   0  0  0  0  0  0  0  0  0  0  0  0
  1  2  1  0
  2  3  2  0
  3  4  1  0
  4  5  1  0
  5  6  1  0
  6  7  2  0
  6  8  1  0
  8  9  1  0
  8 10  1  0
 10 11  1  0
 11 12  1  0
 12 13  1  0
 13 14  1  0
 14 15  1  0
  3 16  1  0
 16 17  2  0
 17 18  1  0
 18 19  1  0
 18 20  2  0
 20 21  1  0
 21 22  2  0
 22 23  1  0
  1 24  1  0
 24 25  2  0
 25 26  1  0
 26 27  2  0
 27 28  1  0
 28 29  2  0
  5  1  1  0
 15 10  1  0
 22 16  1  0
 29 24  1  0
  1 30  1  1
  2 31  1  0
  4 32  1  0
  4 33  1  0
  9 34  1  0
  9 35  1  0
  9 36  1  0
 10 37  1  0
 11 38  1  0
 11 39  1  0
 12 40  1  0
 12 41  1  0
 13 42  1  0
 14 43  1  0
 14 44  1  0
 15 45  1  0
 15 46  1  0
 17 47  1  0
 20 48  1  0
 21 49  1  0
 25 50  1  0
 26 51  1  0
 27 52  1  0
 28 53  1  0
 29 54  1  0
M  END
$$$$
