
     RDKit          3D

 47 48  0  0  0  0  0  0  0  0999 V2000
    3.4479    0.8917    0.5857 C   0  0  1  0  0  0  0  0  0  0  0  0
    4.0483    1.4605   -0.5439 O   0  0  0  0  0  0  0  0  0  0  0  0
    2.3490    1.6884    0.8553 O   0  0  0  0  0  0  0  0  0  0  0  0
    1.3732    1.4087   -0.0972 C   0  0  2  0  0  0  0  0  0  0  0  0
    0.4350    2.5262   -0.3475 C   0  0  0  0  0  0  0  0  0  0  0  0
   -0.4804    2.1254   -1.3180 O   0  0  0  0  0  0  0  0  0  0  0  0
    0.7428    0.1274    0.3925 C   0  0  1  0  0  0  0  0  0  0  0  0
   -0.4626   -0.0508   -0.2059 O   0  0  0  0  0  0  0  0  0  0  0  0
   -1.5363   -0.2447    0.6049 C   0  0  2  0  0  0  0  0  0  0  0  0
   -1.9230   -1.6212    0.3955 O   0  0  0  0  0  0  0  0  0  0  0  0
   -2.8336   -2.0122   -0.5637 C   0  0  0  0  0  0  0  0  0  0  0  0
   -3.9809   -1.3632   -0.4402 C   0  0  0  0  0  0  0  0  0  0  0  0
   -3.9211   -0.4081    0.7070 C   0  0  2  0  0  0  0  0  0  0  0  0
   -5.1131    0.2695    0.8887 O   0  0  0  0  0  0  0  0  0  0  0  0
   -2.7626    0.5493    0.3539 C   0  0  1  0  0  0  0  0  0  0  0  0
   -2.9023    1.7080    1.1039 O   0  0  0  0  0  0  0  0  0  0  0  0
   -3.4154    2.9327    0.0766 S   0  0  0  0  0  0  0  0  0  0  0  0
   -3.5548    2.4202   -1.5165 O   0  0  0  0  0  1  0  0  0  0  0  0
   -4.7617    3.4628    0.4894 O   0  0  0  0  0  0  0  0  0  0  0  0
   -2.4830    4.1136    0.0741 O   0  0  0  0  0  0  0  0  0  0  0  0
   -2.6587   -3.0106   -1.6318 C   0  0  0  0  0  0  0  0  0  0  0  0
   -3.7573   -3.1938   -2.4524 O   0  0  0  0  0  1  0  0  0  0  0  0
   -1.5763   -3.6219   -1.7470 O   0  0  0  0  0  0  0  0  0  0  0  0
    1.7789   -0.9192    0.0019 C   0  0  2  0  0  0  0  0  0  0  0  0
    1.4295   -2.1825    0.5078 O   0  0  0  0  0  0  0  0  0  0  0  0
    3.1578   -0.5540    0.3922 C   0  0  1  0  0  0  0  0  0  0  0  0
    4.1376   -1.0953   -0.5339 N   0  0  0  0  0  0  0  0  0  0  0  0
    5.1737   -2.2419    0.2235 S   0  0  0  0  0  0  0  0  0  0  0  0
    4.2829   -3.5450    0.7926 O   0  0  0  0  0  1  0  0  0  0  0  0
    6.1326   -2.7503   -0.8049 O   0  0  0  0  0  0  0  0  0  0  0  0
    5.9659   -1.5628    1.2953 O   0  0  0  0  0  0  0  0  0  0  0  0
    4.1677    1.0515    1.4169 H   0  0  0  0  0  0  0  0  0  0  0  0
    3.8645    2.4099   -0.6338 H   0  0  0  0  0  0  0  0  0  0  0  0
    1.9538    1.2449   -1.0526 H   0  0  0  0  0  0  0  0  0  0  0  0
    1.0125    3.3609   -0.7935 H   0  0  0  0  0  0  0  0  0  0  0  0
   -0.1004    2.8546    0.5659 H   0  0  0  0  0  0  0  0  0  0  0  0
    0.0196    1.5422   -1.9654 H   0  0  0  0  0  0  0  0  0  0  0  0
    0.7219    0.1093    1.4971 H   0  0  0  0  0  0  0  0  0  0  0  0
   -1.3081   -0.2182    1.6924 H   0  0  0  0  0  0  0  0  0  0  0  0
   -4.8256   -1.5329   -1.1050 H   0  0  0  0  0  0  0  0  0  0  0  0
   -3.6086   -0.9737    1.6013 H   0  0  0  0  0  0  0  0  0  0  0  0
   -5.6627   -0.1367    1.6078 H   0  0  0  0  0  0  0  0  0  0  0  0
   -2.9534    0.7913   -0.7145 H   0  0  0  0  0  0  0  0  0  0  0  0
    1.7033   -1.0145   -1.1027 H   0  0  0  0  0  0  0  0  0  0  0  0
    1.5888   -2.2488    1.4805 H   0  0  0  0  0  0  0  0  0  0  0  0
    3.3801   -1.0707    1.3734 H   0  0  0  0  0  0  0  0  0  0  0  0
    3.7150   -1.4759   -1.4056 H   0  0  0  0  0  0  0  0  0  0  0  0
  1  2  1  0
  1  3  1  0
  3  4  1  0
  4  5  1  0
  5  6  1  0
  4  7  1  0
  7  8  1  0
  8  9  1  0
  9 10  1  0
 10 11  1  0
 11 12  2  0
 12 13  1  0
 13 14  1  0
 13 15  1  0
 15 16  1  0
 16 17  1  0
 17 18  1  0
 17 19  2  0
 17 20  2  0
 11 21  1  0
 21 22  1  0
 21 23  2  0
  7 24  1  0
 24 25  1  0
 24 26  1  0
 26 27  1  0
 27 28  1  0
 28 29  1  0
 28 30  2  0
 28 31  2  0
 26  1  1  0
 15  9  1  0
  1 32  1  1
  2 33  1  0
  4 34  1  6
  5 35  1  0
  5 36  1  0
  6 37  1  0
  7 38  1  1
  9 39  1  1
 12 40  1  0
 13 41  1  1
 14 42  1  0
 15 43  1  6
 24 44  1  6
 25 45  1  0
 26 46  1  1
 27 47  1  0
M  CHG  3  18  -1  22  -1  29  -1
M  END
$$$$
