
     RDKit          3D

 62 66  0  0  0  0  0  0  0  0999 V2000
   -3.4256    4.6256   -2.3234 C   0  0  0  0  0  0  0  0  0  0  0  0
   -2.7810    4.6331   -0.9702 C   0  0  0  0  0  0  0  0  0  0  0  0
   -2.9257    3.3375   -0.2836 C   0  0  0  0  0  0  0  0  0  0  0  0
   -2.2526    2.2155   -1.0585 C   0  0  0  0  0  0  0  0  0  0  0  0
   -2.3888    0.9319   -0.3541 C   0  0  0  0  0  0  0  0  0  0  0  0
   -3.3836    0.0508   -0.6674 N   0  0  0  0  0  0  0  0  0  0  0  0
   -3.3483   -0.9619    0.1612 N   0  0  0  0  0  0  0  0  0  0  0  0
   -4.2227   -2.0818    0.1659 C   0  0  0  0  0  0  0  0  0  0  0  0
   -4.0383   -3.1367   -0.7114 C   0  0  0  0  0  0  0  0  0  0  0  0
   -4.8734   -4.2286   -0.7205 C   0  0  0  0  0  0  0  0  0  0  0  0
   -4.6177   -5.5514   -1.8492 Cl  0  0  0  0  0  0  0  0  0  0  0  0
   -5.9361   -4.3253    0.1447 C   0  0  0  0  0  0  0  0  0  0  0  0
   -6.1407   -3.2886    1.0281 C   0  0  0  0  0  0  0  0  0  0  0  0
   -5.2882   -2.1808    1.0323 C   0  0  0  0  0  0  0  0  0  0  0  0
   -5.5878   -0.8974    2.1637 Cl  0  0  0  0  0  0  0  0  0  0  0  0
   -2.3387   -0.7773    1.0341 C   0  0  0  0  0  0  0  0  0  0  0  0
   -2.0314   -1.7080    2.0867 C   0  0  0  0  0  0  0  0  0  0  0  0
   -2.6874   -2.7751    2.2222 O   0  0  0  0  0  0  0  0  0  0  0  0
   -1.0245   -1.4802    2.9849 O   0  0  0  0  0  0  0  0  0  0  0  0
   -1.6962    0.4312    0.7302 C   0  0  0  0  0  0  0  0  0  0  0  0
   -0.4976    0.9732    1.3908 C   0  0  0  0  0  0  0  0  0  0  0  0
    0.7699    0.4732    0.8352 C   0  0  0  0  0  0  0  0  0  0  0  0
    1.1464    0.7259   -0.4524 C   0  0  0  0  0  0  0  0  0  0  0  0
    2.3631    0.2492   -0.8981 C   0  0  0  0  0  0  0  0  0  0  0  0
    3.2198   -0.4677   -0.1166 C   0  0  0  0  0  0  0  0  0  0  0  0
    4.4810   -0.9573   -0.6433 C   0  0  0  0  0  0  0  0  0  0  0  0
    4.5497   -1.9745   -1.5659 C   0  0  0  0  0  0  0  0  0  0  0  0
    5.7711   -2.4515   -2.0384 C   0  0  0  0  0  0  0  0  0  0  0  0
    6.9468   -1.9087   -1.5870 C   0  0  0  0  0  0  0  0  0  0  0  0
    6.8898   -0.8906   -0.6644 C   0  0  0  0  0  0  0  0  0  0  0  0
    5.6561   -0.4237   -0.2010 C   0  0  0  0  0  0  0  0  0  0  0  0
    5.6410    0.6710    0.7474 C   0  0  0  0  0  0  0  0  0  0  0  0
    4.6131    1.3701    1.2537 N   0  0  0  0  0  0  0  0  0  0  0  0
    5.1126    2.2832    2.0659 N   0  0  0  0  0  0  0  0  0  0  0  0
    6.4249    2.1879    2.0928 N   0  0  0  0  0  0  0  0  0  0  0  0
    6.7611    1.2068    1.2919 N   0  0  0  0  0  0  0  0  0  0  0  0
    2.8546   -0.7371    1.2013 C   0  0  0  0  0  0  0  0  0  0  0  0
    1.6549   -0.2679    1.6466 C   0  0  0  0  0  0  0  0  0  0  0  0
   -3.0673    3.8130   -2.9487 H   0  0  0  0  0  0  0  0  0  0  0  0
   -4.5351    4.6840   -2.2282 H   0  0  0  0  0  0  0  0  0  0  0  0
   -3.0612    5.5790   -2.8312 H   0  0  0  0  0  0  0  0  0  0  0  0
   -1.6897    4.8593   -1.0485 H   0  0  0  0  0  0  0  0  0  0  0  0
   -3.2457    5.4560   -0.3652 H   0  0  0  0  0  0  0  0  0  0  0  0
   -4.0169    3.1235   -0.1599 H   0  0  0  0  0  0  0  0  0  0  0  0
   -2.4336    3.3777    0.7240 H   0  0  0  0  0  0  0  0  0  0  0  0
   -1.2579    2.5004   -1.3958 H   0  0  0  0  0  0  0  0  0  0  0  0
   -2.8586    2.1294   -2.0108 H   0  0  0  0  0  0  0  0  0  0  0  0
   -3.2113   -3.0680   -1.3875 H   0  0  0  0  0  0  0  0  0  0  0  0
   -6.5838   -5.1955    0.1181 H   0  0  0  0  0  0  0  0  0  0  0  0
   -6.9552   -3.3216    1.7176 H   0  0  0  0  0  0  0  0  0  0  0  0
   -0.4177   -2.2097    3.3207 H   0  0  0  0  0  0  0  0  0  0  0  0
   -0.4936    2.0976    1.2610 H   0  0  0  0  0  0  0  0  0  0  0  0
   -0.5517    0.7226    2.4785 H   0  0  0  0  0  0  0  0  0  0  0  0
    0.5268    1.2871   -1.1580 H   0  0  0  0  0  0  0  0  0  0  0  0
    2.6195    0.4828   -1.9548 H   0  0  0  0  0  0  0  0  0  0  0  0
    3.6236   -2.4165   -1.9311 H   0  0  0  0  0  0  0  0  0  0  0  0
    5.8086   -3.2466   -2.7606 H   0  0  0  0  0  0  0  0  0  0  0  0
    7.9228   -2.2543   -1.9292 H   0  0  0  0  0  0  0  0  0  0  0  0
    7.8356   -0.4608   -0.3080 H   0  0  0  0  0  0  0  0  0  0  0  0
    7.7539    0.9324    1.1462 H   0  0  0  0  0  0  0  0  0  0  0  0
    3.5484   -1.3071    1.8024 H   0  0  0  0  0  0  0  0  0  0  0  0
    1.3702   -0.4588    2.6751 H   0  0  0  0  0  0  0  0  0  0  0  0
  1  2  1  0
  2  3  1  0
  3  4  1  0
  4  5  1  0
  5  6  2  0
  6  7  1  0
  7  8  1  0
  8  9  2  0
  9 10  1  0
 10 11  1  0
 10 12  2  0
 12 13  1  0
 13 14  2  0
 14 15  1  0
  7 16  1  0
 16 17  1  0
 17 18  2  0
 17 19  1  0
 16 20  2  0
 20 21  1  0
 21 22  1  0
 22 23  2  0
 23 24  1  0
 24 25  2  0
 25 26  1  0
 26 27  2  0
 27 28  1  0
 28 29  2  0
 29 30  1  0
 30 31  2  0
 31 32  1  0
 32 33  2  0
 33 34  1  0
 34 35  2  0
 35 36  1  0
 25 37  1  0
 37 38  2  0
 20  5  1  0
 38 22  1  0
 14  8  1  0
 31 26  1  0
 36 32  1  0
  1 39  1  0
  1 40  1  0
  1 41  1  0
  2 42  1  0
  2 43  1  0
  3 44  1  0
  3 45  1  0
  4 46  1  0
  4 47  1  0
  9 48  1  0
 12 49  1  0
 13 50  1  0
 19 51  1  0
 21 52  1  0
 21 53  1  0
 23 54  1  0
 24 55  1  0
 27 56  1  0
 28 57  1  0
 29 58  1  0
 30 59  1  0
 36 60  1  0
 37 61  1  0
 38 62  1  0
M  END
$$$$
