
     RDKit          3D

 45 48  0  0  0  0  0  0  0  0999 V2000
    1.1852    0.0109   -1.2445 O   0  0  0  0  0  0  0  0  0  0  0  0
    1.5956   -0.4692   -0.1689 C   0  0  0  0  0  0  0  0  0  0  0  0
    0.6773   -1.3408    0.6382 C   0  0  0  0  0  0  0  0  0  0  0  0
   -0.6366   -1.4808   -0.0353 C   0  0  0  0  0  0  0  0  0  0  0  0
   -1.6181   -0.6071    0.2285 N   0  0  0  0  0  0  0  0  0  0  0  0
   -2.8233   -0.7152   -0.3734 C   0  0  0  0  0  0  0  0  0  0  0  0
   -3.8185    0.2409   -0.0555 N   0  0  0  0  0  0  0  0  0  0  0  0
   -5.1619    0.1716   -0.5794 C   0  0  0  0  0  0  0  0  0  0  0  0
   -6.2052    0.7853    0.2880 C   0  0  0  0  0  0  0  0  0  0  0  0
   -5.7834    1.8164    1.0899 O   0  0  0  0  0  0  0  0  0  0  0  0
   -4.6471    1.4564    1.8317 C   0  0  0  0  0  0  0  0  0  0  0  0
   -3.5119    1.3719    0.8363 C   0  0  0  0  0  0  0  0  0  0  0  0
   -3.0471   -1.7290   -1.2645 C   0  0  0  0  0  0  0  0  0  0  0  0
   -2.0359   -2.6297   -1.5368 C   0  0  0  0  0  0  0  0  0  0  0  0
   -2.2748   -3.5552   -2.3650 O   0  0  0  0  0  0  0  0  0  0  0  0
   -0.8672   -2.4731   -0.9124 N   0  0  0  0  0  0  0  0  0  0  0  0
    2.8986   -0.1912    0.2692 N   0  0  0  0  0  0  0  0  0  0  0  0
    3.5778   -0.6480    1.4915 C   0  0  0  0  0  0  0  0  0  0  0  0
    4.9705   -0.8749    0.9501 C   0  0  0  0  0  0  0  0  0  0  0  0
    5.1347    0.2390   -0.0118 C   0  0  0  0  0  0  0  0  0  0  0  0
    6.2465    0.8918   -0.5331 C   0  0  0  0  0  0  0  0  0  0  0  0
    6.1374    1.9213   -1.4388 C   0  0  0  0  0  0  0  0  0  0  0  0
    7.2621    2.5164   -1.9090 F   0  0  0  0  0  0  0  0  0  0  0  0
    4.8734    2.2978   -1.8249 C   0  0  0  0  0  0  0  0  0  0  0  0
    3.7655    1.6561   -1.3130 C   0  0  0  0  0  0  0  0  0  0  0  0
    3.8708    0.6206   -0.4022 C   0  0  0  0  0  0  0  0  0  0  0  0
    1.1689   -2.3313    0.8014 H   0  0  0  0  0  0  0  0  0  0  0  0
    0.5250   -0.8895    1.6298 H   0  0  0  0  0  0  0  0  0  0  0  0
   -5.1230    0.6172   -1.5995 H   0  0  0  0  0  0  0  0  0  0  0  0
   -5.4220   -0.9020   -0.7007 H   0  0  0  0  0  0  0  0  0  0  0  0
   -6.9863    1.2190   -0.4012 H   0  0  0  0  0  0  0  0  0  0  0  0
   -6.7057   -0.0091    0.8934 H   0  0  0  0  0  0  0  0  0  0  0  0
   -4.7823    0.5172    2.3806 H   0  0  0  0  0  0  0  0  0  0  0  0
   -4.4522    2.3330    2.5129 H   0  0  0  0  0  0  0  0  0  0  0  0
   -2.5424    1.2132    1.3559 H   0  0  0  0  0  0  0  0  0  0  0  0
   -3.5162    2.3309    0.2585 H   0  0  0  0  0  0  0  0  0  0  0  0
   -3.9932   -1.8385   -1.7592 H   0  0  0  0  0  0  0  0  0  0  0  0
   -0.0862   -3.1407   -1.1008 H   0  0  0  0  0  0  0  0  0  0  0  0
    3.1164   -1.5520    1.8987 H   0  0  0  0  0  0  0  0  0  0  0  0
    3.5574    0.2226    2.1888 H   0  0  0  0  0  0  0  0  0  0  0  0
    4.9363   -1.8689    0.4246 H   0  0  0  0  0  0  0  0  0  0  0  0
    5.7400   -0.8650    1.7469 H   0  0  0  0  0  0  0  0  0  0  0  0
    7.2561    0.5942   -0.2274 H   0  0  0  0  0  0  0  0  0  0  0  0
    4.7819    3.1047   -2.5351 H   0  0  0  0  0  0  0  0  0  0  0  0
    2.7631    1.9628   -1.6263 H   0  0  0  0  0  0  0  0  0  0  0  0
  1  2  2  0
  2  3  1  0
  3  4  1  0
  4  5  2  0
  5  6  1  0
  6  7  1  0
  7  8  1  0
  8  9  1  0
  9 10  1  0
 10 11  1  0
 11 12  1  0
  6 13  2  0
 13 14  1  0
 14 15  2  0
 14 16  1  0
  2 17  1  0
 17 18  1  0
 18 19  1  0
 19 20  1  0
 20 21  2  0
 21 22  1  0
 22 23  1  0
 22 24  2  0
 24 25  1  0
 25 26  2  0
 16  4  1  0
 26 17  1  0
 12  7  1  0
 26 20  1  0
  3 27  1  0
  3 28  1  0
  8 29  1  0
  8 30  1  0
  9 31  1  0
  9 32  1  0
 11 33  1  0
 11 34  1  0
 12 35  1  0
 12 36  1  0
 13 37  1  0
 16 38  1  0
 18 39  1  0
 18 40  1  0
 19 41  1  0
 19 42  1  0
 21 43  1  0
 24 44  1  0
 25 45  1  0
M  END
$$$$
