
     RDKit          3D

 29 30  0  0  0  0  0  0  0  0999 V2000
   -2.9158   -0.5568    0.9432 C   0  0  0  0  0  0  0  0  0  0  0  0
   -2.6800    0.2368   -0.3505 C   0  0  0  0  0  0  0  0  0  0  0  0
   -3.3783    1.3108   -0.6963 C   0  0  0  0  0  0  0  0  0  0  0  0
   -3.1680    1.9948   -1.8249 C   0  0  0  0  0  0  0  0  0  0  0  0
   -1.7618    0.9942   -2.5502 S   0  0  0  0  0  0  0  0  0  0  0  0
   -1.6685   -0.1885   -1.2326 C   0  0  0  0  0  0  0  0  0  0  0  0
   -0.7680   -1.3718   -1.0857 C   0  0  0  0  0  0  0  0  0  0  0  0
    0.2506   -1.1654   -0.0826 N   0  0  0  0  0  0  0  0  0  0  0  0
    1.3859   -0.3538   -0.2070 C   0  0  0  0  0  0  0  0  0  0  0  0
    1.6735    0.3174   -1.4062 C   0  0  0  0  0  0  0  0  0  0  0  0
    2.7420    1.0764   -1.5987 N   0  0  0  0  0  0  0  0  0  0  0  0
    3.6476    1.2568   -0.6261 C   0  0  0  0  0  0  0  0  0  0  0  0
    3.4270    0.6301    0.5670 C   0  0  0  0  0  0  0  0  0  0  0  0
    2.3027   -0.1795    0.7977 C   0  0  0  0  0  0  0  0  0  0  0  0
    2.1715   -0.7890    2.1088 C   0  0  0  0  0  0  0  0  0  0  0  0
    1.2580   -1.5244    2.5182 O   0  0  0  0  0  0  0  0  0  0  0  0
    3.1796   -0.5423    3.0607 O   0  0  0  0  0  0  0  0  0  0  0  0
   -2.7287   -1.6168    0.7462 H   0  0  0  0  0  0  0  0  0  0  0  0
   -2.3171   -0.1142    1.7550 H   0  0  0  0  0  0  0  0  0  0  0  0
   -3.9878   -0.4551    1.2093 H   0  0  0  0  0  0  0  0  0  0  0  0
   -4.2137    1.6987   -0.0109 H   0  0  0  0  0  0  0  0  0  0  0  0
   -3.5548    2.8316   -2.3126 H   0  0  0  0  0  0  0  0  0  0  0  0
   -0.3305   -1.6220   -2.0809 H   0  0  0  0  0  0  0  0  0  0  0  0
   -1.3467   -2.2818   -0.8128 H   0  0  0  0  0  0  0  0  0  0  0  0
    0.0689   -1.6966    0.7944 H   0  0  0  0  0  0  0  0  0  0  0  0
    0.9919    0.1894   -2.2052 H   0  0  0  0  0  0  0  0  0  0  0  0
    4.5316    1.8894   -0.7969 H   0  0  0  0  0  0  0  0  0  0  0  0
    4.1657    0.7854    1.3397 H   0  0  0  0  0  0  0  0  0  0  0  0
    3.0233   -0.7534    4.0398 H   0  0  0  0  0  0  0  0  0  0  0  0
  1  2  1  0
  2  3  1  0
  3  4  2  0
  4  5  1  0
  5  6  1  0
  6  7  1  0
  7  8  1  0
  8  9  1  0
  9 10  2  0
 10 11  1  0
 11 12  2  0
 12 13  1  0
 13 14  2  0
 14 15  1  0
 15 16  2  0
 15 17  1  0
  6  2  2  0
 14  9  1  0
  1 18  1  0
  1 19  1  0
  1 20  1  0
  3 21  1  0
  4 22  1  0
  7 23  1  0
  7 24  1  0
  8 25  1  0
 10 26  1  0
 12 27  1  0
 13 28  1  0
 17 29  1  0
M  END
$$$$
