
     RDKit          3D

 33 36  0  0  0  0  0  0  0  0999 V2000
   -1.4588   -2.2554   -2.6888 N   0  0  0  0  0  0  0  0  0  0  0  0
   -0.2542   -2.2696   -2.0866 C   0  0  0  0  0  0  0  0  0  0  0  0
   -0.2484   -1.3599   -1.0255 C   0  0  0  0  0  0  0  0  0  0  0  0
   -1.5141   -0.8154   -1.0421 C   0  0  0  0  0  0  0  0  0  0  0  0
   -2.2267   -1.3778   -2.0622 N   0  0  0  0  0  0  0  0  0  0  0  0
   -2.0183    0.1941   -0.1200 C   0  0  0  0  0  0  0  0  0  0  0  0
   -1.9056    1.5328   -0.1866 N   0  0  0  0  0  0  0  0  0  0  0  0
   -2.4299    2.3488    0.7463 C   0  0  0  0  0  0  0  0  0  0  0  0
   -3.1131    1.7825    1.8176 C   0  0  0  0  0  0  0  0  0  0  0  0
   -3.2589    0.3989    1.9342 C   0  0  0  0  0  0  0  0  0  0  0  0
   -2.6922   -0.3947    0.9340 C   0  0  0  0  0  0  0  0  0  0  0  0
    0.8833   -1.0979   -0.1465 C   0  0  0  0  0  0  0  0  0  0  0  0
    1.6422    0.0538   -0.0432 C   0  0  0  0  0  0  0  0  0  0  0  0
    1.2697    1.0657   -0.8928 C   0  0  0  0  0  0  0  0  0  0  0  0
    2.0183    2.2348   -0.8105 C   0  0  0  0  0  0  0  0  0  0  0  0
    3.0775    2.3343    0.0950 C   0  0  0  0  0  0  0  0  0  0  0  0
    3.4142    1.2872    0.9300 C   0  0  0  0  0  0  0  0  0  0  0  0
    2.6833    0.1270    0.8591 C   0  0  0  0  0  0  0  0  0  0  0  0
    3.0093   -0.9066    1.6742 N   0  0  0  0  0  0  0  0  0  0  0  0
    2.2919   -2.0414    1.5994 C   0  0  0  0  0  0  0  0  0  0  0  0
    1.2326   -2.1543    0.7010 C   0  0  0  0  0  0  0  0  0  0  0  0
   -1.8601   -2.7714   -3.4953 H   0  0  0  0  0  0  0  0  0  0  0  0
    0.5587   -2.9217   -2.4273 H   0  0  0  0  0  0  0  0  0  0  0  0
   -2.2917    3.4102    0.6143 H   0  0  0  0  0  0  0  0  0  0  0  0
   -3.5374    2.4568    2.5746 H   0  0  0  0  0  0  0  0  0  0  0  0
   -3.8031   -0.0248    2.7894 H   0  0  0  0  0  0  0  0  0  0  0  0
   -2.8522   -1.4613    1.1015 H   0  0  0  0  0  0  0  0  0  0  0  0
    0.4474    0.9735   -1.5890 H   0  0  0  0  0  0  0  0  0  0  0  0
    1.7962    3.0778   -1.4386 H   0  0  0  0  0  0  0  0  0  0  0  0
    3.6928    3.2230    0.1998 H   0  0  0  0  0  0  0  0  0  0  0  0
    4.2274    1.3294    1.6420 H   0  0  0  0  0  0  0  0  0  0  0  0
    2.5231   -2.8867    2.2338 H   0  0  0  0  0  0  0  0  0  0  0  0
    0.6968   -3.0914    0.6903 H   0  0  0  0  0  0  0  0  0  0  0  0
  1  2  1  0
  2  3  2  0
  3  4  1  0
  4  5  2  0
  4  6  1  0
  6  7  2  0
  7  8  1  0
  8  9  2  0
  9 10  1  0
 10 11  2  0
  3 12  1  0
 12 13  1  0
 13 14  2  0
 14 15  1  0
 15 16  2  0
 16 17  1  0
 17 18  2  0
 18 19  1  0
 19 20  2  0
 20 21  1  0
  5  1  1  0
 11  6  1  0
 21 12  2  0
 18 13  1  0
  1 22  1  0
  2 23  1  0
  8 24  1  0
  9 25  1  0
 10 26  1  0
 11 27  1  0
 14 28  1  0
 15 29  1  0
 16 30  1  0
 17 31  1  0
 20 32  1  0
 21 33  1  0
M  END
$$$$
