
     RDKit          3D

 52 53  0  0  0  0  0  0  0  0999 V2000
   -2.5503   -2.4059    2.3240 C   0  0  0  0  0  0  0  0  0  0  0  0
   -1.4621   -2.4492    1.2560 C   0  0  0  0  0  0  0  0  0  0  0  0
   -0.3334   -3.3177    1.7691 C   0  0  0  0  0  0  0  0  0  0  0  0
   -2.0533   -3.1746    0.0687 C   0  0  0  0  0  0  0  0  0  0  0  0
   -0.9530   -1.1149    0.9324 C   0  0  0  0  0  0  0  0  0  0  0  0
    0.3851   -0.8464    1.1281 C   0  0  0  0  0  0  0  0  0  0  0  0
    0.9152    0.4176    0.8320 C   0  0  0  0  0  0  0  0  0  0  0  0
    2.3546    0.7039    1.0550 C   0  0  0  0  0  0  0  0  0  0  0  0
    3.2526    0.2430    0.0091 C   0  0  0  0  0  0  0  0  0  0  0  0
    3.9944   -0.9041    0.1917 C   0  0  0  0  0  0  0  0  0  0  0  0
    4.8152   -1.3212   -0.7861 N   0  0  0  0  0  0  0  0  0  0  0  0
    4.9633   -0.6811   -1.9525 C   0  0  0  0  0  0  0  0  0  0  0  0
    5.8482   -1.1650   -2.9590 N   0  0  0  0  0  0  0  0  0  0  0  0
    4.2497    0.4382   -2.1496 N   0  0  0  0  0  0  0  0  0  0  0  0
    3.4014    0.8995   -1.1812 C   0  0  0  0  0  0  0  0  0  0  0  0
    2.7057    2.0892   -1.4929 N   0  0  0  0  0  0  0  0  0  0  0  0
    0.0646    1.3805    0.3421 C   0  0  0  0  0  0  0  0  0  0  0  0
   -1.2991    1.1626    0.1243 C   0  0  0  0  0  0  0  0  0  0  0  0
   -2.1386    2.2403   -0.4013 C   0  0  0  0  0  0  0  0  0  0  0  0
   -1.2862    3.4709   -0.6176 C   0  0  0  0  0  0  0  0  0  0  0  0
   -3.2722    2.6338    0.5074 C   0  0  0  0  0  0  0  0  0  0  0  0
   -2.7585    1.9002   -1.7544 C   0  0  0  0  0  0  0  0  0  0  0  0
   -1.7666   -0.0972    0.4322 C   0  0  0  0  0  0  0  0  0  0  0  0
   -3.0888   -0.3769    0.2433 O   0  0  0  0  0  0  0  0  0  0  0  0
   -2.3428   -1.6627    3.1069 H   0  0  0  0  0  0  0  0  0  0  0  0
   -2.6356   -3.3921    2.8371 H   0  0  0  0  0  0  0  0  0  0  0  0
   -3.5396   -2.1665    1.8952 H   0  0  0  0  0  0  0  0  0  0  0  0
    0.3958   -3.3921    0.9133 H   0  0  0  0  0  0  0  0  0  0  0  0
   -0.6992   -4.3588    1.9723 H   0  0  0  0  0  0  0  0  0  0  0  0
    0.1405   -2.9444    2.6765 H   0  0  0  0  0  0  0  0  0  0  0  0
   -1.3626   -3.1062   -0.7820 H   0  0  0  0  0  0  0  0  0  0  0  0
   -3.0891   -2.9071   -0.1380 H   0  0  0  0  0  0  0  0  0  0  0  0
   -2.0662   -4.2662    0.3586 H   0  0  0  0  0  0  0  0  0  0  0  0
    1.0918   -1.5699    1.5108 H   0  0  0  0  0  0  0  0  0  0  0  0
    2.6067    0.2775    2.0678 H   0  0  0  0  0  0  0  0  0  0  0  0
    2.4216    1.8125    1.2051 H   0  0  0  0  0  0  0  0  0  0  0  0
    3.9267   -1.4847    1.1228 H   0  0  0  0  0  0  0  0  0  0  0  0
    6.8550   -1.3644   -2.7930 H   0  0  0  0  0  0  0  0  0  0  0  0
    5.4030   -1.3123   -3.9113 H   0  0  0  0  0  0  0  0  0  0  0  0
    2.6979    2.8636   -0.7997 H   0  0  0  0  0  0  0  0  0  0  0  0
    2.1959    2.2325   -2.3873 H   0  0  0  0  0  0  0  0  0  0  0  0
    0.4959    2.3706    0.1225 H   0  0  0  0  0  0  0  0  0  0  0  0
   -1.9551    4.2700   -1.0473 H   0  0  0  0  0  0  0  0  0  0  0  0
   -0.4969    3.3262   -1.3752 H   0  0  0  0  0  0  0  0  0  0  0  0
   -0.9202    3.8185    0.3586 H   0  0  0  0  0  0  0  0  0  0  0  0
   -3.5439    3.6980    0.2712 H   0  0  0  0  0  0  0  0  0  0  0  0
   -4.1595    2.0377    0.2295 H   0  0  0  0  0  0  0  0  0  0  0  0
   -3.0153    2.6079    1.5688 H   0  0  0  0  0  0  0  0  0  0  0  0
   -2.2106    1.1047   -2.2649 H   0  0  0  0  0  0  0  0  0  0  0  0
   -2.8353    2.8252   -2.3929 H   0  0  0  0  0  0  0  0  0  0  0  0
   -3.8075    1.5583   -1.6279 H   0  0  0  0  0  0  0  0  0  0  0  0
   -3.5394   -0.6013   -0.6185 H   0  0  0  0  0  0  0  0  0  0  0  0
  1  2  1  0
  2  3  1  0
  2  4  1  0
  2  5  1  0
  5  6  2  0
  6  7  1  0
  7  8  1  0
  8  9  1  0
  9 10  2  0
 10 11  1  0
 11 12  2  0
 12 13  1  0
 12 14  1  0
 14 15  2  0
 15 16  1  0
  7 17  2  0
 17 18  1  0
 18 19  1  0
 19 20  1  0
 19 21  1  0
 19 22  1  0
 18 23  2  0
 23 24  1  0
 23  5  1  0
 15  9  1  0
  1 25  1  0
  1 26  1  0
  1 27  1  0
  3 28  1  0
  3 29  1  0
  3 30  1  0
  4 31  1  0
  4 32  1  0
  4 33  1  0
  6 34  1  0
  8 35  1  0
  8 36  1  0
 10 37  1  0
 13 38  1  0
 13 39  1  0
 16 40  1  0
 16 41  1  0
 17 42  1  0
 20 43  1  0
 20 44  1  0
 20 45  1  0
 21 46  1  0
 21 47  1  0
 21 48  1  0
 22 49  1  0
 22 50  1  0
 22 51  1  0
 24 52  1  0
M  END
$$$$
