
     RDKit          3D

 49 52  0  0  0  0  0  0  0  0999 V2000
   -8.7955   -0.7400    3.1335 N   0  0  0  0  0  0  0  0  0  0  0  0
   -7.7067   -0.0046    2.6119 C   0  0  0  0  0  0  0  0  0  0  0  0
   -7.4310    1.1437    3.0327 O   0  0  0  0  0  0  0  0  0  0  0  0
   -6.8751   -0.5945    1.5516 C   0  0  0  0  0  0  0  0  0  0  0  0
   -7.1557   -1.8587    1.0684 C   0  0  0  0  0  0  0  0  0  0  0  0
   -6.4312   -2.4334    0.1097 N   0  0  0  0  0  0  0  0  0  0  0  0
   -5.3883   -1.7887   -0.4243 C   0  0  0  0  0  0  0  0  0  0  0  0
   -5.0777   -0.5266    0.0316 C   0  0  0  0  0  0  0  0  0  0  0  0
   -4.0045    0.1403   -0.5160 O   0  0  0  0  0  0  0  0  0  0  0  0
   -3.2172   -0.4472   -1.5366 C   0  0  0  0  0  0  0  0  0  0  0  0
   -2.1296    0.4661   -1.9552 C   0  0  0  0  0  0  0  0  0  0  0  0
   -2.3265    1.3701   -2.9746 C   0  0  0  0  0  0  0  0  0  0  0  0
   -1.2666    2.2076   -3.3283 C   0  0  0  0  0  0  0  0  0  0  0  0
   -0.0580    2.1117   -2.6556 C   0  0  0  0  0  0  0  0  0  0  0  0
    0.1459    1.2104   -1.6358 C   0  0  0  0  0  0  0  0  0  0  0  0
    1.4028    1.1515   -0.9779 N   0  0  0  0  0  0  0  0  0  0  0  0
    2.4470    0.3150   -1.4134 C   0  0  0  0  0  0  0  0  0  0  0  0
    2.2194   -0.3968   -2.4333 O   0  0  0  0  0  0  0  0  0  0  0  0
    3.7473    0.2247   -0.7695 C   0  0  0  0  0  0  0  0  0  0  0  0
    4.0616    0.9723    0.3456 C   0  0  0  0  0  0  0  0  0  0  0  0
    5.3176    0.8447    0.9170 C   0  0  0  0  0  0  0  0  0  0  0  0
    6.2731   -0.0164    0.3991 C   0  0  0  0  0  0  0  0  0  0  0  0
    7.5678   -0.1603    0.9727 N   0  0  0  0  0  0  0  0  0  0  0  0
    8.1446   -1.3563    1.2082 C   0  0  0  0  0  0  0  0  0  0  0  0
    9.4041   -1.1591    1.7722 C   0  0  0  0  0  0  0  0  0  0  0  0
    9.5424    0.2104    1.8581 C   0  0  0  0  0  0  0  0  0  0  0  0
    8.4166    0.7517    1.3667 N   0  0  0  0  0  0  0  0  0  0  0  0
    5.9397   -0.7335   -0.6891 N   0  0  0  0  0  0  0  0  0  0  0  0
    4.7192   -0.6210   -1.2587 C   0  0  0  0  0  0  0  0  0  0  0  0
   -0.9227    0.3959   -1.3098 C   0  0  0  0  0  0  0  0  0  0  0  0
   -5.8093    0.1071    1.0303 C   0  0  0  0  0  0  0  0  0  0  0  0
   -8.6431   -1.7014    3.4809 H   0  0  0  0  0  0  0  0  0  0  0  0
   -9.7699   -0.3455    3.1843 H   0  0  0  0  0  0  0  0  0  0  0  0
   -8.0127   -2.3779    1.5135 H   0  0  0  0  0  0  0  0  0  0  0  0
   -4.7967   -2.2617   -1.2093 H   0  0  0  0  0  0  0  0  0  0  0  0
   -3.8455   -0.6358   -2.4387 H   0  0  0  0  0  0  0  0  0  0  0  0
   -2.7572   -1.3956   -1.2351 H   0  0  0  0  0  0  0  0  0  0  0  0
   -3.2538    1.4650   -3.5125 H   0  0  0  0  0  0  0  0  0  0  0  0
   -1.4133    2.9248   -4.1325 H   0  0  0  0  0  0  0  0  0  0  0  0
    0.7306    2.7811   -2.9663 H   0  0  0  0  0  0  0  0  0  0  0  0
    1.5601    1.7492   -0.1411 H   0  0  0  0  0  0  0  0  0  0  0  0
    3.3651    1.6546    0.7914 H   0  0  0  0  0  0  0  0  0  0  0  0
    5.6193    1.4097    1.7971 H   0  0  0  0  0  0  0  0  0  0  0  0
    7.7430   -2.3521    1.0117 H   0  0  0  0  0  0  0  0  0  0  0  0
   10.1192   -1.9206    2.0769 H   0  0  0  0  0  0  0  0  0  0  0  0
   10.4282    0.6808    2.2607 H   0  0  0  0  0  0  0  0  0  0  0  0
    4.5046   -1.2319   -2.1454 H   0  0  0  0  0  0  0  0  0  0  0  0
   -0.7819   -0.3273   -0.5023 H   0  0  0  0  0  0  0  0  0  0  0  0
   -5.5498    1.0986    1.3751 H   0  0  0  0  0  0  0  0  0  0  0  0
  1  2  1  0
  2  3  2  0
  2  4  1  0
  4  5  2  0
  5  6  1  0
  6  7  2  0
  7  8  1  0
  8  9  1  0
  9 10  1  0
 10 11  1  0
 11 12  2  0
 12 13  1  0
 13 14  2  0
 14 15  1  0
 15 16  1  0
 16 17  1  0
 17 18  2  0
 17 19  1  0
 19 20  2  0
 20 21  1  0
 21 22  2  0
 22 23  1  0
 23 24  1  0
 24 25  2  0
 25 26  1  0
 26 27  2  0
 22 28  1  0
 28 29  2  0
 15 30  2  0
  8 31  2  0
 31  4  1  0
 30 11  1  0
 29 19  1  0
 27 23  1  0
  1 32  1  0
  1 33  1  0
  5 34  1  0
  7 35  1  0
 10 36  1  0
 10 37  1  0
 12 38  1  0
 13 39  1  0
 14 40  1  0
 16 41  1  0
 20 42  1  0
 21 43  1  0
 24 44  1  0
 25 45  1  0
 26 46  1  0
 29 47  1  0
 30 48  1  0
 31 49  1  0
M  END
$$$$
