
     RDKit          3D

 56 60  0  0  0  0  0  0  0  0999 V2000
    3.8056   -4.0797   -0.6978 O   0  0  0  0  0  0  0  0  0  0  0  0
    3.6115   -2.7630   -0.2352 C   0  0  0  0  0  0  0  0  0  0  0  0
    3.5593   -1.8565   -1.4699 C   0  0  0  0  0  0  0  0  0  0  0  0
    2.6165   -0.6963   -1.1991 C   0  0  0  0  0  0  0  0  0  0  0  0
    2.6967   -0.4119    0.2772 C   0  0  0  0  0  0  0  0  0  0  0  0
    2.3363    0.9722    0.5876 N   0  0  0  0  0  0  0  0  0  0  0  0
    1.0512    1.4590    0.2429 C   0  0  0  0  0  0  0  0  0  0  0  0
    0.1667    0.6027   -0.3735 N   0  0  0  0  0  0  0  0  0  0  0  0
   -1.0536    0.9583   -0.7429 C   0  0  0  0  0  0  0  0  0  0  0  0
   -1.9619    0.0212   -1.3795 N   0  0  0  0  0  0  0  0  0  0  0  0
   -2.9031   -0.6158   -0.5363 C   0  0  0  0  0  0  0  0  0  0  0  0
   -2.9632   -0.2884    0.8255 C   0  0  0  0  0  0  0  0  0  0  0  0
   -3.8562   -0.8517    1.6954 C   0  0  0  0  0  0  0  0  0  0  0  0
   -4.7247   -1.7807    1.1830 C   0  0  0  0  0  0  0  0  0  0  0  0
   -4.6851   -2.1259   -0.1727 C   0  0  0  0  0  0  0  0  0  0  0  0
   -5.5746   -3.0708   -0.6549 C   0  0  0  0  0  0  0  0  0  0  0  0
   -5.5947   -3.4669   -1.9819 C   0  0  0  0  0  0  0  0  0  0  0  0
   -4.6705   -2.8657   -2.8191 C   0  0  0  0  0  0  0  0  0  0  0  0
   -3.7643   -1.9194   -2.3858 C   0  0  0  0  0  0  0  0  0  0  0  0
   -3.7843   -1.5589   -1.0558 C   0  0  0  0  0  0  0  0  0  0  0  0
   -1.4624    2.2011   -0.5154 N   0  0  0  0  0  0  0  0  0  0  0  0
   -0.6864    3.1182    0.0776 C   0  0  0  0  0  0  0  0  0  0  0  0
    0.5986    2.7341    0.4640 C   0  0  0  0  0  0  0  0  0  0  0  0
    1.4397    3.7447    1.1151 C   0  0  0  0  0  0  0  0  0  0  0  0
    0.9756    5.0264    1.3371 C   0  0  0  0  0  0  0  0  0  0  0  0
    1.7783    5.9886    1.9595 C   0  0  0  0  0  0  0  0  0  0  0  0
    3.0465    5.6760    2.3632 C   0  0  0  0  0  0  0  0  0  0  0  0
    3.4701    4.3811    2.1212 C   0  0  0  0  0  0  0  0  0  0  0  0
    2.6812    3.5028    1.5306 N   0  0  0  0  0  0  0  0  0  0  0  0
    1.8704   -1.4191    1.0047 C   0  0  0  0  0  0  0  0  0  0  0  0
    2.2732   -2.7852    0.4697 C   0  0  0  0  0  0  0  0  0  0  0  0
    4.6198   -4.4646   -0.2985 H   0  0  0  0  0  0  0  0  0  0  0  0
    4.4450   -2.5058    0.4156 H   0  0  0  0  0  0  0  0  0  0  0  0
    3.3061   -2.4226   -2.3659 H   0  0  0  0  0  0  0  0  0  0  0  0
    4.5860   -1.4097   -1.6208 H   0  0  0  0  0  0  0  0  0  0  0  0
    2.9592    0.2124   -1.7302 H   0  0  0  0  0  0  0  0  0  0  0  0
    1.5938   -1.0019   -1.4460 H   0  0  0  0  0  0  0  0  0  0  0  0
    3.7497   -0.5591    0.5752 H   0  0  0  0  0  0  0  0  0  0  0  0
    3.0233    1.5703    1.0522 H   0  0  0  0  0  0  0  0  0  0  0  0
   -1.8970   -0.1414   -2.3730 H   0  0  0  0  0  0  0  0  0  0  0  0
   -2.2767    0.4428    1.2199 H   0  0  0  0  0  0  0  0  0  0  0  0
   -3.8983   -0.5949    2.7476 H   0  0  0  0  0  0  0  0  0  0  0  0
   -5.4613   -2.2677    1.8146 H   0  0  0  0  0  0  0  0  0  0  0  0
   -6.2820   -3.5123    0.0488 H   0  0  0  0  0  0  0  0  0  0  0  0
   -6.3130   -4.2092   -2.2956 H   0  0  0  0  0  0  0  0  0  0  0  0
   -4.6584   -3.1529   -3.8610 H   0  0  0  0  0  0  0  0  0  0  0  0
   -3.0520   -1.4706   -3.0773 H   0  0  0  0  0  0  0  0  0  0  0  0
   -1.0854    4.1051    0.2300 H   0  0  0  0  0  0  0  0  0  0  0  0
    0.0060    5.3279    1.0486 H   0  0  0  0  0  0  0  0  0  0  0  0
    1.4115    6.9965    2.1330 H   0  0  0  0  0  0  0  0  0  0  0  0
    3.6962    6.3894    2.8467 H   0  0  0  0  0  0  0  0  0  0  0  0
    4.4898    4.1592    2.4559 H   0  0  0  0  0  0  0  0  0  0  0  0
    2.1212   -1.4352    2.1039 H   0  0  0  0  0  0  0  0  0  0  0  0
    0.7843   -1.3002    0.9076 H   0  0  0  0  0  0  0  0  0  0  0  0
    1.5174   -3.0483   -0.3120 H   0  0  0  0  0  0  0  0  0  0  0  0
    2.3219   -3.5374    1.2712 H   0  0  0  0  0  0  0  0  0  0  0  0
  1  2  1  0
  2  3  1  0
  3  4  1  0
  4  5  1  0
  5  6  1  0
  6  7  1  0
  7  8  2  0
  8  9  1  0
  9 10  1  0
 10 11  1  0
 11 12  2  0
 12 13  1  0
 13 14  2  0
 14 15  1  0
 15 16  2  0
 16 17  1  0
 17 18  2  0
 18 19  1  0
 19 20  2  0
  9 21  2  0
 21 22  1  0
 22 23  2  0
 23 24  1  0
 24 25  2  0
 25 26  1  0
 26 27  2  0
 27 28  1  0
 28 29  2  0
  5 30  1  0
 30 31  1  0
 31  2  1  0
 23  7  1  0
 29 24  1  0
 20 11  1  0
 20 15  1  0
  1 32  1  0
  2 33  1  0
  3 34  1  0
  3 35  1  0
  4 36  1  0
  4 37  1  0
  5 38  1  0
  6 39  1  0
 10 40  1  0
 12 41  1  0
 13 42  1  0
 14 43  1  0
 16 44  1  0
 17 45  1  0
 18 46  1  0
 19 47  1  0
 22 48  1  0
 25 49  1  0
 26 50  1  0
 27 51  1  0
 28 52  1  0
 30 53  1  0
 30 54  1  0
 31 55  1  0
 31 56  1  0
M  END
$$$$
