
     RDKit          3D

 38 40  0  0  0  0  0  0  0  0999 V2000
    5.1679    2.4844    0.0901 O   0  0  0  0  0  0  0  0  0  0  0  0
    5.4661    1.3648   -0.3858 C   0  0  0  0  0  0  0  0  0  0  0  0
    6.6555    1.1833   -1.0309 O   0  0  0  0  0  0  0  0  0  0  0  0
    4.5109    0.2441   -0.2382 C   0  0  0  0  0  0  0  0  0  0  0  0
    4.7897   -1.0048   -0.7422 C   0  0  0  0  0  0  0  0  0  0  0  0
    3.9029   -2.0374   -0.6028 C   0  0  0  0  0  0  0  0  0  0  0  0
    2.7229   -1.8035    0.0530 C   0  0  0  0  0  0  0  0  0  0  0  0
    2.3947   -0.5701    0.5770 C   0  0  0  0  0  0  0  0  0  0  0  0
    0.8767   -0.4143    1.3758 S   0  0  0  0  0  6  0  0  0  0  0  0
    1.0622    0.5801    2.5145 O   0  0  0  0  0  0  0  0  0  0  0  0
    0.5356   -1.7229    2.0270 O   0  0  0  0  0  0  0  0  0  0  0  0
   -0.4136    0.0787    0.3791 N   0  0  0  0  0  0  0  0  0  0  0  0
   -0.6789   -0.8375   -0.6623 C   0  0  0  0  0  0  0  0  0  0  0  0
   -2.0964   -1.2555   -0.8484 C   0  0  0  0  0  0  0  0  0  0  0  0
   -3.1062   -0.2497   -0.5024 C   0  0  0  0  0  0  0  0  0  0  0  0
   -4.3210   -0.1732   -1.1583 C   0  0  0  0  0  0  0  0  0  0  0  0
   -5.2127    0.8121   -0.7592 C   0  0  0  0  0  0  0  0  0  0  0  0
   -6.4407    0.9273   -1.3864 O   0  0  0  0  0  0  0  0  0  0  0  0
   -4.8978    1.6915    0.2630 C   0  0  0  0  0  0  0  0  0  0  0  0
   -3.6766    1.6035    0.9118 C   0  0  0  0  0  0  0  0  0  0  0  0
   -2.7889    0.6209    0.5129 C   0  0  0  0  0  0  0  0  0  0  0  0
   -1.5006    0.5079    1.1772 C   0  0  0  0  0  0  0  0  0  0  0  0
    3.3089    0.4308    0.4147 C   0  0  0  0  0  0  0  0  0  0  0  0
    7.3019    1.9395   -1.2767 H   0  0  0  0  0  0  0  0  0  0  0  0
    5.7232   -1.1536   -1.2504 H   0  0  0  0  0  0  0  0  0  0  0  0
    4.1048   -3.0439   -0.9977 H   0  0  0  0  0  0  0  0  0  0  0  0
    2.0384   -2.6610    0.1447 H   0  0  0  0  0  0  0  0  0  0  0  0
   -0.3192   -0.4071   -1.6250 H   0  0  0  0  0  0  0  0  0  0  0  0
   -0.0789   -1.7576   -0.4987 H   0  0  0  0  0  0  0  0  0  0  0  0
   -2.2815   -1.5701   -1.9074 H   0  0  0  0  0  0  0  0  0  0  0  0
   -2.3352   -2.1764   -0.2431 H   0  0  0  0  0  0  0  0  0  0  0  0
   -4.5657   -0.8629   -1.9586 H   0  0  0  0  0  0  0  0  0  0  0  0
   -6.9683    1.7877   -1.3256 H   0  0  0  0  0  0  0  0  0  0  0  0
   -5.6222    2.4448    0.5426 H   0  0  0  0  0  0  0  0  0  0  0  0
   -3.4524    2.3056    1.7117 H   0  0  0  0  0  0  0  0  0  0  0  0
   -1.2400    1.4848    1.6342 H   0  0  0  0  0  0  0  0  0  0  0  0
   -1.6348   -0.1903    2.0557 H   0  0  0  0  0  0  0  0  0  0  0  0
    3.0690    1.4000    0.8176 H   0  0  0  0  0  0  0  0  0  0  0  0
  1  2  2  0
  2  3  1  0
  2  4  1  0
  4  5  2  0
  5  6  1  0
  6  7  2  0
  7  8  1  0
  8  9  1  0
  9 10  2  0
  9 11  2  0
  9 12  1  0
 12 13  1  0
 13 14  1  0
 14 15  1  0
 15 16  2  0
 16 17  1  0
 17 18  1  0
 17 19  2  0
 19 20  1  0
 20 21  2  0
 21 22  1  0
  8 23  2  0
 23  4  1  0
 22 12  1  0
 21 15  1  0
  3 24  1  0
  5 25  1  0
  6 26  1  0
  7 27  1  0
 13 28  1  0
 13 29  1  0
 14 30  1  0
 14 31  1  0
 16 32  1  0
 18 33  1  0
 19 34  1  0
 20 35  1  0
 22 36  1  0
 22 37  1  0
 23 38  1  0
M  END
$$$$
