
     RDKit          3D

 53 55  0  0  0  0  0  0  0  0999 V2000
   -6.7855   -0.9585   -1.9906 C   0  0  0  0  0  0  0  0  0  0  0  0
   -5.3082   -1.2823   -2.0250 C   0  0  0  0  0  0  0  0  0  0  0  0
   -5.1632   -2.5986   -2.5115 O   0  0  0  0  0  0  0  0  0  0  0  0
   -4.7827   -1.1829   -0.6084 C   0  0  0  0  0  0  0  0  0  0  0  0
   -5.5684   -2.1309    0.2881 C   0  0  0  0  0  0  0  0  0  0  0  0
   -3.4436   -1.5098   -0.4943 O   0  0  0  0  0  0  0  0  0  0  0  0
   -2.3995   -0.7869   -0.0276 C   0  0  0  0  0  0  0  0  0  0  0  0
   -1.1257   -1.3636   -0.0217 C   0  0  0  0  0  0  0  0  0  0  0  0
   -0.0129   -0.6947    0.4365 C   0  0  0  0  0  0  0  0  0  0  0  0
    1.2928   -1.3346    0.4237 C   0  0  0  0  0  0  0  0  0  0  0  0
    1.3912   -2.5094   -0.0125 O   0  0  0  0  0  0  0  0  0  0  0  0
    2.4808   -0.7246    0.8726 N   0  0  0  0  0  0  0  0  0  0  0  0
    3.7757   -1.3866    0.8493 C   0  0  2  0  0  0  0  0  0  0  0  0
    4.3141   -1.5098    2.2796 C   0  0  0  0  0  0  0  0  0  0  0  0
    4.7656   -0.6040    0.0610 C   0  0  0  0  0  0  0  0  0  0  0  0
    4.8803    0.7688    0.2192 C   0  0  0  0  0  0  0  0  0  0  0  0
    5.7829    1.4543   -0.5049 N   0  0  0  0  0  0  0  0  0  0  0  0
    6.6007    0.8687   -1.3960 C   0  0  0  0  0  0  0  0  0  0  0  0
    7.5841    1.6659   -2.1754 C   0  0  0  0  0  0  0  0  0  0  0  0
    8.7073    0.9266   -2.4935 F   0  0  0  0  0  0  0  0  0  0  0  0
    8.0194    2.7446   -1.4028 F   0  0  0  0  0  0  0  0  0  0  0  0
    6.9656    2.1426   -3.3314 F   0  0  0  0  0  0  0  0  0  0  0  0
    6.4809   -0.4752   -1.5439 N   0  0  0  0  0  0  0  0  0  0  0  0
    5.6064   -1.2004   -0.8540 C   0  0  0  0  0  0  0  0  0  0  0  0
   -0.1809    0.6069    0.9092 C   0  0  0  0  0  0  0  0  0  0  0  0
   -1.4184    1.2004    0.9164 C   0  0  0  0  0  0  0  0  0  0  0  0
   -1.6250    2.5662    1.4070 C   0  0  0  0  0  0  0  0  0  0  0  0
   -2.5709    3.3439    1.5376 N   0  0  0  0  0  0  0  0  0  0  0  0
   -2.5311    4.5564    2.0133 C   0  0  0  0  0  0  0  0  0  0  0  0
   -1.2900    5.0052    2.4096 C   0  0  0  0  0  0  0  0  0  0  0  0
   -0.7332    6.5240    3.0965 Cl  0  0  0  0  0  0  0  0  0  0  0  0
   -0.2177    3.5543    2.0415 S   0  0  0  0  0  0  0  0  0  0  0  0
   -2.4997    0.4948    0.4496 C   0  0  0  0  0  0  0  0  0  0  0  0
   -7.3980   -1.8018   -2.4034 H   0  0  0  0  0  0  0  0  0  0  0  0
   -7.0198   -0.0554   -2.6088 H   0  0  0  0  0  0  0  0  0  0  0  0
   -7.1460   -0.7194   -0.9701 H   0  0  0  0  0  0  0  0  0  0  0  0
   -4.8158   -0.5634   -2.6786 H   0  0  0  0  0  0  0  0  0  0  0  0
   -4.2827   -2.9504   -2.1847 H   0  0  0  0  0  0  0  0  0  0  0  0
   -4.9969   -0.1749   -0.2573 H   0  0  0  0  0  0  0  0  0  0  0  0
   -5.8827   -3.0161   -0.2951 H   0  0  0  0  0  0  0  0  0  0  0  0
   -6.4252   -1.6098    0.7680 H   0  0  0  0  0  0  0  0  0  0  0  0
   -4.9361   -2.4936    1.1454 H   0  0  0  0  0  0  0  0  0  0  0  0
   -0.9948   -2.3750   -0.3890 H   0  0  0  0  0  0  0  0  0  0  0  0
    2.4429    0.2414    1.2390 H   0  0  0  0  0  0  0  0  0  0  0  0
    3.7352   -2.4007    0.4503 H   0  0  0  0  0  0  0  0  0  0  0  0
    4.1334   -0.5785    2.8563 H   0  0  0  0  0  0  0  0  0  0  0  0
    3.7710   -2.3214    2.8257 H   0  0  0  0  0  0  0  0  0  0  0  0
    5.3991   -1.6963    2.2760 H   0  0  0  0  0  0  0  0  0  0  0  0
    4.2236    1.2495    0.9369 H   0  0  0  0  0  0  0  0  0  0  0  0
    5.5041   -2.2802   -0.9670 H   0  0  0  0  0  0  0  0  0  0  0  0
    0.6385    1.1751    1.2758 H   0  0  0  0  0  0  0  0  0  0  0  0
   -3.4479    5.2355    2.1110 H   0  0  0  0  0  0  0  0  0  0  0  0
   -3.4929    0.9645    0.4528 H   0  0  0  0  0  0  0  0  0  0  0  0
  1  2  1  0
  2  3  1  0
  2  4  1  0
  4  5  1  0
  4  6  1  0
  6  7  1  0
  7  8  2  0
  8  9  1  0
  9 10  1  0
 10 11  2  0
 10 12  1  0
 12 13  1  0
 13 14  1  0
 13 15  1  0
 15 16  2  0
 16 17  1  0
 17 18  2  0
 18 19  1  0
 19 20  1  0
 19 21  1  0
 19 22  1  0
 18 23  1  0
 23 24  2  0
  9 25  2  0
 25 26  1  0
 26 27  1  0
 27 28  2  0
 28 29  1  0
 29 30  2  0
 30 31  1  0
 30 32  1  0
 26 33  2  0
 33  7  1  0
 24 15  1  0
 32 27  1  0
  1 34  1  0
  1 35  1  0
  1 36  1  0
  2 37  1  0
  3 38  1  0
  4 39  1  0
  5 40  1  0
  5 41  1  0
  5 42  1  0
  8 43  1  0
 12 44  1  0
 13 45  1  6
 14 46  1  0
 14 47  1  0
 14 48  1  0
 16 49  1  0
 24 50  1  0
 25 51  1  0
 29 52  1  0
 33 53  1  0
M  END
$$$$
