
     RDKit          3D

 46 50  0  0  0  0  0  0  0  0999 V2000
    7.1689   -1.3201   -1.1636 C   0  0  0  0  0  0  0  0  0  0  0  0
    6.7078    0.0045   -0.9359 O   0  0  0  0  0  0  0  0  0  0  0  0
    5.3259    0.2600   -0.9207 C   0  0  0  0  0  0  0  0  0  0  0  0
    4.9450    1.5498   -0.6975 C   0  0  0  0  0  0  0  0  0  0  0  0
    3.6056    1.8154   -0.6796 N   0  0  0  0  0  0  0  0  0  0  0  0
    2.7061    0.8430   -0.8744 C   0  0  0  0  0  0  0  0  0  0  0  0
    1.3295    1.1208   -0.8552 C   0  0  0  0  0  0  0  0  0  0  0  0
    0.9655    2.4693   -0.6561 N   0  0  0  0  0  0  0  0  0  0  0  0
   -0.3721    2.9224   -0.5697 C   0  0  0  0  0  0  0  0  0  0  0  0
   -1.0039    2.8260    0.7636 C   0  0  0  0  0  0  0  0  0  0  0  0
   -0.7957    3.7645    1.7431 N   0  0  0  0  0  0  0  0  0  0  0  0
   -1.5070    3.4177    2.7805 N   0  0  0  0  0  0  0  0  0  0  0  0
   -2.1835    2.2765    2.5225 C   0  0  0  0  0  0  0  0  0  0  0  0
   -3.0607    1.5088    3.2572 C   0  0  0  0  0  0  0  0  0  0  0  0
   -3.6069    0.3733    2.6942 C   0  0  0  0  0  0  0  0  0  0  0  0
   -3.2726    0.0229    1.4167 C   0  0  0  0  0  0  0  0  0  0  0  0
   -3.8076   -1.1734    0.7255 C   0  0  0  0  0  0  0  0  0  0  0  0
   -4.6861   -2.0355    1.3182 C   0  0  0  0  0  0  0  0  0  0  0  0
   -5.1933   -3.1628    0.6698 C   0  0  0  0  0  0  0  0  0  0  0  0
   -4.7693   -3.3855   -0.6216 C   0  0  0  0  0  0  0  0  0  0  0  0
   -3.8829   -2.5414   -1.2600 C   0  0  0  0  0  0  0  0  0  0  0  0
   -3.4224   -1.4520   -0.5676 C   0  0  0  0  0  0  0  0  0  0  0  0
   -2.4169    0.8167    0.7715 N   0  0  0  0  0  0  0  0  0  0  0  0
   -1.8554    1.9161    1.2457 N   0  0  0  0  0  0  0  0  0  0  0  0
    0.4351    0.1108   -1.0577 C   0  0  0  0  0  0  0  0  0  0  0  0
    0.8453   -1.1979   -1.2832 C   0  0  0  0  0  0  0  0  0  0  0  0
    2.1664   -1.4377   -1.2963 N   0  0  0  0  0  0  0  0  0  0  0  0
    3.0732   -0.4590   -1.1002 C   0  0  0  0  0  0  0  0  0  0  0  0
    4.4180   -0.7479   -1.1221 C   0  0  0  0  0  0  0  0  0  0  0  0
    8.2592   -1.2462   -1.3314 H   0  0  0  0  0  0  0  0  0  0  0  0
    6.6367   -1.7821   -2.0201 H   0  0  0  0  0  0  0  0  0  0  0  0
    7.0198   -1.8743   -0.2171 H   0  0  0  0  0  0  0  0  0  0  0  0
    5.6561    2.3672   -0.5347 H   0  0  0  0  0  0  0  0  0  0  0  0
    1.7150    3.2259   -0.5596 H   0  0  0  0  0  0  0  0  0  0  0  0
   -1.0440    2.3281   -1.2619 H   0  0  0  0  0  0  0  0  0  0  0  0
   -0.4589    3.9654   -0.9834 H   0  0  0  0  0  0  0  0  0  0  0  0
   -3.3074    1.8107    4.2669 H   0  0  0  0  0  0  0  0  0  0  0  0
   -4.3010   -0.2403    3.2660 H   0  0  0  0  0  0  0  0  0  0  0  0
   -5.0153   -1.8545    2.3334 H   0  0  0  0  0  0  0  0  0  0  0  0
   -5.8877   -3.8416    1.1422 H   0  0  0  0  0  0  0  0  0  0  0  0
   -5.1145   -4.2457   -1.2092 H   0  0  0  0  0  0  0  0  0  0  0  0
   -3.5561   -2.7232   -2.2712 H   0  0  0  0  0  0  0  0  0  0  0  0
   -2.7313   -0.7860   -1.0555 H   0  0  0  0  0  0  0  0  0  0  0  0
   -0.6060    0.3078   -1.0695 H   0  0  0  0  0  0  0  0  0  0  0  0
    0.1571   -2.0116   -1.4447 H   0  0  0  0  0  0  0  0  0  0  0  0
    4.7225   -1.7607   -1.2973 H   0  0  0  0  0  0  0  0  0  0  0  0
  1  2  1  0
  2  3  1  0
  3  4  2  0
  4  5  1  0
  5  6  2  0
  6  7  1  0
  7  8  1  0
  8  9  1  0
  9 10  1  0
 10 11  2  0
 11 12  1  0
 12 13  2  0
 13 14  1  0
 14 15  2  0
 15 16  1  0
 16 17  1  0
 17 18  2  0
 18 19  1  0
 19 20  2  0
 20 21  1  0
 21 22  2  0
 16 23  2  0
 23 24  1  0
  7 25  2  0
 25 26  1  0
 26 27  2  0
 27 28  1  0
 28 29  2  0
 29  3  1  0
 28  6  1  0
 24 10  1  0
 24 13  1  0
 22 17  1  0
  1 30  1  0
  1 31  1  0
  1 32  1  0
  4 33  1  0
  8 34  1  0
  9 35  1  0
  9 36  1  0
 14 37  1  0
 15 38  1  0
 18 39  1  0
 19 40  1  0
 20 41  1  0
 21 42  1  0
 22 43  1  0
 25 44  1  0
 26 45  1  0
 29 46  1  0
M  END
$$$$
