
     RDKit          3D

 61 68  0  0  0  0  0  0  0  0999 V2000
    4.6558   -2.0870   -0.9703 C   0  0  0  0  0  0  0  0  0  0  0  0
    3.9928   -0.7735   -0.9693 N   0  0  0  0  0  0  0  0  0  0  0  0
    3.1194   -0.7383    0.1607 C   0  0  2  0  0  0  0  0  0  0  0  0
    2.0841   -1.8408    0.0690 C   0  0  0  0  0  0  0  0  0  0  0  0
    1.0496   -1.6703    1.1154 C   0  0  1  0  0  0  0  0  0  0  0  0
    1.1310   -0.5999    1.9328 O   0  0  0  0  0  0  0  0  0  0  0  0
    1.4486    0.6321    1.4054 C   0  0  1  0  0  0  0  0  0  0  0  0
    2.2056    1.3937    2.4609 C   0  0  0  0  0  0  0  0  0  0  0  0
    2.3547    0.5717    0.1859 C   0  0  2  0  0  0  0  0  0  0  0  0
    1.6775    0.7943   -1.0034 O   0  0  0  0  0  0  0  0  0  0  0  0
    2.1867    1.8876   -1.7063 C   0  0  0  0  0  0  0  0  0  0  0  0
    0.2300    1.2522    0.9284 N   0  0  0  0  0  0  0  0  0  0  0  0
   -0.0258    2.5876    0.8919 C   0  0  0  0  0  0  0  0  0  0  0  0
    0.7107    3.6933    1.2421 C   0  0  0  0  0  0  0  0  0  0  0  0
    0.1274    4.9415    1.0605 C   0  0  0  0  0  0  0  0  0  0  0  0
   -1.1415    5.0764    0.5483 C   0  0  0  0  0  0  0  0  0  0  0  0
   -1.8522    3.9612    0.2070 C   0  0  0  0  0  0  0  0  0  0  0  0
   -1.3068    2.7003    0.3726 C   0  0  0  0  0  0  0  0  0  0  0  0
   -1.8227    1.4523    0.0932 C   0  0  0  0  0  0  0  0  0  0  0  0
   -3.0231    1.0361   -0.4385 C   0  0  0  0  0  0  0  0  0  0  0  0
   -3.2709   -0.3189   -0.6297 C   0  0  0  0  0  0  0  0  0  0  0  0
   -2.2978   -1.2273   -0.2796 C   0  0  0  0  0  0  0  0  0  0  0  0
   -2.1833   -2.6136   -0.3287 C   0  0  0  0  0  0  0  0  0  0  0  0
   -3.0192   -3.5903   -0.7482 C   0  0  0  0  0  0  0  0  0  0  0  0
   -2.5976   -4.9290   -0.6657 C   0  0  0  0  0  0  0  0  0  0  0  0
   -1.3547   -5.2107   -0.1643 C   0  0  0  0  0  0  0  0  0  0  0  0
   -0.5034   -4.2126    0.2631 C   0  0  0  0  0  0  0  0  0  0  0  0
   -0.9167   -2.8890    0.1831 C   0  0  0  0  0  0  0  0  0  0  0  0
   -0.2929   -1.7792    0.5228 N   0  0  0  0  0  0  0  0  0  0  0  0
   -1.1090   -0.7687    0.2507 C   0  0  0  0  0  0  0  0  0  0  0  0
   -0.8367    0.5658    0.4518 C   0  0  0  0  0  0  0  0  0  0  0  0
   -4.6041   -0.4790   -1.1861 C   0  0  0  0  0  0  0  0  0  0  0  0
   -5.2610   -1.4717   -1.5213 O   0  0  0  0  0  0  0  0  0  0  0  0
   -5.1538    0.8488   -1.3222 N   0  0  0  0  0  0  0  0  0  0  0  0
   -4.2039    1.8349   -0.8984 C   0  0  0  0  0  0  0  0  0  0  0  0
    4.9276   -2.3588    0.0775 H   0  0  0  0  0  0  0  0  0  0  0  0
    4.0160   -2.8764   -1.3674 H   0  0  0  0  0  0  0  0  0  0  0  0
    5.6045   -2.0445   -1.5353 H   0  0  0  0  0  0  0  0  0  0  0  0
    3.4079   -0.7511   -1.8287 H   0  0  0  0  0  0  0  0  0  0  0  0
    3.6254   -0.8409    1.1351 H   0  0  0  0  0  0  0  0  0  0  0  0
    2.5586   -2.8417    0.0727 H   0  0  0  0  0  0  0  0  0  0  0  0
    1.6231   -1.7369   -0.9529 H   0  0  0  0  0  0  0  0  0  0  0  0
    1.1146   -2.5811    1.7842 H   0  0  0  0  0  0  0  0  0  0  0  0
    2.6437    0.5861    3.1627 H   0  0  0  0  0  0  0  0  0  0  0  0
    1.5496    1.9167    3.1775 H   0  0  0  0  0  0  0  0  0  0  0  0
    3.1120    1.8930    2.1348 H   0  0  0  0  0  0  0  0  0  0  0  0
    3.1337    1.3587    0.2542 H   0  0  0  0  0  0  0  0  0  0  0  0
    1.6200    2.0335   -2.6473 H   0  0  0  0  0  0  0  0  0  0  0  0
    3.2352    1.6720   -2.0272 H   0  0  0  0  0  0  0  0  0  0  0  0
    2.1885    2.7852   -1.0687 H   0  0  0  0  0  0  0  0  0  0  0  0
    1.7040    3.5852    1.6228 H   0  0  0  0  0  0  0  0  0  0  0  0
    0.7126    5.8033    1.3387 H   0  0  0  0  0  0  0  0  0  0  0  0
   -1.6132    6.0396    0.3996 H   0  0  0  0  0  0  0  0  0  0  0  0
   -2.8640    4.0076   -0.2020 H   0  0  0  0  0  0  0  0  0  0  0  0
   -3.9842   -3.3778   -1.1386 H   0  0  0  0  0  0  0  0  0  0  0  0
   -3.3048   -5.6678   -1.0144 H   0  0  0  0  0  0  0  0  0  0  0  0
   -1.0217   -6.2288   -0.0964 H   0  0  0  0  0  0  0  0  0  0  0  0
    0.4823   -4.4347    0.6609 H   0  0  0  0  0  0  0  0  0  0  0  0
   -6.1049    1.0957   -1.6756 H   0  0  0  0  0  0  0  0  0  0  0  0
   -3.9190    2.5261   -1.7214 H   0  0  0  0  0  0  0  0  0  0  0  0
   -4.6443    2.4080   -0.0585 H   0  0  0  0  0  0  0  0  0  0  0  0
  1  2  1  0
  2  3  1  0
  3  4  1  0
  4  5  1  0
  5  6  1  0
  6  7  1  0
  7  8  1  1
  7  9  1  0
  9 10  1  0
 10 11  1  0
  7 12  1  0
 12 13  1  0
 13 14  2  0
 14 15  1  0
 15 16  2  0
 16 17  1  0
 17 18  2  0
 18 19  1  0
 19 20  2  0
 20 21  1  0
 21 22  2  0
 22 23  1  0
 23 24  2  0
 24 25  1  0
 25 26  2  0
 26 27  1  0
 27 28  2  0
 28 29  1  0
 29 30  1  0
 30 31  2  0
 21 32  1  0
 32 33  2  0
 32 34  1  0
 34 35  1  0
  9  3  1  0
 31 12  1  0
 29  5  1  0
 18 13  1  0
 31 19  1  0
 35 20  1  0
 30 22  1  0
 28 23  1  0
  1 36  1  0
  1 37  1  0
  1 38  1  0
  2 39  1  0
  3 40  1  1
  4 41  1  0
  4 42  1  0
  5 43  1  1
  8 44  1  0
  8 45  1  0
  8 46  1  0
  9 47  1  1
 11 48  1  0
 11 49  1  0
 11 50  1  0
 14 51  1  0
 15 52  1  0
 16 53  1  0
 17 54  1  0
 24 55  1  0
 25 56  1  0
 26 57  1  0
 27 58  1  0
 34 59  1  0
 35 60  1  0
 35 61  1  0
M  END
$$$$
