
     RDKit          3D

 30 31  0  0  0  0  0  0  0  0999 V2000
   -0.2366    0.8224    0.3458 C   0  0  2  0  0  0  0  0  0  0  0  0
   -0.2958    2.1351   -0.4137 C   0  0  0  0  0  0  0  0  0  0  0  0
    0.6736    3.0819    0.0672 N   0  0  0  0  0  0  0  0  0  0  0  0
    1.0893    0.2047    0.2104 C   0  0  0  0  0  0  0  0  0  0  0  0
    1.8956    0.2567   -0.9146 C   0  0  0  0  0  0  0  0  0  0  0  0
    3.1357   -0.3419   -0.9905 C   0  0  0  0  0  0  0  0  0  0  0  0
    3.6408   -1.0405    0.0873 C   0  0  0  0  0  0  0  0  0  0  0  0
    2.8558   -1.1138    1.2379 C   0  0  0  0  0  0  0  0  0  0  0  0
    1.6248   -0.5064    1.2811 C   0  0  0  0  0  0  0  0  0  0  0  0
   -1.3091   -0.0875   -0.0714 C   0  0  0  0  0  0  0  0  0  0  0  0
   -1.8478   -0.9119    0.9225 C   0  0  0  0  0  0  0  0  0  0  0  0
   -2.8574   -1.8015    0.6382 C   0  0  0  0  0  0  0  0  0  0  0  0
   -3.3532   -1.8888   -0.6461 C   0  0  0  0  0  0  0  0  0  0  0  0
   -4.6314   -2.9855   -1.1031 Cl  0  0  0  0  0  0  0  0  0  0  0  0
   -2.8401   -1.0827   -1.6611 C   0  0  0  0  0  0  0  0  0  0  0  0
   -1.8291   -0.2048   -1.3342 C   0  0  0  0  0  0  0  0  0  0  0  0
   -0.3545    1.1008    1.4248 H   0  0  0  0  0  0  0  0  0  0  0  0
   -0.1524    1.9221   -1.4925 H   0  0  0  0  0  0  0  0  0  0  0  0
   -1.2907    2.6064   -0.2714 H   0  0  0  0  0  0  0  0  0  0  0  0
    0.4193    4.0439   -0.2233 H   0  0  0  0  0  0  0  0  0  0  0  0
    0.8444    3.0395    1.0746 H   0  0  0  0  0  0  0  0  0  0  0  0
    1.5246    0.7922   -1.7608 H   0  0  0  0  0  0  0  0  0  0  0  0
    3.7100   -0.2537   -1.9164 H   0  0  0  0  0  0  0  0  0  0  0  0
    4.6063   -1.4823   -0.0307 H   0  0  0  0  0  0  0  0  0  0  0  0
    3.2842   -1.6694    2.0621 H   0  0  0  0  0  0  0  0  0  0  0  0
    1.0903   -0.6178    2.2144 H   0  0  0  0  0  0  0  0  0  0  0  0
   -1.5239   -0.9105    1.9438 H   0  0  0  0  0  0  0  0  0  0  0  0
   -3.2926   -2.4564    1.4047 H   0  0  0  0  0  0  0  0  0  0  0  0
   -3.1711   -1.0879   -2.6924 H   0  0  0  0  0  0  0  0  0  0  0  0
   -1.4090    0.4375   -2.1071 H   0  0  0  0  0  0  0  0  0  0  0  0
  1  2  1  0
  2  3  1  0
  1  4  1  0
  4  5  2  0
  5  6  1  0
  6  7  2  0
  7  8  1  0
  8  9  2  0
  1 10  1  0
 10 11  2  0
 11 12  1  0
 12 13  2  0
 13 14  1  0
 13 15  1  0
 15 16  2  0
  9  4  1  0
 16 10  1  0
  1 17  1  1
  2 18  1  0
  2 19  1  0
  3 20  1  0
  3 21  1  0
  5 22  1  0
  6 23  1  0
  7 24  1  0
  8 25  1  0
  9 26  1  0
 11 27  1  0
 12 28  1  0
 15 29  1  0
 16 30  1  0
M  END
$$$$
