
     RDKit          3D

 47 50  0  0  0  0  0  0  0  0999 V2000
   -5.6710   -0.9173    0.4783 C   0  0  1  0  0  0  0  0  0  0  0  0
   -4.2058   -0.9114    0.0108 C   0  0  0  0  0  0  0  0  0  0  0  0
   -3.5760    0.0593    0.8210 O   0  0  0  0  0  0  0  0  0  0  0  0
   -2.2326    0.3914    0.7267 C   0  0  0  0  0  0  0  0  0  0  0  0
   -1.3818   -0.2099   -0.1741 C   0  0  0  0  0  0  0  0  0  0  0  0
   -0.0732    0.2032   -0.1756 C   0  0  0  0  0  0  0  0  0  0  0  0
    0.5077    1.1564    0.6215 C   0  0  0  0  0  0  0  0  0  0  0  0
   -0.4414    1.7024    1.4982 C   0  0  0  0  0  0  0  0  0  0  0  0
   -1.7705    1.3647    1.5836 C   0  0  0  0  0  0  0  0  0  0  0  0
    1.8788    1.6055    0.6765 C   0  0  0  0  0  0  0  0  0  0  0  0
    1.9416    2.8132    1.1266 O   0  0  0  0  0  0  0  0  0  0  0  0
    3.1394    1.0299    0.3583 C   0  0  0  0  0  0  0  0  0  0  0  0
    3.4929   -0.0185   -0.4541 C   0  0  0  0  0  0  0  0  0  0  0  0
    4.7348   -0.5376   -0.7035 C   0  0  0  0  0  0  0  0  0  0  0  0
    5.7717    0.0739   -0.0519 C   0  0  0  0  0  0  0  0  0  0  0  0
    5.5683    1.1350    0.7923 C   0  0  0  0  0  0  0  0  0  0  0  0
    4.2792    1.5716    0.9668 C   0  0  0  0  0  0  0  0  0  0  0  0
    7.1239   -0.4170   -0.2516 C   0  0  0  0  0  0  0  0  0  0  0  0
    8.2779    0.5591   -0.1845 C   0  0  0  0  0  0  0  0  0  0  0  0
    9.7288   -0.5020   -0.4776 S   0  0  0  0  0  0  0  0  0  0  0  0
    8.7762   -2.0941   -0.6640 C   0  0  0  0  0  0  0  0  0  0  0  0
    7.4521   -1.7067   -0.4918 C   0  0  0  0  0  0  0  0  0  0  0  0
   -6.1873    0.4755    0.2242 C   0  0  0  0  0  0  0  0  0  0  0  0
   -7.6091    0.2401   -0.1786 C   0  0  0  0  0  0  0  0  0  0  0  0
   -7.6549   -1.1897   -0.6506 C   0  0  0  0  0  0  0  0  0  0  0  0
   -6.4511   -1.8431   -0.2672 N   0  0  0  0  0  0  0  0  0  0  0  0
   -5.6408   -1.1571    1.5669 H   0  0  0  0  0  0  0  0  0  0  0  0
   -4.1535   -0.5668   -1.0461 H   0  0  0  0  0  0  0  0  0  0  0  0
   -3.7583   -1.9022    0.1307 H   0  0  0  0  0  0  0  0  0  0  0  0
   -1.7904   -0.9541   -0.8095 H   0  0  0  0  0  0  0  0  0  0  0  0
    0.4977   -0.3069   -0.9110 H   0  0  0  0  0  0  0  0  0  0  0  0
   -0.1375    2.4817    2.2076 H   0  0  0  0  0  0  0  0  0  0  0  0
   -2.4371    1.8345    2.2878 H   0  0  0  0  0  0  0  0  0  0  0  0
    2.7022   -0.5165   -0.9832 H   0  0  0  0  0  0  0  0  0  0  0  0
    4.9016   -1.3603   -1.3574 H   0  0  0  0  0  0  0  0  0  0  0  0
    6.4164    1.5879    1.2861 H   0  0  0  0  0  0  0  0  0  0  0  0
    4.2087    2.4246    1.6553 H   0  0  0  0  0  0  0  0  0  0  0  0
    8.0960    1.6385    0.0084 H   0  0  0  0  0  0  0  0  0  0  0  0
    9.1798   -3.0676   -0.8566 H   0  0  0  0  0  0  0  0  0  0  0  0
    6.7022   -2.4734   -0.5606 H   0  0  0  0  0  0  0  0  0  0  0  0
   -6.1281    1.1063    1.1513 H   0  0  0  0  0  0  0  0  0  0  0  0
   -5.6323    0.9667   -0.6158 H   0  0  0  0  0  0  0  0  0  0  0  0
   -8.3426    0.4406    0.6187 H   0  0  0  0  0  0  0  0  0  0  0  0
   -7.8772    0.8992   -1.0440 H   0  0  0  0  0  0  0  0  0  0  0  0
   -7.7348   -1.2430   -1.7682 H   0  0  0  0  0  0  0  0  0  0  0  0
   -8.5813   -1.6547   -0.2342 H   0  0  0  0  0  0  0  0  0  0  0  0
   -5.9089   -2.2117   -1.0633 H   0  0  0  0  0  0  0  0  0  0  0  0
  1  2  1  0
  2  3  1  0
  3  4  1  0
  4  5  2  0
  5  6  1  0
  6  7  2  0
  7  8  1  0
  8  9  2  0
  7 10  1  0
 10 11  2  0
 10 12  1  0
 12 13  2  0
 13 14  1  0
 14 15  2  0
 15 16  1  0
 16 17  2  0
 15 18  1  0
 18 19  2  0
 19 20  1  0
 20 21  1  0
 21 22  2  0
  1 23  1  0
 23 24  1  0
 24 25  1  0
 25 26  1  0
 26  1  1  0
  9  4  1  0
 17 12  1  0
 22 18  1  0
  1 27  1  1
  2 28  1  0
  2 29  1  0
  5 30  1  0
  6 31  1  0
  8 32  1  0
  9 33  1  0
 13 34  1  0
 14 35  1  0
 16 36  1  0
 17 37  1  0
 19 38  1  0
 21 39  1  0
 22 40  1  0
 23 41  1  0
 23 42  1  0
 24 43  1  0
 24 44  1  0
 25 45  1  0
 25 46  1  0
 26 47  1  0
M  END
$$$$
