
     RDKit          3D

 22 23  0  0  0  0  0  0  0  0999 V2000
    1.5402    3.2042    0.3188 O   0  0  0  0  0  0  0  0  0  0  0  0
    0.7854    2.3313   -0.1816 C   0  0  0  0  0  0  0  0  0  0  0  0
    0.2925    2.4376   -1.4897 O   0  0  0  0  0  1  0  0  0  0  0  0
    0.4215    1.1668    0.6565 C   0  0  1  0  0  0  0  0  0  0  0  0
   -0.6155    0.3348   -0.0446 C   0  0  0  0  0  0  0  0  0  0  0  0
   -1.9206    0.3469    0.1215 C   0  0  0  0  0  0  0  0  0  0  0  0
   -2.8210   -0.5390   -0.6491 C   0  0  0  0  0  0  0  0  0  0  0  0
   -3.5424   -1.3757    0.2184 O   0  0  0  0  0  0  0  0  0  0  0  0
    0.0594   -0.4916   -0.9421 O   0  0  0  0  0  0  0  0  0  0  0  0
    1.4508   -0.3582   -0.7267 C   0  0  2  0  0  0  0  0  0  0  0  0
    2.1192   -1.5513   -0.1232 C   0  0  0  0  0  0  0  0  0  0  0  0
    2.6987   -0.5717    0.8069 C   0  0  0  0  0  0  0  0  0  0  0  0
    3.7313   -0.4627    1.4855 O   0  0  0  0  0  0  0  0  0  0  0  0
    1.5586    0.2390    0.6145 N   0  0  0  0  0  0  0  0  0  0  0  0
    0.1356    1.4188    1.6766 H   0  0  0  0  0  0  0  0  0  0  0  0
   -2.2978    1.0554    0.8671 H   0  0  0  0  0  0  0  0  0  0  0  0
   -2.1857   -1.2143   -1.2571 H   0  0  0  0  0  0  0  0  0  0  0  0
   -3.5041    0.0339   -1.3163 H   0  0  0  0  0  0  0  0  0  0  0  0
   -4.1225   -1.9430   -0.3487 H   0  0  0  0  0  0  0  0  0  0  0  0
    2.0082    0.2111   -1.4789 H   0  0  0  0  0  0  0  0  0  0  0  0
    1.3794   -2.2161    0.3649 H   0  0  0  0  0  0  0  0  0  0  0  0
    2.8291   -2.0562   -0.8081 H   0  0  0  0  0  0  0  0  0  0  0  0
  1  2  2  0
  2  3  1  0
  2  4  1  0
  4  5  1  0
  5  6  2  0
  6  7  1  0
  7  8  1  0
  5  9  1  0
  9 10  1  0
 10 11  1  0
 11 12  1  0
 12 13  2  0
 12 14  1  0
 14  4  1  0
 14 10  1  0
  4 15  1  1
  6 16  1  0
  7 17  1  0
  7 18  1  0
  8 19  1  0
 10 20  1  6
 11 21  1  0
 11 22  1  0
M  CHG  1   3  -1
M  END
$$$$
