
     RDKit          3D

 53 57  0  0  0  0  0  0  0  0999 V2000
   -4.7866    1.1347   -2.4863 C   0  0  0  0  0  0  0  0  0  0  0  0
   -3.8843    1.8747   -1.5741 C   0  0  0  0  0  0  0  0  0  0  0  0
   -3.3676    2.9534   -1.9862 O   0  0  0  0  0  0  0  0  0  0  0  0
   -3.5939    1.3872   -0.2450 N   0  0  0  0  0  0  0  0  0  0  0  0
   -4.2608    0.1612    0.0494 C   0  0  0  0  0  0  0  0  0  0  0  0
   -3.4662   -0.6701    0.9815 C   0  0  0  0  0  0  0  0  0  0  0  0
   -4.2260   -1.6255    1.6528 C   0  0  0  0  0  0  0  0  0  0  0  0
   -3.6444   -2.4597    2.5796 C   0  0  0  0  0  0  0  0  0  0  0  0
   -4.6222   -3.6531    3.4074 Cl  0  0  0  0  0  0  0  0  0  0  0  0
   -2.2964   -2.3892    2.8859 C   0  0  0  0  0  0  0  0  0  0  0  0
   -1.5063   -1.4567    2.2456 C   0  0  0  0  0  0  0  0  0  0  0  0
   -2.1058   -0.6493    1.3330 C   0  0  0  0  0  0  0  0  0  0  0  0
   -1.1334    0.2312    0.7429 N   0  0  0  0  0  0  0  0  0  0  0  0
   -1.3444    1.5499    0.4065 C   0  0  0  0  0  0  0  0  0  0  0  0
   -0.2025    1.9947   -0.0663 N   0  0  0  0  0  0  0  0  0  0  0  0
    0.6675    1.0029   -0.0281 N   0  0  0  0  0  0  0  0  0  0  0  0
    0.1063   -0.1383    0.4799 C   0  0  0  0  0  0  0  0  0  0  0  0
    0.7059   -1.4730    0.5926 C   0  0  0  0  0  0  0  0  0  0  0  0
    1.2016   -1.7191   -0.8809 C   0  0  0  0  0  0  0  0  0  0  0  0
    2.2696   -0.7799   -1.2342 C   0  0  0  0  0  0  0  0  0  0  0  0
    3.0566   -0.1736   -0.2354 N   0  0  0  0  0  0  0  0  0  0  0  0
    4.1732    0.6016   -0.6132 C   0  0  0  0  0  0  0  0  0  0  0  0
    4.4536    0.7760   -1.9457 C   0  0  0  0  0  0  0  0  0  0  0  0
    5.5516    1.5362   -2.3687 C   0  0  0  0  0  0  0  0  0  0  0  0
    6.3704    2.1236   -1.4269 C   0  0  0  0  0  0  0  0  0  0  0  0
    6.0577    1.9266   -0.0969 C   0  0  0  0  0  0  0  0  0  0  0  0
    4.9861    1.1840    0.2744 N   0  0  0  0  0  0  0  0  0  0  0  0
    2.7685   -0.3091    1.1714 C   0  0  0  0  0  0  0  0  0  0  0  0
    1.9840   -1.5865    1.3307 C   0  0  0  0  0  0  0  0  0  0  0  0
   -2.6868    2.2282    0.5340 C   0  0  0  0  0  0  0  0  0  0  0  0
   -5.1432    1.7943   -3.2817 H   0  0  0  0  0  0  0  0  0  0  0  0
   -5.6965    0.7566   -1.9460 H   0  0  0  0  0  0  0  0  0  0  0  0
   -4.2978    0.2637   -2.9575 H   0  0  0  0  0  0  0  0  0  0  0  0
   -4.4598   -0.4502   -0.8622 H   0  0  0  0  0  0  0  0  0  0  0  0
   -5.2548    0.4193    0.5179 H   0  0  0  0  0  0  0  0  0  0  0  0
   -5.2737   -1.6810    1.4170 H   0  0  0  0  0  0  0  0  0  0  0  0
   -1.8139   -3.0306    3.6089 H   0  0  0  0  0  0  0  0  0  0  0  0
   -0.5002   -1.3533    2.5271 H   0  0  0  0  0  0  0  0  0  0  0  0
    0.0268   -2.3358    0.6667 H   0  0  0  0  0  0  0  0  0  0  0  0
    1.5815   -2.7586   -0.9586 H   0  0  0  0  0  0  0  0  0  0  0  0
    0.3312   -1.6493   -1.5649 H   0  0  0  0  0  0  0  0  0  0  0  0
    1.8205    0.0436   -1.8664 H   0  0  0  0  0  0  0  0  0  0  0  0
    2.9771   -1.2812   -1.9539 H   0  0  0  0  0  0  0  0  0  0  0  0
    3.8712    0.3569   -2.7552 H   0  0  0  0  0  0  0  0  0  0  0  0
    5.7809    1.6795   -3.4148 H   0  0  0  0  0  0  0  0  0  0  0  0
    7.2343    2.7230   -1.6825 H   0  0  0  0  0  0  0  0  0  0  0  0
    6.6894    2.3804    0.6642 H   0  0  0  0  0  0  0  0  0  0  0  0
    3.6935   -0.4565    1.7786 H   0  0  0  0  0  0  0  0  0  0  0  0
    2.2753    0.5716    1.6269 H   0  0  0  0  0  0  0  0  0  0  0  0
    1.8806   -1.8706    2.3978 H   0  0  0  0  0  0  0  0  0  0  0  0
    2.6506   -2.3963    0.9082 H   0  0  0  0  0  0  0  0  0  0  0  0
   -2.9923    2.2857    1.5995 H   0  0  0  0  0  0  0  0  0  0  0  0
   -2.6057    3.2246    0.0512 H   0  0  0  0  0  0  0  0  0  0  0  0
  1  2  1  0
  2  3  2  0
  2  4  1  0
  4  5  1  0
  5  6  1  0
  6  7  2  0
  7  8  1  0
  8  9  1  0
  8 10  2  0
 10 11  1  0
 11 12  2  0
 12 13  1  0
 13 14  1  0
 14 15  2  0
 15 16  1  0
 16 17  2  0
 17 18  1  0
 18 19  1  0
 19 20  1  0
 20 21  1  0
 21 22  1  0
 22 23  2  0
 23 24  1  0
 24 25  2  0
 25 26  1  0
 26 27  2  0
 21 28  1  0
 28 29  1  0
 14 30  1  0
 30  4  1  0
 12  6  1  0
 17 13  1  0
 29 18  1  0
 27 22  1  0
  1 31  1  0
  1 32  1  0
  1 33  1  0
  5 34  1  0
  5 35  1  0
  7 36  1  0
 10 37  1  0
 11 38  1  0
 18 39  1  0
 19 40  1  0
 19 41  1  0
 20 42  1  0
 20 43  1  0
 23 44  1  0
 24 45  1  0
 25 46  1  0
 26 47  1  0
 28 48  1  0
 28 49  1  0
 29 50  1  0
 29 51  1  0
 30 52  1  0
 30 53  1  0
M  END
$$$$
