
     RDKit          3D

 49 53  0  0  0  0  0  0  0  0999 V2000
   -4.2752    4.5512    0.3504 O   0  0  0  0  0  0  0  0  0  0  0  0
   -3.0483    4.2794   -0.2184 C   0  0  0  0  0  0  0  0  0  0  0  0
   -2.3035    5.2894   -0.7843 C   0  0  0  0  0  0  0  0  0  0  0  0
   -1.0827    4.9872   -1.3446 C   0  0  0  0  0  0  0  0  0  0  0  0
   -0.6155    3.6672   -1.3330 C   0  0  0  0  0  0  0  0  0  0  0  0
   -1.3629    2.6590   -0.7657 C   0  0  0  0  0  0  0  0  0  0  0  0
   -0.9278    1.2616   -0.7125 C   0  0  0  0  0  0  0  0  0  0  0  0
    0.2826    0.8427   -1.2229 C   0  0  0  0  0  0  0  0  0  0  0  0
    0.6706   -0.5005   -1.1440 C   0  0  0  0  0  0  0  0  0  0  0  0
    1.8903   -0.9457   -1.6658 N   0  0  0  0  0  0  0  0  0  0  0  0
    3.1330   -0.8842   -0.9766 C   0  0  0  0  0  0  0  0  0  0  0  0
    4.2748   -1.4006   -1.5523 C   0  0  0  0  0  0  0  0  0  0  0  0
    5.5198   -1.3829   -0.9735 C   0  0  0  0  0  0  0  0  0  0  0  0
    5.6322   -0.7983    0.2897 C   0  0  0  0  0  0  0  0  0  0  0  0
    6.6587   -0.6056    1.1334 N   0  0  0  0  0  0  0  0  0  0  0  0
    6.2135    0.0095    2.2167 N   0  0  0  0  0  0  0  0  0  0  0  0
    4.9076    0.2369    2.1227 C   0  0  0  0  0  0  0  0  0  0  0  0
    4.5049   -0.2740    0.8877 C   0  0  0  0  0  0  0  0  0  0  0  0
    3.2623   -0.3115    0.2696 C   0  0  0  0  0  0  0  0  0  0  0  0
   -0.1849   -1.3480   -0.5537 N   0  0  0  0  0  0  0  0  0  0  0  0
   -1.3785   -0.9714   -0.0438 C   0  0  0  0  0  0  0  0  0  0  0  0
   -2.2554   -1.8827    0.5697 N   0  0  0  0  0  0  0  0  0  0  0  0
   -3.5822   -1.4473    0.9587 C   0  0  0  0  0  0  0  0  0  0  0  0
   -4.5413   -2.6466    0.8616 C   0  0  0  0  0  0  0  0  0  0  0  0
   -4.0036   -3.5993    1.7280 O   0  0  0  0  0  0  0  0  0  0  0  0
   -2.8807   -4.1877    1.1920 C   0  0  0  0  0  0  0  0  0  0  0  0
   -1.7960   -3.2409    0.7932 C   0  0  0  0  0  0  0  0  0  0  0  0
   -1.7040    0.3280   -0.1445 N   0  0  0  0  0  0  0  0  0  0  0  0
   -2.5836    2.9831   -0.2098 C   0  0  0  0  0  0  0  0  0  0  0  0
   -4.3465    4.6927    1.3501 H   0  0  0  0  0  0  0  0  0  0  0  0
   -2.6755    6.3261   -0.7896 H   0  0  0  0  0  0  0  0  0  0  0  0
   -0.4786    5.7734   -1.7992 H   0  0  0  0  0  0  0  0  0  0  0  0
    0.3449    3.4461   -1.7756 H   0  0  0  0  0  0  0  0  0  0  0  0
    0.9580    1.5433   -1.6949 H   0  0  0  0  0  0  0  0  0  0  0  0
    1.8810   -1.3516   -2.6332 H   0  0  0  0  0  0  0  0  0  0  0  0
    4.1898   -1.8571   -2.5375 H   0  0  0  0  0  0  0  0  0  0  0  0
    6.3953   -1.7819   -1.4202 H   0  0  0  0  0  0  0  0  0  0  0  0
    7.6525   -0.9056    0.9437 H   0  0  0  0  0  0  0  0  0  0  0  0
    4.1969    0.7144    2.8047 H   0  0  0  0  0  0  0  0  0  0  0  0
    2.3976    0.1067    0.7632 H   0  0  0  0  0  0  0  0  0  0  0  0
   -3.6494   -1.0490    1.9734 H   0  0  0  0  0  0  0  0  0  0  0  0
   -3.9366   -0.6916    0.2402 H   0  0  0  0  0  0  0  0  0  0  0  0
   -5.5246   -2.2932    1.1776 H   0  0  0  0  0  0  0  0  0  0  0  0
   -4.5984   -3.0003   -0.1935 H   0  0  0  0  0  0  0  0  0  0  0  0
   -2.5023   -4.9604    1.9242 H   0  0  0  0  0  0  0  0  0  0  0  0
   -3.2012   -4.7445    0.2706 H   0  0  0  0  0  0  0  0  0  0  0  0
   -1.3151   -3.5776   -0.1699 H   0  0  0  0  0  0  0  0  0  0  0  0
   -1.0057   -3.2805    1.5897 H   0  0  0  0  0  0  0  0  0  0  0  0
   -3.2065    2.2225    0.2483 H   0  0  0  0  0  0  0  0  0  0  0  0
  1  2  1  0
  2  3  2  0
  3  4  1  0
  4  5  2  0
  5  6  1  0
  6  7  1  0
  7  8  2  0
  8  9  1  0
  9 10  1  0
 10 11  1  0
 11 12  2  0
 12 13  1  0
 13 14  2  0
 14 15  1  0
 15 16  1  0
 16 17  2  0
 17 18  1  0
 18 19  2  0
  9 20  2  0
 20 21  1  0
 21 22  1  0
 22 23  1  0
 23 24  1  0
 24 25  1  0
 25 26  1  0
 26 27  1  0
 21 28  2  0
  6 29  2  0
 29  2  1  0
 28  7  1  0
 19 11  1  0
 27 22  1  0
 18 14  1  0
  1 30  1  0
  3 31  1  0
  4 32  1  0
  5 33  1  0
  8 34  1  0
 10 35  1  0
 12 36  1  0
 13 37  1  0
 15 38  1  0
 17 39  1  0
 19 40  1  0
 23 41  1  0
 23 42  1  0
 24 43  1  0
 24 44  1  0
 26 45  1  0
 26 46  1  0
 27 47  1  0
 27 48  1  0
 29 49  1  0
M  END
$$$$
