
     RDKit          3D

 64 68  0  0  0  0  0  0  0  0999 V2000
   -2.5676   -3.8403    3.1742 C   0  0  0  0  0  0  0  0  0  0  0  0
   -2.0734   -4.1688    1.7897 C   0  0  0  0  0  0  0  0  0  0  0  0
   -2.4092   -3.0053    0.8756 C   0  0  0  0  0  0  0  0  0  0  0  0
   -1.7525   -1.7181    1.3430 C   0  0  0  0  0  0  0  0  0  0  0  0
   -2.0993   -0.6240    0.4184 C   0  0  0  0  0  0  0  0  0  0  0  0
   -3.0939    0.2860    0.6567 N   0  0  0  0  0  0  0  0  0  0  0  0
   -3.1917    1.1101   -0.3453 N   0  0  0  0  0  0  0  0  0  0  0  0
   -4.1000    2.1882   -0.4677 C   0  0  0  0  0  0  0  0  0  0  0  0
   -3.6885    3.4525   -0.0399 C   0  0  0  0  0  0  0  0  0  0  0  0
   -4.5651    4.5074   -0.1584 C   0  0  0  0  0  0  0  0  0  0  0  0
   -5.8176    4.2902   -0.6924 C   0  0  0  0  0  0  0  0  0  0  0  0
   -6.2082    3.0458   -1.1078 C   0  0  0  0  0  0  0  0  0  0  0  0
   -5.3583    1.9806   -1.0018 C   0  0  0  0  0  0  0  0  0  0  0  0
   -5.7415    0.6979   -1.4214 N   0  0  0  0  0  4  0  0  0  0  0  0
   -5.3515   -0.3775   -0.9093 O   0  0  0  0  0  0  0  0  0  0  0  0
   -6.6214    0.5881   -2.4857 O   0  0  0  0  0  1  0  0  0  0  0  0
   -2.2684    0.7968   -1.3086 C   0  0  0  0  0  0  0  0  0  0  0  0
   -2.1070    1.5018   -2.5679 C   0  0  0  0  0  0  0  0  0  0  0  0
   -2.8650    2.5136   -2.8154 O   0  0  0  0  0  0  0  0  0  0  0  0
   -1.1812    1.1413   -3.5178 O   0  0  0  0  0  0  0  0  0  0  0  0
   -1.5877   -0.3016   -0.8039 C   0  0  0  0  0  0  0  0  0  0  0  0
   -0.4704   -0.9713   -1.5078 C   0  0  0  0  0  0  0  0  0  0  0  0
    0.8416   -0.5976   -0.9298 C   0  0  0  0  0  0  0  0  0  0  0  0
    1.5852   -1.4236   -0.0984 C   0  0  0  0  0  0  0  0  0  0  0  0
    2.7945   -1.0318    0.4260 C   0  0  0  0  0  0  0  0  0  0  0  0
    3.3392    0.1892    0.1632 C   0  0  0  0  0  0  0  0  0  0  0  0
    4.5974    0.6420    0.7121 C   0  0  0  0  0  0  0  0  0  0  0  0
    4.5994    1.7087    1.6263 C   0  0  0  0  0  0  0  0  0  0  0  0
    5.7556    2.1702    2.2048 C   0  0  0  0  0  0  0  0  0  0  0  0
    6.9637    1.5825    1.8933 C   0  0  0  0  0  0  0  0  0  0  0  0
    6.9912    0.5366    1.0012 C   0  0  0  0  0  0  0  0  0  0  0  0
    5.7974    0.0693    0.4106 C   0  0  0  0  0  0  0  0  0  0  0  0
    5.8541   -1.0151   -0.5548 C   0  0  0  0  0  0  0  0  0  0  0  0
    4.8664   -1.4922   -1.2710 N   0  0  0  0  0  0  0  0  0  0  0  0
    5.3123   -2.4548   -2.0426 N   0  0  0  0  0  0  0  0  0  0  0  0
    6.6095   -2.5712   -1.7921 N   0  0  0  0  0  0  0  0  0  0  0  0
    6.9844   -1.6927   -0.8722 N   0  0  0  0  0  0  0  0  0  0  0  0
    2.5951    1.0248   -0.6749 C   0  0  0  0  0  0  0  0  0  0  0  0
    1.3787    0.6335   -1.2032 C   0  0  0  0  0  0  0  0  0  0  0  0
   -2.8321   -4.7471    3.7582 H   0  0  0  0  0  0  0  0  0  0  0  0
   -3.4694   -3.2080    3.1115 H   0  0  0  0  0  0  0  0  0  0  0  0
   -1.8026   -3.2201    3.7015 H   0  0  0  0  0  0  0  0  0  0  0  0
   -2.6730   -5.0307    1.4226 H   0  0  0  0  0  0  0  0  0  0  0  0
   -0.9985   -4.3870    1.7709 H   0  0  0  0  0  0  0  0  0  0  0  0
   -2.2035   -3.1912   -0.1792 H   0  0  0  0  0  0  0  0  0  0  0  0
   -3.5259   -2.8155    0.9222 H   0  0  0  0  0  0  0  0  0  0  0  0
   -2.1749   -1.4284    2.3485 H   0  0  0  0  0  0  0  0  0  0  0  0
   -0.6817   -1.8491    1.4819 H   0  0  0  0  0  0  0  0  0  0  0  0
   -2.6979    3.5835    0.3742 H   0  0  0  0  0  0  0  0  0  0  0  0
   -4.2605    5.5133    0.1721 H   0  0  0  0  0  0  0  0  0  0  0  0
   -6.4998    5.1276   -0.7824 H   0  0  0  0  0  0  0  0  0  0  0  0
   -7.1992    2.8544   -1.5345 H   0  0  0  0  0  0  0  0  0  0  0  0
   -1.2733    1.4202   -4.4796 H   0  0  0  0  0  0  0  0  0  0  0  0
   -0.4469   -0.7254   -2.5916 H   0  0  0  0  0  0  0  0  0  0  0  0
   -0.5919   -2.0990   -1.4123 H   0  0  0  0  0  0  0  0  0  0  0  0
    1.1890   -2.3942    0.1255 H   0  0  0  0  0  0  0  0  0  0  0  0
    3.3776   -1.6907    1.0860 H   0  0  0  0  0  0  0  0  0  0  0  0
    3.6259    2.1616    1.8571 H   0  0  0  0  0  0  0  0  0  0  0  0
    5.7411    2.9945    2.9098 H   0  0  0  0  0  0  0  0  0  0  0  0
    7.8915    1.9260    2.3366 H   0  0  0  0  0  0  0  0  0  0  0  0
    7.9271    0.0451    0.7298 H   0  0  0  0  0  0  0  0  0  0  0  0
    7.9600   -1.5704   -0.4870 H   0  0  0  0  0  0  0  0  0  0  0  0
    2.9849    1.9905   -0.9074 H   0  0  0  0  0  0  0  0  0  0  0  0
    0.8874    1.3690   -1.8396 H   0  0  0  0  0  0  0  0  0  0  0  0
  1  2  1  0
  2  3  1  0
  3  4  1  0
  4  5  1  0
  5  6  2  0
  6  7  1  0
  7  8  1  0
  8  9  2  0
  9 10  1  0
 10 11  2  0
 11 12  1  0
 12 13  2  0
 13 14  1  0
 14 15  2  0
 14 16  1  0
  7 17  1  0
 17 18  1  0
 18 19  2  0
 18 20  1  0
 17 21  2  0
 21 22  1  0
 22 23  1  0
 23 24  2  0
 24 25  1  0
 25 26  2  0
 26 27  1  0
 27 28  2  0
 28 29  1  0
 29 30  2  0
 30 31  1  0
 31 32  2  0
 32 33  1  0
 33 34  2  0
 34 35  1  0
 35 36  2  0
 36 37  1  0
 26 38  1  0
 38 39  2  0
 21  5  1  0
 39 23  1  0
 13  8  1  0
 32 27  1  0
 37 33  1  0
  1 40  1  0
  1 41  1  0
  1 42  1  0
  2 43  1  0
  2 44  1  0
  3 45  1  0
  3 46  1  0
  4 47  1  0
  4 48  1  0
  9 49  1  0
 10 50  1  0
 11 51  1  0
 12 52  1  0
 20 53  1  0
 22 54  1  0
 22 55  1  0
 24 56  1  0
 25 57  1  0
 28 58  1  0
 29 59  1  0
 30 60  1  0
 31 61  1  0
 37 62  1  0
 38 63  1  0
 39 64  1  0
M  CHG  2  14   1  16  -1
M  END
$$$$
