
     RDKit          3D

 60 64  0  0  0  0  0  0  0  0999 V2000
   -7.4565   -0.8336   -0.5250 C   0  0  0  0  0  0  0  0  0  0  0  0
   -6.0091   -0.4761   -0.7207 C   0  0  0  0  0  0  0  0  0  0  0  0
   -5.6315    0.8182   -1.0084 C   0  0  0  0  0  0  0  0  0  0  0  0
   -4.3135    1.1741   -1.1921 C   0  0  0  0  0  0  0  0  0  0  0  0
   -3.3521    0.1961   -1.0819 C   0  0  0  0  0  0  0  0  0  0  0  0
   -1.9652    0.5507   -1.2698 C   0  0  0  0  0  0  0  0  0  0  0  0
   -1.4859    0.4879   -2.4298 O   0  0  0  0  0  0  0  0  0  0  0  0
   -1.1101    0.9676   -0.2151 N   0  0  0  0  0  0  0  0  0  0  0  0
   -1.7110    1.0242    1.1216 C   0  0  0  0  0  0  0  0  0  0  0  0
   -1.1338    2.3120    1.7299 C   0  0  1  0  0  0  0  0  0  0  0  0
   -1.8360    2.7206    2.9744 C   0  0  0  0  0  0  0  0  0  0  0  0
    0.2117    2.0812    1.8791 O   0  0  0  0  0  0  0  0  0  0  0  0
    0.9058    2.0424    0.7011 C   0  0  0  0  0  0  0  0  0  0  0  0
    0.2793    1.3232   -0.4344 C   0  0  1  0  0  0  0  0  0  0  0  0
    1.0035    0.0715   -0.7892 C   0  0  0  0  0  0  0  0  0  0  0  0
    2.4308    0.2022   -1.0489 C   0  0  0  0  0  0  0  0  0  0  0  0
    3.2962   -0.2279   -0.0667 C   0  0  0  0  0  0  0  0  0  0  0  0
    4.6801   -0.1582   -0.1836 C   0  0  0  0  0  0  0  0  0  0  0  0
    5.5268   -0.6359    0.8992 C   0  0  0  0  0  0  0  0  0  0  0  0
    6.8923   -0.5963    0.8549 C   0  0  0  0  0  0  0  0  0  0  0  0
    7.6786   -1.0613    1.9106 C   0  0  0  0  0  0  0  0  0  0  0  0
    7.0372   -1.5693    3.0160 C   0  0  0  0  0  0  0  0  0  0  0  0
    5.6929   -1.5939    3.0276 N   0  0  0  0  0  0  0  0  0  0  0  0
    4.9702   -1.1511    2.0233 N   0  0  0  0  0  0  0  0  0  0  0  0
    5.1541    0.3744   -1.3576 C   0  0  0  0  0  0  0  0  0  0  0  0
    4.2911    0.8172   -2.3687 C   0  0  0  0  0  0  0  0  0  0  0  0
    2.9419    0.7337   -2.2199 C   0  0  0  0  0  0  0  0  0  0  0  0
    2.0420    1.1351   -3.1394 F   0  0  0  0  0  0  0  0  0  0  0  0
   -3.7443   -1.0915   -0.7944 C   0  0  0  0  0  0  0  0  0  0  0  0
   -2.7811   -2.1303   -0.6721 N   0  0  0  0  0  0  0  0  0  0  0  0
   -2.1574   -2.8127   -1.6128 N   0  0  0  0  0  0  0  0  0  0  0  0
   -1.3254   -3.7057   -1.0617 C   0  0  0  0  0  0  0  0  0  0  0  0
   -1.4376   -3.5717    0.2986 C   0  0  0  0  0  0  0  0  0  0  0  0
   -2.3488   -2.5861    0.4948 N   0  0  0  0  0  0  0  0  0  0  0  0
   -5.0623   -1.4713   -0.6060 C   0  0  0  0  0  0  0  0  0  0  0  0
   -7.7681   -1.4089   -1.4081 H   0  0  0  0  0  0  0  0  0  0  0  0
   -8.0420    0.1218   -0.5381 H   0  0  0  0  0  0  0  0  0  0  0  0
   -7.6046   -1.3937    0.4266 H   0  0  0  0  0  0  0  0  0  0  0  0
   -6.3993    1.5905   -1.0943 H   0  0  0  0  0  0  0  0  0  0  0  0
   -4.0582    2.2147   -1.4189 H   0  0  0  0  0  0  0  0  0  0  0  0
   -2.7966    1.1856    1.0535 H   0  0  0  0  0  0  0  0  0  0  0  0
   -1.4092    0.1449    1.6960 H   0  0  0  0  0  0  0  0  0  0  0  0
   -1.2490    3.0803    0.9110 H   0  0  0  0  0  0  0  0  0  0  0  0
   -1.1786    3.3528    3.6020 H   0  0  0  0  0  0  0  0  0  0  0  0
   -2.2457    1.8758    3.5619 H   0  0  0  0  0  0  0  0  0  0  0  0
   -2.6962    3.3837    2.6658 H   0  0  0  0  0  0  0  0  0  0  0  0
    1.8851    1.5243    0.9299 H   0  0  0  0  0  0  0  0  0  0  0  0
    1.1414    3.1173    0.4404 H   0  0  0  0  0  0  0  0  0  0  0  0
    0.2366    2.0401   -1.3118 H   0  0  0  0  0  0  0  0  0  0  0  0
    0.8394   -0.6603    0.0217 H   0  0  0  0  0  0  0  0  0  0  0  0
    0.5417   -0.3992   -1.7025 H   0  0  0  0  0  0  0  0  0  0  0  0
    2.9245   -0.6556    0.8774 H   0  0  0  0  0  0  0  0  0  0  0  0
    7.3661   -0.1866   -0.0378 H   0  0  0  0  0  0  0  0  0  0  0  0
    8.7536   -1.0078    1.8253 H   0  0  0  0  0  0  0  0  0  0  0  0
    7.6127   -1.9501    3.8780 H   0  0  0  0  0  0  0  0  0  0  0  0
    6.2185    0.4622   -1.5237 H   0  0  0  0  0  0  0  0  0  0  0  0
    4.6942    1.2326   -3.2834 H   0  0  0  0  0  0  0  0  0  0  0  0
   -0.6957   -4.3904   -1.5986 H   0  0  0  0  0  0  0  0  0  0  0  0
   -0.9076   -4.1374    1.0529 H   0  0  0  0  0  0  0  0  0  0  0  0
   -5.3358   -2.4959   -0.3799 H   0  0  0  0  0  0  0  0  0  0  0  0
  1  2  1  0
  2  3  2  0
  3  4  1  0
  4  5  2  0
  5  6  1  0
  6  7  2  0
  6  8  1  0
  8  9  1  0
  9 10  1  0
 10 11  1  0
 10 12  1  0
 12 13  1  0
 13 14  1  0
 14 15  1  0
 15 16  1  0
 16 17  2  0
 17 18  1  0
 18 19  1  0
 19 20  2  0
 20 21  1  0
 21 22  2  0
 22 23  1  0
 23 24  2  0
 18 25  2  0
 25 26  1  0
 26 27  2  0
 27 28  1  0
  5 29  1  0
 29 30  1  0
 30 31  1  0
 31 32  2  0
 32 33  1  0
 33 34  2  0
 29 35  2  0
 35  2  1  0
 14  8  1  0
 27 16  1  0
 34 30  1  0
 24 19  1  0
  1 36  1  0
  1 37  1  0
  1 38  1  0
  3 39  1  0
  4 40  1  0
  9 41  1  0
  9 42  1  0
 10 43  1  6
 11 44  1  0
 11 45  1  0
 11 46  1  0
 13 47  1  0
 13 48  1  0
 14 49  1  6
 15 50  1  0
 15 51  1  0
 17 52  1  0
 20 53  1  0
 21 54  1  0
 22 55  1  0
 25 56  1  0
 26 57  1  0
 32 58  1  0
 33 59  1  0
 35 60  1  0
M  END
$$$$
