
     RDKit          3D

 49 50  0  0  0  0  0  0  0  0999 V2000
    0.0812    1.6313   -2.4390 C   0  0  0  0  0  0  0  0  0  0  0  0
    0.8242    0.9610   -1.3363 C   0  0  0  0  0  0  0  0  0  0  0  0
    2.1881    0.8305   -1.2811 C   0  0  0  0  0  0  0  0  0  0  0  0
    2.9843    1.3978   -2.3917 C   0  0  0  0  0  0  0  0  0  0  0  0
    2.7787    0.1809   -0.2041 C   0  0  0  0  0  0  0  0  0  0  0  0
    4.1665    0.1130   -0.2644 O   0  0  0  0  0  0  0  0  0  0  0  0
    4.8036   -0.5533    0.8372 C   0  0  0  0  0  0  0  0  0  0  0  0
    6.2885   -0.5969    0.7209 C   0  0  0  0  0  0  0  0  0  0  0  0
    6.9299   -1.2939    1.8716 C   0  0  0  0  0  0  0  0  0  0  0  0
    6.6096   -0.5815    3.1520 C   0  0  0  0  0  0  0  0  0  0  0  0
    7.2116   -1.2730    4.2127 O   0  0  0  0  0  0  0  0  0  0  0  0
    5.9566    0.4531    3.5302 O   0  0  0  0  0  0  0  0  0  0  0  0
    2.0548   -0.3596    0.8492 C   0  0  0  0  0  0  0  0  0  0  0  0
    0.6809   -0.2145    0.7697 C   0  0  0  0  0  0  0  0  0  0  0  0
    0.0814    0.4340   -0.3042 C   0  0  0  0  0  0  0  0  0  0  0  0
   -1.3621    0.5030   -0.2510 N   0  0  0  0  0  0  0  0  0  0  0  0
   -2.4060   -0.3924   -0.7629 C   0  0  0  0  0  0  0  0  0  0  0  0
   -2.2148   -1.4378   -1.3772 O   0  0  0  0  0  0  0  0  0  0  0  0
   -3.4430    0.4425   -0.2632 N   0  0  0  0  0  0  0  0  0  0  0  0
   -4.7065   -0.2768   -0.6309 C   0  0  0  0  0  0  0  0  0  0  0  0
   -4.7780   -1.3996   -1.2600 O   0  0  0  0  0  0  0  0  0  0  0  0
   -6.1876   -0.1349   -0.5079 C   0  0  0  0  0  0  0  0  0  0  0  0
   -6.6186   -0.2295    0.7970 C   0  0  0  0  0  0  0  0  0  0  0  0
   -7.9363   -0.1022    1.1122 C   0  0  0  0  0  0  0  0  0  0  0  0
   -8.7803    0.1219    0.0478 C   0  0  0  0  0  0  0  0  0  0  0  0
  -10.4955    0.2963    0.3772 Cl  0  0  0  0  0  0  0  0  0  0  0  0
   -8.3909    0.2222   -1.2707 C   0  0  0  0  0  0  0  0  0  0  0  0
   -7.0255    0.0879   -1.5693 C   0  0  0  0  0  0  0  0  0  0  0  0
   -6.3467    0.1830   -3.1730 Cl  0  0  0  0  0  0  0  0  0  0  0  0
   -0.6670    2.3126   -1.9444 H   0  0  0  0  0  0  0  0  0  0  0  0
    0.7068    2.3131   -3.0455 H   0  0  0  0  0  0  0  0  0  0  0  0
   -0.5281    0.9189   -3.0394 H   0  0  0  0  0  0  0  0  0  0  0  0
    2.7073    2.4057   -2.7001 H   0  0  0  0  0  0  0  0  0  0  0  0
    4.0722    1.3089   -2.1547 H   0  0  0  0  0  0  0  0  0  0  0  0
    2.8257    0.7264   -3.2861 H   0  0  0  0  0  0  0  0  0  0  0  0
    4.5341   -0.0073    1.7662 H   0  0  0  0  0  0  0  0  0  0  0  0
    4.4138   -1.5813    0.9851 H   0  0  0  0  0  0  0  0  0  0  0  0
    6.6484    0.4516    0.7020 H   0  0  0  0  0  0  0  0  0  0  0  0
    6.5662   -1.0942   -0.2335 H   0  0  0  0  0  0  0  0  0  0  0  0
    8.0291   -1.3295    1.7105 H   0  0  0  0  0  0  0  0  0  0  0  0
    6.5014   -2.3257    1.9062 H   0  0  0  0  0  0  0  0  0  0  0  0
    7.3764   -0.7629    5.0927 H   0  0  0  0  0  0  0  0  0  0  0  0
    2.5941   -0.8489    1.6469 H   0  0  0  0  0  0  0  0  0  0  0  0
    0.0957   -0.6275    1.5799 H   0  0  0  0  0  0  0  0  0  0  0  0
   -1.3704    1.4176    0.2779 H   0  0  0  0  0  0  0  0  0  0  0  0
   -4.1707    0.9955    0.0680 H   0  0  0  0  0  0  0  0  0  0  0  0
   -5.9480   -0.4087    1.6523 H   0  0  0  0  0  0  0  0  0  0  0  0
   -8.2907   -0.1725    2.1288 H   0  0  0  0  0  0  0  0  0  0  0  0
   -9.0442    0.3953   -2.1039 H   0  0  0  0  0  0  0  0  0  0  0  0
  1  2  1  0
  2  3  2  0
  3  4  1  0
  3  5  1  0
  5  6  1  0
  6  7  1  0
  7  8  1  0
  8  9  1  0
  9 10  1  0
 10 11  1  0
 10 12  2  0
  5 13  2  0
 13 14  1  0
 14 15  2  0
 15 16  1  0
 16 17  1  0
 17 18  2  0
 17 19  1  0
 19 20  1  0
 20 21  2  0
 20 22  1  0
 22 23  2  0
 23 24  1  0
 24 25  2  0
 25 26  1  0
 25 27  1  0
 27 28  2  0
 28 29  1  0
 15  2  1  0
 28 22  1  0
  1 30  1  0
  1 31  1  0
  1 32  1  0
  4 33  1  0
  4 34  1  0
  4 35  1  0
  7 36  1  0
  7 37  1  0
  8 38  1  0
  8 39  1  0
  9 40  1  0
  9 41  1  0
 11 42  1  0
 13 43  1  0
 14 44  1  0
 16 45  1  0
 19 46  1  0
 23 47  1  0
 24 48  1  0
 27 49  1  0
M  END
$$$$
