
     RDKit          3D

 40 42  0  0  0  0  0  0  0  0999 V2000
    7.2869    0.4522   -0.2426 N   0  0  0  0  0  0  0  0  0  0  0  0
    5.7726   -0.3369   -0.4980 S   0  0  0  0  0  0  0  0  0  0  0  0
    5.6813   -1.5110    0.4429 O   0  0  0  0  0  0  0  0  0  0  0  0
    5.7138   -0.8749   -1.8888 O   0  0  0  0  0  0  0  0  0  0  0  0
    4.4839    0.7114   -0.1495 O   0  0  0  0  0  0  0  0  0  0  0  0
    3.2092    0.1475   -0.0735 C   0  0  0  0  0  0  0  0  0  0  0  0
    2.7382   -0.3292    1.1453 C   0  0  0  0  0  0  0  0  0  0  0  0
    1.4730   -0.8744    1.1563 C   0  0  0  0  0  0  0  0  0  0  0  0
    0.6863   -0.9523    0.0042 C   0  0  0  0  0  0  0  0  0  0  0  0
   -0.6688   -1.5692    0.1626 C   0  0  0  0  0  0  0  0  0  0  0  0
   -1.6480   -0.5801    0.4869 N   0  0  0  0  0  0  0  0  0  0  0  0
   -1.3104    0.0551    1.6855 N   0  0  0  0  0  0  0  0  0  0  0  0
   -0.5339    1.1589    1.5908 C   0  0  0  0  0  0  0  0  0  0  0  0
   -0.3287    1.6101    2.8403 N   0  0  0  0  0  0  0  0  0  0  0  0
   -0.9456    0.8333    3.7141 N   0  0  0  0  0  0  0  0  0  0  0  0
   -1.5518   -0.1276    2.9955 C   0  0  0  0  0  0  0  0  0  0  0  0
   -2.8261   -0.1954   -0.2041 C   0  0  0  0  0  0  0  0  0  0  0  0
   -3.6389    0.7991    0.2979 C   0  0  0  0  0  0  0  0  0  0  0  0
   -4.7762    1.1487   -0.3986 C   0  0  0  0  0  0  0  0  0  0  0  0
   -5.1336    0.5298   -1.5957 C   0  0  0  0  0  0  0  0  0  0  0  0
   -4.3226   -0.4747   -2.1129 C   0  0  0  0  0  0  0  0  0  0  0  0
   -3.1798   -0.8076   -1.3885 C   0  0  0  0  0  0  0  0  0  0  0  0
   -6.3383    0.9324   -2.2900 C   0  0  0  0  0  0  0  0  0  0  0  0
   -7.2972    1.2714   -2.8460 N   0  0  0  0  0  0  0  0  0  0  0  0
    1.1697   -0.4743   -1.1970 C   0  0  0  0  0  0  0  0  0  0  0  0
    2.4395    0.0752   -1.2184 C   0  0  0  0  0  0  0  0  0  0  0  0
    3.1292    0.7423   -2.8664 Br  0  0  0  0  0  0  0  0  0  0  0  0
    7.5398    0.4168    0.7642 H   0  0  0  0  0  0  0  0  0  0  0  0
    7.9844   -0.0342   -0.8508 H   0  0  0  0  0  0  0  0  0  0  0  0
    3.3513   -0.2659    2.0320 H   0  0  0  0  0  0  0  0  0  0  0  0
    1.1116   -1.2403    2.0924 H   0  0  0  0  0  0  0  0  0  0  0  0
   -0.8980   -2.0381   -0.8121 H   0  0  0  0  0  0  0  0  0  0  0  0
   -0.6482   -2.3671    0.9376 H   0  0  0  0  0  0  0  0  0  0  0  0
   -0.0674    1.7274    0.7786 H   0  0  0  0  0  0  0  0  0  0  0  0
   -2.1794   -1.0020    3.2132 H   0  0  0  0  0  0  0  0  0  0  0  0
   -3.3916    1.3114    1.2390 H   0  0  0  0  0  0  0  0  0  0  0  0
   -5.4095    1.9254   -0.0049 H   0  0  0  0  0  0  0  0  0  0  0  0
   -4.6018   -0.9498   -3.0369 H   0  0  0  0  0  0  0  0  0  0  0  0
   -2.6010   -1.5856   -1.8396 H   0  0  0  0  0  0  0  0  0  0  0  0
    0.5261   -0.5549   -2.0652 H   0  0  0  0  0  0  0  0  0  0  0  0
  1  2  1  0
  2  3  2  0
  2  4  2  0
  2  5  1  0
  5  6  1  0
  6  7  2  0
  7  8  1  0
  8  9  2  0
  9 10  1  0
 10 11  1  0
 11 12  1  0
 12 13  1  0
 13 14  2  0
 14 15  1  0
 15 16  2  0
 11 17  1  0
 17 18  2  0
 18 19  1  0
 19 20  2  0
 20 21  1  0
 21 22  2  0
 20 23  1  0
 23 24  3  0
  9 25  1  0
 25 26  2  0
 26 27  1  0
 26  6  1  0
 16 12  1  0
 22 17  1  0
  1 28  1  0
  1 29  1  0
  7 30  1  0
  8 31  1  0
 10 32  1  0
 10 33  1  0
 13 34  1  0
 16 35  1  0
 18 36  1  0
 19 37  1  0
 21 38  1  0
 22 39  1  0
 25 40  1  0
M  END
$$$$
