
     RDKit          3D

 46 49  0  0  0  0  0  0  0  0999 V2000
    4.3031   -0.8286    1.8913 C   0  0  0  0  0  0  0  0  0  0  0  0
    4.7055   -0.1017    0.6636 C   0  0  0  0  0  0  0  0  0  0  0  0
    6.0848    0.1229    0.4421 C   0  0  0  0  0  0  0  0  0  0  0  0
    6.5572    0.7278   -0.6806 C   0  0  0  0  0  0  0  0  0  0  0  0
    7.9569    0.9496   -0.8933 C   0  0  0  0  0  0  0  0  0  0  0  0
    9.0956    1.1267   -1.0701 N   0  0  0  0  0  0  0  0  0  0  0  0
    5.6532    1.1417   -1.6479 C   0  0  0  0  0  0  0  0  0  0  0  0
    4.3496    0.9287   -1.4343 N   0  0  0  0  0  0  0  0  0  0  0  0
    3.8690    0.3189   -0.3007 C   0  0  0  0  0  0  0  0  0  0  0  0
    2.4306    0.2477   -0.2224 C   0  0  0  0  0  0  0  0  0  0  0  0
    1.7783    0.1064   -1.3236 O   0  0  0  0  0  0  0  0  0  0  0  0
    1.7111    0.3281    0.9593 N   0  0  0  0  0  0  0  0  0  0  0  0
    0.3083    0.2549    1.1631 C   0  0  0  0  0  0  0  0  0  0  0  0
   -0.1865    0.3764    2.4668 C   0  0  0  0  0  0  0  0  0  0  0  0
   -1.5275    0.3139    2.7327 C   0  0  0  0  0  0  0  0  0  0  0  0
   -2.4380    0.1295    1.7259 C   0  0  0  0  0  0  0  0  0  0  0  0
   -3.7683    0.0670    1.9792 F   0  0  0  0  0  0  0  0  0  0  0  0
   -1.9726    0.0067    0.4263 C   0  0  0  0  0  0  0  0  0  0  0  0
   -2.9343   -0.2166   -0.7007 C   0  0  1  0  0  0  0  0  0  0  0  0
   -2.1718   -0.2204   -1.9989 C   0  0  0  0  0  0  0  0  0  0  0  0
   -1.5643    0.9999   -2.1607 F   0  0  0  0  0  0  0  0  0  0  0  0
   -3.5930   -1.4398   -0.4324 N   0  0  0  0  0  0  0  0  0  0  0  0
   -4.8298   -1.6095   -0.2343 C   0  0  0  0  0  0  0  0  0  0  0  0
   -5.3952   -2.9084    0.0317 N   0  0  0  0  0  0  0  0  0  0  0  0
   -5.6883   -0.5331   -0.2684 O   0  0  0  0  0  0  0  0  0  0  0  0
   -5.2849    0.7370   -0.6492 C   0  0  2  0  0  0  0  0  0  0  0  0
   -4.7588    0.9452   -2.0224 C   0  0  0  0  0  0  0  0  0  0  0  0
   -3.8699    0.9803   -0.8045 C   0  0  2  0  0  0  0  0  0  0  0  0
   -0.6223    0.0710    0.1751 C   0  0  0  0  0  0  0  0  0  0  0  0
    5.1497   -1.5724    2.0851 H   0  0  0  0  0  0  0  0  0  0  0  0
    3.4157   -1.4625    1.7276 H   0  0  0  0  0  0  0  0  0  0  0  0
    4.2417   -0.1990    2.7752 H   0  0  0  0  0  0  0  0  0  0  0  0
    6.7554   -0.2110    1.2129 H   0  0  0  0  0  0  0  0  0  0  0  0
    6.0135    1.6231   -2.5458 H   0  0  0  0  0  0  0  0  0  0  0  0
    2.2901    0.5106    1.8475 H   0  0  0  0  0  0  0  0  0  0  0  0
    0.5329    0.5226    3.2671 H   0  0  0  0  0  0  0  0  0  0  0  0
   -1.8963    0.4093    3.7467 H   0  0  0  0  0  0  0  0  0  0  0  0
   -2.8961   -0.3461   -2.8565 H   0  0  0  0  0  0  0  0  0  0  0  0
   -1.3976   -1.0094   -2.0726 H   0  0  0  0  0  0  0  0  0  0  0  0
   -4.8196   -3.5882    0.5499 H   0  0  0  0  0  0  0  0  0  0  0  0
   -6.3412   -3.1568   -0.2817 H   0  0  0  0  0  0  0  0  0  0  0  0
   -5.8980    1.5618   -0.2113 H   0  0  0  0  0  0  0  0  0  0  0  0
   -4.8720    1.9190   -2.5376 H   0  0  0  0  0  0  0  0  0  0  0  0
   -4.8361    0.0828   -2.6806 H   0  0  0  0  0  0  0  0  0  0  0  0
   -3.4082    1.9307   -0.5087 H   0  0  0  0  0  0  0  0  0  0  0  0
   -0.2314   -0.0369   -0.8324 H   0  0  0  0  0  0  0  0  0  0  0  0
  1  2  1  0
  2  3  2  0
  3  4  1  0
  4  5  1  0
  5  6  3  0
  4  7  2  0
  7  8  1  0
  8  9  2  0
  9 10  1  0
 10 11  2  0
 10 12  1  0
 12 13  1  0
 13 14  2  0
 14 15  1  0
 15 16  2  0
 16 17  1  0
 16 18  1  0
 18 19  1  0
 19 20  1  6
 20 21  1  0
 19 22  1  0
 22 23  2  0
 23 24  1  0
 23 25  1  0
 25 26  1  0
 26 27  1  0
 27 28  1  0
 18 29  2  0
  9  2  1  0
 29 13  1  0
 28 19  1  0
 28 26  1  0
  1 30  1  0
  1 31  1  0
  1 32  1  0
  3 33  1  0
  7 34  1  0
 12 35  1  0
 14 36  1  0
 15 37  1  0
 20 38  1  0
 20 39  1  0
 24 40  1  0
 24 41  1  0
 26 42  1  1
 27 43  1  0
 27 44  1  0
 28 45  1  1
 29 46  1  0
M  END
$$$$
