
     RDKit          3D

 21 21  0  0  0  0  0  0  0  0999 V2000
   -3.5526   -0.2642   -1.8426 O   0  0  0  0  0  0  0  0  0  0  0  0
   -2.8517   -0.1729   -0.7934 C   0  0  0  0  0  0  0  0  0  0  0  0
   -1.4034   -0.1591   -0.8997 C   0  0  0  0  0  0  0  0  0  0  0  0
   -0.6021   -0.0680    0.1269 C   0  0  0  0  0  0  0  0  0  0  0  0
    0.8555   -0.0531    0.0336 C   0  0  0  0  0  0  0  0  0  0  0  0
    1.5537    0.0499    1.2362 C   0  0  0  0  0  0  0  0  0  0  0  0
    2.9219    0.0709    1.2381 C   0  0  0  0  0  0  0  0  0  0  0  0
    3.6526   -0.0077    0.0715 C   0  0  0  0  0  0  0  0  0  0  0  0
    2.9359   -0.1088   -1.1022 C   0  0  0  0  0  0  0  0  0  0  0  0
    1.5443   -0.1329   -1.1416 C   0  0  0  0  0  0  0  0  0  0  0  0
   -3.5611   -0.0901    0.4237 N   0  0  0  0  0  0  0  0  0  0  0  0
   -4.9199   -0.1083    0.4558 O   0  0  0  0  0  0  0  0  0  0  0  0
   -0.9502   -0.2288   -1.8967 H   0  0  0  0  0  0  0  0  0  0  0  0
   -1.0750    0.0011    1.1199 H   0  0  0  0  0  0  0  0  0  0  0  0
    1.0253    0.1160    2.1998 H   0  0  0  0  0  0  0  0  0  0  0  0
    3.4905    0.1505    2.1624 H   0  0  0  0  0  0  0  0  0  0  0  0
    4.7493    0.0088    0.0697 H   0  0  0  0  0  0  0  0  0  0  0  0
    3.4726   -0.1730   -2.0439 H   0  0  0  0  0  0  0  0  0  0  0  0
    1.0175   -0.2136   -2.0880 H   0  0  0  0  0  0  0  0  0  0  0  0
   -3.0610   -0.0126    1.3330 H   0  0  0  0  0  0  0  0  0  0  0  0
   -5.2422   -0.4523    1.3376 H   0  0  0  0  0  0  0  0  0  0  0  0
  1  2  2  0
  2  3  1  0
  3  4  2  0
  4  5  1  0
  5  6  2  0
  6  7  1  0
  7  8  2  0
  8  9  1  0
  9 10  2  0
  2 11  1  0
 11 12  1  0
 10  5  1  0
  3 13  1  0
  4 14  1  0
  6 15  1  0
  7 16  1  0
  8 17  1  0
  9 18  1  0
 10 19  1  0
 11 20  1  0
 12 21  1  0
M  END
$$$$
