
     RDKit          3D

 77 80  0  0  0  0  0  0  0  0999 V2000
    5.1305    5.3470    1.5750 C   0  0  0  0  0  0  0  0  0  0  0  0
    5.0820    4.4400    2.7819 C   0  0  0  0  0  0  0  0  0  0  0  0
    3.9330    3.5639    2.7526 N   0  0  0  0  0  0  0  0  0  0  0  0
    3.7461    2.5781    1.7738 C   0  0  0  0  0  0  0  0  0  0  0  0
    2.6054    1.7641    1.7492 C   0  0  0  0  0  0  0  0  0  0  0  0
    2.4141    0.7977    0.8029 C   0  0  0  0  0  0  0  0  0  0  0  0
    1.1743   -0.0210    0.8654 C   0  0  0  0  0  0  0  0  0  0  0  0
    0.4252    0.1042    1.8833 O   0  0  0  0  0  0  0  0  0  0  0  0
    0.8146   -0.9042   -0.1406 N   0  0  0  0  0  0  0  0  0  0  0  0
   -0.3702   -1.7520   -0.2410 C   0  0  1  0  0  0  0  0  0  0  0  0
    0.0040   -3.1721   -0.4245 C   0  0  0  0  0  0  0  0  0  0  0  0
   -1.0251   -4.1829   -0.5492 C   0  0  0  0  0  0  0  0  0  0  0  0
   -1.5476   -4.4441   -1.7990 C   0  0  0  0  0  0  0  0  0  0  0  0
   -2.4890   -5.4239   -1.9534 C   0  0  0  0  0  0  0  0  0  0  0  0
   -2.9359   -6.1634   -0.8965 C   0  0  0  0  0  0  0  0  0  0  0  0
   -2.4134   -5.9066    0.3718 C   0  0  0  0  0  0  0  0  0  0  0  0
   -1.4737   -4.9288    0.5274 C   0  0  0  0  0  0  0  0  0  0  0  0
   -1.4044   -1.5261    0.7887 C   0  0  2  0  0  0  0  0  0  0  0  0
   -2.4337   -2.4880    0.6211 O   0  0  0  0  0  0  0  0  0  0  0  0
   -2.1206   -0.1805    0.6145 C   0  0  0  0  0  0  0  0  0  0  0  0
   -3.0901    0.1139    1.5787 N   0  0  0  0  0  0  0  0  0  0  0  0
   -4.3347   -0.5390    1.6120 C   0  0  0  0  0  0  0  0  0  0  0  0
   -5.2421   -0.0189    0.5259 C   0  0  0  0  0  0  0  0  0  0  0  0
   -5.3521   -0.5968   -0.7023 C   0  0  0  0  0  0  0  0  0  0  0  0
   -6.1999   -0.0717   -1.6917 C   0  0  0  0  0  0  0  0  0  0  0  0
   -6.9455    1.0519   -1.4341 C   0  0  0  0  0  0  0  0  0  0  0  0
   -7.8006    1.6116   -2.3814 O   0  0  0  0  0  0  0  0  0  0  0  0
   -8.5442    2.7622   -2.0779 C   0  0  0  0  0  0  0  0  0  0  0  0
   -6.8305    1.6269   -0.1986 C   0  0  0  0  0  0  0  0  0  0  0  0
   -6.0052    1.1234    0.7772 C   0  0  0  0  0  0  0  0  0  0  0  0
    3.3815    0.6279   -0.1517 C   0  0  0  0  0  0  0  0  0  0  0  0
    4.5364    1.3999   -0.1850 C   0  0  0  0  0  0  0  0  0  0  0  0
    5.5267    1.1932   -1.1783 N   0  0  0  0  0  0  0  0  0  0  0  0
    5.4983    0.1649   -2.2112 C   0  0  0  0  0  0  0  0  0  0  0  0
    6.9592   -0.1613   -2.4845 C   0  0  0  0  0  0  0  0  0  0  0  0
    7.7487    1.0058   -1.9888 C   0  0  0  0  0  0  0  0  0  0  0  0
    6.7348    1.9061   -1.3813 C   0  0  0  0  0  0  0  0  0  0  0  0
    6.9229    3.1081   -1.0954 O   0  0  0  0  0  0  0  0  0  0  0  0
    4.6855    2.3618    0.7891 C   0  0  0  0  0  0  0  0  0  0  0  0
    6.0968    5.2534    1.0870 H   0  0  0  0  0  0  0  0  0  0  0  0
    4.8982    6.4016    1.8789 H   0  0  0  0  0  0  0  0  0  0  0  0
    4.3423    4.9755    0.8594 H   0  0  0  0  0  0  0  0  0  0  0  0
    6.0402    3.8605    2.7979 H   0  0  0  0  0  0  0  0  0  0  0  0
    5.0828    5.0511    3.7258 H   0  0  0  0  0  0  0  0  0  0  0  0
    3.2155    3.6911    3.5124 H   0  0  0  0  0  0  0  0  0  0  0  0
    1.8508    1.9148    2.5147 H   0  0  0  0  0  0  0  0  0  0  0  0
    1.4961   -0.9824   -0.9692 H   0  0  0  0  0  0  0  0  0  0  0  0
   -0.8809   -1.3907   -1.2113 H   0  0  0  0  0  0  0  0  0  0  0  0
    0.7144   -3.4396    0.4353 H   0  0  0  0  0  0  0  0  0  0  0  0
    0.6702   -3.2763   -1.3474 H   0  0  0  0  0  0  0  0  0  0  0  0
   -1.1951   -3.8556   -2.6478 H   0  0  0  0  0  0  0  0  0  0  0  0
   -2.8972   -5.6254   -2.9399 H   0  0  0  0  0  0  0  0  0  0  0  0
   -3.6657   -6.9370   -0.9603 H   0  0  0  0  0  0  0  0  0  0  0  0
   -2.7570   -6.4856    1.2235 H   0  0  0  0  0  0  0  0  0  0  0  0
   -1.0407   -4.6971    1.4963 H   0  0  0  0  0  0  0  0  0  0  0  0
   -1.0688   -1.5987    1.8256 H   0  0  0  0  0  0  0  0  0  0  0  0
   -2.7777   -2.4050   -0.2887 H   0  0  0  0  0  0  0  0  0  0  0  0
   -1.4504    0.6167    0.3819 H   0  0  0  0  0  0  0  0  0  0  0  0
   -2.7355   -0.3606   -0.3644 H   0  0  0  0  0  0  0  0  0  0  0  0
   -2.7126    0.3457    2.5321 H   0  0  0  0  0  0  0  0  0  0  0  0
   -4.9043   -0.3291    2.5551 H   0  0  0  0  0  0  0  0  0  0  0  0
   -4.3518   -1.6289    1.5010 H   0  0  0  0  0  0  0  0  0  0  0  0
   -4.7846   -1.4849   -0.9350 H   0  0  0  0  0  0  0  0  0  0  0  0
   -6.2707   -0.5430   -2.6515 H   0  0  0  0  0  0  0  0  0  0  0  0
   -9.2216    2.5668   -1.2063 H   0  0  0  0  0  0  0  0  0  0  0  0
   -9.1554    3.0228   -2.9643 H   0  0  0  0  0  0  0  0  0  0  0  0
   -7.8420    3.5669   -1.8065 H   0  0  0  0  0  0  0  0  0  0  0  0
   -7.4382    2.5277   -0.0133 H   0  0  0  0  0  0  0  0  0  0  0  0
   -5.9217    1.5859    1.7507 H   0  0  0  0  0  0  0  0  0  0  0  0
    3.2691   -0.1248   -0.9165 H   0  0  0  0  0  0  0  0  0  0  0  0
    4.9660   -0.7148   -1.8273 H   0  0  0  0  0  0  0  0  0  0  0  0
    5.0159    0.5744   -3.1131 H   0  0  0  0  0  0  0  0  0  0  0  0
    7.1479   -0.3404   -3.5616 H   0  0  0  0  0  0  0  0  0  0  0  0
    7.1914   -1.0855   -1.8814 H   0  0  0  0  0  0  0  0  0  0  0  0
    8.2368    1.5462   -2.8213 H   0  0  0  0  0  0  0  0  0  0  0  0
    8.4926    0.6799   -1.2141 H   0  0  0  0  0  0  0  0  0  0  0  0
    5.5802    2.9532    0.7712 H   0  0  0  0  0  0  0  0  0  0  0  0
  1  2  1  0
  2  3  1  0
  3  4  1  0
  4  5  2  0
  5  6  1  0
  6  7  1  0
  7  8  2  0
  7  9  1  0
  9 10  1  0
 10 11  1  0
 11 12  1  0
 12 13  2  0
 13 14  1  0
 14 15  2  0
 15 16  1  0
 16 17  2  0
 10 18  1  0
 18 19  1  0
 18 20  1  0
 20 21  1  0
 21 22  1  0
 22 23  1  0
 23 24  2  0
 24 25  1  0
 25 26  2  0
 26 27  1  0
 27 28  1  0
 26 29  1  0
 29 30  2  0
  6 31  2  0
 31 32  1  0
 32 33  1  0
 33 34  1  0
 34 35  1  0
 35 36  1  0
 36 37  1  0
 37 38  2  0
 32 39  2  0
 39  4  1  0
 17 12  1  0
 30 23  1  0
 37 33  1  0
  1 40  1  0
  1 41  1  0
  1 42  1  0
  2 43  1  0
  2 44  1  0
  3 45  1  0
  5 46  1  0
  9 47  1  0
 10 48  1  6
 11 49  1  0
 11 50  1  0
 13 51  1  0
 14 52  1  0
 15 53  1  0
 16 54  1  0
 17 55  1  0
 18 56  1  1
 19 57  1  0
 20 58  1  0
 20 59  1  0
 21 60  1  0
 22 61  1  0
 22 62  1  0
 24 63  1  0
 25 64  1  0
 28 65  1  0
 28 66  1  0
 28 67  1  0
 29 68  1  0
 30 69  1  0
 31 70  1  0
 34 71  1  0
 34 72  1  0
 35 73  1  0
 35 74  1  0
 36 75  1  0
 36 76  1  0
 39 77  1  0
M  END
$$$$
