
     RDKit          3D

110114  0  0  0  0  0  0  0  0999 V2000
    3.4239    4.8847    1.1620 C   0  0  0  0  0  0  0  0  0  0  0  0
    4.3301    3.7373    0.7143 C   0  0  0  0  0  0  0  0  0  0  0  0
    4.9947    2.9172    0.3871 C   0  0  0  0  0  0  0  0  0  0  0  0
    4.7643    2.0238   -0.7675 C   0  0  0  0  0  0  0  0  0  0  0  0
    5.5438    1.0266   -1.1243 C   0  0  0  0  0  0  0  0  0  0  0  0
    5.1325    0.1030   -2.1328 N   0  0  0  0  0  0  0  0  0  0  0  0
    3.7705   -0.2887   -2.0310 C   0  0  0  0  0  0  0  0  0  0  0  0
    2.8358   -0.0217   -1.1363 C   0  0  0  0  0  0  0  0  0  0  0  0
    1.5269   -0.3650   -1.0601 C   0  0  0  0  0  0  0  0  0  0  0  0
    0.7492    0.0660   -0.0051 O   0  0  0  0  0  0  0  0  0  0  0  0
   -0.6124    0.0046    0.0327 C   0  0  0  0  0  0  0  0  0  0  0  0
   -1.2887   -0.0117   -1.1964 C   0  0  0  0  0  0  0  0  0  0  0  0
   -2.6458   -0.1731   -1.1968 C   0  0  0  0  0  0  0  0  0  0  0  0
   -3.3986   -0.3200   -0.0488 C   0  0  0  0  0  0  0  0  0  0  0  0
   -4.7152   -0.7887   -0.1330 N   0  0  0  0  0  0  0  0  0  0  0  0
   -5.9342   -0.1761    0.1055 C   0  0  0  0  0  0  0  0  0  0  0  0
   -5.9137    1.0228    0.4964 O   0  0  0  0  0  0  0  0  0  0  0  0
   -7.1282   -0.8996   -0.0800 N   0  0  0  0  0  0  0  0  0  0  0  0
   -8.4271   -0.4580    0.1462 C   0  0  0  0  0  0  0  0  0  0  0  0
   -9.3567   -1.4269    0.6142 C   0  0  0  0  0  0  0  0  0  0  0  0
  -10.6612   -1.1259    0.8539 C   0  0  0  0  0  0  0  0  0  0  0  0
  -11.5085   -2.2193    1.3127 C   0  0  0  0  0  0  0  0  0  0  0  0
  -11.9539   -3.0724    0.0684 C   0  0  0  0  0  0  0  0  0  0  0  0
  -12.7787   -1.8091    1.9806 C   0  0  0  0  0  0  0  0  0  0  0  0
  -10.7502   -3.1861    2.1861 C   0  0  0  0  0  0  0  0  0  0  0  0
  -11.0426    0.1799    0.6254 C   0  0  0  0  0  0  0  0  0  0  0  0
  -10.1959    1.1646    0.1703 C   0  0  0  0  0  0  0  0  0  0  0  0
  -10.5265    2.5239    0.0353 N   0  0  0  0  0  0  0  0  0  0  0  0
  -11.7317    3.1771   -0.9984 S   0  0  0  0  0  6  0  0  0  0  0  0
  -10.9887    4.1966   -2.2391 C   0  0  0  0  0  0  0  0  0  0  0  0
  -12.5658    2.1109   -1.6512 O   0  0  0  0  0  0  0  0  0  0  0  0
  -12.6663    4.0165   -0.1383 O   0  0  0  0  0  0  0  0  0  0  0  0
   -8.8282    0.8330   -0.0872 C   0  0  0  0  0  0  0  0  0  0  0  0
   -8.0121    1.8097   -0.5800 O   0  0  0  0  0  0  0  0  0  0  0  0
   -7.9031    1.9910   -2.0370 C   0  0  0  0  0  0  0  0  0  0  0  0
   -2.7392   -0.2653    1.1897 C   0  0  0  0  0  0  0  0  0  0  0  0
   -3.4653   -0.3047    2.3590 C   0  0  0  0  0  0  0  0  0  0  0  0
   -2.7584   -0.1568    3.5646 C   0  0  0  0  0  0  0  0  0  0  0  0
   -1.3973    0.0110    3.5542 C   0  0  0  0  0  0  0  0  0  0  0  0
   -0.7077    0.0365    2.3813 C   0  0  0  0  0  0  0  0  0  0  0  0
   -1.3841   -0.1038    1.1481 C   0  0  0  0  0  0  0  0  0  0  0  0
    1.0712   -1.1523   -2.0977 C   0  0  0  0  0  0  0  0  0  0  0  0
    1.9903   -1.4860   -3.0903 C   0  0  0  0  0  0  0  0  0  0  0  0
    3.2722   -1.1032   -3.1009 N   0  0  0  0  0  0  0  0  0  0  0  0
    6.6824    0.7382   -0.4330 C   0  0  0  0  0  0  0  0  0  0  0  0
    7.0256    1.5180    0.6913 C   0  0  0  0  0  0  0  0  0  0  0  0
    8.2175    1.1801    1.4119 C   0  0  0  0  0  0  0  0  0  0  0  0
    8.4784    1.8371    2.4956 O   0  0  0  0  0  0  0  0  0  0  0  0
    9.1640    0.2082    1.0598 N   0  0  0  0  0  0  0  0  0  0  0  0
   10.3826   -0.1174    1.7896 C   0  0  0  0  0  0  0  0  0  0  0  0
   11.1619   -1.1155    0.9068 C   0  0  0  0  0  0  0  0  0  0  0  0
   10.4143   -2.2618    0.7200 O   0  0  0  0  0  0  0  0  0  0  0  0
   10.8915   -3.0153   -0.3357 C   0  0  0  0  0  0  0  0  0  0  0  0
   12.4034   -3.1690   -0.2219 C   0  0  0  0  0  0  0  0  0  0  0  0
   13.0195   -2.0164   -0.2280 O   0  0  0  0  0  0  0  0  0  0  0  0
   14.2438   -1.5947   -0.2571 C   0  0  0  0  0  0  0  0  0  0  0  0
   14.2536   -0.0413   -0.0873 C   0  0  0  0  0  0  0  0  0  0  0  0
   13.4886    0.4441   -1.1677 O   0  0  0  0  0  0  0  0  0  0  0  0
   13.2665    1.8360   -0.9032 C   0  0  0  0  0  0  0  0  0  0  0  0
    6.2384    2.5361    1.0790 C   0  0  0  0  0  0  0  0  0  0  0  0
    2.7722    5.7234    1.4747 H   0  0  0  0  0  0  0  0  0  0  0  0
    3.9116    2.3551   -1.3348 H   0  0  0  0  0  0  0  0  0  0  0  0
    5.7336   -0.2453   -2.8994 H   0  0  0  0  0  0  0  0  0  0  0  0
    3.2025    0.5375   -0.2112 H   0  0  0  0  0  0  0  0  0  0  0  0
   -0.7550    0.1875   -2.1077 H   0  0  0  0  0  0  0  0  0  0  0  0
   -3.0972   -0.1669   -2.1934 H   0  0  0  0  0  0  0  0  0  0  0  0
   -4.7568   -1.8593   -0.4659 H   0  0  0  0  0  0  0  0  0  0  0  0
   -7.0414   -1.9095   -0.4574 H   0  0  0  0  0  0  0  0  0  0  0  0
   -8.9544   -2.4366    0.7572 H   0  0  0  0  0  0  0  0  0  0  0  0
  -12.9362   -2.7501   -0.2710 H   0  0  0  0  0  0  0  0  0  0  0  0
  -11.9703   -4.1242    0.3603 H   0  0  0  0  0  0  0  0  0  0  0  0
  -11.1356   -2.9639   -0.6794 H   0  0  0  0  0  0  0  0  0  0  0  0
  -12.5428   -1.3294    2.9495 H   0  0  0  0  0  0  0  0  0  0  0  0
  -13.4646   -1.2164    1.3758 H   0  0  0  0  0  0  0  0  0  0  0  0
  -13.3488   -2.7713    2.1713 H   0  0  0  0  0  0  0  0  0  0  0  0
  -10.0516   -3.8338    1.5972 H   0  0  0  0  0  0  0  0  0  0  0  0
  -10.1031   -2.5724    2.8202 H   0  0  0  0  0  0  0  0  0  0  0  0
  -11.4623   -3.8008    2.7673 H   0  0  0  0  0  0  0  0  0  0  0  0
  -12.0468    0.4404    0.7963 H   0  0  0  0  0  0  0  0  0  0  0  0
  -10.0075    3.2593    0.6059 H   0  0  0  0  0  0  0  0  0  0  0  0
  -10.9023    3.5794   -3.1604 H   0  0  0  0  0  0  0  0  0  0  0  0
   -9.9576    4.5972   -1.9481 H   0  0  0  0  0  0  0  0  0  0  0  0
  -11.6129    5.1307   -2.3872 H   0  0  0  0  0  0  0  0  0  0  0  0
   -7.3595    2.9592   -2.1059 H   0  0  0  0  0  0  0  0  0  0  0  0
   -7.3869    1.1420   -2.4543 H   0  0  0  0  0  0  0  0  0  0  0  0
   -8.9625    2.1244   -2.4600 H   0  0  0  0  0  0  0  0  0  0  0  0
   -4.5438   -0.4600    2.3472 H   0  0  0  0  0  0  0  0  0  0  0  0
   -3.2853   -0.1617    4.5218 H   0  0  0  0  0  0  0  0  0  0  0  0
   -0.8462    0.1160    4.5107 H   0  0  0  0  0  0  0  0  0  0  0  0
    0.3875    0.1446    2.3934 H   0  0  0  0  0  0  0  0  0  0  0  0
    0.0787   -1.5892   -2.1466 H   0  0  0  0  0  0  0  0  0  0  0  0
    1.5984   -2.1119   -3.9545 H   0  0  0  0  0  0  0  0  0  0  0  0
    7.2816   -0.0794   -0.7652 H   0  0  0  0  0  0  0  0  0  0  0  0
    8.9856   -0.3404    0.1538 H   0  0  0  0  0  0  0  0  0  0  0  0
   10.1888   -0.5108    2.7805 H   0  0  0  0  0  0  0  0  0  0  0  0
   11.0723    0.7849    1.8346 H   0  0  0  0  0  0  0  0  0  0  0  0
   12.0686   -1.2709    1.4887 H   0  0  0  0  0  0  0  0  0  0  0  0
   11.3714   -0.5499   -0.0104 H   0  0  0  0  0  0  0  0  0  0  0  0
   10.3697   -4.0206   -0.3359 H   0  0  0  0  0  0  0  0  0  0  0  0
   10.6700   -2.5714   -1.3556 H   0  0  0  0  0  0  0  0  0  0  0  0
   12.5335   -3.6908    0.7853 H   0  0  0  0  0  0  0  0  0  0  0  0
   12.8146   -3.9059   -0.9608 H   0  0  0  0  0  0  0  0  0  0  0  0
   14.7202   -1.7970   -1.2573 H   0  0  0  0  0  0  0  0  0  0  0  0
   14.9053   -1.9887    0.5456 H   0  0  0  0  0  0  0  0  0  0  0  0
   13.7242    0.2248    0.8289 H   0  0  0  0  0  0  0  0  0  0  0  0
   15.2631    0.3628   -0.1863 H   0  0  0  0  0  0  0  0  0  0  0  0
   14.2343    2.3505   -0.8293 H   0  0  0  0  0  0  0  0  0  0  0  0
   12.7497    1.8370    0.1111 H   0  0  0  0  0  0  0  0  0  0  0  0
   12.6466    2.1546   -1.7317 H   0  0  0  0  0  0  0  0  0  0  0  0
    6.4956    3.1291    1.9413 H   0  0  0  0  0  0  0  0  0  0  0  0
  1  2  3  0
  2  3  1  0
  3  4  2  0
  4  5  1  0
  5  6  1  0
  6  7  1  0
  7  8  2  0
  8  9  1  0
  9 10  1  0
 10 11  1  0
 11 12  2  0
 12 13  1  0
 13 14  2  0
 14 15  1  0
 15 16  1  0
 16 17  2  0
 16 18  1  0
 18 19  1  0
 19 20  2  0
 20 21  1  0
 21 22  1  0
 22 23  1  0
 22 24  1  0
 22 25  1  0
 21 26  2  0
 26 27  1  0
 27 28  1  0
 28 29  1  0
 29 30  1  0
 29 31  2  0
 29 32  2  0
 27 33  2  0
 33 34  1  0
 34 35  1  0
 14 36  1  0
 36 37  2  0
 37 38  1  0
 38 39  2  0
 39 40  1  0
 40 41  2  0
  9 42  2  0
 42 43  1  0
 43 44  2  0
  5 45  2  0
 45 46  1  0
 46 47  1  0
 47 48  2  0
 47 49  1  0
 49 50  1  0
 50 51  1  0
 51 52  1  0
 52 53  1  0
 53 54  1  0
 54 55  1  0
 55 56  1  0
 56 57  1  0
 57 58  1  0
 58 59  1  0
 46 60  2  0
 60  3  1  0
 44  7  1  0
 41 11  1  0
 33 19  1  0
 41 36  1  0
  1 61  1  0
  4 62  1  0
  6 63  1  0
  8 64  1  0
 12 65  1  0
 13 66  1  0
 15 67  1  0
 18 68  1  0
 20 69  1  0
 23 70  1  0
 23 71  1  0
 23 72  1  0
 24 73  1  0
 24 74  1  0
 24 75  1  0
 25 76  1  0
 25 77  1  0
 25 78  1  0
 26 79  1  0
 28 80  1  0
 30 81  1  0
 30 82  1  0
 30 83  1  0
 35 84  1  0
 35 85  1  0
 35 86  1  0
 37 87  1  0
 38 88  1  0
 39 89  1  0
 40 90  1  0
 42 91  1  0
 43 92  1  0
 45 93  1  0
 49 94  1  0
 50 95  1  0
 50 96  1  0
 51 97  1  0
 51 98  1  0
 53 99  1  0
 53100  1  0
 54101  1  0
 54102  1  0
 56103  1  0
 56104  1  0
 57105  1  0
 57106  1  0
 59107  1  0
 59108  1  0
 59109  1  0
 60110  1  0
M  END
$$$$
