
     RDKit          3D

 81 86  0  0  0  0  0  0  0  0999 V2000
    3.4911    0.9378    1.8830 C   0  0  0  0  0  0  0  0  0  0  0  0
    3.7614    1.5005    0.5495 C   0  0  0  0  0  0  0  0  0  0  0  0
    4.9454    1.1866    0.0018 N   0  0  0  0  0  0  0  0  0  0  0  0
    5.3970    1.6142   -1.1825 C   0  0  0  0  0  0  0  0  0  0  0  0
    6.5833    1.3212   -1.7697 O   0  0  0  0  0  0  0  0  0  0  0  0
    7.5741    0.5286   -1.2653 C   0  0  0  0  0  0  0  0  0  0  0  0
    8.7123    0.3197   -2.0609 C   0  0  0  0  0  0  0  0  0  0  0  0
    9.7687   -0.4483   -1.6735 C   0  0  0  0  0  0  0  0  0  0  0  0
    9.7527   -1.0619   -0.4535 C   0  0  0  0  0  0  0  0  0  0  0  0
   10.8944   -1.8860   -0.0479 C   0  0  0  0  0  0  0  0  0  0  0  0
   10.8685   -2.4980    1.2272 N   0  0  0  0  0  0  0  0  0  0  0  0
   11.8763   -2.0478   -0.8127 O   0  0  0  0  0  0  0  0  0  0  0  0
    8.6657   -0.8849    0.3507 C   0  0  0  0  0  0  0  0  0  0  0  0
    7.5806   -0.0990   -0.0414 C   0  0  0  0  0  0  0  0  0  0  0  0
    4.5188    2.4685   -1.8829 C   0  0  0  0  0  0  0  0  0  0  0  0
    3.3122    2.8128   -1.3692 C   0  0  0  0  0  0  0  0  0  0  0  0
    2.9078    2.3293   -0.1316 C   0  0  0  0  0  0  0  0  0  0  0  0
    1.5678    2.6884    0.3959 C   0  0  0  0  0  0  0  0  0  0  0  0
    0.5314    1.7547    0.1511 N   0  0  0  0  0  0  0  0  0  0  0  0
    0.6245    0.4435    0.6607 C   0  0  0  0  0  0  0  0  0  0  0  0
   -0.6929   -0.3347    0.3799 C   0  0  0  0  0  0  0  0  0  0  0  0
   -1.6735    0.1636    1.3903 C   0  0  0  0  0  0  0  0  0  0  0  0
   -3.0543   -0.1168    1.0960 N   0  0  0  0  0  0  0  0  0  0  0  0
   -3.8618    0.2353   -0.0162 C   0  0  0  0  0  0  0  0  0  0  0  0
   -3.3915    0.4672   -1.1536 O   0  0  0  0  0  0  0  0  0  0  0  0
   -5.2297    0.2775    0.3697 N   0  0  0  0  0  0  0  0  0  0  0  0
   -6.4165    0.4748   -0.3972 C   0  0  0  0  0  0  0  0  0  0  0  0
   -6.7379   -0.6112   -1.3879 C   0  0  0  0  0  0  0  0  0  0  0  0
   -5.9791   -0.5024   -2.6610 C   0  0  0  0  0  0  0  0  0  0  0  0
   -5.7495    0.7756   -3.1118 O   0  0  0  0  0  0  0  0  0  0  0  0
   -6.6400    1.7061   -2.5883 C   0  0  0  0  0  0  0  0  0  0  0  0
   -6.4935    1.8097   -1.0724 C   0  0  0  0  0  0  0  0  0  0  0  0
   -5.1862    0.0707    1.8262 C   0  0  0  0  0  0  0  0  0  0  0  0
   -3.9902   -0.8594    1.9717 C   0  0  1  0  0  0  0  0  0  0  0  0
   -4.3367   -2.1771    1.4475 C   0  0  0  0  0  0  0  0  0  0  0  0
   -5.6006   -2.6847    1.5986 C   0  0  0  0  0  0  0  0  0  0  0  0
   -5.9840   -3.9404    1.1058 C   0  0  0  0  0  0  0  0  0  0  0  0
   -5.0716   -4.7191    0.4374 C   0  0  0  0  0  0  0  0  0  0  0  0
   -3.8066   -4.2168    0.2837 C   0  0  0  0  0  0  0  0  0  0  0  0
   -3.4386   -2.9848    0.7696 C   0  0  0  0  0  0  0  0  0  0  0  0
   -1.4341    1.6496    1.5938 C   0  0  0  0  0  0  0  0  0  0  0  0
   -0.7945    2.3081    0.4042 C   0  0  0  0  0  0  0  0  0  0  0  0
    2.8083    1.6199    2.4199 H   0  0  0  0  0  0  0  0  0  0  0  0
    4.4412    0.9435    2.4977 H   0  0  0  0  0  0  0  0  0  0  0  0
    3.1806   -0.1234    1.8840 H   0  0  0  0  0  0  0  0  0  0  0  0
    8.7353    0.8001   -3.0274 H   0  0  0  0  0  0  0  0  0  0  0  0
   10.6349   -0.5741   -2.3455 H   0  0  0  0  0  0  0  0  0  0  0  0
   11.3942   -2.0724    2.0130 H   0  0  0  0  0  0  0  0  0  0  0  0
   10.3256   -3.3687    1.3757 H   0  0  0  0  0  0  0  0  0  0  0  0
    8.6424   -1.3708    1.3284 H   0  0  0  0  0  0  0  0  0  0  0  0
    6.7493    0.0055    0.6368 H   0  0  0  0  0  0  0  0  0  0  0  0
    4.8722    2.8274   -2.8513 H   0  0  0  0  0  0  0  0  0  0  0  0
    2.6426    3.4704   -1.9146 H   0  0  0  0  0  0  0  0  0  0  0  0
    1.2658    3.6454   -0.1169 H   0  0  0  0  0  0  0  0  0  0  0  0
    1.6402    2.9748    1.4825 H   0  0  0  0  0  0  0  0  0  0  0  0
    0.7275    0.3971    1.7691 H   0  0  0  0  0  0  0  0  0  0  0  0
    1.4479   -0.1464    0.2251 H   0  0  0  0  0  0  0  0  0  0  0  0
   -1.0099   -0.1569   -0.6652 H   0  0  0  0  0  0  0  0  0  0  0  0
   -0.4161   -1.4025    0.4782 H   0  0  0  0  0  0  0  0  0  0  0  0
   -1.4004   -0.3009    2.3737 H   0  0  0  0  0  0  0  0  0  0  0  0
   -7.3174    0.4532    0.3139 H   0  0  0  0  0  0  0  0  0  0  0  0
   -6.4644   -1.5965   -0.9160 H   0  0  0  0  0  0  0  0  0  0  0  0
   -7.8454   -0.5775   -1.5717 H   0  0  0  0  0  0  0  0  0  0  0  0
   -6.5854   -1.0965   -3.4255 H   0  0  0  0  0  0  0  0  0  0  0  0
   -5.0505   -1.1304   -2.5738 H   0  0  0  0  0  0  0  0  0  0  0  0
   -7.6827    1.5358   -2.8830 H   0  0  0  0  0  0  0  0  0  0  0  0
   -6.3413    2.6985   -2.9930 H   0  0  0  0  0  0  0  0  0  0  0  0
   -7.3561    2.4262   -0.7415 H   0  0  0  0  0  0  0  0  0  0  0  0
   -5.5920    2.4509   -0.8357 H   0  0  0  0  0  0  0  0  0  0  0  0
   -6.1074   -0.2642    2.2589 H   0  0  0  0  0  0  0  0  0  0  0  0
   -4.8440    1.0523    2.2886 H   0  0  0  0  0  0  0  0  0  0  0  0
   -3.5918   -0.8865    2.9983 H   0  0  0  0  0  0  0  0  0  0  0  0
   -6.3847   -2.1578    2.1133 H   0  0  0  0  0  0  0  0  0  0  0  0
   -6.9890   -4.3075    1.2441 H   0  0  0  0  0  0  0  0  0  0  0  0
   -5.3736   -5.6953    0.0558 H   0  0  0  0  0  0  0  0  0  0  0  0
   -3.0919   -4.8562   -0.2541 H   0  0  0  0  0  0  0  0  0  0  0  0
   -2.4473   -2.6076    0.6424 H   0  0  0  0  0  0  0  0  0  0  0  0
   -0.8936    1.8887    2.5094 H   0  0  0  0  0  0  0  0  0  0  0  0
   -2.4536    2.1202    1.6987 H   0  0  0  0  0  0  0  0  0  0  0  0
   -1.3934    2.2351   -0.5104 H   0  0  0  0  0  0  0  0  0  0  0  0
   -0.6470    3.3765    0.6641 H   0  0  0  0  0  0  0  0  0  0  0  0
  1  2  1  0
  2  3  2  0
  3  4  1  0
  4  5  1  0
  5  6  1  0
  6  7  2  0
  7  8  1  0
  8  9  2  0
  9 10  1  0
 10 11  1  0
 10 12  2  0
  9 13  1  0
 13 14  2  0
  4 15  2  0
 15 16  1  0
 16 17  2  0
 17 18  1  0
 18 19  1  0
 19 20  1  0
 20 21  1  0
 21 22  1  0
 22 23  1  0
 23 24  1  0
 24 25  2  0
 24 26  1  0
 26 27  1  0
 27 28  1  0
 28 29  1  0
 29 30  1  0
 30 31  1  0
 31 32  1  0
 26 33  1  0
 33 34  1  0
 34 35  1  0
 35 36  2  0
 36 37  1  0
 37 38  2  0
 38 39  1  0
 39 40  2  0
 22 41  1  0
 41 42  1  0
 17  2  1  0
 42 19  1  0
 14  6  1  0
 34 23  1  0
 40 35  1  0
 32 27  1  0
  1 43  1  0
  1 44  1  0
  1 45  1  0
  7 46  1  0
  8 47  1  0
 11 48  1  0
 11 49  1  0
 13 50  1  0
 14 51  1  0
 15 52  1  0
 16 53  1  0
 18 54  1  0
 18 55  1  0
 20 56  1  0
 20 57  1  0
 21 58  1  0
 21 59  1  0
 22 60  1  0
 27 61  1  0
 28 62  1  0
 28 63  1  0
 29 64  1  0
 29 65  1  0
 31 66  1  0
 31 67  1  0
 32 68  1  0
 32 69  1  0
 33 70  1  0
 33 71  1  0
 34 72  1  1
 36 73  1  0
 37 74  1  0
 38 75  1  0
 39 76  1  0
 40 77  1  0
 41 78  1  0
 41 79  1  0
 42 80  1  0
 42 81  1  0
M  END
$$$$
