
     RDKit          3D

 55 58  0  0  0  0  0  0  0  0999 V2000
    3.9772    2.0019    0.4341 C   0  0  0  0  0  0  0  0  0  0  0  0
    3.3301    0.7564    0.3830 O   0  0  0  0  0  0  0  0  0  0  0  0
    3.9793   -0.4525    0.3897 C   0  0  0  0  0  0  0  0  0  0  0  0
    5.3835   -0.3942    0.4519 C   0  0  0  0  0  0  0  0  0  0  0  0
    6.0784   -1.5523    0.4617 C   0  0  0  0  0  0  0  0  0  0  0  0
    5.4196   -2.7602    0.4115 C   0  0  0  0  0  0  0  0  0  0  0  0
    4.0551   -2.8351    0.3506 C   0  0  0  0  0  0  0  0  0  0  0  0
    3.2992   -1.6389    0.3388 C   0  0  0  0  0  0  0  0  0  0  0  0
    1.8479   -1.7375    0.2718 C   0  0  0  0  0  0  0  0  0  0  0  0
    1.3677   -2.9255    0.2324 O   0  0  0  0  0  0  0  0  0  0  0  0
    0.9172   -0.7004    0.2455 N   0  0  0  0  0  0  0  0  0  0  0  0
   -0.5007   -0.8026    0.1864 C   0  0  0  0  0  0  0  0  0  0  0  0
   -1.1425   -2.0052    0.2907 C   0  0  0  0  0  0  0  0  0  0  0  0
   -2.5423   -2.0280    0.2174 C   0  0  0  0  0  0  0  0  0  0  0  0
   -3.2309   -0.8463    0.0436 C   0  0  0  0  0  0  0  0  0  0  0  0
   -2.5873    0.3636   -0.0614 C   0  0  0  0  0  0  0  0  0  0  0  0
   -1.2100    0.3917    0.0095 C   0  0  0  0  0  0  0  0  0  0  0  0
   -0.5073    1.6330   -0.1177 N   0  0  0  0  0  0  0  0  0  0  0  0
    0.3756    1.9598   -1.2157 C   0  0  0  0  0  0  0  0  0  0  0  0
   -0.2906    3.0494   -2.0549 C   0  0  0  0  0  0  0  0  0  0  0  0
   -1.1730    3.9104   -1.1582 C   0  0  0  0  0  0  0  0  0  0  0  0
   -0.5788    4.0335    0.2288 C   0  0  0  0  0  0  0  0  0  0  0  0
   -0.6736    2.6659    0.8927 C   0  0  0  0  0  0  0  0  0  0  0  0
   -4.5458   -1.2122    0.0146 N   0  0  0  0  0  0  0  0  0  0  0  0
   -5.6145   -0.2403   -0.1555 C   0  0  0  0  0  0  0  0  0  0  0  0
   -4.6268   -2.5378    0.1632 C   0  0  0  0  0  0  0  0  0  0  0  0
   -5.6986   -3.1973    0.1812 O   0  0  0  0  0  0  0  0  0  0  0  0
   -3.4040   -3.0800    0.2920 N   0  0  0  0  0  0  0  0  0  0  0  0
   -3.0691   -4.4790    0.4716 C   0  0  0  0  0  0  0  0  0  0  0  0
    3.2282    2.8128    0.6060 H   0  0  0  0  0  0  0  0  0  0  0  0
    4.7244    2.0359    1.2712 H   0  0  0  0  0  0  0  0  0  0  0  0
    4.4619    2.2310   -0.5346 H   0  0  0  0  0  0  0  0  0  0  0  0
    5.8741    0.5487    0.4898 H   0  0  0  0  0  0  0  0  0  0  0  0
    7.1715   -1.6154    0.5083 H   0  0  0  0  0  0  0  0  0  0  0  0
    5.9641   -3.6998    0.4186 H   0  0  0  0  0  0  0  0  0  0  0  0
    3.5226   -3.7881    0.3105 H   0  0  0  0  0  0  0  0  0  0  0  0
    1.3249    0.2773    0.2854 H   0  0  0  0  0  0  0  0  0  0  0  0
   -0.6745   -2.9636    0.4354 H   0  0  0  0  0  0  0  0  0  0  0  0
   -3.1897    1.2464   -0.1958 H   0  0  0  0  0  0  0  0  0  0  0  0
    1.3167    2.3731   -0.7692 H   0  0  0  0  0  0  0  0  0  0  0  0
    0.5062    1.0790   -1.8396 H   0  0  0  0  0  0  0  0  0  0  0  0
    0.5052    3.6351   -2.5229 H   0  0  0  0  0  0  0  0  0  0  0  0
   -0.8852    2.5544   -2.8298 H   0  0  0  0  0  0  0  0  0  0  0  0
   -1.2841    4.8903   -1.6613 H   0  0  0  0  0  0  0  0  0  0  0  0
   -2.1721    3.4362   -1.1235 H   0  0  0  0  0  0  0  0  0  0  0  0
    0.4687    4.3525    0.1782 H   0  0  0  0  0  0  0  0  0  0  0  0
   -1.1747    4.7311    0.8302 H   0  0  0  0  0  0  0  0  0  0  0  0
    0.0853    2.6050    1.6940 H   0  0  0  0  0  0  0  0  0  0  0  0
   -1.6904    2.6022    1.3596 H   0  0  0  0  0  0  0  0  0  0  0  0
   -6.5224   -0.6849    0.3007 H   0  0  0  0  0  0  0  0  0  0  0  0
   -5.8474   -0.0906   -1.2426 H   0  0  0  0  0  0  0  0  0  0  0  0
   -5.3863    0.7403    0.2567 H   0  0  0  0  0  0  0  0  0  0  0  0
   -2.1678   -4.6292    1.0915 H   0  0  0  0  0  0  0  0  0  0  0  0
   -3.9013   -5.0207    0.9717 H   0  0  0  0  0  0  0  0  0  0  0  0
   -2.8930   -4.9993   -0.4880 H   0  0  0  0  0  0  0  0  0  0  0  0
  1  2  1  0
  2  3  1  0
  3  4  2  0
  4  5  1  0
  5  6  2  0
  6  7  1  0
  7  8  2  0
  8  9  1  0
  9 10  2  0
  9 11  1  0
 11 12  1  0
 12 13  2  0
 13 14  1  0
 14 15  2  0
 15 16  1  0
 16 17  2  0
 17 18  1  0
 18 19  1  0
 19 20  1  0
 20 21  1  0
 21 22  1  0
 22 23  1  0
 15 24  1  0
 24 25  1  0
 24 26  1  0
 26 27  2  0
 26 28  1  0
 28 29  1  0
  8  3  1  0
 17 12  1  0
 23 18  1  0
 28 14  1  0
  1 30  1  0
  1 31  1  0
  1 32  1  0
  4 33  1  0
  5 34  1  0
  6 35  1  0
  7 36  1  0
 11 37  1  0
 13 38  1  0
 16 39  1  0
 19 40  1  0
 19 41  1  0
 20 42  1  0
 20 43  1  0
 21 44  1  0
 21 45  1  0
 22 46  1  0
 22 47  1  0
 23 48  1  0
 23 49  1  0
 25 50  1  0
 25 51  1  0
 25 52  1  0
 29 53  1  0
 29 54  1  0
 29 55  1  0
M  END
$$$$
