
     RDKit          3D

 33 35  0  0  0  0  0  0  0  0999 V2000
   -4.0134    3.0918   -1.4277 Cl  0  0  0  0  0  0  0  0  0  0  0  0
   -3.9116    1.5342   -0.6338 C   0  0  0  0  0  0  0  0  0  0  0  0
   -4.6182    1.2938    0.5006 C   0  0  0  0  0  0  0  0  0  0  0  0
   -4.5082    0.0541    1.0918 C   0  0  0  0  0  0  0  0  0  0  0  0
   -3.6874   -0.8726    0.4995 C   0  0  0  0  0  0  0  0  0  0  0  0
   -2.9387   -0.6702   -0.6704 C   0  0  0  0  0  0  0  0  0  0  0  0
   -2.1365   -1.8277   -1.1258 C   0  0  0  0  0  0  0  0  0  0  0  0
   -0.9229   -1.8626   -0.4976 O   0  0  0  0  0  0  0  0  0  0  0  0
    0.1424   -1.0541   -0.4217 C   0  0  0  0  0  0  0  0  0  0  0  0
    0.5085    0.1580   -0.9311 C   0  0  0  0  0  0  0  0  0  0  0  0
    1.6992    0.8032   -0.6966 C   0  0  0  0  0  0  0  0  0  0  0  0
    2.6053    0.1738    0.1242 C   0  0  0  0  0  0  0  0  0  0  0  0
    2.3297   -1.0529    0.6876 C   0  0  0  0  0  0  0  0  0  0  0  0
    3.2668   -1.5563    1.4518 O   0  0  0  0  0  0  0  0  0  0  0  0
    4.3989   -0.9716    1.6912 C   0  0  0  0  0  0  0  0  0  0  0  0
    5.2576   -1.5235    2.4434 O   0  0  0  0  0  0  0  0  0  0  0  0
    4.7460    0.2720    1.1543 C   0  0  0  0  0  0  0  0  0  0  0  0
    3.7906    0.8435    0.3417 C   0  0  0  0  0  0  0  0  0  0  0  0
    4.1349    2.1349   -0.2239 C   0  0  0  0  0  0  0  0  0  0  0  0
    5.1986    2.7405   -0.0313 O   0  0  0  0  0  0  0  0  0  0  0  0
    1.0983   -1.6596    0.4106 C   0  0  0  0  0  0  0  0  0  0  0  0
   -3.0939    0.5881   -1.2103 C   0  0  0  0  0  0  0  0  0  0  0  0
   -5.2582    2.0251    0.9573 H   0  0  0  0  0  0  0  0  0  0  0  0
   -5.0545   -0.1497    1.9792 H   0  0  0  0  0  0  0  0  0  0  0  0
   -3.6453   -1.8407    1.0226 H   0  0  0  0  0  0  0  0  0  0  0  0
   -2.7149   -2.7678   -0.8611 H   0  0  0  0  0  0  0  0  0  0  0  0
   -2.0890   -1.8814   -2.2408 H   0  0  0  0  0  0  0  0  0  0  0  0
   -0.2375    0.5757   -1.5551 H   0  0  0  0  0  0  0  0  0  0  0  0
    1.8494    1.7615   -1.1699 H   0  0  0  0  0  0  0  0  0  0  0  0
    5.6944    0.7376    1.3686 H   0  0  0  0  0  0  0  0  0  0  0  0
    3.5832    2.7919   -0.8806 H   0  0  0  0  0  0  0  0  0  0  0  0
    1.0481   -2.6259    0.9391 H   0  0  0  0  0  0  0  0  0  0  0  0
   -2.5218    0.7369   -2.1148 H   0  0  0  0  0  0  0  0  0  0  0  0
  1  2  1  0
  2  3  2  0
  3  4  1  0
  4  5  2  0
  5  6  1  0
  6  7  1  0
  7  8  1  0
  8  9  1  0
  9 10  2  0
 10 11  1  0
 11 12  2  0
 12 13  1  0
 13 14  1  0
 14 15  1  0
 15 16  2  0
 15 17  1  0
 17 18  2  0
 18 19  1  0
 19 20  2  0
 13 21  2  0
  6 22  2  0
 22  2  1  0
 21  9  1  0
 18 12  1  0
  3 23  1  0
  4 24  1  0
  5 25  1  0
  7 26  1  0
  7 27  1  0
 10 28  1  0
 11 29  1  0
 17 30  1  0
 19 31  1  0
 21 32  1  0
 22 33  1  0
M  END
$$$$
