
     RDKit          3D

 47 50  0  0  0  0  0  0  0  0999 V2000
   -6.4413   -1.7325    1.0331 O   0  0  0  0  0  0  0  0  0  0  0  0
   -5.2491   -1.4440    0.6758 C   0  0  0  0  0  0  0  0  0  0  0  0
   -4.2356   -1.8642    1.4439 N   0  0  0  0  0  0  0  0  0  0  0  0
   -2.9563   -1.5452    1.0478 C   0  0  0  0  0  0  0  0  0  0  0  0
   -1.8157   -2.1116    2.0988 S   0  0  0  0  0  0  0  0  0  0  0  0
   -2.6705   -0.8541   -0.0375 N   0  0  0  0  0  0  0  0  0  0  0  0
   -1.3493   -0.5557   -0.4957 C   0  0  0  0  0  0  0  0  0  0  0  0
   -0.6591    0.5699    0.1405 C   0  0  0  0  0  0  0  0  0  0  0  0
   -1.2684    1.8289    0.0765 C   0  0  0  0  0  0  0  0  0  0  0  0
   -0.7229    2.8676    0.7980 C   0  0  0  0  0  0  0  0  0  0  0  0
    0.4080    2.7208    1.5894 C   0  0  0  0  0  0  0  0  0  0  0  0
    0.9773    1.4709    1.6234 C   0  0  0  0  0  0  0  0  0  0  0  0
    0.4644    0.3783    0.9057 C   0  0  0  0  0  0  0  0  0  0  0  0
    1.2046   -0.8855    0.8739 C   0  0  0  0  0  0  0  0  0  0  0  0
    2.0328   -0.9861   -0.3336 N   0  0  0  0  0  0  0  0  0  0  0  0
    3.0931    0.0253   -0.3476 C   0  0  0  0  0  0  0  0  0  0  0  0
    3.7932   -0.0666   -1.6480 C   0  0  0  0  0  0  0  0  0  0  0  0
    5.2477   -0.2280   -1.3773 C   0  0  0  0  0  0  0  0  0  0  0  0
    5.4435    0.0736    0.0934 C   0  0  0  0  0  0  0  0  0  0  0  0
    4.1023   -0.2172    0.7106 C   0  0  0  0  0  0  0  0  0  0  0  0
   -3.7116   -0.4230   -0.8272 C   0  0  0  0  0  0  0  0  0  0  0  0
   -3.7343    0.3015   -2.0297 C   0  0  0  0  0  0  0  0  0  0  0  0
   -5.0673    0.4150   -2.3510 C   0  0  0  0  0  0  0  0  0  0  0  0
   -5.8125   -0.1968   -1.4134 N   0  0  0  0  0  0  0  0  0  0  0  0
   -4.9856   -0.7227   -0.4610 C   0  0  0  0  0  0  0  0  0  0  0  0
   -4.3944   -2.4139    2.3144 H   0  0  0  0  0  0  0  0  0  0  0  0
   -1.3878   -0.3352   -1.5927 H   0  0  0  0  0  0  0  0  0  0  0  0
   -0.6885   -1.4876   -0.4627 H   0  0  0  0  0  0  0  0  0  0  0  0
   -2.1429    1.9861   -0.5214 H   0  0  0  0  0  0  0  0  0  0  0  0
   -1.1945    3.8404    0.7492 H   0  0  0  0  0  0  0  0  0  0  0  0
    0.8108    3.5587    2.1477 H   0  0  0  0  0  0  0  0  0  0  0  0
    1.8673    1.3042    2.2293 H   0  0  0  0  0  0  0  0  0  0  0  0
    1.9644   -0.8627    1.7161 H   0  0  0  0  0  0  0  0  0  0  0  0
    0.6606   -1.8132    1.0189 H   0  0  0  0  0  0  0  0  0  0  0  0
    2.5318   -1.9056   -0.2765 H   0  0  0  0  0  0  0  0  0  0  0  0
    2.6039    1.0121   -0.1681 H   0  0  0  0  0  0  0  0  0  0  0  0
    3.5632    0.8569   -2.2387 H   0  0  0  0  0  0  0  0  0  0  0  0
    3.4052   -0.9586   -2.2127 H   0  0  0  0  0  0  0  0  0  0  0  0
    5.8163    0.5246   -1.9629 H   0  0  0  0  0  0  0  0  0  0  0  0
    5.6209   -1.2625   -1.5552 H   0  0  0  0  0  0  0  0  0  0  0  0
    6.2474   -0.5545    0.5395 H   0  0  0  0  0  0  0  0  0  0  0  0
    5.7220    1.1374    0.2434 H   0  0  0  0  0  0  0  0  0  0  0  0
    4.0741   -1.2481    1.1278 H   0  0  0  0  0  0  0  0  0  0  0  0
    4.0048    0.4966    1.5676 H   0  0  0  0  0  0  0  0  0  0  0  0
   -2.8808    0.6649   -2.5446 H   0  0  0  0  0  0  0  0  0  0  0  0
   -5.4508    0.9259   -3.2361 H   0  0  0  0  0  0  0  0  0  0  0  0
   -6.8406   -0.2844   -1.3700 H   0  0  0  0  0  0  0  0  0  0  0  0
  1  2  2  0
  2  3  1  0
  3  4  1  0
  4  5  2  0
  4  6  1  0
  6  7  1  0
  7  8  1  0
  8  9  2  0
  9 10  1  0
 10 11  2  0
 11 12  1  0
 12 13  2  0
 13 14  1  0
 14 15  1  0
 15 16  1  0
 16 17  1  0
 17 18  1  0
 18 19  1  0
 19 20  1  0
  6 21  1  0
 21 22  1  0
 22 23  2  0
 23 24  1  0
 24 25  1  0
 25  2  1  0
 13  8  1  0
 20 16  1  0
 25 21  2  0
  3 26  1  0
  7 27  1  0
  7 28  1  0
  9 29  1  0
 10 30  1  0
 11 31  1  0
 12 32  1  0
 14 33  1  0
 14 34  1  0
 15 35  1  0
 16 36  1  0
 17 37  1  0
 17 38  1  0
 18 39  1  0
 18 40  1  0
 19 41  1  0
 19 42  1  0
 20 43  1  0
 20 44  1  0
 22 45  1  0
 23 46  1  0
 24 47  1  0
M  END
$$$$
