
     RDKit          3D

 45 48  0  0  0  0  0  0  0  0999 V2000
   -2.9831    3.8828    1.5725 N   0  0  0  0  0  0  0  0  0  0  0  0
   -1.6019    3.8412    1.8935 C   0  0  0  0  0  0  0  0  0  0  0  0
   -1.0926    4.7692    2.5246 O   0  0  0  0  0  0  0  0  0  0  0  0
   -0.7704    2.7036    1.4818 C   0  0  0  0  0  0  0  0  0  0  0  0
    0.5744    2.6455    1.7843 C   0  0  0  0  0  0  0  0  0  0  0  0
    1.2312    1.5624    1.3589 N   0  0  0  0  0  0  0  0  0  0  0  0
    0.7144    0.5477    0.6791 C   0  0  0  0  0  0  0  0  0  0  0  0
    1.5585   -0.5204    0.3084 N   0  0  0  0  0  0  0  0  0  0  0  0
    2.9540   -0.5014    0.6407 C   0  0  1  0  0  0  0  0  0  0  0  0
    3.5684   -1.8494    0.2449 C   0  0  0  0  0  0  0  0  0  0  0  0
    4.9812   -1.5569   -0.2155 C   0  0  0  0  0  0  0  0  0  0  0  0
    5.6007   -0.6164    0.7986 C   0  0  0  0  0  0  0  0  0  0  0  0
    5.0247    0.6980    0.6075 N   0  0  0  0  0  0  0  0  0  0  0  0
    3.7265    0.6134   -0.0569 C   0  0  0  0  0  0  0  0  0  0  0  0
   -0.6682    0.5409    0.3320 C   0  0  0  0  0  0  0  0  0  0  0  0
   -1.3435   -0.3833   -0.3378 C   0  0  0  0  0  0  0  0  0  0  0  0
   -2.6738   -0.2399   -0.5903 C   0  0  0  0  0  0  0  0  0  0  0  0
   -3.6731   -1.0231   -1.2637 C   0  0  0  0  0  0  0  0  0  0  0  0
   -4.9585   -0.5332   -1.3161 C   0  0  0  0  0  0  0  0  0  0  0  0
   -5.9487   -1.2579   -1.9555 C   0  0  0  0  0  0  0  0  0  0  0  0
   -5.6604   -2.4648   -2.5400 C   0  0  0  0  0  0  0  0  0  0  0  0
   -4.3694   -2.9441   -2.4805 C   0  0  0  0  0  0  0  0  0  0  0  0
   -3.3886   -2.2193   -1.8434 C   0  0  0  0  0  0  0  0  0  0  0  0
   -2.9870    1.3900    0.2175 S   0  0  0  0  0  0  0  0  0  0  0  0
   -1.3357    1.6461    0.7667 C   0  0  0  0  0  0  0  0  0  0  0  0
   -3.7217    3.6118    2.2271 H   0  0  0  0  0  0  0  0  0  0  0  0
   -3.2677    4.2078    0.6146 H   0  0  0  0  0  0  0  0  0  0  0  0
    1.0710    3.4278    2.3327 H   0  0  0  0  0  0  0  0  0  0  0  0
    1.1477   -1.3205   -0.2103 H   0  0  0  0  0  0  0  0  0  0  0  0
    3.0840   -0.3339    1.7280 H   0  0  0  0  0  0  0  0  0  0  0  0
    2.9575   -2.3462   -0.5300 H   0  0  0  0  0  0  0  0  0  0  0  0
    3.6493   -2.4754    1.1623 H   0  0  0  0  0  0  0  0  0  0  0  0
    5.0273   -1.1684   -1.2470 H   0  0  0  0  0  0  0  0  0  0  0  0
    5.5373   -2.5285   -0.2299 H   0  0  0  0  0  0  0  0  0  0  0  0
    5.4424   -1.0334    1.7947 H   0  0  0  0  0  0  0  0  0  0  0  0
    6.7072   -0.5847    0.5899 H   0  0  0  0  0  0  0  0  0  0  0  0
    4.8369    1.1221    1.5426 H   0  0  0  0  0  0  0  0  0  0  0  0
    3.8074    0.4629   -1.1373 H   0  0  0  0  0  0  0  0  0  0  0  0
    3.1895    1.5512    0.1198 H   0  0  0  0  0  0  0  0  0  0  0  0
   -0.8676   -1.3287   -0.7333 H   0  0  0  0  0  0  0  0  0  0  0  0
   -5.1900    0.4042   -0.8640 H   0  0  0  0  0  0  0  0  0  0  0  0
   -6.9787   -0.8946   -2.0134 H   0  0  0  0  0  0  0  0  0  0  0  0
   -6.4191   -3.0389   -3.0402 H   0  0  0  0  0  0  0  0  0  0  0  0
   -4.1292   -3.8903   -2.9352 H   0  0  0  0  0  0  0  0  0  0  0  0
   -2.3628   -2.5747   -1.7823 H   0  0  0  0  0  0  0  0  0  0  0  0
  1  2  1  0
  2  3  2  0
  2  4  1  0
  4  5  2  0
  5  6  1  0
  6  7  2  0
  7  8  1  0
  8  9  1  0
  9 10  1  0
 10 11  1  0
 11 12  1  0
 12 13  1  0
 13 14  1  0
  7 15  1  0
 15 16  1  0
 16 17  2  0
 17 18  1  0
 18 19  2  0
 19 20  1  0
 20 21  2  0
 21 22  1  0
 22 23  2  0
 17 24  1  0
 24 25  1  0
 25  4  1  0
 14  9  1  0
 25 15  2  0
 23 18  1  0
  1 26  1  0
  1 27  1  0
  5 28  1  0
  8 29  1  0
  9 30  1  1
 10 31  1  0
 10 32  1  0
 11 33  1  0
 11 34  1  0
 12 35  1  0
 12 36  1  0
 13 37  1  0
 14 38  1  0
 14 39  1  0
 16 40  1  0
 19 41  1  0
 20 42  1  0
 21 43  1  0
 22 44  1  0
 23 45  1  0
M  END
$$$$
