
     RDKit          3D

 53 57  0  0  0  0  0  0  0  0999 V2000
   -4.2493    0.9014    0.8017 C   0  0  0  0  0  0  0  0  0  0  0  0
   -3.1311    0.6943   -0.1930 C   0  0  1  0  0  0  0  0  0  0  0  0
   -2.7076   -0.6494   -0.2664 O   0  0  0  0  0  0  0  0  0  0  0  0
   -1.4001   -1.0426   -0.0230 C   0  0  0  0  0  0  0  0  0  0  0  0
   -0.4169   -0.1859    0.3042 N   0  0  0  0  0  0  0  0  0  0  0  0
    0.8334   -0.5639    0.5367 C   0  0  0  0  0  0  0  0  0  0  0  0
    1.8891    0.3846    0.8914 C   0  0  0  0  0  0  0  0  0  0  0  0
    1.7810    1.7510    1.0379 C   0  0  0  0  0  0  0  0  0  0  0  0
    3.0182    2.2142    1.3725 N   0  0  0  0  0  0  0  0  0  0  0  0
    3.8816    1.2362    1.4434 N   0  0  0  0  0  0  0  0  0  0  0  0
    5.2982    1.2443    1.7611 C   0  0  2  0  0  0  0  0  0  0  0  0
    5.8961    2.6214    1.5886 C   0  0  0  0  0  0  0  0  0  0  0  0
    6.6105    2.5489    0.2629 C   0  0  0  0  0  0  0  0  0  0  0  0
    6.3919    1.2936   -0.2636 O   0  0  0  0  0  0  0  0  0  0  0  0
    6.1079    0.4307    0.7757 C   0  0  0  0  0  0  0  0  0  0  0  0
    3.2103    0.0901    1.1501 C   0  0  0  0  0  0  0  0  0  0  0  0
    1.1314   -1.9071    0.4354 C   0  0  0  0  0  0  0  0  0  0  0  0
    0.1832   -2.8416    0.1063 C   0  0  0  0  0  0  0  0  0  0  0  0
    0.2257   -4.1832   -0.0520 N   0  0  0  0  0  0  0  0  0  0  0  0
   -0.9911   -4.5519   -0.3704 N   0  0  0  0  0  0  0  0  0  0  0  0
   -1.3885   -5.9348   -0.6324 C   0  0  0  0  0  0  0  0  0  0  0  0
   -1.8318   -3.5228   -0.4298 C   0  0  0  0  0  0  0  0  0  0  0  0
   -1.0995   -2.3856   -0.1237 C   0  0  0  0  0  0  0  0  0  0  0  0
   -3.5563    1.1272   -1.5800 C   0  0  1  0  0  0  0  0  0  0  0  0
   -4.7455    0.3571   -2.0796 C   0  0  0  0  0  0  0  0  0  0  0  0
   -5.8924    1.2189   -1.9171 N   0  0  0  0  0  0  0  0  0  0  0  0
   -5.4785    2.4756   -1.4316 C   0  0  0  0  0  0  0  0  0  0  0  0
   -6.1494    3.3970   -0.9133 O   0  0  0  0  0  0  0  0  0  0  0  0
   -3.9927    2.5585   -1.6427 C   0  0  0  0  0  0  0  0  0  0  0  0
   -5.2297    0.6832    0.3051 H   0  0  0  0  0  0  0  0  0  0  0  0
   -4.1992    1.9038    1.2379 H   0  0  0  0  0  0  0  0  0  0  0  0
   -4.1762    0.1771    1.6541 H   0  0  0  0  0  0  0  0  0  0  0  0
   -2.2371    1.2948    0.0836 H   0  0  0  0  0  0  0  0  0  0  0  0
    0.8966    2.3428    0.9141 H   0  0  0  0  0  0  0  0  0  0  0  0
    5.4919    0.8359    2.7735 H   0  0  0  0  0  0  0  0  0  0  0  0
    6.6626    2.7454    2.3811 H   0  0  0  0  0  0  0  0  0  0  0  0
    5.1204    3.4165    1.6051 H   0  0  0  0  0  0  0  0  0  0  0  0
    6.1528    3.2892   -0.4529 H   0  0  0  0  0  0  0  0  0  0  0  0
    7.6996    2.7154    0.3597 H   0  0  0  0  0  0  0  0  0  0  0  0
    7.0164    0.0013    1.2444 H   0  0  0  0  0  0  0  0  0  0  0  0
    5.4504   -0.3691    0.3641 H   0  0  0  0  0  0  0  0  0  0  0  0
    3.6334   -0.9046    1.1204 H   0  0  0  0  0  0  0  0  0  0  0  0
    2.1501   -2.2131    0.6251 H   0  0  0  0  0  0  0  0  0  0  0  0
   -1.5704   -6.0996   -1.7071 H   0  0  0  0  0  0  0  0  0  0  0  0
   -0.6706   -6.6517   -0.2150 H   0  0  0  0  0  0  0  0  0  0  0  0
   -2.3630   -6.1108   -0.1185 H   0  0  0  0  0  0  0  0  0  0  0  0
   -2.8851   -3.4735   -0.6594 H   0  0  0  0  0  0  0  0  0  0  0  0
   -2.7171    0.9959   -2.2855 H   0  0  0  0  0  0  0  0  0  0  0  0
   -4.6259    0.1663   -3.1652 H   0  0  0  0  0  0  0  0  0  0  0  0
   -4.8408   -0.5851   -1.4992 H   0  0  0  0  0  0  0  0  0  0  0  0
   -6.8672    0.9327   -2.1324 H   0  0  0  0  0  0  0  0  0  0  0  0
   -3.7913    2.9430   -2.6655 H   0  0  0  0  0  0  0  0  0  0  0  0
   -3.5285    3.1880   -0.8568 H   0  0  0  0  0  0  0  0  0  0  0  0
  1  2  1  0
  2  3  1  0
  3  4  1  0
  4  5  2  0
  5  6  1  0
  6  7  1  0
  7  8  1  0
  8  9  2  0
  9 10  1  0
 10 11  1  0
 11 12  1  0
 12 13  1  0
 13 14  1  0
 14 15  1  0
 10 16  1  0
  6 17  2  0
 17 18  1  0
 18 19  2  0
 19 20  1  0
 20 21  1  0
 20 22  1  0
 22 23  2  0
  2 24  1  0
 24 25  1  0
 25 26  1  0
 26 27  1  0
 27 28  2  0
 27 29  1  0
 23  4  1  0
 29 24  1  0
 16  7  2  0
 23 18  1  0
 15 11  1  0
  1 30  1  0
  1 31  1  0
  1 32  1  0
  2 33  1  1
  8 34  1  0
 11 35  1  1
 12 36  1  0
 12 37  1  0
 13 38  1  0
 13 39  1  0
 15 40  1  0
 15 41  1  0
 16 42  1  0
 17 43  1  0
 21 44  1  0
 21 45  1  0
 21 46  1  0
 22 47  1  0
 24 48  1  6
 25 49  1  0
 25 50  1  0
 26 51  1  0
 29 52  1  0
 29 53  1  0
M  END
$$$$
