
     RDKit          3D

 40 43  0  0  0  0  0  0  0  0999 V2000
    3.2062   -0.2924    2.2016 C   0  0  0  0  0  0  0  0  0  0  0  0
    2.4705   -0.0791    0.9641 N   0  0  0  0  0  0  0  0  0  0  0  0
    1.3257   -0.6530    0.5661 C   0  0  0  0  0  0  0  0  0  0  0  0
    1.0039   -0.1435   -0.6750 C   0  0  0  0  0  0  0  0  0  0  0  0
    1.9796    0.7629   -1.0383 C   0  0  0  0  0  0  0  0  0  0  0  0
    2.1477    1.5484   -2.1604 C   0  0  0  0  0  0  0  0  0  0  0  0
    3.2648    2.3513   -2.1810 C   0  0  0  0  0  0  0  0  0  0  0  0
    4.2235    2.4409   -1.1893 C   0  0  0  0  0  0  0  0  0  0  0  0
    3.9831    1.6147   -0.0847 C   0  0  0  0  0  0  0  0  0  0  0  0
    2.8813    0.7878   -0.0055 C   0  0  0  0  0  0  0  0  0  0  0  0
   -0.2130   -0.6168   -1.3240 C   0  0  0  0  0  0  0  0  0  0  0  0
   -0.5636   -0.1930   -2.4555 O   0  0  0  0  0  0  0  0  0  0  0  0
   -0.9993   -1.5815   -0.6327 N   0  0  0  0  0  0  0  0  0  0  0  0
   -2.4204   -1.7271   -0.9309 C   0  0  0  0  0  0  0  0  0  0  0  0
   -3.2889   -0.8807   -0.1130 C   0  0  0  0  0  0  0  0  0  0  0  0
   -3.6049    0.4548   -0.1184 C   0  0  0  0  0  0  0  0  0  0  0  0
   -3.0401    1.4012   -1.0963 C   0  0  0  0  0  0  0  0  0  0  0  0
   -4.4863    0.7554    0.8796 N   0  0  0  0  0  0  0  0  0  0  0  0
   -4.7223   -0.4207    1.5186 C   0  0  0  0  0  0  0  0  0  0  0  0
   -4.0124   -1.3858    0.9287 N   0  0  0  0  0  0  0  0  0  0  0  0
   -0.4021   -2.4333    0.3789 C   0  0  0  0  0  0  0  0  0  0  0  0
    0.5207   -1.6627    1.3021 C   0  0  0  0  0  0  0  0  0  0  0  0
    4.2454    0.0499    2.0976 H   0  0  0  0  0  0  0  0  0  0  0  0
    3.2425   -1.4142    2.3182 H   0  0  0  0  0  0  0  0  0  0  0  0
    2.7667    0.1954    3.0739 H   0  0  0  0  0  0  0  0  0  0  0  0
    1.4402    1.5348   -2.9812 H   0  0  0  0  0  0  0  0  0  0  0  0
    3.3855    2.9687   -3.0760 H   0  0  0  0  0  0  0  0  0  0  0  0
    5.0817    3.0892   -1.2577 H   0  0  0  0  0  0  0  0  0  0  0  0
    4.7063    1.6465    0.7240 H   0  0  0  0  0  0  0  0  0  0  0  0
   -2.6439   -2.8097   -0.8217 H   0  0  0  0  0  0  0  0  0  0  0  0
   -2.5695   -1.5404   -2.0349 H   0  0  0  0  0  0  0  0  0  0  0  0
   -3.6840    2.3033   -1.1969 H   0  0  0  0  0  0  0  0  0  0  0  0
   -2.0044    1.6813   -0.8548 H   0  0  0  0  0  0  0  0  0  0  0  0
   -3.0633    0.8932   -2.1013 H   0  0  0  0  0  0  0  0  0  0  0  0
   -4.8890    1.6798    1.1025 H   0  0  0  0  0  0  0  0  0  0  0  0
   -5.3931   -0.5094    2.3719 H   0  0  0  0  0  0  0  0  0  0  0  0
    0.1495   -3.2717   -0.0904 H   0  0  0  0  0  0  0  0  0  0  0  0
   -1.2069   -2.8711    1.0014 H   0  0  0  0  0  0  0  0  0  0  0  0
   -0.0141   -1.2297    2.1699 H   0  0  0  0  0  0  0  0  0  0  0  0
    1.1969   -2.4440    1.7574 H   0  0  0  0  0  0  0  0  0  0  0  0
  1  2  1  0
  2  3  1  0
  3  4  2  0
  4  5  1  0
  5  6  2  0
  6  7  1  0
  7  8  2  0
  8  9  1  0
  9 10  2  0
  4 11  1  0
 11 12  2  0
 11 13  1  0
 13 14  1  0
 14 15  1  0
 15 16  2  0
 16 17  1  0
 16 18  1  0
 18 19  1  0
 19 20  2  0
 13 21  1  0
 21 22  1  0
 10  2  1  0
 20 15  1  0
 22  3  1  0
 10  5  1  0
  1 23  1  0
  1 24  1  0
  1 25  1  0
  6 26  1  0
  7 27  1  0
  8 28  1  0
  9 29  1  0
 14 30  1  0
 14 31  1  0
 17 32  1  0
 17 33  1  0
 17 34  1  0
 18 35  1  0
 19 36  1  0
 21 37  1  0
 21 38  1  0
 22 39  1  0
 22 40  1  0
M  END
$$$$
