
     RDKit          3D

 34 36  0  0  0  0  0  0  0  0999 V2000
   -2.1812   -3.9535   -0.4142 O   0  0  0  0  0  0  0  0  0  0  0  0
   -1.0434   -2.6469   -0.3480 S   0  0  0  0  0  0  0  0  0  0  0  0
   -0.4998   -2.7483   -1.7333 O   0  0  0  0  0  0  0  0  0  0  0  0
   -0.1907   -3.1470    0.7562 O   0  0  0  0  0  0  0  0  0  0  0  0
   -2.0249   -1.2774   -0.0018 C   0  0  0  0  0  0  0  0  0  0  0  0
   -1.5652    0.0141    0.1485 C   0  0  0  0  0  0  0  0  0  0  0  0
   -0.2226    0.2807    0.0191 C   0  0  0  0  0  0  0  0  0  0  0  0
    0.7362   -0.7338   -0.2645 N   0  0  0  0  0  0  0  0  0  0  0  0
    2.0898   -0.2037   -0.3380 C   0  0  0  0  0  0  0  0  0  0  0  0
    2.7311    0.1189    0.8767 C   0  0  0  0  0  0  0  0  0  0  0  0
    4.0008    0.6770    1.0643 C   0  0  0  0  0  0  0  0  0  0  0  0
    4.6785    0.9284   -0.1046 C   0  0  0  0  0  0  0  0  0  0  0  0
    4.1632    0.6587   -1.3498 C   0  0  0  0  0  0  0  0  0  0  0  0
    2.9130    0.1126   -1.4356 C   0  0  0  0  0  0  0  0  0  0  0  0
    0.2782    1.5604    0.1601 C   0  0  0  0  0  0  0  0  0  0  0  0
   -0.5580    2.6502    0.4425 C   0  0  0  0  0  0  0  0  0  0  0  0
   -1.8800    2.3093    0.5574 C   0  0  0  0  0  0  0  0  0  0  0  0
   -2.4241    1.0534    0.4256 C   0  0  0  0  0  0  0  0  0  0  0  0
   -3.7659    0.9041    0.5720 C   0  0  0  0  0  0  0  0  0  0  0  0
   -4.3157   -0.3513    0.4391 C   0  0  0  0  0  0  0  0  0  0  0  0
   -3.4204   -1.3635    0.1617 C   0  0  0  0  0  0  0  0  0  0  0  0
   -2.8092   -3.6589   -1.1191 H   0  0  0  0  0  0  0  0  0  0  0  0
    1.2849   -1.5656   -0.4682 H   0  0  0  0  0  0  0  0  0  0  0  0
    2.1773   -0.0877    1.8070 H   0  0  0  0  0  0  0  0  0  0  0  0
    4.3618    0.8701    2.0562 H   0  0  0  0  0  0  0  0  0  0  0  0
    5.6521    1.3530   -0.0586 H   0  0  0  0  0  0  0  0  0  0  0  0
    4.6300    0.8263   -2.3053 H   0  0  0  0  0  0  0  0  0  0  0  0
    2.3777   -0.1545   -2.3643 H   0  0  0  0  0  0  0  0  0  0  0  0
    1.3187    1.9183    0.0792 H   0  0  0  0  0  0  0  0  0  0  0  0
   -0.2335    3.6731    0.5650 H   0  0  0  0  0  0  0  0  0  0  0  0
   -2.5596    3.1206    0.7750 H   0  0  0  0  0  0  0  0  0  0  0  0
   -4.4108    1.7410    0.7893 H   0  0  0  0  0  0  0  0  0  0  0  0
   -5.3742   -0.5299    0.5448 H   0  0  0  0  0  0  0  0  0  0  0  0
   -3.9142   -2.3482    0.0653 H   0  0  0  0  0  0  0  0  0  0  0  0
  1  2  1  0
  2  3  2  0
  2  4  2  0
  2  5  1  0
  5  6  2  0
  6  7  1  0
  7  8  1  0
  8  9  1  0
  9 10  2  0
 10 11  1  0
 11 12  2  0
 12 13  1  0
 13 14  2  0
  7 15  2  0
 15 16  1  0
 16 17  2  0
 17 18  1  0
 18 19  2  0
 19 20  1  0
 20 21  2  0
 21  5  1  0
 18  6  1  0
 14  9  1  0
  1 22  1  0
  8 23  1  0
 10 24  1  0
 11 25  1  0
 12 26  1  0
 13 27  1  0
 14 28  1  0
 15 29  1  0
 16 30  1  0
 17 31  1  0
 19 32  1  0
 20 33  1  0
 21 34  1  0
M  END
$$$$
