
     RDKit          3D

 63 66  0  0  0  0  0  0  0  0999 V2000
   -6.9867    4.0102    0.6148 N   0  0  0  0  0  0  0  0  0  0  0  0
   -5.7901    3.5892    0.4000 C   0  0  0  0  0  0  0  0  0  0  0  0
   -4.6522    4.4341    0.5068 N   0  0  0  0  0  0  0  0  0  0  0  0
   -5.5476    2.1985    0.0311 C   0  0  0  0  0  0  0  0  0  0  0  0
   -6.4882    1.5022   -0.6742 C   0  0  0  0  0  0  0  0  0  0  0  0
   -6.2361    0.1916   -1.0099 C   0  0  0  0  0  0  0  0  0  0  0  0
   -5.0433   -0.4175   -0.6383 C   0  0  0  0  0  0  0  0  0  0  0  0
   -4.0824    0.2823    0.0779 C   0  0  0  0  0  0  0  0  0  0  0  0
   -2.7893   -0.3537    0.4895 C   0  0  0  0  0  0  0  0  0  0  0  0
   -3.0836   -1.6278    1.0062 O   0  0  0  0  0  0  0  0  0  0  0  0
   -2.3500   -2.7692    0.7344 C   0  0  0  0  0  0  0  0  0  0  0  0
   -2.5721   -3.9043    1.4824 C   0  0  0  0  0  0  0  0  0  0  0  0
   -1.8575   -5.0498    1.2332 C   0  0  0  0  0  0  0  0  0  0  0  0
   -0.9325   -5.0259    0.2331 C   0  0  0  0  0  0  0  0  0  0  0  0
   -0.7118   -3.8921   -0.5128 C   0  0  0  0  0  0  0  0  0  0  0  0
   -1.4048   -2.7426   -0.2889 C   0  0  0  0  0  0  0  0  0  0  0  0
   -1.1631   -1.5792   -1.0710 N   0  0  0  0  0  0  0  0  0  0  0  0
   -0.1847   -1.5372   -2.1338 C   0  0  0  0  0  0  0  0  0  0  0  0
    1.1938   -1.1175   -1.6530 C   0  0  0  0  0  0  0  0  0  0  0  0
    1.1616    0.2585   -1.0328 C   0  0  0  0  0  0  0  0  0  0  0  0
    2.5426    0.6437   -0.5851 C   0  0  0  0  0  0  0  0  0  0  0  0
    3.1447   -0.2698    0.4330 C   0  0  0  0  0  0  0  0  0  0  0  0
    4.4732    0.1572    0.8322 N   0  0  0  0  0  0  0  0  0  0  0  0
    4.5147    1.3655    1.5703 C   0  0  0  0  0  0  0  0  0  0  0  0
    5.9402    1.5815    2.0384 C   0  0  0  0  0  0  0  0  0  0  0  0
    6.7639    1.8911    0.8143 C   0  0  0  0  0  0  0  0  0  0  0  0
    6.4778    0.9928   -0.3427 C   0  0  0  0  0  0  0  0  0  0  0  0
    5.4892   -0.0743   -0.1105 C   0  0  0  0  0  0  0  0  0  0  0  0
   -1.9580   -0.4250   -0.7389 C   0  0  0  0  0  0  0  0  0  0  0  0
   -1.9524    0.5660   -1.5166 O   0  0  0  0  0  0  0  0  0  0  0  0
   -4.3678    1.5891    0.3959 C   0  0  0  0  0  0  0  0  0  0  0  0
   -7.0989    5.0230    0.8781 H   0  0  0  0  0  0  0  0  0  0  0  0
   -4.0443    4.5748   -0.3359 H   0  0  0  0  0  0  0  0  0  0  0  0
   -4.4712    4.8811    1.4276 H   0  0  0  0  0  0  0  0  0  0  0  0
   -7.4265    1.9697   -0.9707 H   0  0  0  0  0  0  0  0  0  0  0  0
   -6.9556   -0.3832   -1.5642 H   0  0  0  0  0  0  0  0  0  0  0  0
   -4.8762   -1.4473   -0.9160 H   0  0  0  0  0  0  0  0  0  0  0  0
   -2.3333    0.2630    1.2879 H   0  0  0  0  0  0  0  0  0  0  0  0
   -3.3041   -3.9162    2.2706 H   0  0  0  0  0  0  0  0  0  0  0  0
   -2.0158   -5.9682    1.8153 H   0  0  0  0  0  0  0  0  0  0  0  0
   -0.3479   -5.8967    0.0006 H   0  0  0  0  0  0  0  0  0  0  0  0
    0.0312   -3.9054   -1.3000 H   0  0  0  0  0  0  0  0  0  0  0  0
   -0.5108   -0.7534   -2.8799 H   0  0  0  0  0  0  0  0  0  0  0  0
   -0.1168   -2.4700   -2.7248 H   0  0  0  0  0  0  0  0  0  0  0  0
    1.8756   -1.0719   -2.5225 H   0  0  0  0  0  0  0  0  0  0  0  0
    1.5579   -1.8258   -0.8575 H   0  0  0  0  0  0  0  0  0  0  0  0
    0.7961    1.0026   -1.7817 H   0  0  0  0  0  0  0  0  0  0  0  0
    0.4311    0.2733   -0.1933 H   0  0  0  0  0  0  0  0  0  0  0  0
    2.5363    1.7028   -0.1907 H   0  0  0  0  0  0  0  0  0  0  0  0
    3.2592    0.6853   -1.4454 H   0  0  0  0  0  0  0  0  0  0  0  0
    2.4854   -0.3191    1.3164 H   0  0  0  0  0  0  0  0  0  0  0  0
    3.2636   -1.3091    0.0485 H   0  0  0  0  0  0  0  0  0  0  0  0
    3.8889    1.2395    2.4951 H   0  0  0  0  0  0  0  0  0  0  0  0
    4.1818    2.2634    1.0370 H   0  0  0  0  0  0  0  0  0  0  0  0
    5.9267    2.4708    2.6995 H   0  0  0  0  0  0  0  0  0  0  0  0
    6.3210    0.6967    2.5702 H   0  0  0  0  0  0  0  0  0  0  0  0
    7.8329    1.9058    1.1234 H   0  0  0  0  0  0  0  0  0  0  0  0
    6.5227    2.9409    0.5155 H   0  0  0  0  0  0  0  0  0  0  0  0
    7.4593    0.5017   -0.6199 H   0  0  0  0  0  0  0  0  0  0  0  0
    6.2181    1.5841   -1.2707 H   0  0  0  0  0  0  0  0  0  0  0  0
    5.0054   -0.3199   -1.1023 H   0  0  0  0  0  0  0  0  0  0  0  0
    6.0102   -1.0379    0.1657 H   0  0  0  0  0  0  0  0  0  0  0  0
   -3.6496    2.1780    0.9534 H   0  0  0  0  0  0  0  0  0  0  0  0
  1  2  2  3
  2  3  1  0
  2  4  1  0
  4  5  2  0
  5  6  1  0
  6  7  2  0
  7  8  1  0
  8  9  1  0
  9 10  1  0
 10 11  1  0
 11 12  2  0
 12 13  1  0
 13 14  2  0
 14 15  1  0
 15 16  2  0
 16 17  1  0
 17 18  1  0
 18 19  1  0
 19 20  1  0
 20 21  1  0
 21 22  1  0
 22 23  1  0
 23 24  1  0
 24 25  1  0
 25 26  1  0
 26 27  1  0
 27 28  1  0
 17 29  1  0
 29 30  2  0
  8 31  2  0
 31  4  1  0
 29  9  1  0
 16 11  1  0
 28 23  1  0
  1 32  1  0
  3 33  1  0
  3 34  1  0
  5 35  1  0
  6 36  1  0
  7 37  1  0
  9 38  1  0
 12 39  1  0
 13 40  1  0
 14 41  1  0
 15 42  1  0
 18 43  1  0
 18 44  1  0
 19 45  1  0
 19 46  1  0
 20 47  1  0
 20 48  1  0
 21 49  1  0
 21 50  1  0
 22 51  1  0
 22 52  1  0
 24 53  1  0
 24 54  1  0
 25 55  1  0
 25 56  1  0
 26 57  1  0
 26 58  1  0
 27 59  1  0
 27 60  1  0
 28 61  1  0
 28 62  1  0
 31 63  1  0
M  END
$$$$
