
     RDKit          3D

 38 41  0  0  0  0  0  0  0  0999 V2000
   -6.1161    3.3619    1.1089 N   0  0  0  0  0  0  0  0  0  0  0  0
   -5.1297    2.9645    0.6100 C   0  0  0  0  0  0  0  0  0  0  0  0
   -3.8684    2.4842   -0.0262 C   0  0  0  0  0  0  0  0  0  0  0  0
   -3.3175    3.2917   -0.9777 C   0  0  0  0  0  0  0  0  0  0  0  0
   -1.8522    2.3624   -1.5680 S   0  0  0  0  0  0  0  0  0  0  0  0
   -2.1593    0.9726   -0.4415 C   0  0  0  0  0  0  0  0  0  0  0  0
   -1.3545   -0.1854   -0.4179 N   0  0  0  0  0  0  0  0  0  0  0  0
   -0.0877   -0.1418    0.2233 C   0  0  0  0  0  0  0  0  0  0  0  0
    0.2663    0.9427    0.7205 O   0  0  0  0  0  0  0  0  0  0  0  0
    0.7885   -1.3291    0.3032 C   0  0  0  0  0  0  0  0  0  0  0  0
    1.9157   -1.3170   -0.6297 C   0  0  0  0  0  0  0  0  0  0  0  0
    1.7883   -1.9835   -1.8685 C   0  0  0  0  0  0  0  0  0  0  0  0
    2.7780   -1.9679   -2.8028 C   0  0  0  0  0  0  0  0  0  0  0  0
    3.9782   -1.2814   -2.5719 C   0  0  0  0  0  0  0  0  0  0  0  0
    4.0998   -0.6328   -1.3623 C   0  0  0  0  0  0  0  0  0  0  0  0
    5.2775    0.0095   -1.1688 N   0  0  0  0  0  0  0  0  0  0  0  0
    5.4948    0.6533   -0.0251 C   0  0  0  0  0  0  0  0  0  0  0  0
    4.5219    0.6599    0.9536 C   0  0  0  0  0  0  0  0  0  0  0  0
    3.3071    0.0123    0.7835 C   0  0  0  0  0  0  0  0  0  0  0  0
    3.0866   -0.6513   -0.4067 C   0  0  0  0  0  0  0  0  0  0  0  0
   -3.2783    1.3122    0.2428 C   0  0  0  0  0  0  0  0  0  0  0  0
   -3.8330    0.3738    1.2752 C   0  0  0  0  0  0  0  0  0  0  0  0
   -4.9391    0.5707    2.0317 N   0  0  0  0  0  0  0  0  0  0  0  0
   -5.1657   -0.4187    2.8382 N   0  0  0  0  0  0  0  0  0  0  0  0
   -4.1900   -1.3156    2.6298 C   0  0  0  0  0  0  0  0  0  0  0  0
   -3.3643   -0.8147    1.6553 N   0  0  0  0  0  0  0  0  0  0  0  0
   -3.5935    4.2716   -1.3706 H   0  0  0  0  0  0  0  0  0  0  0  0
   -1.6614   -1.0578   -0.8682 H   0  0  0  0  0  0  0  0  0  0  0  0
    0.1330   -2.2202    0.0954 H   0  0  0  0  0  0  0  0  0  0  0  0
    1.0823   -1.4137    1.3782 H   0  0  0  0  0  0  0  0  0  0  0  0
    0.8608   -2.5025   -2.0297 H   0  0  0  0  0  0  0  0  0  0  0  0
    2.6352   -2.5031   -3.7505 H   0  0  0  0  0  0  0  0  0  0  0  0
    4.7649   -1.2688   -3.3303 H   0  0  0  0  0  0  0  0  0  0  0  0
    6.4295    1.1698    0.1339 H   0  0  0  0  0  0  0  0  0  0  0  0
    4.6795    1.1800    1.9092 H   0  0  0  0  0  0  0  0  0  0  0  0
    2.5527   -0.0078    1.5387 H   0  0  0  0  0  0  0  0  0  0  0  0
   -4.0200   -2.2859    3.1099 H   0  0  0  0  0  0  0  0  0  0  0  0
   -2.5099   -1.2942    1.2842 H   0  0  0  0  0  0  0  0  0  0  0  0
  1  2  3  0
  2  3  1  0
  3  4  2  0
  4  5  1  0
  5  6  1  0
  6  7  1  0
  7  8  1  0
  8  9  2  0
  8 10  1  0
 10 11  1  0
 11 12  2  0
 12 13  1  0
 13 14  2  0
 14 15  1  0
 15 16  2  0
 16 17  1  0
 17 18  2  0
 18 19  1  0
 19 20  2  0
  6 21  2  0
 21 22  1  0
 22 23  2  0
 23 24  1  0
 24 25  2  0
 25 26  1  0
 21  3  1  0
 26 22  1  0
 20 11  1  0
 20 15  1  0
  4 27  1  0
  7 28  1  0
 10 29  1  0
 10 30  1  0
 12 31  1  0
 13 32  1  0
 14 33  1  0
 17 34  1  0
 18 35  1  0
 19 36  1  0
 25 37  1  0
 26 38  1  0
M  END
$$$$
