
     RDKit          3D

 54 57  0  0  0  0  0  0  0  0999 V2000
   -2.3808    5.4612   -1.6352 C   0  0  0  0  0  0  0  0  0  0  0  0
   -1.0651    4.8897   -1.1913 C   0  0  0  0  0  0  0  0  0  0  0  0
   -1.2056    3.5217   -0.9181 O   0  0  0  0  0  0  0  0  0  0  0  0
   -0.1506    2.7250   -0.4877 C   0  0  0  0  0  0  0  0  0  0  0  0
    1.1060    3.3313   -0.3238 C   0  0  0  0  0  0  0  0  0  0  0  0
    2.1669    2.6105    0.0912 C   0  0  0  0  0  0  0  0  0  0  0  0
    1.9844    1.2724    0.3477 C   0  0  0  0  0  0  0  0  0  0  0  0
    3.0990    0.4193    0.8013 C   0  0  0  0  0  0  0  0  0  0  0  0
    4.1274    0.8972    1.5821 C   0  0  0  0  0  0  0  0  0  0  0  0
    5.1537    0.0302    1.9752 C   0  0  0  0  0  0  0  0  0  0  0  0
    5.1660   -1.2972    1.6016 C   0  0  0  0  0  0  0  0  0  0  0  0
    6.2339   -2.2074    2.0080 C   0  0  0  0  0  0  0  0  0  0  0  0
    7.1929   -1.8069    2.7244 O   0  0  0  0  0  0  0  0  0  0  0  0
    6.1819   -3.5638    1.5839 N   0  0  0  0  0  0  0  0  0  0  0  0
    7.1398   -4.4486    1.9286 O   0  0  0  0  0  0  0  0  0  0  0  0
    4.1490   -1.7335    0.8399 N   0  0  0  0  0  0  0  0  0  0  0  0
    3.1402   -0.9122    0.4445 C   0  0  0  0  0  0  0  0  0  0  0  0
    0.7568    0.6784    0.1882 C   0  0  0  0  0  0  0  0  0  0  0  0
   -0.3740    1.4047   -0.2446 C   0  0  0  0  0  0  0  0  0  0  0  0
   -1.6167    0.6880   -0.3856 C   0  0  0  0  0  0  0  0  0  0  0  0
   -1.6641   -0.6297   -0.0696 N   0  0  0  0  0  0  0  0  0  0  0  0
   -2.7982   -1.3338   -0.1810 C   0  0  0  0  0  0  0  0  0  0  0  0
   -3.1176   -2.6738    0.0722 C   0  0  0  0  0  0  0  0  0  0  0  0
   -2.1536   -3.6732    0.5668 C   0  0  0  0  0  0  0  0  0  0  0  0
   -1.1953   -4.1773   -0.4603 C   0  0  0  0  0  0  0  0  0  0  0  0
   -4.4156   -2.8357   -0.2152 N   0  0  0  0  0  0  0  0  0  0  0  0
   -4.9473   -1.7033   -0.6316 N   0  0  0  0  0  0  0  0  0  0  0  0
   -6.3201   -1.4401   -1.0439 C   0  0  0  0  0  0  0  0  0  0  0  0
   -3.9740   -0.7627   -0.6200 C   0  0  0  0  0  0  0  0  0  0  0  0
   -3.9268    0.5714   -0.9401 C   0  0  0  0  0  0  0  0  0  0  0  0
   -4.9770    1.1148   -1.3407 O   0  0  0  0  0  0  0  0  0  0  0  0
   -2.7473    1.2330   -0.8068 N   0  0  0  0  0  0  0  0  0  0  0  0
   -2.5162    5.3906   -2.7456 H   0  0  0  0  0  0  0  0  0  0  0  0
   -2.4662    6.5340   -1.3477 H   0  0  0  0  0  0  0  0  0  0  0  0
   -3.2264    4.9474   -1.1368 H   0  0  0  0  0  0  0  0  0  0  0  0
   -0.2644    5.0947   -1.9542 H   0  0  0  0  0  0  0  0  0  0  0  0
   -0.7477    5.4617   -0.2754 H   0  0  0  0  0  0  0  0  0  0  0  0
    1.1924    4.3857   -0.5398 H   0  0  0  0  0  0  0  0  0  0  0  0
    3.1730    3.0213    0.2393 H   0  0  0  0  0  0  0  0  0  0  0  0
    4.1077    1.9363    1.8677 H   0  0  0  0  0  0  0  0  0  0  0  0
    5.9481    0.4068    2.5811 H   0  0  0  0  0  0  0  0  0  0  0  0
    5.3622   -3.8517    0.9866 H   0  0  0  0  0  0  0  0  0  0  0  0
    7.7047   -4.6511    1.1602 H   0  0  0  0  0  0  0  0  0  0  0  0
    2.3437   -1.3241   -0.1724 H   0  0  0  0  0  0  0  0  0  0  0  0
    0.6242   -0.3898    0.3966 H   0  0  0  0  0  0  0  0  0  0  0  0
   -2.7367   -4.5448    0.9487 H   0  0  0  0  0  0  0  0  0  0  0  0
   -1.6189   -3.2520    1.4434 H   0  0  0  0  0  0  0  0  0  0  0  0
   -1.0694   -5.2944   -0.3712 H   0  0  0  0  0  0  0  0  0  0  0  0
   -1.4486   -3.9460   -1.4967 H   0  0  0  0  0  0  0  0  0  0  0  0
   -0.1620   -3.7758   -0.2599 H   0  0  0  0  0  0  0  0  0  0  0  0
   -6.6353   -0.4583   -0.6406 H   0  0  0  0  0  0  0  0  0  0  0  0
   -7.0034   -2.2448   -0.7087 H   0  0  0  0  0  0  0  0  0  0  0  0
   -6.3043   -1.3378   -2.1555 H   0  0  0  0  0  0  0  0  0  0  0  0
   -2.8244    2.2425   -1.0793 H   0  0  0  0  0  0  0  0  0  0  0  0
  1  2  1  0
  2  3  1  0
  3  4  1  0
  4  5  2  0
  5  6  1  0
  6  7  2  0
  7  8  1  0
  8  9  2  0
  9 10  1  0
 10 11  2  0
 11 12  1  0
 12 13  2  0
 12 14  1  0
 14 15  1  0
 11 16  1  0
 16 17  2  0
  7 18  1  0
 18 19  2  0
 19 20  1  0
 20 21  2  0
 21 22  1  0
 22 23  1  0
 23 24  1  0
 24 25  1  0
 23 26  2  0
 26 27  1  0
 27 28  1  0
 27 29  1  0
 29 30  1  0
 30 31  2  0
 30 32  1  0
 19  4  1  0
 32 20  1  0
 17  8  1  0
 29 22  2  0
  1 33  1  0
  1 34  1  0
  1 35  1  0
  2 36  1  0
  2 37  1  0
  5 38  1  0
  6 39  1  0
  9 40  1  0
 10 41  1  0
 14 42  1  0
 15 43  1  0
 17 44  1  0
 18 45  1  0
 24 46  1  0
 24 47  1  0
 25 48  1  0
 25 49  1  0
 25 50  1  0
 28 51  1  0
 28 52  1  0
 28 53  1  0
 32 54  1  0
M  END
$$$$
