
     RDKit          3D

 56 58  0  0  0  0  0  0  0  0999 V2000
    0.7089    4.3061   -2.6827 C   0  0  0  0  0  0  0  0  0  0  0  0
    1.1417    3.1637   -1.8518 N   0  0  0  0  0  0  0  0  0  0  0  0
    2.5557    3.0142   -1.6752 C   0  0  0  0  0  0  0  0  0  0  0  0
    0.1226    2.3267   -1.2818 C   0  0  0  0  0  0  0  0  0  0  0  0
   -1.0822    2.6970   -1.5354 O   0  0  0  0  0  0  0  0  0  0  0  0
    0.3042    1.1989   -0.5105 N   0  0  0  0  0  0  0  0  0  0  0  0
    1.5529    0.5067   -0.1300 C   0  0  0  0  0  0  0  0  0  0  0  0
    1.1576   -0.9108   -0.2569 C   0  0  0  0  0  0  0  0  0  0  0  0
    2.1352   -1.9810   -0.5509 C   0  0  0  0  0  0  0  0  0  0  0  0
    3.4862   -1.6911   -0.6974 C   0  0  0  0  0  0  0  0  0  0  0  0
    4.4441   -2.6456   -0.9766 C   0  0  0  0  0  0  0  0  0  0  0  0
    5.7457   -2.2982   -1.1079 F   0  0  0  0  0  0  0  0  0  0  0  0
    4.0820   -3.9604   -1.1241 C   0  0  0  0  0  0  0  0  0  0  0  0
    2.7531   -4.2720   -0.9837 C   0  0  0  0  0  0  0  0  0  0  0  0
    1.7847   -3.3000   -0.7006 C   0  0  0  0  0  0  0  0  0  0  0  0
    0.4944   -3.6785   -0.5767 F   0  0  0  0  0  0  0  0  0  0  0  0
   -0.1272   -1.0035   -0.0666 C   0  0  0  0  0  0  0  0  0  0  0  0
   -0.6581    0.3548    0.2006 C   0  0  2  0  0  0  0  0  0  0  0  0
   -1.9935    0.6769   -0.2434 C   0  0  0  0  0  0  0  0  0  0  0  0
   -3.2042    0.0153    0.2742 C   0  0  0  0  0  0  0  0  0  0  0  0
   -3.3447   -1.4633    0.1057 C   0  0  2  0  0  0  0  0  0  0  0  0
   -3.2888   -1.7734   -1.3234 N   0  0  0  0  0  0  0  0  0  0  0  0
   -4.8138   -1.8121    0.4826 C   0  0  0  0  0  0  0  0  0  0  0  0
   -5.0081   -3.1664    0.3472 F   0  0  0  0  0  0  0  0  0  0  0  0
   -5.6803   -1.1586   -0.3569 F   0  0  0  0  0  0  0  0  0  0  0  0
   -0.4038    0.5798    1.6603 C   0  0  0  0  0  0  0  0  0  0  0  0
   -0.6565   -0.4058    2.5680 C   0  0  0  0  0  0  0  0  0  0  0  0
   -0.4196   -0.1671    3.9058 C   0  0  0  0  0  0  0  0  0  0  0  0
    0.0672    1.0381    4.3693 C   0  0  0  0  0  0  0  0  0  0  0  0
    0.3051    1.9983    3.4093 C   0  0  0  0  0  0  0  0  0  0  0  0
    0.0791    1.7922    2.0666 C   0  0  0  0  0  0  0  0  0  0  0  0
   -0.2005    4.7623   -2.2125 H   0  0  0  0  0  0  0  0  0  0  0  0
    1.4844    5.1105   -2.6659 H   0  0  0  0  0  0  0  0  0  0  0  0
    0.4614    3.9682   -3.7037 H   0  0  0  0  0  0  0  0  0  0  0  0
    2.8720    2.8461   -0.6225 H   0  0  0  0  0  0  0  0  0  0  0  0
    3.0613    2.3393   -2.3719 H   0  0  0  0  0  0  0  0  0  0  0  0
    3.0417    4.0235   -1.9084 H   0  0  0  0  0  0  0  0  0  0  0  0
    1.9452    0.8111    0.8284 H   0  0  0  0  0  0  0  0  0  0  0  0
    2.2997    0.6380   -0.9748 H   0  0  0  0  0  0  0  0  0  0  0  0
    3.7728   -0.6478   -0.5764 H   0  0  0  0  0  0  0  0  0  0  0  0
    4.8157   -4.7355   -1.3445 H   0  0  0  0  0  0  0  0  0  0  0  0
    2.4286   -5.3030   -1.0933 H   0  0  0  0  0  0  0  0  0  0  0  0
   -0.6891   -1.9080   -0.1057 H   0  0  0  0  0  0  0  0  0  0  0  0
   -2.1618    1.7875    0.0268 H   0  0  0  0  0  0  0  0  0  0  0  0
   -2.0417    0.6524   -1.3485 H   0  0  0  0  0  0  0  0  0  0  0  0
   -4.0578    0.4383   -0.3536 H   0  0  0  0  0  0  0  0  0  0  0  0
   -3.5028    0.3574    1.2978 H   0  0  0  0  0  0  0  0  0  0  0  0
   -2.7563   -2.1011    0.7433 H   0  0  0  0  0  0  0  0  0  0  0  0
   -4.0066   -1.1822   -1.7984 H   0  0  0  0  0  0  0  0  0  0  0  0
   -3.5575   -2.7671   -1.5017 H   0  0  0  0  0  0  0  0  0  0  0  0
   -5.0134   -1.5074    1.5275 H   0  0  0  0  0  0  0  0  0  0  0  0
   -1.0491   -1.3999    2.2503 H   0  0  0  0  0  0  0  0  0  0  0  0
   -0.6222   -0.9546    4.6259 H   0  0  0  0  0  0  0  0  0  0  0  0
    0.2559    1.2272    5.4352 H   0  0  0  0  0  0  0  0  0  0  0  0
    0.6904    2.9589    3.7520 H   0  0  0  0  0  0  0  0  0  0  0  0
    0.2897    2.6049    1.3378 H   0  0  0  0  0  0  0  0  0  0  0  0
  1  2  1  0
  2  3  1  0
  2  4  1  0
  4  5  2  0
  4  6  1  0
  6  7  1  0
  7  8  1  0
  8  9  1  0
  9 10  2  0
 10 11  1  0
 11 12  1  0
 11 13  2  0
 13 14  1  0
 14 15  2  0
 15 16  1  0
  8 17  2  0
 17 18  1  0
 18 19  1  6
 19 20  1  0
 20 21  1  0
 21 22  1  0
 21 23  1  0
 23 24  1  0
 23 25  1  0
 18 26  1  0
 26 27  2  0
 27 28  1  0
 28 29  2  0
 29 30  1  0
 30 31  2  0
 18  6  1  0
 31 26  1  0
 15  9  1  0
  1 32  1  0
  1 33  1  0
  1 34  1  0
  3 35  1  0
  3 36  1  0
  3 37  1  0
  7 38  1  0
  7 39  1  0
 10 40  1  0
 13 41  1  0
 14 42  1  0
 17 43  1  0
 19 44  1  0
 19 45  1  0
 20 46  1  0
 20 47  1  0
 21 48  1  1
 22 49  1  0
 22 50  1  0
 23 51  1  0
 27 52  1  0
 28 53  1  0
 29 54  1  0
 30 55  1  0
 31 56  1  0
M  END
$$$$
