
     RDKit          3D

 49 51  0  0  0  0  0  0  0  0999 V2000
   -6.6659   -1.4669    2.0249 C   0  0  0  0  0  0  0  0  0  0  0  0
   -5.4381   -1.1850    1.4258 O   0  0  0  0  0  0  0  0  0  0  0  0
   -4.7875   -2.1180    0.6584 C   0  0  0  0  0  0  0  0  0  0  0  0
   -5.3554   -3.2343    0.5292 O   0  0  0  0  0  0  0  0  0  0  0  0
   -3.5126   -1.8351    0.0266 C   0  0  0  0  0  0  0  0  0  0  0  0
   -2.8868   -2.7797   -0.7901 C   0  0  0  0  0  0  0  0  0  0  0  0
   -1.7222   -2.5201   -1.4122 N   0  0  0  0  0  0  0  0  0  0  0  0
   -1.0837   -1.3342   -1.2885 C   0  0  0  0  0  0  0  0  0  0  0  0
    0.1376   -1.1088   -1.9807 N   0  0  0  0  0  0  0  0  0  0  0  0
    0.8284    0.1250   -1.8632 C   0  0  0  0  0  0  0  0  0  0  0  0
    0.2373    1.3022   -2.3272 C   0  0  0  0  0  0  0  0  0  0  0  0
    0.8769    2.4735   -2.2451 N   0  0  0  0  0  0  0  0  0  0  0  0
    2.0997    2.5135   -1.7101 C   0  0  0  0  0  0  0  0  0  0  0  0
    2.8252    3.7621   -1.6185 C   0  0  0  0  0  0  0  0  0  0  0  0
    3.4011    4.7711   -1.5266 N   0  0  0  0  0  0  0  0  0  0  0  0
    2.7301    1.3659   -1.2333 C   0  0  0  0  0  0  0  0  0  0  0  0
    4.0014    1.4631   -0.6887 O   0  0  0  0  0  0  0  0  0  0  0  0
    4.6520    0.2978   -0.2267 C   0  0  2  0  0  0  0  0  0  0  0  0
    5.0822    0.4487    1.1965 C   0  0  0  0  0  0  0  0  0  0  0  0
    6.2742   -0.5159    1.2732 C   0  0  0  0  0  0  0  0  0  0  0  0
    6.9435   -0.3142    0.0223 N   0  0  0  0  0  0  0  0  0  0  0  0
    5.9776    0.1054   -0.9433 C   0  0  0  0  0  0  0  0  0  0  0  0
    2.0420    0.2197   -1.3411 N   0  0  0  0  0  0  0  0  0  0  0  0
   -1.6855   -0.3948   -0.4875 C   0  0  0  0  0  0  0  0  0  0  0  0
   -2.9024   -0.6240    0.1822 C   0  0  0  0  0  0  0  0  0  0  0  0
   -3.3965    0.4038    1.0078 N   0  0  0  0  0  0  0  0  0  0  0  0
   -3.3044    0.2430    2.4468 C   0  0  0  0  0  0  0  0  0  0  0  0
   -3.9932    1.6084    0.5098 C   0  0  0  0  0  0  0  0  0  0  0  0
   -6.4482   -1.9060    3.0219 H   0  0  0  0  0  0  0  0  0  0  0  0
   -7.3086   -2.1568    1.4678 H   0  0  0  0  0  0  0  0  0  0  0  0
   -7.2148   -0.5077    2.2631 H   0  0  0  0  0  0  0  0  0  0  0  0
   -3.3920   -3.7181   -0.8881 H   0  0  0  0  0  0  0  0  0  0  0  0
    0.5707   -1.8413   -2.5977 H   0  0  0  0  0  0  0  0  0  0  0  0
   -0.7517    1.1966   -2.7455 H   0  0  0  0  0  0  0  0  0  0  0  0
    4.0183   -0.6053   -0.3402 H   0  0  0  0  0  0  0  0  0  0  0  0
    4.3280    0.1421    1.9425 H   0  0  0  0  0  0  0  0  0  0  0  0
    5.4796    1.4751    1.3993 H   0  0  0  0  0  0  0  0  0  0  0  0
    5.8612   -1.5478    1.3906 H   0  0  0  0  0  0  0  0  0  0  0  0
    6.9470   -0.2374    2.1252 H   0  0  0  0  0  0  0  0  0  0  0  0
    7.6951    0.4009    0.1514 H   0  0  0  0  0  0  0  0  0  0  0  0
    6.3126    1.0951   -1.3697 H   0  0  0  0  0  0  0  0  0  0  0  0
    5.8887   -0.6550   -1.7424 H   0  0  0  0  0  0  0  0  0  0  0  0
   -1.1591    0.5536   -0.3987 H   0  0  0  0  0  0  0  0  0  0  0  0
   -2.4818    0.9226    2.8541 H   0  0  0  0  0  0  0  0  0  0  0  0
   -3.0508   -0.8087    2.6754 H   0  0  0  0  0  0  0  0  0  0  0  0
   -4.2045    0.6102    2.9869 H   0  0  0  0  0  0  0  0  0  0  0  0
   -3.2665    2.4389    0.4000 H   0  0  0  0  0  0  0  0  0  0  0  0
   -4.4191    1.4646   -0.5244 H   0  0  0  0  0  0  0  0  0  0  0  0
   -4.7789    2.0125    1.2140 H   0  0  0  0  0  0  0  0  0  0  0  0
  1  2  1  0
  2  3  1  0
  3  4  2  0
  3  5  1  0
  5  6  2  0
  6  7  1  0
  7  8  2  0
  8  9  1  0
  9 10  1  0
 10 11  2  0
 11 12  1  0
 12 13  2  0
 13 14  1  0
 14 15  3  0
 13 16  1  0
 16 17  1  0
 17 18  1  0
 18 19  1  0
 19 20  1  0
 20 21  1  0
 21 22  1  0
 16 23  2  0
  8 24  1  0
 24 25  2  0
 25 26  1  0
 26 27  1  0
 26 28  1  0
 25  5  1  0
 23 10  1  0
 22 18  1  0
  1 29  1  0
  1 30  1  0
  1 31  1  0
  6 32  1  0
  9 33  1  0
 11 34  1  0
 18 35  1  1
 19 36  1  0
 19 37  1  0
 20 38  1  0
 20 39  1  0
 21 40  1  0
 22 41  1  0
 22 42  1  0
 24 43  1  0
 27 44  1  0
 27 45  1  0
 27 46  1  0
 28 47  1  0
 28 48  1  0
 28 49  1  0
M  END
$$$$
