
     RDKit          3D

 67 69  0  0  0  0  0  0  0  0999 V2000
   -1.1485   -4.2461   -2.6622 C   0  0  0  0  0  0  0  0  0  0  0  0
   -2.2175   -3.9349   -1.6809 C   0  0  0  0  0  0  0  0  0  0  0  0
   -3.3519   -4.6210   -1.3571 N   0  0  0  0  0  0  0  0  0  0  0  0
   -4.0838   -3.8937   -0.5954 N   0  0  0  0  0  0  0  0  0  0  0  0
   -5.3227   -4.2627    0.1534 C   0  0  0  0  0  0  0  0  0  0  0  0
   -3.5280   -2.6456   -0.3489 C   0  0  0  0  0  0  0  0  0  0  0  0
   -3.8920   -1.5678    0.3180 N   0  0  0  0  0  0  0  0  0  0  0  0
   -3.0464   -0.4766    0.3508 C   0  0  0  0  0  0  0  0  0  0  0  0
   -3.7366    0.8357    0.6226 N   0  0  0  0  0  0  0  0  0  0  0  0
   -3.1872    1.9925    0.0173 C   0  0  0  0  0  0  0  0  0  0  0  0
   -5.0352    0.6483    1.1132 C   0  0  0  0  0  0  0  0  0  0  0  0
   -5.7319    1.7127    1.8806 C   0  0  0  0  0  0  0  0  0  0  0  0
   -6.0412    2.7678    0.8692 N   0  0  0  0  0  0  0  0  0  0  0  0
   -7.0167    3.6967    1.3646 C   0  0  0  0  0  0  0  0  0  0  0  0
   -6.6692    2.0687   -0.2806 C   0  0  0  0  0  0  0  0  0  0  0  0
   -1.8420   -0.4952   -0.2579 C   0  0  0  0  0  0  0  0  0  0  0  0
   -0.8432    0.3843    0.2652 C   0  0  0  0  0  0  0  0  0  0  0  0
   -0.6594    1.0984    1.1118 O   0  0  0  0  0  0  0  0  0  0  0  0
    0.5708    0.2203   -0.7467 N   0  0  0  0  0  0  0  0  0  0  0  0
    1.5536    0.4655    0.3195 C   0  0  0  0  0  0  0  0  0  0  0  0
    1.4600    0.4662    1.4506 O   0  0  0  0  0  0  0  0  0  0  0  0
    2.8368    0.7559   -0.3777 N   0  0  0  0  0  0  0  0  0  0  0  0
    4.0370    0.8434    0.2647 C   0  0  0  0  0  0  0  0  0  0  0  0
    4.2311    0.9718    1.6044 C   0  0  0  0  0  0  0  0  0  0  0  0
    5.4393    0.8572    2.2085 C   0  0  0  0  0  0  0  0  0  0  0  0
    6.5601    0.5945    1.3998 C   0  0  0  0  0  0  0  0  0  0  0  0
    6.4503    0.4805    0.0506 C   0  0  0  0  0  0  0  0  0  0  0  0
    7.5668    0.2585   -0.7692 O   0  0  0  0  0  0  0  0  0  0  0  0
    8.8890    0.2190   -0.3464 C   0  0  0  0  0  0  0  0  0  0  0  0
    9.7249   -0.6931   -1.1828 C   0  0  0  0  0  0  0  0  0  0  0  0
    9.4800    1.6295   -0.3495 C   0  0  0  0  0  0  0  0  0  0  0  0
    5.1894    0.5937   -0.5258 C   0  0  0  0  0  0  0  0  0  0  0  0
   -1.4566   -1.6559   -0.9943 C   0  0  0  0  0  0  0  0  0  0  0  0
   -2.3324   -2.7034   -1.0327 C   0  0  0  0  0  0  0  0  0  0  0  0
   -0.8104   -3.2592   -3.1462 H   0  0  0  0  0  0  0  0  0  0  0  0
   -0.3491   -4.8334   -2.3452 H   0  0  0  0  0  0  0  0  0  0  0  0
   -1.7556   -4.6643   -3.5635 H   0  0  0  0  0  0  0  0  0  0  0  0
   -6.0433   -3.4957    0.0477 H   0  0  0  0  0  0  0  0  0  0  0  0
   -5.6594   -5.2565   -0.0675 H   0  0  0  0  0  0  0  0  0  0  0  0
   -5.0249   -4.2988    1.2657 H   0  0  0  0  0  0  0  0  0  0  0  0
   -2.5519    1.7513   -0.8413 H   0  0  0  0  0  0  0  0  0  0  0  0
   -2.6368    2.6443    0.7731 H   0  0  0  0  0  0  0  0  0  0  0  0
   -3.9428    2.7060   -0.4318 H   0  0  0  0  0  0  0  0  0  0  0  0
   -5.6609    0.2133    0.3087 H   0  0  0  0  0  0  0  0  0  0  0  0
   -4.9825   -0.2949    1.8216 H   0  0  0  0  0  0  0  0  0  0  0  0
   -6.6968    1.3220    2.1743 H   0  0  0  0  0  0  0  0  0  0  0  0
   -5.2039    2.1529    2.7222 H   0  0  0  0  0  0  0  0  0  0  0  0
   -8.0401    3.1611    1.3137 H   0  0  0  0  0  0  0  0  0  0  0  0
   -6.8839    4.0399    2.3685 H   0  0  0  0  0  0  0  0  0  0  0  0
   -7.1399    4.5446    0.6341 H   0  0  0  0  0  0  0  0  0  0  0  0
   -7.2425    2.8151   -0.8489 H   0  0  0  0  0  0  0  0  0  0  0  0
   -5.8859    1.6445   -0.9805 H   0  0  0  0  0  0  0  0  0  0  0  0
   -7.3574    1.2875    0.0444 H   0  0  0  0  0  0  0  0  0  0  0  0
    0.0134    0.0824   -1.3312 H   0  0  0  0  0  0  0  0  0  0  0  0
    2.7104    0.8639   -1.4064 H   0  0  0  0  0  0  0  0  0  0  0  0
    3.3355    1.2852    2.1940 H   0  0  0  0  0  0  0  0  0  0  0  0
    5.5607    0.9549    3.2454 H   0  0  0  0  0  0  0  0  0  0  0  0
    7.5081    0.4554    1.8562 H   0  0  0  0  0  0  0  0  0  0  0  0
    8.9854   -0.0698    0.7146 H   0  0  0  0  0  0  0  0  0  0  0  0
   10.8002   -0.5839   -1.0284 H   0  0  0  0  0  0  0  0  0  0  0  0
    9.3829   -0.5596   -2.2425 H   0  0  0  0  0  0  0  0  0  0  0  0
    9.4465   -1.7337   -0.8963 H   0  0  0  0  0  0  0  0  0  0  0  0
    9.3554    2.1749   -1.2505 H   0  0  0  0  0  0  0  0  0  0  0  0
   10.4714    1.6198    0.0478 H   0  0  0  0  0  0  0  0  0  0  0  0
    8.8788    2.2127    0.4266 H   0  0  0  0  0  0  0  0  0  0  0  0
    5.0880    0.4380   -1.5986 H   0  0  0  0  0  0  0  0  0  0  0  0
   -0.5154   -1.6850   -1.4766 H   0  0  0  0  0  0  0  0  0  0  0  0
  1  2  1  0
  2  3  2  0
  3  4  1  0
  4  5  1  0
  4  6  1  0
  6  7  2  0
  7  8  1  0
  8  9  1  0
  9 10  1  0
  9 11  1  0
 11 12  1  0
 12 13  1  0
 13 14  1  0
 13 15  1  0
  8 16  2  0
 16 17  1  0
 17 18  2  0
 17 19  1  0
 19 20  1  0
 20 21  2  0
 20 22  1  0
 22 23  1  0
 23 24  2  0
 24 25  1  0
 25 26  2  0
 26 27  1  0
 27 28  1  0
 28 29  1  0
 29 30  1  0
 29 31  1  0
 27 32  2  0
 16 33  1  0
 33 34  2  0
 34  2  1  0
 34  6  1  0
 32 23  1  0
  1 35  1  0
  1 36  1  0
  1 37  1  0
  5 38  1  0
  5 39  1  0
  5 40  1  0
 10 41  1  0
 10 42  1  0
 10 43  1  0
 11 44  1  0
 11 45  1  0
 12 46  1  0
 12 47  1  0
 14 48  1  0
 14 49  1  0
 14 50  1  0
 15 51  1  0
 15 52  1  0
 15 53  1  0
 19 54  1  0
 22 55  1  0
 24 56  1  0
 25 57  1  0
 26 58  1  0
 29 59  1  0
 30 60  1  0
 30 61  1  0
 30 62  1  0
 31 63  1  0
 31 64  1  0
 31 65  1  0
 32 66  1  0
 33 67  1  0
M  END
$$$$
