
     RDKit          3D

 32 34  0  0  0  0  0  0  0  0999 V2000
   -2.4965    0.3880    0.2219 C   0  0  1  0  0  0  0  0  0  0  0  0
   -3.3877    0.9784    1.2671 C   0  0  0  0  0  0  0  0  0  0  0  0
   -3.2389    2.3625    1.2822 O   0  0  0  0  0  0  0  0  0  0  0  0
   -1.1398    0.6773    0.4565 O   0  0  0  0  0  0  0  0  0  0  0  0
   -0.5672   -0.0558   -0.5882 C   0  0  1  0  0  0  0  0  0  0  0  0
    0.8962    0.0149   -0.6388 C   0  0  0  0  0  0  0  0  0  0  0  0
    1.6013   -0.1293   -1.8283 C   0  0  0  0  0  0  0  0  0  0  0  0
    2.9189   -0.0189   -1.5687 N   0  0  0  0  0  0  0  0  0  0  0  0
    3.0609    0.1884   -0.2633 C   0  0  0  0  0  0  0  0  0  0  0  0
    1.8310    0.2132    0.3295 C   0  0  0  0  0  0  0  0  0  0  0  0
    1.6801    0.4101    1.6689 N   0  0  0  0  0  0  0  0  0  0  0  0
    2.8022    0.5843    2.4143 C   0  0  0  0  0  0  0  0  0  0  0  0
    4.0356    0.5639    1.8488 N   0  0  0  0  0  0  0  0  0  0  0  0
    4.1804    0.3698    0.5299 C   0  0  0  0  0  0  0  0  0  0  0  0
    5.4393    0.3514   -0.0312 O   0  0  0  0  0  0  0  0  0  0  0  0
   -1.1235   -1.4261   -0.3615 C   0  0  2  0  0  0  0  0  0  0  0  0
   -1.3133   -2.0957   -1.5546 O   0  0  0  0  0  0  0  0  0  0  0  0
   -2.4969   -1.1103    0.2449 C   0  0  2  0  0  0  0  0  0  0  0  0
   -3.5318   -1.5929   -0.5151 O   0  0  0  0  0  0  0  0  0  0  0  0
   -2.7337    0.8261   -0.7461 H   0  0  0  0  0  0  0  0  0  0  0  0
   -3.2783    0.5616    2.2678 H   0  0  0  0  0  0  0  0  0  0  0  0
   -4.4338    0.7914    0.9228 H   0  0  0  0  0  0  0  0  0  0  0  0
   -3.4516    2.7358    0.3888 H   0  0  0  0  0  0  0  0  0  0  0  0
   -1.0109    0.3534   -1.5176 H   0  0  0  0  0  0  0  0  0  0  0  0
    1.1787   -0.3043   -2.8242 H   0  0  0  0  0  0  0  0  0  0  0  0
    3.7009   -0.0847   -2.2726 H   0  0  0  0  0  0  0  0  0  0  0  0
    2.7605    0.7451    3.4802 H   0  0  0  0  0  0  0  0  0  0  0  0
    5.7306    0.9276   -0.8223 H   0  0  0  0  0  0  0  0  0  0  0  0
   -0.5263   -2.0255    0.3616 H   0  0  0  0  0  0  0  0  0  0  0  0
   -1.3247   -1.4394   -2.3056 H   0  0  0  0  0  0  0  0  0  0  0  0
   -2.4993   -1.4362    1.2987 H   0  0  0  0  0  0  0  0  0  0  0  0
   -3.2625   -2.3242   -1.1458 H   0  0  0  0  0  0  0  0  0  0  0  0
  1  2  1  0
  2  3  1  0
  1  4  1  0
  4  5  1  0
  5  6  1  0
  6  7  2  0
  7  8  1  0
  8  9  1  0
  9 10  2  0
 10 11  1  0
 11 12  2  0
 12 13  1  0
 13 14  2  0
 14 15  1  0
  5 16  1  0
 16 17  1  0
 16 18  1  0
 18 19  1  0
 18  1  1  0
 10  6  1  0
 14  9  1  0
  1 20  1  6
  2 21  1  0
  2 22  1  0
  3 23  1  0
  5 24  1  6
  7 25  1  0
  8 26  1  0
 12 27  1  0
 15 28  1  0
 16 29  1  1
 17 30  1  0
 18 31  1  1
 19 32  1  0
M  END
$$$$
