
     RDKit          3D

 68 69  0  0  0  0  0  0  0  0999 V2000
   -3.3196    2.9617    0.7986 C   0  0  1  0  0  0  0  0  0  0  0  0
   -4.3640    2.4623    0.0498 O   0  0  0  0  0  0  0  0  0  0  0  0
   -2.5537    1.7468    1.3474 C   0  0  0  0  0  0  0  0  0  0  0  0
   -2.1154    0.9602    0.1418 C   0  0  2  0  0  0  0  0  0  0  0  0
   -1.3807   -0.1482    0.6205 O   0  0  0  0  0  0  0  0  0  0  0  0
   -1.9063   -1.3376    0.2146 C   0  0  2  0  0  0  0  0  0  0  0  0
   -2.2807   -2.1819    1.4060 C   0  0  1  0  0  0  0  0  0  0  0  0
   -3.2870   -1.5808    2.2219 N   0  0  0  0  0  0  0  0  0  0  0  0
   -2.7360   -3.5374    0.8584 C   0  0  1  0  0  0  0  0  0  0  0  0
   -3.7435   -3.2918   -0.0675 O   0  0  0  0  0  0  0  0  0  0  0  0
   -1.5720   -4.1151    0.0880 C   0  0  1  0  0  0  0  0  0  0  0  0
   -1.8490   -5.5497   -0.3257 C   0  0  0  0  0  0  0  0  0  0  0  0
   -0.7374   -5.9640   -1.0819 O   0  0  0  0  0  0  0  0  0  0  0  0
   -1.4145   -3.3052   -1.0640 O   0  0  0  0  0  0  0  0  0  0  0  0
   -0.8475   -2.1165   -0.5535 C   0  0  1  0  0  0  0  0  0  0  0  0
   -0.3172   -1.4040   -1.5913 O   0  0  0  0  0  0  0  0  0  0  0  0
    1.0398   -1.2720   -1.5305 C   0  0  0  0  0  0  0  0  0  0  0  0
    1.5826   -0.5575   -0.3240 C   0  0  0  0  0  0  0  0  0  0  0  0
    3.1097   -0.5057   -0.4246 C   0  0  0  0  0  0  0  0  0  0  0  0
    3.6631    0.2038    0.7722 C   0  0  0  0  0  0  0  0  0  0  0  0
    5.1559    0.3024    0.7599 C   0  0  0  0  0  0  0  0  0  0  0  0
    5.6764    1.0540   -0.4451 C   0  0  0  0  0  0  0  0  0  0  0  0
    5.1492    2.4730   -0.4992 C   0  0  0  0  0  0  0  0  0  0  0  0
    5.5350    3.2749    0.7013 C   0  0  0  0  0  0  0  0  0  0  0  0
   -1.2148    1.6939   -0.6289 O   0  0  0  0  0  0  0  0  0  0  0  0
   -1.6702    2.8928   -1.0899 C   0  0  1  0  0  0  0  0  0  0  0  0
   -2.5049    2.8214   -2.3396 C   0  0  0  0  0  0  0  0  0  0  0  0
   -2.3681    3.7311   -0.0495 C   0  0  1  0  0  0  0  0  0  0  0  0
   -3.1078    4.6912   -0.7668 O   0  0  0  0  0  0  0  0  0  0  0  0
   -3.6432    3.6257    1.6270 H   0  0  0  0  0  0  0  0  0  0  0  0
   -5.0377    1.9845    0.5605 H   0  0  0  0  0  0  0  0  0  0  0  0
   -3.1751    1.1588    2.0178 H   0  0  0  0  0  0  0  0  0  0  0  0
   -1.6232    2.1298    1.8200 H   0  0  0  0  0  0  0  0  0  0  0  0
   -3.0020    0.6621   -0.4412 H   0  0  0  0  0  0  0  0  0  0  0  0
   -2.8164   -1.1842   -0.4129 H   0  0  0  0  0  0  0  0  0  0  0  0
   -1.3346   -2.3503    1.9718 H   0  0  0  0  0  0  0  0  0  0  0  0
   -4.0107   -1.0680    1.7082 H   0  0  0  0  0  0  0  0  0  0  0  0
   -3.7554   -2.3357    2.7893 H   0  0  0  0  0  0  0  0  0  0  0  0
   -3.0622   -4.1889    1.6853 H   0  0  0  0  0  0  0  0  0  0  0  0
   -4.5368   -3.8425    0.0368 H   0  0  0  0  0  0  0  0  0  0  0  0
   -0.6672   -4.0758    0.7276 H   0  0  0  0  0  0  0  0  0  0  0  0
   -2.7128   -5.6389   -0.9837 H   0  0  0  0  0  0  0  0  0  0  0  0
   -1.8623   -6.1711    0.5844 H   0  0  0  0  0  0  0  0  0  0  0  0
    0.0736   -5.5149   -0.7320 H   0  0  0  0  0  0  0  0  0  0  0  0
   -0.0795   -2.4322    0.1614 H   0  0  0  0  0  0  0  0  0  0  0  0
    1.4579   -0.7281   -2.4173 H   0  0  0  0  0  0  0  0  0  0  0  0
    1.5124   -2.2840   -1.5468 H   0  0  0  0  0  0  0  0  0  0  0  0
    1.1910    0.4825   -0.2732 H   0  0  0  0  0  0  0  0  0  0  0  0
    1.3289   -1.0943    0.5883 H   0  0  0  0  0  0  0  0  0  0  0  0
    3.3224    0.1169   -1.3346 H   0  0  0  0  0  0  0  0  0  0  0  0
    3.4588   -1.5331   -0.5395 H   0  0  0  0  0  0  0  0  0  0  0  0
    3.1538    1.1721    0.8848 H   0  0  0  0  0  0  0  0  0  0  0  0
    3.4005   -0.4356    1.6596 H   0  0  0  0  0  0  0  0  0  0  0  0
    5.5399   -0.7456    0.6476 H   0  0  0  0  0  0  0  0  0  0  0  0
    5.5338    0.6719    1.7120 H   0  0  0  0  0  0  0  0  0  0  0  0
    5.3207    0.5229   -1.3516 H   0  0  0  0  0  0  0  0  0  0  0  0
    6.7793    1.0331   -0.4560 H   0  0  0  0  0  0  0  0  0  0  0  0
    5.6335    2.9485   -1.3827 H   0  0  0  0  0  0  0  0  0  0  0  0
    4.0681    2.4923   -0.6956 H   0  0  0  0  0  0  0  0  0  0  0  0
    4.7723    3.2723    1.5087 H   0  0  0  0  0  0  0  0  0  0  0  0
    6.5363    2.9648    1.0757 H   0  0  0  0  0  0  0  0  0  0  0  0
    5.6344    4.3346    0.3990 H   0  0  0  0  0  0  0  0  0  0  0  0
   -0.7522    3.4887   -1.3713 H   0  0  0  0  0  0  0  0  0  0  0  0
   -2.1748    2.0222   -3.0304 H   0  0  0  0  0  0  0  0  0  0  0  0
   -2.4056    3.7832   -2.9245 H   0  0  0  0  0  0  0  0  0  0  0  0
   -3.6007    2.7592   -2.1391 H   0  0  0  0  0  0  0  0  0  0  0  0
   -1.6240    4.2412    0.5926 H   0  0  0  0  0  0  0  0  0  0  0  0
   -2.4630    5.3533   -1.1228 H   0  0  0  0  0  0  0  0  0  0  0  0
  1  2  1  0
  1  3  1  0
  3  4  1  0
  4  5  1  0
  5  6  1  0
  6  7  1  0
  7  8  1  0
  7  9  1  0
  9 10  1  0
  9 11  1  0
 11 12  1  0
 12 13  1  0
 11 14  1  0
 14 15  1  0
 15 16  1  0
 16 17  1  0
 17 18  1  0
 18 19  1  0
 19 20  1  0
 20 21  1  0
 21 22  1  0
 22 23  1  0
 23 24  1  0
  4 25  1  0
 25 26  1  0
 26 27  1  0
 26 28  1  0
 28 29  1  0
 28  1  1  0
 15  6  1  0
  1 30  1  1
  2 31  1  0
  3 32  1  0
  3 33  1  0
  4 34  1  6
  6 35  1  6
  7 36  1  1
  8 37  1  0
  8 38  1  0
  9 39  1  1
 10 40  1  0
 11 41  1  1
 12 42  1  0
 12 43  1  0
 13 44  1  0
 15 45  1  1
 17 46  1  0
 17 47  1  0
 18 48  1  0
 18 49  1  0
 19 50  1  0
 19 51  1  0
 20 52  1  0
 20 53  1  0
 21 54  1  0
 21 55  1  0
 22 56  1  0
 22 57  1  0
 23 58  1  0
 23 59  1  0
 24 60  1  0
 24 61  1  0
 24 62  1  0
 26 63  1  6
 27 64  1  0
 27 65  1  0
 27 66  1  0
 28 67  1  1
 29 68  1  0
M  END
$$$$
