
     RDKit          3D

 49 51  0  0  0  0  0  0  0  0999 V2000
   -3.7334    3.3405   -0.4577 C   0  0  0  0  0  0  0  0  0  0  0  0
   -4.4524    2.1397   -0.2643 O   0  0  0  0  0  0  0  0  0  0  0  0
   -3.7678    0.9365   -0.2694 C   0  0  0  0  0  0  0  0  0  0  0  0
   -2.3988    0.8999   -0.4610 C   0  0  0  0  0  0  0  0  0  0  0  0
   -1.6730   -0.2800   -0.4735 C   0  0  0  0  0  0  0  0  0  0  0  0
   -0.2736   -0.2733   -0.6726 N   0  0  0  0  0  0  0  0  0  0  0  0
    0.4314    0.9651   -0.8668 C   0  0  0  0  0  0  0  0  0  0  0  0
    1.8770    0.8117   -1.0624 C   0  0  0  0  0  0  0  0  0  0  0  0
    2.4890    0.9510   -2.2812 C   0  0  0  0  0  0  0  0  0  0  0  0
    3.8129    0.8149   -2.4119 N   0  0  0  0  0  0  0  0  0  0  0  0
    4.6095    0.5363   -1.3628 C   0  0  0  0  0  0  0  0  0  0  0  0
    5.9385    0.4067   -1.5107 N   0  0  0  0  0  0  0  0  0  0  0  0
    6.7213    0.1331   -0.4576 C   0  0  0  0  0  0  0  0  0  0  0  0
    8.1399   -0.0106   -0.5860 N   0  0  0  0  0  0  0  0  0  0  0  0
    6.2063   -0.0180    0.7639 N   0  0  0  0  0  0  0  0  0  0  0  0
    4.8528    0.1009    0.9898 C   0  0  0  0  0  0  0  0  0  0  0  0
    4.3985   -0.0700    2.3109 N   0  0  0  0  0  0  0  0  0  0  0  0
    4.0677    0.3789   -0.0894 C   0  0  0  0  0  0  0  0  0  0  0  0
    2.6862    0.5216    0.0394 C   0  0  0  0  0  0  0  0  0  0  0  0
    2.0899    0.3442    1.3868 C   0  0  0  0  0  0  0  0  0  0  0  0
   -2.3848   -1.4532   -0.2824 C   0  0  0  0  0  0  0  0  0  0  0  0
   -3.7481   -1.4911   -0.0859 C   0  0  0  0  0  0  0  0  0  0  0  0
   -4.4393   -2.6847    0.1038 O   0  0  0  0  0  0  0  0  0  0  0  0
   -3.6848   -3.8819    0.0885 C   0  0  0  0  0  0  0  0  0  0  0  0
   -4.4120   -0.2718   -0.0852 C   0  0  0  0  0  0  0  0  0  0  0  0
   -5.7645   -0.2665    0.1064 O   0  0  0  0  0  0  0  0  0  0  0  0
   -6.4386   -0.1779    1.3274 C   0  0  0  0  0  0  0  0  0  0  0  0
   -3.2183    3.4017   -1.4161 H   0  0  0  0  0  0  0  0  0  0  0  0
   -4.5009    4.1647   -0.4161 H   0  0  0  0  0  0  0  0  0  0  0  0
   -2.9912    3.5328    0.3400 H   0  0  0  0  0  0  0  0  0  0  0  0
   -1.8643    1.8160   -0.6071 H   0  0  0  0  0  0  0  0  0  0  0  0
    0.2588   -1.1615   -0.6806 H   0  0  0  0  0  0  0  0  0  0  0  0
    0.2393    1.6385   -0.0097 H   0  0  0  0  0  0  0  0  0  0  0  0
    0.0585    1.4854   -1.8099 H   0  0  0  0  0  0  0  0  0  0  0  0
    1.8454    1.1761   -3.1283 H   0  0  0  0  0  0  0  0  0  0  0  0
    8.4995   -0.2800   -1.5250 H   0  0  0  0  0  0  0  0  0  0  0  0
    8.7981    0.1364    0.1871 H   0  0  0  0  0  0  0  0  0  0  0  0
    4.1439    0.6545    2.9926 H   0  0  0  0  0  0  0  0  0  0  0  0
    4.3306   -1.0767    2.6594 H   0  0  0  0  0  0  0  0  0  0  0  0
    2.2507   -0.6456    1.8362 H   0  0  0  0  0  0  0  0  0  0  0  0
    0.9548    0.3105    1.2037 H   0  0  0  0  0  0  0  0  0  0  0  0
    2.1792    1.2162    2.0408 H   0  0  0  0  0  0  0  0  0  0  0  0
   -1.8372   -2.3853   -0.2885 H   0  0  0  0  0  0  0  0  0  0  0  0
   -2.8910   -3.8723    0.8916 H   0  0  0  0  0  0  0  0  0  0  0  0
   -4.3032   -4.7826    0.1622 H   0  0  0  0  0  0  0  0  0  0  0  0
   -3.0989   -3.9731   -0.8714 H   0  0  0  0  0  0  0  0  0  0  0  0
   -6.0373   -0.8575    2.1000 H   0  0  0  0  0  0  0  0  0  0  0  0
   -7.5008   -0.5004    1.1393 H   0  0  0  0  0  0  0  0  0  0  0  0
   -6.4657    0.8282    1.7638 H   0  0  0  0  0  0  0  0  0  0  0  0
  1  2  1  0
  2  3  1  0
  3  4  2  0
  4  5  1  0
  5  6  1  0
  6  7  1  0
  7  8  1  0
  8  9  2  0
  9 10  1  0
 10 11  2  0
 11 12  1  0
 12 13  2  0
 13 14  1  0
 13 15  1  0
 15 16  2  0
 16 17  1  0
 16 18  1  0
 18 19  2  0
 19 20  1  0
  5 21  2  0
 21 22  1  0
 22 23  1  0
 23 24  1  0
 22 25  2  0
 25 26  1  0
 26 27  1  0
 25  3  1  0
 19  8  1  0
 18 11  1  0
  1 28  1  0
  1 29  1  0
  1 30  1  0
  4 31  1  0
  6 32  1  0
  7 33  1  0
  7 34  1  0
  9 35  1  0
 14 36  1  0
 14 37  1  0
 17 38  1  0
 17 39  1  0
 20 40  1  0
 20 41  1  0
 20 42  1  0
 21 43  1  0
 24 44  1  0
 24 45  1  0
 24 46  1  0
 27 47  1  0
 27 48  1  0
 27 49  1  0
M  END
$$$$
