
     RDKit          3D

 48 51  0  0  0  0  0  0  0  0999 V2000
    6.8232   -0.9503   -0.9165 C   0  0  0  0  0  0  0  0  0  0  0  0
    5.8335   -2.0069   -0.4838 C   0  0  0  0  0  0  0  0  0  0  0  0
    4.4649   -1.5459   -0.6385 N   0  0  0  0  0  0  0  0  0  0  0  0
    3.7076   -0.8932    0.2726 C   0  0  0  0  0  0  0  0  0  0  0  0
    2.4695   -0.6369   -0.2704 C   0  0  0  0  0  0  0  0  0  0  0  0
    1.3750    0.0516    0.4076 C   0  0  0  0  0  0  0  0  0  0  0  0
    1.5000    0.5191    1.6989 C   0  0  0  0  0  0  0  0  0  0  0  0
    0.5103    1.1702    2.3832 C   0  0  0  0  0  0  0  0  0  0  0  0
    0.3801    1.7136    3.6206 N   0  0  0  0  0  0  0  0  0  0  0  0
   -0.8326    2.2265    3.7452 N   0  0  0  0  0  0  0  0  0  0  0  0
   -1.4099    2.9074    4.8990 C   0  0  0  0  0  0  0  0  0  0  0  0
   -1.5312    2.0382    2.6048 C   0  0  0  0  0  0  0  0  0  0  0  0
   -0.6938    1.3689    1.7288 C   0  0  0  0  0  0  0  0  0  0  0  0
   -0.8099    0.9007    0.4444 C   0  0  0  0  0  0  0  0  0  0  0  0
   -2.0335    1.1105   -0.2009 O   0  0  0  0  0  0  0  0  0  0  0  0
   -2.2682    0.6692   -1.5315 C   0  0  2  0  0  0  0  0  0  0  0  0
   -2.6688    1.8859   -2.3365 C   0  0  0  0  0  0  0  0  0  0  0  0
   -3.4418   -0.2776   -1.4751 C   0  0  1  0  0  0  0  0  0  0  0  0
   -3.7877   -0.8186   -2.8544 C   0  0  0  0  0  0  0  0  0  0  0  0
   -4.6348   -1.9444   -2.5161 N   0  0  0  0  0  0  0  0  0  0  0  0
   -4.1437   -2.4855   -1.2970 C   0  0  0  0  0  0  0  0  0  0  0  0
   -4.5496   -3.5740   -0.8057 O   0  0  0  0  0  0  0  0  0  0  0  0
   -3.0995   -1.5546   -0.7364 C   0  0  0  0  0  0  0  0  0  0  0  0
    0.1904    0.2631   -0.1962 N   0  0  0  0  0  0  0  0  0  0  0  0
    2.4987   -1.1567   -1.5450 C   0  0  0  0  0  0  0  0  0  0  0  0
    3.7382   -1.6999   -1.7198 N   0  0  0  0  0  0  0  0  0  0  0  0
    6.3768    0.0642   -0.9245 H   0  0  0  0  0  0  0  0  0  0  0  0
    7.7211   -1.0329   -0.2823 H   0  0  0  0  0  0  0  0  0  0  0  0
    7.1423   -1.1671   -1.9563 H   0  0  0  0  0  0  0  0  0  0  0  0
    6.0276   -2.3202    0.5742 H   0  0  0  0  0  0  0  0  0  0  0  0
    5.9676   -2.9242   -1.0995 H   0  0  0  0  0  0  0  0  0  0  0  0
    4.0539   -0.6370    1.2458 H   0  0  0  0  0  0  0  0  0  0  0  0
    2.4557    0.3593    2.2130 H   0  0  0  0  0  0  0  0  0  0  0  0
   -1.5298    4.0038    4.6953 H   0  0  0  0  0  0  0  0  0  0  0  0
   -2.3914    2.4533    5.0727 H   0  0  0  0  0  0  0  0  0  0  0  0
   -0.7621    2.8261    5.7842 H   0  0  0  0  0  0  0  0  0  0  0  0
   -2.5413    2.3252    2.3573 H   0  0  0  0  0  0  0  0  0  0  0  0
   -1.3912    0.1685   -1.9470 H   0  0  0  0  0  0  0  0  0  0  0  0
   -3.3219    2.5094   -1.7022 H   0  0  0  0  0  0  0  0  0  0  0  0
   -3.1310    1.5874   -3.2781 H   0  0  0  0  0  0  0  0  0  0  0  0
   -1.7190    2.4730   -2.4918 H   0  0  0  0  0  0  0  0  0  0  0  0
   -4.3245    0.1516   -1.0033 H   0  0  0  0  0  0  0  0  0  0  0  0
   -4.2745   -0.0877   -3.4974 H   0  0  0  0  0  0  0  0  0  0  0  0
   -2.8619   -1.2551   -3.3149 H   0  0  0  0  0  0  0  0  0  0  0  0
   -5.4434   -2.2628   -3.0896 H   0  0  0  0  0  0  0  0  0  0  0  0
   -3.2227   -1.4450    0.3597 H   0  0  0  0  0  0  0  0  0  0  0  0
   -2.1134   -1.9311   -1.0351 H   0  0  0  0  0  0  0  0  0  0  0  0
    1.6967   -1.1392   -2.2688 H   0  0  0  0  0  0  0  0  0  0  0  0
  1  2  1  0
  2  3  1  0
  3  4  1  0
  4  5  2  0
  5  6  1  0
  6  7  2  0
  7  8  1  0
  8  9  2  0
  9 10  1  0
 10 11  1  0
 10 12  1  0
 12 13  2  0
 13 14  1  0
 14 15  1  0
 15 16  1  0
 16 17  1  0
 16 18  1  0
 18 19  1  0
 19 20  1  0
 20 21  1  0
 21 22  2  0
 21 23  1  0
 14 24  2  0
  5 25  1  0
 25 26  2  0
 26  3  1  0
 24  6  1  0
 13  8  1  0
 23 18  1  0
  1 27  1  0
  1 28  1  0
  1 29  1  0
  2 30  1  0
  2 31  1  0
  4 32  1  0
  7 33  1  0
 11 34  1  0
 11 35  1  0
 11 36  1  0
 12 37  1  0
 16 38  1  6
 17 39  1  0
 17 40  1  0
 17 41  1  0
 18 42  1  1
 19 43  1  0
 19 44  1  0
 20 45  1  0
 23 46  1  0
 23 47  1  0
 25 48  1  0
M  END
$$$$
