
     RDKit          3D

 29 31  0  0  0  0  0  0  0  0999 V2000
   -4.1229   -2.0266    1.5353 O   0  0  0  0  0  0  0  0  0  0  0  0
   -2.9333   -1.4670    1.0891 C   0  0  0  0  0  0  0  0  0  0  0  0
   -2.6962   -0.8051   -0.1185 C   0  0  0  0  0  0  0  0  0  0  0  0
   -1.4350   -0.3136   -0.3850 C   0  0  0  0  0  0  0  0  0  0  0  0
   -0.4447   -0.4937    0.5551 C   0  0  0  0  0  0  0  0  0  0  0  0
   -0.6265   -1.1378    1.7600 C   0  0  0  0  0  0  0  0  0  0  0  0
    0.3708   -1.2719    2.6155 O   0  0  0  0  0  0  0  0  0  0  0  0
    1.5658   -0.7927    2.3382 C   0  0  0  0  0  0  0  0  0  0  0  0
    2.4244   -0.9861    3.2345 O   0  0  0  0  0  0  0  0  0  0  0  0
    1.7936   -0.1427    1.1478 C   0  0  0  0  0  0  0  0  0  0  0  0
    0.7777    0.0312    0.1990 C   0  0  0  0  0  0  0  0  0  0  0  0
    1.1772    0.7136   -1.0212 C   0  0  0  0  0  0  0  0  0  0  0  0
    1.0367    0.3576   -2.3467 C   0  0  0  0  0  0  0  0  0  0  0  0
    1.4890    1.1928   -3.3433 C   0  0  0  0  0  0  0  0  0  0  0  0
    2.0968    2.4086   -3.0786 C   0  0  0  0  0  0  0  0  0  0  0  0
    2.2381    2.7639   -1.7705 C   0  0  0  0  0  0  0  0  0  0  0  0
    1.7911    1.9407   -0.7604 C   0  0  0  0  0  0  0  0  0  0  0  0
   -1.9085   -1.6209    1.9974 C   0  0  0  0  0  0  0  0  0  0  0  0
   -2.0379   -2.2688    3.2398 O   0  0  0  0  0  0  0  0  0  0  0  0
   -5.0385   -1.7451    1.2005 H   0  0  0  0  0  0  0  0  0  0  0  0
   -3.5526   -0.7394   -0.7506 H   0  0  0  0  0  0  0  0  0  0  0  0
   -1.2881    0.1922   -1.3082 H   0  0  0  0  0  0  0  0  0  0  0  0
    2.8340    0.1930    1.0729 H   0  0  0  0  0  0  0  0  0  0  0  0
    0.5707   -0.5936   -2.4886 H   0  0  0  0  0  0  0  0  0  0  0  0
    1.3132    0.7878   -4.3341 H   0  0  0  0  0  0  0  0  0  0  0  0
    2.3856    2.9266   -3.9790 H   0  0  0  0  0  0  0  0  0  0  0  0
    2.7200    3.7240   -1.6097 H   0  0  0  0  0  0  0  0  0  0  0  0
    1.9686    2.3492    0.2326 H   0  0  0  0  0  0  0  0  0  0  0  0
   -2.4689   -3.1761    3.3351 H   0  0  0  0  0  0  0  0  0  0  0  0
  1  2  1  0
  2  3  2  0
  3  4  1  0
  4  5  2  0
  5  6  1  0
  6  7  1  0
  7  8  1  0
  8  9  2  0
  8 10  1  0
 10 11  2  0
 11 12  1  0
 12 13  2  0
 13 14  1  0
 14 15  2  0
 15 16  1  0
 16 17  2  0
  6 18  2  0
 18 19  1  0
 18  2  1  0
 11  5  1  0
 17 12  1  0
  1 20  1  0
  3 21  1  0
  4 22  1  0
 10 23  1  0
 13 24  1  0
 14 25  1  0
 15 26  1  0
 16 27  1  0
 17 28  1  0
 19 29  1  0
M  END
$$$$
