
     RDKit          3D

 65 64  0  0  0  0  0  0  0  0999 V2000
   -5.4953    0.3121    2.8041 C   0  0  0  0  0  0  0  0  0  0  0  0
   -4.3596    0.5422    1.8416 C   0  0  0  0  0  0  0  0  0  0  0  0
   -3.2306    0.0254    2.1191 O   0  0  0  0  0  0  0  0  0  0  0  0
   -4.5958    1.3173    0.6793 N   0  0  0  0  0  0  0  0  0  0  0  0
   -3.5120    1.5438   -0.2471 C   0  0  1  0  0  0  0  0  0  0  0  0
   -2.4282    2.3404    0.4823 C   0  0  0  0  0  0  0  0  0  0  0  0
   -3.0504    3.6170    0.9156 C   0  0  0  0  0  0  0  0  0  0  0  0
   -3.1893    4.5269    0.0461 O   0  0  0  0  0  0  0  0  0  0  0  0
   -3.4821    3.8705    2.1940 O   0  0  0  0  0  0  0  0  0  0  0  0
   -2.9837    0.2690   -0.7665 C   0  0  0  0  0  0  0  0  0  0  0  0
   -3.5027   -0.8032   -0.3675 O   0  0  0  0  0  0  0  0  0  0  0  0
   -1.9183    0.2472   -1.6924 N   0  0  0  0  0  0  0  0  0  0  0  0
   -1.3843   -1.0175   -2.2158 C   0  0  1  0  0  0  0  0  0  0  0  0
   -1.5304   -1.0629   -3.7052 C   0  0  0  0  0  0  0  0  0  0  0  0
   -1.0281   -2.2937   -4.3793 C   0  0  0  0  0  0  0  0  0  0  0  0
   -1.7578   -3.4801   -3.9157 C   0  0  0  0  0  0  0  0  0  0  0  0
   -2.7173   -3.3841   -3.1325 O   0  0  0  0  0  0  0  0  0  0  0  0
   -1.4074   -4.7719   -4.3339 O   0  0  0  0  0  0  0  0  0  0  0  0
    0.0137   -1.2052   -1.7692 C   0  0  0  0  0  0  0  0  0  0  0  0
    0.6238   -2.2365   -2.0584 O   0  0  0  0  0  0  0  0  0  0  0  0
    0.7034   -0.2120   -0.9952 N   0  0  0  0  0  0  0  0  0  0  0  0
    2.0538   -0.3362   -0.5334 C   0  0  2  0  0  0  0  0  0  0  0  0
    2.0898   -0.2666    0.9445 C   0  0  0  0  0  0  0  0  0  0  0  0
    1.0139   -0.1185    1.5672 O   0  0  0  0  0  0  0  0  0  0  0  0
    3.2914   -0.3594    1.7067 N   0  0  0  0  0  0  0  0  0  0  0  0
    3.2010   -0.2774    3.1405 C   0  0  2  0  0  0  0  0  0  0  0  0
    3.9570    0.9056    3.6585 C   0  0  0  0  0  0  0  0  0  0  0  0
    4.5415    1.6438    2.8832 O   0  0  0  0  0  0  0  0  0  0  0  0
    3.6594   -1.5476    3.7903 C   0  0  0  0  0  0  0  0  0  0  0  0
    5.0564   -1.8300    3.4619 C   0  0  0  0  0  0  0  0  0  0  0  0
    5.7469   -1.0784    2.7757 O   0  0  0  0  0  0  0  0  0  0  0  0
    5.6281   -2.9972    3.9460 O   0  0  0  0  0  0  0  0  0  0  0  0
    2.9545    0.7672   -1.0503 C   0  0  0  0  0  0  0  0  0  0  0  0
    2.9324    0.6738   -2.5692 C   0  0  0  0  0  0  0  0  0  0  0  0
    2.5713    2.1234   -0.5576 C   0  0  0  0  0  0  0  0  0  0  0  0
   -6.4251    0.6681    2.3587 H   0  0  0  0  0  0  0  0  0  0  0  0
   -5.5906   -0.7825    2.9763 H   0  0  0  0  0  0  0  0  0  0  0  0
   -5.2704    0.8696    3.7463 H   0  0  0  0  0  0  0  0  0  0  0  0
   -5.5333    1.7233    0.4844 H   0  0  0  0  0  0  0  0  0  0  0  0
   -3.8317    2.2104   -1.0811 H   0  0  0  0  0  0  0  0  0  0  0  0
   -1.9783    1.7999    1.3120 H   0  0  0  0  0  0  0  0  0  0  0  0
   -1.6198    2.6090   -0.2316 H   0  0  0  0  0  0  0  0  0  0  0  0
   -4.2686    4.5020    2.4030 H   0  0  0  0  0  0  0  0  0  0  0  0
   -1.5030    1.1486   -2.0101 H   0  0  0  0  0  0  0  0  0  0  0  0
   -1.9772   -1.8076   -1.7468 H   0  0  0  0  0  0  0  0  0  0  0  0
   -2.6280   -0.9800   -3.9746 H   0  0  0  0  0  0  0  0  0  0  0  0
   -0.9797   -0.1870   -4.1553 H   0  0  0  0  0  0  0  0  0  0  0  0
   -1.2383   -2.1559   -5.4842 H   0  0  0  0  0  0  0  0  0  0  0  0
    0.0599   -2.4853   -4.2354 H   0  0  0  0  0  0  0  0  0  0  0  0
   -1.9741   -5.5828   -4.0859 H   0  0  0  0  0  0  0  0  0  0  0  0
    0.1452    0.6408   -0.7780 H   0  0  0  0  0  0  0  0  0  0  0  0
    2.5205   -1.3055   -0.8275 H   0  0  0  0  0  0  0  0  0  0  0  0
    4.1926   -0.4802    1.2145 H   0  0  0  0  0  0  0  0  0  0  0  0
    2.1430   -0.1205    3.4815 H   0  0  0  0  0  0  0  0  0  0  0  0
    3.9656    1.0766    4.7139 H   0  0  0  0  0  0  0  0  0  0  0  0
    3.4939   -1.4528    4.8971 H   0  0  0  0  0  0  0  0  0  0  0  0
    2.9691   -2.3613    3.4310 H   0  0  0  0  0  0  0  0  0  0  0  0
    6.6158   -3.1392    3.8231 H   0  0  0  0  0  0  0  0  0  0  0  0
    3.9947    0.5590   -0.7266 H   0  0  0  0  0  0  0  0  0  0  0  0
    3.8814    1.0311   -3.0207 H   0  0  0  0  0  0  0  0  0  0  0  0
    2.7957   -0.3761   -2.9026 H   0  0  0  0  0  0  0  0  0  0  0  0
    2.1398    1.3531   -2.9944 H   0  0  0  0  0  0  0  0  0  0  0  0
    2.0105    2.0920    0.4062 H   0  0  0  0  0  0  0  0  0  0  0  0
    3.4610    2.7815   -0.3514 H   0  0  0  0  0  0  0  0  0  0  0  0
    1.9645    2.7048   -1.3093 H   0  0  0  0  0  0  0  0  0  0  0  0
  1  2  1  0
  2  3  2  0
  2  4  1  0
  4  5  1  0
  5  6  1  0
  6  7  1  0
  7  8  2  0
  7  9  1  0
  5 10  1  0
 10 11  2  0
 10 12  1  0
 12 13  1  0
 13 14  1  0
 14 15  1  0
 15 16  1  0
 16 17  2  0
 16 18  1  0
 13 19  1  0
 19 20  2  0
 19 21  1  0
 21 22  1  0
 22 23  1  0
 23 24  2  0
 23 25  1  0
 25 26  1  0
 26 27  1  0
 27 28  2  0
 26 29  1  0
 29 30  1  0
 30 31  2  0
 30 32  1  0
 22 33  1  0
 33 34  1  0
 33 35  1  0
  1 36  1  0
  1 37  1  0
  1 38  1  0
  4 39  1  0
  5 40  1  6
  6 41  1  0
  6 42  1  0
  9 43  1  0
 12 44  1  0
 13 45  1  1
 14 46  1  0
 14 47  1  0
 15 48  1  0
 15 49  1  0
 18 50  1  0
 21 51  1  0
 22 52  1  1
 25 53  1  0
 26 54  1  6
 27 55  1  0
 29 56  1  0
 29 57  1  0
 32 58  1  0
 33 59  1  0
 34 60  1  0
 34 61  1  0
 34 62  1  0
 35 63  1  0
 35 64  1  0
 35 65  1  0
M  END
$$$$
