
     RDKit          3D

 41 43  0  0  0  0  0  0  0  0999 V2000
   -2.1809   -2.4303   -0.1144 O   0  0  0  0  0  0  0  0  0  0  0  0
   -2.0819   -1.1453   -0.3507 C   0  0  0  0  0  0  0  0  0  0  0  0
   -3.2113   -0.3463   -0.1237 N   0  0  0  0  0  0  0  0  0  0  0  0
   -3.3975    1.0532   -0.3126 C   0  0  0  0  0  0  0  0  0  0  0  0
   -3.6301    1.6407    1.0795 C   0  0  0  0  0  0  0  0  0  0  0  0
   -4.7265    0.9789    1.6238 O   0  0  0  0  0  0  0  0  0  0  0  0
   -4.5626   -0.3699    1.8018 C   0  0  0  0  0  0  0  0  0  0  0  0
   -4.4244   -1.0148    0.4146 C   0  0  0  0  0  0  0  0  0  0  0  0
   -0.8085   -0.7688   -0.8097 N   0  0  0  0  0  0  0  0  0  0  0  0
   -0.3543    0.5482   -1.1470 C   0  0  0  0  0  0  0  0  0  0  0  0
    1.1470    0.5940   -1.3847 C   0  0  0  0  0  0  0  0  0  0  0  0
    1.8839   -0.2473   -0.4978 N   0  0  0  0  0  0  0  0  0  0  0  0
    3.2090    0.1178   -0.1029 C   0  0  0  0  0  0  0  0  0  0  0  0
    3.5318    0.3241    1.2252 C   0  0  0  0  0  0  0  0  0  0  0  0
    4.7872    0.6719    1.6182 C   0  0  0  0  0  0  0  0  0  0  0  0
    5.8045    0.8362    0.7018 C   0  0  0  0  0  0  0  0  0  0  0  0
    7.4339    1.2865    1.2000 Cl  0  0  0  0  0  0  0  0  0  0  0  0
    5.4921    0.6328   -0.6221 C   0  0  0  0  0  0  0  0  0  0  0  0
    4.2112    0.2768   -1.0355 C   0  0  0  0  0  0  0  0  0  0  0  0
    3.8925    0.0357   -2.7394 Cl  0  0  0  0  0  0  0  0  0  0  0  0
    1.3000   -1.4901    0.0194 C   0  0  0  0  0  0  0  0  0  0  0  0
    0.1948   -1.8515   -0.9711 C   0  0  0  0  0  0  0  0  0  0  0  0
   -2.6993    1.6028   -0.9135 H   0  0  0  0  0  0  0  0  0  0  0  0
   -4.4188    1.2139   -0.8171 H   0  0  0  0  0  0  0  0  0  0  0  0
   -2.7437    1.6310    1.7079 H   0  0  0  0  0  0  0  0  0  0  0  0
   -3.9392    2.6926    0.9164 H   0  0  0  0  0  0  0  0  0  0  0  0
   -3.6237   -0.6330    2.3426 H   0  0  0  0  0  0  0  0  0  0  0  0
   -5.4250   -0.7555    2.3518 H   0  0  0  0  0  0  0  0  0  0  0  0
   -4.3030   -2.0930    0.4632 H   0  0  0  0  0  0  0  0  0  0  0  0
   -5.2966   -0.6689   -0.1724 H   0  0  0  0  0  0  0  0  0  0  0  0
   -0.5197    1.2045   -0.2723 H   0  0  0  0  0  0  0  0  0  0  0  0
   -0.8443    0.8633   -2.0806 H   0  0  0  0  0  0  0  0  0  0  0  0
    1.3410    0.2762   -2.4299 H   0  0  0  0  0  0  0  0  0  0  0  0
    1.5454    1.6235   -1.2867 H   0  0  0  0  0  0  0  0  0  0  0  0
    2.7688    0.2081    1.9869 H   0  0  0  0  0  0  0  0  0  0  0  0
    5.0346    0.8329    2.6664 H   0  0  0  0  0  0  0  0  0  0  0  0
    6.2816    0.7585   -1.3520 H   0  0  0  0  0  0  0  0  0  0  0  0
    0.8889   -1.2621    1.0233 H   0  0  0  0  0  0  0  0  0  0  0  0
    2.0694   -2.2817    0.0832 H   0  0  0  0  0  0  0  0  0  0  0  0
    0.6120   -1.7127   -1.9703 H   0  0  0  0  0  0  0  0  0  0  0  0
   -0.2385   -2.8330   -0.7854 H   0  0  0  0  0  0  0  0  0  0  0  0
  1  2  2  0
  2  3  1  0
  3  4  1  0
  4  5  1  0
  5  6  1  0
  6  7  1  0
  7  8  1  0
  2  9  1  0
  9 10  1  0
 10 11  1  0
 11 12  1  0
 12 13  1  0
 13 14  2  0
 14 15  1  0
 15 16  2  0
 16 17  1  0
 16 18  1  0
 18 19  2  0
 19 20  1  0
 12 21  1  0
 21 22  1  0
  8  3  1  0
 22  9  1  0
 19 13  1  0
  4 23  1  0
  4 24  1  0
  5 25  1  0
  5 26  1  0
  7 27  1  0
  7 28  1  0
  8 29  1  0
  8 30  1  0
 10 31  1  0
 10 32  1  0
 11 33  1  0
 11 34  1  0
 14 35  1  0
 15 36  1  0
 18 37  1  0
 21 38  1  0
 21 39  1  0
 22 40  1  0
 22 41  1  0
M  END
$$$$
