
     RDKit          3D

 54 57  0  0  0  0  0  0  0  0999 V2000
   -6.4852    2.0393    0.5887 C   0  0  0  0  0  0  0  0  0  0  0  0
   -5.4086    1.1173    0.5631 O   0  0  0  0  0  0  0  0  0  0  0  0
   -4.7908    0.6863   -0.5985 C   0  0  0  0  0  0  0  0  0  0  0  0
   -5.2058    1.1355   -1.6876 O   0  0  0  0  0  0  0  0  0  0  0  0
   -3.6555   -0.2912   -0.5690 C   0  0  0  0  0  0  0  0  0  0  0  0
   -3.2574   -0.5349   -2.0097 C   0  0  0  0  0  0  0  0  0  0  0  0
   -4.2157   -1.5265    0.0798 C   0  0  0  0  0  0  0  0  0  0  0  0
   -2.5652    0.4056    0.1416 C   0  0  0  0  0  0  0  0  0  0  0  0
   -1.2919   -0.2447    0.3462 C   0  0  0  0  0  0  0  0  0  0  0  0
   -1.0281   -1.5548    0.6249 C   0  0  0  0  0  0  0  0  0  0  0  0
    0.2404   -2.0599    0.8045 C   0  0  0  0  0  0  0  0  0  0  0  0
    1.3656   -1.2377    0.7098 C   0  0  0  0  0  0  0  0  0  0  0  0
    2.6458   -1.7980    0.9228 N   0  0  0  0  0  0  0  0  0  0  0  0
    3.8668   -1.2901    0.4015 C   0  0  0  0  0  0  0  0  0  0  0  0
    5.0723   -1.5097    1.0736 C   0  0  0  0  0  0  0  0  0  0  0  0
    6.2410   -1.0241    0.5382 C   0  0  0  0  0  0  0  0  0  0  0  0
    6.2441   -0.3301   -0.6402 C   0  0  0  0  0  0  0  0  0  0  0  0
    7.4502    0.1497   -1.1554 C   0  0  0  0  0  0  0  0  0  0  0  0
    7.4058    0.8352   -2.3309 C   0  0  0  0  0  0  0  0  0  0  0  0
    6.2511    1.0757   -3.0263 C   0  0  0  0  0  0  0  0  0  0  0  0
    5.0683    0.5982   -2.5088 C   0  0  0  0  0  0  0  0  0  0  0  0
    5.0815   -0.1060   -1.3095 C   0  0  0  0  0  0  0  0  0  0  0  0
    3.8892   -0.5974   -0.7708 C   0  0  0  0  0  0  0  0  0  0  0  0
    1.1273    0.0867    0.4303 C   0  0  0  0  0  0  0  0  0  0  0  0
   -0.1500    0.5683    0.2545 C   0  0  0  0  0  0  0  0  0  0  0  0
   -2.9965    0.9174    1.4472 N   0  0  0  0  0  0  0  0  0  0  0  0
   -3.2166    2.1781    1.8499 C   0  0  0  0  0  0  0  0  0  0  0  0
   -3.6001    2.2179    3.1291 N   0  0  0  0  0  0  0  0  0  0  0  0
   -3.6234    0.9424    3.5490 C   0  0  0  0  0  0  0  0  0  0  0  0
   -3.2491    0.1596    2.4998 N   0  0  0  0  0  0  0  0  0  0  0  0
   -7.2685    1.7137    1.3131 H   0  0  0  0  0  0  0  0  0  0  0  0
   -6.1212    3.0579    0.8969 H   0  0  0  0  0  0  0  0  0  0  0  0
   -6.9196    2.1808   -0.4340 H   0  0  0  0  0  0  0  0  0  0  0  0
   -2.2329   -0.1833   -2.1665 H   0  0  0  0  0  0  0  0  0  0  0  0
   -3.4117   -1.5901   -2.3135 H   0  0  0  0  0  0  0  0  0  0  0  0
   -3.8927    0.0574   -2.7272 H   0  0  0  0  0  0  0  0  0  0  0  0
   -4.0887   -1.5958    1.1601 H   0  0  0  0  0  0  0  0  0  0  0  0
   -5.3452   -1.5738   -0.0589 H   0  0  0  0  0  0  0  0  0  0  0  0
   -3.8770   -2.4096   -0.5053 H   0  0  0  0  0  0  0  0  0  0  0  0
   -2.3916    1.3549   -0.4617 H   0  0  0  0  0  0  0  0  0  0  0  0
   -1.8575   -2.2195    0.7079 H   0  0  0  0  0  0  0  0  0  0  0  0
    0.4237   -3.1131    1.0277 H   0  0  0  0  0  0  0  0  0  0  0  0
    2.7567   -2.6762    1.5178 H   0  0  0  0  0  0  0  0  0  0  0  0
    5.0468   -2.0560    1.9958 H   0  0  0  0  0  0  0  0  0  0  0  0
    7.1692   -1.2005    1.0680 H   0  0  0  0  0  0  0  0  0  0  0  0
    8.3442   -0.0512   -0.5923 H   0  0  0  0  0  0  0  0  0  0  0  0
    8.3515    1.2042   -2.7228 H   0  0  0  0  0  0  0  0  0  0  0  0
    6.2390    1.6256   -3.9623 H   0  0  0  0  0  0  0  0  0  0  0  0
    4.1205    0.7629   -3.0244 H   0  0  0  0  0  0  0  0  0  0  0  0
    2.9948   -0.3884   -1.3766 H   0  0  0  0  0  0  0  0  0  0  0  0
    1.9843    0.7698    0.3618 H   0  0  0  0  0  0  0  0  0  0  0  0
   -0.2464    1.6397    0.0341 H   0  0  0  0  0  0  0  0  0  0  0  0
   -3.0925    3.0405    1.2022 H   0  0  0  0  0  0  0  0  0  0  0  0
   -3.8949    0.6421    4.5425 H   0  0  0  0  0  0  0  0  0  0  0  0
  1  2  1  0
  2  3  1  0
  3  4  2  0
  3  5  1  0
  5  6  1  0
  5  7  1  0
  5  8  1  0
  8  9  1  0
  9 10  2  0
 10 11  1  0
 11 12  2  0
 12 13  1  0
 13 14  1  0
 14 15  2  0
 15 16  1  0
 16 17  2  0
 17 18  1  0
 18 19  2  0
 19 20  1  0
 20 21  2  0
 21 22  1  0
 22 23  2  0
 12 24  1  0
 24 25  2  0
  8 26  1  0
 26 27  1  0
 27 28  2  0
 28 29  1  0
 29 30  2  0
 25  9  1  0
 30 26  1  0
 23 14  1  0
 22 17  1  0
  1 31  1  0
  1 32  1  0
  1 33  1  0
  6 34  1  0
  6 35  1  0
  6 36  1  0
  7 37  1  0
  7 38  1  0
  7 39  1  0
  8 40  1  0
 10 41  1  0
 11 42  1  0
 13 43  1  0
 15 44  1  0
 16 45  1  0
 18 46  1  0
 19 47  1  0
 20 48  1  0
 21 49  1  0
 23 50  1  0
 24 51  1  0
 25 52  1  0
 27 53  1  0
 29 54  1  0
M  END
$$$$
