
     RDKit          3D

 31 34  0  0  0  0  0  0  0  0999 V2000
   -4.4876    1.9800    0.0325 C   0  0  0  0  0  0  0  0  0  0  0  0
   -4.5924    0.8984   -1.0312 C   0  0  0  0  0  0  0  0  0  0  0  0
   -3.7302    0.6715    0.1560 C   0  0  0  0  0  0  0  0  0  0  0  0
   -2.2858    0.7438    0.0385 N   0  0  0  0  0  0  0  0  0  0  0  0
   -1.4471   -0.4116    0.1349 C   0  0  0  0  0  0  0  0  0  0  0  0
   -0.1172   -0.3353    0.0254 N   0  0  0  0  0  0  0  0  0  0  0  0
    0.6964   -1.3884    0.1095 C   0  0  0  0  0  0  0  0  0  0  0  0
    0.1138   -2.6200    0.3221 C   0  0  0  0  0  0  0  0  0  0  0  0
   -1.2661   -2.7123    0.4375 C   0  0  0  0  0  0  0  0  0  0  0  0
   -2.0414   -1.6047    0.3430 N   0  0  0  0  0  0  0  0  0  0  0  0
    2.1277   -1.2754   -0.0126 C   0  0  0  0  0  0  0  0  0  0  0  0
    2.8405   -0.0995   -0.2271 C   0  0  0  0  0  0  0  0  0  0  0  0
    2.4495    1.2238   -0.3798 C   0  0  0  0  0  0  0  0  0  0  0  0
    3.4394    2.1748   -0.5841 C   0  0  0  0  0  0  0  0  0  0  0  0
    4.7696    1.7892   -0.6301 C   0  0  0  0  0  0  0  0  0  0  0  0
    5.1056    0.4752   -0.4747 N   0  0  0  0  0  0  0  0  0  0  0  0
    4.1462   -0.4323   -0.2786 N   0  0  0  0  0  0  0  0  0  0  0  0
    4.3173   -1.7429   -0.1114 N   0  0  0  0  0  0  0  0  0  0  0  0
    3.0872   -2.2660    0.0521 C   0  0  0  0  0  0  0  0  0  0  0  0
   -3.9424    2.9108   -0.2470 H   0  0  0  0  0  0  0  0  0  0  0  0
   -5.3741    2.1605    0.6715 H   0  0  0  0  0  0  0  0  0  0  0  0
   -5.5835    0.4029   -1.0796 H   0  0  0  0  0  0  0  0  0  0  0  0
   -4.1708    1.1604   -2.0176 H   0  0  0  0  0  0  0  0  0  0  0  0
   -4.1534   -0.0433    0.9172 H   0  0  0  0  0  0  0  0  0  0  0  0
   -1.8223    1.6701   -0.1232 H   0  0  0  0  0  0  0  0  0  0  0  0
    0.7060   -3.5204    0.4017 H   0  0  0  0  0  0  0  0  0  0  0  0
   -1.6893   -3.6939    0.6039 H   0  0  0  0  0  0  0  0  0  0  0  0
    1.3840    1.4866   -0.3366 H   0  0  0  0  0  0  0  0  0  0  0  0
    3.1167    3.1813   -0.6983 H   0  0  0  0  0  0  0  0  0  0  0  0
    5.5419    2.5372   -0.7903 H   0  0  0  0  0  0  0  0  0  0  0  0
    2.8617   -3.3205    0.2137 H   0  0  0  0  0  0  0  0  0  0  0  0
  1  2  1  0
  2  3  1  0
  3  4  1  0
  4  5  1  0
  5  6  2  0
  6  7  1  0
  7  8  2  0
  8  9  1  0
  9 10  2  0
  7 11  1  0
 11 12  2  0
 12 13  1  0
 13 14  2  0
 14 15  1  0
 15 16  2  0
 16 17  1  0
 17 18  1  0
 18 19  2  0
  3  1  1  0
 10  5  1  0
 19 11  1  0
 17 12  1  0
  1 20  1  0
  1 21  1  0
  2 22  1  0
  2 23  1  0
  3 24  1  0
  4 25  1  0
  8 26  1  0
  9 27  1  0
 13 28  1  0
 14 29  1  0
 15 30  1  0
 19 31  1  0
M  END
$$$$
