
     RDKit          3D

 96100  0  0  0  0  0  0  0  0999 V2000
   -8.9271   -2.3887   -2.1347 C   0  0  0  0  0  0  0  0  0  0  0  0
   -8.1162   -1.1795   -1.8370 C   0  0  0  0  0  0  0  0  0  0  0  0
   -8.6398    0.0142   -1.6975 C   0  0  0  0  0  0  0  0  0  0  0  0
   -7.9297    1.2332   -1.2316 C   0  0  1  0  0  0  0  0  0  0  0  0
   -8.3052    1.4801    0.2034 C   0  0  0  0  0  0  0  0  0  0  0  0
   -7.9640    0.2469    0.9553 C   0  0  0  0  0  0  0  0  0  0  0  0
   -8.6086   -0.0919    2.0849 N   0  0  0  0  0  0  0  0  0  0  0  0
   -8.3257   -1.2041    2.7840 C   0  0  0  0  0  0  0  0  0  0  0  0
   -8.9467   -1.5037    3.8480 O   0  0  0  0  0  0  0  0  0  0  0  0
   -7.3459   -2.0954    2.3992 C   0  0  0  0  0  0  0  0  0  0  0  0
   -6.6560   -1.7713    1.2268 C   0  0  0  0  0  0  0  0  0  0  0  0
   -6.9775   -0.6128    0.5325 C   0  0  0  0  0  0  0  0  0  0  0  0
   -6.1791   -0.3641   -0.7183 C   0  0  1  0  0  0  0  0  0  0  0  0
   -6.6051   -1.3901   -1.6960 C   0  0  0  0  0  0  0  0  0  0  0  0
   -6.4399    0.9864   -1.3160 C   0  0  2  0  0  0  0  0  0  0  0  0
   -5.5864    2.0974   -0.8546 C   0  0  0  0  0  0  0  0  0  0  0  0
   -4.8893    1.9432    0.4484 C   0  0  0  0  0  0  0  0  0  0  0  0
   -4.5211    0.5273    0.7956 C   0  0  0  0  0  0  0  0  0  0  0  0
   -4.7807   -0.3739   -0.3111 N   0  0  0  0  0  0  0  0  0  0  0  0
   -3.8200   -1.1419   -0.9288 C   0  0  0  0  0  0  0  0  0  0  0  0
   -4.2398   -1.9930   -1.8573 O   0  0  0  0  0  0  0  0  0  0  0  0
   -2.3745   -1.2126   -0.7567 C   0  0  0  0  0  0  0  0  0  0  0  0
   -1.7481   -0.2941    0.1017 N   0  0  0  0  0  0  0  0  0  0  0  0
   -1.6662    1.0197   -0.4324 C   0  0  0  0  0  0  0  0  0  0  0  0
   -0.5699   -0.8165    0.7106 C   0  0  0  0  0  0  0  0  0  0  0  0
    0.5039   -1.0446   -0.3016 C   0  0  0  0  0  0  0  0  0  0  0  0
    1.7443   -1.6237    0.3002 C   0  0  0  0  0  0  0  0  0  0  0  0
    2.3361   -0.7316    1.3332 C   0  0  0  0  0  0  0  0  0  0  0  0
    2.7259    0.6138    0.8089 C   0  0  0  0  0  0  0  0  0  0  0  0
    3.7147    0.5237   -0.3061 C   0  0  0  0  0  0  0  0  0  0  0  0
    4.9634   -0.1838    0.1135 C   0  0  0  0  0  0  0  0  0  0  0  0
    5.9479   -0.2623   -1.0373 C   0  0  0  0  0  0  0  0  0  0  0  0
    6.3830    1.0931   -1.5294 C   0  0  0  0  0  0  0  0  0  0  0  0
    7.0664    1.8193   -0.4179 C   0  0  0  0  0  0  0  0  0  0  0  0
    8.2016    1.0675    0.0472 N   0  0  0  0  0  0  0  0  0  0  0  0
    8.7983    1.8176    1.1518 C   0  0  0  0  0  0  0  0  0  0  0  0
    9.1586    0.8930   -0.9949 C   0  0  0  0  0  0  0  0  0  0  0  0
   10.3432    0.1528   -0.4415 C   0  0  0  0  0  0  0  0  0  0  0  0
   11.3992    0.8302    0.0908 C   0  0  0  0  0  0  0  0  0  0  0  0
   12.5040    0.1448    0.6061 C   0  0  0  0  0  0  0  0  0  0  0  0
   12.4418   -1.2472    0.5342 C   0  0  0  0  0  0  0  0  0  0  0  0
   11.3851   -1.8914    0.0026 N   0  0  0  0  0  0  0  0  0  0  0  0
   10.3392   -1.2278   -0.4849 C   0  0  0  0  0  0  0  0  0  0  0  0
   -8.9766   -2.6013   -3.2216 H   0  0  0  0  0  0  0  0  0  0  0  0
   -9.9853   -2.2674   -1.7921 H   0  0  0  0  0  0  0  0  0  0  0  0
   -8.5535   -3.2860   -1.5648 H   0  0  0  0  0  0  0  0  0  0  0  0
   -9.7038    0.1309   -1.9477 H   0  0  0  0  0  0  0  0  0  0  0  0
   -8.1531    2.0926   -1.8929 H   0  0  0  0  0  0  0  0  0  0  0  0
   -9.4177    1.6004    0.2416 H   0  0  0  0  0  0  0  0  0  0  0  0
   -7.8802    2.3922    0.6260 H   0  0  0  0  0  0  0  0  0  0  0  0
   -9.3671    0.5430    2.4320 H   0  0  0  0  0  0  0  0  0  0  0  0
   -7.1249   -2.9795    2.9602 H   0  0  0  0  0  0  0  0  0  0  0  0
   -5.8844   -2.4606    0.9137 H   0  0  0  0  0  0  0  0  0  0  0  0
   -6.4119   -2.4293   -1.4263 H   0  0  0  0  0  0  0  0  0  0  0  0
   -6.1542   -1.1898   -2.6999 H   0  0  0  0  0  0  0  0  0  0  0  0
   -6.2379    0.8675   -2.4265 H   0  0  0  0  0  0  0  0  0  0  0  0
   -4.8304    2.4235   -1.6316 H   0  0  0  0  0  0  0  0  0  0  0  0
   -6.2443    3.0141   -0.7594 H   0  0  0  0  0  0  0  0  0  0  0  0
   -5.4917    2.4319    1.2785 H   0  0  0  0  0  0  0  0  0  0  0  0
   -3.9593    2.5451    0.4264 H   0  0  0  0  0  0  0  0  0  0  0  0
   -5.3337    0.2320    1.5703 H   0  0  0  0  0  0  0  0  0  0  0  0
   -3.6113    0.3689    1.3455 H   0  0  0  0  0  0  0  0  0  0  0  0
   -2.0737   -2.2570   -0.3682 H   0  0  0  0  0  0  0  0  0  0  0  0
   -1.8555   -1.2294   -1.7848 H   0  0  0  0  0  0  0  0  0  0  0  0
   -0.7399    1.2022   -1.0555 H   0  0  0  0  0  0  0  0  0  0  0  0
   -2.4969    1.2135   -1.1196 H   0  0  0  0  0  0  0  0  0  0  0  0
   -1.7189    1.8072    0.3711 H   0  0  0  0  0  0  0  0  0  0  0  0
   -0.7761   -1.8033    1.1960 H   0  0  0  0  0  0  0  0  0  0  0  0
   -0.2479   -0.1228    1.5245 H   0  0  0  0  0  0  0  0  0  0  0  0
    0.1085   -1.8222   -1.0191 H   0  0  0  0  0  0  0  0  0  0  0  0
    0.7086   -0.1572   -0.9365 H   0  0  0  0  0  0  0  0  0  0  0  0
    1.4487   -2.5820    0.7925 H   0  0  0  0  0  0  0  0  0  0  0  0
    2.4759   -1.8824   -0.4959 H   0  0  0  0  0  0  0  0  0  0  0  0
    1.6107   -0.5935    2.1678 H   0  0  0  0  0  0  0  0  0  0  0  0
    3.2518   -1.1903    1.7774 H   0  0  0  0  0  0  0  0  0  0  0  0
    1.8446    1.2142    0.4809 H   0  0  0  0  0  0  0  0  0  0  0  0
    3.2112    1.1889    1.6354 H   0  0  0  0  0  0  0  0  0  0  0  0
    3.2920    0.0724   -1.2288 H   0  0  0  0  0  0  0  0  0  0  0  0
    4.0008    1.5751   -0.5673 H   0  0  0  0  0  0  0  0  0  0  0  0
    5.4445    0.3024    0.9599 H   0  0  0  0  0  0  0  0  0  0  0  0
    4.7348   -1.2522    0.3810 H   0  0  0  0  0  0  0  0  0  0  0  0
    6.8459   -0.8035   -0.6897 H   0  0  0  0  0  0  0  0  0  0  0  0
    5.4988   -0.8842   -1.8556 H   0  0  0  0  0  0  0  0  0  0  0  0
    7.0552    0.9694   -2.3780 H   0  0  0  0  0  0  0  0  0  0  0  0
    5.5112    1.6779   -1.9283 H   0  0  0  0  0  0  0  0  0  0  0  0
    7.3889    2.8496   -0.7574 H   0  0  0  0  0  0  0  0  0  0  0  0
    6.3927    2.0275    0.4436 H   0  0  0  0  0  0  0  0  0  0  0  0
    7.9551    2.0935    1.8465 H   0  0  0  0  0  0  0  0  0  0  0  0
    9.5694    1.2345    1.6804 H   0  0  0  0  0  0  0  0  0  0  0  0
    9.2564    2.7493    0.7796 H   0  0  0  0  0  0  0  0  0  0  0  0
    8.7796    0.2688   -1.8199 H   0  0  0  0  0  0  0  0  0  0  0  0
    9.4878    1.8665   -1.4063 H   0  0  0  0  0  0  0  0  0  0  0  0
   11.3984    1.9034    0.1226 H   0  0  0  0  0  0  0  0  0  0  0  0
   13.3576    0.6423    1.0345 H   0  0  0  0  0  0  0  0  0  0  0  0
   13.2960   -1.7765    0.9320 H   0  0  0  0  0  0  0  0  0  0  0  0
    9.5108   -1.7881   -0.9035 H   0  0  0  0  0  0  0  0  0  0  0  0
  1  2  1  0
  2  3  2  0
  3  4  1  0
  4  5  1  0
  5  6  1  0
  6  7  1  0
  7  8  1  0
  8  9  2  0
  8 10  1  0
 10 11  2  0
 11 12  1  0
 12 13  1  0
 13 14  1  0
 13 15  1  0
 15 16  1  0
 16 17  1  0
 17 18  1  0
 18 19  1  0
 19 20  1  0
 20 21  2  0
 20 22  1  0
 22 23  1  0
 23 24  1  0
 23 25  1  0
 25 26  1  0
 26 27  1  0
 27 28  1  0
 28 29  1  0
 29 30  1  0
 30 31  1  0
 31 32  1  0
 32 33  1  0
 33 34  1  0
 34 35  1  0
 35 36  1  0
 35 37  1  0
 37 38  1  0
 38 39  2  0
 39 40  1  0
 40 41  2  0
 41 42  1  0
 42 43  2  0
 14  2  1  0
 43 38  1  0
 15  4  1  0
 12  6  2  0
 13 19  1  1
  1 44  1  0
  1 45  1  0
  1 46  1  0
  3 47  1  0
  4 48  1  6
  5 49  1  0
  5 50  1  0
  7 51  1  0
 10 52  1  0
 11 53  1  0
 14 54  1  0
 14 55  1  0
 15 56  1  6
 16 57  1  0
 16 58  1  0
 17 59  1  0
 17 60  1  0
 18 61  1  0
 18 62  1  0
 22 63  1  0
 22 64  1  0
 24 65  1  0
 24 66  1  0
 24 67  1  0
 25 68  1  0
 25 69  1  0
 26 70  1  0
 26 71  1  0
 27 72  1  0
 27 73  1  0
 28 74  1  0
 28 75  1  0
 29 76  1  0
 29 77  1  0
 30 78  1  0
 30 79  1  0
 31 80  1  0
 31 81  1  0
 32 82  1  0
 32 83  1  0
 33 84  1  0
 33 85  1  0
 34 86  1  0
 34 87  1  0
 36 88  1  0
 36 89  1  0
 36 90  1  0
 37 91  1  0
 37 92  1  0
 39 93  1  0
 40 94  1  0
 41 95  1  0
 43 96  1  0
M  END
$$$$
