
     RDKit          3D

 40 42  0  0  0  0  0  0  0  0999 V2000
   -0.9763    3.3475    2.2040 C   0  0  0  0  0  0  0  0  0  0  0  0
   -1.1152    2.5417    1.0529 O   0  0  0  0  0  0  0  0  0  0  0  0
   -0.2622    1.4354    0.7997 C   0  0  0  0  0  0  0  0  0  0  0  0
    0.5921    1.2867    1.7067 O   0  0  0  0  0  0  0  0  0  0  0  0
   -0.4368    0.6281   -0.3998 C   0  0  2  0  0  0  0  0  0  0  0  0
   -1.8227   -0.0479   -0.4372 C   0  0  0  0  0  0  0  0  0  0  0  0
   -2.0793   -0.8358    0.8063 C   0  0  0  0  0  0  0  0  0  0  0  0
   -2.0770   -2.2734    0.3282 C   0  0  0  0  0  0  0  0  0  0  0  0
   -1.1592   -2.1547   -0.8693 C   0  0  2  0  0  0  0  0  0  0  0  0
    0.2275   -1.7970   -0.3782 C   0  0  0  0  0  0  0  0  0  0  0  0
    0.5945   -0.3808   -0.7273 C   0  0  2  0  0  0  0  0  0  0  0  0
    1.9124    0.0488   -0.3030 C   0  0  0  0  0  0  0  0  0  0  0  0
    2.4960   -0.3994    0.8684 C   0  0  0  0  0  0  0  0  0  0  0  0
    3.7490    0.0677    1.1950 C   0  0  0  0  0  0  0  0  0  0  0  0
    4.4296    0.9623    0.3911 C   0  0  0  0  0  0  0  0  0  0  0  0
    3.8619    1.4172   -0.7776 C   0  0  0  0  0  0  0  0  0  0  0  0
    2.6113    0.9567   -1.1122 C   0  0  0  0  0  0  0  0  0  0  0  0
   -1.6962   -0.9919   -1.5301 N   0  0  0  0  0  0  0  0  0  0  0  0
   -2.9089   -1.2195   -2.2411 C   0  0  0  0  0  0  0  0  0  0  0  0
   -0.2262    4.1588    2.0630 H   0  0  0  0  0  0  0  0  0  0  0  0
   -1.9850    3.8227    2.3650 H   0  0  0  0  0  0  0  0  0  0  0  0
   -0.7356    2.7115    3.0637 H   0  0  0  0  0  0  0  0  0  0  0  0
   -0.5372    1.3794   -1.2496 H   0  0  0  0  0  0  0  0  0  0  0  0
   -2.6157    0.6972   -0.6031 H   0  0  0  0  0  0  0  0  0  0  0  0
   -1.2293   -0.7696    1.5414 H   0  0  0  0  0  0  0  0  0  0  0  0
   -3.0334   -0.5640    1.3055 H   0  0  0  0  0  0  0  0  0  0  0  0
   -1.5927   -2.9523    1.0510 H   0  0  0  0  0  0  0  0  0  0  0  0
   -3.0752   -2.6417    0.0742 H   0  0  0  0  0  0  0  0  0  0  0  0
   -1.1695   -3.0653   -1.4805 H   0  0  0  0  0  0  0  0  0  0  0  0
    0.2973   -2.0541    0.6755 H   0  0  0  0  0  0  0  0  0  0  0  0
    0.9317   -2.4602   -0.9263 H   0  0  0  0  0  0  0  0  0  0  0  0
    0.6476   -0.3948   -1.8746 H   0  0  0  0  0  0  0  0  0  0  0  0
    1.9142   -1.0953    1.4462 H   0  0  0  0  0  0  0  0  0  0  0  0
    4.1712   -0.3127    2.1287 H   0  0  0  0  0  0  0  0  0  0  0  0
    5.4196    1.2844    0.7212 H   0  0  0  0  0  0  0  0  0  0  0  0
    4.4115    2.1217   -1.3994 H   0  0  0  0  0  0  0  0  0  0  0  0
    2.1456    1.3111   -2.0421 H   0  0  0  0  0  0  0  0  0  0  0  0
   -3.5011   -2.0731   -1.9070 H   0  0  0  0  0  0  0  0  0  0  0  0
   -2.6563   -1.3948   -3.3131 H   0  0  0  0  0  0  0  0  0  0  0  0
   -3.5219   -0.3005   -2.2162 H   0  0  0  0  0  0  0  0  0  0  0  0
  1  2  1  0
  2  3  1  0
  3  4  2  0
  3  5  1  0
  5  6  1  0
  6  7  1  0
  7  8  1  0
  8  9  1  0
  9 10  1  0
 10 11  1  0
 11 12  1  0
 12 13  2  0
 13 14  1  0
 14 15  2  0
 15 16  1  0
 16 17  2  0
  9 18  1  0
 18 19  1  0
 11  5  1  0
 17 12  1  0
 18  6  1  0
  1 20  1  0
  1 21  1  0
  1 22  1  0
  5 23  1  6
  6 24  1  0
  7 25  1  0
  7 26  1  0
  8 27  1  0
  8 28  1  0
  9 29  1  6
 10 30  1  0
 10 31  1  0
 11 32  1  6
 13 33  1  0
 14 34  1  0
 15 35  1  0
 16 36  1  0
 17 37  1  0
 19 38  1  0
 19 39  1  0
 19 40  1  0
M  END
$$$$
