
     RDKit          3D

 43 47  0  0  0  0  0  0  0  0999 V2000
    1.1356   -3.8102   -0.4538 O   0  0  0  0  0  0  0  0  0  0  0  0
    0.5823   -2.6806   -0.2993 C   0  0  0  0  0  0  0  0  0  0  0  0
   -0.7330   -2.5035   -0.2992 N   0  0  0  0  0  0  0  0  0  0  0  0
   -1.3070   -1.3035   -0.1344 C   0  0  0  0  0  0  0  0  0  0  0  0
   -2.6781   -1.1982   -0.1437 C   0  0  0  0  0  0  0  0  0  0  0  0
   -3.2683    0.0524    0.0318 C   0  0  0  0  0  0  0  0  0  0  0  0
   -4.7169    0.1946    0.0254 C   0  0  0  0  0  0  0  0  0  0  0  0
   -5.5281   -0.6229   -0.7507 C   0  0  0  0  0  0  0  0  0  0  0  0
   -6.9007   -0.5218   -0.7729 C   0  0  0  0  0  0  0  0  0  0  0  0
   -7.4621    0.4503    0.0266 C   0  0  0  0  0  0  0  0  0  0  0  0
   -6.7002    1.2896    0.8181 C   0  0  0  0  0  0  0  0  0  0  0  0
   -5.3295    1.1586    0.8145 C   0  0  0  0  0  0  0  0  0  0  0  0
   -2.4577    1.1337    0.2073 C   0  0  0  0  0  0  0  0  0  0  0  0
   -1.0780    1.0112    0.2140 C   0  0  0  0  0  0  0  0  0  0  0  0
   -0.4782   -0.2207    0.0410 C   0  0  0  0  0  0  0  0  0  0  0  0
    0.8922   -0.3319    0.0519 C   0  0  0  0  0  0  0  0  0  0  0  0
    1.9261    0.5024    0.1927 N   0  0  0  0  0  0  0  0  0  0  0  0
    3.1072   -0.1695    0.1155 C   0  0  0  0  0  0  0  0  0  0  0  0
    4.3860    0.5394    0.1710 C   0  0  0  0  0  0  0  0  0  0  0  0
    4.4360    1.7590    0.8681 C   0  0  0  0  0  0  0  0  0  0  0  0
    2.9559    2.3394    1.5912 Cl  0  0  0  0  0  0  0  0  0  0  0  0
    5.5657    2.4977    1.0049 C   0  0  0  0  0  0  0  0  0  0  0  0
    6.7299    2.0445    0.4387 C   0  0  0  0  0  0  0  0  0  0  0  0
    6.7190    0.8659   -0.2487 C   0  0  0  0  0  0  0  0  0  0  0  0
    5.5433    0.0868   -0.4006 C   0  0  0  0  0  0  0  0  0  0  0  0
    5.6755   -1.0613   -1.1961 N   0  0  0  0  0  4  0  0  0  0  0  0
    6.8122   -1.6421   -1.1460 O   0  0  0  0  0  0  0  0  0  0  0  0
    4.7565   -1.6429   -1.9993 O   0  0  0  0  0  1  0  0  0  0  0  0
    2.7653   -1.4332   -0.0729 N   0  0  0  0  0  0  0  0  0  0  0  0
    1.4183   -1.5866   -0.1219 C   0  0  0  0  0  0  0  0  0  0  0  0
   -1.3459   -3.3165   -0.4307 H   0  0  0  0  0  0  0  0  0  0  0  0
   -3.3203   -2.0421   -0.2794 H   0  0  0  0  0  0  0  0  0  0  0  0
   -5.0711   -1.3952   -1.3849 H   0  0  0  0  0  0  0  0  0  0  0  0
   -7.5090   -1.1853   -1.3976 H   0  0  0  0  0  0  0  0  0  0  0  0
   -8.5433    0.5444    0.0241 H   0  0  0  0  0  0  0  0  0  0  0  0
   -7.1654    2.0604    1.4520 H   0  0  0  0  0  0  0  0  0  0  0  0
   -4.6822    1.7857    1.4124 H   0  0  0  0  0  0  0  0  0  0  0  0
   -2.9207    2.1121    0.3444 H   0  0  0  0  0  0  0  0  0  0  0  0
   -0.4683    1.9028    0.3579 H   0  0  0  0  0  0  0  0  0  0  0  0
    5.5831    3.4556    1.5609 H   0  0  0  0  0  0  0  0  0  0  0  0
    7.6313    2.6141    0.5436 H   0  0  0  0  0  0  0  0  0  0  0  0
    7.6494    0.5251   -0.6883 H   0  0  0  0  0  0  0  0  0  0  0  0
    3.3933   -2.2576   -0.1334 H   0  0  0  0  0  0  0  0  0  0  0  0
  1  2  2  0
  2  3  1  0
  3  4  1  0
  4  5  2  0
  5  6  1  0
  6  7  1  0
  7  8  2  0
  8  9  1  0
  9 10  2  0
 10 11  1  0
 11 12  2  0
  6 13  2  0
 13 14  1  0
 14 15  2  0
 15 16  1  0
 16 17  1  0
 17 18  2  0
 18 19  1  0
 19 20  2  0
 20 21  1  0
 20 22  1  0
 22 23  2  0
 23 24  1  0
 24 25  2  0
 25 26  1  0
 26 27  2  0
 26 28  1  0
 18 29  1  0
 29 30  1  0
 30  2  1  0
 15  4  1  0
 30 16  2  0
 12  7  1  0
 25 19  1  0
  3 31  1  0
  5 32  1  0
  8 33  1  0
  9 34  1  0
 10 35  1  0
 11 36  1  0
 12 37  1  0
 13 38  1  0
 14 39  1  0
 22 40  1  0
 23 41  1  0
 24 42  1  0
 29 43  1  0
M  CHG  2  26   1  28  -1
M  END
$$$$
