
     RDKit          3D

 49 52  0  0  0  0  0  0  0  0999 V2000
    6.2840   -0.5329    0.5862 O   0  0  0  0  0  0  0  0  0  0  0  0
    5.2205    0.2962    0.9768 C   0  0  1  0  0  0  0  0  0  0  0  0
    4.6109    1.0231   -0.1849 C   0  0  0  0  0  0  0  0  0  0  0  0
    3.8335    0.0514   -1.0897 C   0  0  0  0  0  0  0  0  0  0  0  0
    2.9553   -0.7785   -0.2251 C   0  0  2  0  0  0  0  0  0  0  0  0
    1.7502   -1.3459   -0.8367 C   0  0  0  0  0  0  0  0  0  0  0  0
    1.6955   -2.6376   -1.3432 N   0  0  0  0  0  0  0  0  0  0  0  0
    0.4863   -2.8716   -1.7800 N   0  0  0  0  0  0  0  0  0  0  0  0
   -0.2804   -1.8163   -1.6006 C   0  0  0  0  0  0  0  0  0  0  0  0
    0.5121   -0.8007   -0.9886 C   0  0  0  0  0  0  0  0  0  0  0  0
   -0.0290    0.4890   -0.6158 C   0  0  0  0  0  0  0  0  0  0  0  0
    0.6620    1.6416   -0.4644 C   0  0  0  0  0  0  0  0  0  0  0  0
   -0.0124    2.8258   -0.1623 C   0  0  0  0  0  0  0  0  0  0  0  0
   -1.3362    2.8265   -0.0227 N   0  0  0  0  0  0  0  0  0  0  0  0
   -2.0518    1.6942   -0.1684 C   0  0  0  0  0  0  0  0  0  0  0  0
   -3.4619    1.7483   -0.0080 N   0  0  0  0  0  0  0  0  0  0  0  0
   -4.2897    0.5743   -0.1500 C   0  0  0  0  0  0  0  0  0  0  0  0
   -3.8950   -0.5034    0.8630 C   0  0  0  0  0  0  0  0  0  0  0  0
   -5.0920   -1.4368    0.8235 C   0  0  0  0  0  0  0  0  0  0  0  0
   -6.2893   -0.5129    0.6675 C   0  0  0  0  0  0  0  0  0  0  0  0
   -5.7195    0.8342    0.2497 C   0  0  0  0  0  0  0  0  0  0  0  0
   -1.3860    0.5927   -0.4533 N   0  0  0  0  0  0  0  0  0  0  0  0
    2.8279   -0.3022    1.1968 C   0  0  0  0  0  0  0  0  0  0  0  0
    4.2399   -0.4571    1.8141 C   0  0  0  0  0  0  0  0  0  0  0  0
    6.2944   -0.7046   -0.3846 H   0  0  0  0  0  0  0  0  0  0  0  0
    5.6832    1.0749    1.6305 H   0  0  0  0  0  0  0  0  0  0  0  0
    3.9924    1.8414    0.1787 H   0  0  0  0  0  0  0  0  0  0  0  0
    5.4559    1.4607   -0.7710 H   0  0  0  0  0  0  0  0  0  0  0  0
    3.3637    0.6147   -1.8904 H   0  0  0  0  0  0  0  0  0  0  0  0
    4.6621   -0.5330   -1.5944 H   0  0  0  0  0  0  0  0  0  0  0  0
    3.6379   -1.7285   -0.0537 H   0  0  0  0  0  0  0  0  0  0  0  0
    2.4925   -3.3152   -1.3739 H   0  0  0  0  0  0  0  0  0  0  0  0
   -1.3245   -1.6639   -1.8446 H   0  0  0  0  0  0  0  0  0  0  0  0
    1.7246    1.6948   -0.5823 H   0  0  0  0  0  0  0  0  0  0  0  0
    0.5720    3.7450   -0.0444 H   0  0  0  0  0  0  0  0  0  0  0  0
   -3.9127    2.6499    0.2165 H   0  0  0  0  0  0  0  0  0  0  0  0
   -4.2481    0.1461   -1.1745 H   0  0  0  0  0  0  0  0  0  0  0  0
   -2.9542   -0.9967    0.5931 H   0  0  0  0  0  0  0  0  0  0  0  0
   -3.8927   -0.0396    1.8697 H   0  0  0  0  0  0  0  0  0  0  0  0
   -5.0419   -2.1605   -0.0036 H   0  0  0  0  0  0  0  0  0  0  0  0
   -5.1186   -1.9982    1.7752 H   0  0  0  0  0  0  0  0  0  0  0  0
   -6.9758   -0.9301   -0.1038 H   0  0  0  0  0  0  0  0  0  0  0  0
   -6.8714   -0.4465    1.6040 H   0  0  0  0  0  0  0  0  0  0  0  0
   -6.3302    1.2168   -0.5934 H   0  0  0  0  0  0  0  0  0  0  0  0
   -5.7737    1.5813    1.0505 H   0  0  0  0  0  0  0  0  0  0  0  0
    2.4505    0.6852    1.3727 H   0  0  0  0  0  0  0  0  0  0  0  0
    2.2306   -1.0953    1.7405 H   0  0  0  0  0  0  0  0  0  0  0  0
    4.4364   -1.5672    1.7865 H   0  0  0  0  0  0  0  0  0  0  0  0
    4.2125   -0.1329    2.8739 H   0  0  0  0  0  0  0  0  0  0  0  0
  1  2  1  0
  2  3  1  0
  3  4  1  0
  4  5  1  0
  5  6  1  0
  6  7  1  0
  7  8  1  0
  8  9  2  0
  9 10  1  0
 10 11  1  0
 11 12  2  0
 12 13  1  0
 13 14  2  0
 14 15  1  0
 15 16  1  0
 16 17  1  0
 17 18  1  0
 18 19  1  0
 19 20  1  0
 20 21  1  0
 15 22  2  0
  5 23  1  0
 23 24  1  0
 24  2  1  0
 10  6  2  0
 22 11  1  0
 21 17  1  0
  1 25  1  0
  2 26  1  1
  3 27  1  0
  3 28  1  0
  4 29  1  0
  4 30  1  0
  5 31  1  1
  7 32  1  0
  9 33  1  0
 12 34  1  0
 13 35  1  0
 16 36  1  0
 17 37  1  0
 18 38  1  0
 18 39  1  0
 19 40  1  0
 19 41  1  0
 20 42  1  0
 20 43  1  0
 21 44  1  0
 21 45  1  0
 23 46  1  0
 23 47  1  0
 24 48  1  0
 24 49  1  0
M  END
$$$$
