
     RDKit          3D

 65 64  0  0  0  0  0  0  0  0999 V2000
   -8.8439    1.3183    1.4413 C   0  0  0  0  0  0  0  0  0  0  0  0
   -8.1030    0.7804    0.2632 C   0  0  0  0  0  0  0  0  0  0  0  0
   -7.7887    1.5797   -0.9533 C   0  0  0  0  0  0  0  0  0  0  0  0
   -7.6949   -0.5053    0.3053 C   0  0  0  0  0  0  0  0  0  0  0  0
   -6.9522   -1.2956   -0.7002 C   0  0  0  0  0  0  0  0  0  0  0  0
   -5.6711   -1.7790   -0.1213 C   0  0  0  0  0  0  0  0  0  0  0  0
   -4.7363   -0.7408    0.3333 C   0  0  0  0  0  0  0  0  0  0  0  0
   -5.0449    0.2320    1.4056 C   0  0  0  0  0  0  0  0  0  0  0  0
   -3.4765   -0.5137   -0.1192 C   0  0  0  0  0  0  0  0  0  0  0  0
   -2.4828    0.4853    0.2678 C   0  0  0  0  0  0  0  0  0  0  0  0
   -1.2314   -0.0642    0.8717 C   0  0  0  0  0  0  0  0  0  0  0  0
   -0.5243   -0.9481   -0.0507 C   0  0  0  0  0  0  0  0  0  0  0  0
   -0.9497   -2.2411   -0.6472 C   0  0  0  0  0  0  0  0  0  0  0  0
    0.7300   -0.5751   -0.4194 C   0  0  0  0  0  0  0  0  0  0  0  0
    1.7063    0.4939   -0.1977 C   0  0  0  0  0  0  0  0  0  0  0  0
    2.9676    0.0370    0.4356 C   0  0  0  0  0  0  0  0  0  0  0  0
    3.7666   -0.9631   -0.2629 C   0  0  0  0  0  0  0  0  0  0  0  0
    3.3977   -2.3574   -0.6241 C   0  0  0  0  0  0  0  0  0  0  0  0
    5.0318   -0.6523   -0.6422 C   0  0  0  0  0  0  0  0  0  0  0  0
    5.9494    0.5074   -0.5589 C   0  0  0  0  0  0  0  0  0  0  0  0
    7.1225    0.2197    0.1381 O   0  0  0  0  0  0  0  0  0  0  0  0
    8.0554    1.6291    0.1294 P   0  0  0  0  0  0  0  0  0  0  0  0
    7.2857    2.9096    0.9040 O   0  0  0  0  0  0  0  0  0  0  0  0
    8.2935    2.0437   -1.3216 O   0  0  0  0  0  0  0  0  0  0  0  0
    9.5365    1.2478    0.8616 O   0  0  0  0  0  0  0  0  0  0  0  0
   10.7841    1.6163   -0.1977 P   0  0  0  0  0  0  0  0  0  0  0  0
   10.9436    0.4272   -1.3839 O   0  0  0  0  0  0  0  0  0  0  0  0
   12.2528    1.7676    0.6369 O   0  0  0  0  0  0  0  0  0  0  0  0
   10.4454    2.9171   -0.8983 O   0  0  0  0  0  0  0  0  0  0  0  0
   -9.4700    0.5011    1.8421 H   0  0  0  0  0  0  0  0  0  0  0  0
   -8.1371    1.7035    2.2245 H   0  0  0  0  0  0  0  0  0  0  0  0
   -9.5274    2.1092    1.0830 H   0  0  0  0  0  0  0  0  0  0  0  0
   -6.7457    1.9843   -0.8653 H   0  0  0  0  0  0  0  0  0  0  0  0
   -7.8189    1.0041   -1.8882 H   0  0  0  0  0  0  0  0  0  0  0  0
   -8.4296    2.4898   -1.0132 H   0  0  0  0  0  0  0  0  0  0  0  0
   -7.9012   -1.1293    1.1649 H   0  0  0  0  0  0  0  0  0  0  0  0
   -7.6211   -2.1404   -0.9951 H   0  0  0  0  0  0  0  0  0  0  0  0
   -6.7104   -0.6824   -1.6068 H   0  0  0  0  0  0  0  0  0  0  0  0
   -5.8040   -2.4998    0.7066 H   0  0  0  0  0  0  0  0  0  0  0  0
   -5.1361   -2.3413   -0.9376 H   0  0  0  0  0  0  0  0  0  0  0  0
   -5.9575   -0.0286    1.9983 H   0  0  0  0  0  0  0  0  0  0  0  0
   -4.2280    0.2658    2.1791 H   0  0  0  0  0  0  0  0  0  0  0  0
   -5.2067    1.2361    0.9722 H   0  0  0  0  0  0  0  0  0  0  0  0
   -3.2738   -1.2285   -0.9009 H   0  0  0  0  0  0  0  0  0  0  0  0
   -2.9003    1.2117    1.0049 H   0  0  0  0  0  0  0  0  0  0  0  0
   -2.2501    1.1346   -0.6267 H   0  0  0  0  0  0  0  0  0  0  0  0
   -1.5320   -0.5925    1.8216 H   0  0  0  0  0  0  0  0  0  0  0  0
   -0.5802    0.7704    1.2188 H   0  0  0  0  0  0  0  0  0  0  0  0
   -1.2410   -2.0924   -1.6910 H   0  0  0  0  0  0  0  0  0  0  0  0
   -0.0360   -2.9070   -0.6834 H   0  0  0  0  0  0  0  0  0  0  0  0
   -1.7088   -2.7006    0.0119 H   0  0  0  0  0  0  0  0  0  0  0  0
    1.3246   -1.1653   -1.1154 H   0  0  0  0  0  0  0  0  0  0  0  0
    1.9057    1.1182   -1.1008 H   0  0  0  0  0  0  0  0  0  0  0  0
    1.2439    1.2170    0.5458 H   0  0  0  0  0  0  0  0  0  0  0  0
    2.7057   -0.3387    1.4794 H   0  0  0  0  0  0  0  0  0  0  0  0
    3.5638    0.9565    0.6650 H   0  0  0  0  0  0  0  0  0  0  0  0
    2.6231   -2.7691    0.0527 H   0  0  0  0  0  0  0  0  0  0  0  0
    4.2865   -3.0425   -0.4494 H   0  0  0  0  0  0  0  0  0  0  0  0
    3.1869   -2.4991   -1.7033 H   0  0  0  0  0  0  0  0  0  0  0  0
    5.6880   -1.3737   -1.1682 H   0  0  0  0  0  0  0  0  0  0  0  0
    5.3838    1.3410   -0.0490 H   0  0  0  0  0  0  0  0  0  0  0  0
    6.1378    0.8673   -1.6028 H   0  0  0  0  0  0  0  0  0  0  0  0
    7.1725    3.6965    0.3037 H   0  0  0  0  0  0  0  0  0  0  0  0
   10.1295   -0.1260   -1.3702 H   0  0  0  0  0  0  0  0  0  0  0  0
   12.0945    1.5927    1.5980 H   0  0  0  0  0  0  0  0  0  0  0  0
  1  2  1  0
  2  3  1  0
  2  4  2  3
  4  5  1  0
  5  6  1  0
  6  7  1  0
  7  8  1  0
  7  9  2  3
  9 10  1  0
 10 11  1  0
 11 12  1  0
 12 13  1  0
 12 14  2  3
 14 15  1  0
 15 16  1  0
 16 17  1  0
 17 18  1  0
 17 19  2  3
 19 20  1  0
 20 21  1  0
 21 22  1  0
 22 23  1  0
 22 24  2  0
 22 25  1  0
 25 26  1  0
 26 27  1  0
 26 28  1  0
 26 29  2  0
  1 30  1  0
  1 31  1  0
  1 32  1  0
  3 33  1  0
  3 34  1  0
  3 35  1  0
  4 36  1  0
  5 37  1  0
  5 38  1  0
  6 39  1  0
  6 40  1  0
  8 41  1  0
  8 42  1  0
  8 43  1  0
  9 44  1  0
 10 45  1  0
 10 46  1  0
 11 47  1  0
 11 48  1  0
 13 49  1  0
 13 50  1  0
 13 51  1  0
 14 52  1  0
 15 53  1  0
 15 54  1  0
 16 55  1  0
 16 56  1  0
 18 57  1  0
 18 58  1  0
 18 59  1  0
 19 60  1  0
 20 61  1  0
 20 62  1  0
 23 63  1  0
 27 64  1  0
 28 65  1  0
M  END
$$$$
