
     RDKit          3D

 45 48  0  0  0  0  0  0  0  0999 V2000
    5.8809    1.2542    0.3806 C   0  0  0  0  0  0  0  0  0  0  0  0
    4.4865    1.6658    0.0795 C   0  0  0  0  0  0  0  0  0  0  0  0
    4.0426    2.8490   -0.4879 C   0  0  0  0  0  0  0  0  0  0  0  0
    2.7240    2.7924   -0.5729 O   0  0  0  0  0  0  0  0  0  0  0  0
    2.2964    1.6532   -0.0982 C   0  0  0  0  0  0  0  0  0  0  0  0
    0.8569    1.1795   -0.0065 C   0  0  1  0  0  0  0  0  0  0  0  0
    0.4953    0.3539   -1.1811 C   0  0  0  0  0  0  0  0  0  0  0  0
   -0.5755   -0.6688   -1.0109 C   0  0  1  0  0  0  0  0  0  0  0  0
   -0.1212   -1.9551   -1.5890 C   0  0  1  0  0  0  0  0  0  0  0  0
    1.0828   -2.6023   -1.0242 C   0  0  0  0  0  0  0  0  0  0  0  0
    1.2640   -3.7858   -1.7685 F   0  0  0  0  0  0  0  0  0  0  0  0
   -1.4597   -3.1934   -1.5101 S   0  0  0  0  0  0  0  0  0  0  0  0
   -2.0286   -2.9883    0.1877 C   0  0  0  0  0  0  0  0  0  0  0  0
   -2.7084   -4.0768    0.8258 N   0  0  0  0  0  0  0  0  0  0  0  0
   -1.8062   -1.9017    0.7404 N   0  0  0  0  0  0  0  0  0  0  0  0
   -1.1745   -0.6877    0.3584 C   0  0  2  0  0  0  0  0  0  0  0  0
   -2.2386    0.3453    0.4419 C   0  0  0  0  0  0  0  0  0  0  0  0
   -2.1672    1.4349    1.2685 C   0  0  0  0  0  0  0  0  0  0  0  0
   -3.1519    2.4015    1.3629 C   0  0  0  0  0  0  0  0  0  0  0  0
   -4.2990    2.2825    0.5780 C   0  0  0  0  0  0  0  0  0  0  0  0
   -5.2645    3.2254    0.6670 F   0  0  0  0  0  0  0  0  0  0  0  0
   -4.4050    1.2145   -0.2543 C   0  0  0  0  0  0  0  0  0  0  0  0
   -3.3984    0.2707   -0.3188 C   0  0  0  0  0  0  0  0  0  0  0  0
   -3.6008   -0.7511   -1.1747 F   0  0  0  0  0  0  0  0  0  0  0  0
   -0.1501   -0.3845    1.4302 C   0  0  0  0  0  0  0  0  0  0  0  0
    0.6941    0.6337    1.2108 O   0  0  0  0  0  0  0  0  0  0  0  0
    3.3642    0.9457    0.3082 N   0  0  0  0  0  0  0  0  0  0  0  0
    6.3720    0.8557   -0.5344 H   0  0  0  0  0  0  0  0  0  0  0  0
    5.8782    0.4550    1.1510 H   0  0  0  0  0  0  0  0  0  0  0  0
    6.4521    2.1008    0.8188 H   0  0  0  0  0  0  0  0  0  0  0  0
    4.7142    3.6435   -0.7876 H   0  0  0  0  0  0  0  0  0  0  0  0
    0.2904    2.1676    0.0030 H   0  0  0  0  0  0  0  0  0  0  0  0
    1.4325   -0.1438   -1.5767 H   0  0  0  0  0  0  0  0  0  0  0  0
    0.2601    1.0893   -2.0145 H   0  0  0  0  0  0  0  0  0  0  0  0
   -1.4142   -0.3388   -1.7038 H   0  0  0  0  0  0  0  0  0  0  0  0
    0.0591   -1.7910   -2.6717 H   0  0  0  0  0  0  0  0  0  0  0  0
    0.9436   -3.0023    0.0160 H   0  0  0  0  0  0  0  0  0  0  0  0
    2.0046   -2.0400   -1.1552 H   0  0  0  0  0  0  0  0  0  0  0  0
   -3.7393   -4.0875    0.7988 H   0  0  0  0  0  0  0  0  0  0  0  0
   -2.1140   -4.7920    1.2790 H   0  0  0  0  0  0  0  0  0  0  0  0
   -1.3042    1.5682    1.8885 H   0  0  0  0  0  0  0  0  0  0  0  0
   -3.0365    3.2316    2.0300 H   0  0  0  0  0  0  0  0  0  0  0  0
   -5.3092    1.1206   -0.8731 H   0  0  0  0  0  0  0  0  0  0  0  0
    0.5014   -1.3026    1.6195 H   0  0  0  0  0  0  0  0  0  0  0  0
   -0.6287   -0.2406    2.4274 H   0  0  0  0  0  0  0  0  0  0  0  0
  1  2  1  0
  2  3  2  0
  3  4  1  0
  4  5  1  0
  5  6  1  0
  6  7  1  0
  7  8  1  0
  8  9  1  0
  9 10  1  0
 10 11  1  0
  9 12  1  0
 12 13  1  0
 13 14  1  0
 13 15  2  0
 15 16  1  0
 16 17  1  6
 17 18  2  0
 18 19  1  0
 19 20  2  0
 20 21  1  0
 20 22  1  0
 22 23  2  0
 23 24  1  0
 16 25  1  0
 25 26  1  0
  5 27  2  0
 27  2  1  0
 26  6  1  0
 16  8  1  0
 23 17  1  0
  1 28  1  0
  1 29  1  0
  1 30  1  0
  3 31  1  0
  6 32  1  1
  7 33  1  0
  7 34  1  0
  8 35  1  6
  9 36  1  6
 10 37  1  0
 10 38  1  0
 14 39  1  0
 14 40  1  0
 18 41  1  0
 19 42  1  0
 22 43  1  0
 25 44  1  0
 25 45  1  0
M  END
$$$$
